=
 OpenBabel11112416593D

 31 35  0  0  0  0  0  0  0  0999 V2000
  184.4000  178.5240  146.1940 C   0  0  0  0  0  0  0  0  0  0  0  0
  187.1750  177.5090  143.8560 C   0  0  0  0  0  0  0  0  0  0  0  0
  186.6520  177.5910  142.5310 C   0  0  0  0  0  0  0  0  0  0  0  0
  184.8610  178.0540  140.9350 C   0  0  0  0  0  0  0  0  0  0  0  0
  186.4370  177.8140  145.0420 C   0  0  0  0  0  0  0  0  0  0  0  0
  185.0380  178.4000  147.4280 C   0  0  0  0  0  3  0  0  0  0  0  0
  185.3320  177.9870  142.2470 C   0  0  0  0  0  3  0  0  0  0  0  0
  189.1300  176.9830  145.2600 C   0  0  0  0  0  0  0  0  0  0  0  0
  183.0760  178.9350  146.1350 O   0  0  0  0  0  1  0  0  0  0  0  0
  188.7670  176.8740  141.6630 N   0  0  0  0  0  0  0  0  0  0  0  0
  183.5530  178.4470  140.6870 O   0  0  0  0  0  1  0  0  0  0  0  0
  188.3900  177.2860  146.4010 C   0  0  0  0  0  3  0  0  0  0  0  0
  188.5300  177.0930  143.9960 C   0  0  0  0  0  0  0  0  0  0  0  0
  185.0940  178.2330  145.0180 C   0  0  0  0  0  3  0  0  0  0  0  0
  185.7030  177.7230  139.8740 C   0  0  0  0  0  3  0  0  0  0  0  0
  187.0670  177.6950  146.3080 C   0  0  0  0  0  0  0  0  0  0  0  0
  186.3690  177.9860  147.4840 C   0  0  0  0  0  3  0  0  0  0  0  0
  189.2660  176.7940  142.8920 N   0  0  0  0  0  0  0  0  0  0  0  0
  187.4910  177.2610  141.4410 C   0  0  0  0  0  0  0  0  0  0  0  0
  187.0170  177.3280  140.1270 C   0  0  0  0  0  3  0  0  0  0  0  0
  190.1920  174.4570  146.3360 O   0  0  0  0  0  0  0  0  0  0  0  0
  190.9930  175.3190  145.8840 C   0  0  0  0  0  0  0  0  0  0  0  0
  190.5010  176.5600  145.3540 N   0  0  0  0  0  2  0  0  0  0  0  0
  195.2320  174.6460  145.9500 C   0  0  0  0  0  0  0  0  0  0  0  0
  193.3160  176.0600  146.3710 C   0  0  0  0  0  3  0  0  0  0  0  0
  192.2130  172.8430  144.9750 F   0  0  0  0  0  0  0  0  0  0  0  0
  196.5710  174.4450  145.9760 F   0  0  0  0  0  0  0  0  0  0  0  0
  194.6970  175.8540  146.3980 C   0  0  0  0  0  3  0  0  0  0  0  0
  193.0000  173.8410  145.4440 C   0  0  0  0  0  0  0  0  0  0  0  0
  192.4510  175.0610  145.8960 C   0  0  0  0  0  0  0  0  0  0  0  0
  194.3840  173.6430  145.4740 C   0  0  0  0  0  3  0  0  0  0  0  0
  1  6  1  0  0  0  0
  2 13  2  0  0  0  0
  2  5  1  0  0  0  0
  3  2  1  0  0  0  0
  4  7  1  0  0  0  0
  5 16  2  0  0  0  0
  6 17  2  0  0  0  0
  7  3  2  0  0  0  0
  8 23  1  0  0  0  0
  8 12  2  0  0  0  0
  9  1  1  0  0  0  0
 10 18  2  0  0  0  0
 11  4  1  0  0  0  0
 13  8  1  0  0  0  0
 14  5  1  0  0  0  0
 14  1  2  0  0  0  0
 15 20  1  0  0  0  0
 15  4  2  0  0  0  0
 16 12  1  0  0  0  0
 16 17  1  0  0  0  0
 18 13  1  0  0  0  0
 19 10  1  0  0  0  0
 19  3  1  0  0  0  0
 20 19  2  0  0  0  0
 22 30  1  0  0  0  0
 22 21  2  0  0  0  0
 23 22  1  0  0  0  0
 24 27  1  0  0  0  0
 24 28  1  0  0  0  0
 25 28  2  0  0  0  0
 26 29  1  0  0  0  0
 29 31  1  0  0  0  0
 29 30  2  0  0  0  0
 30 25  1  0  0  0  0
 31 24  2  0  0  0  0
M  END
>  <MODEL>
1

>  <REMARK>
 VINA RESULT:      -9.7      0.000      0.000
  Name = 
  2 active torsions:
  status: ('A' for Active; 'I' for Inactive)
    1  A    between atoms: C_5  and  C_30
    2  A    between atoms: C_10  and  N_16
                            x       y       z     vdW  Elec       q    Type
                         _______ _______ _______ _____ _____    ______ ____

>  <TORSDO>
F 2

$$$$
=
 OpenBabel11112416593D

 31 35  0  0  0  0  0  0  0  0999 V2000
  185.2750  177.9330  141.0740 C   0  0  0  0  0  0  0  0  0  0  0  0
  187.2680  177.4050  144.2280 C   0  0  0  0  0  0  0  0  0  0  0  0
  186.4190  177.7550  145.3190 C   0  0  0  0  0  0  0  0  0  0  0  0
  184.2990  178.5370  146.2490 C   0  0  0  0  0  0  0  0  0  0  0  0
  186.8900  177.4650  142.8500 C   0  0  0  0  0  0  0  0  0  0  0  0
  186.2090  177.5600  140.1070 C   0  0  0  0  0  3  0  0  0  0  0  0
  185.0960  178.2050  145.1520 C   0  0  0  0  0  3  0  0  0  0  0  0
  189.4920  176.5990  143.5360 C   0  0  0  0  0  0  0  0  0  0  0  0
  184.0090  178.3520  140.6910 O   0  0  0  0  0  1  0  0  0  0  0  0
  188.1840  177.2230  146.8500 N   0  0  0  0  0  0  0  0  0  0  0  0
  182.9980  178.9790  146.0510 O   0  0  0  0  0  1  0  0  0  0  0  0
  189.0990  176.6660  142.2000 C   0  0  0  0  0  3  0  0  0  0  0  0
  188.5860  176.9650  144.5440 C   0  0  0  0  0  0  0  0  0  0  0  0
  185.6150  177.8860  142.4270 C   0  0  0  0  0  3  0  0  0  0  0  0
  184.8110  178.4280  147.5410 C   0  0  0  0  0  3  0  0  0  0  0  0
  187.8240  177.0900  141.8500 C   0  0  0  0  0  0  0  0  0  0  0  0
  187.4810  177.1390  140.4960 C   0  0  0  0  0  3  0  0  0  0  0  0
  188.9850  176.8930  145.8420 N   0  0  0  0  0  0  0  0  0  0  0  0
  186.9190  177.6500  146.6390 C   0  0  0  0  0  0  0  0  0  0  0  0
  186.1180  177.9840  147.7350 C   0  0  0  0  0  3  0  0  0  0  0  0
  191.9270  178.2190  143.8770 O   0  0  0  0  0  0  0  0  0  0  0  0
  191.9840  176.9730  144.0610 C   0  0  0  0  0  0  0  0  0  0  0  0
  190.8110  176.1600  143.9010 N   0  0  0  0  0  2  0  0  0  0  0  0
  195.7150  175.1190  145.0940 C   0  0  0  0  0  0  0  0  0  0  0  0
  194.1690  175.9640  143.4380 C   0  0  0  0  0  3  0  0  0  0  0  0
  192.7680  176.4240  146.8060 F   0  0  0  0  0  0  0  0  0  0  0  0
  196.8950  174.5330  145.4080 F   0  0  0  0  0  0  0  0  0  0  0  0
  195.3860  175.3600  143.7600 C   0  0  0  0  0  3  0  0  0  0  0  0
  193.6040  176.0870  145.7930 C   0  0  0  0  0  0  0  0  0  0  0  0
  193.2640  176.3350  144.4450 C   0  0  0  0  0  0  0  0  0  0  0  0
  194.8250  175.4820  146.1080 C   0  0  0  0  0  3  0  0  0  0  0  0
  1 14  1  0  0  0  0
  2 13  2  0  0  0  0
  2  3  1  0  0  0  0
  3 19  1  0  0  0  0
  4 15  2  0  0  0  0
  5  2  1  0  0  0  0
  6 17  1  0  0  0  0
  6  1  2  0  0  0  0
  7  3  2  0  0  0  0
  7  4  1  0  0  0  0
  8 23  1  0  0  0  0
  8 13  1  0  0  0  0
  9  1  1  0  0  0  0
 11  4  1  0  0  0  0
 12  8  2  0  0  0  0
 13 18  1  0  0  0  0
 14  5  2  0  0  0  0
 15 20  1  0  0  0  0
 16 12  1  0  0  0  0
 16  5  1  0  0  0  0
 17 16  2  0  0  0  0
 18 10  2  0  0  0  0
 19 10  1  0  0  0  0
 19 20  2  0  0  0  0
 21 22  2  0  0  0  0
 22 30  1  0  0  0  0
 23 22  1  0  0  0  0
 24 27  1  0  0  0  0
 24 31  1  0  0  0  0
 25 28  1  0  0  0  0
 25 30  2  0  0  0  0
 28 24  2  0  0  0  0
 29 31  2  0  0  0  0
 29 26  1  0  0  0  0
 30 29  1  0  0  0  0
M  END
>  <MODEL>
2

>  <REMARK>
 VINA RESULT:      -9.4      1.683      4.246
  Name = 
  2 active torsions:
  status: ('A' for Active; 'I' for Inactive)
    1  A    between atoms: C_5  and  C_30
    2  A    between atoms: C_10  and  N_16
                            x       y       z     vdW  Elec       q    Type
                         _______ _______ _______ _____ _____    ______ ____

>  <TORSDO>
F 2

$$$$
=
 OpenBabel11112416593D

 31 35  0  0  0  0  0  0  0  0999 V2000
  184.5910  178.4140  146.1350 C   0  0  0  0  0  0  0  0  0  0  0  0
  187.2170  177.0040  143.8300 C   0  0  0  0  0  0  0  0  0  0  0  0
  186.7460  177.1980  142.4980 C   0  0  0  0  0  0  0  0  0  0  0  0
  185.0950  177.9840  140.8770 C   0  0  0  0  0  0  0  0  0  0  0  0
  186.5110  177.4020  145.0080 C   0  0  0  0  0  0  0  0  0  0  0  0
  185.1700  178.1620  147.3790 C   0  0  0  0  0  3  0  0  0  0  0  0
  185.5170  177.8130  142.1960 C   0  0  0  0  0  3  0  0  0  0  0  0
  189.0240  176.1330  145.2600 C   0  0  0  0  0  0  0  0  0  0  0  0
  183.3550  179.0400  146.0600 O   0  0  0  0  0  1  0  0  0  0  0  0
  188.7350  176.1600  141.6550 N   0  0  0  0  0  0  0  0  0  0  0  0
  183.8760  178.5930  140.6120 O   0  0  0  0  0  1  0  0  0  0  0  0
  188.3170  176.5300  146.3940 C   0  0  0  0  0  3  0  0  0  0  0  0
  188.4810  176.3670  143.9870 C   0  0  0  0  0  0  0  0  0  0  0  0
  185.2550  178.0370  144.9670 C   0  0  0  0  0  3  0  0  0  0  0  0
  185.8960  177.5410  139.8260 C   0  0  0  0  0  3  0  0  0  0  0  0
  187.0810  177.1540  146.2830 C   0  0  0  0  0  0  0  0  0  0  0  0
  186.4130  177.5320  147.4520 C   0  0  0  0  0  3  0  0  0  0  0  0
  189.1840  175.9730  142.8920 N   0  0  0  0  0  0  0  0  0  0  0  0
  187.5460  176.7570  141.4160 C   0  0  0  0  0  0  0  0  0  0  0  0
  187.1200  176.9290  140.0960 C   0  0  0  0  0  3  0  0  0  0  0  0
  191.7020  177.3290  145.0030 O   0  0  0  0  0  0  0  0  0  0  0  0
  191.5980  176.0960  145.2420 C   0  0  0  0  0  0  0  0  0  0  0  0
  190.3040  175.4870  145.3720 N   0  0  0  0  0  2  0  0  0  0  0  0
  195.0780  173.6140  145.6360 C   0  0  0  0  0  0  0  0  0  0  0  0
  192.8040  173.9500  144.8880 C   0  0  0  0  0  3  0  0  0  0  0  0
  194.0440  176.9980  146.5270 F   0  0  0  0  0  0  0  0  0  0  0  0
  196.1700  172.8210  145.7540 F   0  0  0  0  0  0  0  0  0  0  0  0
  193.9280  173.1320  145.0090 C   0  0  0  0  0  3  0  0  0  0  0  0
  193.9800  175.7410  146.0240 C   0  0  0  0  0  0  0  0  0  0  0  0
  192.8120  175.2610  145.3910 C   0  0  0  0  0  0  0  0  0  0  0  0
  195.1020  174.9160  146.1410 C   0  0  0  0  0  3  0  0  0  0  0  0
  1  6  1  0  0  0  0
  2 13  2  0  0  0  0
  2  5  1  0  0  0  0
  3  2  1  0  0  0  0
  4  7  1  0  0  0  0
  5 16  2  0  0  0  0
  6 17  2  0  0  0  0
  7  3  2  0  0  0  0
  8 23  1  0  0  0  0
  8 12  2  0  0  0  0
  9  1  1  0  0  0  0
 10 18  2  0  0  0  0
 11  4  1  0  0  0  0
 13  8  1  0  0  0  0
 14  5  1  0  0  0  0
 14  1  2  0  0  0  0
 15 20  1  0  0  0  0
 15  4  2  0  0  0  0
 16 12  1  0  0  0  0
 16 17  1  0  0  0  0
 18 13  1  0  0  0  0
 19 10  1  0  0  0  0
 19  3  1  0  0  0  0
 20 19  2  0  0  0  0
 21 22  2  0  0  0  0
 22 23  1  0  0  0  0
 22 30  1  0  0  0  0
 24 27  1  0  0  0  0
 24 31  1  0  0  0  0
 25 28  1  0  0  0  0
 25 30  2  0  0  0  0
 28 24  2  0  0  0  0
 29 31  2  0  0  0  0
 29 26  1  0  0  0  0
 30 29  1  0  0  0  0
M  END
>  <MODEL>
3

>  <REMARK>
 VINA RESULT:      -9.4      1.163      1.523
  Name = 
  2 active torsions:
  status: ('A' for Active; 'I' for Inactive)
    1  A    between atoms: C_5  and  C_30
    2  A    between atoms: C_10  and  N_16
                            x       y       z     vdW  Elec       q    Type
                         _______ _______ _______ _____ _____    ______ ____

>  <TORSDO>
F 2

$$$$
=
 OpenBabel11112416593D

 31 35  0  0  0  0  0  0  0  0999 V2000
  185.4180  177.8750  140.8650 C   0  0  0  0  0  0  0  0  0  0  0  0
  187.2250  176.6810  143.9480 C   0  0  0  0  0  0  0  0  0  0  0  0
  186.4690  177.1300  145.0710 C   0  0  0  0  0  0  0  0  0  0  0  0
  184.5720  178.2920  146.0800 C   0  0  0  0  0  0  0  0  0  0  0  0
  186.8770  176.9270  142.5830 C   0  0  0  0  0  0  0  0  0  0  0  0
  186.2500  177.3770  139.8620 C   0  0  0  0  0  3  0  0  0  0  0  0
  185.2810  177.8740  144.9530 C   0  0  0  0  0  3  0  0  0  0  0  0
  189.2160  175.4540  143.1730 C   0  0  0  0  0  0  0  0  0  0  0  0
  184.2790  178.5940  140.5280 O   0  0  0  0  0  1  0  0  0  0  0  0
  188.0620  176.1040  146.5390 N   0  0  0  0  0  0  0  0  0  0  0  0
  183.4030  179.0270  145.9310 O   0  0  0  0  0  1  0  0  0  0  0  0
  188.8560  175.7070  141.8510 C   0  0  0  0  0  3  0  0  0  0  0  0
  188.4090  175.9360  144.2160 C   0  0  0  0  0  0  0  0  0  0  0  0
  185.7310  177.6520  142.2070 C   0  0  0  0  0  3  0  0  0  0  0  0
  185.0380  177.9750  147.3550 C   0  0  0  0  0  3  0  0  0  0  0  0
  187.7100  176.4300  141.5470 C   0  0  0  0  0  0  0  0  0  0  0  0
  187.3940  176.6560  140.2040 C   0  0  0  0  0  3  0  0  0  0  0  0
  188.7750  175.6810  145.5000 N   0  0  0  0  0  0  0  0  0  0  0  0
  186.9250  176.8170  146.3740 C   0  0  0  0  0  0  0  0  0  0  0  0
  186.2130  177.2370  147.5010 C   0  0  0  0  0  3  0  0  0  0  0  0
  191.9850  176.4300  143.4020 O   0  0  0  0  0  0  0  0  0  0  0  0
  191.7440  175.2080  143.5960 C   0  0  0  0  0  0  0  0  0  0  0  0
  190.4020  174.7060  143.4900 N   0  0  0  0  0  2  0  0  0  0  0  0
  194.8980  172.4950  144.6520 C   0  0  0  0  0  0  0  0  0  0  0  0
  192.8430  173.6500  145.1910 C   0  0  0  0  0  3  0  0  0  0  0  0
  193.9470  174.5740  141.8080 F   0  0  0  0  0  0  0  0  0  0  0  0
  195.8870  171.6370  144.9980 F   0  0  0  0  0  0  0  0  0  0  0  0
  193.8620  172.7650  145.5480 C   0  0  0  0  0  3  0  0  0  0  0  0
  193.8950  173.9980  143.0340 C   0  0  0  0  0  0  0  0  0  0  0  0
  192.8440  174.2760  143.9350 C   0  0  0  0  0  0  0  0  0  0  0  0
  194.9130  173.1110  143.3990 C   0  0  0  0  0  3  0  0  0  0  0  0
  1 14  1  0  0  0  0
  2 13  2  0  0  0  0
  2  3  1  0  0  0  0
  3 19  1  0  0  0  0
  4 15  2  0  0  0  0
  5  2  1  0  0  0  0
  6 17  1  0  0  0  0
  6  1  2  0  0  0  0
  7  3  2  0  0  0  0
  7  4  1  0  0  0  0
  8 23  1  0  0  0  0
  8 13  1  0  0  0  0
  9  1  1  0  0  0  0
 11  4  1  0  0  0  0
 12  8  2  0  0  0  0
 13 18  1  0  0  0  0
 14  5  2  0  0  0  0
 15 20  1  0  0  0  0
 16 12  1  0  0  0  0
 16  5  1  0  0  0  0
 17 16  2  0  0  0  0
 18 10  2  0  0  0  0
 19 10  1  0  0  0  0
 19 20  2  0  0  0  0
 21 22  2  0  0  0  0
 22 30  1  0  0  0  0
 23 22  1  0  0  0  0
 24 27  1  0  0  0  0
 24 28  1  0  0  0  0
 25 28  2  0  0  0  0
 26 29  1  0  0  0  0
 29 31  1  0  0  0  0
 29 30  2  0  0  0  0
 30 25  1  0  0  0  0
 31 24  2  0  0  0  0
M  END
>  <MODEL>
4

>  <REMARK>
 VINA RESULT:      -8.7      1.849      4.339
  Name = 
  2 active torsions:
  status: ('A' for Active; 'I' for Inactive)
    1  A    between atoms: C_5  and  C_30
    2  A    between atoms: C_10  and  N_16
                            x       y       z     vdW  Elec       q    Type
                         _______ _______ _______ _____ _____    ______ ____

>  <TORSDO>
F 2

$$$$
=
 OpenBabel11112416593D

 31 35  0  0  0  0  0  0  0  0999 V2000
  186.4020  177.8050  146.7540 C   0  0  0  0  0  0  0  0  0  0  0  0
  189.2850  176.3040  144.8480 C   0  0  0  0  0  0  0  0  0  0  0  0
  190.4230  176.3600  145.7060 C   0  0  0  0  0  0  0  0  0  0  0  0
  191.5200  176.9280  147.8140 C   0  0  0  0  0  0  0  0  0  0  0  0
  187.9800  176.7760  145.1950 C   0  0  0  0  0  0  0  0  0  0  0  0
  185.3770  177.6890  145.8150 C   0  0  0  0  0  3  0  0  0  0  0  0
  190.3810  176.8940  147.0080 C   0  0  0  0  0  3  0  0  0  0  0  0
  188.4090  175.6400  142.6430 C   0  0  0  0  0  0  0  0  0  0  0  0
  186.1450  178.3700  147.9960 O   0  0  0  0  0  1  0  0  0  0  0  0
  191.7500  175.3340  143.9950 N   0  0  0  0  0  0  0  0  0  0  0  0
  191.4480  177.4620  149.0940 O   0  0  0  0  0  1  0  0  0  0  0  0
  187.1470  176.1080  143.0050 C   0  0  0  0  0  3  0  0  0  0  0  0
  189.4710  175.7370  143.5550 C   0  0  0  0  0  0  0  0  0  0  0  0
  187.6860  177.3550  146.4450 C   0  0  0  0  0  3  0  0  0  0  0  0
  192.7300  176.4280  147.3340 C   0  0  0  0  0  3  0  0  0  0  0  0
  186.9230  176.6680  144.2550 C   0  0  0  0  0  0  0  0  0  0  0  0
  185.6380  177.1210  144.5680 C   0  0  0  0  0  3  0  0  0  0  0  0
  190.6960  175.2760  143.1860 N   0  0  0  0  0  0  0  0  0  0  0  0
  191.6600  175.8560  145.2380 C   0  0  0  0  0  0  0  0  0  0  0  0
  192.7990  175.8920  146.0480 C   0  0  0  0  0  3  0  0  0  0  0  0
  187.8230  172.9010  141.7370 O   0  0  0  0  0  0  0  0  0  0  0  0
  188.3470  173.7170  140.9320 C   0  0  0  0  0  0  0  0  0  0  0  0
  188.6430  175.0600  141.3490 N   0  0  0  0  0  2  0  0  0  0  0  0
  189.2980  172.4390  136.9470 C   0  0  0  0  0  0  0  0  0  0  0  0
  189.3680  172.1040  139.3400 C   0  0  0  0  0  3  0  0  0  0  0  0
  187.5910  175.2280  138.5670 F   0  0  0  0  0  0  0  0  0  0  0  0
  189.6040  172.0250  135.6940 F   0  0  0  0  0  0  0  0  0  0  0  0
  189.6850  171.6760  138.0490 C   0  0  0  0  0  3  0  0  0  0  0  0
  188.2750  174.0660  138.4260 C   0  0  0  0  0  0  0  0  0  0  0  0
  188.6620  173.3000  139.5470 C   0  0  0  0  0  0  0  0  0  0  0  0
  188.5950  173.6310  137.1360 C   0  0  0  0  0  3  0  0  0  0  0  0
  1  9  1  0  0  0  0
  2  5  1  0  0  0  0
  2  3  1  0  0  0  0
  3  7  1  0  0  0  0
  4 11  1  0  0  0  0
  5 14  2  0  0  0  0
  6  1  2  0  0  0  0
  7  4  2  0  0  0  0
  8 12  2  0  0  0  0
  8 13  1  0  0  0  0
 10 19  1  0  0  0  0
 12 16  1  0  0  0  0
 13  2  2  0  0  0  0
 14  1  1  0  0  0  0
 15  4  1  0  0  0  0
 16 17  2  0  0  0  0
 16  5  1  0  0  0  0
 17  6  1  0  0  0  0
 18 13  1  0  0  0  0
 18 10  2  0  0  0  0
 19  3  2  0  0  0  0
 19 20  1  0  0  0  0
 20 15  2  0  0  0  0
 22 23  1  0  0  0  0
 22 21  2  0  0  0  0
 23  8  1  0  0  0  0
 24 31  2  0  0  0  0
 24 28  1  0  0  0  0
 25 30  1  0  0  0  0
 27 24  1  0  0  0  0
 28 25  2  0  0  0  0
 29 26  1  0  0  0  0
 29 30  2  0  0  0  0
 30 22  1  0  0  0  0
 31 29  1  0  0  0  0
M  END
>  <MODEL>
5

>  <REMARK>
 VINA RESULT:      -8.6      3.830      6.902
  Name = 
  2 active torsions:
  status: ('A' for Active; 'I' for Inactive)
    1  A    between atoms: C_5  and  C_30
    2  A    between atoms: C_10  and  N_16
                            x       y       z     vdW  Elec       q    Type
                         _______ _______ _______ _____ _____    ______ ____

>  <TORSDO>
F 2

$$$$
=
 OpenBabel11112416593D

 31 35  0  0  0  0  0  0  0  0999 V2000
  191.3640  176.7630  147.5470 C   0  0  0  0  0  0  0  0  0  0  0  0
  188.7910  176.2970  144.8340 C   0  0  0  0  0  0  0  0  0  0  0  0
  187.5790  176.8800  145.3080 C   0  0  0  0  0  0  0  0  0  0  0  0
  186.2540  178.0550  146.9920 C   0  0  0  0  0  0  0  0  0  0  0  0
  190.0180  176.2620  145.5680 C   0  0  0  0  0  0  0  0  0  0  0  0
  192.4760  176.1580  146.9610 C   0  0  0  0  0  3  0  0  0  0  0  0
  187.4610  177.4950  146.5690 C   0  0  0  0  0  3  0  0  0  0  0  0
  189.9120  175.1100  142.9880 C   0  0  0  0  0  0  0  0  0  0  0  0
  191.4630  177.3150  148.8160 O   0  0  0  0  0  1  0  0  0  0  0  0
  186.4960  176.2680  143.2600 N   0  0  0  0  0  0  0  0  0  0  0  0
  186.1690  178.6530  148.2420 O   0  0  0  0  0  1  0  0  0  0  0  0
  191.0960  175.0890  143.7230 C   0  0  0  0  0  3  0  0  0  0  0  0
  188.7670  175.7090  143.5370 C   0  0  0  0  0  0  0  0  0  0  0  0
  190.1520  176.8120  146.8570 C   0  0  0  0  0  3  0  0  0  0  0  0
  185.1350  178.0110  146.1610 C   0  0  0  0  0  3  0  0  0  0  0  0
  191.1620  175.6510  144.9910 C   0  0  0  0  0  0  0  0  0  0  0  0
  192.3740  175.6030  145.6860 C   0  0  0  0  0  3  0  0  0  0  0  0
  187.6200  175.7210  142.8070 N   0  0  0  0  0  0  0  0  0  0  0  0
  186.4320  176.8480  144.4790 C   0  0  0  0  0  0  0  0  0  0  0  0
  185.2250  177.4090  144.9060 C   0  0  0  0  0  3  0  0  0  0  0  0
  189.0110  172.4120  142.2300 O   0  0  0  0  0  0  0  0  0  0  0  0
  189.3980  173.2080  141.3320 C   0  0  0  0  0  0  0  0  0  0  0  0
  189.8420  174.5300  141.6750 N   0  0  0  0  0  2  0  0  0  0  0  0
  189.4400  171.9220  137.2370 C   0  0  0  0  0  0  0  0  0  0  0  0
  190.0910  171.6230  139.5460 C   0  0  0  0  0  3  0  0  0  0  0  0
  188.0300  174.6490  139.2100 F   0  0  0  0  0  0  0  0  0  0  0  0
  189.4610  171.5060  135.9480 F   0  0  0  0  0  0  0  0  0  0  0  0
  190.1140  171.1930  138.2180 C   0  0  0  0  0  3  0  0  0  0  0  0
  188.7170  173.5180  138.9140 C   0  0  0  0  0  0  0  0  0  0  0  0
  189.3960  172.7870  139.9120 C   0  0  0  0  0  0  0  0  0  0  0  0
  188.7440  173.0820  137.5860 C   0  0  0  0  0  3  0  0  0  0  0  0
  1  9  1  0  0  0  0
  2  3  1  0  0  0  0
  2  5  1  0  0  0  0
  3  7  2  0  0  0  0
  4 11  1  0  0  0  0
  5 14  1  0  0  0  0
  6  1  1  0  0  0  0
  7  4  1  0  0  0  0
  8 13  1  0  0  0  0
  8 12  2  0  0  0  0
 10 19  1  0  0  0  0
 12 16  1  0  0  0  0
 13  2  2  0  0  0  0
 14  1  2  0  0  0  0
 15  4  2  0  0  0  0
 16  5  2  0  0  0  0
 16 17  1  0  0  0  0
 17  6  2  0  0  0  0
 18 10  2  0  0  0  0
 18 13  1  0  0  0  0
 19 20  2  0  0  0  0
 19  3  1  0  0  0  0
 20 15  1  0  0  0  0
 22 23  1  0  0  0  0
 22 21  2  0  0  0  0
 23  8  1  0  0  0  0
 24 31  2  0  0  0  0
 24 28  1  0  0  0  0
 25 30  1  0  0  0  0
 27 24  1  0  0  0  0
 28 25  2  0  0  0  0
 29 26  1  0  0  0  0
 29 30  2  0  0  0  0
 30 22  1  0  0  0  0
 31 29  1  0  0  0  0
M  END
>  <MODEL>
6

>  <REMARK>
 VINA RESULT:      -8.5      3.922      6.620
  Name = 
  2 active torsions:
  status: ('A' for Active; 'I' for Inactive)
    1  A    between atoms: C_5  and  C_30
    2  A    between atoms: C_10  and  N_16
                            x       y       z     vdW  Elec       q    Type
                         _______ _______ _______ _____ _____    ______ ____

>  <TORSDO>
F 2

$$$$
=
 OpenBabel11112416593D

 31 35  0  0  0  0  0  0  0  0999 V2000
  195.2550  174.1430  145.4300 C   0  0  0  0  0  0  0  0  0  0  0  0
  191.7190  173.6470  144.2280 C   0  0  0  0  0  0  0  0  0  0  0  0
  191.7050  172.4420  143.4650 C   0  0  0  0  0  0  0  0  0  0  0  0
  192.7910  170.4770  142.5000 C   0  0  0  0  0  0  0  0  0  0  0  0
  192.8770  174.1940  144.8640 C   0  0  0  0  0  0  0  0  0  0  0  0
  195.1250  175.3330  146.1470 C   0  0  0  0  0  3  0  0  0  0  0  0
  192.8500  171.6510  143.2540 C   0  0  0  0  0  3  0  0  0  0  0  0
  190.4020  175.5420  145.0920 C   0  0  0  0  0  0  0  0  0  0  0  0
  196.4900  173.5160  145.3450 O   0  0  0  0  0  1  0  0  0  0  0  0
  189.3610  172.7360  143.0610 N   0  0  0  0  0  0  0  0  0  0  0  0
  193.9390  169.7190  142.3090 O   0  0  0  0  0  1  0  0  0  0  0  0
  191.5450  176.0560  145.7030 C   0  0  0  0  0  3  0  0  0  0  0  0
  190.4860  174.3470  144.3600 C   0  0  0  0  0  0  0  0  0  0  0  0
  194.1440  173.5840  144.7970 C   0  0  0  0  0  3  0  0  0  0  0  0
  191.5830  170.0690  141.9380 C   0  0  0  0  0  3  0  0  0  0  0  0
  192.7660  175.4030  145.5980 C   0  0  0  0  0  0  0  0  0  0  0  0
  193.8820  175.9610  146.2300 C   0  0  0  0  0  3  0  0  0  0  0  0
  189.3610  173.8600  143.7700 N   0  0  0  0  0  0  0  0  0  0  0  0
  190.4880  172.0090  142.8870 C   0  0  0  0  0  0  0  0  0  0  0  0
  190.4330  170.8340  142.1320 C   0  0  0  0  0  3  0  0  0  0  0  0
  188.3830  175.3070  147.2220 O   0  0  0  0  0  0  0  0  0  0  0  0
  188.1680  176.0820  146.2520 C   0  0  0  0  0  0  0  0  0  0  0  0
  189.1370  176.2150  145.2000 N   0  0  0  0  0  2  0  0  0  0  0  0
  184.5420  178.3760  146.1430 C   0  0  0  0  0  0  0  0  0  0  0  0
  186.5090  177.5980  147.3150 C   0  0  0  0  0  3  0  0  0  0  0  0
  186.4500  176.2110  143.9100 F   0  0  0  0  0  0  0  0  0  0  0  0
  183.4000  179.1040  146.1210 F   0  0  0  0  0  0  0  0  0  0  0  0
  185.3310  178.3480  147.2940 C   0  0  0  0  0  3  0  0  0  0  0  0
  186.1080  176.8990  145.0270 C   0  0  0  0  0  0  0  0  0  0  0  0
  186.9130  176.8650  146.1870 C   0  0  0  0  0  0  0  0  0  0  0  0
  184.9310  177.6530  145.0140 C   0  0  0  0  0  3  0  0  0  0  0  0
  1  6  1  0  0  0  0
  2 13  2  0  0  0  0
  2  5  1  0  0  0  0
  3  2  1  0  0  0  0
  4  7  1  0  0  0  0
  5 16  2  0  0  0  0
  6 17  2  0  0  0  0
  7  3  2  0  0  0  0
  8 23  1  0  0  0  0
  8 12  2  0  0  0  0
  9  1  1  0  0  0  0
 10 18  2  0  0  0  0
 11  4  1  0  0  0  0
 13  8  1  0  0  0  0
 14  5  1  0  0  0  0
 14  1  2  0  0  0  0
 15 20  1  0  0  0  0
 15  4  2  0  0  0  0
 16 12  1  0  0  0  0
 16 17  1  0  0  0  0
 18 13  1  0  0  0  0
 19 10  1  0  0  0  0
 19  3  1  0  0  0  0
 20 19  2  0  0  0  0
 22 21  2  0  0  0  0
 23 22  1  0  0  0  0
 24 28  1  0  0  0  0
 26 29  1  0  0  0  0
 27 24  1  0  0  0  0
 28 25  2  0  0  0  0
 29 30  2  0  0  0  0
 30 22  1  0  0  0  0
 30 25  1  0  0  0  0
 31 29  1  0  0  0  0
 31 24  2  0  0  0  0
M  END
>  <MODEL>
7

>  <REMARK>
 VINA RESULT:      -8.4      3.670      8.405
  Name = 
  2 active torsions:
  status: ('A' for Active; 'I' for Inactive)
    1  A    between atoms: C_5  and  C_30
    2  A    between atoms: C_10  and  N_16
                            x       y       z     vdW  Elec       q    Type
                         _______ _______ _______ _____ _____    ______ ____

>  <TORSDO>
F 2

$$$$
=
 OpenBabel11112416593D

 31 35  0  0  0  0  0  0  0  0999 V2000
  191.2820  176.6360  147.4680 C   0  0  0  0  0  0  0  0  0  0  0  0
  188.7500  176.2150  144.7100 C   0  0  0  0  0  0  0  0  0  0  0  0
  187.5450  176.8360  145.1540 C   0  0  0  0  0  0  0  0  0  0  0  0
  186.2210  178.0620  146.8020 C   0  0  0  0  0  0  0  0  0  0  0  0
  189.9610  176.1540  145.4670 C   0  0  0  0  0  0  0  0  0  0  0  0
  192.3880  175.9950  146.9090 C   0  0  0  0  0  3  0  0  0  0  0  0
  187.4200  177.4660  146.4070 C   0  0  0  0  0  3  0  0  0  0  0  0
  189.8730  174.9810  142.8960 C   0  0  0  0  0  0  0  0  0  0  0  0
  191.3720  177.1980  148.7340 O   0  0  0  0  0  1  0  0  0  0  0  0
  186.4850  176.2350  143.0910 N   0  0  0  0  0  0  0  0  0  0  0  0
  186.1280  178.6740  148.0450 O   0  0  0  0  0  1  0  0  0  0  0  0
  191.0420  174.9350  143.6540 C   0  0  0  0  0  3  0  0  0  0  0  0
  188.7340  175.6160  143.4180 C   0  0  0  0  0  0  0  0  0  0  0  0
  190.0850  176.7120  146.7530 C   0  0  0  0  0  3  0  0  0  0  0  0
  185.1180  178.0410  145.9500 C   0  0  0  0  0  3  0  0  0  0  0  0
  191.0980  175.5060  144.9180 C   0  0  0  0  0  0  0  0  0  0  0  0
  192.2950  175.4320  145.6370 C   0  0  0  0  0  3  0  0  0  0  0  0
  187.6020  175.6530  142.6650 N   0  0  0  0  0  0  0  0  0  0  0  0
  186.4140  176.8270  144.3040 C   0  0  0  0  0  0  0  0  0  0  0  0
  185.2150  177.4260  144.7020 C   0  0  0  0  0  3  0  0  0  0  0  0
  189.0170  172.2630  142.1570 O   0  0  0  0  0  0  0  0  0  0  0  0
  189.3900  173.0590  141.2530 C   0  0  0  0  0  0  0  0  0  0  0  0
  189.8120  174.3910  141.5870 N   0  0  0  0  0  2  0  0  0  0  0  0
  189.3620  171.8780  137.1270 C   0  0  0  0  0  0  0  0  0  0  0  0
  188.7550  173.4300  138.8790 C   0  0  0  0  0  3  0  0  0  0  0  0
  190.6580  170.6240  140.3000 F   0  0  0  0  0  0  0  0  0  0  0  0
  189.3470  171.5160  135.8220 F   0  0  0  0  0  0  0  0  0  0  0  0
  188.7380  173.0580  137.5330 C   0  0  0  0  0  3  0  0  0  0  0  0
  190.0240  171.4360  139.4180 C   0  0  0  0  0  0  0  0  0  0  0  0
  189.3950  172.6280  139.8370 C   0  0  0  0  0  0  0  0  0  0  0  0
  190.0030  171.0700  138.0680 C   0  0  0  0  0  3  0  0  0  0  0  0
  1  9  1  0  0  0  0
  2  3  1  0  0  0  0
  2  5  1  0  0  0  0
  3  7  2  0  0  0  0
  4 11  1  0  0  0  0
  5 14  1  0  0  0  0
  6  1  1  0  0  0  0
  7  4  1  0  0  0  0
  8 13  1  0  0  0  0
  8 12  2  0  0  0  0
 10 19  1  0  0  0  0
 12 16  1  0  0  0  0
 13  2  2  0  0  0  0
 14  1  2  0  0  0  0
 15  4  2  0  0  0  0
 16  5  2  0  0  0  0
 16 17  1  0  0  0  0
 17  6  2  0  0  0  0
 18 10  2  0  0  0  0
 18 13  1  0  0  0  0
 19 20  2  0  0  0  0
 19  3  1  0  0  0  0
 20 15  1  0  0  0  0
 22 23  1  0  0  0  0
 22 21  2  0  0  0  0
 23  8  1  0  0  0  0
 24 28  2  0  0  0  0
 24 31  1  0  0  0  0
 25 30  2  0  0  0  0
 27 24  1  0  0  0  0
 28 25  1  0  0  0  0
 29 30  1  0  0  0  0
 29 26  1  0  0  0  0
 30 22  1  0  0  0  0
 31 29  2  0  0  0  0
M  END
>  <MODEL>
8

>  <REMARK>
 VINA RESULT:      -8.4      3.868      6.543
  Name = 
  2 active torsions:
  status: ('A' for Active; 'I' for Inactive)
    1  A    between atoms: C_5  and  C_30
    2  A    between atoms: C_10  and  N_16
                            x       y       z     vdW  Elec       q    Type
                         _______ _______ _______ _____ _____    ______ ____

>  <TORSDO>
F 2

$$$$
=
 OpenBabel11112416593D

 31 35  0  0  0  0  0  0  0  0999 V2000
  192.3130  173.0790  139.6620 C   0  0  0  0  0  0  0  0  0  0  0  0
  192.1410  175.1910  142.7770 C   0  0  0  0  0  0  0  0  0  0  0  0
  193.4840  175.5030  143.1410 C   0  0  0  0  0  0  0  0  0  0  0  0
  195.9020  175.3910  142.8020 C   0  0  0  0  0  0  0  0  0  0  0  0
  191.7670  174.4020  141.6450 C   0  0  0  0  0  0  0  0  0  0  0  0
  190.9570  172.8500  139.4240 C   0  0  0  0  0  3  0  0  0  0  0  0
  194.6030  175.0610  142.4110 C   0  0  0  0  0  3  0  0  0  0  0  0
  189.7530  175.4500  143.3290 C   0  0  0  0  0  0  0  0  0  0  0  0
  193.2670  172.5440  138.8080 O   0  0  0  0  0  1  0  0  0  0  0  0
  192.6750  176.7450  145.0240 N   0  0  0  0  0  0  0  0  0  0  0  0
  196.9850  174.9390  142.0610 O   0  0  0  0  0  1  0  0  0  0  0  0
  189.4150  174.6780  142.2190 C   0  0  0  0  0  3  0  0  0  0  0  0
  191.1050  175.7060  143.6080 C   0  0  0  0  0  0  0  0  0  0  0  0
  192.7090  173.8440  140.7600 C   0  0  0  0  0  3  0  0  0  0  0  0
  196.1100  176.1730  143.9370 C   0  0  0  0  0  3  0  0  0  0  0  0
  190.3940  174.1570  141.3840 C   0  0  0  0  0  0  0  0  0  0  0  0
  190.0010  173.3890  140.2840 C   0  0  0  0  0  3  0  0  0  0  0  0
  191.4190  176.4610  144.6950 N   0  0  0  0  0  0  0  0  0  0  0  0
  193.7170  176.2970  144.2890 C   0  0  0  0  0  0  0  0  0  0  0  0
  195.0190  176.6260  144.6790 C   0  0  0  0  0  3  0  0  0  0  0  0
  188.1770  177.9120  142.9810 O   0  0  0  0  0  0  0  0  0  0  0  0
  187.9850  177.1960  144.0010 C   0  0  0  0  0  0  0  0  0  0  0  0
  188.7410  175.9900  144.1950 N   0  0  0  0  0  2  0  0  0  0  0  0
  185.0880  178.2830  146.9760 C   0  0  0  0  0  0  0  0  0  0  0  0
  186.8780  176.8540  146.2010 C   0  0  0  0  0  3  0  0  0  0  0  0
  186.1630  179.4390  143.6860 F   0  0  0  0  0  0  0  0  0  0  0  0
  184.1780  178.6160  147.9220 F   0  0  0  0  0  0  0  0  0  0  0  0
  185.9400  177.1960  147.1770 C   0  0  0  0  0  3  0  0  0  0  0  0
  186.1110  178.6910  144.8150 C   0  0  0  0  0  0  0  0  0  0  0  0
  186.9770  177.5930  145.0110 C   0  0  0  0  0  0  0  0  0  0  0  0
  185.1750  179.0280  145.7970 C   0  0  0  0  0  3  0  0  0  0  0  0
  1 14  1  0  0  0  0
  2  3  2  0  0  0  0
  2 13  1  0  0  0  0
  3 19  1  0  0  0  0
  4 15  1  0  0  0  0
  5  2  1  0  0  0  0
  6  1  2  0  0  0  0
  6 17  1  0  0  0  0
  7  4  2  0  0  0  0
  7  3  1  0  0  0  0
  8 13  1  0  0  0  0
  8 23  1  0  0  0  0
  9  1  1  0  0  0  0
 11  4  1  0  0  0  0
 12  8  2  0  0  0  0
 13 18  2  0  0  0  0
 14  5  2  0  0  0  0
 15 20  2  0  0  0  0
 16  5  1  0  0  0  0
 16 12  1  0  0  0  0
 17 16  2  0  0  0  0
 18 10  1  0  0  0  0
 19 20  1  0  0  0  0
 19 10  2  0  0  0  0
 21 22  2  0  0  0  0
 22 23  1  0  0  0  0
 22 30  1  0  0  0  0
 24 28  1  0  0  0  0
 24 27  1  0  0  0  0
 25 28  2  0  0  0  0
 26 29  1  0  0  0  0
 29 30  2  0  0  0  0
 29 31  1  0  0  0  0
 30 25  1  0  0  0  0
 31 24  2  0  0  0  0
M  END
>  <MODEL>
9

>  <REMARK>
 VINA RESULT:      -8.1      4.353      8.705
  Name = 
  2 active torsions:
  status: ('A' for Active; 'I' for Inactive)
    1  A    between atoms: C_5  and  C_30
    2  A    between atoms: C_10  and  N_16
                            x       y       z     vdW  Elec       q    Type
                         _______ _______ _______ _____ _____    ______ ____

>  <TORSDO>
F 2

$$$$
