=
 OpenBabel11112417423D

 28 32  0  0  1  0  0  0  0  0999 V2000
  186.9470  178.1160  144.6290 C   0  0  0  0  0  0  0  0  0  0  0  0
  190.4550  177.8950  145.1560 O   0  0  0  0  0  1  0  0  0  0  0  0
  188.1890  173.6780  140.9640 O   0  0  0  0  0  0  0  0  0  0  0  0
  185.6970  177.4720  147.0550 C   0  0  0  0  0  3  0  0  0  0  0  0
  189.9570  174.2270  142.4250 N   0  0  0  0  0  0  0  0  0  0  0  0
  187.5370  178.4520  143.4110 O   0  0  0  0  0  0  0  0  0  0  0  0
  189.6780  177.5650  147.3710 C   0  0  0  0  0  1  0  0  0  0  0  0
  190.3720  176.9420  146.1750 C   0  0  1  0  0  0  0  0  0  0  0  0
  192.4570  175.5570  145.9080 C   0  0  0  0  0  0  0  0  0  0  0  0
  189.5980  175.6790  145.7040 C   0  0  2  0  0  3  0  0  0  0  0  0
  186.1520  177.5630  140.0570 C   0  0  0  0  0  1  0  0  0  0  0  0
  188.8860  176.1270  143.4070 C   0  0  1  0  0  3  0  0  0  0  0  0
  191.8640  174.7460  145.0880 N   0  0  0  0  0  0  0  0  0  0  0  0
  191.7210  176.5770  146.5830 N   0  0  0  0  0  2  0  0  0  0  0  0
  187.0310  177.4190  141.2810 C   0  0  2  0  0  3  0  0  0  0  0  0
  187.3570  176.9670  145.3480 C   0  0  0  0  0  0  0  0  0  0  0  0
  188.6650  174.3980  141.8830 C   0  0  0  0  0  0  0  0  0  0  0  0
  194.1590  175.3470  146.2530 Cl  0  0  0  0  0  0  0  0  0  0  0  0
  186.7470  176.0760  141.9480 C   0  0  0  0  0  2  0  0  0  0  0  0
  186.7090  176.6540  146.5510 C   0  0  0  0  0  3  0  0  0  0  0  0
  185.9210  178.9250  145.1370 C   0  0  0  0  0  3  0  0  0  0  0  0
  185.3030  178.6080  146.3470 C   0  0  0  0  0  3  0  0  0  0  0  0
  186.7570  178.5820  142.2300 C   0  0  0  0  0  2  0  0  0  0  0  0
  190.2080  175.3280  143.3480 C   0  0  1  0  0  3  0  0  0  0  0  0
  187.9790  175.4870  142.4600 N   0  0  0  0  0  0  0  0  0  0  0  0
  190.4380  174.8040  144.7610 C   0  0  2  0  0  3  0  0  0  0  0  0
  190.9930  173.3840  141.8550 C   0  0  0  0  0  1  0  0  0  0  0  0
  188.3730  175.9690  144.8330 C   0  0  2  0  0  3  0  0  0  0  0  0
  1 21  2  0  0  0  0
  1 16  1  0  0  0  0
  2  8  1  0  0  0  0
  3 17  2  0  0  0  0
  5 24  1  0  0  0  0
  6  1  1  0  0  0  0
  8 14  1  0  0  0  0
  8  7  1  1  0  0  0
  9 18  1  0  0  0  0
  9 14  1  0  0  0  0
 10  8  1  0  0  0  0
 11 15  1  0  0  0  0
 12 28  1  0  0  0  0
 13  9  2  0  0  0  0
 15 19  1  0  0  0  0
 15 23  1  0  0  0  0
 16 20  2  0  0  0  0
 17  5  1  0  0  0  0
 17 25  1  0  0  0  0
 19 25  1  0  0  0  0
 20  4  1  0  0  0  0
 21 22  1  0  0  0  0
 22  4  2  0  0  0  0
 23  6  1  0  0  0  0
 24 12  1  0  0  0  0
 24 26  1  0  0  0  0
 25 12  1  0  0  0  0
 26 13  1  0  0  0  0
 26 10  1  0  0  0  0
 27  5  1  0  0  0  0
 28 16  1  0  0  0  0
 28 10  1  0  0  0  0
M  END
>  <MODEL>
1

>  <REMARK>
 VINA RESULT:      -9.2      0.000      0.000
  Name = 
  0 active torsions:
  status: ('A' for Active; 'I' for Inactive)
                            x       y       z     vdW  Elec       q    Type
                         _______ _______ _______ _____ _____    ______ ____

>  <TORSDO>
F 0

$$$$
=
 OpenBabel11112417423D

 28 32  0  0  1  0  0  0  0  0999 V2000
  190.9600  174.7150  144.3150 C   0  0  0  0  0  0  0  0  0  0  0  0
  188.1860  175.6770  146.3170 O   0  0  0  0  0  1  0  0  0  0  0  0
  187.2610  176.4270  140.0670 O   0  0  0  0  0  0  0  0  0  0  0  0
  193.0810  176.4360  144.9480 C   0  0  0  0  0  3  0  0  0  0  0  0
  186.5720  177.0490  142.2340 N   0  0  0  0  0  0  0  0  0  0  0  0
  189.9300  173.8350  143.9860 O   0  0  0  0  0  0  0  0  0  0  0  0
  189.8610  177.0890  147.2210 C   0  0  0  0  0  1  0  0  0  0  0  0
  188.5680  177.0160  146.4330 C   0  0  1  0  0  0  0  0  0  0  0  0
  186.3940  178.2790  146.5480 C   0  0  0  0  0  0  0  0  0  0  0  0
  188.7530  177.6710  145.0350 C   0  0  2  0  0  3  0  0  0  0  0  0
  189.3060  172.4720  140.5640 C   0  0  0  0  0  1  0  0  0  0  0  0
  188.3290  175.9100  143.3890 C   0  0  1  0  0  3  0  0  0  0  0  0
  186.3430  178.3950  145.2570 N   0  0  0  0  0  0  0  0  0  0  0  0
  187.5460  177.7300  147.1850 N   0  0  0  0  0  2  0  0  0  0  0  0
  189.1250  173.4030  141.7440 C   0  0  2  0  0  3  0  0  0  0  0  0
  190.7390  176.1130  144.3720 C   0  0  0  0  0  0  0  0  0  0  0  0
  187.4420  176.4250  141.3140 C   0  0  0  0  0  0  0  0  0  0  0  0
  185.0710  178.8800  147.5220 Cl  0  0  0  0  0  0  0  0  0  0  0  0
  189.4320  174.8330  141.3090 C   0  0  0  0  0  2  0  0  0  0  0  0
  191.8150  176.9570  144.6750 C   0  0  0  0  0  3  0  0  0  0  0  0
  192.2380  174.2020  144.5800 C   0  0  0  0  0  3  0  0  0  0  0  0
  193.2930  175.0580  144.9010 C   0  0  0  0  0  3  0  0  0  0  0  0
  190.0450  172.9540  142.8760 C   0  0  0  0  0  2  0  0  0  0  0  0
  187.0200  176.7100  143.5800 C   0  0  1  0  0  3  0  0  0  0  0  0
  188.5170  175.7720  141.9500 N   0  0  0  0  0  0  0  0  0  0  0  0
  187.4100  177.9670  144.3510 C   0  0  2  0  0  3  0  0  0  0  0  0
  185.2480  177.5560  141.9150 C   0  0  0  0  0  1  0  0  0  0  0  0
  189.4290  176.7740  143.9940 C   0  0  2  0  0  3  0  0  0  0  0  0
  1 16  2  0  0  0  0
  1 21  1  0  0  0  0
  2  8  1  0  0  0  0
  3 17  2  0  0  0  0
  5 24  1  0  0  0  0
  6  1  1  0  0  0  0
  8 14  1  0  0  0  0
  8  7  1  1  0  0  0
  9 14  1  0  0  0  0
  9 18  1  0  0  0  0
 10  8  1  0  0  0  0
 11 15  1  0  0  0  0
 12 24  1  0  0  0  0
 12 28  1  0  0  0  0
 13  9  2  0  0  0  0
 15 23  1  0  0  0  0
 16 20  1  0  0  0  0
 17 25  1  0  0  0  0
 17  5  1  0  0  0  0
 19 15  1  0  0  0  0
 19 25  1  0  0  0  0
 20  4  2  0  0  0  0
 21 22  2  0  0  0  0
 22  4  1  0  0  0  0
 23  6  1  0  0  0  0
 24 26  1  0  0  0  0
 25 12  1  0  0  0  0
 26 10  1  0  0  0  0
 26 13  1  0  0  0  0
 27  5  1  0  0  0  0
 28 16  1  0  0  0  0
 28 10  1  0  0  0  0
M  END
>  <MODEL>
2

>  <REMARK>
 VINA RESULT:      -8.4      2.767      5.183
  Name = 
  0 active torsions:
  status: ('A' for Active; 'I' for Inactive)
                            x       y       z     vdW  Elec       q    Type
                         _______ _______ _______ _____ _____    ______ ____

>  <TORSDO>
F 0

$$$$
=
 OpenBabel11112417423D

 28 32  0  0  1  0  0  0  0  0999 V2000
  190.0830  175.8270  143.8050 C   0  0  0  0  0  0  0  0  0  0  0  0
  187.9340  177.9780  141.9640 O   0  0  0  0  0  1  0  0  0  0  0  0
  186.1550  177.0840  148.0070 O   0  0  0  0  0  0  0  0  0  0  0  0
  189.9360  173.2900  142.6210 C   0  0  0  0  0  3  0  0  0  0  0  0
  185.4790  177.7440  145.8470 N   0  0  0  0  0  0  0  0  0  0  0  0
  190.1880  177.0790  144.4100 O   0  0  0  0  0  0  0  0  0  0  0  0
  187.8160  176.0260  140.6250 C   0  0  0  0  0  1  0  0  0  0  0  0
  187.0650  176.9660  141.5470 C   0  0  1  0  0  0  0  0  0  0  0  0
  184.8140  178.0870  141.4210 C   0  0  0  0  0  0  0  0  0  0  0  0
  186.4900  176.1820  142.7600 C   0  0  2  0  0  3  0  0  0  0  0  0
  190.6000  177.6420  148.0800 C   0  0  0  0  0  1  0  0  0  0  0  0
  187.5230  177.1510  144.7560 C   0  0  1  0  0  3  0  0  0  0  0  0
  184.5590  177.8090  142.6620 N   0  0  0  0  0  0  0  0  0  0  0  0
  185.9810  177.5680  140.7840 N   0  0  0  0  0  2  0  0  0  0  0  0
  189.8570  177.5240  146.7670 C   0  0  2  0  0  3  0  0  0  0  0  0
  188.8190  175.2660  143.4980 C   0  0  0  0  0  0  0  0  0  0  0  0
  186.3870  177.1850  146.7720 C   0  0  0  0  0  0  0  0  0  0  0  0
  183.6750  179.0400  140.4960 Cl  0  0  0  0  0  0  0  0  0  0  0  0
  188.8140  176.4140  146.8760 C   0  0  0  0  0  2  0  0  0  0  0  0
  188.7660  173.9900  142.9210 C   0  0  0  0  0  3  0  0  0  0  0  0
  191.2510  175.1110  143.5100 C   0  0  0  0  0  3  0  0  0  0  0  0
  191.1790  173.8500  142.9150 C   0  0  0  0  0  3  0  0  0  0  0  0
  190.8590  177.2390  145.6520 C   0  0  0  0  0  2  0  0  0  0  0  0
  186.1480  177.8290  144.5540 C   0  0  1  0  0  3  0  0  0  0  0  0
  187.5950  176.7850  146.1660 N   0  0  0  0  0  0  0  0  0  0  0  0
  185.4190  176.9860  143.5140 C   0  0  2  0  0  3  0  0  0  0  0  0
  184.2840  178.4900  146.2010 C   0  0  0  0  0  1  0  0  0  0  0  0
  187.4990  175.9060  143.8780 C   0  0  2  0  0  3  0  0  0  0  0  0
  1  6  1  0  0  0  0
  4 22  1  0  0  0  0
  4 20  2  0  0  0  0
  5 27  1  0  0  0  0
  5 17  1  0  0  0  0
  6 23  1  0  0  0  0
  8  7  1  6  0  0  0
  8  2  1  0  0  0  0
  8 10  1  0  0  0  0
  9 13  2  0  0  0  0
 10 26  1  0  0  0  0
 10 28  1  0  0  0  0
 12 25  1  0  0  0  0
 13 26  1  0  0  0  0
 14  9  1  0  0  0  0
 14  8  1  0  0  0  0
 15 19  1  0  0  0  0
 15 11  1  0  0  0  0
 16  1  2  0  0  0  0
 16 28  1  0  0  0  0
 17  3  2  0  0  0  0
 18  9  1  0  0  0  0
 20 16  1  0  0  0  0
 21  1  1  0  0  0  0
 22 21  2  0  0  0  0
 23 15  1  0  0  0  0
 24 12  1  0  0  0  0
 24  5  1  0  0  0  0
 25 17  1  0  0  0  0
 25 19  1  0  0  0  0
 26 24  1  0  0  0  0
 28 12  1  0  0  0  0
M  END
>  <MODEL>
3

>  <REMARK>
 VINA RESULT:      -8.3      3.202      6.601
  Name = 
  0 active torsions:
  status: ('A' for Active; 'I' for Inactive)
                            x       y       z     vdW  Elec       q    Type
                         _______ _______ _______ _____ _____    ______ ____

>  <TORSDO>
F 0

$$$$
=
 OpenBabel11112417423D

 28 32  0  0  1  0  0  0  0  0999 V2000
  188.3420  177.2780  144.6490 C   0  0  0  0  0  0  0  0  0  0  0  0
  191.8920  177.2710  144.4740 O   0  0  0  0  0  1  0  0  0  0  0  0
  189.0730  173.5530  140.1490 O   0  0  0  0  0  0  0  0  0  0  0  0
  187.6270  176.1800  147.1280 C   0  0  0  0  0  3  0  0  0  0  0  0
  191.0610  174.0220  141.3260 N   0  0  0  0  0  0  0  0  0  0  0  0
  188.6640  177.8400  143.4130 O   0  0  0  0  0  0  0  0  0  0  0  0
  191.5830  176.5530  146.7120 C   0  0  0  0  0  1  0  0  0  0  0  0
  192.0610  176.1740  145.3230 C   0  0  1  0  0  0  0  0  0  0  0  0
  194.1220  175.0200  144.4540 C   0  0  0  0  0  0  0  0  0  0  0  0
  191.2770  174.9350  144.8060 C   0  0  2  0  0  3  0  0  0  0  0  0
  186.6970  177.3490  140.2750 C   0  0  0  0  0  1  0  0  0  0  0  0
  190.1050  175.6600  142.7830 C   0  0  1  0  0  3  0  0  0  0  0  0
  193.4230  174.2940  143.6380 N   0  0  0  0  0  0  0  0  0  0  0  0
  193.4810  175.8640  145.4090 N   0  0  0  0  0  2  0  0  0  0  0  0
  187.8050  177.0970  141.2760 C   0  0  2  0  0  3  0  0  0  0  0  0
  188.9450  176.0730  145.0840 C   0  0  0  0  0  0  0  0  0  0  0  0
  189.6810  174.1650  141.0670 C   0  0  0  0  0  0  0  0  0  0  0  0
  195.8680  174.9020  144.4390 Cl  0  0  0  0  0  0  0  0  0  0  0  0
  187.7280  175.6510  141.7580 C   0  0  0  0  0  2  0  0  0  0  0  0
  188.5630  175.5320  146.3200 C   0  0  0  0  0  3  0  0  0  0  0  0
  187.3950  177.9150  145.4620 C   0  0  0  0  0  3  0  0  0  0  0  0
  187.0430  177.3720  146.6990 C   0  0  0  0  0  3  0  0  0  0  0  0
  187.6620  178.0790  142.4340 C   0  0  0  0  0  2  0  0  0  0  0  0
  191.4310  174.9900  142.3520 C   0  0  1  0  0  3  0  0  0  0  0  0
  189.0660  175.0950  141.9300 N   0  0  0  0  0  0  0  0  0  0  0  0
  191.9600  174.2820  143.5950 C   0  0  2  0  0  3  0  0  0  0  0  0
  192.0090  173.3610  140.4440 C   0  0  0  0  0  1  0  0  0  0  0  0
  189.8910  175.2500  144.2350 C   0  0  2  0  0  3  0  0  0  0  0  0
  1 16  2  0  0  0  0
  1 21  1  0  0  0  0
  2  8  1  0  0  0  0
  3 17  2  0  0  0  0
  5 24  1  0  0  0  0
  6  1  1  0  0  0  0
  8 14  1  0  0  0  0
  8  7  1  1  0  0  0
  9 14  1  0  0  0  0
 10  8  1  0  0  0  0
 11 15  1  0  0  0  0
 12 28  1  0  0  0  0
 13  9  2  0  0  0  0
 15 19  1  0  0  0  0
 15 23  1  0  0  0  0
 16 20  1  0  0  0  0
 17  5  1  0  0  0  0
 17 25  1  0  0  0  0
 18  9  1  0  0  0  0
 19 25  1  0  0  0  0
 20  4  2  0  0  0  0
 21 22  2  0  0  0  0
 22  4  1  0  0  0  0
 23  6  1  0  0  0  0
 24 12  1  0  0  0  0
 24 26  1  0  0  0  0
 25 12  1  0  0  0  0
 26 13  1  0  0  0  0
 26 10  1  0  0  0  0
 27  5  1  0  0  0  0
 28 10  1  0  0  0  0
 28 16  1  0  0  0  0
M  END
>  <MODEL>
4

>  <REMARK>
 VINA RESULT:      -8.0      1.437      1.783
  Name = 
  0 active torsions:
  status: ('A' for Active; 'I' for Inactive)
                            x       y       z     vdW  Elec       q    Type
                         _______ _______ _______ _____ _____    ______ ____

>  <TORSDO>
F 0

$$$$
=
 OpenBabel11112417423D

 28 32  0  0  1  0  0  0  0  0999 V2000
  191.4200  175.0210  142.3470 C   0  0  0  0  0  0  0  0  0  0  0  0
  189.1810  177.7810  142.3400 O   0  0  0  0  0  1  0  0  0  0  0  0
  191.4240  176.2740  148.0990 O   0  0  0  0  0  0  0  0  0  0  0  0
  189.9690  172.7690  141.5200 C   0  0  0  0  0  3  0  0  0  0  0  0
  189.7270  177.3760  146.8890 N   0  0  0  0  0  0  0  0  0  0  0  0
  192.1730  176.1240  142.7500 O   0  0  0  0  0  0  0  0  0  0  0  0
  187.7940  176.1170  141.3790 C   0  0  0  0  0  1  0  0  0  0  0  0
  188.0340  177.0180  142.5750 C   0  0  1  0  0  0  0  0  0  0  0  0
  186.5470  178.5240  143.9370 C   0  0  0  0  0  0  0  0  0  0  0  0
  188.1790  176.1670  143.8670 C   0  0  2  0  0  3  0  0  0  0  0  0
  194.9070  176.0180  145.2940 C   0  0  0  0  0  1  0  0  0  0  0  0
  190.4240  176.6100  144.7330 C   0  0  1  0  0  3  0  0  0  0  0  0
  187.0670  178.1040  145.0480 N   0  0  0  0  0  0  0  0  0  0  0  0
  186.8930  177.9140  142.6940 N   0  0  0  0  0  2  0  0  0  0  0  0
  193.5060  176.2420  144.7680 C   0  0  2  0  0  3  0  0  0  0  0  0
  190.1550  174.7480  142.9240 C   0  0  0  0  0  0  0  0  0  0  0  0
  190.8490  176.5260  147.0070 C   0  0  0  0  0  0  0  0  0  0  0  0
  185.3470  179.7970  143.9710 Cl  0  0  0  0  0  0  0  0  0  0  0  0
  192.5360  175.3320  145.5160 C   0  0  0  0  0  2  0  0  0  0  0  0
  189.4530  173.6090  142.5070 C   0  0  0  0  0  3  0  0  0  0  0  0
  191.9350  174.1660  141.3630 C   0  0  0  0  0  3  0  0  0  0  0  0
  191.2100  173.0470  140.9470 C   0  0  0  0  0  3  0  0  0  0  0  0
  193.4870  175.9640  143.2670 C   0  0  0  0  0  2  0  0  0  0  0  0
  189.4370  177.5440  145.4700 C   0  0  1  0  0  3  0  0  0  0  0  0
  191.2730  176.0190  145.7620 N   0  0  0  0  0  0  0  0  0  0  0  0
  188.0440  177.0170  145.1390 C   0  0  2  0  0  3  0  0  0  0  0  0
  189.2370  178.2560  147.9360 C   0  0  0  0  0  1  0  0  0  0  0  0
  189.5630  175.5430  144.0690 C   0  0  2  0  0  3  0  0  0  0  0  0
  1  6  1  0  0  0  0
  1 16  1  0  0  0  0
  2  8  1  0  0  0  0
  4 20  1  0  0  0  0
  5 17  1  0  0  0  0
  5 27  1  0  0  0  0
  6 23  1  0  0  0  0
  8  7  1  6  0  0  0
  8 14  1  0  0  0  0
  8 10  1  0  0  0  0
  9 18  1  0  0  0  0
  9 13  2  0  0  0  0
 10 28  1  0  0  0  0
 10 26  1  0  0  0  0
 12 24  1  0  0  0  0
 12 25  1  0  0  0  0
 13 26  1  0  0  0  0
 14  9  1  0  0  0  0
 15 11  1  0  0  0  0
 15 19  1  0  0  0  0
 16 28  1  0  0  0  0
 17  3  2  0  0  0  0
 19 25  1  0  0  0  0
 20 16  2  0  0  0  0
 21  1  2  0  0  0  0
 22 21  1  0  0  0  0
 22  4  2  0  0  0  0
 23 15  1  0  0  0  0
 24  5  1  0  0  0  0
 25 17  1  0  0  0  0
 26 24  1  0  0  0  0
 28 12  1  0  0  0  0
M  END
>  <MODEL>
5

>  <REMARK>
 VINA RESULT:      -7.8      2.750      6.441
  Name = 
  0 active torsions:
  status: ('A' for Active; 'I' for Inactive)
                            x       y       z     vdW  Elec       q    Type
                         _______ _______ _______ _____ _____    ______ ____

>  <TORSDO>
F 0

$$$$
=
 OpenBabel11112417423D

 28 32  0  0  1  0  0  0  0  0999 V2000
  186.3530  176.8520  143.4440 C   0  0  0  0  0  0  0  0  0  0  0  0
  188.1910  173.8310  143.0940 O   0  0  0  0  0  1  0  0  0  0  0  0
  190.3980  177.7000  147.6370 O   0  0  0  0  0  0  0  0  0  0  0  0
  186.6500  178.2910  141.0560 C   0  0  0  0  0  3  0  0  0  0  0  0
  190.8840  175.8950  146.1990 N   0  0  0  0  0  0  0  0  0  0  0  0
  186.1750  176.1560  144.6400 O   0  0  0  0  0  0  0  0  0  0  0  0
  188.4000  174.7020  140.9000 C   0  0  0  0  0  1  0  0  0  0  0  0
  189.1190  174.3490  142.1860 C   0  0  1  0  0  0  0  0  0  0  0  0
  191.2520  173.1120  142.6970 C   0  0  0  0  0  0  0  0  0  0  0  0
  189.8320  175.6040  142.7640 C   0  0  2  0  0  3  0  0  0  0  0  0
  185.9340  177.7480  148.0120 C   0  0  0  0  0  1  0  0  0  0  0  0
  188.8390  176.0050  144.9640 C   0  0  1  0  0  3  0  0  0  0  0  0
  191.6040  173.9970  143.5770 N   0  0  0  0  0  0  0  0  0  0  0  0
  190.0990  173.3160  141.8800 N   0  0  0  0  0  2  0  0  0  0  0  0
  186.6050  177.0460  146.8500 C   0  0  2  0  0  3  0  0  0  0  0  0
  187.6400  177.0150  142.8770 C   0  0  0  0  0  0  0  0  0  0  0  0
  190.0850  176.9630  146.6640 C   0  0  0  0  0  0  0  0  0  0  0  0
  192.2460  171.6940  142.4500 Cl  0  0  0  0  0  0  0  0  0  0  0  0
  187.7450  177.9160  146.3270 C   0  0  0  0  0  2  0  0  0  0  0  0
  187.7700  177.7500  141.6910 C   0  0  0  0  0  3  0  0  0  0  0  0
  185.2360  177.4070  142.8050 C   0  0  0  0  0  3  0  0  0  0  0  0
  185.3830  178.1190  141.6130 C   0  0  0  0  0  3  0  0  0  0  0  0
  185.5660  176.7770  145.7650 C   0  0  0  0  0  2  0  0  0  0  0  0
  190.1340  175.1860  145.1690 C   0  0  1  0  0  3  0  0  0  0  0  0
  188.8830  177.0900  145.9380 N   0  0  0  0  0  0  0  0  0  0  0  0
  190.8710  175.2380  143.8350 C   0  0  2  0  0  3  0  0  0  0  0  0
  192.0290  175.3450  146.9050 C   0  0  0  0  0  1  0  0  0  0  0  0
  188.9190  176.5530  143.5450 C   0  0  2  0  0  3  0  0  0  0  0  0
  1  6  1  0  0  0  0
  4 22  2  0  0  0  0
  4 20  1  0  0  0  0
  5 17  1  0  0  0  0
  5 27  1  0  0  0  0
  6 23  1  0  0  0  0
  8  7  1  6  0  0  0
  8 10  1  0  0  0  0
  8  2  1  0  0  0  0
  9 13  2  0  0  0  0
 10 28  1  0  0  0  0
 10 26  1  0  0  0  0
 12 24  1  0  0  0  0
 12 25  1  0  0  0  0
 13 26  1  0  0  0  0
 14  8  1  0  0  0  0
 14  9  1  0  0  0  0
 15 11  1  0  0  0  0
 16  1  1  0  0  0  0
 16 28  1  0  0  0  0
 17  3  2  0  0  0  0
 18  9  1  0  0  0  0
 19 15  1  0  0  0  0
 20 16  2  0  0  0  0
 21  1  2  0  0  0  0
 22 21  1  0  0  0  0
 23 15  1  0  0  0  0
 24  5  1  0  0  0  0
 25 19  1  0  0  0  0
 25 17  1  0  0  0  0
 26 24  1  0  0  0  0
 28 12  1  0  0  0  0
M  END
>  <MODEL>
6

>  <REMARK>
 VINA RESULT:      -7.6      1.831      4.691
  Name = 
  0 active torsions:
  status: ('A' for Active; 'I' for Inactive)
                            x       y       z     vdW  Elec       q    Type
                         _______ _______ _______ _____ _____    ______ ____

>  <TORSDO>
F 0

$$$$
=
 OpenBabel11112417423D

 28 32  0  0  1  0  0  0  0  0999 V2000
  189.2770  176.7450  144.5630 C   0  0  0  0  0  0  0  0  0  0  0  0
  192.6050  176.0590  143.5230 O   0  0  0  0  0  1  0  0  0  0  0  0
  188.1390  173.3970  139.8560 O   0  0  0  0  0  0  0  0  0  0  0  0
  188.9350  175.5760  147.0890 C   0  0  0  0  0  3  0  0  0  0  0  0
  190.3980  173.3520  140.5300 N   0  0  0  0  0  0  0  0  0  0  0  0
  189.4170  177.3480  143.3130 O   0  0  0  0  0  0  0  0  0  0  0  0
  192.6750  175.2040  145.7320 C   0  0  0  0  0  1  0  0  0  0  0  0
  192.7270  174.8740  144.2530 C   0  0  1  0  0  0  0  0  0  0  0  0
  194.2380  173.4280  142.8530 C   0  0  0  0  0  0  0  0  0  0  0  0
  191.6000  173.8680  143.8880 C   0  0  2  0  0  3  0  0  0  0  0  0
  186.7210  177.5540  140.7350 C   0  0  0  0  0  1  0  0  0  0  0  0
  190.1760  174.9980  142.2500 C   0  0  1  0  0  3  0  0  0  0  0  0
  193.2320  172.9340  142.2010 N   0  0  0  0  0  0  0  0  0  0  0  0
  194.0290  174.2860  143.9740 N   0  0  0  0  0  2  0  0  0  0  0  0
  187.9500  176.9960  141.4200 C   0  0  2  0  0  3  0  0  0  0  0  0
  189.6930  175.4090  144.7820 C   0  0  0  0  0  0  0  0  0  0  0  0
  189.0590  173.7870  140.6240 C   0  0  0  0  0  0  0  0  0  0  0  0
  195.8670  172.9720  142.4050 Cl  0  0  0  0  0  0  0  0  0  0  0  0
  187.6800  175.5530  141.8400 C   0  0  0  0  0  2  0  0  0  0  0  0
  189.5000  174.8380  146.0470 C   0  0  0  0  0  3  0  0  0  0  0  0
  188.7010  177.4740  145.6130 C   0  0  0  0  0  3  0  0  0  0  0  0
  188.5360  176.8950  146.8720 C   0  0  0  0  0  3  0  0  0  0  0  0
  188.2910  177.8720  142.6220 C   0  0  0  0  0  2  0  0  0  0  0  0
  191.1920  174.1270  141.4770 C   0  0  1  0  0  3  0  0  0  0  0  0
  188.8720  174.7330  141.6530 N   0  0  0  0  0  0  0  0  0  0  0  0
  191.8300  173.2130  142.5180 C   0  0  2  0  0  3  0  0  0  0  0  0
  190.9530  172.6060  139.4130 C   0  0  0  0  0  1  0  0  0  0  0  0
  190.2190  174.5010  143.6900 C   0  0  2  0  0  3  0  0  0  0  0  0
  1 16  2  0  0  0  0
  1 21  1  0  0  0  0
  2  8  1  0  0  0  0
  3 17  2  0  0  0  0
  5 17  1  0  0  0  0
  5 24  1  0  0  0  0
  6  1  1  0  0  0  0
  8  7  1  1  0  0  0
  9 14  1  0  0  0  0
 10  8  1  0  0  0  0
 11 15  1  0  0  0  0
 12 28  1  0  0  0  0
 13 26  1  0  0  0  0
 13  9  2  0  0  0  0
 14  8  1  0  0  0  0
 15 19  1  0  0  0  0
 15 23  1  0  0  0  0
 16 20  1  0  0  0  0
 17 25  1  0  0  0  0
 18  9  1  0  0  0  0
 20  4  2  0  0  0  0
 21 22  2  0  0  0  0
 22  4  1  0  0  0  0
 23  6  1  0  0  0  0
 24 12  1  0  0  0  0
 24 26  1  0  0  0  0
 25 19  1  0  0  0  0
 25 12  1  0  0  0  0
 26 10  1  0  0  0  0
 27  5  1  0  0  0  0
 28 10  1  0  0  0  0
 28 16  1  0  0  0  0
M  END
>  <MODEL>
7

>  <REMARK>
 VINA RESULT:      -7.3      2.100      2.939
  Name = 
  0 active torsions:
  status: ('A' for Active; 'I' for Inactive)
                            x       y       z     vdW  Elec       q    Type
                         _______ _______ _______ _____ _____    ______ ____

>  <TORSDO>
F 0

$$$$
=
 OpenBabel11112417423D

 28 32  0  0  1  0  0  0  0  0999 V2000
  189.2850  175.6410  144.2580 C   0  0  0  0  0  0  0  0  0  0  0  0
  192.8260  175.9010  144.4230 O   0  0  0  0  0  1  0  0  0  0  0  0
  190.7370  170.3850  142.0360 O   0  0  0  0  0  0  0  0  0  0  0  0
  188.3210  175.7060  146.8900 C   0  0  0  0  0  3  0  0  0  0  0  0
  192.5410  171.5230  143.0420 N   0  0  0  0  0  0  0  0  0  0  0  0
  189.7310  175.6180  142.9360 O   0  0  0  0  0  0  0  0  0  0  0  0
  192.2770  176.2340  146.7040 C   0  0  0  0  0  1  0  0  0  0  0  0
  192.9390  175.3230  145.6900 C   0  0  1  0  0  0  0  0  0  0  0  0
  195.1430  174.1080  145.6290 C   0  0  0  0  0  0  0  0  0  0  0  0
  192.2830  173.9130  145.7260 C   0  0  2  0  0  3  0  0  0  0  0  0
  188.1910  173.5850  140.2060 C   0  0  0  0  0  1  0  0  0  0  0  0
  191.3380  173.5380  143.5010 C   0  0  1  0  0  3  0  0  0  0  0  0
  194.5850  173.0290  145.1760 N   0  0  0  0  0  0  0  0  0  0  0  0
  194.3510  175.2240  146.0330 N   0  0  0  0  0  2  0  0  0  0  0  0
  189.1780  173.9160  141.3050 C   0  0  2  0  0  3  0  0  0  0  0  0
  189.8850  174.8230  145.2470 C   0  0  0  0  0  0  0  0  0  0  0  0
  191.1980  171.4000  142.6250 C   0  0  0  0  0  0  0  0  0  0  0  0
  196.8810  174.1660  145.8260 Cl  0  0  0  0  0  0  0  0  0  0  0  0
  189.1090  172.8400  142.3850 C   0  0  0  0  0  2  0  0  0  0  0  0
  189.3790  174.8590  146.5530 C   0  0  0  0  0  3  0  0  0  0  0  0
  188.2170  176.4800  144.6030 C   0  0  0  0  0  3  0  0  0  0  0  0
  187.7400  176.5170  145.9150 C   0  0  0  0  0  3  0  0  0  0  0  0
  188.8480  175.2950  141.8710 C   0  0  0  0  0  2  0  0  0  0  0  0
  192.7360  172.8790  143.5420 C   0  0  1  0  0  3  0  0  0  0  0  0
  190.4390  172.5530  142.9100 N   0  0  0  0  0  0  0  0  0  0  0  0
  193.1400  172.8570  145.0130 C   0  0  2  0  0  3  0  0  0  0  0  0
  193.6200  170.6320  142.6470 C   0  0  0  0  0  1  0  0  0  0  0  0
  190.9650  173.8030  144.9540 C   0  0  2  0  0  3  0  0  0  0  0  0
  1 21  2  0  0  0  0
  1 16  1  0  0  0  0
  2  8  1  0  0  0  0
  3 17  2  0  0  0  0
  5 24  1  0  0  0  0
  6  1  1  0  0  0  0
  8 10  1  0  0  0  0
  8 14  1  0  0  0  0
  8  7  1  1  0  0  0
  9 18  1  0  0  0  0
  9 14  1  0  0  0  0
 11 15  1  0  0  0  0
 12 24  1  0  0  0  0
 12 28  1  0  0  0  0
 13  9  2  0  0  0  0
 15 23  1  0  0  0  0
 15 19  1  0  0  0  0
 16 20  2  0  0  0  0
 17 25  1  0  0  0  0
 17  5  1  0  0  0  0
 19 25  1  0  0  0  0
 20  4  1  0  0  0  0
 21 22  1  0  0  0  0
 22  4  2  0  0  0  0
 23  6  1  0  0  0  0
 24 26  1  0  0  0  0
 25 12  1  0  0  0  0
 26 13  1  0  0  0  0
 26 10  1  0  0  0  0
 27  5  1  0  0  0  0
 28 16  1  0  0  0  0
 28 10  1  0  0  0  0
M  END
>  <MODEL>
8

>  <REMARK>
 VINA RESULT:      -7.3      2.461      3.535
  Name = 
  0 active torsions:
  status: ('A' for Active; 'I' for Inactive)
                            x       y       z     vdW  Elec       q    Type
                         _______ _______ _______ _____ _____    ______ ____

>  <TORSDO>
F 0

$$$$
=
 OpenBabel11112417423D

 28 32  0  0  1  0  0  0  0  0999 V2000
  187.8060  176.0890  142.1980 C   0  0  0  0  0  0  0  0  0  0  0  0
  191.0820  176.9410  143.2820 O   0  0  0  0  0  1  0  0  0  0  0  0
  190.1310  170.6920  142.5560 O   0  0  0  0  0  0  0  0  0  0  0  0
  186.0300  176.8640  144.2250 C   0  0  0  0  0  3  0  0  0  0  0  0
  191.4550  172.3650  143.5610 N   0  0  0  0  0  0  0  0  0  0  0  0
  188.6610  175.7030  141.1660 O   0  0  0  0  0  0  0  0  0  0  0  0
  189.8010  177.9160  145.0220 C   0  0  0  0  0  1  0  0  0  0  0  0
  190.7980  176.8370  144.6460 C   0  0  1  0  0  0  0  0  0  0  0  0
  192.9500  176.0310  145.6750 C   0  0  0  0  0  0  0  0  0  0  0  0
  190.2270  175.4340  144.9980 C   0  0  2  0  0  3  0  0  0  0  0  0
  188.1910  172.6710  139.0360 C   0  0  0  0  0  1  0  0  0  0  0  0
  190.0820  174.2040  142.8870 C   0  0  1  0  0  3  0  0  0  0  0  0
  192.6180  174.7900  145.5000 N   0  0  0  0  0  0  0  0  0  0  0  0
  192.0210  177.0790  145.3980 N   0  0  0  0  0  2  0  0  0  0  0  0
  188.7470  173.4960  140.1770 C   0  0  2  0  0  3  0  0  0  0  0  0
  188.0830  175.7470  143.5450 C   0  0  0  0  0  0  0  0  0  0  0  0
  190.3290  171.9030  142.8440 C   0  0  0  0  0  0  0  0  0  0  0  0
  194.5230  176.4220  146.3340 Cl  0  0  0  0  0  0  0  0  0  0  0  0
  188.3740  172.8370  141.5020 C   0  0  0  0  0  2  0  0  0  0  0  0
  187.1750  176.1310  144.5410 C   0  0  0  0  0  3  0  0  0  0  0  0
  186.6480  176.8170  141.8900 C   0  0  0  0  0  3  0  0  0  0  0  0
  185.7670  177.2080  142.8990 C   0  0  0  0  0  3  0  0  0  0  0  0
  188.1910  174.9140  140.0820 C   0  0  0  0  0  2  0  0  0  0  0  0
  191.4160  173.8230  143.5700 C   0  0  1  0  0  3  0  0  0  0  0  0
  189.4700  172.9520  142.4580 N   0  0  0  0  0  0  0  0  0  0  0  0
  191.3150  174.3490  144.9970 C   0  0  2  0  0  3  0  0  0  0  0  0
  192.6400  171.5750  143.8470 C   0  0  0  0  0  1  0  0  0  0  0  0
  189.2420  174.8700  143.9700 C   0  0  2  0  0  3  0  0  0  0  0  0
  1 16  1  0  0  0  0
  2  8  1  0  0  0  0
  3 17  2  0  0  0  0
  4 20  1  0  0  0  0
  5 24  1  0  0  0  0
  5 27  1  0  0  0  0
  6  1  1  0  0  0  0
  8 10  1  0  0  0  0
  8  7  1  1  0  0  0
  8 14  1  0  0  0  0
  9 18  1  0  0  0  0
 11 15  1  0  0  0  0
 12 24  1  0  0  0  0
 12 28  1  0  0  0  0
 13  9  2  0  0  0  0
 14  9  1  0  0  0  0
 15 19  1  0  0  0  0
 16 28  1  0  0  0  0
 16 20  2  0  0  0  0
 17  5  1  0  0  0  0
 19 25  1  0  0  0  0
 21  1  2  0  0  0  0
 21 22  1  0  0  0  0
 22  4  2  0  0  0  0
 23 15  1  0  0  0  0
 23  6  1  0  0  0  0
 24 26  1  0  0  0  0
 25 17  1  0  0  0  0
 25 12  1  0  0  0  0
 26 10  1  0  0  0  0
 26 13  1  0  0  0  0
 28 10  1  0  0  0  0
M  END
>  <MODEL>
9

>  <REMARK>
 VINA RESULT:      -7.3      1.847      2.907
  Name = 
  0 active torsions:
  status: ('A' for Active; 'I' for Inactive)
                            x       y       z     vdW  Elec       q    Type
                         _______ _______ _______ _____ _____    ______ ____

>  <TORSDO>
F 0

$$$$
