=
 OpenBabel11112417353D

 28 32  0  0  1  0  0  0  0  0999 V2000
  190.6390  175.0600  143.6910 C   0  0  0  0  0  0  0  0  0  0  0  0
  187.9560  175.6830  147.1220 O   0  0  0  0  0  0  0  0  0  0  0  0
  188.3010  178.5860  141.7900 C   0  0  0  0  0  1  0  0  0  0  0  0
  191.8820  177.5070  144.2620 C   0  0  0  0  0  3  0  0  0  0  0  0
  186.1540  177.2610  141.9410 C   0  0  1  0  0  3  0  0  0  0  0  0
  190.0180  173.7670  143.2720 C   0  0  0  0  0  2  0  0  0  0  0  0
  189.0980  177.8580  147.1380 O   0  0  0  0  0  0  0  0  0  0  0  0
  187.8780  177.1170  146.6710 S   0  0  0  0  0  0  0  0  0  0  0  0
  185.1700  177.5030  146.5760 C   0  0  1  0  0  3  0  0  0  0  0  0
  187.7510  177.2150  144.9330 N   0  0  2  0  0  0  0  0  0  0  0  0
  188.4610  172.6660  140.4120 O   0  0  0  0  0  1  0  0  0  0  0  0
  187.5760  175.6850  143.1000 N   0  0  1  0  0  0  0  0  0  0  0  0
  185.4370  176.6060  145.4450 N   0  0  0  0  0  2  0  0  0  0  0  0
  186.4250  177.8730  147.3690 C   0  0  0  0  0  2  0  0  0  0  0  0
  188.6200  173.6480  141.3880 C   0  0  2  0  0  3  0  0  0  0  0  0
  189.8570  176.1560  144.1240 C   0  0  0  0  0  0  0  0  0  0  0  0
  187.5370  177.3520  141.3290 C   0  0  2  0  0  3  0  0  0  0  0  0
  184.4140  178.7480  146.1400 C   0  0  0  0  0  1  0  0  0  0  0  0
  188.1910  174.9990  140.8170 C   0  0  0  0  0  2  0  0  0  0  0  0
  190.4990  177.3770  144.3950 C   0  0  0  0  0  3  0  0  0  0  0  0
  192.0260  175.2000  143.5600 C   0  0  0  0  0  3  0  0  0  0  0  0
  192.6460  176.4160  143.8490 C   0  0  0  0  0  3  0  0  0  0  0  0
  190.0100  173.6830  141.8170 N   0  0  0  0  0  2  0  0  0  0  0  0
  186.3120  176.4160  143.2000 C   0  0  1  0  0  3  0  0  0  0  0  0
  188.2400  176.1180  141.8590 C   0  0  2  0  0  3  0  0  0  0  0  0
  186.3550  177.2280  144.4810 C   0  0  2  0  0  3  0  0  0  0  0  0
  185.5730  178.5130  142.1800 O   0  0  0  0  0  1  0  0  0  0  0  0
  188.3460  176.0330  144.3120 C   0  0  1  0  0  3  0  0  0  0  0  0
  1 16  1  0  0  0  0
  4 20  1  0  0  0  0
  5 27  1  1  0  0  0
  5 24  1  0  0  0  0
  6  1  1  0  0  0  0
  8  2  2  0  0  0  0
  8  7  2  0  0  0  0
  8 14  1  0  0  0  0
  9 18  1  6  0  0  0
  9 14  1  0  0  0  0
 10  8  1  1  0  0  0
 11 15  1  0  0  0  0
 12 24  1  0  0  0  0
 12 28  1  0  0  0  0
 13  9  1  0  0  0  0
 15 23  1  0  0  0  0
 16 28  1  0  0  0  0
 16 20  2  0  0  0  0
 17  3  1  0  0  0  0
 17 25  1  0  0  0  0
 17  5  1  0  0  0  0
 19 15  1  0  0  0  0
 19 25  1  0  0  0  0
 21  1  2  0  0  0  0
 21 22  1  0  0  0  0
 22  4  2  0  0  0  0
 23  6  1  0  0  0  0
 24 26  1  0  0  0  0
 25 12  1  0  0  0  0
 26 10  1  0  0  0  0
 26 13  1  0  0  0  0
 28 10  1  0  0  0  0
M  END
>  <MODEL>
1

>  <REMARK>
 VINA RESULT:      -9.0      0.000      0.000
  Name = 
  0 active torsions:
  status: ('A' for Active; 'I' for Inactive)
                            x       y       z     vdW  Elec       q    Type
                         _______ _______ _______ _____ _____    ______ ____

>  <TORSDO>
F 0

$$$$
=
 OpenBabel11112417353D

 28 32  0  0  1  0  0  0  0  0999 V2000
  189.9470  175.0860  146.8340 C   0  0  0  0  0  0  0  0  0  0  0  0
  185.8270  176.5620  147.2840 O   0  0  0  0  0  0  0  0  0  0  0  0
  190.2790  178.3370  143.5430 C   0  0  0  0  0  1  0  0  0  0  0  0
  190.8920  177.4980  147.9040 C   0  0  0  0  0  3  0  0  0  0  0  0
  188.4180  177.2290  142.2420 C   0  0  1  0  0  3  0  0  0  0  0  0
  189.5540  173.7850  146.2110 C   0  0  0  0  0  2  0  0  0  0  0  0
  187.0300  178.6080  147.9160 O   0  0  0  0  0  0  0  0  0  0  0  0
  186.3530  177.8820  146.7890 S   0  0  0  0  0  0  0  0  0  0  0  0
  184.5910  178.4420  144.7710 C   0  0  1  0  0  3  0  0  0  0  0  0
  187.4760  177.6490  145.4730 N   0  0  2  0  0  0  0  0  0  0  0  0
  190.2150  172.2660  143.2000 O   0  0  0  0  0  1  0  0  0  0  0  0
  188.3210  175.8080  144.1970 N   0  0  1  0  0  0  0  0  0  0  0  0
  185.3850  177.3240  144.2450 N   0  0  0  0  0  2  0  0  0  0  0  0
  184.9980  178.8650  146.1840 C   0  0  0  0  0  2  0  0  0  0  0  0
  189.8430  173.4060  143.9120 C   0  0  2  0  0  3  0  0  0  0  0  0
  189.3090  176.3000  146.4890 C   0  0  0  0  0  0  0  0  0  0  0  0
  189.8260  177.0960  142.7850 C   0  0  2  0  0  3  0  0  0  0  0  0
  184.5960  179.6300  143.8230 C   0  0  0  0  0  1  0  0  0  0  0  0
  190.1900  174.6470  143.0920 C   0  0  0  0  0  2  0  0  0  0  0  0
  189.8050  177.5000  147.0280 C   0  0  0  0  0  3  0  0  0  0  0  0
  191.0370  175.0950  147.7130 C   0  0  0  0  0  3  0  0  0  0  0  0
  191.5050  176.2950  148.2500 C   0  0  0  0  0  3  0  0  0  0  0  0
  190.5310  173.4200  145.1940 N   0  0  0  0  0  2  0  0  0  0  0  0
  187.5040  176.6360  143.3090 C   0  0  1  0  0  3  0  0  0  0  0  0
  189.7210  175.9410  143.7600 C   0  0  2  0  0  3  0  0  0  0  0  0
  186.8090  177.6770  144.1660 C   0  0  2  0  0  3  0  0  0  0  0  0
  188.0830  178.5420  141.8890 O   0  0  0  0  0  1  0  0  0  0  0  0
  188.0960  176.3280  145.5610 C   0  0  1  0  0  3  0  0  0  0  0  0
  1 21  1  0  0  0  0
  4 22  1  0  0  0  0
  5 27  1  1  0  0  0
  5 17  1  0  0  0  0
  5 24  1  0  0  0  0
  6  1  1  0  0  0  0
  8  2  2  0  0  0  0
  8  7  2  0  0  0  0
  9 18  1  6  0  0  0
  9 14  1  0  0  0  0
 10 28  1  0  0  0  0
 10  8  1  1  0  0  0
 11 15  1  0  0  0  0
 12 28  1  0  0  0  0
 13  9  1  0  0  0  0
 14  8  1  0  0  0  0
 15 23  1  0  0  0  0
 16  1  2  0  0  0  0
 16 20  1  0  0  0  0
 17  3  1  0  0  0  0
 17 25  1  0  0  0  0
 19 25  1  0  0  0  0
 19 15  1  0  0  0  0
 20  4  2  0  0  0  0
 21 22  2  0  0  0  0
 23  6  1  0  0  0  0
 24 26  1  0  0  0  0
 24 12  1  0  0  0  0
 25 12  1  0  0  0  0
 26 13  1  0  0  0  0
 26 10  1  0  0  0  0
 28 16  1  0  0  0  0
M  END
>  <MODEL>
2

>  <REMARK>
 VINA RESULT:      -8.8      2.253      2.635
  Name = 
  0 active torsions:
  status: ('A' for Active; 'I' for Inactive)
                            x       y       z     vdW  Elec       q    Type
                         _______ _______ _______ _____ _____    ______ ____

>  <TORSDO>
F 0

$$$$
=
 OpenBabel11112417353D

 28 32  0  0  1  0  0  0  0  0999 V2000
  186.0720  176.7640  142.9620 C   0  0  0  0  0  0  0  0  0  0  0  0
  187.5340  172.7580  141.8810 O   0  0  0  0  0  0  0  0  0  0  0  0
  190.5680  177.9020  143.0190 C   0  0  0  0  0  1  0  0  0  0  0  0
  186.8970  177.7040  140.4530 C   0  0  0  0  0  3  0  0  0  0  0  0
  190.9890  176.2040  144.8410 C   0  0  1  0  0  3  0  0  0  0  0  0
  185.6390  176.3790  144.3400 C   0  0  0  0  0  2  0  0  0  0  0  0
  188.3500  173.9960  139.9240 O   0  0  0  0  0  0  0  0  0  0  0  0
  188.7190  173.4630  141.2790 S   0  0  0  0  0  0  0  0  0  0  0  0
  190.7970  172.1150  142.4420 C   0  0  1  0  0  3  0  0  0  0  0  0
  189.2530  174.7680  142.3060 N   0  0  2  0  0  0  0  0  0  0  0  0
  186.4920  177.4140  147.5040 O   0  0  0  0  0  1  0  0  0  0  0  0
  188.6640  175.6670  144.4460 N   0  0  1  0  0  0  0  0  0  0  0  0
  190.2210  172.8940  143.5460 N   0  0  0  0  0  2  0  0  0  0  0  0
  190.0650  172.3110  141.1130 C   0  0  0  0  0  2  0  0  0  0  0  0
  186.8830  177.0190  146.2260 C   0  0  2  0  0  3  0  0  0  0  0  0
  187.2820  176.2920  142.4030 C   0  0  0  0  0  0  0  0  0  0  0  0
  190.2800  177.4850  144.4550 C   0  0  2  0  0  3  0  0  0  0  0  0
  192.2870  172.3740  142.2890 C   0  0  0  0  0  1  0  0  0  0  0  0
  188.2650  177.5970  145.9210 C   0  0  0  0  0  2  0  0  0  0  0  0
  187.6830  176.7830  141.1480 C   0  0  0  0  0  3  0  0  0  0  0  0
  185.2910  177.6880  142.2580 C   0  0  0  0  0  3  0  0  0  0  0  0
  185.6980  178.1520  141.0070 C   0  0  0  0  0  3  0  0  0  0  0  0
  185.9020  177.4810  145.2560 N   0  0  0  0  0  2  0  0  0  0  0  0
  190.0000  175.0800  144.5550 C   0  0  1  0  0  3  0  0  0  0  0  0
  188.8120  177.1270  144.5720 C   0  0  2  0  0  3  0  0  0  0  0  0
  190.2780  174.3350  143.2620 C   0  0  2  0  0  3  0  0  0  0  0  0
  192.2220  176.0390  144.1980 O   0  0  0  0  0  1  0  0  0  0  0  0
  188.1450  175.2580  143.1240 C   0  0  1  0  0  3  0  0  0  0  0  0
  1  6  1  0  0  0  0
  3 17  1  0  0  0  0
  4 22  2  0  0  0  0
  4 20  1  0  0  0  0
  5 27  1  6  0  0  0
  6 23  1  0  0  0  0
  7  8  2  0  0  0  0
  8  2  2  0  0  0  0
  9 18  1  6  0  0  0
  9 13  1  0  0  0  0
 10  8  1  1  0  0  0
 10 28  1  0  0  0  0
 10 26  1  0  0  0  0
 12 24  1  0  0  0  0
 12 25  1  0  0  0  0
 14  8  1  0  0  0  0
 14  9  1  0  0  0  0
 15 11  1  0  0  0  0
 16  1  1  0  0  0  0
 16 28  1  0  0  0  0
 17 25  1  0  0  0  0
 17  5  1  0  0  0  0
 19 15  1  0  0  0  0
 20 16  2  0  0  0  0
 21  1  2  0  0  0  0
 22 21  1  0  0  0  0
 23 15  1  0  0  0  0
 24  5  1  0  0  0  0
 25 19  1  0  0  0  0
 26 13  1  0  0  0  0
 26 24  1  0  0  0  0
 28 12  1  0  0  0  0
M  END
>  <MODEL>
3

>  <REMARK>
 VINA RESULT:      -8.2      2.252      6.185
  Name = 
  0 active torsions:
  status: ('A' for Active; 'I' for Inactive)
                            x       y       z     vdW  Elec       q    Type
                         _______ _______ _______ _____ _____    ______ ____

>  <TORSDO>
F 0

$$$$
=
 OpenBabel11112417353D

 28 32  0  0  1  0  0  0  0  0999 V2000
  191.9270  174.0620  143.5700 C   0  0  0  0  0  0  0  0  0  0  0  0
  188.7210  176.0600  141.3150 O   0  0  0  0  0  0  0  0  0  0  0  0
  189.2530  174.9160  147.2630 C   0  0  0  0  0  1  0  0  0  0  0  0
  190.1930  171.9160  144.0660 C   0  0  0  0  0  3  0  0  0  0  0  0
  189.4120  177.3990  146.8200 C   0  0  1  0  0  3  0  0  0  0  0  0
  192.9150  175.1710  143.4040 C   0  0  0  0  0  2  0  0  0  0  0  0
  187.4410  174.1490  142.1750 O   0  0  0  0  0  0  0  0  0  0  0  0
  187.7980  175.5890  142.4060 S   0  0  0  0  0  0  0  0  0  0  0  0
  186.5340  177.9200  143.0840 C   0  0  1  0  0  3  0  0  0  0  0  0
  188.5450  175.7730  143.9730 N   0  0  2  0  0  0  0  0  0  0  0  0
  194.6270  177.2080  145.5790 O   0  0  0  0  0  1  0  0  0  0  0  0
  190.5930  176.6530  144.8460 N   0  0  1  0  0  0  0  0  0  0  0  0
  187.9010  178.1020  143.5880 N   0  0  0  0  0  2  0  0  0  0  0  0
  186.3160  176.5760  142.3870 C   0  0  0  0  0  2  0  0  0  0  0  0
  193.4300  176.6120  145.1850 C   0  0  2  0  0  3  0  0  0  0  0  0
  190.5630  174.3150  143.8430 C   0  0  0  0  0  0  0  0  0  0  0  0
  190.1630  176.1340  147.1830 C   0  0  2  0  0  3  0  0  0  0  0  0
  185.4990  178.1440  144.1750 C   0  0  0  0  0  1  0  0  0  0  0  0
  192.5010  176.5020  146.3930 C   0  0  0  0  0  2  0  0  0  0  0  0
  189.7120  173.2260  144.0990 C   0  0  0  0  0  3  0  0  0  0  0  0
  192.4000  172.7450  143.5410 C   0  0  0  0  0  3  0  0  0  0  0  0
  191.5370  171.6750  143.7820 C   0  0  0  0  0  3  0  0  0  0  0  0
  193.7060  175.3000  144.6210 N   0  0  0  0  0  2  0  0  0  0  0  0
  189.5000  177.5130  145.3020 C   0  0  1  0  0  3  0  0  0  0  0  0
  191.1230  175.9490  146.0250 C   0  0  2  0  0  3  0  0  0  0  0  0
  188.2400  177.0730  144.5810 C   0  0  2  0  0  3  0  0  0  0  0  0
  188.0980  177.4190  147.3050 O   0  0  0  0  0  1  0  0  0  0  0  0
  190.0000  175.7360  143.8500 C   0  0  1  0  0  3  0  0  0  0  0  0
  1 16  1  0  0  0  0
  2  8  2  0  0  0  0
  4 20  1  0  0  0  0
  5 17  1  0  0  0  0
  5 27  1  6  0  0  0
  6  1  1  0  0  0  0
  6 23  1  0  0  0  0
  7  8  2  0  0  0  0
  9 13  1  0  0  0  0
  9 18  1  1  0  0  0
 10  8  1  6  0  0  0
 10 26  1  0  0  0  0
 12 24  1  0  0  0  0
 12 25  1  0  0  0  0
 13 26  1  0  0  0  0
 14  8  1  0  0  0  0
 14  9  1  0  0  0  0
 15 11  1  0  0  0  0
 15 19  1  0  0  0  0
 16 28  1  0  0  0  0
 16 20  2  0  0  0  0
 17  3  1  0  0  0  0
 21  1  2  0  0  0  0
 21 22  1  0  0  0  0
 22  4  2  0  0  0  0
 23 15  1  0  0  0  0
 24  5  1  0  0  0  0
 25 19  1  0  0  0  0
 25 17  1  0  0  0  0
 26 24  1  0  0  0  0
 28 10  1  0  0  0  0
 28 12  1  0  0  0  0
M  END
>  <MODEL>
4

>  <REMARK>
 VINA RESULT:      -8.1      2.535      4.931
  Name = 
  0 active torsions:
  status: ('A' for Active; 'I' for Inactive)
                            x       y       z     vdW  Elec       q    Type
                         _______ _______ _______ _____ _____    ______ ____

>  <TORSDO>
F 0

$$$$
=
 OpenBabel11112417353D

 28 32  0  0  1  0  0  0  0  0999 V2000
  192.2070  175.6280  142.3550 C   0  0  0  0  0  0  0  0  0  0  0  0
  188.6050  178.0600  141.6740 O   0  0  0  0  0  0  0  0  0  0  0  0
  189.6860  173.6310  145.6970 C   0  0  0  0  0  1  0  0  0  0  0  0
  190.8390  173.3870  141.3710 C   0  0  0  0  0  3  0  0  0  0  0  0
  189.4540  175.8570  146.8700 C   0  0  1  0  0  3  0  0  0  0  0  0
  193.0120  176.7440  142.9380 C   0  0  0  0  0  2  0  0  0  0  0  0
  187.6740  175.8510  141.1380 O   0  0  0  0  0  0  0  0  0  0  0  0
  187.8330  176.8860  142.2140 S   0  0  0  0  0  0  0  0  0  0  0  0
  186.2920  178.0910  144.1280 C   0  0  1  0  0  3  0  0  0  0  0  0
  188.6470  176.1910  143.5930 N   0  0  2  0  0  0  0  0  0  0  0  0
  194.5490  177.2710  145.9670 O   0  0  0  0  0  1  0  0  0  0  0  0
  190.5980  176.6610  144.8970 N   0  0  1  0  0  0  0  0  0  0  0  0
  187.6490  178.1370  144.6880 N   0  0  0  0  0  2  0  0  0  0  0  0
  186.2270  177.4360  142.7470 C   0  0  0  0  0  2  0  0  0  0  0  0
  193.4280  176.8620  145.2460 C   0  0  2  0  0  3  0  0  0  0  0  0
  190.8420  175.4480  142.6740 C   0  0  0  0  0  0  0  0  0  0  0  0
  190.4030  174.7680  146.4120 C   0  0  2  0  0  3  0  0  0  0  0  0
  185.3090  177.4420  145.0880 C   0  0  0  0  0  1  0  0  0  0  0  0
  192.6050  175.8970  146.1000 C   0  0  0  0  0  2  0  0  0  0  0  0
  190.1770  174.3130  142.1800 C   0  0  0  0  0  3  0  0  0  0  0  0
  192.8630  174.6940  141.5440 C   0  0  0  0  0  3  0  0  0  0  0  0
  192.1820  173.5810  141.0490 C   0  0  0  0  0  3  0  0  0  0  0  0
  193.8540  176.2270  144.0090 N   0  0  0  0  0  2  0  0  0  0  0  0
  189.4250  176.8830  145.7430 C   0  0  1  0  0  3  0  0  0  0  0  0
  191.3010  175.4770  145.4190 C   0  0  2  0  0  3  0  0  0  0  0  0
  188.1970  176.7850  144.8570 C   0  0  2  0  0  3  0  0  0  0  0  0
  188.1850  175.3740  147.2160 O   0  0  0  0  0  1  0  0  0  0  0  0
  190.0810  176.4620  143.5270 C   0  0  1  0  0  3  0  0  0  0  0  0
  1 16  1  0  0  0  0
  1  6  1  0  0  0  0
  2  8  2  0  0  0  0
  3 17  1  0  0  0  0
  4 20  1  0  0  0  0
  5 27  1  6  0  0  0
  6 23  1  0  0  0  0
  7  8  2  0  0  0  0
  8 14  1  0  0  0  0
  9 13  1  0  0  0  0
  9 18  1  1  0  0  0
 10  8  1  6  0  0  0
 10 26  1  0  0  0  0
 12 25  1  0  0  0  0
 12 24  1  0  0  0  0
 13 26  1  0  0  0  0
 14  9  1  0  0  0  0
 15 11  1  0  0  0  0
 15 19  1  0  0  0  0
 16 28  1  0  0  0  0
 17  5  1  0  0  0  0
 20 16  2  0  0  0  0
 21  1  2  0  0  0  0
 22  4  2  0  0  0  0
 22 21  1  0  0  0  0
 23 15  1  0  0  0  0
 24  5  1  0  0  0  0
 25 19  1  0  0  0  0
 25 17  1  0  0  0  0
 26 24  1  0  0  0  0
 28 10  1  0  0  0  0
 28 12  1  0  0  0  0
M  END
>  <MODEL>
5

>  <REMARK>
 VINA RESULT:      -8.0      2.493      4.866
  Name = 
  0 active torsions:
  status: ('A' for Active; 'I' for Inactive)
                            x       y       z     vdW  Elec       q    Type
                         _______ _______ _______ _____ _____    ______ ____

>  <TORSDO>
F 0

$$$$
=
 OpenBabel11112417353D

 28 32  0  0  1  0  0  0  0  0999 V2000
  188.5800  176.5000  144.1820 C   0  0  0  0  0  0  0  0  0  0  0  0
  192.8310  177.2670  145.0130 O   0  0  0  0  0  0  0  0  0  0  0  0
  189.6740  172.0700  145.0170 C   0  0  0  0  0  1  0  0  0  0  0  0
  188.1990  175.8690  146.8870 C   0  0  0  0  0  3  0  0  0  0  0  0
  191.3240  172.1040  143.1030 C   0  0  1  0  0  3  0  0  0  0  0  0
  188.6810  176.7700  142.7150 C   0  0  0  0  0  2  0  0  0  0  0  0
  192.1690  176.3960  147.2120 O   0  0  0  0  0  0  0  0  0  0  0  0
  192.7770  176.0420  145.8850 S   0  0  0  0  0  0  0  0  0  0  0  0
  194.9090  174.6120  144.9370 C   0  0  1  0  0  3  0  0  0  0  0  0
  191.8470  174.7770  145.1230 N   0  0  2  0  0  0  0  0  0  0  0  0
  188.0820  174.9160  139.8840 O   0  0  0  0  0  1  0  0  0  0  0  0
  190.7210  174.4450  143.0370 N   0  0  1  0  0  0  0  0  0  0  0  0
  193.9230  174.5340  143.8520 N   0  0  0  0  0  2  0  0  0  0  0  0
  194.4290  175.4290  146.1380 C   0  0  0  0  0  2  0  0  0  0  0  0
  188.6470  175.0150  141.1540 C   0  0  2  0  0  3  0  0  0  0  0  0
  189.5770  175.7780  144.8770 C   0  0  0  0  0  0  0  0  0  0  0  0
  189.8700  172.2170  143.5130 C   0  0  2  0  0  3  0  0  0  0  0  0
  195.3810  173.2330  145.3680 C   0  0  0  0  0  1  0  0  0  0  0  0
  188.7910  173.6170  141.7530 C   0  0  0  0  0  2  0  0  0  0  0  0
  189.3620  175.4630  146.2300 C   0  0  0  0  0  3  0  0  0  0  0  0
  187.4160  176.9020  144.8490 C   0  0  0  0  0  3  0  0  0  0  0  0
  187.2280  176.5940  146.1960 C   0  0  0  0  0  3  0  0  0  0  0  0
  187.8060  175.8560  141.9930 N   0  0  0  0  0  2  0  0  0  0  0  0
  191.8620  173.5300  143.0850 C   0  0  1  0  0  3  0  0  0  0  0  0
  189.4970  173.6290  143.1090 C   0  0  2  0  0  3  0  0  0  0  0  0
  192.6840  173.8890  144.3090 C   0  0  2  0  0  3  0  0  0  0  0  0
  192.0630  171.2390  143.9200 O   0  0  0  0  0  1  0  0  0  0  0  0
  190.8750  175.3510  144.1940 C   0  0  1  0  0  3  0  0  0  0  0  0
  1 21  2  0  0  0  0
  1 16  1  0  0  0  0
  2  8  2  0  0  0  0
  5 17  1  0  0  0  0
  5 27  1  1  0  0  0
  6  1  1  0  0  0  0
  8 14  1  0  0  0  0
  8  7  2  0  0  0  0
  9 18  1  1  0  0  0
  9 14  1  0  0  0  0
 10  8  1  6  0  0  0
 11 15  1  0  0  0  0
 12 24  1  0  0  0  0
 12 25  1  0  0  0  0
 12 28  1  0  0  0  0
 13 26  1  0  0  0  0
 13  9  1  0  0  0  0
 15 19  1  0  0  0  0
 15 23  1  0  0  0  0
 16 20  2  0  0  0  0
 17  3  1  0  0  0  0
 19 25  1  0  0  0  0
 20  4  1  0  0  0  0
 21 22  1  0  0  0  0
 22  4  2  0  0  0  0
 23  6  1  0  0  0  0
 24  5  1  0  0  0  0
 24 26  1  0  0  0  0
 25 17  1  0  0  0  0
 26 10  1  0  0  0  0
 28 16  1  0  0  0  0
 28 10  1  0  0  0  0
M  END
>  <MODEL>
6

>  <REMARK>
 VINA RESULT:      -7.9      2.706      5.950
  Name = 
  0 active torsions:
  status: ('A' for Active; 'I' for Inactive)
                            x       y       z     vdW  Elec       q    Type
                         _______ _______ _______ _____ _____    ______ ____

>  <TORSDO>
F 0

$$$$
=
 OpenBabel11112417353D

 28 32  0  0  1  0  0  0  0  0999 V2000
  188.6700  176.6630  145.0860 C   0  0  0  0  0  0  0  0  0  0  0  0
  193.0400  177.1660  145.0130 O   0  0  0  0  0  0  0  0  0  0  0  0
  189.5880  172.3510  143.6430 C   0  0  0  0  0  1  0  0  0  0  0  0
  188.9410  174.9170  147.2630 C   0  0  0  0  0  3  0  0  0  0  0  0
  190.6940  173.2690  141.5650 C   0  0  1  0  0  3  0  0  0  0  0  0
  188.4160  177.5400  143.9030 C   0  0  0  0  0  2  0  0  0  0  0  0
  192.8920  175.4090  146.7230 O   0  0  0  0  0  0  0  0  0  0  0  0
  193.1130  175.6830  145.2630 S   0  0  0  0  0  0  0  0  0  0  0  0
  194.8140  174.8850  143.2740 C   0  0  1  0  0  3  0  0  0  0  0  0
  191.9230  174.8330  144.3110 N   0  0  2  0  0  0  0  0  0  0  0  0
  186.9730  177.0610  140.8210 O   0  0  0  0  0  1  0  0  0  0  0  0
  190.2810  175.3860  142.6590 N   0  0  1  0  0  0  0  0  0  0  0  0
  193.5810  175.2420  142.5600 N   0  0  0  0  0  2  0  0  0  0  0  0
  194.7210  175.0870  144.7870 C   0  0  0  0  0  2  0  0  0  0  0  0
  187.8490  176.6270  141.8160 C   0  0  2  0  0  3  0  0  0  0  0  0
  189.7510  175.7520  145.1200 C   0  0  0  0  0  0  0  0  0  0  0  0
  189.4060  173.1370  142.3510 C   0  0  2  0  0  3  0  0  0  0  0  0
  195.2700  173.4740  142.9380 C   0  0  0  0  0  1  0  0  0  0  0  0
  188.0290  175.1140  141.7040 C   0  0  0  0  0  2  0  0  0  0  0  0
  189.8630  174.8780  146.2150 C   0  0  0  0  0  3  0  0  0  0  0  0
  187.7500  176.6940  146.1410 C   0  0  0  0  0  3  0  0  0  0  0  0
  187.8870  175.8290  147.2270 C   0  0  0  0  0  3  0  0  0  0  0  0
  187.3170  176.9920  143.1200 N   0  0  0  0  0  2  0  0  0  0  0  0
  191.3210  174.5850  142.0120 C   0  0  1  0  0  3  0  0  0  0  0  0
  189.0560  174.5700  142.6980 C   0  0  2  0  0  3  0  0  0  0  0  0
  192.4530  174.4150  143.0090 C   0  0  2  0  0  3  0  0  0  0  0  0
  191.5460  172.1670  141.7120 O   0  0  0  0  0  1  0  0  0  0  0  0
  190.7950  175.7110  144.0050 C   0  0  1  0  0  3  0  0  0  0  0  0
  1 16  2  0  0  0  0
  1 21  1  0  0  0  0
  2  8  2  0  0  0  0
  5 27  1  1  0  0  0
  5 24  1  0  0  0  0
  5 17  1  0  0  0  0
  6  1  1  0  0  0  0
  8  7  2  0  0  0  0
  9 18  1  1  0  0  0
  9 14  1  0  0  0  0
 10  8  1  6  0  0  0
 11 15  1  0  0  0  0
 12 25  1  0  0  0  0
 12 28  1  0  0  0  0
 13 26  1  0  0  0  0
 13  9  1  0  0  0  0
 14  8  1  0  0  0  0
 15 23  1  0  0  0  0
 16 20  1  0  0  0  0
 17 25  1  0  0  0  0
 17  3  1  0  0  0  0
 19 15  1  0  0  0  0
 19 25  1  0  0  0  0
 20  4  2  0  0  0  0
 21 22  2  0  0  0  0
 22  4  1  0  0  0  0
 23  6  1  0  0  0  0
 24 12  1  0  0  0  0
 24 26  1  0  0  0  0
 26 10  1  0  0  0  0
 28 10  1  0  0  0  0
 28 16  1  0  0  0  0
M  END
>  <MODEL>
7

>  <REMARK>
 VINA RESULT:      -7.9      2.657      5.925
  Name = 
  0 active torsions:
  status: ('A' for Active; 'I' for Inactive)
                            x       y       z     vdW  Elec       q    Type
                         _______ _______ _______ _____ _____    ______ ____

>  <TORSDO>
F 0

$$$$
=
 OpenBabel11112417353D

 28 32  0  0  1  0  0  0  0  0999 V2000
  188.0340  176.3120  145.6420 C   0  0  0  0  0  0  0  0  0  0  0  0
  187.9970  173.3650  142.3760 O   0  0  0  0  0  0  0  0  0  0  0  0
  191.5660  178.2000  143.3020 C   0  0  0  0  0  1  0  0  0  0  0  0
  187.1160  178.2610  143.8480 C   0  0  0  0  0  3  0  0  0  0  0  0
  192.8890  176.0610  143.5480 C   0  0  1  0  0  3  0  0  0  0  0  0
  188.5660  175.3650  146.6680 C   0  0  0  0  0  2  0  0  0  0  0  0
  187.4650  175.3770  141.0720 O   0  0  0  0  0  0  0  0  0  0  0  0
  188.5680  174.4600  141.5160 S   0  0  0  0  0  0  0  0  0  0  0  0
  190.7430  173.2090  140.4240 C   0  0  1  0  0  3  0  0  0  0  0  0
  189.7790  175.3660  142.3880 N   0  0  2  0  0  0  0  0  0  0  0  0
  191.3810  175.2910  148.6390 O   0  0  0  0  0  1  0  0  0  0  0  0
  190.8290  175.2690  144.5370 N   0  0  1  0  0  0  0  0  0  0  0  0
  191.1140  173.3920  141.8320 N   0  0  0  0  0  2  0  0  0  0  0  0
  189.3480  173.7390  140.0880 C   0  0  0  0  0  2  0  0  0  0  0  0
  190.7990  175.4850  147.3870 C   0  0  2  0  0  3  0  0  0  0  0  0
  188.5260  176.3280  144.3170 C   0  0  0  0  0  0  0  0  0  0  0  0
  192.2420  177.2300  144.2620 C   0  0  2  0  0  3  0  0  0  0  0  0
  191.7890  173.7910  139.4860 C   0  0  0  0  0  1  0  0  0  0  0  0
  191.6980  176.3920  146.5480 C   0  0  0  0  0  2  0  0  0  0  0  0
  188.0610  177.3190  143.4360 C   0  0  0  0  0  3  0  0  0  0  0  0
  187.0870  177.2600  146.0460 C   0  0  0  0  0  3  0  0  0  0  0  0
  186.6260  178.2280  145.1530 C   0  0  0  0  0  3  0  0  0  0  0  0
  189.4790  176.0740  147.5550 N   0  0  0  0  0  2  0  0  0  0  0  0
  191.8400  174.9550  143.5270 C   0  0  1  0  0  3  0  0  0  0  0  0
  191.1790  176.5750  145.1210 C   0  0  2  0  0  3  0  0  0  0  0  0
  191.1260  174.8160  142.1950 C   0  0  2  0  0  3  0  0  0  0  0  0
  193.3770  176.3910  142.2780 O   0  0  0  0  0  1  0  0  0  0  0  0
  189.5340  175.2890  143.8270 C   0  0  1  0  0  3  0  0  0  0  0  0
  1 21  1  0  0  0  0
  1  6  1  0  0  0  0
  3 17  1  0  0  0  0
  4 22  1  0  0  0  0
  5 27  1  6  0  0  0
  5 17  1  0  0  0  0
  6 23  1  0  0  0  0
  7  8  2  0  0  0  0
  8  2  2  0  0  0  0
  9 18  1  6  0  0  0
  9 13  1  0  0  0  0
 10  8  1  6  0  0  0
 10 28  1  0  0  0  0
 12 25  1  0  0  0  0
 13 26  1  0  0  0  0
 14  9  1  0  0  0  0
 14  8  1  0  0  0  0
 15 23  1  0  0  0  0
 15 11  1  0  0  0  0
 16  1  2  0  0  0  0
 17 25  1  0  0  0  0
 19 15  1  0  0  0  0
 20  4  2  0  0  0  0
 20 16  1  0  0  0  0
 22 21  2  0  0  0  0
 24  5  1  0  0  0  0
 24 12  1  0  0  0  0
 25 19  1  0  0  0  0
 26 10  1  0  0  0  0
 26 24  1  0  0  0  0
 28 16  1  0  0  0  0
 28 12  1  0  0  0  0
M  END
>  <MODEL>
8

>  <REMARK>
 VINA RESULT:      -7.7      2.627      6.199
  Name = 
  0 active torsions:
  status: ('A' for Active; 'I' for Inactive)
                            x       y       z     vdW  Elec       q    Type
                         _______ _______ _______ _____ _____    ______ ____

>  <TORSDO>
F 0

$$$$
=
 OpenBabel11112417353D

 28 32  0  0  1  0  0  0  0  0999 V2000
  188.8280  176.1730  145.1350 C   0  0  0  0  0  0  0  0  0  0  0  0
  188.9410  171.9160  144.0330 O   0  0  0  0  0  0  0  0  0  0  0  0
  192.8530  176.4160  142.8420 C   0  0  0  0  0  1  0  0  0  0  0  0
  188.4060  176.8240  142.4410 C   0  0  0  0  0  3  0  0  0  0  0  0
  193.8790  174.7490  144.4410 C   0  0  1  0  0  3  0  0  0  0  0  0
  189.0960  175.9410  146.5870 C   0  0  0  0  0  2  0  0  0  0  0  0
  188.8330  172.8840  141.7790 O   0  0  0  0  0  0  0  0  0  0  0  0
  189.7510  172.3500  142.8410 S   0  0  0  0  0  0  0  0  0  0  0  0
  191.9080  170.6750  143.0170 C   0  0  1  0  0  3  0  0  0  0  0  0
  190.9140  173.5700  143.2910 N   0  0  2  0  0  0  0  0  0  0  0  0
  191.5660  176.9280  148.7630 O   0  0  0  0  0  1  0  0  0  0  0  0
  191.6210  174.6590  145.3020 N   0  0  1  0  0  0  0  0  0  0  0  0
  192.0870  171.6000  144.1440 N   0  0  0  0  0  2  0  0  0  0  0  0
  190.6450  170.9510  142.1990 C   0  0  0  0  0  2  0  0  0  0  0  0
  191.1980  176.4090  147.5220 C   0  0  2  0  0  3  0  0  0  0  0  0
  189.5080  175.4510  144.1270 C   0  0  0  0  0  0  0  0  0  0  0  0
  193.2690  176.1260  144.2780 C   0  0  2  0  0  3  0  0  0  0  0  0
  193.1390  170.6320  142.1250 C   0  0  0  0  0  1  0  0  0  0  0  0
  192.3060  176.6930  146.5090 C   0  0  0  0  0  2  0  0  0  0  0  0
  189.2900  175.7990  142.7830 C   0  0  0  0  0  3  0  0  0  0  0  0
  187.9440  177.2000  144.7820 C   0  0  0  0  0  3  0  0  0  0  0  0
  187.7290  177.5210  143.4410 C   0  0  0  0  0  3  0  0  0  0  0  0
  189.9420  177.0100  147.1000 N   0  0  0  0  0  2  0  0  0  0  0  0
  192.7270  173.8280  144.8270 C   0  0  1  0  0  3  0  0  0  0  0  0
  192.0250  176.0660  145.1420 C   0  0  2  0  0  3  0  0  0  0  0  0
  192.2050  172.9880  143.6760 C   0  0  2  0  0  3  0  0  0  0  0  0
  194.5810  174.3190  143.3080 O   0  0  0  0  0  1  0  0  0  0  0  0
  190.4540  174.3010  144.4700 C   0  0  1  0  0  3  0  0  0  0  0  0
  1  6  1  0  0  0  0
  3 17  1  0  0  0  0
  4 20  2  0  0  0  0
  4 22  1  0  0  0  0
  5 27  1  6  0  0  0
  5 24  1  0  0  0  0
  6 23  1  0  0  0  0
  7  8  2  0  0  0  0
  8  2  2  0  0  0  0
  9 18  1  6  0  0  0
  9 13  1  0  0  0  0
 10  8  1  1  0  0  0
 10 26  1  0  0  0  0
 10 28  1  0  0  0  0
 14  8  1  0  0  0  0
 14  9  1  0  0  0  0
 15 11  1  0  0  0  0
 16 28  1  0  0  0  0
 16  1  2  0  0  0  0
 17  5  1  0  0  0  0
 17 25  1  0  0  0  0
 19 15  1  0  0  0  0
 20 16  1  0  0  0  0
 21  1  1  0  0  0  0
 22 21  2  0  0  0  0
 23 15  1  0  0  0  0
 24 12  1  0  0  0  0
 25 12  1  0  0  0  0
 25 19  1  0  0  0  0
 26 13  1  0  0  0  0
 26 24  1  0  0  0  0
 28 12  1  0  0  0  0
M  END
>  <MODEL>
9

>  <REMARK>
 VINA RESULT:      -7.1      2.997      6.829
  Name = 
  0 active torsions:
  status: ('A' for Active; 'I' for Inactive)
                            x       y       z     vdW  Elec       q    Type
                         _______ _______ _______ _____ _____    ______ ____

>  <TORSDO>
F 0

$$$$
