=
 OpenBabel11112416493D

 31 35  0  0  1  0  0  0  0  0999 V2000
  191.0890  171.2170  142.8630 C   0  0  0  0  0  0  0  0  0  0  0  0
  190.9420  173.6660  145.7650 C   0  0  2  0  0  3  0  0  0  0  0  0
  192.2530  174.4510  145.7800 C   0  0  2  0  0  3  0  0  0  0  0  0
  194.6040  174.7740  144.9010 C   0  0  2  0  0  3  0  0  0  0  0  0
  190.6790  172.9990  144.4370 C   0  0  0  0  0  0  0  0  0  0  0  0
  190.2240  171.7960  141.9870 N   0  0  0  0  0  0  0  0  0  0  0  0
  193.4720  173.7910  145.1700 C   0  0  0  0  0  2  0  0  0  0  0  0
  189.2990  175.4480  145.0590 C   0  0  2  0  0  3  0  0  0  0  0  0
  191.9080  169.7320  142.4300 Cl  0  0  0  0  0  0  0  0  0  0  0  0
  191.2260  176.2230  147.2340 C   0  0  0  0  0  2  0  0  0  0  0  0
  195.8400  174.0130  144.4700 C   0  0  0  0  0  1  0  0  0  0  0  0
  189.0580  174.7220  143.8540 O   0  0  0  0  0  0  0  0  0  0  0  0
  189.7250  174.5050  146.1980 C   0  0  2  0  0  3  0  0  0  0  0  0
  191.3310  171.8080  144.1040 C   0  0  0  0  0  3  0  0  0  0  0  0
  194.8970  175.5390  146.1770 C   0  0  0  0  0  2  0  0  0  0  0  0
  189.7770  173.5700  143.5230 C   0  0  0  0  0  0  0  0  0  0  0  0
  189.5660  172.9470  142.2920 C   0  0  0  0  0  3  0  0  0  0  0  0
  190.0680  175.2620  147.4780 C   0  0  0  0  0  2  0  0  0  0  0  0
  192.3970  175.5690  146.5500 C   0  0  2  0  0  3  0  0  0  0  0  0
  193.6760  176.3710  146.5470 C   0  0  0  0  0  2  0  0  0  0  0  0
  188.0600  176.2530  145.4260 C   0  0  0  0  0  2  0  0  0  0  0  0
  189.5580  177.9110  144.3030 C   0  0  0  0  0  1  0  0  0  0  0  0
  188.1660  177.6610  144.8560 C   0  0  1  0  0  3  0  0  0  0  0  0
  185.3360  178.4690  141.5980 C   0  0  2  0  0  3  0  0  0  0  0  0
  187.5500  177.6780  142.4420 C   0  0  0  0  0  2  0  0  0  0  0  0
  185.9110  179.4920  145.0440 O   0  0  0  0  0  0  0  0  0  0  0  0
  184.3520  178.3070  140.4590 C   0  0  0  0  0  1  0  0  0  0  0  0
  186.3700  177.3580  141.5300 C   0  0  0  0  0  2  0  0  0  0  0  0
  185.9380  178.6330  144.1230 C   0  0  0  0  0  0  0  0  0  0  0  0
  187.1470  177.9050  143.8330 N   0  0  0  0  0  0  0  0  0  0  0  0
  184.4530  178.3240  143.1740 S   0  0  0  0  0  0  0  0  0  0  0  0
  1 14  1  0  0  0  0
  2  5  1  6  0  0  0
  2  3  1  0  0  0  0
  2 13  1  0  0  0  0
  3  7  1  1  0  0  0
  3 19  1  0  0  0  0
  4 11  1  1  0  0  0
  4  7  1  0  0  0  0
  4 15  1  0  0  0  0
  6 17  1  0  0  0  0
  6  1  2  0  0  0  0
  8 21  1  1  0  0  0
  8 13  1  0  0  0  0
  9  1  1  0  0  0  0
 10 18  1  0  0  0  0
 12  8  1  0  0  0  0
 13 18  1  1  0  0  0
 14  5  2  0  0  0  0
 15 20  1  0  0  0  0
 16 12  1  0  0  0  0
 16  5  1  0  0  0  0
 17 16  2  0  0  0  0
 19 20  1  6  0  0  0
 19 10  1  0  0  0  0
 23 22  1  6  0  0  0
 23 21  1  0  0  0  0
 24 27  1  6  0  0  0
 24 31  1  0  0  0  0
 25 30  1  0  0  0  0
 28 24  1  0  0  0  0
 28 25  1  0  0  0  0
 29 26  2  0  0  0  0
 30 29  1  0  0  0  0
 30 23  1  0  0  0  0
 31 29  1  0  0  0  0
M  END
>  <MODEL>
1

>  <REMARK>
 VINA RESULT:      -8.6      0.000      0.000
  Name = 
  3 active torsions:
  status: ('A' for Active; 'I' for Inactive)
    1  A    between atoms: C_5  and  C_16
    2  A    between atoms: C_5  and  N_30
    3  A    between atoms: C_10  and  C_16
                            x       y       z     vdW  Elec       q    Type
                         _______ _______ _______ _____ _____    ______ ____

>  <TORSDO>
F 3

$$$$
=
 OpenBabel11112416493D

 31 35  0  0  1  0  0  0  0  0999 V2000
  193.4300  170.4810  144.4230 C   0  0  0  0  0  0  0  0  0  0  0  0
  194.0650  174.0210  145.6520 C   0  0  2  0  0  3  0  0  0  0  0  0
  195.0250  174.6900  144.6700 C   0  0  2  0  0  3  0  0  0  0  0  0
  196.5840  174.5050  142.6860 C   0  0  2  0  0  3  0  0  0  0  0  0
  193.3870  172.8060  145.0650 C   0  0  0  0  0  0  0  0  0  0  0  0
  192.1570  170.5890  143.9560 N   0  0  0  0  0  0  0  0  0  0  0  0
  195.9500  173.7940  143.8730 C   0  0  0  0  0  2  0  0  0  0  0  0
  191.9250  175.2830  145.2000 C   0  0  2  0  0  3  0  0  0  0  0  0
  194.2760  168.9520  144.3090 Cl  0  0  0  0  0  0  0  0  0  0  0  0
  194.3980  176.9620  145.5390 C   0  0  0  0  0  2  0  0  0  0  0  0
  197.6270  173.6060  142.0580 C   0  0  0  0  0  1  0  0  0  0  0  0
  191.3360  174.0750  144.7190 O   0  0  0  0  0  0  0  0  0  0  0  0
  193.0220  174.9890  146.2400 C   0  0  2  0  0  3  0  0  0  0  0  0
  194.0670  171.5870  144.9870 C   0  0  0  0  0  3  0  0  0  0  0  0
  197.2410  175.7810  143.1760 C   0  0  0  0  0  2  0  0  0  0  0  0
  192.0670  172.8900  144.5920 C   0  0  0  0  0  0  0  0  0  0  0  0
  191.4680  171.7590  144.0330 C   0  0  0  0  0  3  0  0  0  0  0  0
  193.7250  176.2580  146.7120 C   0  0  0  0  0  2  0  0  0  0  0  0
  195.2460  176.0360  144.7070 C   0  0  2  0  0  3  0  0  0  0  0  0
  196.1670  176.7130  143.7220 C   0  0  0  0  0  2  0  0  0  0  0  0
  190.8410  176.1900  145.7620 C   0  0  0  0  0  2  0  0  0  0  0  0
  189.4850  174.8420  147.3730 C   0  0  0  0  0  1  0  0  0  0  0  0
  189.5540  175.4020  145.9630 C   0  0  1  0  0  3  0  0  0  0  0  0
  185.8690  177.6940  145.2990 C   0  0  2  0  0  3  0  0  0  0  0  0
  187.4770  176.5010  146.7910 C   0  0  0  0  0  2  0  0  0  0  0  0
  188.1820  175.6180  143.4050 O   0  0  0  0  0  0  0  0  0  0  0  0
  184.8300  178.7960  145.2820 C   0  0  0  0  0  1  0  0  0  0  0  0
  186.6640  177.7750  146.5910 C   0  0  0  0  0  2  0  0  0  0  0  0
  187.9310  176.4510  144.3160 C   0  0  0  0  0  0  0  0  0  0  0  0
  188.3730  176.2160  145.6680 N   0  0  0  0  0  0  0  0  0  0  0  0
  187.0140  177.9340  143.9150 S   0  0  0  0  0  0  0  0  0  0  0  0
  1 14  1  0  0  0  0
  2  5  1  6  0  0  0
  2 13  1  0  0  0  0
  3  7  1  1  0  0  0
  3 19  1  0  0  0  0
  3  2  1  0  0  0  0
  4 11  1  1  0  0  0
  4 15  1  0  0  0  0
  4  7  1  0  0  0  0
  6 17  1  0  0  0  0
  6  1  2  0  0  0  0
  8 21  1  1  0  0  0
  8 13  1  0  0  0  0
  9  1  1  0  0  0  0
 10 18  1  0  0  0  0
 12  8  1  0  0  0  0
 13 18  1  6  0  0  0
 14  5  2  0  0  0  0
 15 20  1  0  0  0  0
 16 12  1  0  0  0  0
 16  5  1  0  0  0  0
 17 16  2  0  0  0  0
 19 20  1  6  0  0  0
 19 10  1  0  0  0  0
 21 23  1  0  0  0  0
 23 22  1  1  0  0  0
 24 27  1  1  0  0  0
 24 28  1  0  0  0  0
 26 29  2  0  0  0  0
 28 25  1  0  0  0  0
 29 30  1  0  0  0  0
 30 23  1  0  0  0  0
 30 25  1  0  0  0  0
 31 29  1  0  0  0  0
 31 24  1  0  0  0  0
M  END
>  <MODEL>
2

>  <REMARK>
 VINA RESULT:      -8.0      2.228      3.420
  Name = 
  3 active torsions:
  status: ('A' for Active; 'I' for Inactive)
    1  A    between atoms: C_5  and  C_16
    2  A    between atoms: C_5  and  N_30
    3  A    between atoms: C_10  and  C_16
                            x       y       z     vdW  Elec       q    Type
                         _______ _______ _______ _____ _____    ______ ____

>  <TORSDO>
F 3

$$$$
=
 OpenBabel11112416493D

 31 35  0  0  1  0  0  0  0  0999 V2000
  187.4610  176.7400  140.9400 C   0  0  0  0  0  0  0  0  0  0  0  0
  188.7380  177.4740  144.4430 C   0  0  2  0  0  3  0  0  0  0  0  0
  187.5260  177.7420  145.3350 C   0  0  2  0  0  3  0  0  0  0  0  0
  185.0360  178.1320  145.5600 C   0  0  2  0  0  3  0  0  0  0  0  0
  188.3750  176.7440  143.1730 C   0  0  0  0  0  0  0  0  0  0  0  0
  187.6760  175.3990  140.8580 N   0  0  0  0  0  0  0  0  0  0  0  0
  186.2650  178.2530  144.6700 C   0  0  0  0  0  2  0  0  0  0  0  0
  189.5440  175.2580  145.3440 C   0  0  2  0  0  3  0  0  0  0  0  0
  186.7400  177.5930  139.5930 Cl  0  0  0  0  0  0  0  0  0  0  0  0
  188.9060  177.3600  147.3990 C   0  0  0  0  0  2  0  0  0  0  0  0
  183.8660  178.8290  144.9000 C   0  0  0  0  0  1  0  0  0  0  0  0
  189.2320  174.6550  144.0890 O   0  0  0  0  0  0  0  0  0  0  0  0
  189.8840  176.7500  145.1740 C   0  0  2  0  0  3  0  0  0  0  0  0
  187.8080  177.4360  142.0990 C   0  0  0  0  0  3  0  0  0  0  0  0
  185.3340  178.7900  146.8930 C   0  0  0  0  0  2  0  0  0  0  0  0
  188.6030  175.3630  143.0590 C   0  0  0  0  0  0  0  0  0  0  0  0
  188.2400  174.7040  141.8830 C   0  0  0  0  0  3  0  0  0  0  0  0
  190.1420  177.4390  146.5100 C   0  0  0  0  0  2  0  0  0  0  0  0
  187.6480  177.7910  146.6940 C   0  0  2  0  0  3  0  0  0  0  0  0
  186.4530  178.0220  147.5860 C   0  0  0  0  0  2  0  0  0  0  0  0
  190.6780  174.4930  146.0090 C   0  0  0  0  0  2  0  0  0  0  0  0
  193.0580  175.2000  146.3130 C   0  0  0  0  0  1  0  0  0  0  0  0
  191.9950  174.7960  145.3060 C   0  0  1  0  0  3  0  0  0  0  0  0
  193.6140  171.4070  143.0330 C   0  0  2  0  0  3  0  0  0  0  0  0
  193.4110  172.7540  145.1260 C   0  0  0  0  0  2  0  0  0  0  0  0
  192.1210  174.6660  142.4010 O   0  0  0  0  0  0  0  0  0  0  0  0
  193.9060  170.0120  142.5200 C   0  0  0  0  0  1  0  0  0  0  0  0
  193.3750  171.3500  144.5310 C   0  0  0  0  0  2  0  0  0  0  0  0
  192.2280  173.6070  143.0750 C   0  0  0  0  0  0  0  0  0  0  0  0
  192.4460  173.6610  144.4980 N   0  0  0  0  0  0  0  0  0  0  0  0
  192.1050  172.0270  142.2430 S   0  0  0  0  0  0  0  0  0  0  0  0
  1 14  1  0  0  0  0
  2  5  1  6  0  0  0
  2 13  1  0  0  0  0
  2  3  1  0  0  0  0
  3  7  1  6  0  0  0
  3 19  1  0  0  0  0
  4 11  1  6  0  0  0
  4 15  1  0  0  0  0
  6  1  2  0  0  0  0
  6 17  1  0  0  0  0
  7  4  1  0  0  0  0
  8 21  1  6  0  0  0
  9  1  1  0  0  0  0
 12  8  1  0  0  0  0
 13  8  1  0  0  0  0
 13 18  1  1  0  0  0
 14  5  2  0  0  0  0
 15 20  1  0  0  0  0
 16  5  1  0  0  0  0
 16 12  1  0  0  0  0
 17 16  2  0  0  0  0
 18 10  1  0  0  0  0
 19 10  1  1  0  0  0
 19 20  1  0  0  0  0
 23 21  1  0  0  0  0
 23 22  1  1  0  0  0
 24 27  1  6  0  0  0
 24 28  1  0  0  0  0
 26 29  2  0  0  0  0
 28 25  1  0  0  0  0
 29 30  1  0  0  0  0
 30 25  1  0  0  0  0
 30 23  1  0  0  0  0
 31 24  1  0  0  0  0
 31 29  1  0  0  0  0
M  END
>  <MODEL>
3

>  <REMARK>
 VINA RESULT:      -8.0      3.318      7.245
  Name = 
  3 active torsions:
  status: ('A' for Active; 'I' for Inactive)
    1  A    between atoms: C_5  and  C_16
    2  A    between atoms: C_5  and  N_30
    3  A    between atoms: C_10  and  C_16
                            x       y       z     vdW  Elec       q    Type
                         _______ _______ _______ _____ _____    ______ ____

>  <TORSDO>
F 3

$$$$
=
 OpenBabel11112416493D

 31 35  0  0  1  0  0  0  0  0999 V2000
  191.5220  172.9250  140.6770 C   0  0  0  0  0  0  0  0  0  0  0  0
  192.8430  174.3310  143.9510 C   0  0  2  0  0  3  0  0  0  0  0  0
  194.0500  175.2090  143.6280 C   0  0  2  0  0  3  0  0  0  0  0  0
  195.7480  176.0390  141.9450 C   0  0  2  0  0  3  0  0  0  0  0  0
  191.9670  174.0810  142.7480 C   0  0  0  0  0  0  0  0  0  0  0  0
  190.3800  173.6490  140.5230 N   0  0  0  0  0  0  0  0  0  0  0  0
  194.8200  174.9050  142.3600 C   0  0  0  0  0  2  0  0  0  0  0  0
  191.1470  176.0550  144.6770 C   0  0  2  0  0  3  0  0  0  0  0  0
  191.9770  171.7430  139.4700 Cl  0  0  0  0  0  0  0  0  0  0  0  0
  193.8940  176.3260  145.8730 C   0  0  0  0  0  2  0  0  0  0  0  0
  196.6090  175.5850  140.7850 C   0  0  0  0  0  1  0  0  0  0  0  0
  190.3450  175.7140  143.5460 O   0  0  0  0  0  0  0  0  0  0  0  0
  192.0030  174.8580  145.1300 C   0  0  2  0  0  3  0  0  0  0  0  0
  192.3350  173.1270  141.7940 C   0  0  0  0  0  3  0  0  0  0  0  0
  196.6300  176.4010  143.1230 C   0  0  0  0  0  2  0  0  0  0  0  0
  190.7750  174.8040  142.5760 C   0  0  0  0  0  0  0  0  0  0  0  0
  189.9920  174.5720  141.4440 C   0  0  0  0  0  3  0  0  0  0  0  0
  192.9310  175.2170  146.2860 C   0  0  0  0  0  2  0  0  0  0  0  0
  194.5860  176.0440  144.5660 C   0  0  2  0  0  3  0  0  0  0  0  0
  195.7580  176.9410  144.2490 C   0  0  0  0  0  2  0  0  0  0  0  0
  190.2560  176.5690  145.7980 C   0  0  0  0  0  2  0  0  0  0  0  0
  189.1250  174.8900  147.2650 C   0  0  0  0  0  1  0  0  0  0  0  0
  189.0450  175.6610  145.9590 C   0  0  1  0  0  3  0  0  0  0  0  0
  185.1770  177.7380  145.9220 C   0  0  2  0  0  3  0  0  0  0  0  0
  186.9970  176.5010  147.1030 C   0  0  0  0  0  2  0  0  0  0  0  0
  187.4130  176.0690  143.5840 O   0  0  0  0  0  0  0  0  0  0  0  0
  184.0750  178.7550  146.1340 C   0  0  0  0  0  1  0  0  0  0  0  0
  186.0910  177.7270  147.1350 C   0  0  0  0  0  2  0  0  0  0  0  0
  187.2030  176.7700  144.6090 C   0  0  0  0  0  0  0  0  0  0  0  0
  187.7920  176.4150  145.8750 N   0  0  0  0  0  0  0  0  0  0  0  0
  186.1610  178.2190  144.4770 S   0  0  0  0  0  0  0  0  0  0  0  0
  1 14  1  0  0  0  0
  2  5  1  6  0  0  0
  2 13  1  0  0  0  0
  3  7  1  1  0  0  0
  3  2  1  0  0  0  0
  3 19  1  0  0  0  0
  4 11  1  6  0  0  0
  4  7  1  0  0  0  0
  4 15  1  0  0  0  0
  6  1  2  0  0  0  0
  6 17  1  0  0  0  0
  8 13  1  0  0  0  0
  8 21  1  1  0  0  0
  9  1  1  0  0  0  0
 10 18  1  0  0  0  0
 12  8  1  0  0  0  0
 13 18  1  1  0  0  0
 14  5  2  0  0  0  0
 15 20  1  0  0  0  0
 16  5  1  0  0  0  0
 16 12  1  0  0  0  0
 17 16  2  0  0  0  0
 19 20  1  6  0  0  0
 19 10  1  0  0  0  0
 21 23  1  0  0  0  0
 23 22  1  1  0  0  0
 24 27  1  1  0  0  0
 24 28  1  0  0  0  0
 25 28  1  0  0  0  0
 26 29  2  0  0  0  0
 29 30  1  0  0  0  0
 30 23  1  0  0  0  0
 30 25  1  0  0  0  0
 31 29  1  0  0  0  0
 31 24  1  0  0  0  0
M  END
>  <MODEL>
4

>  <REMARK>
 VINA RESULT:      -7.6      2.336      3.285
  Name = 
  3 active torsions:
  status: ('A' for Active; 'I' for Inactive)
    1  A    between atoms: C_5  and  C_16
    2  A    between atoms: C_5  and  N_30
    3  A    between atoms: C_10  and  C_16
                            x       y       z     vdW  Elec       q    Type
                         _______ _______ _______ _____ _____    ______ ____

>  <TORSDO>
F 3

$$$$
=
 OpenBabel11112416493D

 31 35  0  0  1  0  0  0  0  0999 V2000
  186.1460  178.0680  147.3960 C   0  0  0  0  0  0  0  0  0  0  0  0
  188.3170  175.4700  145.6700 C   0  0  2  0  0  3  0  0  0  0  0  0
  188.2800  175.7540  144.1700 C   0  0  2  0  0  3  0  0  0  0  0  0
  187.2920  177.0300  142.2220 C   0  0  2  0  0  3  0  0  0  0  0  0
  187.8830  176.6560  146.4970 C   0  0  0  0  0  0  0  0  0  0  0  0
  187.0910  178.8520  147.9830 N   0  0  0  0  0  0  0  0  0  0  0  0
  187.0670  176.4750  143.6210 C   0  0  0  0  0  2  0  0  0  0  0  0
  190.6950  176.0930  146.2420 C   0  0  2  0  0  3  0  0  0  0  0  0
  184.4500  178.4610  147.5770 Cl  0  0  0  0  0  0  0  0  0  0  0  0
  190.3370  174.3570  143.8120 C   0  0  0  0  0  2  0  0  0  0  0  0
  185.9850  177.5680  141.6780 C   0  0  0  0  0  1  0  0  0  0  0  0
  190.2010  177.1560  147.0560 O   0  0  0  0  0  0  0  0  0  0  0  0
  189.6780  174.9400  146.1580 C   0  0  2  0  0  3  0  0  0  0  0  0
  186.5260  176.9550  146.6440 C   0  0  0  0  0  3  0  0  0  0  0  0
  187.7920  175.9110  141.3300 C   0  0  0  0  0  2  0  0  0  0  0  0
  188.8400  177.4690  147.1260 C   0  0  0  0  0  0  0  0  0  0  0  0
  188.4180  178.5740  147.8680 C   0  0  0  0  0  3  0  0  0  0  0  0
  190.1450  173.8250  145.2280 C   0  0  0  0  0  2  0  0  0  0  0  0
  189.1550  175.1450  143.3160 C   0  0  2  0  0  3  0  0  0  0  0  0
  189.1500  175.4420  141.8360 C   0  0  0  0  0  2  0  0  0  0  0  0
  192.0390  175.6230  146.7780 C   0  0  0  0  0  2  0  0  0  0  0  0
  194.3190  176.6360  146.6040 C   0  0  0  0  0  1  0  0  0  0  0  0
  193.1550  176.0420  145.8290 C   0  0  1  0  0  3  0  0  0  0  0  0
  194.6480  172.5900  143.5640 C   0  0  2  0  0  3  0  0  0  0  0  0
  193.8840  173.6650  145.6860 C   0  0  0  0  0  2  0  0  0  0  0  0
  194.5550  176.2180  143.2830 O   0  0  0  0  0  0  0  0  0  0  0  0
  194.7530  171.2550  142.8580 C   0  0  0  0  0  1  0  0  0  0  0  0
  193.7450  172.4480  144.7770 C   0  0  0  0  0  2  0  0  0  0  0  0
  194.0500  175.1210  143.6400 C   0  0  0  0  0  0  0  0  0  0  0  0
  193.6000  174.9240  144.9940 N   0  0  0  0  0  0  0  0  0  0  0  0
  193.8990  173.8000  142.4410 S   0  0  0  0  0  0  0  0  0  0  0  0
  1  9  1  0  0  0  0
  1  6  1  0  0  0  0
  2 13  1  0  0  0  0
  2  5  1  1  0  0  0
  3  7  1  6  0  0  0
  3  2  1  0  0  0  0
  4 11  1  6  0  0  0
  4  7  1  0  0  0  0
  5 14  1  0  0  0  0
  5 16  2  0  0  0  0
  8 21  1  1  0  0  0
  8 12  1  0  0  0  0
 10 18  1  0  0  0  0
 12 16  1  0  0  0  0
 13 18  1  6  0  0  0
 13  8  1  0  0  0  0
 14  1  2  0  0  0  0
 15 20  1  0  0  0  0
 15  4  1  0  0  0  0
 16 17  1  0  0  0  0
 17  6  2  0  0  0  0
 19 20  1  6  0  0  0
 19 10  1  0  0  0  0
 19  3  1  0  0  0  0
 23 22  1  1  0  0  0
 23 21  1  0  0  0  0
 24 27  1  6  0  0  0
 24 28  1  0  0  0  0
 26 29  2  0  0  0  0
 28 25  1  0  0  0  0
 29 30  1  0  0  0  0
 30 25  1  0  0  0  0
 30 23  1  0  0  0  0
 31 24  1  0  0  0  0
 31 29  1  0  0  0  0
M  END
>  <MODEL>
5

>  <REMARK>
 VINA RESULT:      -7.4      3.783      7.657
  Name = 
  3 active torsions:
  status: ('A' for Active; 'I' for Inactive)
    1  A    between atoms: C_5  and  C_16
    2  A    between atoms: C_5  and  N_30
    3  A    between atoms: C_10  and  C_16
                            x       y       z     vdW  Elec       q    Type
                         _______ _______ _______ _____ _____    ______ ____

>  <TORSDO>
F 3

$$$$
=
 OpenBabel11112416493D

 31 35  0  0  1  0  0  0  0  0999 V2000
  187.3280  177.3750  141.2230 C   0  0  0  0  0  0  0  0  0  0  0  0
  188.6920  174.1350  142.6660 C   0  0  2  0  0  3  0  0  0  0  0  0
  189.3140  173.3390  141.5200 C   0  0  2  0  0  3  0  0  0  0  0  0
  189.7070  173.0480  139.0370 C   0  0  2  0  0  3  0  0  0  0  0  0
  188.5230  175.5980  142.3340 C   0  0  0  0  0  0  0  0  0  0  0  0
  188.2340  178.2740  141.6940 N   0  0  0  0  0  0  0  0  0  0  0  0
  188.7900  173.5960  140.1220 C   0  0  0  0  0  2  0  0  0  0  0  0
  190.7390  174.7960  143.9870 C   0  0  2  0  0  3  0  0  0  0  0  0
  186.0040  177.9160  140.2140 Cl  0  0  0  0  0  0  0  0  0  0  0  0
  190.5900  171.9120  143.1460 C   0  0  0  0  0  2  0  0  0  0  0  0
  189.0270  173.1790  137.6910 C   0  0  0  0  0  1  0  0  0  0  0  0
  190.4730  176.1640  143.6800 O   0  0  0  0  0  0  0  0  0  0  0  0
  189.4420  173.9680  144.0010 C   0  0  2  0  0  3  0  0  0  0  0  0
  187.4560  176.0210  141.5350 C   0  0  0  0  0  3  0  0  0  0  0  0
  189.9830  171.5850  139.3270 C   0  0  0  0  0  2  0  0  0  0  0  0
  189.4360  176.5460  142.8230 C   0  0  0  0  0  0  0  0  0  0  0  0
  189.2730  177.8910  142.4850 C   0  0  0  0  0  3  0  0  0  0  0  0
  189.7050  172.4860  144.2470 C   0  0  0  0  0  2  0  0  0  0  0  0
  190.1010  172.2500  141.7630 C   0  0  2  0  0  3  0  0  0  0  0  0
  190.7470  171.4760  140.6400 C   0  0  0  0  0  2  0  0  0  0  0  0
  191.4810  174.7060  145.3130 C   0  0  0  0  0  2  0  0  0  0  0  0
  192.4360  176.4180  146.8650 C   0  0  0  0  0  1  0  0  0  0  0  0
  192.4510  175.8720  145.4480 C   0  0  1  0  0  3  0  0  0  0  0  0
  196.6220  174.8890  144.4950 C   0  0  2  0  0  3  0  0  0  0  0  0
  194.7900  175.3500  146.1280 C   0  0  0  0  0  2  0  0  0  0  0  0
  193.7270  176.4000  142.8850 O   0  0  0  0  0  0  0  0  0  0  0  0
  197.9400  174.1600  144.3340 C   0  0  0  0  0  1  0  0  0  0  0  0
  195.9360  174.4130  145.7630 C   0  0  0  0  0  2  0  0  0  0  0  0
  194.2480  175.5730  143.6800 C   0  0  0  0  0  0  0  0  0  0  0  0
  193.8080  175.4920  145.0500 N   0  0  0  0  0  0  0  0  0  0  0  0
  195.5480  174.4940  143.0890 S   0  0  0  0  0  0  0  0  0  0  0  0
  1 14  2  0  0  0  0
  1  6  1  0  0  0  0
  2  5  1  6  0  0  0
  2 13  1  0  0  0  0
  3  7  1  6  0  0  0
  3 19  1  0  0  0  0
  3  2  1  0  0  0  0
  4 11  1  6  0  0  0
  4 15  1  0  0  0  0
  4  7  1  0  0  0  0
  5 16  2  0  0  0  0
  6 17  2  0  0  0  0
  8 13  1  0  0  0  0
  8 21  1  1  0  0  0
  9  1  1  0  0  0  0
 10 18  1  0  0  0  0
 12  8  1  0  0  0  0
 13 18  1  6  0  0  0
 14  5  1  0  0  0  0
 15 20  1  0  0  0  0
 16 12  1  0  0  0  0
 17 16  1  0  0  0  0
 19 20  1  6  0  0  0
 19 10  1  0  0  0  0
 21 23  1  0  0  0  0
 23 22  1  1  0  0  0
 24 27  1  6  0  0  0
 24 28  1  0  0  0  0
 26 29  2  0  0  0  0
 28 25  1  0  0  0  0
 29 30  1  0  0  0  0
 30 23  1  0  0  0  0
 30 25  1  0  0  0  0
 31 29  1  0  0  0  0
 31 24  1  0  0  0  0
M  END
>  <MODEL>
6

>  <REMARK>
 VINA RESULT:      -7.3      3.630      7.520
  Name = 
  3 active torsions:
  status: ('A' for Active; 'I' for Inactive)
    1  A    between atoms: C_5  and  C_16
    2  A    between atoms: C_5  and  N_30
    3  A    between atoms: C_10  and  C_16
                            x       y       z     vdW  Elec       q    Type
                         _______ _______ _______ _____ _____    ______ ____

>  <TORSDO>
F 3

$$$$
=
 OpenBabel11112416493D

 31 35  0  0  1  0  0  0  0  0999 V2000
  188.1760  177.1510  146.8720 C   0  0  0  0  0  0  0  0  0  0  0  0
  189.5750  174.2530  144.8510 C   0  0  2  0  0  3  0  0  0  0  0  0
  189.3550  174.5670  143.3720 C   0  0  2  0  0  3  0  0  0  0  0  0
  188.3090  176.0290  141.5910 C   0  0  2  0  0  3  0  0  0  0  0  0
  189.4850  175.4800  145.7250 C   0  0  0  0  0  0  0  0  0  0  0  0
  189.3200  177.7510  147.2980 N   0  0  0  0  0  0  0  0  0  0  0  0
  188.2130  175.4950  143.0140 C   0  0  0  0  0  2  0  0  0  0  0  0
  192.0850  174.4520  145.0380 C   0  0  2  0  0  3  0  0  0  0  0  0
  186.6210  177.8230  147.3130 Cl  0  0  0  0  0  0  0  0  0  0  0  0
  191.0620  172.8470  142.7090 C   0  0  0  0  0  2  0  0  0  0  0  0
  187.0460  176.7920  141.2540 C   0  0  0  0  0  1  0  0  0  0  0  0
  191.9130  175.5680  145.9110 O   0  0  0  0  0  0  0  0  0  0  0  0
  190.8850  173.4910  145.1240 C   0  0  2  0  0  3  0  0  0  0  0  0
  188.2380  176.0040  146.0790 C   0  0  0  0  0  3  0  0  0  0  0  0
  188.4660  174.8580  140.6420 C   0  0  0  0  0  2  0  0  0  0  0  0
  190.6530  176.1070  146.1900 C   0  0  0  0  0  0  0  0  0  0  0  0
  190.5460  177.2540  146.9790 C   0  0  0  0  0  3  0  0  0  0  0  0
  191.0040  172.3300  144.1420 C   0  0  0  0  0  2  0  0  0  0  0  0
  189.9690  173.8340  142.3970 C   0  0  2  0  0  3  0  0  0  0  0  0
  189.7860  174.1560  140.9340 C   0  0  0  0  0  2  0  0  0  0  0  0
  193.3950  173.7500  145.3620 C   0  0  0  0  0  2  0  0  0  0  0  0
  195.8200  174.1940  145.7810 C   0  0  0  0  0  1  0  0  0  0  0  0
  194.5690  174.6730  145.0650 C   0  0  1  0  0  3  0  0  0  0  0  0
  195.4130  174.7650  140.7570 C   0  0  2  0  0  3  0  0  0  0  0  0
  194.8230  173.5480  142.8570 C   0  0  0  0  0  2  0  0  0  0  0  0
  196.0370  176.7940  143.7140 O   0  0  0  0  0  0  0  0  0  0  0  0
  195.2710  174.7090  139.2500 C   0  0  0  0  0  1  0  0  0  0  0  0
  194.4710  173.7540  141.3880 C   0  0  0  0  0  2  0  0  0  0  0  0
  195.3190  176.0080  143.0400 C   0  0  0  0  0  0  0  0  0  0  0  0
  194.8070  174.7960  143.6250 N   0  0  0  0  0  0  0  0  0  0  0  0
  194.9410  176.4160  141.3390 S   0  0  0  0  0  0  0  0  0  0  0  0
  1  6  1  0  0  0  0
  1  9  1  0  0  0  0
  2 13  1  0  0  0  0
  2  5  1  1  0  0  0
  3  7  1  6  0  0  0
  3  2  1  0  0  0  0
  4 11  1  6  0  0  0
  4  7  1  0  0  0  0
  5 14  1  0  0  0  0
  5 16  2  0  0  0  0
  8 13  1  0  0  0  0
  8 21  1  1  0  0  0
  8 12  1  0  0  0  0
 10 18  1  0  0  0  0
 12 16  1  0  0  0  0
 13 18  1  6  0  0  0
 14  1  2  0  0  0  0
 15 20  1  0  0  0  0
 15  4  1  0  0  0  0
 16 17  1  0  0  0  0
 17  6  2  0  0  0  0
 19 20  1  6  0  0  0
 19 10  1  0  0  0  0
 19  3  1  0  0  0  0
 23 21  1  0  0  0  0
 23 22  1  1  0  0  0
 24 27  1  6  0  0  0
 24 31  1  0  0  0  0
 24 28  1  0  0  0  0
 25 30  1  0  0  0  0
 28 25  1  0  0  0  0
 29 30  1  0  0  0  0
 29 26  2  0  0  0  0
 30 23  1  0  0  0  0
 31 29  1  0  0  0  0
M  END
>  <MODEL>
7

>  <REMARK>
 VINA RESULT:      -7.0      3.813      7.399
  Name = 
  3 active torsions:
  status: ('A' for Active; 'I' for Inactive)
    1  A    between atoms: C_5  and  C_16
    2  A    between atoms: C_5  and  N_30
    3  A    between atoms: C_10  and  C_16
                            x       y       z     vdW  Elec       q    Type
                         _______ _______ _______ _____ _____    ______ ____

>  <TORSDO>
F 3

$$$$
=
 OpenBabel11112416493D

 31 35  0  0  1  0  0  0  0  0999 V2000
  193.4890  172.1280  140.6290 C   0  0  0  0  0  0  0  0  0  0  0  0
  191.5930  173.1280  143.7670 C   0  0  2  0  0  3  0  0  0  0  0  0
  192.4760  174.0920  144.5580 C   0  0  2  0  0  3  0  0  0  0  0  0
  194.7210  175.2120  144.8870 C   0  0  2  0  0  3  0  0  0  0  0  0
  192.0120  173.0080  142.3220 C   0  0  0  0  0  0  0  0  0  0  0  0
  192.8040  172.8180  139.6780 N   0  0  0  0  0  0  0  0  0  0  0  0
  193.9740  173.9950  144.3590 C   0  0  0  0  0  2  0  0  0  0  0  0
  189.7520  174.6670  142.9800 C   0  0  2  0  0  3  0  0  0  0  0  0
  194.8610  171.1410  140.1750 Cl  0  0  0  0  0  0  0  0  0  0  0  0
  190.4970  174.8850  145.8860 C   0  0  0  0  0  2  0  0  0  0  0  0
  196.2120  174.9560  144.8190 C   0  0  0  0  0  1  0  0  0  0  0  0
  190.1730  174.4500  141.6330 O   0  0  0  0  0  0  0  0  0  0  0  0
  190.0920  173.4560  143.8680 C   0  0  2  0  0  3  0  0  0  0  0  0
  193.1040  172.2100  141.9690 C   0  0  0  0  0  3  0  0  0  0  0  0
  194.3100  175.4470  146.3280 C   0  0  0  0  0  2  0  0  0  0  0  0
  191.3100  173.6990  141.3200 C   0  0  0  0  0  0  0  0  0  0  0  0
  191.7300  173.5910  139.9930 C   0  0  0  0  0  3  0  0  0  0  0  0
  189.7260  173.6920  145.3300 C   0  0  0  0  0  2  0  0  0  0  0  0
  191.9730  174.8130  145.6030 C   0  0  2  0  0  3  0  0  0  0  0  0
  192.8280  175.7920  146.3710 C   0  0  0  0  0  2  0  0  0  0  0  0
  188.2650  174.9860  143.0040 C   0  0  0  0  0  2  0  0  0  0  0  0
  187.2760  176.7690  141.5560 C   0  0  0  0  0  1  0  0  0  0  0  0
  188.0510  176.4840  142.8320 C   0  0  1  0  0  3  0  0  0  0  0  0
  185.8600  178.3990  146.1200 C   0  0  2  0  0  3  0  0  0  0  0  0
  185.9810  177.4730  143.8030 C   0  0  0  0  0  2  0  0  0  0  0  0
  189.3020  177.9140  145.0360 O   0  0  0  0  0  0  0  0  0  0  0  0
  184.9050  178.6660  147.2640 C   0  0  0  0  0  1  0  0  0  0  0  0
  185.1880  177.4890  145.1060 C   0  0  0  0  0  2  0  0  0  0  0  0
  188.1090  177.5250  145.1460 C   0  0  0  0  0  0  0  0  0  0  0  0
  187.3760  177.0680  143.9930 N   0  0  0  0  0  0  0  0  0  0  0  0
  187.3280  177.5470  146.7570 S   0  0  0  0  0  0  0  0  0  0  0  0
  1 14  1  0  0  0  0
  2  5  1  6  0  0  0
  2 13  1  0  0  0  0
  2  3  1  0  0  0  0
  3  7  1  1  0  0  0
  3 19  1  0  0  0  0
  4 11  1  1  0  0  0
  4 15  1  0  0  0  0
  6 17  1  0  0  0  0
  6  1  2  0  0  0  0
  7  4  1  0  0  0  0
  8 21  1  6  0  0  0
  8 13  1  0  0  0  0
  9  1  1  0  0  0  0
 12  8  1  0  0  0  0
 13 18  1  1  0  0  0
 14  5  2  0  0  0  0
 15 20  1  0  0  0  0
 16 12  1  0  0  0  0
 16  5  1  0  0  0  0
 17 16  2  0  0  0  0
 18 10  1  0  0  0  0
 19 10  1  6  0  0  0
 19 20  1  0  0  0  0
 23 22  1  6  0  0  0
 23 21  1  0  0  0  0
 23 30  1  0  0  0  0
 24 31  1  0  0  0  0
 24 27  1  1  0  0  0
 25 30  1  0  0  0  0
 25 28  1  0  0  0  0
 26 29  2  0  0  0  0
 28 24  1  0  0  0  0
 29 31  1  0  0  0  0
 30 29  1  0  0  0  0
M  END
>  <MODEL>
8

>  <REMARK>
 VINA RESULT:      -7.0      2.146      2.950
  Name = 
  3 active torsions:
  status: ('A' for Active; 'I' for Inactive)
    1  A    between atoms: C_5  and  C_16
    2  A    between atoms: C_5  and  N_30
    3  A    between atoms: C_10  and  C_16
                            x       y       z     vdW  Elec       q    Type
                         _______ _______ _______ _____ _____    ______ ____

>  <TORSDO>
F 3

$$$$
=
 OpenBabel11112416493D

 31 35  0  0  1  0  0  0  0  0999 V2000
  194.2440  174.7120  145.4400 C   0  0  0  0  0  0  0  0  0  0  0  0
  191.9750  173.8020  142.5300 C   0  0  2  0  0  3  0  0  0  0  0  0
  191.7580  172.2900  142.5620 C   0  0  2  0  0  3  0  0  0  0  0  0
  192.3560  170.0280  143.5260 C   0  0  2  0  0  3  0  0  0  0  0  0
  192.4670  174.3480  143.8490 C   0  0  0  0  0  0  0  0  0  0  0  0
  193.3620  175.3140  146.2830 N   0  0  0  0  0  0  0  0  0  0  0  0
  192.8280  171.4420  143.2170 C   0  0  0  0  0  2  0  0  0  0  0  0
  189.6850  174.6510  143.1720 C   0  0  2  0  0  3  0  0  0  0  0  0
  195.9230  174.5460  145.9050 Cl  0  0  0  0  0  0  0  0  0  0  0  0
  189.7500  172.5030  141.0680 C   0  0  0  0  0  2  0  0  0  0  0  0
  193.5280  169.1990  144.0030 C   0  0  0  0  0  1  0  0  0  0  0  0
  190.2420  175.1930  144.3690 O   0  0  0  0  0  0  0  0  0  0  0  0
  190.7380  174.5850  142.0510 C   0  0  2  0  0  3  0  0  0  0  0  0
  193.8120  174.2190  144.2070 C   0  0  0  0  0  3  0  0  0  0  0  0
  191.7830  169.4200  142.2610 C   0  0  0  0  0  2  0  0  0  0  0  0
  191.5780  174.9880  144.7280 C   0  0  0  0  0  0  0  0  0  0  0  0
  192.0510  175.4650  145.9520 C   0  0  0  0  0  3  0  0  0  0  0  0
  190.1920  173.9340  140.7840 C   0  0  0  0  0  2  0  0  0  0  0  0
  190.7950  171.7000  141.7960 C   0  0  2  0  0  3  0  0  0  0  0  0
  190.5500  170.2110  141.8440 C   0  0  0  0  0  2  0  0  0  0  0  0
  188.4700  175.4690  142.7590 C   0  0  0  0  0  2  0  0  0  0  0  0
  188.7990  177.8330  142.0150 C   0  0  0  0  0  1  0  0  0  0  0  0
  188.6350  176.9130  143.2120 C   0  0  1  0  0  3  0  0  0  0  0  0
  185.2540  178.4510  145.5520 C   0  0  2  0  0  3  0  0  0  0  0  0
  186.4720  178.1350  143.3950 C   0  0  0  0  0  2  0  0  0  0  0  0
  188.6880  177.3680  146.0870 O   0  0  0  0  0  0  0  0  0  0  0  0
  183.8740  178.6650  146.1380 C   0  0  0  0  0  1  0  0  0  0  0  0
  185.1230  178.0330  144.0980 C   0  0  0  0  0  2  0  0  0  0  0  0
  187.5810  177.2910  145.4900 C   0  0  0  0  0  0  0  0  0  0  0  0
  187.5160  177.3440  144.0520 N   0  0  0  0  0  0  0  0  0  0  0  0
  186.0820  177.1140  146.4520 S   0  0  0  0  0  0  0  0  0  0  0  0
  1  9  1  0  0  0  0
  1  6  1  0  0  0  0
  2  3  1  0  0  0  0
  2  5  1  1  0  0  0
  3  7  1  6  0  0  0
  4 11  1  6  0  0  0
  5 14  1  0  0  0  0
  5 16  2  0  0  0  0
  7  4  1  0  0  0  0
  8 21  1  6  0  0  0
  8 12  1  0  0  0  0
 12 16  1  0  0  0  0
 13 18  1  6  0  0  0
 13  2  1  0  0  0  0
 13  8  1  0  0  0  0
 14  1  2  0  0  0  0
 15  4  1  0  0  0  0
 16 17  1  0  0  0  0
 17  6  2  0  0  0  0
 18 10  1  0  0  0  0
 19 10  1  1  0  0  0
 19 20  1  0  0  0  0
 19  3  1  0  0  0  0
 20 15  1  0  0  0  0
 21 23  1  0  0  0  0
 23 22  1  6  0  0  0
 23 30  1  0  0  0  0
 24 27  1  1  0  0  0
 24 31  1  0  0  0  0
 25 30  1  0  0  0  0
 25 28  1  0  0  0  0
 28 24  1  0  0  0  0
 29 26  2  0  0  0  0
 29 31  1  0  0  0  0
 30 29  1  0  0  0  0
M  END
>  <MODEL>
9

>  <REMARK>
 VINA RESULT:      -6.9      2.539      4.665
  Name = 
  3 active torsions:
  status: ('A' for Active; 'I' for Inactive)
    1  A    between atoms: C_5  and  C_16
    2  A    between atoms: C_5  and  N_30
    3  A    between atoms: C_10  and  C_16
                            x       y       z     vdW  Elec       q    Type
                         _______ _______ _______ _____ _____    ______ ____

>  <TORSDO>
F 3

$$$$
