=
 OpenBabel11112417273D

 37 42  0  0  1  0  0  0  0  0999 V2000
  189.9220  175.3740  145.1910 C   0  0  1  0  0  3  0  0  0  0  0  0
  188.0510  174.2120  142.4850 C   0  0  0  0  0  2  0  0  0  0  0  0
  192.2410  175.3650  146.3080 C   0  0  2  0  0  3  0  0  0  0  0  0
  190.0370  175.2480  143.6810 C   0  0  2  0  0  3  0  0  0  0  0  0
  191.1030  174.5330  145.6910 C   0  0  2  0  0  3  0  0  0  0  0  0
  188.7540  175.5140  142.8640 C   0  0  2  0  0  3  0  0  0  0  0  0
  191.7030  176.2410  147.4430 C   0  0  0  0  0  2  0  0  0  0  0  0
  191.5890  173.7570  144.4760 C   0  0  0  0  0  2  0  0  0  0  0  0
  188.6760  177.4810  145.4820 N   0  0  0  0  0  2  0  0  0  0  0  0
  190.3620  176.9200  147.1280 C   0  0  0  0  0  2  0  0  0  0  0  0
  189.4060  174.3750  140.4450 O   0  0  0  0  0  0  0  0  0  0  0  0
  188.5980  173.5220  141.2200 C   0  0  1  0  0  3  0  0  0  0  0  0
  189.9750  176.8430  145.6500 C   0  0  1  0  0  3  0  0  0  0  0  0
  190.5760  173.9140  143.4320 N   0  0  2  0  0  0  0  0  0  0  0  0
  187.7630  176.5370  143.4430 C   0  0  1  0  0  3  0  0  0  0  0  0
  190.0800  173.3050  141.0750 C   0  0  2  0  0  3  0  0  0  0  0  0
  191.1100  173.8940  142.0610 C   0  0  2  0  0  3  0  0  0  0  0  0
  188.4580  177.7380  144.0670 C   0  0  0  0  0  2  0  0  0  0  0  0
  187.2420  177.2070  141.1510 C   0  0  0  0  0  3  0  0  0  0  0  0
  186.7970  176.9980  142.3950 C   0  0  0  0  0  0  0  0  0  0  0  0
  185.3880  177.2830  142.7440 C   0  0  0  0  0  3  0  0  0  0  0  0
  183.3090  178.1720  142.2000 F   0  0  0  0  0  0  0  0  0  0  0  0
  185.0750  178.1940  140.5560 N   0  0  0  0  0  2  0  0  0  0  0  0
  184.5790  177.8560  141.8550 C   0  0  0  0  0  0  0  0  0  0  0  0
  186.3160  177.6180  140.0380 C   0  0  0  0  0  2  0  0  0  0  0  0
  192.4070  173.0660  141.9210 C   0  0  0  0  0  2  0  0  0  0  0  0
  193.4270  173.6850  141.0620 N   0  0  0  0  0  0  0  0  0  0  0  0
  194.6510  175.7240  140.5380 C   0  0  0  0  0  1  0  0  0  0  0  0
  193.4560  175.1300  141.2580 C   0  0  0  0  0  2  0  0  0  0  0  0
  194.7400  173.1500  141.3970 C   0  0  0  0  0  2  0  0  0  0  0  0
  194.8310  172.8830  142.8900 C   0  0  0  0  0  2  0  0  0  0  0  0
  196.2680  172.9890  143.3640 C   0  0  0  0  0  1  0  0  0  0  0  0
  192.8600  176.1830  145.3370 O   0  0  0  0  0  0  0  0  0  0  0  0
  194.2520  176.2530  145.5850 C   0  0  0  0  0  0  0  0  0  0  0  0
  195.0480  176.4520  144.2990 C   0  0  0  0  0  1  0  0  0  0  0  0
  194.5520  177.2740  146.4930 O   0  0  0  0  0  1  0  0  0  0  0  0
  194.6880  174.9350  146.1890 C   0  0  0  0  0  1  0  0  0  0  0  0
  1 13  1  0  0  0  0
  1  5  1  0  0  0  0
  2  6  1  0  0  0  0
  3  7  1  0  0  0  0
  4  1  1  0  0  0  0
  5  3  1  0  0  0  0
  6 15  1  0  0  0  0
  6  4  1  0  0  0  0
  8  5  1  0  0  0  0
  9 13  1  0  0  0  0
 10  7  1  0  0  0  0
 11 16  1  0  0  0  0
 11 12  1  0  0  0  0
 12  2  1  0  0  0  0
 13 10  1  0  0  0  0
 14  4  1  0  0  0  0
 14  8  1  0  0  0  0
 15 18  1  0  0  0  0
 16 12  1  0  0  0  0
 16 17  1  0  0  0  0
 17 14  1  0  0  0  0
 18  9  1  0  0  0  0
 19 20  2  0  0  0  0
 20 21  1  0  0  0  0
 20 15  1  0  0  0  0
 23 24  1  0  0  0  0
 24 22  1  0  0  0  0
 24 21  2  0  0  0  0
 25 23  1  0  0  0  0
 25 19  1  0  0  0  0
 26 17  1  0  0  0  0
 27 29  1  0  0  0  0
 27 30  1  0  0  0  0
 27 26  1  0  0  0  0
 28 29  1  0  0  0  0
 30 31  1  0  0  0  0
 31 32  1  0  0  0  0
 33 34  1  0  0  0  0
 33  3  1  0  0  0  0
 34 37  1  0  0  0  0
 34 36  1  0  0  0  0
 35 34  1  0  0  0  0
M  END
>  <MODEL>
1

>  <REMARK>
 VINA RESULT:      -7.0      0.000      0.000
  Name = 
  8 active torsions:
  status: ('A' for Active; 'I' for Inactive)
    1  A    between atoms: C_1  and  N_4
    2  A    between atoms: C_1  and  C_27
    3  A    between atoms: C_2  and  O_22
    4  A    between atoms: N_4  and  C_12
    5  A    between atoms: N_4  and  C_37
    6  A    between atoms: C_6  and  O_22
    7  A    between atoms: C_8  and  C_12
    8  A    between atoms: C_23  and  C_30
                            x       y       z     vdW  Elec       q    Type
                         _______ _______ _______ _____ _____    ______ ____

>  <TORSDO>
F 8

$$$$
=
 OpenBabel11112417273D

 37 42  0  0  1  0  0  0  0  0999 V2000
  191.7270  174.9930  144.9410 C   0  0  1  0  0  3  0  0  0  0  0  0
  188.6460  174.3810  143.4220 C   0  0  0  0  0  2  0  0  0  0  0  0
  194.2810  174.8970  144.6380 C   0  0  2  0  0  3  0  0  0  0  0  0
  191.0240  175.2490  143.6180 C   0  0  2  0  0  3  0  0  0  0  0  0
  192.9390  174.1530  144.5230 C   0  0  2  0  0  3  0  0  0  0  0  0
  189.5230  175.6030  143.6870 C   0  0  2  0  0  3  0  0  0  0  0  0
  194.4750  175.4250  146.0630 C   0  0  0  0  0  2  0  0  0  0  0  0
  192.6660  173.7370  143.0850 C   0  0  0  0  0  2  0  0  0  0  0  0
  190.9540  176.8610  146.3520 N   0  0  0  0  0  2  0  0  0  0  0  0
  193.2130  176.0520  146.6750 C   0  0  0  0  0  2  0  0  0  0  0  0
  188.7360  175.1420  141.0900 O   0  0  0  0  0  0  0  0  0  0  0  0
  188.4040  174.0650  141.9330 C   0  0  1  0  0  3  0  0  0  0  0  0
  192.1050  176.3070  145.6530 C   0  0  1  0  0  3  0  0  0  0  0  0
  191.2680  174.0620  142.8010 N   0  0  2  0  0  0  0  0  0  0  0  0
  189.0490  176.3730  144.9310 C   0  0  1  0  0  3  0  0  0  0  0  0
  189.5730  174.0080  140.9870 C   0  0  2  0  0  3  0  0  0  0  0  0
  191.0010  174.4190  141.3990 C   0  0  2  0  0  3  0  0  0  0  0  0
  190.0420  177.4370  145.3750 C   0  0  0  0  0  2  0  0  0  0  0  0
  187.5670  177.8650  143.6880 C   0  0  0  0  0  3  0  0  0  0  0  0
  187.7080  176.9970  144.6950 C   0  0  0  0  0  0  0  0  0  0  0  0
  186.5750  176.7100  145.6010 C   0  0  0  0  0  3  0  0  0  0  0  0
  184.4280  177.1740  146.3670 F   0  0  0  0  0  0  0  0  0  0  0  0
  185.3140  178.4130  144.4950 N   0  0  0  0  0  2  0  0  0  0  0  0
  185.4390  177.3960  145.4940 C   0  0  0  0  0  0  0  0  0  0  0  0
  186.2360  178.4880  143.3610 C   0  0  0  0  0  2  0  0  0  0  0  0
  191.9770  173.7550  140.4020 C   0  0  0  0  0  2  0  0  0  0  0  0
  191.4230  172.5850  139.7060 N   0  0  0  0  0  0  0  0  0  0  0  0
  191.0070  173.7560  137.6110 C   0  0  0  0  0  1  0  0  0  0  0  0
  191.7570  172.6250  138.2870 C   0  0  0  0  0  2  0  0  0  0  0  0
  191.9840  171.3660  140.2750 C   0  0  0  0  0  2  0  0  0  0  0  0
  190.8700  170.4100  140.6650 C   0  0  0  0  0  2  0  0  0  0  0  0
  190.4620  170.6280  142.1100 C   0  0  0  0  0  1  0  0  0  0  0  0
  194.3490  175.9730  143.7260 O   0  0  0  0  0  0  0  0  0  0  0  0
  195.5200  175.8630  142.9390 C   0  0  0  0  0  0  0  0  0  0  0  0
  196.5930  176.8550  143.3770 C   0  0  0  0  0  1  0  0  0  0  0  0
  196.0330  174.5620  142.9770 O   0  0  0  0  0  1  0  0  0  0  0  0
  195.1560  176.1910  141.5070 C   0  0  0  0  0  1  0  0  0  0  0  0
  1 13  1  0  0  0  0
  2  6  1  0  0  0  0
  3  7  1  0  0  0  0
  4  6  1  0  0  0  0
  4  1  1  0  0  0  0
  5  3  1  0  0  0  0
  5  1  1  0  0  0  0
  6 15  1  0  0  0  0
  7 10  1  0  0  0  0
  8  5  1  0  0  0  0
 11 12  1  0  0  0  0
 12  2  1  0  0  0  0
 13  9  1  0  0  0  0
 13 10  1  0  0  0  0
 14  8  1  0  0  0  0
 14  4  1  0  0  0  0
 15 18  1  0  0  0  0
 16 11  1  0  0  0  0
 16 17  1  0  0  0  0
 16 12  1  0  0  0  0
 17 14  1  0  0  0  0
 18  9  1  0  0  0  0
 19 20  2  0  0  0  0
 20 15  1  0  0  0  0
 20 21  1  0  0  0  0
 23 24  1  0  0  0  0
 24 21  2  0  0  0  0
 24 22  1  0  0  0  0
 25 19  1  0  0  0  0
 25 23  1  0  0  0  0
 26 17  1  0  0  0  0
 27 30  1  0  0  0  0
 27 26  1  0  0  0  0
 28 29  1  0  0  0  0
 29 27  1  0  0  0  0
 30 31  1  0  0  0  0
 31 32  1  0  0  0  0
 33  3  1  0  0  0  0
 34 36  1  0  0  0  0
 34 35  1  0  0  0  0
 34 33  1  0  0  0  0
 37 34  1  0  0  0  0
M  END
>  <MODEL>
2

>  <REMARK>
 VINA RESULT:      -7.0      2.114      3.057
  Name = 
  8 active torsions:
  status: ('A' for Active; 'I' for Inactive)
    1  A    between atoms: C_1  and  N_4
    2  A    between atoms: C_1  and  C_27
    3  A    between atoms: C_2  and  O_22
    4  A    between atoms: N_4  and  C_12
    5  A    between atoms: N_4  and  C_37
    6  A    between atoms: C_6  and  O_22
    7  A    between atoms: C_8  and  C_12
    8  A    between atoms: C_23  and  C_30
                            x       y       z     vdW  Elec       q    Type
                         _______ _______ _______ _____ _____    ______ ____

>  <TORSDO>
F 8

$$$$
=
 OpenBabel11112417273D

 37 42  0  0  1  0  0  0  0  0999 V2000
  191.7250  174.9880  144.9950 C   0  0  1  0  0  3  0  0  0  0  0  0
  188.6370  174.3820  143.4890 C   0  0  0  0  0  2  0  0  0  0  0  0
  194.2780  174.8970  144.6790 C   0  0  2  0  0  3  0  0  0  0  0  0
  191.0150  175.2520  143.6780 C   0  0  2  0  0  3  0  0  0  0  0  0
  192.9360  174.1520  144.5660 C   0  0  2  0  0  3  0  0  0  0  0  0
  189.5140  175.6030  143.7570 C   0  0  2  0  0  3  0  0  0  0  0  0
  194.4790  175.4160  146.1060 C   0  0  0  0  0  2  0  0  0  0  0  0
  192.6560  173.7450  143.1270 C   0  0  0  0  0  2  0  0  0  0  0  0
  190.9570  176.8460  146.4230 N   0  0  0  0  0  2  0  0  0  0  0  0
  193.2190  176.0380  146.7280 C   0  0  0  0  0  2  0  0  0  0  0  0
  188.7140  175.1590  141.1620 O   0  0  0  0  0  0  0  0  0  0  0  0
  188.3870  174.0760  141.9990 C   0  0  1  0  0  3  0  0  0  0  0  0
  192.1050  176.2970  145.7140 C   0  0  1  0  0  3  0  0  0  0  0  0
  191.2560  174.0710  142.8530 N   0  0  2  0  0  0  0  0  0  0  0  0
  189.0460  176.3650  145.0090 C   0  0  1  0  0  3  0  0  0  0  0  0
  189.5510  174.0260  141.0470 C   0  0  2  0  0  3  0  0  0  0  0  0
  190.9810  174.4360  141.4540 C   0  0  2  0  0  3  0  0  0  0  0  0
  190.0400  177.4270  145.4550 C   0  0  0  0  0  2  0  0  0  0  0  0
  186.7130  176.7180  145.6420 C   0  0  0  0  0  3  0  0  0  0  0  0
  187.7030  176.9890  144.7840 C   0  0  0  0  0  0  0  0  0  0  0  0
  187.4560  177.8360  143.5980 C   0  0  0  0  0  3  0  0  0  0  0  0
  185.9920  178.9670  142.1880 F   0  0  0  0  0  0  0  0  0  0  0  0
  185.1310  177.8640  144.1550 N   0  0  0  0  0  2  0  0  0  0  0  0
  186.2220  178.2450  143.3100 C   0  0  0  0  0  0  0  0  0  0  0  0
  185.3540  177.3520  145.5080 C   0  0  0  0  0  2  0  0  0  0  0  0
  191.9530  173.7800  140.4480 C   0  0  0  0  0  2  0  0  0  0  0  0
  191.3800  172.6440  139.7110 N   0  0  0  0  0  0  0  0  0  0  0  0
  190.6000  173.5110  137.5730 C   0  0  0  0  0  1  0  0  0  0  0  0
  191.6930  172.7420  138.2900 C   0  0  0  0  0  2  0  0  0  0  0  0
  191.9410  171.3990  140.2190 C   0  0  0  0  0  2  0  0  0  0  0  0
  190.8270  170.4580  140.6450 C   0  0  0  0  0  2  0  0  0  0  0  0
  190.5230  170.6280  142.1220 C   0  0  0  0  0  1  0  0  0  0  0  0
  194.3400  175.9790  143.7730 O   0  0  0  0  0  0  0  0  0  0  0  0
  195.5070  175.8750  142.9800 C   0  0  0  0  0  0  0  0  0  0  0  0
  196.5810  176.8660  143.4190 C   0  0  0  0  0  1  0  0  0  0  0  0
  196.0210  174.5750  143.0060 O   0  0  0  0  0  1  0  0  0  0  0  0
  195.1350  176.2130  141.5520 C   0  0  0  0  0  1  0  0  0  0  0  0
  1 13  1  0  0  0  0
  2  6  1  0  0  0  0
  3  7  1  0  0  0  0
  4  6  1  0  0  0  0
  4  1  1  0  0  0  0
  5  3  1  0  0  0  0
  5  1  1  0  0  0  0
  6 15  1  0  0  0  0
  7 10  1  0  0  0  0
  8  5  1  0  0  0  0
 11 12  1  0  0  0  0
 12  2  1  0  0  0  0
 13  9  1  0  0  0  0
 13 10  1  0  0  0  0
 14  8  1  0  0  0  0
 14  4  1  0  0  0  0
 15 18  1  0  0  0  0
 16 11  1  0  0  0  0
 16 17  1  0  0  0  0
 16 12  1  0  0  0  0
 17 14  1  0  0  0  0
 18  9  1  0  0  0  0
 20 15  1  0  0  0  0
 20 19  2  0  0  0  0
 21 20  1  0  0  0  0
 22 24  1  0  0  0  0
 23 25  1  0  0  0  0
 24 21  2  0  0  0  0
 24 23  1  0  0  0  0
 25 19  1  0  0  0  0
 26 17  1  0  0  0  0
 27 30  1  0  0  0  0
 27 26  1  0  0  0  0
 28 29  1  0  0  0  0
 29 27  1  0  0  0  0
 30 31  1  0  0  0  0
 31 32  1  0  0  0  0
 33  3  1  0  0  0  0
 34 36  1  0  0  0  0
 34 35  1  0  0  0  0
 34 33  1  0  0  0  0
 37 34  1  0  0  0  0
M  END
>  <MODEL>
3

>  <REMARK>
 VINA RESULT:      -6.9      2.024      3.093
  Name = 
  8 active torsions:
  status: ('A' for Active; 'I' for Inactive)
    1  A    between atoms: C_1  and  N_4
    2  A    between atoms: C_1  and  C_27
    3  A    between atoms: C_2  and  O_22
    4  A    between atoms: N_4  and  C_12
    5  A    between atoms: N_4  and  C_37
    6  A    between atoms: C_6  and  O_22
    7  A    between atoms: C_8  and  C_12
    8  A    between atoms: C_23  and  C_30
                            x       y       z     vdW  Elec       q    Type
                         _______ _______ _______ _____ _____    ______ ____

>  <TORSDO>
F 8

$$$$
=
 OpenBabel11112417273D

 37 42  0  0  1  0  0  0  0  0999 V2000
  189.4790  175.4400  145.2310 C   0  0  1  0  0  3  0  0  0  0  0  0
  187.6310  174.3370  142.4850 C   0  0  0  0  0  2  0  0  0  0  0  0
  191.7850  175.3940  146.3750 C   0  0  2  0  0  3  0  0  0  0  0  0
  189.6100  175.3380  143.7210 C   0  0  2  0  0  3  0  0  0  0  0  0
  190.6480  174.5820  145.7310 C   0  0  2  0  0  3  0  0  0  0  0  0
  188.3390  175.6270  142.8940 C   0  0  2  0  0  3  0  0  0  0  0  0
  191.2410  176.2560  147.5180 C   0  0  0  0  0  2  0  0  0  0  0  0
  191.1410  173.8220  144.5090 C   0  0  0  0  0  2  0  0  0  0  0  0
  188.2470  177.5520  145.5430 N   0  0  0  0  0  2  0  0  0  0  0  0
  189.9090  176.9510  147.1980 C   0  0  0  0  0  2  0  0  0  0  0  0
  189.0100  174.5230  140.4640 O   0  0  0  0  0  0  0  0  0  0  0  0
  188.1870  173.6640  141.2160 C   0  0  1  0  0  3  0  0  0  0  0  0
  189.5380  176.9010  145.7160 C   0  0  1  0  0  3  0  0  0  0  0  0
  190.1420  174.0040  143.4560 N   0  0  2  0  0  0  0  0  0  0  0  0
  187.3500  176.6490  143.4780 C   0  0  1  0  0  3  0  0  0  0  0  0
  189.6690  173.4380  141.0850 C   0  0  2  0  0  3  0  0  0  0  0  0
  190.6910  174.0020  142.0910 C   0  0  2  0  0  3  0  0  0  0  0  0
  188.0470  177.8340  144.1300 C   0  0  0  0  0  2  0  0  0  0  0  0
  186.8520  177.3240  141.1830 C   0  0  0  0  0  3  0  0  0  0  0  0
  186.3990  177.1350  142.4270 C   0  0  0  0  0  0  0  0  0  0  0  0
  184.9990  177.4630  142.7730 C   0  0  0  0  0  3  0  0  0  0  0  0
  182.9490  178.4130  142.2230 F   0  0  0  0  0  0  0  0  0  0  0  0
  184.7170  178.3740  140.5800 N   0  0  0  0  0  2  0  0  0  0  0  0
  184.2090  178.0570  141.8800 C   0  0  0  0  0  0  0  0  0  0  0  0
  185.9410  177.7590  140.0670 C   0  0  0  0  0  2  0  0  0  0  0  0
  191.9840  173.1660  141.9530 C   0  0  0  0  0  2  0  0  0  0  0  0
  191.7840  171.8470  141.3360 N   0  0  0  0  0  0  0  0  0  0  0  0
  192.9530  172.7330  139.3920 C   0  0  0  0  0  1  0  0  0  0  0  0
  192.8310  171.5710  140.3590 C   0  0  0  0  0  2  0  0  0  0  0  0
  191.8320  170.8140  142.3630 C   0  0  0  0  0  2  0  0  0  0  0  0
  193.1220  170.9260  143.1570 C   0  0  0  0  0  2  0  0  0  0  0  0
  193.1070  169.9700  144.3350 C   0  0  0  0  0  1  0  0  0  0  0  0
  192.4220  176.2230  145.4250 O   0  0  0  0  0  0  0  0  0  0  0  0
  193.8220  176.0180  145.4700 C   0  0  0  0  0  0  0  0  0  0  0  0
  194.5470  177.1960  146.1130 C   0  0  0  0  0  1  0  0  0  0  0  0
  194.1370  174.8370  146.1500 O   0  0  0  0  0  1  0  0  0  0  0  0
  194.3240  175.8980  144.0470 C   0  0  0  0  0  1  0  0  0  0  0  0
  1 13  1  0  0  0  0
  1  5  1  0  0  0  0
  2  6  1  0  0  0  0
  3  7  1  0  0  0  0
  4  1  1  0  0  0  0
  5  3  1  0  0  0  0
  6 15  1  0  0  0  0
  6  4  1  0  0  0  0
  8  5  1  0  0  0  0
  9 13  1  0  0  0  0
 10  7  1  0  0  0  0
 11 16  1  0  0  0  0
 11 12  1  0  0  0  0
 12  2  1  0  0  0  0
 13 10  1  0  0  0  0
 14  4  1  0  0  0  0
 14  8  1  0  0  0  0
 15 18  1  0  0  0  0
 16 12  1  0  0  0  0
 16 17  1  0  0  0  0
 17 14  1  0  0  0  0
 18  9  1  0  0  0  0
 19 20  2  0  0  0  0
 20 21  1  0  0  0  0
 20 15  1  0  0  0  0
 23 24  1  0  0  0  0
 24 22  1  0  0  0  0
 24 21  2  0  0  0  0
 25 23  1  0  0  0  0
 25 19  1  0  0  0  0
 26 17  1  0  0  0  0
 27 26  1  0  0  0  0
 27 30  1  0  0  0  0
 28 29  1  0  0  0  0
 29 27  1  0  0  0  0
 30 31  1  0  0  0  0
 31 32  1  0  0  0  0
 33 34  1  0  0  0  0
 33  3  1  0  0  0  0
 34 35  1  0  0  0  0
 34 36  1  0  0  0  0
 37 34  1  0  0  0  0
M  END
>  <MODEL>
4

>  <REMARK>
 VINA RESULT:      -6.9      1.344      1.613
  Name = 
  8 active torsions:
  status: ('A' for Active; 'I' for Inactive)
    1  A    between atoms: C_1  and  N_4
    2  A    between atoms: C_1  and  C_27
    3  A    between atoms: C_2  and  O_22
    4  A    between atoms: N_4  and  C_12
    5  A    between atoms: N_4  and  C_37
    6  A    between atoms: C_6  and  O_22
    7  A    between atoms: C_8  and  C_12
    8  A    between atoms: C_23  and  C_30
                            x       y       z     vdW  Elec       q    Type
                         _______ _______ _______ _____ _____    ______ ____

>  <TORSDO>
F 8

$$$$
=
 OpenBabel11112417273D

 37 42  0  0  1  0  0  0  0  0999 V2000
  189.9830  175.2940  145.1140 C   0  0  1  0  0  3  0  0  0  0  0  0
  188.0470  174.2140  142.4190 C   0  0  0  0  0  2  0  0  0  0  0  0
  192.3330  175.2690  146.1630 C   0  0  2  0  0  3  0  0  0  0  0  0
  190.0550  175.2270  143.5980 C   0  0  2  0  0  3  0  0  0  0  0  0
  191.1860  174.4490  145.5480 C   0  0  2  0  0  3  0  0  0  0  0  0
  188.7470  175.5090  142.8270 C   0  0  2  0  0  3  0  0  0  0  0  0
  191.8190  176.0970  147.3460 C   0  0  0  0  0  2  0  0  0  0  0  0
  191.6440  173.7250  144.2910 C   0  0  0  0  0  2  0  0  0  0  0  0
  188.7250  177.3750  145.5200 N   0  0  0  0  0  2  0  0  0  0  0  0
  190.4620  176.7720  147.0940 C   0  0  0  0  0  2  0  0  0  0  0  0
  189.3410  174.4690  140.3500 O   0  0  0  0  0  0  0  0  0  0  0  0
  188.5640  173.5790  141.1150 C   0  0  1  0  0  3  0  0  0  0  0  0
  190.0340  176.7460  145.6270 C   0  0  1  0  0  3  0  0  0  0  0  0
  190.6010  173.9090  143.2830 N   0  0  2  0  0  0  0  0  0  0  0  0
  187.7630  176.4990  143.4720 C   0  0  1  0  0  3  0  0  0  0  0  0
  190.0430  173.3840  140.9200 C   0  0  2  0  0  3  0  0  0  0  0  0
  191.0950  173.9470  141.8970 C   0  0  2  0  0  3  0  0  0  0  0  0
  188.4640  177.6830  144.1220 C   0  0  0  0  0  2  0  0  0  0  0  0
  187.1510  177.1690  141.2040 C   0  0  0  0  0  3  0  0  0  0  0  0
  186.7620  176.9880  142.4710 C   0  0  0  0  0  0  0  0  0  0  0  0
  185.3850  177.3280  142.8880 C   0  0  0  0  0  3  0  0  0  0  0  0
  183.3150  178.2920  142.4420 F   0  0  0  0  0  0  0  0  0  0  0  0
  184.9950  178.2340  140.7100 N   0  0  0  0  0  2  0  0  0  0  0  0
  184.5540  177.9250  142.0350 C   0  0  0  0  0  0  0  0  0  0  0  0
  186.1860  177.6070  140.1350 C   0  0  0  0  0  2  0  0  0  0  0  0
  192.3960  173.1390  141.6900 C   0  0  0  0  0  2  0  0  0  0  0  0
  193.5840  173.9670  141.4360 N   0  0  0  0  0  0  0  0  0  0  0  0
  195.0930  172.8970  143.0200 C   0  0  0  0  0  1  0  0  0  0  0  0
  194.8010  173.1730  141.5580 C   0  0  0  0  0  2  0  0  0  0  0  0
  193.5230  174.5070  140.0830 C   0  0  0  0  0  2  0  0  0  0  0  0
  194.8110  175.2420  139.7540 C   0  0  0  0  0  2  0  0  0  0  0  0
  195.2720  174.9050  138.3480 C   0  0  0  0  0  1  0  0  0  0  0  0
  192.9160  176.1300  145.2070 O   0  0  0  0  0  0  0  0  0  0  0  0
  194.3030  176.2570  145.4580 C   0  0  0  0  0  0  0  0  0  0  0  0
  195.1000  176.4140  144.1670 C   0  0  0  0  0  1  0  0  0  0  0  0
  194.5650  177.3340  146.3120 O   0  0  0  0  0  1  0  0  0  0  0  0
  194.7760  174.9870  146.1320 C   0  0  0  0  0  1  0  0  0  0  0  0
  1  5  1  0  0  0  0
  1 13  1  0  0  0  0
  2  6  1  0  0  0  0
  3  7  1  0  0  0  0
  4  1  1  0  0  0  0
  5  3  1  0  0  0  0
  6 15  1  0  0  0  0
  6  4  1  0  0  0  0
  8  5  1  0  0  0  0
  9 13  1  0  0  0  0
 10  7  1  0  0  0  0
 11 16  1  0  0  0  0
 11 12  1  0  0  0  0
 12  2  1  0  0  0  0
 13 10  1  0  0  0  0
 14  4  1  0  0  0  0
 14  8  1  0  0  0  0
 15 18  1  0  0  0  0
 16 12  1  0  0  0  0
 16 17  1  0  0  0  0
 17 14  1  0  0  0  0
 18  9  1  0  0  0  0
 19 20  2  0  0  0  0
 20 21  1  0  0  0  0
 20 15  1  0  0  0  0
 23 24  1  0  0  0  0
 24 22  1  0  0  0  0
 24 21  2  0  0  0  0
 25 23  1  0  0  0  0
 25 19  1  0  0  0  0
 26 17  1  0  0  0  0
 27 29  1  0  0  0  0
 27 26  1  0  0  0  0
 29 28  1  0  0  0  0
 30 27  1  0  0  0  0
 31 30  1  0  0  0  0
 32 31  1  0  0  0  0
 33 34  1  0  0  0  0
 33  3  1  0  0  0  0
 34 37  1  0  0  0  0
 34 36  1  0  0  0  0
 35 34  1  0  0  0  0
M  END
>  <MODEL>
5

>  <REMARK>
 VINA RESULT:      -6.8      0.510      1.389
  Name = 
  8 active torsions:
  status: ('A' for Active; 'I' for Inactive)
    1  A    between atoms: C_1  and  N_4
    2  A    between atoms: C_1  and  C_27
    3  A    between atoms: C_2  and  O_22
    4  A    between atoms: N_4  and  C_12
    5  A    between atoms: N_4  and  C_37
    6  A    between atoms: C_6  and  O_22
    7  A    between atoms: C_8  and  C_12
    8  A    between atoms: C_23  and  C_30
                            x       y       z     vdW  Elec       q    Type
                         _______ _______ _______ _____ _____    ______ ____

>  <TORSDO>
F 8

$$$$
=
 OpenBabel11112417273D

 37 42  0  0  1  0  0  0  0  0999 V2000
  190.8520  174.9580  144.4010 C   0  0  1  0  0  3  0  0  0  0  0  0
  188.2830  173.9700  142.2580 C   0  0  0  0  0  2  0  0  0  0  0  0
  193.3700  174.7630  144.9040 C   0  0  2  0  0  3  0  0  0  0  0  0
  190.5770  174.8420  142.9120 C   0  0  2  0  0  3  0  0  0  0  0  0
  192.0540  174.0270  144.5970 C   0  0  2  0  0  3  0  0  0  0  0  0
  189.1540  175.2110  142.4390 C   0  0  2  0  0  3  0  0  0  0  0  0
  193.1990  175.6650  146.1310 C   0  0  0  0  0  2  0  0  0  0  0  0
  192.1610  173.2300  143.3060 C   0  0  0  0  0  2  0  0  0  0  0  0
  189.8810  177.1500  144.9780 N   0  0  0  0  0  2  0  0  0  0  0  0
  191.8770  176.4460  146.1540 C   0  0  0  0  0  2  0  0  0  0  0  0
  189.0940  174.0540  139.9430 O   0  0  0  0  0  0  0  0  0  0  0  0
  188.4430  173.2560  140.9020 C   0  0  1  0  0  3  0  0  0  0  0  0
  191.1290  176.4150  144.8210 C   0  0  1  0  0  3  0  0  0  0  0  0
  190.9340  173.4740  142.5460 N   0  0  2  0  0  0  0  0  0  0  0  0
  188.4190  176.3000  143.2390 C   0  0  1  0  0  3  0  0  0  0  0  0
  189.8210  172.9300  140.3940 C   0  0  2  0  0  3  0  0  0  0  0  0
  191.1060  173.4290  141.0860 C   0  0  2  0  0  3  0  0  0  0  0  0
  189.3370  177.4390  143.6600 C   0  0  0  0  0  2  0  0  0  0  0  0
  187.4480  177.2100  141.1900 C   0  0  0  0  0  3  0  0  0  0  0  0
  187.2590  176.8440  142.4620 C   0  0  0  0  0  0  0  0  0  0  0  0
  185.9440  177.0350  143.1100 C   0  0  0  0  0  3  0  0  0  0  0  0
  183.7870  177.9050  143.0920 F   0  0  0  0  0  0  0  0  0  0  0  0
  185.1930  178.1810  141.1500 N   0  0  0  0  0  2  0  0  0  0  0  0
  184.9680  177.6770  142.4700 C   0  0  0  0  0  0  0  0  0  0  0  0
  186.3160  177.7140  140.3350 C   0  0  0  0  0  2  0  0  0  0  0  0
  192.2610  172.5080  140.6330 C   0  0  0  0  0  2  0  0  0  0  0  0
  191.8330  171.3630  139.8160 N   0  0  0  0  0  0  0  0  0  0  0  0
  191.9450  172.4190  137.6240 C   0  0  0  0  0  1  0  0  0  0  0  0
  192.5290  171.3570  138.5340 C   0  0  0  0  0  2  0  0  0  0  0  0
  192.1430  170.1210  140.5120 C   0  0  0  0  0  2  0  0  0  0  0  0
  191.0720  169.8190  141.5470 C   0  0  0  0  0  2  0  0  0  0  0  0
  190.8160  168.3270  141.6280 C   0  0  0  0  0  1  0  0  0  0  0  0
  193.7860  175.5430  143.8030 O   0  0  0  0  0  0  0  0  0  0  0  0
  195.1430  175.2700  143.5060 C   0  0  0  0  0  0  0  0  0  0  0  0
  196.0360  176.4770  143.7740 C   0  0  0  0  0  1  0  0  0  0  0  0
  195.6050  174.1670  144.2320 O   0  0  0  0  0  1  0  0  0  0  0  0
  195.2450  174.9480  142.0310 C   0  0  0  0  0  1  0  0  0  0  0  0
  1  5  1  0  0  0  0
  1 13  1  0  0  0  0
  2  6  1  0  0  0  0
  3  7  1  0  0  0  0
  4  1  1  0  0  0  0
  5  3  1  0  0  0  0
  6  4  1  0  0  0  0
  6 15  1  0  0  0  0
  7 10  1  0  0  0  0
  8  5  1  0  0  0  0
 11 16  1  0  0  0  0
 11 12  1  0  0  0  0
 12  2  1  0  0  0  0
 13  9  1  0  0  0  0
 13 10  1  0  0  0  0
 14  4  1  0  0  0  0
 14  8  1  0  0  0  0
 15 18  1  0  0  0  0
 16 12  1  0  0  0  0
 16 17  1  0  0  0  0
 17 14  1  0  0  0  0
 18  9  1  0  0  0  0
 19 20  2  0  0  0  0
 20 21  1  0  0  0  0
 20 15  1  0  0  0  0
 23 24  1  0  0  0  0
 24 22  1  0  0  0  0
 24 21  2  0  0  0  0
 25 23  1  0  0  0  0
 25 19  1  0  0  0  0
 26 17  1  0  0  0  0
 27 30  1  0  0  0  0
 27 26  1  0  0  0  0
 28 29  1  0  0  0  0
 29 27  1  0  0  0  0
 30 31  1  0  0  0  0
 31 32  1  0  0  0  0
 33  3  1  0  0  0  0
 34 35  1  0  0  0  0
 34 33  1  0  0  0  0
 34 36  1  0  0  0  0
 37 34  1  0  0  0  0
M  END
>  <MODEL>
6

>  <REMARK>
 VINA RESULT:      -6.3      1.918      2.508
  Name = 
  8 active torsions:
  status: ('A' for Active; 'I' for Inactive)
    1  A    between atoms: C_1  and  N_4
    2  A    between atoms: C_1  and  C_27
    3  A    between atoms: C_2  and  O_22
    4  A    between atoms: N_4  and  C_12
    5  A    between atoms: N_4  and  C_37
    6  A    between atoms: C_6  and  O_22
    7  A    between atoms: C_8  and  C_12
    8  A    between atoms: C_23  and  C_30
                            x       y       z     vdW  Elec       q    Type
                         _______ _______ _______ _____ _____    ______ ____

>  <TORSDO>
F 8

$$$$
=
 OpenBabel11112417273D

 37 42  0  0  1  0  0  0  0  0999 V2000
  192.7520  174.6630  144.8200 C   0  0  1  0  0  3  0  0  0  0  0  0
  189.5130  173.9820  143.7140 C   0  0  0  0  0  2  0  0  0  0  0  0
  195.2450  174.6400  144.1790 C   0  0  2  0  0  3  0  0  0  0  0  0
  191.8730  174.9130  143.6060 C   0  0  2  0  0  3  0  0  0  0  0  0
  193.9190  173.8610  144.2330 C   0  0  2  0  0  3  0  0  0  0  0  0
  190.3860  175.2240  143.8790 C   0  0  2  0  0  3  0  0  0  0  0  0
  195.6130  175.1580  145.5740 C   0  0  0  0  0  2  0  0  0  0  0  0
  193.4680  173.4540  142.8380 C   0  0  0  0  0  2  0  0  0  0  0  0
  192.1250  176.4920  146.3490 N   0  0  0  0  0  2  0  0  0  0  0  0
  194.4270  175.7430  146.3570 C   0  0  0  0  0  2  0  0  0  0  0  0
  189.2730  174.7710  141.4030 O   0  0  0  0  0  0  0  0  0  0  0  0
  189.0840  173.6760  142.2660 C   0  0  1  0  0  3  0  0  0  0  0  0
  193.1870  175.9780  145.4940 C   0  0  1  0  0  3  0  0  0  0  0  0
  192.0370  173.7430  142.7470 N   0  0  2  0  0  0  0  0  0  0  0  0
  190.0620  175.9670  145.1860 C   0  0  1  0  0  3  0  0  0  0  0  0
  190.1170  173.6620  141.1730 C   0  0  2  0  0  3  0  0  0  0  0  0
  191.5760  174.1080  141.3980 C   0  0  2  0  0  3  0  0  0  0  0  0
  191.0770  177.0540  145.5100 C   0  0  0  0  0  2  0  0  0  0  0  0
  188.3830  177.4170  144.1610 C   0  0  0  0  0  3  0  0  0  0  0  0
  188.6850  176.5560  145.1390 C   0  0  0  0  0  0  0  0  0  0  0  0
  187.6980  176.2440  146.1950 C   0  0  0  0  0  3  0  0  0  0  0  0
  185.6680  176.6570  147.2520 F   0  0  0  0  0  0  0  0  0  0  0  0
  186.2510  177.9110  145.2750 N   0  0  0  0  0  2  0  0  0  0  0  0
  186.5410  176.9020  146.2470 C   0  0  0  0  0  0  0  0  0  0  0  0
  187.0040  178.0050  144.0230 C   0  0  0  0  0  2  0  0  0  0  0  0
  192.4290  173.4830  140.2710 C   0  0  0  0  0  2  0  0  0  0  0  0
  192.5960  174.3470  139.0930 N   0  0  0  0  0  0  0  0  0  0  0  0
  194.8330  173.4210  139.3520 C   0  0  0  0  0  1  0  0  0  0  0  0
  194.0100  174.5780  138.8210 C   0  0  0  0  0  2  0  0  0  0  0  0
  192.0040  173.7040  137.9270 C   0  0  0  0  0  2  0  0  0  0  0  0
  192.0110  174.6570  136.7430 C   0  0  0  0  0  2  0  0  0  0  0  0
  191.3520  174.0140  135.5380 C   0  0  0  0  0  1  0  0  0  0  0  0
  195.1630  175.7280  143.2820 O   0  0  0  0  0  0  0  0  0  0  0  0
  196.3800  175.8570  142.5710 C   0  0  0  0  0  0  0  0  0  0  0  0
  196.1660  176.4650  141.1880 C   0  0  0  0  0  1  0  0  0  0  0  0
  197.3050  176.6220  143.2890 O   0  0  0  0  0  1  0  0  0  0  0  0
  196.9570  174.4720  142.3740 C   0  0  0  0  0  1  0  0  0  0  0  0
  1 13  1  0  0  0  0
  2  6  1  0  0  0  0
  3  5  1  0  0  0  0
  3  7  1  0  0  0  0
  4  6  1  0  0  0  0
  4  1  1  0  0  0  0
  5  1  1  0  0  0  0
  6 15  1  0  0  0  0
  7 10  1  0  0  0  0
  8  5  1  0  0  0  0
 11 12  1  0  0  0  0
 12  2  1  0  0  0  0
 13  9  1  0  0  0  0
 13 10  1  0  0  0  0
 14  8  1  0  0  0  0
 14  4  1  0  0  0  0
 15 18  1  0  0  0  0
 16 17  1  0  0  0  0
 16 11  1  0  0  0  0
 16 12  1  0  0  0  0
 17 14  1  0  0  0  0
 18  9  1  0  0  0  0
 19 20  2  0  0  0  0
 20 15  1  0  0  0  0
 20 21  1  0  0  0  0
 21 24  2  0  0  0  0
 23 24  1  0  0  0  0
 24 22  1  0  0  0  0
 25 19  1  0  0  0  0
 25 23  1  0  0  0  0
 26 17  1  0  0  0  0
 27 26  1  0  0  0  0
 29 27  1  0  0  0  0
 29 28  1  0  0  0  0
 30 27  1  0  0  0  0
 31 30  1  0  0  0  0
 32 31  1  0  0  0  0
 33  3  1  0  0  0  0
 34 33  1  0  0  0  0
 34 36  1  0  0  0  0
 35 34  1  0  0  0  0
 37 34  1  0  0  0  0
M  END
>  <MODEL>
7

>  <REMARK>
 VINA RESULT:      -6.3      2.464      3.765
  Name = 
  8 active torsions:
  status: ('A' for Active; 'I' for Inactive)
    1  A    between atoms: C_1  and  N_4
    2  A    between atoms: C_1  and  C_27
    3  A    between atoms: C_2  and  O_22
    4  A    between atoms: N_4  and  C_12
    5  A    between atoms: N_4  and  C_37
    6  A    between atoms: C_6  and  O_22
    7  A    between atoms: C_8  and  C_12
    8  A    between atoms: C_23  and  C_30
                            x       y       z     vdW  Elec       q    Type
                         _______ _______ _______ _____ _____    ______ ____

>  <TORSDO>
F 8

$$$$
=
 OpenBabel11112417273D

 37 42  0  0  1  0  0  0  0  0999 V2000
  193.0720  173.8800  145.2440 C   0  0  1  0  0  3  0  0  0  0  0  0
  189.7380  172.9200  144.8830 C   0  0  0  0  0  2  0  0  0  0  0  0
  195.4450  173.6650  144.2680 C   0  0  2  0  0  3  0  0  0  0  0  0
  192.0170  173.7720  144.1570 C   0  0  2  0  0  3  0  0  0  0  0  0
  194.1730  172.9390  144.7420 C   0  0  2  0  0  3  0  0  0  0  0  0
  190.5740  174.1540  144.5500 C   0  0  2  0  0  3  0  0  0  0  0  0
  195.9900  174.5630  145.3840 C   0  0  0  0  0  2  0  0  0  0  0  0
  193.5410  172.1470  143.6080 C   0  0  0  0  0  2  0  0  0  0  0  0
  192.6010  176.0760  146.2610 N   0  0  0  0  0  2  0  0  0  0  0  0
  194.9090  175.3530  146.1360 C   0  0  0  0  0  2  0  0  0  0  0  0
  189.1320  173.0080  142.5060 O   0  0  0  0  0  0  0  0  0  0  0  0
  189.1140  172.2100  143.6650 C   0  0  1  0  0  3  0  0  0  0  0  0
  193.5470  175.3330  145.4400 C   0  0  1  0  0  3  0  0  0  0  0  0
  192.1010  172.4030  143.6540 N   0  0  2  0  0  0  0  0  0  0  0  0
  190.4140  175.2440  145.6230 C   0  0  1  0  0  3  0  0  0  0  0  0
  189.9770  171.8770  142.4790 C   0  0  2  0  0  3  0  0  0  0  0  0
  191.4340  172.3640  142.3430 C   0  0  2  0  0  3  0  0  0  0  0  0
  191.4210  176.3740  145.4650 C   0  0  0  0  0  2  0  0  0  0  0  0
  188.5610  176.3780  144.5050 C   0  0  0  0  0  3  0  0  0  0  0  0
  189.0220  175.7990  145.6190 C   0  0  0  0  0  0  0  0  0  0  0  0
  188.1960  175.7690  146.8450 C   0  0  0  0  0  3  0  0  0  0  0  0
  186.3110  176.4380  148.0320 F   0  0  0  0  0  0  0  0  0  0  0  0
  186.5800  177.1400  145.7390 N   0  0  0  0  0  2  0  0  0  0  0  0
  187.0330  176.4160  146.8860 C   0  0  0  0  0  0  0  0  0  0  0  0
  187.1550  176.9080  144.4130 C   0  0  0  0  0  2  0  0  0  0  0  0
  192.1380  171.4360  141.3270 C   0  0  0  0  0  2  0  0  0  0  0  0
  191.5620  171.4780  139.9750 N   0  0  0  0  0  0  0  0  0  0  0  0
  190.4480  173.3470  138.8800 C   0  0  0  0  0  1  0  0  0  0  0  0
  191.7710  172.7880  139.3680 C   0  0  0  0  0  2  0  0  0  0  0  0
  192.2080  170.4760  139.1370 C   0  0  0  0  0  2  0  0  0  0  0  0
  191.2950  169.2760  138.9570 C   0  0  0  0  0  2  0  0  0  0  0  0
  190.0630  169.6580  138.1590 C   0  0  0  0  0  1  0  0  0  0  0  0
  195.1890  174.4470  143.1200 O   0  0  0  0  0  0  0  0  0  0  0  0
  196.1570  174.1710  142.1250 C   0  0  0  0  0  0  0  0  0  0  0  0
  197.1090  175.3450  141.9200 C   0  0  0  0  0  1  0  0  0  0  0  0
  196.8850  173.0180  142.4360 O   0  0  0  0  0  1  0  0  0  0  0  0
  195.4320  173.9400  140.8170 C   0  0  0  0  0  1  0  0  0  0  0  0
  1 13  1  0  0  0  0
  3  5  1  0  0  0  0
  3  7  1  0  0  0  0
  4  6  1  0  0  0  0
  4  1  1  0  0  0  0
  5  1  1  0  0  0  0
  6  2  1  0  0  0  0
  6 15  1  0  0  0  0
  7 10  1  0  0  0  0
  8 14  1  0  0  0  0
  8  5  1  0  0  0  0
 11 12  1  0  0  0  0
 12  2  1  0  0  0  0
 13 10  1  0  0  0  0
 13  9  1  0  0  0  0
 14  4  1  0  0  0  0
 16 11  1  0  0  0  0
 16 12  1  0  0  0  0
 17 16  1  0  0  0  0
 17 14  1  0  0  0  0
 18 15  1  0  0  0  0
 18  9  1  0  0  0  0
 19 20  2  0  0  0  0
 20 15  1  0  0  0  0
 20 21  1  0  0  0  0
 21 24  2  0  0  0  0
 23 24  1  0  0  0  0
 24 22  1  0  0  0  0
 25 19  1  0  0  0  0
 25 23  1  0  0  0  0
 26 17  1  0  0  0  0
 27 26  1  0  0  0  0
 28 29  1  0  0  0  0
 29 27  1  0  0  0  0
 30 27  1  0  0  0  0
 31 30  1  0  0  0  0
 32 31  1  0  0  0  0
 33  3  1  0  0  0  0
 34 36  1  0  0  0  0
 34 33  1  0  0  0  0
 35 34  1  0  0  0  0
 37 34  1  0  0  0  0
M  END
>  <MODEL>
8

>  <REMARK>
 VINA RESULT:      -6.2      2.739      4.341
  Name = 
  8 active torsions:
  status: ('A' for Active; 'I' for Inactive)
    1  A    between atoms: C_1  and  N_4
    2  A    between atoms: C_1  and  C_27
    3  A    between atoms: C_2  and  O_22
    4  A    between atoms: N_4  and  C_12
    5  A    between atoms: N_4  and  C_37
    6  A    between atoms: C_6  and  O_22
    7  A    between atoms: C_8  and  C_12
    8  A    between atoms: C_23  and  C_30
                            x       y       z     vdW  Elec       q    Type
                         _______ _______ _______ _____ _____    ______ ____

>  <TORSDO>
F 8

$$$$
=
 OpenBabel11112417273D

 37 42  0  0  1  0  0  0  0  0999 V2000
  190.8070  173.9130  142.4230 C   0  0  1  0  0  3  0  0  0  0  0  0
  193.3320  174.4190  144.7770 C   0  0  0  0  0  2  0  0  0  0  0  0
  188.3950  174.5180  141.7570 C   0  0  2  0  0  3  0  0  0  0  0  0
  191.4780  175.0570  143.1640 C   0  0  2  0  0  3  0  0  0  0  0  0
  189.3450  174.0340  142.8670 C   0  0  2  0  0  3  0  0  0  0  0  0
  193.0020  174.9440  143.3810 C   0  0  2  0  0  3  0  0  0  0  0  0
  188.4980  173.6020  140.5330 C   0  0  0  0  0  2  0  0  0  0  0  0
  189.3570  175.0040  144.0380 C   0  0  0  0  0  2  0  0  0  0  0  0
  192.3110  173.5320  140.5070 N   0  0  0  0  0  2  0  0  0  0  0  0
  189.9360  173.2010  140.1710 C   0  0  0  0  0  2  0  0  0  0  0  0
  193.4060  176.7980  145.3740 O   0  0  0  0  0  0  0  0  0  0  0  0
  193.3510  175.4890  145.8860 C   0  0  1  0  0  3  0  0  0  0  0  0
  190.9980  174.0270  140.8980 C   0  0  1  0  0  3  0  0  0  0  0  0
  190.7550  175.1930  144.4260 N   0  0  2  0  0  0  0  0  0  0  0  0
  193.8030  174.2000  142.2990 C   0  0  1  0  0  3  0  0  0  0  0  0
  192.1970  176.4450  146.0140 C   0  0  2  0  0  3  0  0  0  0  0  0
  191.0590  176.5230  144.9760 C   0  0  2  0  0  3  0  0  0  0  0  0
  193.3160  174.5110  140.8910 C   0  0  0  0  0  2  0  0  0  0  0  0
  196.1420  173.4960  142.3740 C   0  0  0  0  0  3  0  0  0  0  0  0
  195.2650  174.5060  142.4100 C   0  0  0  0  0  0  0  0  0  0  0  0
  195.7290  175.8940  142.6220 C   0  0  0  0  0  3  0  0  0  0  0  0
  197.4160  177.4050  143.1500 F   0  0  0  0  0  0  0  0  0  0  0  0
  197.9400  175.0550  142.9760 N   0  0  0  0  0  2  0  0  0  0  0  0
  197.0090  176.1390  142.8940 C   0  0  0  0  0  0  0  0  0  0  0  0
  197.6270  173.7360  142.4260 C   0  0  0  0  0  2  0  0  0  0  0  0
  189.8480  177.1890  145.6700 C   0  0  0  0  0  2  0  0  0  0  0  0
  189.6800  176.8100  147.0810 N   0  0  0  0  0  0  0  0  0  0  0  0
  190.8870  177.9170  148.8820 C   0  0  0  0  0  1  0  0  0  0  0  0
  189.7050  177.9910  147.9360 C   0  0  0  0  0  2  0  0  0  0  0  0
  188.3970  176.1430  147.2580 C   0  0  0  0  0  2  0  0  0  0  0  0
  187.3300  176.8290  146.4220 C   0  0  0  0  0  2  0  0  0  0  0  0
  185.9950  176.8120  147.1440 C   0  0  0  0  0  1  0  0  0  0  0  0
  188.6900  175.8450  141.3750 O   0  0  0  0  0  0  0  0  0  0  0  0
  187.5460  176.6600  141.5470 C   0  0  0  0  0  0  0  0  0  0  0  0
  186.9630  177.1090  140.2110 C   0  0  0  0  0  1  0  0  0  0  0  0
  186.5660  176.0020  142.2960 O   0  0  0  0  0  1  0  0  0  0  0  0
  187.9660  177.9050  142.3000 C   0  0  0  0  0  1  0  0  0  0  0  0
  1  5  1  0  0  0  0
  1  4  1  0  0  0  0
  2 12  1  0  0  0  0
  3  5  1  0  0  0  0
  4  6  1  0  0  0  0
  4 14  1  0  0  0  0
  5  8  1  0  0  0  0
  6  2  1  0  0  0  0
  7  3  1  0  0  0  0
  8 14  1  0  0  0  0
  9 18  1  0  0  0  0
  9 13  1  0  0  0  0
 10  7  1  0  0  0  0
 10 13  1  0  0  0  0
 11 12  1  0  0  0  0
 11 16  1  0  0  0  0
 12 16  1  0  0  0  0
 13  1  1  0  0  0  0
 14 17  1  0  0  0  0
 15 20  1  0  0  0  0
 15  6  1  0  0  0  0
 17 26  1  0  0  0  0
 17 16  1  0  0  0  0
 18 15  1  0  0  0  0
 19 20  2  0  0  0  0
 19 25  1  0  0  0  0
 20 21  1  0  0  0  0
 21 24  2  0  0  0  0
 24 23  1  0  0  0  0
 24 22  1  0  0  0  0
 25 23  1  0  0  0  0
 26 27  1  0  0  0  0
 27 30  1  0  0  0  0
 27 29  1  0  0  0  0
 29 28  1  0  0  0  0
 31 32  1  0  0  0  0
 31 30  1  0  0  0  0
 33 34  1  0  0  0  0
 33  3  1  0  0  0  0
 34 36  1  0  0  0  0
 34 37  1  0  0  0  0
 35 34  1  0  0  0  0
M  END
>  <MODEL>
9

>  <REMARK>
 VINA RESULT:      -6.0      3.024      8.096
  Name = 
  8 active torsions:
  status: ('A' for Active; 'I' for Inactive)
    1  A    between atoms: C_1  and  N_4
    2  A    between atoms: C_1  and  C_27
    3  A    between atoms: C_2  and  O_22
    4  A    between atoms: N_4  and  C_12
    5  A    between atoms: N_4  and  C_37
    6  A    between atoms: C_6  and  O_22
    7  A    between atoms: C_8  and  C_12
    8  A    between atoms: C_23  and  C_30
                            x       y       z     vdW  Elec       q    Type
                         _______ _______ _______ _____ _____    ______ ____

>  <TORSDO>
F 8

$$$$
