=
 OpenBabel11112417413D

 28 32  0  0  1  0  0  0  0  0999 V2000
  186.6390  178.2690  144.3870 C   0  0  0  0  0  0  0  0  0  0  0  0
  189.9670  178.0000  145.2120 F   0  0  0  0  0  0  0  0  0  0  0  0
  188.2120  173.5850  140.9790 O   0  0  0  0  0  0  0  0  0  0  0  0
  185.0420  177.5420  146.5800 C   0  0  0  0  0  3  0  0  0  0  0  0
  189.9380  174.1770  142.5730 C   0  0  2  0  0  3  0  0  0  0  0  0
  187.3940  178.7040  143.1690 C   0  0  0  0  0  2  0  0  0  0  0  0
  188.9080  177.7910  147.3100 C   0  0  0  0  0  1  0  0  0  0  0  0
  189.7610  177.1130  146.2550 C   0  0  1  0  0  0  0  0  0  0  0  0
  191.8800  175.7560  146.3390 C   0  0  0  0  0  0  0  0  0  0  0  0
  189.0710  175.8150  145.7580 C   0  0  2  0  0  3  0  0  0  0  0  0
  186.4010  177.4080  139.8170 O   0  0  0  0  0  1  0  0  0  0  0  0
  188.6760  176.1580  143.3690 C   0  0  1  0  0  3  0  0  0  0  0  0
  191.4080  174.8970  145.4920 N   0  0  0  0  0  0  0  0  0  0  0  0
  191.0490  176.7960  146.8550 N   0  0  0  0  0  2  0  0  0  0  0  0
  187.0310  177.3520  141.0600 C   0  0  2  0  0  3  0  0  0  0  0  0
  186.8830  177.0420  145.0630 C   0  0  0  0  0  0  0  0  0  0  0  0
  188.6410  174.3550  141.8790 C   0  0  0  0  0  0  0  0  0  0  0  0
  193.2140  175.6230  146.8110 N   0  0  0  0  0  1  0  0  0  0  0  0
  186.7190  176.0130  141.7160 C   0  0  0  0  0  2  0  0  0  0  0  0
  186.0640  176.6960  146.1480 C   0  0  0  0  0  3  0  0  0  0  0  0
  185.6120  179.1110  144.8360 C   0  0  0  0  0  3  0  0  0  0  0  0
  184.8200  178.7540  145.9280 C   0  0  0  0  0  3  0  0  0  0  0  0
  186.5400  178.5110  141.9190 C   0  0  0  0  0  2  0  0  0  0  0  0
  189.9940  175.3800  143.5240 C   0  0  1  0  0  3  0  0  0  0  0  0
  187.9170  175.4730  142.3450 N   0  0  0  0  0  0  0  0  0  0  0  0
  190.0380  174.9170  144.9740 C   0  0  2  0  0  3  0  0  0  0  0  0
  191.0780  174.2720  141.5780 C   0  0  0  0  0  1  0  0  0  0  0  0
  187.9760  176.0510  144.7150 C   0  0  2  0  0  3  0  0  0  0  0  0
  1 21  2  0  0  0  0
  1 16  1  0  0  0  0
  2  8  1  0  0  0  0
  3 17  2  0  0  0  0
  5 27  1  6  0  0  0
  5 24  1  0  0  0  0
  6  1  1  0  0  0  0
  8 14  1  0  0  0  0
  8  7  1  1  0  0  0
  9 18  1  0  0  0  0
  9 14  1  0  0  0  0
 10  8  1  0  0  0  0
 11 15  1  0  0  0  0
 12 24  1  0  0  0  0
 12 28  1  0  0  0  0
 13  9  2  0  0  0  0
 15 19  1  0  0  0  0
 15 23  1  0  0  0  0
 16 20  2  0  0  0  0
 17 25  1  0  0  0  0
 17  5  1  0  0  0  0
 19 25  1  0  0  0  0
 20  4  1  0  0  0  0
 21 22  1  0  0  0  0
 22  4  2  0  0  0  0
 23  6  1  0  0  0  0
 24 26  1  0  0  0  0
 25 12  1  0  0  0  0
 26 13  1  0  0  0  0
 26 10  1  0  0  0  0
 28 16  1  0  0  0  0
 28 10  1  0  0  0  0
M  END
>  <MODEL>
1

>  <REMARK>
 VINA RESULT:      -9.2      0.000      0.000
  Name = 
  0 active torsions:
  status: ('A' for Active; 'I' for Inactive)
                            x       y       z     vdW  Elec       q    Type
                         _______ _______ _______ _____ _____    ______ ____

>  <TORSDO>
F 0

$$$$
=
 OpenBabel11112417413D

 28 32  0  0  1  0  0  0  0  0999 V2000
  190.2550  175.5460  143.5660 C   0  0  0  0  0  0  0  0  0  0  0  0
  188.1700  177.7120  141.8940 F   0  0  0  0  0  0  0  0  0  0  0  0
  186.2940  176.7820  147.9030 O   0  0  0  0  0  0  0  0  0  0  0  0
  189.9740  172.9500  142.5320 C   0  0  0  0  0  3  0  0  0  0  0  0
  185.5690  177.6010  145.7410 C   0  0  2  0  0  3  0  0  0  0  0  0
  190.5030  176.8930  144.1700 C   0  0  0  0  0  2  0  0  0  0  0  0
  188.0720  175.7760  140.5490 C   0  0  0  0  0  1  0  0  0  0  0  0
  187.3050  176.7260  141.4490 C   0  0  1  0  0  0  0  0  0  0  0  0
  185.0850  177.8960  141.2550 C   0  0  0  0  0  0  0  0  0  0  0  0
  186.6790  175.9530  142.6390 C   0  0  2  0  0  3  0  0  0  0  0  0
  190.6540  177.2590  147.8770 O   0  0  0  0  0  1  0  0  0  0  0  0
  187.6860  176.9150  144.6480 C   0  0  1  0  0  3  0  0  0  0  0  0
  184.7900  177.6220  142.4870 N   0  0  0  0  0  0  0  0  0  0  0  0
  186.2590  177.3530  140.6530 N   0  0  0  0  0  2  0  0  0  0  0  0
  190.0180  177.1420  146.6420 C   0  0  2  0  0  3  0  0  0  0  0  0
  188.9590  174.9770  143.4270 C   0  0  0  0  0  0  0  0  0  0  0  0
  186.5230  176.9650  146.6770 C   0  0  0  0  0  0  0  0  0  0  0  0
  184.1970  178.6860  140.4750 N   0  0  0  0  0  1  0  0  0  0  0  0
  188.9140  176.0980  146.7490 C   0  0  0  0  0  2  0  0  0  0  0  0
  188.8460  173.6740  142.9200 C   0  0  0  0  0  3  0  0  0  0  0  0
  191.3780  174.8080  143.1670 C   0  0  0  0  0  3  0  0  0  0  0  0
  191.2410  173.5200  142.6500 C   0  0  0  0  0  3  0  0  0  0  0  0
  191.0460  176.7470  145.5880 C   0  0  0  0  0  2  0  0  0  0  0  0
  186.3370  177.6160  144.4130 C   0  0  1  0  0  3  0  0  0  0  0  0
  187.7210  176.5590  146.0510 N   0  0  0  0  0  0  0  0  0  0  0  0
  185.6120  176.7840  143.3640 C   0  0  2  0  0  3  0  0  0  0  0  0
  185.2900  179.0290  146.1720 C   0  0  0  0  0  1  0  0  0  0  0  0
  187.6560  175.6660  143.7810 C   0  0  2  0  0  3  0  0  0  0  0  0
  1  6  1  0  0  0  0
  4 22  2  0  0  0  0
  4 20  1  0  0  0  0
  5 27  1  1  0  0  0
  5 17  1  0  0  0  0
  6 23  1  0  0  0  0
  8  7  1  6  0  0  0
  8  2  1  0  0  0  0
  8 10  1  0  0  0  0
  9 13  2  0  0  0  0
 10 26  1  0  0  0  0
 10 28  1  0  0  0  0
 12 25  1  0  0  0  0
 13 26  1  0  0  0  0
 14  9  1  0  0  0  0
 14  8  1  0  0  0  0
 15 19  1  0  0  0  0
 15 11  1  0  0  0  0
 16  1  1  0  0  0  0
 16 28  1  0  0  0  0
 17  3  2  0  0  0  0
 18  9  1  0  0  0  0
 20 16  2  0  0  0  0
 21  1  2  0  0  0  0
 22 21  1  0  0  0  0
 23 15  1  0  0  0  0
 24 12  1  0  0  0  0
 24  5  1  0  0  0  0
 25 17  1  0  0  0  0
 25 19  1  0  0  0  0
 26 24  1  0  0  0  0
 28 12  1  0  0  0  0
M  END
>  <MODEL>
2

>  <REMARK>
 VINA RESULT:      -9.0      2.927      6.483
  Name = 
  0 active torsions:
  status: ('A' for Active; 'I' for Inactive)
                            x       y       z     vdW  Elec       q    Type
                         _______ _______ _______ _____ _____    ______ ____

>  <TORSDO>
F 0

$$$$
=
 OpenBabel11112417413D

 28 32  0  0  1  0  0  0  0  0999 V2000
  187.6520  177.6770  144.9250 C   0  0  0  0  0  0  0  0  0  0  0  0
  191.0740  177.4600  145.1980 F   0  0  0  0  0  0  0  0  0  0  0  0
  188.7170  172.9910  141.3300 O   0  0  0  0  0  0  0  0  0  0  0  0
  186.4460  176.9440  147.3540 C   0  0  0  0  0  3  0  0  0  0  0  0
  190.6710  173.6180  142.6180 C   0  0  2  0  0  3  0  0  0  0  0  0
  188.1920  178.1140  143.5990 C   0  0  0  0  0  2  0  0  0  0  0  0
  190.3750  177.2520  147.4410 C   0  0  0  0  0  1  0  0  0  0  0  0
  191.0540  176.5780  146.2650 C   0  0  1  0  0  0  0  0  0  0  0  0
  193.1780  175.2510  146.0080 C   0  0  0  0  0  0  0  0  0  0  0  0
  190.3110  175.2670  145.8930 C   0  0  2  0  0  3  0  0  0  0  0  0
  186.6840  176.7800  140.4610 O   0  0  0  0  0  1  0  0  0  0  0  0
  189.5270  175.5880  143.5990 C   0  0  1  0  0  3  0  0  0  0  0  0
  192.5870  174.3790  145.2530 N   0  0  0  0  0  0  0  0  0  0  0  0
  192.4280  176.2830  146.6470 N   0  0  0  0  0  2  0  0  0  0  0  0
  187.5100  176.7420  141.5840 C   0  0  2  0  0  3  0  0  0  0  0  0
  188.0220  176.4590  145.5590 C   0  0  0  0  0  0  0  0  0  0  0  0
  189.2760  173.7740  142.1440 C   0  0  0  0  0  0  0  0  0  0  0  0
  194.5730  175.1400  146.2570 N   0  0  0  0  0  1  0  0  0  0  0  0
  187.3290  175.4040  142.2880 C   0  0  0  0  0  2  0  0  0  0  0  0
  187.3960  176.1090  146.7640 C   0  0  0  0  0  3  0  0  0  0  0  0
  186.7000  178.5080  145.5330 C   0  0  0  0  0  3  0  0  0  0  0  0
  186.1030  178.1480  146.7400 C   0  0  0  0  0  3  0  0  0  0  0  0
  187.1490  177.9000  142.5060 C   0  0  0  0  0  2  0  0  0  0  0  0
  190.8640  174.8290  143.5410 C   0  0  1  0  0  3  0  0  0  0  0  0
  188.6210  174.8850  142.7160 N   0  0  0  0  0  0  0  0  0  0  0  0
  191.1510  174.3770  144.9660 C   0  0  2  0  0  3  0  0  0  0  0  0
  191.6320  173.7220  141.4490 C   0  0  0  0  0  1  0  0  0  0  0  0
  189.0580  175.4800  145.0420 C   0  0  2  0  0  3  0  0  0  0  0  0
  1 21  2  0  0  0  0
  1 16  1  0  0  0  0
  2  8  1  0  0  0  0
  3 17  2  0  0  0  0
  5 27  1  6  0  0  0
  5 24  1  0  0  0  0
  6  1  1  0  0  0  0
  8 14  1  0  0  0  0
  8  7  1  1  0  0  0
  9 18  1  0  0  0  0
  9 14  1  0  0  0  0
 10  8  1  0  0  0  0
 11 15  1  0  0  0  0
 12 28  1  0  0  0  0
 13  9  2  0  0  0  0
 15 19  1  0  0  0  0
 15 23  1  0  0  0  0
 16 20  2  0  0  0  0
 17  5  1  0  0  0  0
 17 25  1  0  0  0  0
 19 25  1  0  0  0  0
 20  4  1  0  0  0  0
 21 22  1  0  0  0  0
 22  4  2  0  0  0  0
 23  6  1  0  0  0  0
 24 12  1  0  0  0  0
 24 26  1  0  0  0  0
 25 12  1  0  0  0  0
 26 13  1  0  0  0  0
 26 10  1  0  0  0  0
 28 16  1  0  0  0  0
 28 10  1  0  0  0  0
M  END
>  <MODEL>
3

>  <REMARK>
 VINA RESULT:      -8.7      1.123      1.257
  Name = 
  0 active torsions:
  status: ('A' for Active; 'I' for Inactive)
                            x       y       z     vdW  Elec       q    Type
                         _______ _______ _______ _____ _____    ______ ____

>  <TORSDO>
F 0

$$$$
=
 OpenBabel11112417413D

 28 32  0  0  1  0  0  0  0  0999 V2000
  186.2230  176.9540  143.8130 C   0  0  0  0  0  0  0  0  0  0  0  0
  188.4330  174.3350  143.5160 F   0  0  0  0  0  0  0  0  0  0  0  0
  190.0660  178.2910  148.2250 O   0  0  0  0  0  0  0  0  0  0  0  0
  186.4580  178.6660  141.5990 C   0  0  0  0  0  3  0  0  0  0  0  0
  190.8920  176.5150  146.7990 C   0  0  2  0  0  3  0  0  0  0  0  0
  185.9960  176.0950  145.0180 C   0  0  0  0  0  2  0  0  0  0  0  0
  188.5170  175.3120  141.3710 C   0  0  0  0  0  1  0  0  0  0  0  0
  189.2810  174.9920  142.6410 C   0  0  1  0  0  0  0  0  0  0  0  0
  191.5430  173.9900  143.1050 C   0  0  0  0  0  0  0  0  0  0  0  0
  189.8410  176.2920  143.2750 C   0  0  2  0  0  3  0  0  0  0  0  0
  185.7270  177.6710  148.3860 O   0  0  0  0  0  1  0  0  0  0  0  0
  188.7940  176.4490  145.4790 C   0  0  1  0  0  3  0  0  0  0  0  0
  191.7860  174.8680  144.0260 N   0  0  0  0  0  0  0  0  0  0  0  0
  190.3740  174.0940  142.2940 N   0  0  0  0  0  2  0  0  0  0  0  0
  186.4020  177.1690  147.2750 C   0  0  2  0  0  3  0  0  0  0  0  0
  187.5040  177.4300  143.4190 C   0  0  0  0  0  0  0  0  0  0  0  0
  189.8860  177.4970  147.2630 C   0  0  0  0  0  0  0  0  0  0  0  0
  192.4830  172.9530  142.8530 N   0  0  0  0  0  1  0  0  0  0  0  0
  187.4680  178.1690  146.8470 C   0  0  0  0  0  2  0  0  0  0  0  0
  187.5930  178.2930  142.3180 C   0  0  0  0  0  3  0  0  0  0  0  0
  185.0920  177.3320  143.0760 C   0  0  0  0  0  3  0  0  0  0  0  0
  185.2060  178.1790  141.9740 C   0  0  0  0  0  3  0  0  0  0  0  0
  185.4000  176.9220  146.1530 C   0  0  0  0  0  2  0  0  0  0  0  0
  190.1720  175.7880  145.6550 C   0  0  1  0  0  3  0  0  0  0  0  0
  188.6990  177.4710  146.5000 N   0  0  0  0  0  0  0  0  0  0  0  0
  190.9070  175.9980  144.3380 C   0  0  2  0  0  3  0  0  0  0  0  0
  191.2010  175.5230  147.9050 C   0  0  0  0  0  1  0  0  0  0  0  0
  188.8150  177.0790  144.0950 C   0  0  2  0  0  3  0  0  0  0  0  0
  1  6  1  0  0  0  0
  4 22  2  0  0  0  0
  4 20  1  0  0  0  0
  5 17  1  0  0  0  0
  5 27  1  1  0  0  0
  6 23  1  0  0  0  0
  8  7  1  6  0  0  0
  8 10  1  0  0  0  0
  8  2  1  0  0  0  0
  9 13  2  0  0  0  0
 10 28  1  0  0  0  0
 10 26  1  0  0  0  0
 12 24  1  0  0  0  0
 12 25  1  0  0  0  0
 13 26  1  0  0  0  0
 14  8  1  0  0  0  0
 14  9  1  0  0  0  0
 15 11  1  0  0  0  0
 16  1  1  0  0  0  0
 16 28  1  0  0  0  0
 17  3  2  0  0  0  0
 18  9  1  0  0  0  0
 19 15  1  0  0  0  0
 20 16  2  0  0  0  0
 21  1  2  0  0  0  0
 22 21  1  0  0  0  0
 23 15  1  0  0  0  0
 24  5  1  0  0  0  0
 25 19  1  0  0  0  0
 25 17  1  0  0  0  0
 26 24  1  0  0  0  0
 28 12  1  0  0  0  0
M  END
>  <MODEL>
4

>  <REMARK>
 VINA RESULT:      -8.1      2.889      4.732
  Name = 
  0 active torsions:
  status: ('A' for Active; 'I' for Inactive)
                            x       y       z     vdW  Elec       q    Type
                         _______ _______ _______ _____ _____    ______ ____

>  <TORSDO>
F 0

$$$$
=
 OpenBabel11112417413D

 28 32  0  0  1  0  0  0  0  0999 V2000
  190.1920  174.4740  144.1000 C   0  0  0  0  0  0  0  0  0  0  0  0
  187.6230  175.6850  146.0420 F   0  0  0  0  0  0  0  0  0  0  0  0
  186.9370  177.3050  139.9270 O   0  0  0  0  0  0  0  0  0  0  0  0
  192.5810  175.8140  144.7210 C   0  0  0  0  0  3  0  0  0  0  0  0
  186.1920  177.8220  142.1730 C   0  0  2  0  0  3  0  0  0  0  0  0
  188.9830  173.6800  143.7130 C   0  0  0  0  0  2  0  0  0  0  0  0
  189.5240  176.6260  147.0740 C   0  0  0  0  0  1  0  0  0  0  0  0
  188.2390  176.8950  146.3150 C   0  0  1  0  0  0  0  0  0  0  0  0
  186.3290  178.5000  146.6420 C   0  0  0  0  0  0  0  0  0  0  0  0
  188.5400  177.6770  145.0100 C   0  0  2  0  0  3  0  0  0  0  0  0
  188.2190  173.1140  140.1080 O   0  0  0  0  0  1  0  0  0  0  0  0
  187.7940  176.2250  143.1890 C   0  0  1  0  0  3  0  0  0  0  0  0
  186.2990  178.7820  145.3770 N   0  0  0  0  0  0  0  0  0  0  0  0
  187.3640  177.6760  147.1760 N   0  0  0  0  0  2  0  0  0  0  0  0
  188.2390  173.8400  141.2990 C   0  0  2  0  0  3  0  0  0  0  0  0
  190.2190  175.8960  144.1260 C   0  0  0  0  0  0  0  0  0  0  0  0
  187.0230  177.1180  141.1700 C   0  0  0  0  0  0  0  0  0  0  0  0
  185.3640  179.0720  147.5150 N   0  0  0  0  0  1  0  0  0  0  0  0
  188.7410  175.2490  141.0140 C   0  0  0  0  0  2  0  0  0  0  0  0
  191.4270  176.5410  144.4270 C   0  0  0  0  0  3  0  0  0  0  0  0
  191.3570  173.7570  144.4040 C   0  0  0  0  0  3  0  0  0  0  0  0
  192.5440  174.4200  144.7160 C   0  0  0  0  0  3  0  0  0  0  0  0
  189.1420  173.1280  142.3000 C   0  0  0  0  0  2  0  0  0  0  0  0
  186.6570  177.2130  143.5030 C   0  0  1  0  0  3  0  0  0  0  0  0
  187.9460  176.2220  141.7500 N   0  0  0  0  0  0  0  0  0  0  0  0
  187.2680  178.2820  144.3990 C   0  0  2  0  0  3  0  0  0  0  0  0
  184.7270  177.4950  141.9590 C   0  0  0  0  0  1  0  0  0  0  0  0
  189.0340  176.8010  143.8560 C   0  0  2  0  0  3  0  0  0  0  0  0
  1 16  2  0  0  0  0
  1 21  1  0  0  0  0
  2  8  1  0  0  0  0
  3 17  2  0  0  0  0
  5 27  1  6  0  0  0
  5 24  1  0  0  0  0
  6  1  1  0  0  0  0
  8  7  1  1  0  0  0
  8 14  1  0  0  0  0
  9 14  1  0  0  0  0
  9 18  1  0  0  0  0
 10  8  1  0  0  0  0
 11 15  1  0  0  0  0
 12 24  1  0  0  0  0
 12 28  1  0  0  0  0
 13  9  2  0  0  0  0
 15 23  1  0  0  0  0
 16 20  1  0  0  0  0
 17 25  1  0  0  0  0
 17  5  1  0  0  0  0
 19 15  1  0  0  0  0
 19 25  1  0  0  0  0
 20  4  2  0  0  0  0
 21 22  2  0  0  0  0
 22  4  1  0  0  0  0
 23  6  1  0  0  0  0
 24 26  1  0  0  0  0
 25 12  1  0  0  0  0
 26 10  1  0  0  0  0
 26 13  1  0  0  0  0
 28 16  1  0  0  0  0
 28 10  1  0  0  0  0
M  END
>  <MODEL>
5

>  <REMARK>
 VINA RESULT:      -8.0      2.187      5.049
  Name = 
  0 active torsions:
  status: ('A' for Active; 'I' for Inactive)
                            x       y       z     vdW  Elec       q    Type
                         _______ _______ _______ _____ _____    ______ ____

>  <TORSDO>
F 0

$$$$
=
 OpenBabel11112417413D

 28 32  0  0  1  0  0  0  0  0999 V2000
  190.7010  174.7140  142.0150 C   0  0  0  0  0  0  0  0  0  0  0  0
  188.9820  177.6770  142.3340 F   0  0  0  0  0  0  0  0  0  0  0  0
  190.6050  175.2590  147.9920 O   0  0  0  0  0  0  0  0  0  0  0  0
  188.9840  172.7030  141.0700 C   0  0  0  0  0  3  0  0  0  0  0  0
  189.1480  176.8600  146.9040 C   0  0  2  0  0  3  0  0  0  0  0  0
  191.7070  175.7160  142.4920 C   0  0  0  0  0  2  0  0  0  0  0  0
  187.4640  176.3400  141.1210 C   0  0  0  0  0  1  0  0  0  0  0  0
  187.7340  177.0840  142.4140 C   0  0  1  0  0  0  0  0  0  0  0  0
  186.3840  178.6760  143.8200 C   0  0  0  0  0  0  0  0  0  0  0  0
  187.6540  176.1110  143.6210 C   0  0  2  0  0  3  0  0  0  0  0  0
  194.0230  174.8290  145.2760 O   0  0  0  0  0  1  0  0  0  0  0  0
  189.8750  176.1500  144.6420 C   0  0  1  0  0  3  0  0  0  0  0  0
  186.7540  178.0850  144.9130 N   0  0  0  0  0  0  0  0  0  0  0  0
  186.7310  178.1310  142.5480 N   0  0  0  0  0  2  0  0  0  0  0  0
  192.8140  175.2470  144.7200 C   0  0  2  0  0  3  0  0  0  0  0  0
  189.4500  174.4940  142.6550 C   0  0  0  0  0  0  0  0  0  0  0  0
  190.1570  175.7770  146.9340 C   0  0  0  0  0  0  0  0  0  0  0  0
  185.5660  179.8370  143.8880 N   0  0  0  0  0  1  0  0  0  0  0  0
  191.6750  174.4700  145.3650 C   0  0  0  0  0  2  0  0  0  0  0  0
  188.6160  173.4760  142.1720 C   0  0  0  0  0  3  0  0  0  0  0  0
  191.0540  173.9340  140.9060 C   0  0  0  0  0  3  0  0  0  0  0  0
  190.2010  172.9370  140.4330 C   0  0  0  0  0  3  0  0  0  0  0  0
  192.8530  175.0140  143.2140 C   0  0  0  0  0  2  0  0  0  0  0  0
  188.9860  177.1470  145.4050 C   0  0  1  0  0  3  0  0  0  0  0  0
  190.5580  175.3620  145.6460 N   0  0  0  0  0  0  0  0  0  0  0  0
  187.5590  176.8620  144.9560 C   0  0  2  0  0  3  0  0  0  0  0  0
  189.6910  178.0970  147.5930 C   0  0  0  0  0  1  0  0  0  0  0  0
  188.9200  175.2800  143.8380 C   0  0  2  0  0  3  0  0  0  0  0  0
  1  6  1  0  0  0  0
  1 16  1  0  0  0  0
  2  8  1  0  0  0  0
  4 20  1  0  0  0  0
  5 17  1  0  0  0  0
  5 27  1  1  0  0  0
  6 23  1  0  0  0  0
  8  7  1  6  0  0  0
  8 14  1  0  0  0  0
  8 10  1  0  0  0  0
  9 18  1  0  0  0  0
  9 13  2  0  0  0  0
 10 28  1  0  0  0  0
 10 26  1  0  0  0  0
 12 24  1  0  0  0  0
 12 25  1  0  0  0  0
 13 26  1  0  0  0  0
 14  9  1  0  0  0  0
 15 11  1  0  0  0  0
 15 19  1  0  0  0  0
 16 28  1  0  0  0  0
 17  3  2  0  0  0  0
 19 25  1  0  0  0  0
 20 16  2  0  0  0  0
 21  1  2  0  0  0  0
 22 21  1  0  0  0  0
 22  4  2  0  0  0  0
 23 15  1  0  0  0  0
 24  5  1  0  0  0  0
 25 17  1  0  0  0  0
 26 24  1  0  0  0  0
 28 12  1  0  0  0  0
M  END
>  <MODEL>
6

>  <REMARK>
 VINA RESULT:      -8.0      2.784      6.194
  Name = 
  0 active torsions:
  status: ('A' for Active; 'I' for Inactive)
                            x       y       z     vdW  Elec       q    Type
                         _______ _______ _______ _____ _____    ______ ____

>  <TORSDO>
F 0

$$$$
=
 OpenBabel11112417413D

 28 32  0  0  1  0  0  0  0  0999 V2000
  188.4760  177.2030  144.9650 C   0  0  0  0  0  0  0  0  0  0  0  0
  191.9140  177.3050  144.9370 F   0  0  0  0  0  0  0  0  0  0  0  0
  189.6330  173.1600  140.6820 O   0  0  0  0  0  0  0  0  0  0  0  0
  187.5680  176.0390  147.3540 C   0  0  0  0  0  3  0  0  0  0  0  0
  191.6300  173.8120  141.8880 C   0  0  2  0  0  3  0  0  0  0  0  0
  188.8500  177.8620  143.6740 C   0  0  0  0  0  2  0  0  0  0  0  0
  191.4440  176.7350  147.1770 C   0  0  0  0  0  1  0  0  0  0  0  0
  192.0720  176.2940  145.8690 C   0  0  1  0  0  0  0  0  0  0  0  0
  194.2760  175.2380  145.2660 C   0  0  0  0  0  0  0  0  0  0  0  0
  191.4220  174.9740  145.3780 C   0  0  2  0  0  3  0  0  0  0  0  0
  187.1920  176.8010  140.5080 O   0  0  0  0  0  1  0  0  0  0  0  0
  190.4060  175.5080  143.2190 C   0  0  1  0  0  3  0  0  0  0  0  0
  193.7010  174.4150  144.4460 N   0  0  0  0  0  0  0  0  0  0  0  0
  193.4960  176.0950  146.0990 N   0  0  0  0  0  2  0  0  0  0  0  0
  188.1160  176.7010  141.5470 C   0  0  2  0  0  3  0  0  0  0  0  0
  189.0120  175.9570  145.3930 C   0  0  0  0  0  0  0  0  0  0  0  0
  190.1900  173.8840  141.5510 C   0  0  0  0  0  0  0  0  0  0  0  0
  195.6930  175.2390  145.3880 N   0  0  0  0  0  1  0  0  0  0  0  0
  188.1230  175.2710  142.0710 C   0  0  0  0  0  2  0  0  0  0  0  0
  188.5330  175.3900  146.5830 C   0  0  0  0  0  3  0  0  0  0  0  0
  187.5120  177.8450  145.7540 C   0  0  0  0  0  3  0  0  0  0  0  0
  187.0620  177.2700  146.9430 C   0  0  0  0  0  3  0  0  0  0  0  0
  187.7360  177.6860  142.6470 C   0  0  0  0  0  2  0  0  0  0  0  0
  191.7960  174.9050  142.9520 C   0  0  1  0  0  3  0  0  0  0  0  0
  189.4910  174.8370  142.3200 N   0  0  0  0  0  0  0  0  0  0  0  0
  192.2510  174.3030  144.2750 C   0  0  2  0  0  3  0  0  0  0  0  0
  192.4680  174.1660  140.6740 C   0  0  0  0  0  1  0  0  0  0  0  0
  190.0810  175.1660  144.6650 C   0  0  2  0  0  3  0  0  0  0  0  0
  1 16  2  0  0  0  0
  1 21  1  0  0  0  0
  2  8  1  0  0  0  0
  3 17  2  0  0  0  0
  5 27  1  6  0  0  0
  5 24  1  0  0  0  0
  6  1  1  0  0  0  0
  8 14  1  0  0  0  0
  8  7  1  1  0  0  0
  9 18  1  0  0  0  0
  9 14  1  0  0  0  0
 10  8  1  0  0  0  0
 11 15  1  0  0  0  0
 12 28  1  0  0  0  0
 13  9  2  0  0  0  0
 15 19  1  0  0  0  0
 15 23  1  0  0  0  0
 16 20  1  0  0  0  0
 17  5  1  0  0  0  0
 17 25  1  0  0  0  0
 19 25  1  0  0  0  0
 20  4  2  0  0  0  0
 21 22  2  0  0  0  0
 22  4  1  0  0  0  0
 23  6  1  0  0  0  0
 24 12  1  0  0  0  0
 24 26  1  0  0  0  0
 25 12  1  0  0  0  0
 26 13  1  0  0  0  0
 26 10  1  0  0  0  0
 28 10  1  0  0  0  0
 28 16  1  0  0  0  0
M  END
>  <MODEL>
7

>  <REMARK>
 VINA RESULT:      -7.9      1.614      2.234
  Name = 
  0 active torsions:
  status: ('A' for Active; 'I' for Inactive)
                            x       y       z     vdW  Elec       q    Type
                         _______ _______ _______ _____ _____    ______ ____

>  <TORSDO>
F 0

$$$$
=
 OpenBabel11112417413D

 28 32  0  0  1  0  0  0  0  0999 V2000
  188.7720  176.2080  144.7670 C   0  0  0  0  0  0  0  0  0  0  0  0
  189.0380  172.8650  144.0010 F   0  0  0  0  0  0  0  0  0  0  0  0
  194.6100  175.3230  145.8470 O   0  0  0  0  0  0  0  0  0  0  0  0
  188.3030  177.6950  142.4300 C   0  0  0  0  0  3  0  0  0  0  0  0
  193.5920  173.4370  144.7180 C   0  0  2  0  0  3  0  0  0  0  0  0
  188.9900  175.5100  146.0730 C   0  0  0  0  0  2  0  0  0  0  0  0
  188.2070  173.7780  141.9920 C   0  0  0  0  0  1  0  0  0  0  0  0
  189.3640  173.0710  142.6710 C   0  0  1  0  0  0  0  0  0  0  0  0
  190.7840  171.0830  142.0680 C   0  0  0  0  0  0  0  0  0  0  0  0
  190.6610  173.9110  142.5370 C   0  0  2  0  0  3  0  0  0  0  0  0
  191.4750  176.8640  148.5010 O   0  0  0  0  0  1  0  0  0  0  0  0
  191.3320  174.4510  144.8250 C   0  0  1  0  0  3  0  0  0  0  0  0
  191.8640  171.6930  142.4440 N   0  0  0  0  0  0  0  0  0  0  0  0
  189.5370  171.7760  142.0310 N   0  0  0  0  0  2  0  0  0  0  0  0
  191.0650  176.1500  147.3750 C   0  0  2  0  0  3  0  0  0  0  0  0
  189.6100  176.0250  143.6320 C   0  0  0  0  0  0  0  0  0  0  0  0
  193.5820  174.7600  145.3830 C   0  0  0  0  0  0  0  0  0  0  0  0
  190.8530  169.7350  141.6220 N   0  0  0  0  0  1  0  0  0  0  0  0
  191.9480  176.5320  146.1950 C   0  0  0  0  0  2  0  0  0  0  0  0
  189.3630  176.7890  142.4820 C   0  0  0  0  0  3  0  0  0  0  0  0
  187.7080  177.1180  144.6980 C   0  0  0  0  0  3  0  0  0  0  0  0
  187.4710  177.8550  143.5370 C   0  0  0  0  0  3  0  0  0  0  0  0
  189.6010  176.4690  147.0900 C   0  0  0  0  0  2  0  0  0  0  0  0
  192.1130  173.2000  144.3850 C   0  0  1  0  0  3  0  0  0  0  0  0
  192.2990  175.3440  145.4280 N   0  0  0  0  0  0  0  0  0  0  0  0
  191.9120  173.0900  142.8800 C   0  0  2  0  0  3  0  0  0  0  0  0
  194.0630  172.3700  145.6870 C   0  0  0  0  0  1  0  0  0  0  0  0
  190.7720  175.0550  143.5460 C   0  0  2  0  0  3  0  0  0  0  0  0
  1  6  1  0  0  0  0
  4 20  2  0  0  0  0
  4 22  1  0  0  0  0
  5 17  1  0  0  0  0
  5 27  1  1  0  0  0
  6 23  1  0  0  0  0
  8  7  1  6  0  0  0
  8  2  1  0  0  0  0
  9 13  2  0  0  0  0
 10  8  1  0  0  0  0
 10 26  1  0  0  0  0
 10 28  1  0  0  0  0
 12 25  1  0  0  0  0
 13 26  1  0  0  0  0
 14  9  1  0  0  0  0
 14  8  1  0  0  0  0
 15 11  1  0  0  0  0
 16  1  2  0  0  0  0
 17 25  1  0  0  0  0
 17  3  2  0  0  0  0
 18  9  1  0  0  0  0
 19 15  1  0  0  0  0
 20 16  1  0  0  0  0
 21  1  1  0  0  0  0
 22 21  2  0  0  0  0
 23 15  1  0  0  0  0
 24  5  1  0  0  0  0
 24 12  1  0  0  0  0
 25 19  1  0  0  0  0
 26 24  1  0  0  0  0
 28 16  1  0  0  0  0
 28 12  1  0  0  0  0
M  END
>  <MODEL>
8

>  <REMARK>
 VINA RESULT:      -7.6      3.401      5.621
  Name = 
  0 active torsions:
  status: ('A' for Active; 'I' for Inactive)
                            x       y       z     vdW  Elec       q    Type
                         _______ _______ _______ _____ _____    ______ ____

>  <TORSDO>
F 0

$$$$
=
 OpenBabel11112417413D

 28 32  0  0  1  0  0  0  0  0999 V2000
  188.3110  175.9800  145.6210 C   0  0  0  0  0  0  0  0  0  0  0  0
  188.9410  173.5740  143.2450 F   0  0  0  0  0  0  0  0  0  0  0  0
  194.3030  176.2460  145.3900 O   0  0  0  0  0  0  0  0  0  0  0  0
  187.0690  178.2020  144.4340 C   0  0  0  0  0  3  0  0  0  0  0  0
  193.3770  174.9080  143.5940 C   0  0  2  0  0  3  0  0  0  0  0  0
  188.9410  174.8400  146.3580 C   0  0  0  0  0  2  0  0  0  0  0  0
  187.5230  175.0640  142.0910 C   0  0  0  0  0  1  0  0  0  0  0  0
  188.9070  174.4500  142.1740 C   0  0  1  0  0  0  0  0  0  0  0  0
  190.4560  173.4160  140.4820 C   0  0  0  0  0  0  0  0  0  0  0  0
  189.9800  175.5610  142.3260 C   0  0  2  0  0  3  0  0  0  0  0  0
  191.6650  175.5040  148.8150 O   0  0  0  0  0  1  0  0  0  0  0  0
  191.0690  175.1300  144.4730 C   0  0  1  0  0  3  0  0  0  0  0  0
  191.4780  174.0380  140.9800 N   0  0  0  0  0  0  0  0  0  0  0  0
  189.1380  173.6960  140.9510 N   0  0  0  0  0  2  0  0  0  0  0  0
  191.1270  175.3160  147.5430 C   0  0  2  0  0  3  0  0  0  0  0  0
  188.8790  176.5700  144.4580 C   0  0  0  0  0  0  0  0  0  0  0  0
  193.3040  175.7170  144.8330 C   0  0  0  0  0  0  0  0  0  0  0  0
  190.6410  172.4990  139.4110 N   0  0  0  0  0  1  0  0  0  0  0  0
  191.6340  176.4160  146.6200 C   0  0  0  0  0  2  0  0  0  0  0  0
  188.2460  177.6860  143.8910 C   0  0  0  0  0  3  0  0  0  0  0  0
  187.1250  176.5070  146.1510 C   0  0  0  0  0  3  0  0  0  0  0  0
  186.5050  177.6080  145.5610 C   0  0  0  0  0  3  0  0  0  0  0  0
  189.6060  175.3380  147.6380 C   0  0  0  0  0  2  0  0  0  0  0  0
  191.9210  174.4780  143.3710 C   0  0  1  0  0  3  0  0  0  0  0  0
  191.9880  175.8570  145.3220 N   0  0  0  0  0  0  0  0  0  0  0  0
  191.3940  175.0320  142.0530 C   0  0  2  0  0  3  0  0  0  0  0  0
  194.2310  173.6760  143.8270 C   0  0  0  0  0  1  0  0  0  0  0  0
  190.1330  176.0900  143.7540 C   0  0  2  0  0  3  0  0  0  0  0  0
  1 21  1  0  0  0  0
  1  6  1  0  0  0  0
  4 22  1  0  0  0  0
  5 27  1  1  0  0  0
  5 17  1  0  0  0  0
  6 23  1  0  0  0  0
  8  7  1  6  0  0  0
  8 10  1  0  0  0  0
  8  2  1  0  0  0  0
  9 14  1  0  0  0  0
  9 13  2  0  0  0  0
 10 28  1  0  0  0  0
 12 25  1  0  0  0  0
 13 26  1  0  0  0  0
 14  8  1  0  0  0  0
 15 23  1  0  0  0  0
 15 11  1  0  0  0  0
 16  1  2  0  0  0  0
 17 25  1  0  0  0  0
 17  3  2  0  0  0  0
 18  9  1  0  0  0  0
 19 15  1  0  0  0  0
 20  4  2  0  0  0  0
 20 16  1  0  0  0  0
 22 21  2  0  0  0  0
 24  5  1  0  0  0  0
 24 12  1  0  0  0  0
 25 19  1  0  0  0  0
 26 10  1  0  0  0  0
 26 24  1  0  0  0  0
 28 16  1  0  0  0  0
 28 12  1  0  0  0  0
M  END
>  <MODEL>
9

>  <REMARK>
 VINA RESULT:      -7.6      3.109      5.384
  Name = 
  0 active torsions:
  status: ('A' for Active; 'I' for Inactive)
                            x       y       z     vdW  Elec       q    Type
                         _______ _______ _______ _____ _____    ______ ____

>  <TORSDO>
F 0

$$$$
