=
 OpenBabel11112416223D

 30 35  0  0  1  0  0  0  0  0999 V2000
  187.5640  176.4470  145.3780 C   0  0  0  0  0  0  0  0  0  0  0  0
  185.7960  177.6830  146.6600 C   0  0  0  0  0  0  0  0  0  0  0  0
  185.8710  177.5890  141.7130 N   0  0  0  0  0  0  0  0  0  0  0  0
  188.1010  176.0580  144.1230 C   0  0  0  0  0  0  0  0  0  0  0  0
  188.2150  175.8890  146.6140 C   0  0  0  0  0  2  0  0  0  0  0  0
  191.2020  174.4720  145.1750 O   0  0  0  0  0  0  0  0  0  0  0  0
  188.5470  173.9310  142.0560 C   0  0  1  0  0  3  0  0  0  0  0  0
  190.1210  175.1220  145.2270 C   0  0  0  0  0  0  0  0  0  0  0  0
  187.7610  174.8350  141.1850 N   0  0  2  0  0  0  0  0  0  0  0  0
  186.6950  177.0330  140.8810 C   0  0  0  0  0  0  0  0  0  0  0  0
  189.7350  175.8500  146.4870 C   0  0  2  0  0  3  0  0  0  0  0  0
  189.2930  175.2430  144.0570 N   0  0  0  0  0  0  0  0  0  0  0  0
  184.6440  178.4740  146.6460 C   0  0  0  0  0  3  0  0  0  0  0  0
  188.3250  174.6530  139.8540 C   0  0  0  0  0  2  0  0  0  0  0  0
  189.0770  172.8070  141.1870 C   0  0  0  0  0  2  0  0  0  0  0  0
  186.3340  177.3440  147.8960 O   0  0  0  0  0  1  0  0  0  0  0  0
  186.3260  177.2590  143.0120 C   0  0  0  0  0  0  0  0  0  0  0  0
  184.0550  178.8600  145.4440 C   0  0  0  0  0  3  0  0  0  0  0  0
  186.3840  177.2570  145.4400 C   0  0  0  0  0  0  0  0  0  0  0  0
  187.4500  176.4870  142.9650 C   0  0  0  0  0  0  0  0  0  0  0  0
  186.5560  177.2150  139.4100 C   0  0  0  0  0  1  0  0  0  0  0  0
  187.8240  176.2630  141.5370 C   0  0  1  0  0  3  0  0  0  0  0  0
  188.7930  173.2200  139.7630 C   0  0  0  0  0  2  0  0  0  0  0  0
  190.4870  175.4310  142.0280 O   0  0  0  0  0  1  0  0  0  0  0  0
  184.6140  178.4570  144.2350 C   0  0  0  0  0  3  0  0  0  0  0  0
  185.7650  177.6650  144.2210 C   0  0  0  0  0  0  0  0  0  0  0  0
  189.7220  174.5740  142.8240 C   0  0  2  0  0  3  0  0  0  0  0  0
  190.3350  175.1880  147.7250 C   0  0  0  0  0  2  0  0  0  0  0  0
  191.1970  177.2920  148.4570 O   0  0  0  0  0  1  0  0  0  0  0  0
  191.5440  175.9610  148.2270 C   0  0  0  0  0  2  0  0  0  0  0  0
  1 19  1  0  0  0  0
  1  5  1  0  0  0  0
  2 16  1  0  0  0  0
  3 17  1  0  0  0  0
  4  1  2  0  0  0  0
  6  8  2  0  0  0  0
  7 15  1  6  0  0  0
  7 27  1  0  0  0  0
  8 11  1  0  0  0  0
  9 14  1  6  0  0  0
  9 22  1  0  0  0  0
  9  7  1  0  0  0  0
 10  3  2  0  0  0  0
 11  5  1  0  0  0  0
 11 28  1  1  0  0  0
 12  4  1  0  0  0  0
 12  8  1  0  0  0  0
 13  2  1  0  0  0  0
 17 26  1  0  0  0  0
 18 13  2  0  0  0  0
 19  2  2  0  0  0  0
 20 17  2  0  0  0  0
 20  4  1  0  0  0  0
 21 10  1  0  0  0  0
 22 10  1  6  0  0  0
 22 20  1  0  0  0  0
 23 14  1  0  0  0  0
 23 15  1  0  0  0  0
 25 18  1  0  0  0  0
 26 25  2  0  0  0  0
 26 19  1  0  0  0  0
 27 24  1  6  0  0  0
 27 12  1  0  0  0  0
 28 30  1  0  0  0  0
 30 29  1  0  0  0  0
M  END
>  <MODEL>
1

>  <REMARK>
 VINA RESULT:      -9.0      0.000      0.000
  Name = 
  2 active torsions:
  status: ('A' for Active; 'I' for Inactive)
    1  A    between atoms: C_11  and  C_28
    2  A    between atoms: C_28  and  C_30
                            x       y       z     vdW  Elec       q    Type
                         _______ _______ _______ _____ _____    ______ ____

>  <TORSDO>
F 2

$$$$
=
 OpenBabel11112416223D

 30 35  0  0  1  0  0  0  0  0999 V2000
  186.3990  177.6310  143.9140 C   0  0  0  0  0  0  0  0  0  0  0  0
  184.5760  178.6070  145.3370 C   0  0  0  0  0  0  0  0  0  0  0  0
  188.4990  176.3180  147.3010 N   0  0  0  0  0  0  0  0  0  0  0  0
  187.6370  176.9420  143.8370 C   0  0  0  0  0  0  0  0  0  0  0  0
  185.8000  178.1290  142.6270 C   0  0  0  0  0  2  0  0  0  0  0  0
  187.8930  176.4090  140.2470 O   0  0  0  0  0  0  0  0  0  0  0  0
  190.5900  176.9940  143.3210 C   0  0  1  0  0  3  0  0  0  0  0  0
  187.4150  176.7300  141.3710 C   0  0  0  0  0  0  0  0  0  0  0  0
  190.6840  176.5420  144.7290 N   0  0  2  0  0  0  0  0  0  0  0  0
  189.5190  175.7430  146.7450 C   0  0  0  0  0  0  0  0  0  0  0  0
  185.9670  177.1190  141.4950 C   0  0  2  0  0  3  0  0  0  0  0  0
  188.2300  176.6440  142.5530 N   0  0  0  0  0  0  0  0  0  0  0  0
  184.0600  178.8570  146.6120 C   0  0  0  0  0  3  0  0  0  0  0  0
  191.8530  175.6720  144.7640 C   0  0  0  0  0  2  0  0  0  0  0  0
  191.9850  176.9350  142.7300 C   0  0  0  0  0  2  0  0  0  0  0  0
  183.8380  179.0430  144.2430 O   0  0  0  0  0  1  0  0  0  0  0  0
  187.7040  176.8310  146.2480 C   0  0  0  0  0  0  0  0  0  0  0  0
  184.7410  178.4410  147.7530 C   0  0  0  0  0  3  0  0  0  0  0  0
  185.8120  177.9230  145.1880 C   0  0  0  0  0  0  0  0  0  0  0  0
  188.2550  176.5590  145.0290 C   0  0  0  0  0  0  0  0  0  0  0  0
  190.5500  175.0380  147.5550 C   0  0  0  0  0  1  0  0  0  0  0  0
  189.5200  175.7930  145.2300 C   0  0  1  0  0  3  0  0  0  0  0  0
  192.8320  176.2040  143.7440 C   0  0  0  0  0  2  0  0  0  0  0  0
  189.7310  174.8200  142.5780 O   0  0  0  0  0  1  0  0  0  0  0  0
  185.9530  177.7660  147.6340 C   0  0  0  0  0  3  0  0  0  0  0  0
  186.4910  177.5050  146.3700 C   0  0  0  0  0  0  0  0  0  0  0  0
  189.6230  176.2040  142.4140 C   0  0  2  0  0  3  0  0  0  0  0  0
  185.4310  177.7130  140.1950 C   0  0  0  0  0  2  0  0  0  0  0  0
  183.0460  177.7850  140.0790 O   0  0  0  0  0  1  0  0  0  0  0  0
  184.1700  178.5260  140.4440 C   0  0  0  0  0  2  0  0  0  0  0  0
  1 19  1  0  0  0  0
  2 13  1  0  0  0  0
  4  1  2  0  0  0  0
  4 20  1  0  0  0  0
  5  1  1  0  0  0  0
  6  8  2  0  0  0  0
  7 15  1  6  0  0  0
  7  9  1  0  0  0  0
  8 11  1  0  0  0  0
  8 12  1  0  0  0  0
  9 14  1  6  0  0  0
  9 22  1  0  0  0  0
 10  3  2  0  0  0  0
 10 21  1  0  0  0  0
 11 28  1  6  0  0  0
 11  5  1  0  0  0  0
 12  4  1  0  0  0  0
 13 18  2  0  0  0  0
 15 23  1  0  0  0  0
 16  2  1  0  0  0  0
 17 26  1  0  0  0  0
 17  3  1  0  0  0  0
 19  2  2  0  0  0  0
 19 26  1  0  0  0  0
 20 17  2  0  0  0  0
 22 20  1  1  0  0  0
 22 10  1  0  0  0  0
 23 14  1  0  0  0  0
 25 18  1  0  0  0  0
 26 25  2  0  0  0  0
 27 12  1  0  0  0  0
 27 24  1  1  0  0  0
 27  7  1  0  0  0  0
 28 30  1  0  0  0  0
 29 30  1  0  0  0  0
M  END
>  <MODEL>
2

>  <REMARK>
 VINA RESULT:      -8.5      2.431      5.464
  Name = 
  2 active torsions:
  status: ('A' for Active; 'I' for Inactive)
    1  A    between atoms: C_11  and  C_28
    2  A    between atoms: C_28  and  C_30
                            x       y       z     vdW  Elec       q    Type
                         _______ _______ _______ _____ _____    ______ ____

>  <TORSDO>
F 2

$$$$
=
 OpenBabel11112416223D

 30 35  0  0  1  0  0  0  0  0999 V2000
  188.3140  176.2990  143.0650 C   0  0  0  0  0  0  0  0  0  0  0  0
  186.0960  177.4610  143.2420 C   0  0  0  0  0  0  0  0  0  0  0  0
  189.3300  177.3900  146.9870 N   0  0  0  0  0  0  0  0  0  0  0  0
  189.5470  175.9450  143.6720 C   0  0  0  0  0  0  0  0  0  0  0  0
  188.1170  175.9240  141.6220 C   0  0  0  0  0  2  0  0  0  0  0  0
  190.9220  173.7070  141.1530 O   0  0  0  0  0  0  0  0  0  0  0  0
  192.5100  176.3400  143.9130 C   0  0  1  0  0  3  0  0  0  0  0  0
  190.1070  174.4520  141.7640 C   0  0  0  0  0  0  0  0  0  0  0  0
  192.1870  176.7090  145.3100 N   0  0  2  0  0  0  0  0  0  0  0  0
  190.4980  176.8390  147.0970 C   0  0  0  0  0  0  0  0  0  0  0  0
  188.6730  174.5360  141.3140 C   0  0  2  0  0  3  0  0  0  0  0  0
  190.5210  175.1600  142.9460 N   0  0  0  0  0  0  0  0  0  0  0  0
  185.2020  178.2170  144.0040 C   0  0  0  0  0  3  0  0  0  0  0  0
  193.3300  176.2490  146.0900 C   0  0  0  0  0  2  0  0  0  0  0  0
  194.0200  176.2790  143.7940 C   0  0  0  0  0  2  0  0  0  0  0  0
  185.7110  177.1050  141.9550 O   0  0  0  0  0  1  0  0  0  0  0  0
  188.8740  177.1080  145.6770 C   0  0  0  0  0  0  0  0  0  0  0  0
  185.5180  178.6010  145.3050 C   0  0  0  0  0  3  0  0  0  0  0  0
  187.3500  177.0740  143.7870 C   0  0  0  0  0  0  0  0  0  0  0  0
  189.7860  176.3700  144.9790 C   0  0  0  0  0  0  0  0  0  0  0  0
  191.2630  176.8850  148.3730 C   0  0  0  0  0  1  0  0  0  0  0  0
  190.9630  176.1010  145.8570 C   0  0  1  0  0  3  0  0  0  0  0  0
  194.5480  176.3700  145.2060 C   0  0  0  0  0  2  0  0  0  0  0  0
  192.0280  173.9700  144.3230 O   0  0  0  0  0  1  0  0  0  0  0  0
  186.7380  178.2320  145.8630 C   0  0  0  0  0  3  0  0  0  0  0  0
  187.6510  177.4770  145.1220 C   0  0  0  0  0  0  0  0  0  0  0  0
  191.9080  175.0140  143.4000 C   0  0  2  0  0  3  0  0  0  0  0  0
  188.5350  174.2490  139.8210 C   0  0  0  0  0  2  0  0  0  0  0  0
  189.0580  172.1890  138.7290 O   0  0  0  0  0  1  0  0  0  0  0  0
  188.1350  172.8020  139.5770 C   0  0  0  0  0  2  0  0  0  0  0  0
  1  4  2  0  0  0  0
  1 19  1  0  0  0  0
  2 19  2  0  0  0  0
  2 13  1  0  0  0  0
  3 10  2  0  0  0  0
  4 20  1  0  0  0  0
  5  1  1  0  0  0  0
  6  8  2  0  0  0  0
  7 15  1  1  0  0  0
  7  9  1  0  0  0  0
  8 12  1  0  0  0  0
  9 22  1  0  0  0  0
  9 14  1  1  0  0  0
 10 21  1  0  0  0  0
 11 28  1  6  0  0  0
 11  5  1  0  0  0  0
 11  8  1  0  0  0  0
 12 27  1  0  0  0  0
 12  4  1  0  0  0  0
 13 18  2  0  0  0  0
 15 23  1  0  0  0  0
 16  2  1  0  0  0  0
 17  3  1  0  0  0  0
 18 25  1  0  0  0  0
 19 26  1  0  0  0  0
 20 17  2  0  0  0  0
 22 20  1  6  0  0  0
 22 10  1  0  0  0  0
 23 14  1  0  0  0  0
 26 17  1  0  0  0  0
 26 25  2  0  0  0  0
 27  7  1  0  0  0  0
 27 24  1  1  0  0  0
 29 30  1  0  0  0  0
 30 28  1  0  0  0  0
M  END
>  <MODEL>
3

>  <REMARK>
 VINA RESULT:      -8.2      2.330      5.673
  Name = 
  2 active torsions:
  status: ('A' for Active; 'I' for Inactive)
    1  A    between atoms: C_11  and  C_28
    2  A    between atoms: C_28  and  C_30
                            x       y       z     vdW  Elec       q    Type
                         _______ _______ _______ _____ _____    ______ ____

>  <TORSDO>
F 2

$$$$
=
 OpenBabel11112416223D

 30 35  0  0  1  0  0  0  0  0999 V2000
  188.5990  176.5400  145.5370 C   0  0  0  0  0  0  0  0  0  0  0  0
  186.5860  177.9510  146.0410 C   0  0  0  0  0  0  0  0  0  0  0  0
  187.2300  175.7690  141.6460 N   0  0  0  0  0  0  0  0  0  0  0  0
  189.3100  175.7300  144.6130 C   0  0  0  0  0  0  0  0  0  0  0  0
  189.1560  176.6560  146.9290 C   0  0  0  0  0  2  0  0  0  0  0  0
  192.4100  175.1820  146.4370 O   0  0  0  0  0  0  0  0  0  0  0  0
  190.1900  173.0080  143.7140 C   0  0  1  0  0  3  0  0  0  0  0  0
  191.2720  175.6390  146.1350 C   0  0  0  0  0  0  0  0  0  0  0  0
  189.4240  173.3380  142.4900 N   0  0  2  0  0  0  0  0  0  0  0  0
  188.1920  175.0290  141.1930 C   0  0  0  0  0  0  0  0  0  0  0  0
  190.6780  176.7740  146.9240 C   0  0  2  0  0  3  0  0  0  0  0  0
  190.5750  175.1360  144.9820 N   0  0  0  0  0  0  0  0  0  0  0  0
  185.3720  178.4960  145.6140 C   0  0  0  0  0  3  0  0  0  0  0  0
  190.1500  172.6840  141.4090 C   0  0  0  0  0  2  0  0  0  0  0  0
  190.9210  171.7050  143.4570 C   0  0  0  0  0  2  0  0  0  0  0  0
  187.0110  178.2480  147.3310 O   0  0  0  0  0  1  0  0  0  0  0  0
  187.5650  176.0890  142.9840 C   0  0  0  0  0  0  0  0  0  0  0  0
  184.8890  178.2480  144.3310 C   0  0  0  0  0  3  0  0  0  0  0  0
  187.3470  177.1300  145.1680 C   0  0  0  0  0  0  0  0  0  0  0  0
  188.7560  175.5320  143.3470 C   0  0  0  0  0  0  0  0  0  0  0  0
  188.2040  174.5460  139.7850 C   0  0  0  0  0  1  0  0  0  0  0  0
  189.3090  174.7740  142.1860 C   0  0  1  0  0  3  0  0  0  0  0  0
  190.7620  171.4280  141.9810 C   0  0  0  0  0  2  0  0  0  0  0  0
  191.9670  174.6020  143.1500 O   0  0  0  0  0  1  0  0  0  0  0  0
  185.6170  177.4490  143.4550 C   0  0  0  0  0  3  0  0  0  0  0  0
  186.8340  176.8910  143.8580 C   0  0  0  0  0  0  0  0  0  0  0  0
  191.2030  174.0700  144.1930 C   0  0  2  0  0  3  0  0  0  0  0  0
  191.1950  176.7910  148.3600 C   0  0  0  0  0  2  0  0  0  0  0  0
  191.5650  178.1890  150.2620 O   0  0  0  0  0  1  0  0  0  0  0  0
  190.9260  178.1330  149.0230 C   0  0  0  0  0  2  0  0  0  0  0  0
  1  5  1  0  0  0  0
  2 16  1  0  0  0  0
  3 17  1  0  0  0  0
  4 12  1  0  0  0  0
  4  1  2  0  0  0  0
  7 15  1  6  0  0  0
  7 27  1  0  0  0  0
  8  6  2  0  0  0  0
  8 11  1  0  0  0  0
  9 14  1  6  0  0  0
  9  7  1  0  0  0  0
 10  3  2  0  0  0  0
 11  5  1  0  0  0  0
 11 28  1  1  0  0  0
 12  8  1  0  0  0  0
 13  2  1  0  0  0  0
 14 23  1  0  0  0  0
 17 20  2  0  0  0  0
 17 26  1  0  0  0  0
 18 13  2  0  0  0  0
 19  1  1  0  0  0  0
 19  2  2  0  0  0  0
 20  4  1  0  0  0  0
 21 10  1  0  0  0  0
 22 10  1  6  0  0  0
 22  9  1  0  0  0  0
 22 20  1  0  0  0  0
 23 15  1  0  0  0  0
 25 26  2  0  0  0  0
 25 18  1  0  0  0  0
 26 19  1  0  0  0  0
 27 24  1  6  0  0  0
 27 12  1  0  0  0  0
 28 30  1  0  0  0  0
 30 29  1  0  0  0  0
M  END
>  <MODEL>
4

>  <REMARK>
 VINA RESULT:      -7.9      1.528      2.046
  Name = 
  2 active torsions:
  status: ('A' for Active; 'I' for Inactive)
    1  A    between atoms: C_11  and  C_28
    2  A    between atoms: C_28  and  C_30
                            x       y       z     vdW  Elec       q    Type
                         _______ _______ _______ _____ _____    ______ ____

>  <TORSDO>
F 2

$$$$
=
 OpenBabel11112416223D

 30 35  0  0  1  0  0  0  0  0999 V2000
  189.9170  174.8820  143.7170 C   0  0  0  0  0  0  0  0  0  0  0  0
  191.9920  173.4730  143.8020 C   0  0  0  0  0  0  0  0  0  0  0  0
  190.8910  176.7440  147.3490 N   0  0  0  0  0  0  0  0  0  0  0  0
  189.1020  175.8750  144.3200 C   0  0  0  0  0  0  0  0  0  0  0  0
  189.4020  174.2290  142.4630 C   0  0  0  0  0  2  0  0  0  0  0  0
  186.6410  176.4170  141.6950 O   0  0  0  0  0  0  0  0  0  0  0  0
  186.6110  176.6040  145.8230 C   0  0  1  0  0  3  0  0  0  0  0  0
  187.6690  175.9930  142.2920 C   0  0  0  0  0  0  0  0  0  0  0  0
  187.5630  177.0800  146.8530 N   0  0  2  0  0  0  0  0  0  0  0  0
  189.8950  177.5630  147.4760 C   0  0  0  0  0  0  0  0  0  0  0  0
  188.7260  175.2350  141.5350 C   0  0  2  0  0  3  0  0  0  0  0  0
  187.8790  176.3060  143.6810 N   0  0  0  0  0  0  0  0  0  0  0  0
  193.1610  173.1080  144.4750 C   0  0  0  0  0  3  0  0  0  0  0  0
  186.9060  178.2290  147.4640 C   0  0  0  0  0  2  0  0  0  0  0  0
  185.2210  177.0250  146.2560 C   0  0  0  0  0  2  0  0  0  0  0  0
  191.7180  172.8440  142.5930 O   0  0  0  0  0  1  0  0  0  0  0  0
  190.6710  176.0260  146.1480 C   0  0  0  0  0  0  0  0  0  0  0  0
  193.5040  173.7030  145.6870 C   0  0  0  0  0  3  0  0  0  0  0  0
  191.1290  174.4590  144.3510 C   0  0  0  0  0  0  0  0  0  0  0  0
  189.5170  176.4210  145.5360 C   0  0  0  0  0  0  0  0  0  0  0  0
  189.8200  178.5260  148.6080 C   0  0  0  0  0  1  0  0  0  0  0  0
  188.8810  177.4980  146.3500 C   0  0  1  0  0  3  0  0  0  0  0  0
  185.4200  177.9660  147.4200 C   0  0  0  0  0  2  0  0  0  0  0  0
  187.1590  178.4630  144.3190 O   0  0  0  0  0  1  0  0  0  0  0  0
  192.6780  174.6740  146.2440 C   0  0  0  0  0  3  0  0  0  0  0  0
  191.5010  175.0550  145.5920 C   0  0  0  0  0  0  0  0  0  0  0  0
  186.8630  177.0980  144.3820 C   0  0  2  0  0  3  0  0  0  0  0  0
  188.1390  174.5050  140.3300 C   0  0  0  0  0  2  0  0  0  0  0  0
  188.1270  172.4270  139.1520 O   0  0  0  0  0  1  0  0  0  0  0  0
  188.5010  173.0290  140.3540 C   0  0  0  0  0  2  0  0  0  0  0  0
  1  4  2  0  0  0  0
  1 19  1  0  0  0  0
  2 19  2  0  0  0  0
  2 13  1  0  0  0  0
  3 10  2  0  0  0  0
  4 20  1  0  0  0  0
  5  1  1  0  0  0  0
  6  8  2  0  0  0  0
  7 15  1  1  0  0  0
  7  9  1  0  0  0  0
  8 12  1  0  0  0  0
  9 14  1  6  0  0  0
 10 21  1  0  0  0  0
 11 28  1  6  0  0  0
 11  8  1  0  0  0  0
 11  5  1  0  0  0  0
 12  4  1  0  0  0  0
 12 27  1  0  0  0  0
 13 18  2  0  0  0  0
 15 23  1  0  0  0  0
 16  2  1  0  0  0  0
 17  3  1  0  0  0  0
 18 25  1  0  0  0  0
 19 26  1  0  0  0  0
 20 17  2  0  0  0  0
 22 20  1  6  0  0  0
 22  9  1  0  0  0  0
 22 10  1  0  0  0  0
 23 14  1  0  0  0  0
 26 17  1  0  0  0  0
 26 25  2  0  0  0  0
 27 24  1  1  0  0  0
 27  7  1  0  0  0  0
 28 30  1  0  0  0  0
 29 30  1  0  0  0  0
M  END
>  <MODEL>
5

>  <REMARK>
 VINA RESULT:      -7.9      2.392      7.067
  Name = 
  2 active torsions:
  status: ('A' for Active; 'I' for Inactive)
    1  A    between atoms: C_11  and  C_28
    2  A    between atoms: C_28  and  C_30
                            x       y       z     vdW  Elec       q    Type
                         _______ _______ _______ _____ _____    ______ ____

>  <TORSDO>
F 2

$$$$
=
 OpenBabel11112416223D

 30 35  0  0  1  0  0  0  0  0999 V2000
  189.0380  175.4690  143.1070 C   0  0  0  0  0  0  0  0  0  0  0  0
  186.9510  176.4300  144.1180 C   0  0  0  0  0  0  0  0  0  0  0  0
  191.3560  176.7910  146.3450 N   0  0  0  0  0  0  0  0  0  0  0  0
  190.4370  175.2510  143.1970 C   0  0  0  0  0  0  0  0  0  0  0  0
  188.3450  175.0250  141.8470 C   0  0  0  0  0  2  0  0  0  0  0  0
  190.9640  173.0560  140.3420 O   0  0  0  0  0  0  0  0  0  0  0  0
  193.2150  175.9230  142.2880 C   0  0  1  0  0  3  0  0  0  0  0  0
  190.3740  173.7470  141.2190 C   0  0  0  0  0  0  0  0  0  0  0  0
  193.4130  176.3120  143.7040 N   0  0  2  0  0  0  0  0  0  0  0  0
  192.5260  176.3530  146.0000 C   0  0  0  0  0  0  0  0  0  0  0  0
  188.8760  173.6830  141.3500 C   0  0  2  0  0  3  0  0  0  0  0  0
  191.1340  174.5320  142.1540 N   0  0  0  0  0  0  0  0  0  0  0  0
  186.3440  177.1290  145.1650 C   0  0  0  0  0  3  0  0  0  0  0  0
  194.8050  175.9860  143.9880 C   0  0  0  0  0  2  0  0  0  0  0  0
  194.5650  175.9960  141.6020 C   0  0  0  0  0  2  0  0  0  0  0  0
  186.1420  175.9930  143.0750 O   0  0  0  0  0  1  0  0  0  0  0  0
  190.4660  176.4200  145.3080 C   0  0  0  0  0  0  0  0  0  0  0  0
  187.0910  177.5880  146.2470 C   0  0  0  0  0  3  0  0  0  0  0  0
  188.3490  176.1790  144.1430 C   0  0  0  0  0  0  0  0  0  0  0  0
  191.1120  175.7430  144.3150 C   0  0  0  0  0  0  0  0  0  0  0  0
  193.7100  176.5150  146.8880 C   0  0  0  0  0  1  0  0  0  0  0  0
  192.5550  175.6150  144.6760 C   0  0  1  0  0  3  0  0  0  0  0  0
  195.5780  176.1860  142.7060 C   0  0  0  0  0  2  0  0  0  0  0  0
  193.1600  173.5360  142.8490 O   0  0  0  0  0  1  0  0  0  0  0  0
  188.4620  177.3520  146.2960 C   0  0  0  0  0  3  0  0  0  0  0  0
  189.0940  176.6560  145.2620 C   0  0  0  0  0  0  0  0  0  0  0  0
  192.5970  174.5300  142.0430 C   0  0  2  0  0  3  0  0  0  0  0  0
  188.2100  173.3300  140.0220 C   0  0  0  0  0  2  0  0  0  0  0  0
  188.7160  174.1660  137.8420 O   0  0  0  0  0  1  0  0  0  0  0  0
  188.1910  174.5260  139.0840 C   0  0  0  0  0  2  0  0  0  0  0  0
  1  4  2  0  0  0  0
  1 19  1  0  0  0  0
  2 19  2  0  0  0  0
  2 13  1  0  0  0  0
  4 20  1  0  0  0  0
  5  1  1  0  0  0  0
  6  8  2  0  0  0  0
  7 15  1  6  0  0  0
  7  9  1  0  0  0  0
  8 11  1  0  0  0  0
  8 12  1  0  0  0  0
  9 14  1  1  0  0  0
  9 22  1  0  0  0  0
 10  3  2  0  0  0  0
 10 21  1  0  0  0  0
 11 28  1  6  0  0  0
 11  5  1  0  0  0  0
 12  4  1  0  0  0  0
 13 18  2  0  0  0  0
 15 23  1  0  0  0  0
 16  2  1  0  0  0  0
 17  3  1  0  0  0  0
 18 25  1  0  0  0  0
 19 26  1  0  0  0  0
 20 17  2  0  0  0  0
 22 20  1  6  0  0  0
 22 10  1  0  0  0  0
 23 14  1  0  0  0  0
 26 17  1  0  0  0  0
 26 25  2  0  0  0  0
 27 12  1  0  0  0  0
 27  7  1  0  0  0  0
 27 24  1  1  0  0  0
 29 30  1  0  0  0  0
 30 28  1  0  0  0  0
M  END
>  <MODEL>
6

>  <REMARK>
 VINA RESULT:      -7.6      2.883      5.918
  Name = 
  2 active torsions:
  status: ('A' for Active; 'I' for Inactive)
    1  A    between atoms: C_11  and  C_28
    2  A    between atoms: C_28  and  C_30
                            x       y       z     vdW  Elec       q    Type
                         _______ _______ _______ _____ _____    ______ ____

>  <TORSDO>
F 2

$$$$
=
 OpenBabel11112416223D

 30 35  0  0  1  0  0  0  0  0999 V2000
  187.9920  176.5720  142.3770 C   0  0  0  0  0  0  0  0  0  0  0  0
  185.9090  177.9660  142.4890 C   0  0  0  0  0  0  0  0  0  0  0  0
  188.9940  177.5400  146.3350 N   0  0  0  0  0  0  0  0  0  0  0  0
  189.1600  176.0850  143.0210 C   0  0  0  0  0  0  0  0  0  0  0  0
  187.8030  176.2230  140.9260 C   0  0  0  0  0  2  0  0  0  0  0  0
  190.3650  173.7160  140.5360 O   0  0  0  0  0  0  0  0  0  0  0  0
  192.1390  176.1580  143.3570 C   0  0  1  0  0  3  0  0  0  0  0  0
  189.6150  174.5440  141.1250 C   0  0  0  0  0  0  0  0  0  0  0  0
  191.8130  176.5570  144.7460 N   0  0  2  0  0  0  0  0  0  0  0  0
  190.0920  176.8660  146.4790 C   0  0  0  0  0  0  0  0  0  0  0  0
  188.2150  174.7830  140.6290 C   0  0  2  0  0  3  0  0  0  0  0  0
  190.0660  175.2010  142.3230 N   0  0  0  0  0  0  0  0  0  0  0  0
  185.0770  178.8140  143.2270 C   0  0  0  0  0  3  0  0  0  0  0  0
  192.8740  175.9750  145.5590 C   0  0  0  0  0  2  0  0  0  0  0  0
  193.6370  175.9340  143.2860 C   0  0  0  0  0  2  0  0  0  0  0  0
  185.5280  177.6570  141.1890 O   0  0  0  0  0  1  0  0  0  0  0  0
  188.5530  177.3110  145.0090 C   0  0  0  0  0  0  0  0  0  0  0  0
  185.3910  179.1600  144.5390 C   0  0  0  0  0  3  0  0  0  0  0  0
  187.0940  177.4450  143.0720 C   0  0  0  0  0  0  0  0  0  0  0  0
  189.4010  176.4800  144.3370 C   0  0  0  0  0  0  0  0  0  0  0  0
  190.8160  176.8280  147.7790 C   0  0  0  0  0  1  0  0  0  0  0  0
  190.5140  176.0840  145.2500 C   0  0  1  0  0  3  0  0  0  0  0  0
  194.1250  175.9660  144.7140 C   0  0  0  0  0  2  0  0  0  0  0  0
  191.3900  173.8530  143.7400 O   0  0  0  0  0  1  0  0  0  0  0  0
  186.5450  178.6600  145.1330 C   0  0  0  0  0  3  0  0  0  0  0  0
  187.3950  177.8120  144.4170 C   0  0  0  0  0  0  0  0  0  0  0  0
  191.4140  174.9050  142.8190 C   0  0  2  0  0  3  0  0  0  0  0  0
  188.0950  174.5150  139.1310 C   0  0  0  0  0  2  0  0  0  0  0  0
  187.0040  175.2870  137.1510 O   0  0  0  0  0  1  0  0  0  0  0  0
  187.4360  175.6840  138.4170 C   0  0  0  0  0  2  0  0  0  0  0  0
  1  4  2  0  0  0  0
  1 19  1  0  0  0  0
  2 19  2  0  0  0  0
  2 13  1  0  0  0  0
  3 10  2  0  0  0  0
  4 20  1  0  0  0  0
  5  1  1  0  0  0  0
  6  8  2  0  0  0  0
  7 15  1  1  0  0  0
  7  9  1  0  0  0  0
  8 12  1  0  0  0  0
  9 22  1  0  0  0  0
  9 14  1  1  0  0  0
 10 21  1  0  0  0  0
 11 28  1  6  0  0  0
 11  5  1  0  0  0  0
 11  8  1  0  0  0  0
 12 27  1  0  0  0  0
 12  4  1  0  0  0  0
 13 18  2  0  0  0  0
 15 23  1  0  0  0  0
 16  2  1  0  0  0  0
 17  3  1  0  0  0  0
 18 25  1  0  0  0  0
 19 26  1  0  0  0  0
 20 17  2  0  0  0  0
 22 20  1  6  0  0  0
 22 10  1  0  0  0  0
 23 14  1  0  0  0  0
 26 17  1  0  0  0  0
 26 25  2  0  0  0  0
 27  7  1  0  0  0  0
 27 24  1  1  0  0  0
 29 30  1  0  0  0  0
 30 28  1  0  0  0  0
M  END
>  <MODEL>
7

>  <REMARK>
 VINA RESULT:      -7.6      2.431      5.681
  Name = 
  2 active torsions:
  status: ('A' for Active; 'I' for Inactive)
    1  A    between atoms: C_11  and  C_28
    2  A    between atoms: C_28  and  C_30
                            x       y       z     vdW  Elec       q    Type
                         _______ _______ _______ _____ _____    ______ ____

>  <TORSDO>
F 2

$$$$
=
 OpenBabel11112416223D

 30 35  0  0  1  0  0  0  0  0999 V2000
  188.1790  175.8000  142.1590 C   0  0  0  0  0  0  0  0  0  0  0  0
  186.6990  176.9090  140.4620 C   0  0  0  0  0  0  0  0  0  0  0  0
  186.6180  178.1770  145.2450 N   0  0  0  0  0  0  0  0  0  0  0  0
  188.6080  175.6980  143.5080 C   0  0  0  0  0  0  0  0  0  0  0  0
  188.8890  174.9550  141.1380 C   0  0  0  0  0  2  0  0  0  0  0  0
  190.7550  172.7650  143.3120 O   0  0  0  0  0  0  0  0  0  0  0  0
  190.7010  176.2100  145.5930 C   0  0  1  0  0  3  0  0  0  0  0  0
  189.9260  173.6580  142.9780 C   0  0  0  0  0  0  0  0  0  0  0  0
  189.6410  177.0240  146.2310 N   0  0  2  0  0  0  0  0  0  0  0  0
  187.2790  177.7190  146.2610 C   0  0  0  0  0  0  0  0  0  0  0  0
  189.1900  173.5560  141.6690 C   0  0  2  0  0  3  0  0  0  0  0  0
  189.6180  174.7330  143.8830 N   0  0  0  0  0  0  0  0  0  0  0  0
  185.7180  177.8620  140.1740 C   0  0  0  0  0  3  0  0  0  0  0  0
  189.8700  176.8790  147.6630 C   0  0  0  0  0  2  0  0  0  0  0  0
  191.8670  176.1420  146.5600 C   0  0  0  0  0  2  0  0  0  0  0  0
  187.1740  176.1310  139.4130 O   0  0  0  0  0  1  0  0  0  0  0  0
  187.0720  177.4580  144.1130 C   0  0  0  0  0  0  0  0  0  0  0  0
  185.1890  178.6710  141.1770 C   0  0  0  0  0  3  0  0  0  0  0  0
  187.1760  176.7550  141.7910 C   0  0  0  0  0  0  0  0  0  0  0  0
  188.0280  176.5460  144.4520 C   0  0  0  0  0  0  0  0  0  0  0  0
  187.0210  178.2110  147.6420 C   0  0  0  0  0  1  0  0  0  0  0  0
  188.2610  176.6140  145.9250 C   0  0  1  0  0  3  0  0  0  0  0  0
  191.3580  176.7170  147.8600 C   0  0  0  0  0  2  0  0  0  0  0  0
  189.5660  174.1100  146.1610 O   0  0  0  0  0  1  0  0  0  0  0  0
  185.6380  178.5370  142.4880 C   0  0  0  0  0  3  0  0  0  0  0  0
  186.6200  177.5930  142.8020 C   0  0  0  0  0  0  0  0  0  0  0  0
  190.3050  174.7770  145.1780 C   0  0  2  0  0  3  0  0  0  0  0  0
  189.9940  172.7760  140.6310 C   0  0  0  0  0  2  0  0  0  0  0  0
  188.2030  172.3300  139.1150 O   0  0  0  0  0  1  0  0  0  0  0  0
  189.4300  172.9820  139.2350 C   0  0  0  0  0  2  0  0  0  0  0  0
  1  4  1  0  0  0  0
  2 19  1  0  0  0  0
  3 10  2  0  0  0  0
  4 12  1  0  0  0  0
  4 20  2  0  0  0  0
  5 11  1  0  0  0  0
  5  1  1  0  0  0  0
  7  9  1  0  0  0  0
  7 15  1  1  0  0  0
  8  6  2  0  0  0  0
  8 12  1  0  0  0  0
  9 14  1  1  0  0  0
 10 21  1  0  0  0  0
 11 28  1  6  0  0  0
 11  8  1  0  0  0  0
 12 27  1  0  0  0  0
 13  2  2  0  0  0  0
 13 18  1  0  0  0  0
 14 23  1  0  0  0  0
 15 23  1  0  0  0  0
 16  2  1  0  0  0  0
 17 20  1  0  0  0  0
 17  3  1  0  0  0  0
 18 25  2  0  0  0  0
 19  1  2  0  0  0  0
 19 26  1  0  0  0  0
 22 20  1  6  0  0  0
 22  9  1  0  0  0  0
 22 10  1  0  0  0  0
 25 26  1  0  0  0  0
 26 17  2  0  0  0  0
 27  7  1  0  0  0  0
 27 24  1  1  0  0  0
 29 30  1  0  0  0  0
 30 28  1  0  0  0  0
M  END
>  <MODEL>
8

>  <REMARK>
 VINA RESULT:      -7.6      2.035      5.697
  Name = 
  2 active torsions:
  status: ('A' for Active; 'I' for Inactive)
    1  A    between atoms: C_11  and  C_28
    2  A    between atoms: C_28  and  C_30
                            x       y       z     vdW  Elec       q    Type
                         _______ _______ _______ _____ _____    ______ ____

>  <TORSDO>
F 2

$$$$
=
 OpenBabel11112416223D

 30 35  0  0  1  0  0  0  0  0999 V2000
  188.1690  175.9680  141.9410 C   0  0  0  0  0  0  0  0  0  0  0  0
  189.8570  174.2760  141.1740 C   0  0  0  0  0  0  0  0  0  0  0  0
  189.9800  176.2360  145.7170 N   0  0  0  0  0  0  0  0  0  0  0  0
  187.6850  176.8130  142.9730 C   0  0  0  0  0  0  0  0  0  0  0  0
  187.3690  175.8970  140.6690 C   0  0  0  0  0  2  0  0  0  0  0  0
  185.1160  178.6650  141.1810 O   0  0  0  0  0  0  0  0  0  0  0  0
  185.6310  177.3960  145.0790 C   0  0  1  0  0  3  0  0  0  0  0  0
  186.0830  177.8850  141.4030 C   0  0  0  0  0  0  0  0  0  0  0  0
  186.7840  177.3050  146.0040 N   0  0  2  0  0  0  0  0  0  0  0  0
  189.2230  177.1200  146.2860 C   0  0  0  0  0  0  0  0  0  0  0  0
  186.8360  177.2660  140.2560 C   0  0  2  0  0  3  0  0  0  0  0  0
  186.5260  177.6490  142.7520 N   0  0  0  0  0  0  0  0  0  0  0  0
  190.9840  173.4990  141.4590 C   0  0  0  0  0  3  0  0  0  0  0  0
  186.4900  178.2640  147.0620 C   0  0  0  0  0  2  0  0  0  0  0  0
  184.4380  177.8750  145.8830 C   0  0  0  0  0  2  0  0  0  0  0  0
  189.3010  174.1700  139.9050 O   0  0  0  0  0  1  0  0  0  0  0  0
  189.4560  176.0350  144.4170 C   0  0  0  0  0  0  0  0  0  0  0  0
  191.5990  173.5620  142.7070 C   0  0  0  0  0  3  0  0  0  0  0  0
  189.3190  175.1430  142.1620 C   0  0  0  0  0  0  0  0  0  0  0  0
  188.3590  176.8160  144.1950 C   0  0  0  0  0  0  0  0  0  0  0  0
  189.5100  177.6220  147.6580 C   0  0  0  0  0  1  0  0  0  0  0  0
  188.0930  177.6330  145.4160 C   0  0  1  0  0  3  0  0  0  0  0  0
  184.9890  178.2980  147.2240 C   0  0  0  0  0  2  0  0  0  0  0  0
  186.4060  179.5360  144.1660 O   0  0  0  0  0  1  0  0  0  0  0  0
  191.0930  174.4050  143.6910 C   0  0  0  0  0  3  0  0  0  0  0  0
  189.9660  175.1910  143.4330 C   0  0  0  0  0  0  0  0  0  0  0  0
  185.8130  178.3110  143.8490 C   0  0  2  0  0  3  0  0  0  0  0  0
  185.9550  177.1210  139.0190 C   0  0  0  0  0  2  0  0  0  0  0  0
  185.8070  176.0510  136.8880 O   0  0  0  0  0  1  0  0  0  0  0  0
  186.7000  176.4160  137.8960 C   0  0  0  0  0  2  0  0  0  0  0  0
  1 19  2  0  0  0  0
  1  4  1  0  0  0  0
  2 13  2  0  0  0  0
  2 19  1  0  0  0  0
  3 10  2  0  0  0  0
  4 20  2  0  0  0  0
  5  1  1  0  0  0  0
  6  8  2  0  0  0  0
  7 15  1  1  0  0  0
  7  9  1  0  0  0  0
  8 12  1  0  0  0  0
  9 14  1  1  0  0  0
 10 21  1  0  0  0  0
 11 28  1  6  0  0  0
 11  5  1  0  0  0  0
 11  8  1  0  0  0  0
 12  4  1  0  0  0  0
 12 27  1  0  0  0  0
 13 18  1  0  0  0  0
 14 23  1  0  0  0  0
 15 23  1  0  0  0  0
 16  2  1  0  0  0  0
 17  3  1  0  0  0  0
 18 25  2  0  0  0  0
 19 26  1  0  0  0  0
 20 17  1  0  0  0  0
 22 20  1  6  0  0  0
 22  9  1  0  0  0  0
 22 10  1  0  0  0  0
 26 25  1  0  0  0  0
 26 17  2  0  0  0  0
 27 24  1  1  0  0  0
 27  7  1  0  0  0  0
 29 30  1  0  0  0  0
 30 28  1  0  0  0  0
M  END
>  <MODEL>
9

>  <REMARK>
 VINA RESULT:      -7.5      2.396      7.284
  Name = 
  2 active torsions:
  status: ('A' for Active; 'I' for Inactive)
    1  A    between atoms: C_11  and  C_28
    2  A    between atoms: C_28  and  C_30
                            x       y       z     vdW  Elec       q    Type
                         _______ _______ _______ _____ _____    ______ ____

>  <TORSDO>
F 2

$$$$
