=
 OpenBabel11112416223D

 30 35  0  0  1  0  0  0  0  0999 V2000
  187.5290  176.4700  145.4600 C   0  0  0  0  0  0  0  0  0  0  0  0
  185.7170  177.6300  146.7440 C   0  0  0  0  0  0  0  0  0  0  0  0
  185.8200  177.7020  141.8180 N   0  0  0  0  0  2  0  0  0  0  0  0
  188.1120  176.1110  144.2050 C   0  0  0  0  0  0  0  0  0  0  0  0
  188.1590  176.0330  146.6250 C   0  0  0  0  0  3  0  0  0  0  0  0
  190.8940  174.2020  145.3020 O   0  0  0  0  0  0  0  0  0  0  0  0
  188.9090  174.0920  142.0070 C   0  0  1  0  0  3  0  0  0  0  0  0
  189.8480  174.9100  145.3370 C   0  0  0  0  0  0  0  0  0  0  0  0
  187.9110  174.9340  141.2070 C   0  0  2  0  0  3  0  0  0  0  0  0
  186.7690  177.1460  140.9210 C   0  0  0  0  0  0  0  0  0  0  0  0
  189.3090  175.2620  146.5780 C   0  0  0  0  0  0  0  0  0  0  0  0
  189.2500  175.3210  144.1720 N   0  0  0  0  0  0  0  0  0  0  0  0
  184.5470  178.3940  146.7400 C   0  0  0  0  0  3  0  0  0  0  0  0
  188.2440  174.7880  139.7950 N   0  0  0  0  0  2  0  0  0  0  0  0
  189.6730  173.2870  140.9830 C   0  0  0  0  0  2  0  0  0  0  0  0
  186.2250  177.2730  147.9500 F   0  0  0  0  0  0  0  0  0  0  0  0
  186.3110  177.3260  143.0970 C   0  0  0  0  0  0  0  0  0  0  0  0
  183.9670  178.7980  145.5390 C   0  0  0  0  0  3  0  0  0  0  0  0
  186.3350  177.2530  145.5200 C   0  0  0  0  0  0  0  0  0  0  0  0
  187.4690  176.5770  143.0340 C   0  0  0  0  0  0  0  0  0  0  0  0
  186.6880  177.3040  139.6740 O   0  0  0  0  0  0  0  0  0  0  0  0
  187.8820  176.4110  141.6030 C   0  0  1  0  0  3  0  0  0  0  0  0
  188.9330  173.5130  139.6860 C   0  0  0  0  0  2  0  0  0  0  0  0
  190.7250  175.9400  142.2560 C   0  0  0  0  0  1  0  0  0  0  0  0
  184.5540  178.4410  144.3290 C   0  0  0  0  0  3  0  0  0  0  0  0
  185.7250  177.6750  144.3090 C   0  0  0  0  0  0  0  0  0  0  0  0
  189.8760  174.8600  142.9220 C   0  0  2  0  0  3  0  0  0  0  0  0
  189.9520  174.8410  147.8590 C   0  0  0  0  0  2  0  0  0  0  0  0
  191.2510  176.9120  148.2350 C   0  0  0  0  0  1  0  0  0  0  0  0
  191.3470  175.4270  147.9600 C   0  0  0  0  0  2  0  0  0  0  0  0
  1 19  1  0  0  0  0
  1  5  1  0  0  0  0
  2 16  1  0  0  0  0
  3 17  1  0  0  0  0
  4  1  2  0  0  0  0
  6  8  2  0  0  0  0
  7 15  1  6  0  0  0
  7 27  1  0  0  0  0
  8 11  1  0  0  0  0
  9 14  1  6  0  0  0
  9 22  1  0  0  0  0
  9  7  1  0  0  0  0
 10  3  1  0  0  0  0
 11  5  2  0  0  0  0
 11 28  1  0  0  0  0
 12  4  1  0  0  0  0
 12  8  1  0  0  0  0
 13  2  1  0  0  0  0
 17 26  1  0  0  0  0
 18 13  2  0  0  0  0
 19  2  2  0  0  0  0
 20 17  2  0  0  0  0
 20  4  1  0  0  0  0
 21 10  2  0  0  0  0
 22 10  1  6  0  0  0
 22 20  1  0  0  0  0
 23 14  1  0  0  0  0
 23 15  1  0  0  0  0
 25 18  1  0  0  0  0
 26 25  2  0  0  0  0
 26 19  1  0  0  0  0
 27 24  1  6  0  0  0
 27 12  1  0  0  0  0
 28 30  1  0  0  0  0
 30 29  1  0  0  0  0
M  END
>  <MODEL>
1

>  <REMARK>
 VINA RESULT:      -9.4      0.000      0.000
  Name = 
  2 active torsions:
  status: ('A' for Active; 'I' for Inactive)
    1  A    between atoms: C_11  and  C_28
    2  A    between atoms: C_28  and  C_30
                            x       y       z     vdW  Elec       q    Type
                         _______ _______ _______ _____ _____    ______ ____

>  <TORSDO>
F 2

$$$$
=
 OpenBabel11112416223D

 30 35  0  0  1  0  0  0  0  0999 V2000
  186.2300  177.2900  143.7570 C   0  0  0  0  0  0  0  0  0  0  0  0
  184.5470  178.4690  145.1910 C   0  0  0  0  0  0  0  0  0  0  0  0
  188.3400  176.0260  147.1710 N   0  0  0  0  0  2  0  0  0  0  0  0
  187.4190  176.5040  143.6480 C   0  0  0  0  0  0  0  0  0  0  0  0
  185.5790  177.6630  142.5810 C   0  0  0  0  0  3  0  0  0  0  0  0
  187.6910  176.2200  140.1220 O   0  0  0  0  0  0  0  0  0  0  0  0
  190.3770  176.0630  142.8730 C   0  0  1  0  0  3  0  0  0  0  0  0
  187.2460  176.5440  141.2600 C   0  0  0  0  0  0  0  0  0  0  0  0
  190.4980  175.8850  144.3900 C   0  0  2  0  0  3  0  0  0  0  0  0
  189.3650  175.2730  146.5390 C   0  0  0  0  0  0  0  0  0  0  0  0
  186.0710  177.2980  141.3390 C   0  0  0  0  0  0  0  0  0  0  0  0
  187.9120  176.1650  142.3980 N   0  0  0  0  0  0  0  0  0  0  0  0
  184.1010  178.8270  146.4660 C   0  0  0  0  0  3  0  0  0  0  0  0
  191.6820  175.0730  144.6430 N   0  0  0  0  0  2  0  0  0  0  0  0
  191.6610  175.5170  142.2970 C   0  0  0  0  0  2  0  0  0  0  0  0
  183.8170  178.8970  144.1310 F   0  0  0  0  0  0  0  0  0  0  0  0
  187.5670  176.5110  146.0830 C   0  0  0  0  0  0  0  0  0  0  0  0
  184.7980  178.4230  147.6020 C   0  0  0  0  0  3  0  0  0  0  0  0
  185.7220  177.6850  145.0340 C   0  0  0  0  0  0  0  0  0  0  0  0
  188.0560  176.1210  144.8520 C   0  0  0  0  0  0  0  0  0  0  0  0
  190.2410  174.6480  147.1940 O   0  0  0  0  0  0  0  0  0  0  0  0
  189.2670  175.2580  145.0440 C   0  0  1  0  0  3  0  0  0  0  0  0
  192.5480  175.2760  143.4940 C   0  0  0  0  0  2  0  0  0  0  0  0
  188.9820  173.9110  142.4300 C   0  0  0  0  0  1  0  0  0  0  0  0
  185.9510  177.6540  147.4730 C   0  0  0  0  0  3  0  0  0  0  0  0
  186.4170  177.2840  146.2060 C   0  0  0  0  0  0  0  0  0  0  0  0
  189.1590  175.4100  142.2000 C   0  0  2  0  0  3  0  0  0  0  0  0
  185.3200  177.7070  140.1130 C   0  0  0  0  0  2  0  0  0  0  0  0
  182.8510  177.8090  140.2300 C   0  0  0  0  0  1  0  0  0  0  0  0
  184.1320  178.5710  140.4930 C   0  0  0  0  0  2  0  0  0  0  0  0
  1 19  1  0  0  0  0
  2 13  1  0  0  0  0
  4  1  2  0  0  0  0
  4 20  1  0  0  0  0
  5  1  1  0  0  0  0
  6  8  2  0  0  0  0
  7 15  1  6  0  0  0
  7  9  1  0  0  0  0
  8 11  1  0  0  0  0
  8 12  1  0  0  0  0
  9 14  1  6  0  0  0
  9 22  1  0  0  0  0
 10  3  1  0  0  0  0
 10 21  2  0  0  0  0
 11  5  2  0  0  0  0
 12  4  1  0  0  0  0
 13 18  2  0  0  0  0
 15 23  1  0  0  0  0
 16  2  1  0  0  0  0
 17 26  1  0  0  0  0
 17  3  1  0  0  0  0
 19  2  2  0  0  0  0
 19 26  1  0  0  0  0
 20 17  2  0  0  0  0
 22 20  1  1  0  0  0
 22 10  1  0  0  0  0
 23 14  1  0  0  0  0
 25 18  1  0  0  0  0
 26 25  2  0  0  0  0
 27 12  1  0  0  0  0
 27 24  1  1  0  0  0
 27  7  1  0  0  0  0
 28 30  1  0  0  0  0
 28 11  1  0  0  0  0
 29 30  1  0  0  0  0
M  END
>  <MODEL>
2

>  <REMARK>
 VINA RESULT:      -9.4      1.814      5.279
  Name = 
  2 active torsions:
  status: ('A' for Active; 'I' for Inactive)
    1  A    between atoms: C_11  and  C_28
    2  A    between atoms: C_28  and  C_30
                            x       y       z     vdW  Elec       q    Type
                         _______ _______ _______ _____ _____    ______ ____

>  <TORSDO>
F 2

$$$$
=
 OpenBabel11112416223D

 30 35  0  0  1  0  0  0  0  0999 V2000
  188.3270  176.9230  145.6360 C   0  0  0  0  0  0  0  0  0  0  0  0
  186.5280  178.2550  146.7630 C   0  0  0  0  0  0  0  0  0  0  0  0
  186.3390  177.2520  141.9430 N   0  0  0  0  0  2  0  0  0  0  0  0
  188.8560  176.3240  144.4510 C   0  0  0  0  0  0  0  0  0  0  0  0
  189.0480  176.7800  146.8220 C   0  0  0  0  0  3  0  0  0  0  0  0
  191.8040  174.8270  145.7370 O   0  0  0  0  0  0  0  0  0  0  0  0
  189.6400  173.9110  142.6890 C   0  0  1  0  0  3  0  0  0  0  0  0
  190.7220  175.4790  145.6910 C   0  0  0  0  0  0  0  0  0  0  0  0
  188.5490  174.5120  141.7980 C   0  0  2  0  0  3  0  0  0  0  0  0
  187.2650  176.5550  141.1220 C   0  0  0  0  0  0  0  0  0  0  0  0
  190.2360  176.0690  146.8620 C   0  0  0  0  0  0  0  0  0  0  0  0
  190.0340  175.5980  144.5100 N   0  0  0  0  0  0  0  0  0  0  0  0
  185.3170  178.9460  146.6760 C   0  0  0  0  0  3  0  0  0  0  0  0
  188.8080  174.0760  140.4320 N   0  0  0  0  0  2  0  0  0  0  0  0
  190.3880  172.9360  141.8130 C   0  0  0  0  0  2  0  0  0  0  0  0
  187.1260  178.1940  147.9790 F   0  0  0  0  0  0  0  0  0  0  0  0
  186.9250  177.1870  143.2350 C   0  0  0  0  0  0  0  0  0  0  0  0
  184.6450  179.0520  145.4600 C   0  0  0  0  0  3  0  0  0  0  0  0
  187.0940  177.6460  145.6100 C   0  0  0  0  0  0  0  0  0  0  0  0
  188.1200  176.4940  143.2550 C   0  0  0  0  0  0  0  0  0  0  0  0
  187.1020  176.4320  139.8800 O   0  0  0  0  0  0  0  0  0  0  0  0
  188.4570  176.0370  141.8670 C   0  0  1  0  0  3  0  0  0  0  0  0
  189.5620  172.8390  140.5530 C   0  0  0  0  0  2  0  0  0  0  0  0
  191.3560  175.8480  142.4080 C   0  0  0  0  0  1  0  0  0  0  0  0
  185.1810  178.4650  144.3170 C   0  0  0  0  0  3  0  0  0  0  0  0
  186.3920  177.7660  144.3810 C   0  0  0  0  0  0  0  0  0  0  0  0
  190.6120  174.9030  143.3480 C   0  0  2  0  0  3  0  0  0  0  0  0
  190.9770  175.9680  148.1550 C   0  0  0  0  0  2  0  0  0  0  0  0
  191.4060  177.9570  149.5630 C   0  0  0  0  0  1  0  0  0  0  0  0
  191.8650  177.1820  148.3450 C   0  0  0  0  0  2  0  0  0  0  0  0
  1  5  1  0  0  0  0
  2 16  1  0  0  0  0
  3 17  1  0  0  0  0
  4 12  1  0  0  0  0
  4  1  2  0  0  0  0
  5 11  2  0  0  0  0
  7 15  1  6  0  0  0
  7 27  1  0  0  0  0
  8  6  2  0  0  0  0
  8 11  1  0  0  0  0
  9 14  1  6  0  0  0
  9 22  1  0  0  0  0
  9  7  1  0  0  0  0
 10  3  1  0  0  0  0
 11 28  1  0  0  0  0
 12  8  1  0  0  0  0
 13  2  1  0  0  0  0
 14 23  1  0  0  0  0
 17 20  2  0  0  0  0
 17 26  1  0  0  0  0
 18 13  2  0  0  0  0
 19  1  1  0  0  0  0
 19  2  2  0  0  0  0
 20  4  1  0  0  0  0
 21 10  2  0  0  0  0
 22 10  1  6  0  0  0
 22 20  1  0  0  0  0
 23 15  1  0  0  0  0
 25 26  2  0  0  0  0
 25 18  1  0  0  0  0
 26 19  1  0  0  0  0
 27 24  1  6  0  0  0
 27 12  1  0  0  0  0
 28 30  1  0  0  0  0
 30 29  1  0  0  0  0
M  END
>  <MODEL>
3

>  <REMARK>
 VINA RESULT:      -9.0      0.939      1.053
  Name = 
  2 active torsions:
  status: ('A' for Active; 'I' for Inactive)
    1  A    between atoms: C_11  and  C_28
    2  A    between atoms: C_28  and  C_30
                            x       y       z     vdW  Elec       q    Type
                         _______ _______ _______ _____ _____    ______ ____

>  <TORSDO>
F 2

$$$$
=
 OpenBabel11112416223D

 30 35  0  0  1  0  0  0  0  0999 V2000
  188.3240  176.0260  143.6090 C   0  0  0  0  0  0  0  0  0  0  0  0
  186.0310  176.9850  143.9330 C   0  0  0  0  0  0  0  0  0  0  0  0
  189.4640  177.2980  147.4540 N   0  0  0  0  0  2  0  0  0  0  0  0
  189.6400  175.7870  144.1120 C   0  0  0  0  0  0  0  0  0  0  0  0
  188.0160  175.5660  142.3290 C   0  0  0  0  0  3  0  0  0  0  0  0
  191.0950  174.1020  141.3500 O   0  0  0  0  0  0  0  0  0  0  0  0
  192.7010  176.2000  144.1470 C   0  0  1  0  0  3  0  0  0  0  0  0
  190.2410  174.7000  142.0640 C   0  0  0  0  0  0  0  0  0  0  0  0
  192.3670  176.7690  145.5300 C   0  0  2  0  0  3  0  0  0  0  0  0
  190.7910  176.7920  147.4770 C   0  0  0  0  0  0  0  0  0  0  0  0
  188.9560  174.9060  141.5550 C   0  0  0  0  0  0  0  0  0  0  0  0
  190.5770  175.1440  143.3180 N   0  0  0  0  0  0  0  0  0  0  0  0
  185.1240  177.6710  144.7450 C   0  0  0  0  0  3  0  0  0  0  0  0
  193.5680  176.6660  146.3490 N   0  0  0  0  0  2  0  0  0  0  0  0
  194.1950  175.9840  144.1480 C   0  0  0  0  0  2  0  0  0  0  0  0
  185.6000  176.5910  142.7090 F   0  0  0  0  0  0  0  0  0  0  0  0
  188.9880  176.9220  146.1700 C   0  0  0  0  0  0  0  0  0  0  0  0
  185.4940  178.1060  146.0160 C   0  0  0  0  0  3  0  0  0  0  0  0
  187.3500  176.7200  144.3930 C   0  0  0  0  0  0  0  0  0  0  0  0
  189.9290  176.2460  145.4180 C   0  0  0  0  0  0  0  0  0  0  0  0
  191.5340  176.9020  148.4870 O   0  0  0  0  0  0  0  0  0  0  0  0
  191.1860  176.0830  146.2180 C   0  0  1  0  0  3  0  0  0  0  0  0
  194.6800  176.6500  145.4130 C   0  0  0  0  0  2  0  0  0  0  0  0
  192.1030  173.7260  144.6910 C   0  0  0  0  0  1  0  0  0  0  0  0
  186.7800  177.8570  146.4870 C   0  0  0  0  0  3  0  0  0  0  0  0
  187.7060  177.1730  145.6910 C   0  0  0  0  0  0  0  0  0  0  0  0
  191.9670  174.9120  143.7400 C   0  0  2  0  0  3  0  0  0  0  0  0
  188.5630  174.4160  140.1990 C   0  0  0  0  0  2  0  0  0  0  0  0
  188.6390  172.2770  138.9570 C   0  0  0  0  0  1  0  0  0  0  0  0
  188.2260  172.9390  140.2550 C   0  0  0  0  0  2  0  0  0  0  0  0
  1  4  2  0  0  0  0
  1 19  1  0  0  0  0
  2 19  2  0  0  0  0
  2 13  1  0  0  0  0
  3 10  1  0  0  0  0
  4 20  1  0  0  0  0
  5  1  1  0  0  0  0
  6  8  2  0  0  0  0
  7 15  1  1  0  0  0
  7  9  1  0  0  0  0
  8 12  1  0  0  0  0
  9 22  1  0  0  0  0
  9 14  1  1  0  0  0
 10 21  2  0  0  0  0
 11  8  1  0  0  0  0
 11  5  2  0  0  0  0
 12 27  1  0  0  0  0
 12  4  1  0  0  0  0
 13 18  2  0  0  0  0
 15 23  1  0  0  0  0
 16  2  1  0  0  0  0
 17  3  1  0  0  0  0
 18 25  1  0  0  0  0
 19 26  1  0  0  0  0
 20 17  2  0  0  0  0
 22 20  1  6  0  0  0
 22 10  1  0  0  0  0
 23 14  1  0  0  0  0
 26 17  1  0  0  0  0
 26 25  2  0  0  0  0
 27  7  1  0  0  0  0
 27 24  1  1  0  0  0
 28 30  1  0  0  0  0
 28 11  1  0  0  0  0
 29 30  1  0  0  0  0
M  END
>  <MODEL>
4

>  <REMARK>
 VINA RESULT:      -8.6      2.515      5.573
  Name = 
  2 active torsions:
  status: ('A' for Active; 'I' for Inactive)
    1  A    between atoms: C_11  and  C_28
    2  A    between atoms: C_28  and  C_30
                            x       y       z     vdW  Elec       q    Type
                         _______ _______ _______ _____ _____    ______ ____

>  <TORSDO>
F 2

$$$$
=
 OpenBabel11112416223D

 30 35  0  0  1  0  0  0  0  0999 V2000
  188.3990  175.7610  142.1160 C   0  0  0  0  0  0  0  0  0  0  0  0
  186.8630  176.8110  140.4370 C   0  0  0  0  0  0  0  0  0  0  0  0
  186.7610  178.1280  145.1840 N   0  0  0  0  0  2  0  0  0  0  0  0
  188.8700  175.6640  143.4620 C   0  0  0  0  0  0  0  0  0  0  0  0
  188.9840  174.9360  141.1540 C   0  0  0  0  0  3  0  0  0  0  0  0
  191.3870  173.1910  143.0950 O   0  0  0  0  0  0  0  0  0  0  0  0
  190.9950  176.0170  145.6770 C   0  0  1  0  0  3  0  0  0  0  0  0
  190.4550  173.9930  142.8040 C   0  0  0  0  0  0  0  0  0  0  0  0
  189.9340  176.9880  146.2060 C   0  0  2  0  0  3  0  0  0  0  0  0
  187.5140  177.6320  146.2810 C   0  0  0  0  0  0  0  0  0  0  0  0
  190.0010  174.0550  141.4830 C   0  0  0  0  0  0  0  0  0  0  0  0
  189.9030  174.7940  143.7720 N   0  0  0  0  0  0  0  0  0  0  0  0
  185.8480  177.7270  140.1520 C   0  0  0  0  0  3  0  0  0  0  0  0
  190.1380  177.1200  147.6430 N   0  0  0  0  0  2  0  0  0  0  0  0
  191.9440  175.7870  146.8280 C   0  0  0  0  0  2  0  0  0  0  0  0
  187.3420  176.0690  139.4080 F   0  0  0  0  0  0  0  0  0  0  0  0
  187.2560  177.3860  144.0790 C   0  0  0  0  0  0  0  0  0  0  0  0
  185.3060  178.5240  141.1580 C   0  0  0  0  0  3  0  0  0  0  0  0
  187.3600  176.6770  141.7620 C   0  0  0  0  0  0  0  0  0  0  0  0
  188.2540  176.4960  144.4260 C   0  0  0  0  0  0  0  0  0  0  0  0
  187.3270  178.0340  147.4600 O   0  0  0  0  0  0  0  0  0  0  0  0
  188.4960  176.5650  145.9040 C   0  0  1  0  0  3  0  0  0  0  0  0
  191.5370  176.8000  147.8700 C   0  0  0  0  0  2  0  0  0  0  0  0
  189.6230  173.8390  146.0600 C   0  0  0  0  0  1  0  0  0  0  0  0
  185.7770  178.4100  142.4630 C   0  0  0  0  0  3  0  0  0  0  0  0
  186.7940  177.4990  142.7720 C   0  0  0  0  0  0  0  0  0  0  0  0
  190.4830  174.6790  145.1200 C   0  0  2  0  0  3  0  0  0  0  0  0
  190.5750  173.1800  140.4160 C   0  0  0  0  0  2  0  0  0  0  0  0
  189.2360  172.1040  138.6360 C   0  0  0  0  0  1  0  0  0  0  0  0
  189.8460  173.4080  139.1060 C   0  0  0  0  0  2  0  0  0  0  0  0
  1  4  1  0  0  0  0
  2 19  1  0  0  0  0
  3 10  1  0  0  0  0
  4 12  1  0  0  0  0
  4 20  2  0  0  0  0
  5 11  2  0  0  0  0
  5  1  1  0  0  0  0
  7  9  1  0  0  0  0
  7 15  1  1  0  0  0
  8  6  2  0  0  0  0
  8 12  1  0  0  0  0
  9 14  1  1  0  0  0
 10 21  2  0  0  0  0
 11  8  1  0  0  0  0
 12 27  1  0  0  0  0
 13  2  2  0  0  0  0
 13 18  1  0  0  0  0
 14 23  1  0  0  0  0
 15 23  1  0  0  0  0
 16  2  1  0  0  0  0
 17 20  1  0  0  0  0
 17  3  1  0  0  0  0
 18 25  2  0  0  0  0
 19  1  2  0  0  0  0
 19 26  1  0  0  0  0
 22 20  1  6  0  0  0
 22  9  1  0  0  0  0
 22 10  1  0  0  0  0
 25 26  1  0  0  0  0
 26 17  2  0  0  0  0
 27  7  1  0  0  0  0
 27 24  1  1  0  0  0
 28 11  1  0  0  0  0
 29 30  1  0  0  0  0
 30 28  1  0  0  0  0
M  END
>  <MODEL>
5

>  <REMARK>
 VINA RESULT:      -8.3      2.731      5.676
  Name = 
  2 active torsions:
  status: ('A' for Active; 'I' for Inactive)
    1  A    between atoms: C_11  and  C_28
    2  A    between atoms: C_28  and  C_30
                            x       y       z     vdW  Elec       q    Type
                         _______ _______ _______ _____ _____    ______ ____

>  <TORSDO>
F 2

$$$$
=
 OpenBabel11112416223D

 30 35  0  0  1  0  0  0  0  0999 V2000
  189.0890  176.1690  144.9920 C   0  0  0  0  0  0  0  0  0  0  0  0
  190.1520  177.0130  147.0980 C   0  0  0  0  0  0  0  0  0  0  0  0
  191.9590  173.1050  144.7030 N   0  0  0  0  0  2  0  0  0  0  0  0
  189.0730  175.2330  143.9110 C   0  0  0  0  0  0  0  0  0  0  0  0
  188.0990  177.1500  145.0260 C   0  0  0  0  0  3  0  0  0  0  0  0
  186.2650  176.4000  142.0830 O   0  0  0  0  0  0  0  0  0  0  0  0
  189.3730  174.4380  140.9410 C   0  0  1  0  0  3  0  0  0  0  0  0
  187.1480  176.3160  142.9830 C   0  0  0  0  0  0  0  0  0  0  0  0
  190.5240  173.6150  141.5260 C   0  0  2  0  0  3  0  0  0  0  0  0
  191.4850  172.4590  143.5310 C   0  0  0  0  0  0  0  0  0  0  0  0
  187.1310  177.2330  144.0380 C   0  0  0  0  0  0  0  0  0  0  0  0
  188.1110  175.3400  142.9190 N   0  0  0  0  0  0  0  0  0  0  0  0
  191.1590  176.9010  148.0600 C   0  0  0  0  0  3  0  0  0  0  0  0
  190.7780  172.5050  140.6150 N   0  0  0  0  0  2  0  0  0  0  0  0
  189.1410  173.8840  139.5560 C   0  0  0  0  0  2  0  0  0  0  0  0
  189.2500  178.0140  147.2530 F   0  0  0  0  0  0  0  0  0  0  0  0
  191.0460  174.1790  144.8820 C   0  0  0  0  0  0  0  0  0  0  0  0
  192.1200  175.8970  147.9680 C   0  0  0  0  0  3  0  0  0  0  0  0
  190.0920  176.1030  146.0080 C   0  0  0  0  0  0  0  0  0  0  0  0
  190.0750  174.2350  143.9020 C   0  0  0  0  0  0  0  0  0  0  0  0
  192.0290  171.4210  143.0700 O   0  0  0  0  0  0  0  0  0  0  0  0
  190.2650  173.0990  142.9420 C   0  0  1  0  0  3  0  0  0  0  0  0
  190.3020  172.9500  139.3160 C   0  0  0  0  0  2  0  0  0  0  0  0
  187.4450  173.0940  142.0600 C   0  0  0  0  0  1  0  0  0  0  0  0
  192.0820  174.9940  146.9100 C   0  0  0  0  0  3  0  0  0  0  0  0
  191.0830  175.0880  145.9340 C   0  0  0  0  0  0  0  0  0  0  0  0
  188.0620  174.4540  141.7450 C   0  0  2  0  0  3  0  0  0  0  0  0
  186.0820  178.2920  144.1380 C   0  0  0  0  0  2  0  0  0  0  0  0
  184.3960  178.6360  145.9150 C   0  0  0  0  0  1  0  0  0  0  0  0
  185.8730  178.6850  145.5880 C   0  0  0  0  0  2  0  0  0  0  0  0
  1  5  1  0  0  0  0
  1 19  1  0  0  0  0
  2 16  1  0  0  0  0
  2 13  1  0  0  0  0
  3 17  1  0  0  0  0
  4  1  2  0  0  0  0
  6  8  2  0  0  0  0
  7 15  1  6  0  0  0
  7  9  1  0  0  0  0
  7 27  1  0  0  0  0
  8 11  1  0  0  0  0
  9 14  1  6  0  0  0
  9 22  1  0  0  0  0
 10  3  1  0  0  0  0
 11 28  1  0  0  0  0
 11  5  2  0  0  0  0
 12  8  1  0  0  0  0
 12  4  1  0  0  0  0
 17 26  1  0  0  0  0
 18 13  2  0  0  0  0
 19  2  2  0  0  0  0
 20  4  1  0  0  0  0
 20 17  2  0  0  0  0
 21 10  2  0  0  0  0
 22 10  1  1  0  0  0
 22 20  1  0  0  0  0
 23 15  1  0  0  0  0
 23 14  1  0  0  0  0
 25 18  1  0  0  0  0
 26 19  1  0  0  0  0
 26 25  2  0  0  0  0
 27 24  1  1  0  0  0
 27 12  1  0  0  0  0
 28 30  1  0  0  0  0
 30 29  1  0  0  0  0
M  END
>  <MODEL>
6

>  <REMARK>
 VINA RESULT:      -8.2      1.834      5.224
  Name = 
  2 active torsions:
  status: ('A' for Active; 'I' for Inactive)
    1  A    between atoms: C_11  and  C_28
    2  A    between atoms: C_28  and  C_30
                            x       y       z     vdW  Elec       q    Type
                         _______ _______ _______ _____ _____    ______ ____

>  <TORSDO>
F 2

$$$$
=
 OpenBabel11112416223D

 30 35  0  0  1  0  0  0  0  0999 V2000
  188.0720  176.1430  142.6220 C   0  0  0  0  0  0  0  0  0  0  0  0
  186.0450  177.5900  142.3410 C   0  0  0  0  0  0  0  0  0  0  0  0
  188.7720  177.7650  146.4410 N   0  0  0  0  0  2  0  0  0  0  0  0
  189.1850  175.7250  143.4150 C   0  0  0  0  0  0  0  0  0  0  0  0
  187.8990  175.5530  141.3700 C   0  0  0  0  0  3  0  0  0  0  0  0
  190.6770  173.3510  141.2420 O   0  0  0  0  0  0  0  0  0  0  0  0
  192.2020  175.5050  144.0430 C   0  0  1  0  0  3  0  0  0  0  0  0
  189.8730  174.2190  141.6840 C   0  0  0  0  0  0  0  0  0  0  0  0
  191.7680  176.3480  145.2460 C   0  0  2  0  0  3  0  0  0  0  0  0
  189.9190  177.0100  146.8020 C   0  0  0  0  0  0  0  0  0  0  0  0
  188.7820  174.5980  140.8960 C   0  0  0  0  0  0  0  0  0  0  0  0
  190.0730  174.7840  142.9190 N   0  0  0  0  0  0  0  0  0  0  0  0
  185.1920  178.5700  142.8560 C   0  0  0  0  0  3  0  0  0  0  0  0
  192.7460  176.1370  146.3060 N   0  0  0  0  0  2  0  0  0  0  0  0
  193.5800  174.9910  144.3830 C   0  0  0  0  0  2  0  0  0  0  0  0
  185.7600  177.0980  141.1090 F   0  0  0  0  0  0  0  0  0  0  0  0
  188.4590  177.2900  145.1390 C   0  0  0  0  0  0  0  0  0  0  0  0
  185.4210  179.1210  144.1140 C   0  0  0  0  0  3  0  0  0  0  0  0
  187.1620  177.1400  143.0960 C   0  0  0  0  0  0  0  0  0  0  0  0
  189.3350  176.3230  144.6890 C   0  0  0  0  0  0  0  0  0  0  0  0
  190.4750  177.1300  147.9260 O   0  0  0  0  0  0  0  0  0  0  0  0
  190.3570  176.0400  145.7480 C   0  0  1  0  0  3  0  0  0  0  0  0
  193.9720  175.7420  145.6330 C   0  0  0  0  0  2  0  0  0  0  0  0
  190.9580  173.3270  144.7420 C   0  0  0  0  0  1  0  0  0  0  0  0
  186.5090  178.6950  144.8710 C   0  0  0  0  0  3  0  0  0  0  0  0
  187.3770  177.7160  144.3760 C   0  0  0  0  0  0  0  0  0  0  0  0
  191.2730  174.3450  143.6480 C   0  0  2  0  0  3  0  0  0  0  0  0
  188.5350  173.9830  139.5560 C   0  0  0  0  0  2  0  0  0  0  0  0
  188.1150  174.6590  137.2130 C   0  0  0  0  0  1  0  0  0  0  0  0
  187.7960  174.9600  138.6620 C   0  0  0  0  0  2  0  0  0  0  0  0
  1 19  2  0  0  0  0
  1  4  1  0  0  0  0
  2 13  2  0  0  0  0
  2 19  1  0  0  0  0
  3 10  1  0  0  0  0
  4 20  2  0  0  0  0
  5  1  1  0  0  0  0
  6  8  2  0  0  0  0
  7 15  1  1  0  0  0
  7  9  1  0  0  0  0
  8 12  1  0  0  0  0
  9 22  1  0  0  0  0
  9 14  1  1  0  0  0
 10 21  2  0  0  0  0
 11  5  2  0  0  0  0
 11  8  1  0  0  0  0
 12  4  1  0  0  0  0
 12 27  1  0  0  0  0
 13 18  1  0  0  0  0
 15 23  1  0  0  0  0
 16  2  1  0  0  0  0
 17  3  1  0  0  0  0
 18 25  2  0  0  0  0
 19 26  1  0  0  0  0
 20 17  1  0  0  0  0
 22 20  1  6  0  0  0
 22 10  1  0  0  0  0
 23 14  1  0  0  0  0
 26 25  1  0  0  0  0
 26 17  2  0  0  0  0
 27  7  1  0  0  0  0
 27 24  1  1  0  0  0
 28 11  1  0  0  0  0
 29 30  1  0  0  0  0
 30 28  1  0  0  0  0
M  END
>  <MODEL>
7

>  <REMARK>
 VINA RESULT:      -8.0      2.601      5.578
  Name = 
  2 active torsions:
  status: ('A' for Active; 'I' for Inactive)
    1  A    between atoms: C_11  and  C_28
    2  A    between atoms: C_28  and  C_30
                            x       y       z     vdW  Elec       q    Type
                         _______ _______ _______ _____ _____    ______ ____

>  <TORSDO>
F 2

$$$$
=
 OpenBabel11112416223D

 30 35  0  0  1  0  0  0  0  0999 V2000
  190.2030  174.6510  143.9840 C   0  0  0  0  0  0  0  0  0  0  0  0
  192.3510  173.3770  144.1870 C   0  0  0  0  0  0  0  0  0  0  0  0
  191.1070  176.8450  147.4580 N   0  0  0  0  0  2  0  0  0  0  0  0
  189.3090  175.6440  144.4900 C   0  0  0  0  0  0  0  0  0  0  0  0
  189.8400  173.9710  142.8210 C   0  0  0  0  0  3  0  0  0  0  0  0
  186.6860  175.4330  142.1100 O   0  0  0  0  0  0  0  0  0  0  0  0
  186.6630  176.5780  145.7840 C   0  0  1  0  0  3  0  0  0  0  0  0
  187.7780  175.2000  142.7010 C   0  0  0  0  0  0  0  0  0  0  0  0
  187.6340  177.0100  146.8870 C   0  0  2  0  0  3  0  0  0  0  0  0
  189.9670  177.6920  147.4960 C   0  0  0  0  0  0  0  0  0  0  0  0
  188.6430  174.2360  142.1750 C   0  0  0  0  0  0  0  0  0  0  0  0
  188.1050  175.8830  143.8460 N   0  0  0  0  0  0  0  0  0  0  0  0
  193.5380  173.1330  144.8830 C   0  0  0  0  0  3  0  0  0  0  0  0
  186.9960  178.0840  147.6380 N   0  0  0  0  0  2  0  0  0  0  0  0
  185.3660  177.2890  146.0840 C   0  0  0  0  0  2  0  0  0  0  0  0
  192.1230  172.6450  143.0680 F   0  0  0  0  0  0  0  0  0  0  0  0
  190.8870  176.0440  146.3050 C   0  0  0  0  0  0  0  0  0  0  0  0
  193.8420  173.8470  146.0410 C   0  0  0  0  0  3  0  0  0  0  0  0
  191.4340  174.3590  144.6500 C   0  0  0  0  0  0  0  0  0  0  0  0
  189.7010  176.3350  145.6600 C   0  0  0  0  0  0  0  0  0  0  0  0
  189.8200  178.5810  148.3750 O   0  0  0  0  0  0  0  0  0  0  0  0
  189.0040  177.4540  146.3730 C   0  0  1  0  0  3  0  0  0  0  0  0
  185.5670  177.8950  147.4520 C   0  0  0  0  0  2  0  0  0  0  0  0
  187.4640  178.2910  143.9940 C   0  0  0  0  0  1  0  0  0  0  0  0
  192.9580  174.8130  146.5130 C   0  0  0  0  0  3  0  0  0  0  0  0
  191.7640  175.0730  145.8320 C   0  0  0  0  0  0  0  0  0  0  0  0
  187.1060  176.8460  144.3360 C   0  0  2  0  0  3  0  0  0  0  0  0
  188.3160  173.4930  140.9210 C   0  0  0  0  0  2  0  0  0  0  0  0
  188.1930  173.9130  138.4860 C   0  0  0  0  0  1  0  0  0  0  0  0
  189.0160  174.1320  139.7380 C   0  0  0  0  0  2  0  0  0  0  0  0
  1  4  2  0  0  0  0
  1 19  1  0  0  0  0
  2 19  2  0  0  0  0
  2 13  1  0  0  0  0
  3 10  1  0  0  0  0
  4 20  1  0  0  0  0
  5  1  1  0  0  0  0
  6  8  2  0  0  0  0
  7 15  1  1  0  0  0
  7  9  1  0  0  0  0
  8 12  1  0  0  0  0
  9 14  1  6  0  0  0
 10 21  2  0  0  0  0
 11  8  1  0  0  0  0
 11  5  2  0  0  0  0
 12 27  1  0  0  0  0
 12  4  1  0  0  0  0
 13 18  2  0  0  0  0
 15 23  1  0  0  0  0
 16  2  1  0  0  0  0
 17  3  1  0  0  0  0
 18 25  1  0  0  0  0
 19 26  1  0  0  0  0
 20 17  2  0  0  0  0
 22 20  1  6  0  0  0
 22  9  1  0  0  0  0
 22 10  1  0  0  0  0
 23 14  1  0  0  0  0
 26 17  1  0  0  0  0
 26 25  2  0  0  0  0
 27 24  1  1  0  0  0
 27  7  1  0  0  0  0
 28 11  1  0  0  0  0
 29 30  1  0  0  0  0
 30 28  1  0  0  0  0
M  END
>  <MODEL>
8

>  <REMARK>
 VINA RESULT:      -8.0      2.846      7.033
  Name = 
  2 active torsions:
  status: ('A' for Active; 'I' for Inactive)
    1  A    between atoms: C_11  and  C_28
    2  A    between atoms: C_28  and  C_30
                            x       y       z     vdW  Elec       q    Type
                         _______ _______ _______ _____ _____    ______ ____

>  <TORSDO>
F 2

$$$$
=
 OpenBabel11112416223D

 30 35  0  0  1  0  0  0  0  0999 V2000
  187.2160  176.8260  143.8920 C   0  0  0  0  0  0  0  0  0  0  0  0
  185.4110  178.2490  142.8910 C   0  0  0  0  0  0  0  0  0  0  0  0
  188.1910  175.2910  140.0980 N   0  0  0  0  0  2  0  0  0  0  0  0
  188.2570  175.8620  143.7250 C   0  0  0  0  0  0  0  0  0  0  0  0
  186.9560  177.2970  145.1790 C   0  0  0  0  0  3  0  0  0  0  0  0
  189.3220  175.4660  147.0860 O   0  0  0  0  0  0  0  0  0  0  0  0
  189.5140  173.0630  144.0860 C   0  0  1  0  0  3  0  0  0  0  0  0
  188.6760  175.8830  146.0830 C   0  0  0  0  0  0  0  0  0  0  0  0
  189.3970  173.0770  142.5590 C   0  0  2  0  0  3  0  0  0  0  0  0
  189.2730  174.4470  140.4650 C   0  0  0  0  0  0  0  0  0  0  0  0
  187.6740  176.8390  146.2720 C   0  0  0  0  0  0  0  0  0  0  0  0
  188.9520  175.3970  144.8300 N   0  0  0  0  0  0  0  0  0  0  0  0
  184.7040  178.6660  141.7600 C   0  0  0  0  0  3  0  0  0  0  0  0
  190.3870  172.1450  142.0340 N   0  0  0  0  0  2  0  0  0  0  0  0
  190.4470  171.9220  144.4110 C   0  0  0  0  0  2  0  0  0  0  0  0
  185.0570  178.7890  144.0830 F   0  0  0  0  0  0  0  0  0  0  0  0
  187.7790  175.8580  141.3330 C   0  0  0  0  0  0  0  0  0  0  0  0
  185.0120  178.1560  140.5010 C   0  0  0  0  0  3  0  0  0  0  0  0
  186.4580  177.2950  142.7730 C   0  0  0  0  0  0  0  0  0  0  0  0
  188.5170  175.4090  142.4100 C   0  0  0  0  0  0  0  0  0  0  0  0
  189.9310  173.7910  139.6150 O   0  0  0  0  0  0  0  0  0  0  0  0
  189.5750  174.4600  141.9320 C   0  0  1  0  0  3  0  0  0  0  0  0
  190.6310  171.1910  143.1030 C   0  0  0  0  0  2  0  0  0  0  0  0
  191.3340  174.9160  144.2620 C   0  0  0  0  0  1  0  0  0  0  0  0
  186.0330  177.2210  140.3620 C   0  0  0  0  0  3  0  0  0  0  0  0
  186.7550  176.7880  141.4800 C   0  0  0  0  0  0  0  0  0  0  0  0
  189.9970  174.3640  144.7490 C   0  0  2  0  0  3  0  0  0  0  0  0
  187.3670  177.3960  147.6240 C   0  0  0  0  0  2  0  0  0  0  0  0
  185.9420  179.4160  147.7200 C   0  0  0  0  0  1  0  0  0  0  0  0
  185.9390  177.9030  147.6690 C   0  0  0  0  0  2  0  0  0  0  0  0
  1  5  1  0  0  0  0
  2 16  1  0  0  0  0
  3 10  1  0  0  0  0
  3 17  1  0  0  0  0
  4  1  1  0  0  0  0
  4 12  1  0  0  0  0
  5 11  2  0  0  0  0
  7 15  1  6  0  0  0
  7 27  1  0  0  0  0
  8 11  1  0  0  0  0
  8  6  2  0  0  0  0
  9 14  1  6  0  0  0
  9  7  1  0  0  0  0
 11 28  1  0  0  0  0
 12  8  1  0  0  0  0
 13  2  2  0  0  0  0
 14 23  1  0  0  0  0
 17 26  2  0  0  0  0
 17 20  1  0  0  0  0
 18 13  1  0  0  0  0
 19  2  1  0  0  0  0
 19  1  2  0  0  0  0
 20  4  2  0  0  0  0
 21 10  2  0  0  0  0
 22 10  1  6  0  0  0
 22 20  1  0  0  0  0
 22  9  1  0  0  0  0
 23 15  1  0  0  0  0
 25 18  2  0  0  0  0
 25 26  1  0  0  0  0
 26 19  1  0  0  0  0
 27 24  1  6  0  0  0
 27 12  1  0  0  0  0
 28 30  1  0  0  0  0
 30 29  1  0  0  0  0
M  END
>  <MODEL>
9

>  <REMARK>
 VINA RESULT:      -7.9      2.056      3.517
  Name = 
  2 active torsions:
  status: ('A' for Active; 'I' for Inactive)
    1  A    between atoms: C_11  and  C_28
    2  A    between atoms: C_28  and  C_30
                            x       y       z     vdW  Elec       q    Type
                         _______ _______ _______ _____ _____    ______ ____

>  <TORSDO>
F 2

$$$$
