=
 OpenBabel11112416403D

 32 38  0  0  1  0  0  0  0  0999 V2000
  192.0350  174.2860  143.0240 C   0  0  0  0  0  2  0  0  0  0  0  0
  187.1970  177.0190  143.4290 C   0  0  0  0  0  0  0  0  0  0  0  0
  186.0660  178.0610  148.0670 C   0  0  0  0  0  3  0  0  0  0  0  0
  184.8050  178.4980  147.6640 C   0  0  0  0  0  3  0  0  0  0  0  0
  185.5030  177.4430  141.6380 C   0  0  0  0  0  0  0  0  0  0  0  0
  184.2240  177.9000  141.3440 C   0  0  0  0  0  0  0  0  0  0  0  0
  189.3410  176.1060  142.8810 C   0  0  0  0  0  0  0  0  0  0  0  0
  188.8240  176.6210  145.1780 C   0  0  0  0  0  3  0  0  0  0  0  0
  182.2390  178.7270  141.7680 N   0  0  0  0  0  0  0  0  0  0  0  0
  190.9950  175.7340  144.6940 O   0  0  0  0  0  0  0  0  0  0  0  0
  186.9750  177.5860  147.1200 C   0  0  0  0  0  3  0  0  0  0  0  0
  187.5480  177.0620  144.7980 C   0  0  0  0  0  0  0  0  0  0  0  0
  186.6350  177.5400  145.7550 C   0  0  0  0  0  0  0  0  0  0  0  0
  184.9900  177.9490  143.9930 C   0  0  0  0  0  0  0  0  0  0  0  0
  182.3890  178.4960  140.4420 C   0  0  0  0  0  3  0  0  0  0  0  0
  190.7560  174.1930  142.1930 C   0  0  0  0  0  2  0  0  0  0  0  0
  189.7370  176.1510  144.2360 C   0  0  0  0  0  0  0  0  0  0  0  0
  183.6150  177.9810  140.1430 N   0  0  0  0  0  0  0  0  0  0  0  0
  190.2230  175.5640  141.7990 C   0  0  0  0  0  2  0  0  0  0  0  0
  192.1380  175.5630  143.8610 C   0  0  1  0  0  3  0  0  0  0  0  0
  184.4510  178.4590  146.3140 C   0  0  0  0  0  3  0  0  0  0  0  0
  185.3550  177.9830  145.3500 C   0  0  0  0  0  0  0  0  0  0  0  0
  183.7460  178.3820  143.6170 N   0  0  0  0  0  0  0  0  0  0  0  0
  188.1020  176.5410  142.5300 N   0  0  0  0  0  0  0  0  0  0  0  0
  186.3410  176.9820  140.5790 N   0  0  0  0  0  1  0  0  0  0  0  0
  181.0700  179.2670  142.4380 C   0  0  0  0  0  1  0  0  0  0  0  0
  185.9170  177.4610  143.0060 C   0  0  0  0  0  0  0  0  0  0  0  0
  183.3980  178.3470  142.3120 C   0  0  0  0  0  0  0  0  0  0  0  0
  193.3850  175.5130  144.7260 C   0  0  0  0  0  2  0  0  0  0  0  0
  193.3450  176.5720  145.7200 N   0  0  0  0  0  0  0  0  0  0  0  0
  194.4780  176.3360  146.6270 C   0  0  0  0  0  2  0  0  0  0  0  0
  194.5950  177.3320  145.5720 C   0  0  0  0  0  2  0  0  0  0  0  0
  1 20  1  0  0  0  0
  2 12  1  0  0  0  0
  4  3  1  0  0  0  0
  5 27  1  0  0  0  0
  6  5  2  0  0  0  0
  6 28  1  0  0  0  0
  7 17  1  0  0  0  0
  9 28  1  0  0  0  0
  9 26  1  0  0  0  0
 11  3  2  0  0  0  0
 12  8  1  0  0  0  0
 12 13  2  0  0  0  0
 13 11  1  0  0  0  0
 14 22  2  0  0  0  0
 15  9  1  0  0  0  0
 16  1  1  0  0  0  0
 17 10  1  0  0  0  0
 17  8  2  0  0  0  0
 18 15  2  0  0  0  0
 18  6  1  0  0  0  0
 19 16  1  0  0  0  0
 19  7  1  0  0  0  0
 20 10  1  0  0  0  0
 20 29  1  1  0  0  0
 21  4  2  0  0  0  0
 22 13  1  0  0  0  0
 22 21  1  0  0  0  0
 23 14  1  0  0  0  0
 24  7  2  0  0  0  0
 24  2  1  0  0  0  0
 25  5  1  0  0  0  0
 27  2  2  0  0  0  0
 27 14  1  0  0  0  0
 28 23  2  0  0  0  0
 29 30  1  0  0  0  0
 30 31  1  0  0  0  0
 32 30  1  0  0  0  0
 32 31  1  0  0  0  0
M  END
>  <MODEL>
1

>  <REMARK>
 VINA RESULT:      -8.9      0.000      0.000
  Name = 
  2 active torsions:
  status: ('A' for Active; 'I' for Inactive)
    1  A    between atoms: C_20  and  C_29
    2  A    between atoms: C_29  and  N_30
                            x       y       z     vdW  Elec       q    Type
                         _______ _______ _______ _____ _____    ______ ____

>  <TORSDO>
F 2

$$$$
=
 OpenBabel11112416403D

 32 38  0  0  1  0  0  0  0  0999 V2000
  183.8330  178.6640  145.1600 C   0  0  0  0  0  2  0  0  0  0  0  0
  188.7940  176.2900  144.2670 C   0  0  0  0  0  0  0  0  0  0  0  0
  188.6000  172.9160  140.7370 C   0  0  0  0  0  3  0  0  0  0  0  0
  189.9040  172.5250  141.0360 C   0  0  0  0  0  3  0  0  0  0  0  0
  190.8870  176.5190  145.6180 C   0  0  0  0  0  0  0  0  0  0  0  0
  192.1780  176.0530  145.8350 C   0  0  0  0  0  0  0  0  0  0  0  0
  186.9070  177.6980  144.7030 C   0  0  0  0  0  0  0  0  0  0  0  0
  186.7800  176.0540  142.9440 C   0  0  0  0  0  3  0  0  0  0  0  0
  193.9420  174.7970  145.5000 N   0  0  0  0  0  0  0  0  0  0  0  0
  184.8670  177.4470  143.3100 O   0  0  0  0  0  0  0  0  0  0  0  0
  187.9970  173.9470  141.4610 C   0  0  0  0  0  3  0  0  0  0  0  0
  188.0880  175.6400  143.2280 C   0  0  0  0  0  0  0  0  0  0  0  0
  188.6910  174.6010  142.4960 C   0  0  0  0  0  0  0  0  0  0  0  0
  190.7300  174.8380  143.8260 C   0  0  0  0  0  0  0  0  0  0  0  0
  194.1620  175.6740  146.5090 C   0  0  0  0  0  3  0  0  0  0  0  0
  184.9790  178.3380  146.1180 C   0  0  0  0  0  2  0  0  0  0  0  0
  186.1760  177.0860  143.6600 C   0  0  0  0  0  0  0  0  0  0  0  0
  193.0830  176.4720  146.7430 N   0  0  0  0  0  0  0  0  0  0  0  0
  186.3310  178.7730  145.5700 C   0  0  0  0  0  2  0  0  0  0  0  0
  184.2440  178.6720  143.6850 C   0  0  1  0  0  3  0  0  0  0  0  0
  190.6070  173.1620  142.0600 C   0  0  0  0  0  3  0  0  0  0  0  0
  190.0140  174.2010  142.7980 C   0  0  0  0  0  0  0  0  0  0  0  0
  192.0110  174.4380  144.1040 N   0  0  0  0  0  0  0  0  0  0  0  0
  188.1760  177.2850  144.9610 N   0  0  0  0  0  0  0  0  0  0  0  0
  190.3830  177.5820  146.4260 N   0  0  0  0  0  1  0  0  0  0  0  0
  194.8670  173.8030  144.9850 C   0  0  0  0  0  1  0  0  0  0  0  0
  190.1220  175.9010  144.5810 C   0  0  0  0  0  0  0  0  0  0  0  0
  192.6960  175.0520  145.0940 C   0  0  0  0  0  0  0  0  0  0  0  0
  183.0230  178.9010  142.8120 C   0  0  0  0  0  2  0  0  0  0  0  0
  182.9160  177.8470  141.8180 N   0  0  0  0  0  0  0  0  0  0  0  0
  181.8280  178.2390  140.9090 C   0  0  0  0  0  2  0  0  0  0  0  0
  183.2120  178.4670  140.5180 C   0  0  0  0  0  2  0  0  0  0  0  0
  1 16  1  0  0  0  0
  2 27  1  0  0  0  0
  2 24  1  0  0  0  0
  3  4  2  0  0  0  0
  3 11  1  0  0  0  0
  4 21  1  0  0  0  0
  5  6  1  0  0  0  0
  5 25  1  0  0  0  0
  6 18  1  0  0  0  0
  7 24  2  0  0  0  0
  7 19  1  0  0  0  0
  8 12  1  0  0  0  0
  8 17  2  0  0  0  0
  9 15  1  0  0  0  0
 10 17  1  0  0  0  0
 10 20  1  0  0  0  0
 11 13  2  0  0  0  0
 12  2  2  0  0  0  0
 13 22  1  0  0  0  0
 13 12  1  0  0  0  0
 14 23  2  0  0  0  0
 14 27  1  0  0  0  0
 15 18  2  0  0  0  0
 17  7  1  0  0  0  0
 19 16  1  0  0  0  0
 20 29  1  6  0  0  0
 20  1  1  0  0  0  0
 21 22  2  0  0  0  0
 22 14  1  0  0  0  0
 23 28  1  0  0  0  0
 26  9  1  0  0  0  0
 27  5  2  0  0  0  0
 28  9  1  0  0  0  0
 28  6  2  0  0  0  0
 30 29  1  0  0  0  0
 31 30  1  0  0  0  0
 32 31  1  0  0  0  0
 32 30  1  0  0  0  0
M  END
>  <MODEL>
2

>  <REMARK>
 VINA RESULT:      -8.3      2.000      8.840
  Name = 
  2 active torsions:
  status: ('A' for Active; 'I' for Inactive)
    1  A    between atoms: C_20  and  C_29
    2  A    between atoms: C_29  and  N_30
                            x       y       z     vdW  Elec       q    Type
                         _______ _______ _______ _____ _____    ______ ____

>  <TORSDO>
F 2

$$$$
=
 OpenBabel11112416403D

 32 38  0  0  1  0  0  0  0  0999 V2000
  189.5410  172.2030  138.6650 C   0  0  0  0  0  2  0  0  0  0  0  0
  188.5880  175.5260  143.0350 C   0  0  0  0  0  0  0  0  0  0  0  0
  191.9210  174.9210  146.5560 C   0  0  0  0  0  3  0  0  0  0  0  0
  191.1740  175.7350  147.4060 C   0  0  0  0  0  3  0  0  0  0  0  0
  186.5840  176.9530  143.4870 C   0  0  0  0  0  0  0  0  0  0  0  0
  185.9180  177.7480  144.4120 C   0  0  0  0  0  0  0  0  0  0  0  0
  188.8670  174.4630  140.9070 C   0  0  0  0  0  0  0  0  0  0  0  0
  190.5380  174.1530  142.6160 C   0  0  0  0  0  3  0  0  0  0  0  0
  185.5910  178.7470  146.3350 N   0  0  0  0  0  0  0  0  0  0  0  0
  190.8900  173.0830  140.5030 O   0  0  0  0  0  0  0  0  0  0  0  0
  191.4690  174.6650  145.2600 C   0  0  0  0  0  3  0  0  0  0  0  0
  189.8030  174.9650  143.4910 C   0  0  0  0  0  0  0  0  0  0  0  0
  190.2620  175.2200  144.7960 C   0  0  0  0  0  0  0  0  0  0  0  0
  188.2970  176.6120  145.2230 C   0  0  0  0  0  0  0  0  0  0  0  0
  184.5800  179.0170  145.4750 C   0  0  0  0  0  3  0  0  0  0  0  0
  188.2360  172.7090  139.2770 C   0  0  0  0  0  2  0  0  0  0  0  0
  190.0950  173.8990  141.3200 C   0  0  0  0  0  0  0  0  0  0  0  0
  184.7530  178.4100  144.2680 N   0  0  0  0  0  0  0  0  0  0  0  0
  188.2720  174.2050  139.5580 C   0  0  0  0  0  2  0  0  0  0  0  0
  190.7740  173.0070  139.0850 C   0  0  1  0  0  3  0  0  0  0  0  0
  189.9750  176.2930  146.9630 C   0  0  0  0  0  3  0  0  0  0  0  0
  189.5060  176.0450  145.6620 C   0  0  0  0  0  0  0  0  0  0  0  0
  187.5780  177.4090  146.0740 N   0  0  0  0  0  0  0  0  0  0  0  0
  188.1700  175.2510  141.7680 N   0  0  0  0  0  0  0  0  0  0  0  0
  186.0190  176.7690  142.1900 N   0  0  0  0  0  1  0  0  0  0  0  0
  185.7330  179.2230  147.6990 C   0  0  0  0  0  1  0  0  0  0  0  0
  187.8190  176.3570  143.8900 C   0  0  0  0  0  0  0  0  0  0  0  0
  186.4160  177.9520  145.6490 C   0  0  0  0  0  0  0  0  0  0  0  0
  192.0270  172.3670  138.5140 C   0  0  0  0  0  2  0  0  0  0  0  0
  191.8070  170.9470  138.2990 N   0  0  0  0  0  0  0  0  0  0  0  0
  193.0760  170.4010  137.7940 C   0  0  0  0  0  2  0  0  0  0  0  0
  192.7300  170.2410  139.1990 C   0  0  0  0  0  2  0  0  0  0  0  0
  1 20  1  0  0  0  0
  1 16  1  0  0  0  0
  2 12  1  0  0  0  0
  2 27  1  0  0  0  0
  3  4  1  0  0  0  0
  5 27  2  0  0  0  0
  5  6  1  0  0  0  0
  6 28  2  0  0  0  0
  7 17  2  0  0  0  0
  7 24  1  0  0  0  0
  8 12  2  0  0  0  0
  9 26  1  0  0  0  0
 10 17  1  0  0  0  0
 11  3  2  0  0  0  0
 12 13  1  0  0  0  0
 13 11  1  0  0  0  0
 13 22  2  0  0  0  0
 14 22  1  0  0  0  0
 14 23  2  0  0  0  0
 15  9  1  0  0  0  0
 16 19  1  0  0  0  0
 17  8  1  0  0  0  0
 18  6  1  0  0  0  0
 18 15  2  0  0  0  0
 19  7  1  0  0  0  0
 20 29  1  1  0  0  0
 20 10  1  0  0  0  0
 21  4  2  0  0  0  0
 22 21  1  0  0  0  0
 24  2  2  0  0  0  0
 25  5  1  0  0  0  0
 27 14  1  0  0  0  0
 28 23  1  0  0  0  0
 28  9  1  0  0  0  0
 30 29  1  0  0  0  0
 30 32  1  0  0  0  0
 31 30  1  0  0  0  0
 31 32  1  0  0  0  0
M  END
>  <MODEL>
3

>  <REMARK>
 VINA RESULT:      -8.0      3.073      5.395
  Name = 
  2 active torsions:
  status: ('A' for Active; 'I' for Inactive)
    1  A    between atoms: C_20  and  C_29
    2  A    between atoms: C_29  and  N_30
                            x       y       z     vdW  Elec       q    Type
                         _______ _______ _______ _____ _____    ______ ____

>  <TORSDO>
F 2

$$$$
=
 OpenBabel11112416403D

 32 38  0  0  1  0  0  0  0  0999 V2000
  186.1350  177.9990  142.6230 C   0  0  0  0  0  2  0  0  0  0  0  0
  190.3130  174.5530  143.9310 C   0  0  0  0  0  0  0  0  0  0  0  0
  193.7450  176.7710  146.6100 C   0  0  0  0  0  3  0  0  0  0  0  0
  194.5670  175.6530  146.4870 C   0  0  0  0  0  3  0  0  0  0  0  0
  190.7450  172.2450  143.0690 C   0  0  0  0  0  0  0  0  0  0  0  0
  191.6410  171.1840  143.0080 C   0  0  0  0  0  0  0  0  0  0  0  0
  188.2500  175.6650  143.4430 C   0  0  0  0  0  0  0  0  0  0  0  0
  189.9140  176.7850  144.7790 C   0  0  0  0  0  3  0  0  0  0  0  0
  193.5060  170.1050  143.4060 N   0  0  0  0  0  0  0  0  0  0  0  0
  187.8620  177.9440  144.3500 O   0  0  0  0  0  0  0  0  0  0  0  0
  192.4850  176.7800  146.0080 C   0  0  0  0  0  3  0  0  0  0  0  0
  190.7610  175.6740  144.6670 C   0  0  0  0  0  0  0  0  0  0  0  0
  192.0300  175.6690  145.2750 C   0  0  0  0  0  0  0  0  0  0  0  0
  192.4370  173.4120  144.4250 C   0  0  0  0  0  0  0  0  0  0  0  0
  192.6670  169.3520  142.6540 C   0  0  0  0  0  3  0  0  0  0  0  0
  186.7590  176.8370  141.8510 C   0  0  0  0  0  2  0  0  0  0  0  0
  188.6540  176.7970  144.1860 C   0  0  0  0  0  0  0  0  0  0  0  0
  191.4960  169.9950  142.3880 N   0  0  0  0  0  0  0  0  0  0  0  0
  186.9420  175.5990  142.7180 C   0  0  0  0  0  2  0  0  0  0  0  0
  186.4580  177.9910  144.1200 C   0  0  1  0  0  3  0  0  0  0  0  0
  194.1320  174.5420  145.7630 C   0  0  0  0  0  3  0  0  0  0  0  0
  192.8670  174.5360  145.1510 C   0  0  0  0  0  0  0  0  0  0  0  0
  193.2600  172.3230  144.3150 N   0  0  0  0  0  0  0  0  0  0  0  0
  189.0830  174.5960  143.3480 N   0  0  0  0  0  0  0  0  0  0  0  0
  189.4840  172.1320  142.4120 N   0  0  0  0  0  1  0  0  0  0  0  0
  194.8310  169.7400  143.8740 C   0  0  0  0  0  1  0  0  0  0  0  0
  191.1410  173.4080  143.7990 C   0  0  0  0  0  0  0  0  0  0  0  0
  192.8430  171.2450  143.6150 C   0  0  0  0  0  0  0  0  0  0  0  0
  185.8840  179.2330  144.7770 C   0  0  0  0  0  2  0  0  0  0  0  0
  185.5100  178.9430  146.1510 N   0  0  0  0  0  0  0  0  0  0  0  0
  184.0660  178.6660  146.1400 C   0  0  0  0  0  2  0  0  0  0  0  0
  185.0120  177.5600  146.1650 C   0  0  0  0  0  2  0  0  0  0  0  0
  1 20  1  0  0  0  0
  2 12  1  0  0  0  0
  4  3  1  0  0  0  0
  5 27  1  0  0  0  0
  6  5  2  0  0  0  0
  6 28  1  0  0  0  0
  7 17  1  0  0  0  0
  9 28  1  0  0  0  0
  9 26  1  0  0  0  0
 11  3  2  0  0  0  0
 12  8  1  0  0  0  0
 12 13  2  0  0  0  0
 13 11  1  0  0  0  0
 14 22  2  0  0  0  0
 15  9  1  0  0  0  0
 16  1  1  0  0  0  0
 16 19  1  0  0  0  0
 17 10  1  0  0  0  0
 17  8  2  0  0  0  0
 18 15  2  0  0  0  0
 18  6  1  0  0  0  0
 19  7  1  0  0  0  0
 20 10  1  0  0  0  0
 20 29  1  6  0  0  0
 21  4  2  0  0  0  0
 22 13  1  0  0  0  0
 22 21  1  0  0  0  0
 23 14  1  0  0  0  0
 24  7  2  0  0  0  0
 24  2  1  0  0  0  0
 25  5  1  0  0  0  0
 27  2  2  0  0  0  0
 27 14  1  0  0  0  0
 28 23  2  0  0  0  0
 29 30  1  0  0  0  0
 30 32  1  0  0  0  0
 31 30  1  0  0  0  0
 31 32  1  0  0  0  0
M  END
>  <MODEL>
4

>  <REMARK>
 VINA RESULT:      -7.9      2.991      8.526
  Name = 
  2 active torsions:
  status: ('A' for Active; 'I' for Inactive)
    1  A    between atoms: C_20  and  C_29
    2  A    between atoms: C_29  and  N_30
                            x       y       z     vdW  Elec       q    Type
                         _______ _______ _______ _____ _____    ______ ____

>  <TORSDO>
F 2

$$$$
=
 OpenBabel11112416403D

 32 38  0  0  1  0  0  0  0  0999 V2000
  195.3080  175.2610  146.1110 C   0  0  0  0  0  2  0  0  0  0  0  0
  190.1990  175.7500  143.9430 C   0  0  0  0  0  0  0  0  0  0  0  0
  189.8200  173.4970  139.6240 C   0  0  0  0  0  3  0  0  0  0  0  0
  188.5550  174.0520  139.4420 C   0  0  0  0  0  3  0  0  0  0  0  0
  188.3100  177.1840  144.7380 C   0  0  0  0  0  0  0  0  0  0  0  0
  187.0430  177.6840  144.4590 C   0  0  0  0  0  0  0  0  0  0  0  0
  192.1710  175.4920  145.2760 C   0  0  0  0  0  0  0  0  0  0  0  0
  192.0140  174.3540  143.1570 C   0  0  0  0  0  3  0  0  0  0  0  0
  185.2110  177.9750  143.2920 N   0  0  0  0  0  0  0  0  0  0  0  0
  194.0030  174.0320  144.4520 O   0  0  0  0  0  0  0  0  0  0  0  0
  190.5450  173.7770  140.7840 C   0  0  0  0  0  3  0  0  0  0  0  0
  190.7410  174.9030  142.9490 C   0  0  0  0  0  0  0  0  0  0  0  0
  190.0140  174.6180  141.7790 C   0  0  0  0  0  0  0  0  0  0  0  0
  188.1760  176.0230  142.5700 C   0  0  0  0  0  0  0  0  0  0  0  0
  185.1530  178.6650  144.4570 C   0  0  0  0  0  3  0  0  0  0  0  0
  194.2880  176.3970  146.1880 C   0  0  0  0  0  2  0  0  0  0  0  0
  192.7390  174.6260  144.3150 C   0  0  0  0  0  0  0  0  0  0  0  0
  186.2790  178.5060  145.2070 N   0  0  0  0  0  0  0  0  0  0  0  0
  192.8900  175.8950  146.5250 C   0  0  0  0  0  2  0  0  0  0  0  0
  194.7090  173.9190  145.6830 C   0  0  1  0  0  3  0  0  0  0  0  0
  188.0130  174.8890  140.4190 C   0  0  0  0  0  3  0  0  0  0  0  0
  188.7300  175.1810  141.5910 C   0  0  0  0  0  0  0  0  0  0  0  0
  186.9300  176.5590  142.3720 N   0  0  0  0  0  0  0  0  0  0  0  0
  190.9340  176.0120  145.0590 N   0  0  0  0  0  0  0  0  0  0  0  0
  188.9480  177.5440  145.9620 N   0  0  0  0  0  1  0  0  0  0  0  0
  184.1950  177.9160  142.2570 C   0  0  0  0  0  1  0  0  0  0  0  0
  188.9120  176.3210  143.7700 C   0  0  0  0  0  0  0  0  0  0  0  0
  186.4010  177.3690  143.3150 C   0  0  0  0  0  0  0  0  0  0  0  0
  195.8120  172.8860  145.5360 C   0  0  0  0  0  2  0  0  0  0  0  0
  195.3260  171.7420  144.7840 N   0  0  0  0  0  0  0  0  0  0  0  0
  196.0790  170.5750  145.2670 C   0  0  0  0  0  2  0  0  0  0  0  0
  194.7320  170.8200  145.7620 C   0  0  0  0  0  2  0  0  0  0  0  0
  1 16  1  0  0  0  0
  2 24  1  0  0  0  0
  3 11  1  0  0  0  0
  4  3  2  0  0  0  0
  4 21  1  0  0  0  0
  5 25  1  0  0  0  0
  6  5  1  0  0  0  0
  6 18  1  0  0  0  0
  7 19  1  0  0  0  0
  8 17  2  0  0  0  0
  9 28  1  0  0  0  0
  9 15  1  0  0  0  0
 10 20  1  0  0  0  0
 11 13  2  0  0  0  0
 12  8  1  0  0  0  0
 12  2  2  0  0  0  0
 13 12  1  0  0  0  0
 14 27  1  0  0  0  0
 15 18  2  0  0  0  0
 16 19  1  0  0  0  0
 17 10  1  0  0  0  0
 17  7  1  0  0  0  0
 20 29  1  6  0  0  0
 20  1  1  0  0  0  0
 21 22  2  0  0  0  0
 22 13  1  0  0  0  0
 22 14  1  0  0  0  0
 23 14  2  0  0  0  0
 23 28  1  0  0  0  0
 24  7  2  0  0  0  0
 26  9  1  0  0  0  0
 27  2  1  0  0  0  0
 27  5  2  0  0  0  0
 28  6  2  0  0  0  0
 30 31  1  0  0  0  0
 30 29  1  0  0  0  0
 30 32  1  0  0  0  0
 31 32  1  0  0  0  0
M  END
>  <MODEL>
5

>  <REMARK>
 VINA RESULT:      -7.9      2.470      5.384
  Name = 
  2 active torsions:
  status: ('A' for Active; 'I' for Inactive)
    1  A    between atoms: C_20  and  C_29
    2  A    between atoms: C_29  and  N_30
                            x       y       z     vdW  Elec       q    Type
                         _______ _______ _______ _____ _____    ______ ____

>  <TORSDO>
F 2

$$$$
=
 OpenBabel11112416403D

 32 38  0  0  1  0  0  0  0  0999 V2000
  185.9670  179.0810  142.8510 C   0  0  0  0  0  2  0  0  0  0  0  0
  189.4300  174.7180  142.7160 C   0  0  0  0  0  0  0  0  0  0  0  0
  192.7170  174.8780  146.3270 C   0  0  0  0  0  3  0  0  0  0  0  0
  193.3930  173.7980  145.7630 C   0  0  0  0  0  3  0  0  0  0  0  0
  189.6680  172.9850  140.9280 C   0  0  0  0  0  0  0  0  0  0  0  0
  190.4160  171.9150  140.4490 C   0  0  0  0  0  0  0  0  0  0  0  0
  187.6200  176.2850  142.6550 C   0  0  0  0  0  0  0  0  0  0  0  0
  189.2140  176.3840  144.4590 C   0  0  0  0  0  3  0  0  0  0  0  0
  192.0480  170.4530  140.4330 N   0  0  0  0  0  0  0  0  0  0  0  0
  187.4140  177.9640  144.4720 O   0  0  0  0  0  0  0  0  0  0  0  0
  191.5650  175.3770  145.7150 C   0  0  0  0  0  3  0  0  0  0  0  0
  189.9150  175.3020  143.9090 C   0  0  0  0  0  0  0  0  0  0  0  0
  191.0740  174.8020  144.5290 C   0  0  0  0  0  0  0  0  0  0  0  0
  191.2940  173.1140  142.7730 C   0  0  0  0  0  0  0  0  0  0  0  0
  191.2300  170.2720  139.3690 C   0  0  0  0  0  3  0  0  0  0  0  0
  186.5340  178.2840  141.6770 C   0  0  0  0  0  2  0  0  0  0  0  0
  188.0620  176.8830  143.8560 C   0  0  0  0  0  0  0  0  0  0  0  0
  190.2030  171.1660  139.3480 N   0  0  0  0  0  0  0  0  0  0  0  0
  186.4290  176.7800  141.8950 C   0  0  0  0  0  2  0  0  0  0  0  0
  186.0740  178.3600  144.1970 C   0  0  1  0  0  3  0  0  0  0  0  0
  192.9200  173.2150  144.5860 C   0  0  0  0  0  3  0  0  0  0  0  0
  191.7630  173.7070  143.9570 C   0  0  0  0  0  0  0  0  0  0  0  0
  191.9730  172.0530  142.2340 N   0  0  0  0  0  0  0  0  0  0  0  0
  188.3090  175.2330  142.1380 N   0  0  0  0  0  0  0  0  0  0  0  0
  188.5070  173.4010  140.2110 N   0  0  0  0  0  1  0  0  0  0  0  0
  193.2340  169.6870  140.7690 C   0  0  0  0  0  1  0  0  0  0  0  0
  190.1080  173.6180  142.1320 C   0  0  0  0  0  0  0  0  0  0  0  0
  191.5190  171.4860  141.0950 C   0  0  0  0  0  0  0  0  0  0  0  0
  185.5830  179.2700  145.3090 C   0  0  0  0  0  2  0  0  0  0  0  0
  185.7520  178.6190  146.5970 N   0  0  0  0  0  0  0  0  0  0  0  0
  184.4410  178.6660  147.2630 C   0  0  0  0  0  2  0  0  0  0  0  0
  184.8660  177.4460  146.5920 C   0  0  0  0  0  2  0  0  0  0  0  0
  1 20  1  0  0  0  0
  2 12  1  0  0  0  0
  4  3  1  0  0  0  0
  5 27  1  0  0  0  0
  6  5  2  0  0  0  0
  6 28  1  0  0  0  0
  7 17  1  0  0  0  0
  9 26  1  0  0  0  0
  9 28  1  0  0  0  0
 11  3  2  0  0  0  0
 12  8  1  0  0  0  0
 12 13  2  0  0  0  0
 13 11  1  0  0  0  0
 14 22  2  0  0  0  0
 15  9  1  0  0  0  0
 16 19  1  0  0  0  0
 16  1  1  0  0  0  0
 17  8  2  0  0  0  0
 17 10  1  0  0  0  0
 18 15  2  0  0  0  0
 18  6  1  0  0  0  0
 19  7  1  0  0  0  0
 20 10  1  0  0  0  0
 20 29  1  1  0  0  0
 21  4  2  0  0  0  0
 22 13  1  0  0  0  0
 22 21  1  0  0  0  0
 23 14  1  0  0  0  0
 24  7  2  0  0  0  0
 24  2  1  0  0  0  0
 25  5  1  0  0  0  0
 27  2  2  0  0  0  0
 27 14  1  0  0  0  0
 28 23  2  0  0  0  0
 29 30  1  0  0  0  0
 30 31  1  0  0  0  0
 32 30  1  0  0  0  0
 32 31  1  0  0  0  0
M  END
>  <MODEL>
6

>  <REMARK>
 VINA RESULT:      -7.8      3.028      7.942
  Name = 
  2 active torsions:
  status: ('A' for Active; 'I' for Inactive)
    1  A    between atoms: C_20  and  C_29
    2  A    between atoms: C_29  and  N_30
                            x       y       z     vdW  Elec       q    Type
                         _______ _______ _______ _____ _____    ______ ____

>  <TORSDO>
F 2

$$$$
=
 OpenBabel11112416403D

 32 38  0  0  1  0  0  0  0  0999 V2000
  186.2620  178.6920  142.7230 C   0  0  0  0  0  2  0  0  0  0  0  0
  190.5800  175.1820  143.0070 C   0  0  0  0  0  0  0  0  0  0  0  0
  193.7160  176.4190  146.5440 C   0  0  0  0  0  3  0  0  0  0  0  0
  194.6140  175.4560  146.0880 C   0  0  0  0  0  3  0  0  0  0  0  0
  191.2040  173.3630  141.4080 C   0  0  0  0  0  0  0  0  0  0  0  0
  192.1690  172.4340  141.0360 C   0  0  0  0  0  0  0  0  0  0  0  0
  188.4780  176.3100  142.8020 C   0  0  0  0  0  0  0  0  0  0  0  0
  189.9930  176.9370  144.5680 C   0  0  0  0  0  3  0  0  0  0  0  0
  194.0770  171.3610  141.1540 N   0  0  0  0  0  0  0  0  0  0  0  0
  187.8960  178.0870  144.4360 O   0  0  0  0  0  0  0  0  0  0  0  0
  192.4910  176.5940  145.8960 C   0  0  0  0  0  3  0  0  0  0  0  0
  190.9150  175.9780  144.1270 C   0  0  0  0  0  0  0  0  0  0  0  0
  192.1480  175.8060  144.7820 C   0  0  0  0  0  0  0  0  0  0  0  0
  192.7440  174.0290  143.2110 C   0  0  0  0  0  0  0  0  0  0  0  0
  193.3290  170.8990  140.1240 C   0  0  0  0  0  3  0  0  0  0  0  0
  187.0000  177.9160  141.6330 C   0  0  0  0  0  2  0  0  0  0  0  0
  188.7680  177.1110  143.9290 C   0  0  0  0  0  0  0  0  0  0  0  0
  192.1340  171.5450  140.0220 N   0  0  0  0  0  0  0  0  0  0  0  0
  187.2170  176.4570  142.0090 C   0  0  0  0  0  2  0  0  0  0  0  0
  186.5060  178.1560  144.1360 C   0  0  1  0  0  3  0  0  0  0  0  0
  194.2900  174.6660  144.9840 C   0  0  0  0  0  3  0  0  0  0  0  0
  193.0620  174.8300  144.3210 C   0  0  0  0  0  0  0  0  0  0  0  0
  193.6400  173.0880  142.7780 N   0  0  0  0  0  0  0  0  0  0  0  0
  189.3820  175.3820  142.3910 N   0  0  0  0  0  0  0  0  0  0  0  0
  189.9890  173.4440  140.6650 N   0  0  0  0  0  1  0  0  0  0  0  0
  195.3950  170.9070  141.5550 C   0  0  0  0  0  1  0  0  0  0  0  0
  191.4850  174.1980  142.5330 C   0  0  0  0  0  0  0  0  0  0  0  0
  193.3310  172.3200  141.7100 C   0  0  0  0  0  0  0  0  0  0  0  0
  185.8190  179.0510  145.1520 C   0  0  0  0  0  2  0  0  0  0  0  0
  185.8430  178.4270  146.4640 N   0  0  0  0  0  0  0  0  0  0  0  0
  184.4420  178.2980  146.8900 C   0  0  0  0  0  2  0  0  0  0  0  0
  185.1340  177.1460  146.3300 C   0  0  0  0  0  2  0  0  0  0  0  0
  1 20  1  0  0  0  0
  2 12  1  0  0  0  0
  4  3  1  0  0  0  0
  5 27  1  0  0  0  0
  6  5  2  0  0  0  0
  6 28  1  0  0  0  0
  7 17  1  0  0  0  0
  9 26  1  0  0  0  0
  9 28  1  0  0  0  0
 11  3  2  0  0  0  0
 12  8  1  0  0  0  0
 12 13  2  0  0  0  0
 13 11  1  0  0  0  0
 14 22  2  0  0  0  0
 15  9  1  0  0  0  0
 16 19  1  0  0  0  0
 16  1  1  0  0  0  0
 17 10  1  0  0  0  0
 17  8  2  0  0  0  0
 18 15  2  0  0  0  0
 18  6  1  0  0  0  0
 19  7  1  0  0  0  0
 20 10  1  0  0  0  0
 20 29  1  1  0  0  0
 21  4  2  0  0  0  0
 22 13  1  0  0  0  0
 22 21  1  0  0  0  0
 23 14  1  0  0  0  0
 24  7  2  0  0  0  0
 24  2  1  0  0  0  0
 25  5  1  0  0  0  0
 27  2  2  0  0  0  0
 27 14  1  0  0  0  0
 28 23  2  0  0  0  0
 29 30  1  0  0  0  0
 30 31  1  0  0  0  0
 32 30  1  0  0  0  0
 32 31  1  0  0  0  0
M  END
>  <MODEL>
7

>  <REMARK>
 VINA RESULT:      -7.8      2.817      8.362
  Name = 
  2 active torsions:
  status: ('A' for Active; 'I' for Inactive)
    1  A    between atoms: C_20  and  C_29
    2  A    between atoms: C_29  and  N_30
                            x       y       z     vdW  Elec       q    Type
                         _______ _______ _______ _____ _____    ______ ____

>  <TORSDO>
F 2

$$$$
=
 OpenBabel11112416403D

 32 38  0  0  1  0  0  0  0  0999 V2000
  187.1780  176.9170  146.8530 C   0  0  0  0  0  2  0  0  0  0  0  0
  191.4410  175.7690  143.4530 C   0  0  0  0  0  0  0  0  0  0  0  0
  190.0610  173.0310  139.6480 C   0  0  0  0  0  3  0  0  0  0  0  0
  191.3950  172.8700  139.2780 C   0  0  0  0  0  3  0  0  0  0  0  0
  193.8770  176.2000  143.8240 C   0  0  0  0  0  0  0  0  0  0  0  0
  195.1710  175.9770  143.3690 C   0  0  0  0  0  0  0  0  0  0  0  0
  189.8060  176.6780  144.9480 C   0  0  0  0  0  0  0  0  0  0  0  0
  189.0870  175.3440  143.0740 C   0  0  0  0  0  3  0  0  0  0  0  0
  196.7250  175.1730  142.0490 N   0  0  0  0  0  0  0  0  0  0  0  0
  187.4000  176.2450  144.5150 O   0  0  0  0  0  0  0  0  0  0  0  0
  189.7370  173.7900  140.7750 C   0  0  0  0  0  3  0  0  0  0  0  0
  190.4210  175.1630  142.6830 C   0  0  0  0  0  0  0  0  0  0  0  0
  190.7440  174.3980  141.5470 C   0  0  0  0  0  0  0  0  0  0  0  0
  193.1220  174.8280  141.9230 C   0  0  0  0  0  0  0  0  0  0  0  0
  197.2750  175.9050  143.0480 C   0  0  0  0  0  3  0  0  0  0  0  0
  188.6600  176.6820  147.1430 C   0  0  0  0  0  2  0  0  0  0  0  0
  188.7580  176.1050  144.1930 C   0  0  0  0  0  0  0  0  0  0  0  0
  196.3340  176.4200  143.8880 N   0  0  0  0  0  0  0  0  0  0  0  0
  189.5650  177.4630  146.1990 C   0  0  0  0  0  2  0  0  0  0  0  0
  186.8790  177.2420  145.3880 C   0  0  1  0  0  3  0  0  0  0  0  0
  192.4070  173.4650  140.0330 C   0  0  0  0  0  3  0  0  0  0  0  0
  192.0970  174.2310  141.1690 C   0  0  0  0  0  0  0  0  0  0  0  0
  194.4270  174.6570  141.5420 N   0  0  0  0  0  0  0  0  0  0  0  0
  191.0930  176.4960  144.5520 N   0  0  0  0  0  0  0  0  0  0  0  0
  193.6740  176.9970  144.9900 N   0  0  0  0  0  1  0  0  0  0  0  0
  197.4250  174.4820  140.9810 C   0  0  0  0  0  1  0  0  0  0  0  0
  192.8020  175.6130  143.0860 C   0  0  0  0  0  0  0  0  0  0  0  0
  195.4100  175.2320  142.2700 C   0  0  0  0  0  0  0  0  0  0  0  0
  185.3790  177.3550  145.1810 C   0  0  0  0  0  2  0  0  0  0  0  0
  185.0980  178.0350  143.9280 N   0  0  0  0  0  0  0  0  0  0  0  0
  184.0660  179.0410  144.2220 C   0  0  0  0  0  2  0  0  0  0  0  0
  185.4610  179.4450  144.1270 C   0  0  0  0  0  2  0  0  0  0  0  0
  1 16  1  0  0  0  0
  2 24  1  0  0  0  0
  3 11  1  0  0  0  0
  4  3  2  0  0  0  0
  4 21  1  0  0  0  0
  5 25  1  0  0  0  0
  6  5  1  0  0  0  0
  6 18  1  0  0  0  0
  7 19  1  0  0  0  0
  8 17  2  0  0  0  0
  9 28  1  0  0  0  0
  9 15  1  0  0  0  0
 10 20  1  0  0  0  0
 11 13  2  0  0  0  0
 12  8  1  0  0  0  0
 12  2  2  0  0  0  0
 13 12  1  0  0  0  0
 14 27  1  0  0  0  0
 15 18  2  0  0  0  0
 17 10  1  0  0  0  0
 17  7  1  0  0  0  0
 19 16  1  0  0  0  0
 20 29  1  1  0  0  0
 20  1  1  0  0  0  0
 21 22  2  0  0  0  0
 22 13  1  0  0  0  0
 22 14  1  0  0  0  0
 23 14  2  0  0  0  0
 23 28  1  0  0  0  0
 24  7  2  0  0  0  0
 26  9  1  0  0  0  0
 27  2  1  0  0  0  0
 27  5  2  0  0  0  0
 28  6  2  0  0  0  0
 30 32  1  0  0  0  0
 30 31  1  0  0  0  0
 30 29  1  0  0  0  0
 32 31  1  0  0  0  0
M  END
>  <MODEL>
8

>  <REMARK>
 VINA RESULT:      -7.7      2.506      9.279
  Name = 
  2 active torsions:
  status: ('A' for Active; 'I' for Inactive)
    1  A    between atoms: C_20  and  C_29
    2  A    between atoms: C_29  and  N_30
                            x       y       z     vdW  Elec       q    Type
                         _______ _______ _______ _____ _____    ______ ____

>  <TORSDO>
F 2

$$$$
=
 OpenBabel11112416403D

 32 38  0  0  1  0  0  0  0  0999 V2000
  186.5370  177.6580  146.1520 C   0  0  0  0  0  2  0  0  0  0  0  0
  191.1800  175.2800  144.1940 C   0  0  0  0  0  0  0  0  0  0  0  0
  190.3640  172.8000  140.0640 C   0  0  0  0  0  3  0  0  0  0  0  0
  191.6570  172.2820  140.1170 C   0  0  0  0  0  3  0  0  0  0  0  0
  193.4100  175.0870  145.3100 C   0  0  0  0  0  0  0  0  0  0  0  0
  194.6760  174.5150  145.2680 C   0  0  0  0  0  0  0  0  0  0  0  0
  189.4630  176.6540  145.1410 C   0  0  0  0  0  0  0  0  0  0  0  0
  189.0290  175.4570  143.0950 C   0  0  0  0  0  3  0  0  0  0  0  0
  196.2940  173.2730  144.4660 N   0  0  0  0  0  0  0  0  0  0  0  0
  187.2780  176.8330  143.9750 O   0  0  0  0  0  0  0  0  0  0  0  0
  189.9210  173.6730  141.0590 C   0  0  0  0  0  3  0  0  0  0  0  0
  190.3230  174.9190  143.1280 C   0  0  0  0  0  0  0  0  0  0  0  0
  190.7660  174.0400  142.1230 C   0  0  0  0  0  0  0  0  0  0  0  0
  192.9410  173.8620  143.2260 C   0  0  0  0  0  0  0  0  0  0  0  0
  196.6820  173.8890  145.6080 C   0  0  0  0  0  3  0  0  0  0  0  0
  187.7440  177.0640  146.8770 C   0  0  0  0  0  2  0  0  0  0  0  0
  188.5840  176.3330  144.0830 C   0  0  0  0  0  0  0  0  0  0  0  0
  195.6980  174.6700  146.1340 N   0  0  0  0  0  0  0  0  0  0  0  0
  189.0640  177.5370  146.2820 C   0  0  0  0  0  2  0  0  0  0  0  0
  186.7950  177.9740  144.6770 C   0  0  1  0  0  3  0  0  0  0  0  0
  192.5080  172.6340  141.1650 C   0  0  0  0  0  3  0  0  0  0  0  0
  192.0770  173.5110  142.1750 C   0  0  0  0  0  0  0  0  0  0  0  0
  194.2080  173.3410  143.2600 N   0  0  0  0  0  0  0  0  0  0  0  0
  190.7150  176.1270  145.1550 N   0  0  0  0  0  0  0  0  0  0  0  0
  193.0760  175.9670  146.3820 N   0  0  0  0  0  1  0  0  0  0  0  0
  197.0800  172.3720  143.6440 C   0  0  0  0  0  1  0  0  0  0  0  0
  192.4980  174.7600  144.2590 C   0  0  0  0  0  0  0  0  0  0  0  0
  195.0360  173.6790  144.2730 C   0  0  0  0  0  0  0  0  0  0  0  0
  185.5130  178.4590  144.0220 C   0  0  0  0  0  2  0  0  0  0  0  0
  185.1200  177.5480  142.9610 N   0  0  0  0  0  0  0  0  0  0  0  0
  183.9240  178.1290  142.3340 C   0  0  0  0  0  2  0  0  0  0  0  0
  185.2240  178.3010  141.7030 C   0  0  0  0  0  2  0  0  0  0  0  0
  1 16  1  0  0  0  0
  2 27  1  0  0  0  0
  2 24  1  0  0  0  0
  3  4  2  0  0  0  0
  3 11  1  0  0  0  0
  4 21  1  0  0  0  0
  5 25  1  0  0  0  0
  6  5  1  0  0  0  0
  6 18  1  0  0  0  0
  7 24  2  0  0  0  0
  7 19  1  0  0  0  0
  8 12  1  0  0  0  0
  8 17  2  0  0  0  0
  9 15  1  0  0  0  0
 10 17  1  0  0  0  0
 10 20  1  0  0  0  0
 11 13  2  0  0  0  0
 12  2  2  0  0  0  0
 13 22  1  0  0  0  0
 13 12  1  0  0  0  0
 14 23  2  0  0  0  0
 14 27  1  0  0  0  0
 15 18  2  0  0  0  0
 17  7  1  0  0  0  0
 19 16  1  0  0  0  0
 20 29  1  6  0  0  0
 20  1  1  0  0  0  0
 21 22  2  0  0  0  0
 22 14  1  0  0  0  0
 23 28  1  0  0  0  0
 26  9  1  0  0  0  0
 27  5  2  0  0  0  0
 28  9  1  0  0  0  0
 28  6  2  0  0  0  0
 30 29  1  0  0  0  0
 31 30  1  0  0  0  0
 32 31  1  0  0  0  0
 32 30  1  0  0  0  0
M  END
>  <MODEL>
9

>  <REMARK>
 VINA RESULT:      -7.5      2.233      9.486
  Name = 
  2 active torsions:
  status: ('A' for Active; 'I' for Inactive)
    1  A    between atoms: C_20  and  C_29
    2  A    between atoms: C_29  and  N_30
                            x       y       z     vdW  Elec       q    Type
                         _______ _______ _______ _____ _____    ______ ____

>  <TORSDO>
F 2

$$$$
