=
 OpenBabel11112417423D

 28 32  0  0  1  0  0  0  0  0999 V2000
  188.7500  175.7050  145.8210 C   0  0  0  0  0  0  0  0  0  0  0  0
  188.1880  173.7530  142.7070 O   0  0  0  0  0  0  0  0  0  0  0  0
  194.9410  176.9980  145.1500 C   0  0  0  0  0  1  0  0  0  0  0  0
  187.6480  177.9160  144.4940 C   0  0  0  0  0  3  0  0  0  0  0  0
  194.0740  174.9290  144.0340 C   0  0  2  0  0  3  0  0  0  0  0  0
  189.3160  174.5410  146.5790 C   0  0  0  0  0  2  0  0  0  0  0  0
  188.6510  175.6980  141.2630 O   0  0  0  0  0  0  0  0  0  0  0  0
  189.2350  174.4690  141.9010 S   0  0  0  0  0  0  0  0  0  0  0  0
  191.3140  173.7910  140.3060 C   0  0  2  0  0  3  0  0  0  0  0  0
  190.5760  174.8950  142.9030 N   0  0  0  0  0  0  0  0  0  0  0  0
  190.9590  177.1500  147.9150 O   0  0  0  0  0  0  0  0  0  0  0  0
  191.8810  175.6530  144.5240 C   0  0  0  0  0  0  0  0  0  0  0  0
  192.2500  173.6270  141.5060 C   0  0  0  0  0  2  0  0  0  0  0  0
  189.8800  173.3850  140.6430 C   0  0  0  0  0  2  0  0  0  0  0  0
  191.0770  175.9320  147.6160 C   0  0  0  0  0  0  0  0  0  0  0  0
  189.3790  176.2190  144.6650 C   0  0  0  0  0  0  0  0  0  0  0  0
  194.0880  175.7590  145.3430 C   0  0  2  0  0  3  0  0  0  0  0  0
  191.8170  172.9400  139.1590 C   0  0  0  0  0  1  0  0  0  0  0  0
  192.2100  175.4790  146.8830 N   0  0  0  0  0  2  0  0  0  0  0  0
  188.8130  177.3190  144.0080 C   0  0  0  0  0  3  0  0  0  0  0  0
  187.5790  176.3100  146.3000 C   0  0  0  0  0  3  0  0  0  0  0  0
  187.0300  177.4110  145.6400 C   0  0  0  0  0  3  0  0  0  0  0  0
  189.9610  174.9870  147.8920 C   0  0  0  0  0  2  0  0  0  0  0  0
  192.6520  174.9880  143.6550 C   0  0  0  0  0  0  0  0  0  0  0  0
  192.6350  176.1790  145.6840 C   0  0  2  0  0  3  0  0  0  0  0  0
  191.8480  174.5230  142.6390 C   0  0  0  0  0  0  0  0  0  0  0  0
  194.4670  173.4970  144.3420 C   0  0  0  0  0  1  0  0  0  0  0  0
  190.5730  175.5930  144.0670 C   0  0  0  0  0  0  0  0  0  0  0  0
  1 21  1  0  0  0  0
  1  6  1  0  0  0  0
  4 22  1  0  0  0  0
  5 27  1  1  0  0  0
  5 17  1  0  0  0  0
  6 23  1  0  0  0  0
  7  8  2  0  0  0  0
  8  2  2  0  0  0  0
  8 10  1  0  0  0  0
  9 18  1  6  0  0  0
  9 14  1  0  0  0  0
  9 13  1  0  0  0  0
 10 28  1  0  0  0  0
 13 26  1  0  0  0  0
 14  8  1  0  0  0  0
 15 23  1  0  0  0  0
 15 11  2  0  0  0  0
 16  1  2  0  0  0  0
 17  3  1  6  0  0  0
 17 25  1  0  0  0  0
 19 15  1  0  0  0  0
 20  4  2  0  0  0  0
 20 16  1  0  0  0  0
 22 21  2  0  0  0  0
 24  5  1  0  0  0  0
 24 12  1  0  0  0  0
 25 12  1  6  0  0  0
 25 19  1  0  0  0  0
 26 10  1  0  0  0  0
 26 24  2  0  0  0  0
 28 12  2  0  0  0  0
 28 16  1  0  0  0  0
M  END
>  <MODEL>
1

>  <REMARK>
 VINA RESULT:      -7.8      0.000      0.000
  Name = 
  0 active torsions:
  status: ('A' for Active; 'I' for Inactive)
                            x       y       z     vdW  Elec       q    Type
                         _______ _______ _______ _____ _____    ______ ____

>  <TORSDO>
F 0

$$$$
=
 OpenBabel11112417423D

 28 32  0  0  1  0  0  0  0  0999 V2000
  188.9230  176.9320  144.8730 C   0  0  0  0  0  0  0  0  0  0  0  0
  192.2780  177.2160  146.4510 O   0  0  0  0  0  0  0  0  0  0  0  0
  189.9480  171.9000  141.1190 C   0  0  0  0  0  1  0  0  0  0  0  0
  188.0670  175.6290  147.2040 C   0  0  0  0  0  3  0  0  0  0  0  0
  191.9320  173.3090  141.7170 C   0  0  2  0  0  3  0  0  0  0  0  0
  189.3290  177.6520  143.6210 C   0  0  0  0  0  2  0  0  0  0  0  0
  192.0500  175.0470  147.6030 O   0  0  0  0  0  0  0  0  0  0  0  0
  192.5880  175.7470  146.3870 S   0  0  0  0  0  0  0  0  0  0  0  0
  194.6400  174.1910  145.5520 C   0  0  2  0  0  3  0  0  0  0  0  0
  191.9180  175.0540  144.9530 N   0  0  0  0  0  0  0  0  0  0  0  0
  187.0040  175.4990  142.5020 O   0  0  0  0  0  0  0  0  0  0  0  0
  190.5860  174.4340  143.2960 C   0  0  0  0  0  0  0  0  0  0  0  0
  194.1420  174.2200  144.1040 C   0  0  0  0  0  2  0  0  0  0  0  0
  194.3500  175.5030  146.2790 C   0  0  0  0  0  2  0  0  0  0  0  0
  188.0730  176.0840  142.1810 C   0  0  0  0  0  0  0  0  0  0  0  0
  189.5160  175.7070  145.2550 C   0  0  0  0  0  0  0  0  0  0  0  0
  190.4640  173.3230  141.2210 C   0  0  2  0  0  3  0  0  0  0  0  0
  196.1310  173.9330  145.5630 C   0  0  0  0  0  1  0  0  0  0  0  0
  189.1540  175.3490  141.6190 N   0  0  0  0  0  2  0  0  0  0  0  0
  189.0840  175.0710  146.4250 C   0  0  0  0  0  3  0  0  0  0  0  0
  187.9050  177.4840  145.6620 C   0  0  0  0  0  3  0  0  0  0  0  0
  187.4780  176.8360  146.8230 C   0  0  0  0  0  3  0  0  0  0  0  0
  188.2680  177.5180  142.5280 C   0  0  0  0  0  2  0  0  0  0  0  0
  191.8210  174.0060  143.0100 C   0  0  0  0  0  0  0  0  0  0  0  0
  189.6010  174.1140  142.2380 C   0  0  2  0  0  3  0  0  0  0  0  0
  192.6520  174.3790  144.0410 C   0  0  0  0  0  0  0  0  0  0  0  0
  192.7930  174.1190  140.7660 C   0  0  0  0  0  1  0  0  0  0  0  0
  190.6360  175.1020  144.5100 C   0  0  0  0  0  0  0  0  0  0  0  0
  1 16  2  0  0  0  0
  1 21  1  0  0  0  0
  5 27  1  6  0  0  0
  5 24  1  0  0  0  0
  6  1  1  0  0  0  0
  8  2  2  0  0  0  0
  8  7  2  0  0  0  0
  9 18  1  6  0  0  0
  9 14  1  0  0  0  0
 10  8  1  0  0  0  0
 12 28  2  0  0  0  0
 13  9  1  0  0  0  0
 14  8  1  0  0  0  0
 15 11  2  0  0  0  0
 15 23  1  0  0  0  0
 16 20  1  0  0  0  0
 17  3  1  1  0  0  0
 17  5  1  0  0  0  0
 17 25  1  0  0  0  0
 19 15  1  0  0  0  0
 20  4  2  0  0  0  0
 21 22  2  0  0  0  0
 22  4  1  0  0  0  0
 23  6  1  0  0  0  0
 24 12  1  0  0  0  0
 24 26  2  0  0  0  0
 25 19  1  6  0  0  0
 25 12  1  0  0  0  0
 26 13  1  0  0  0  0
 26 10  1  0  0  0  0
 28 10  1  0  0  0  0
 28 16  1  0  0  0  0
M  END
>  <MODEL>
2

>  <REMARK>
 VINA RESULT:      -7.7      1.779      4.919
  Name = 
  0 active torsions:
  status: ('A' for Active; 'I' for Inactive)
                            x       y       z     vdW  Elec       q    Type
                         _______ _______ _______ _____ _____    ______ ____

>  <TORSDO>
F 0

$$$$
=
 OpenBabel11112417423D

 28 32  0  0  1  0  0  0  0  0999 V2000
  187.6720  177.8310  144.7560 C   0  0  0  0  0  0  0  0  0  0  0  0
  190.9870  177.5410  146.4170 O   0  0  0  0  0  0  0  0  0  0  0  0
  187.7990  172.5430  141.2230 C   0  0  0  0  0  1  0  0  0  0  0  0
  186.5360  176.8130  147.1080 C   0  0  0  0  0  3  0  0  0  0  0  0
  190.0020  173.5740  141.8240 C   0  0  2  0  0  3  0  0  0  0  0  0
  188.2340  178.4080  143.4900 C   0  0  0  0  0  2  0  0  0  0  0  0
  190.3260  175.5040  147.6420 O   0  0  0  0  0  0  0  0  0  0  0  0
  191.0130  176.0380  146.4170 S   0  0  0  0  0  0  0  0  0  0  0  0
  192.7470  174.0880  145.7000 C   0  0  2  0  0  3  0  0  0  0  0  0
  190.2530  175.4250  144.9910 N   0  0  0  0  0  0  0  0  0  0  0  0
  185.5660  176.6890  142.3860 O   0  0  0  0  0  0  0  0  0  0  0  0
  188.8620  174.9990  143.3220 C   0  0  0  0  0  0  0  0  0  0  0  0
  192.2940  174.1500  144.2380 C   0  0  0  0  0  2  0  0  0  0  0  0
  192.6970  175.4610  146.3690 C   0  0  0  0  0  2  0  0  0  0  0  0
  186.7330  177.0470  142.0740 C   0  0  0  0  0  0  0  0  0  0  0  0
  188.0130  176.5330  145.2000 C   0  0  0  0  0  0  0  0  0  0  0  0
  188.5740  173.8450  141.2870 C   0  0  2  0  0  3  0  0  0  0  0  0
  194.1620  173.5520  145.7630 C   0  0  0  0  0  1  0  0  0  0  0  0
  187.6650  176.0980  141.5710 N   0  0  0  0  0  2  0  0  0  0  0  0
  187.4430  176.0410  146.3810 C   0  0  0  0  0  3  0  0  0  0  0  0
  186.7620  178.5990  145.4950 C   0  0  0  0  0  3  0  0  0  0  0  0
  186.1950  178.0930  146.6660 C   0  0  0  0  0  3  0  0  0  0  0  0
  187.1900  178.4310  142.3730 C   0  0  0  0  0  2  0  0  0  0  0  0
  189.9980  174.3330  143.0870 C   0  0  0  0  0  0  0  0  0  0  0  0
  187.8560  174.8280  142.2490 C   0  0  2  0  0  3  0  0  0  0  0  0
  190.8640  174.5850  144.1260 C   0  0  0  0  0  0  0  0  0  0  0  0
  191.0200  174.1660  140.8690 C   0  0  0  0  0  1  0  0  0  0  0  0
  189.0130  175.6960  144.5110 C   0  0  0  0  0  0  0  0  0  0  0  0
  1 16  2  0  0  0  0
  1 21  1  0  0  0  0
  5 27  1  6  0  0  0
  5 24  1  0  0  0  0
  6  1  1  0  0  0  0
  8  2  2  0  0  0  0
  8  7  2  0  0  0  0
  9 18  1  6  0  0  0
  9 14  1  0  0  0  0
 10  8  1  0  0  0  0
 12 28  2  0  0  0  0
 13  9  1  0  0  0  0
 14  8  1  0  0  0  0
 15 23  1  0  0  0  0
 15 11  2  0  0  0  0
 16 20  1  0  0  0  0
 17  3  1  1  0  0  0
 17  5  1  0  0  0  0
 17 25  1  0  0  0  0
 19 15  1  0  0  0  0
 20  4  2  0  0  0  0
 21 22  2  0  0  0  0
 22  4  1  0  0  0  0
 23  6  1  0  0  0  0
 24 12  1  0  0  0  0
 24 26  2  0  0  0  0
 25 19  1  6  0  0  0
 25 12  1  0  0  0  0
 26 13  1  0  0  0  0
 26 10  1  0  0  0  0
 28 10  1  0  0  0  0
 28 16  1  0  0  0  0
M  END
>  <MODEL>
3

>  <REMARK>
 VINA RESULT:      -7.6      2.145      5.214
  Name = 
  0 active torsions:
  status: ('A' for Active; 'I' for Inactive)
                            x       y       z     vdW  Elec       q    Type
                         _______ _______ _______ _____ _____    ______ ____

>  <TORSDO>
F 0

$$$$
=
 OpenBabel11112417423D

 28 32  0  0  1  0  0  0  0  0999 V2000
  189.1450  175.5870  145.2960 C   0  0  0  0  0  0  0  0  0  0  0  0
  188.4540  173.1250  142.5970 O   0  0  0  0  0  0  0  0  0  0  0  0
  195.4990  175.2910  145.3880 C   0  0  0  0  0  1  0  0  0  0  0  0
  188.7840  177.6070  143.3850 C   0  0  0  0  0  3  0  0  0  0  0  0
  194.2660  173.2590  144.5930 C   0  0  2  0  0  3  0  0  0  0  0  0
  189.3160  174.5410  146.3570 C   0  0  0  0  0  2  0  0  0  0  0  0
  189.5440  174.5220  140.8810 O   0  0  0  0  0  0  0  0  0  0  0  0
  189.7280  173.3820  141.8420 S   0  0  0  0  0  0  0  0  0  0  0  0
  191.7310  171.9050  140.7780 C   0  0  2  0  0  3  0  0  0  0  0  0
  191.0160  173.7280  142.9400 N   0  0  0  0  0  0  0  0  0  0  0  0
  191.4050  176.9660  147.3810 O   0  0  0  0  0  0  0  0  0  0  0  0
  192.2850  174.5420  144.5620 C   0  0  0  0  0  0  0  0  0  0  0  0
  192.4600  171.8290  142.1220 C   0  0  0  0  0  2  0  0  0  0  0  0
  190.2130  171.9160  140.9540 C   0  0  0  0  0  2  0  0  0  0  0  0
  191.2460  175.7160  147.3590 C   0  0  0  0  0  0  0  0  0  0  0  0
  190.0050  175.6620  144.1760 C   0  0  0  0  0  0  0  0  0  0  0  0
  194.3460  174.3510  145.6890 C   0  0  2  0  0  3  0  0  0  0  0  0
  192.1270  170.7170  139.9260 C   0  0  0  0  0  1  0  0  0  0  0  0
  192.3020  174.8640  146.9280 N   0  0  0  0  0  2  0  0  0  0  0  0
  189.8080  176.6710  143.2260 C   0  0  0  0  0  3  0  0  0  0  0  0
  188.1190  176.5300  145.4450 C   0  0  0  0  0  3  0  0  0  0  0  0
  187.9390  177.5360  144.4930 C   0  0  0  0  0  3  0  0  0  0  0  0
  189.9060  175.1330  147.6380 C   0  0  0  0  0  2  0  0  0  0  0  0
  192.9540  173.5380  143.9840 C   0  0  0  0  0  0  0  0  0  0  0  0
  193.0170  175.1490  145.6970 C   0  0  2  0  0  3  0  0  0  0  0  0
  192.1750  173.0340  142.9680 C   0  0  0  0  0  0  0  0  0  0  0  0
  194.2520  171.8900  145.2460 C   0  0  0  0  0  1  0  0  0  0  0  0
  191.0620  174.6650  143.9210 C   0  0  0  0  0  0  0  0  0  0  0  0
  1 21  1  0  0  0  0
  1  6  1  0  0  0  0
  4 22  1  0  0  0  0
  5 27  1  1  0  0  0
  5 17  1  0  0  0  0
  6 23  1  0  0  0  0
  7  8  2  0  0  0  0
  8  2  2  0  0  0  0
  8 10  1  0  0  0  0
  9 18  1  6  0  0  0
  9 14  1  0  0  0  0
  9 13  1  0  0  0  0
 10 26  1  0  0  0  0
 10 28  1  0  0  0  0
 13 26  1  0  0  0  0
 14  8  1  0  0  0  0
 15 11  2  0  0  0  0
 15 23  1  0  0  0  0
 16  1  2  0  0  0  0
 17  3  1  6  0  0  0
 17 25  1  0  0  0  0
 19 15  1  0  0  0  0
 20  4  2  0  0  0  0
 20 16  1  0  0  0  0
 22 21  2  0  0  0  0
 24 12  1  0  0  0  0
 24  5  1  0  0  0  0
 25 12  1  6  0  0  0
 25 19  1  0  0  0  0
 26 24  2  0  0  0  0
 28 16  1  0  0  0  0
 28 12  2  0  0  0  0
M  END
>  <MODEL>
4

>  <REMARK>
 VINA RESULT:      -7.4      1.241      1.367
  Name = 
  0 active torsions:
  status: ('A' for Active; 'I' for Inactive)
                            x       y       z     vdW  Elec       q    Type
                         _______ _______ _______ _____ _____    ______ ____

>  <TORSDO>
F 0

$$$$
=
 OpenBabel11112417423D

 28 32  0  0  1  0  0  0  0  0999 V2000
  194.6970  174.1350  144.2070 C   0  0  0  0  0  0  0  0  0  0  0  0
  193.2460  172.4590  141.2210 O   0  0  0  0  0  0  0  0  0  0  0  0
  189.5690  177.3080  146.2300 C   0  0  0  0  0  1  0  0  0  0  0  0
  194.3460  171.7200  145.5870 C   0  0  0  0  0  3  0  0  0  0  0  0
  189.6990  176.7770  143.7840 C   0  0  2  0  0  3  0  0  0  0  0  0
  194.9320  175.4370  143.4980 C   0  0  0  0  0  2  0  0  0  0  0  0
  191.7040  171.1010  142.5870 O   0  0  0  0  0  0  0  0  0  0  0  0
  191.8540  172.3590  141.7790 S   0  0  0  0  0  0  0  0  0  0  0  0
  189.3430  172.9450  140.9540 C   0  0  2  0  0  3  0  0  0  0  0  0
  191.4970  173.7410  142.7540 N   0  0  0  0  0  0  0  0  0  0  0  0
  194.3190  176.4230  146.6520 O   0  0  0  0  0  0  0  0  0  0  0  0
  191.5440  175.3780  144.2440 C   0  0  0  0  0  0  0  0  0  0  0  0
  189.4860  174.4080  141.3860 C   0  0  0  0  0  2  0  0  0  0  0  0
  190.6660  172.3690  140.4520 C   0  0  0  0  0  2  0  0  0  0  0  0
  194.1770  176.7590  145.4460 C   0  0  0  0  0  0  0  0  0  0  0  0
  193.3990  173.6060  144.3840 C   0  0  0  0  0  0  0  0  0  0  0  0
  190.4700  177.3310  145.0100 C   0  0  2  0  0  3  0  0  0  0  0  0
  188.3060  172.8470  139.8560 C   0  0  0  0  0  1  0  0  0  0  0  0
  192.9110  177.1980  144.9670 N   0  0  0  0  0  2  0  0  0  0  0  0
  193.2390  172.3950  145.0690 C   0  0  0  0  0  3  0  0  0  0  0  0
  195.8020  173.4490  144.7290 C   0  0  0  0  0  3  0  0  0  0  0  0
  195.6280  172.2470  145.4170 C   0  0  0  0  0  3  0  0  0  0  0  0
  195.2900  176.5530  144.4810 C   0  0  0  0  0  2  0  0  0  0  0  0
  190.4760  175.5680  143.4610 C   0  0  0  0  0  0  0  0  0  0  0  0
  191.7100  176.4370  145.2650 C   0  0  2  0  0  3  0  0  0  0  0  0
  190.4350  174.5480  142.5390 C   0  0  0  0  0  0  0  0  0  0  0  0
  189.7890  177.7700  142.6420 C   0  0  0  0  0  1  0  0  0  0  0  0
  192.1990  174.2380  143.8040 C   0  0  0  0  0  0  0  0  0  0  0  0
  1 16  2  0  0  0  0
  1 21  1  0  0  0  0
  2  8  2  0  0  0  0
  5 27  1  6  0  0  0
  5 17  1  0  0  0  0
  6  1  1  0  0  0  0
  6 23  1  0  0  0  0
  8  7  2  0  0  0  0
  8 10  1  0  0  0  0
  9 18  1  6  0  0  0
  9 13  1  0  0  0  0
 10 28  1  0  0  0  0
 13 26  1  0  0  0  0
 14  9  1  0  0  0  0
 14  8  1  0  0  0  0
 15 11  2  0  0  0  0
 16 20  1  0  0  0  0
 17 25  1  0  0  0  0
 17  3  1  1  0  0  0
 19 25  1  0  0  0  0
 19 15  1  0  0  0  0
 20  4  2  0  0  0  0
 21 22  2  0  0  0  0
 22  4  1  0  0  0  0
 23 15  1  0  0  0  0
 24  5  1  0  0  0  0
 24 12  1  0  0  0  0
 25 12  1  6  0  0  0
 26 10  1  0  0  0  0
 26 24  2  0  0  0  0
 28 12  2  0  0  0  0
 28 16  1  0  0  0  0
M  END
>  <MODEL>
5

>  <REMARK>
 VINA RESULT:      -7.2      2.312      5.068
  Name = 
  0 active torsions:
  status: ('A' for Active; 'I' for Inactive)
                            x       y       z     vdW  Elec       q    Type
                         _______ _______ _______ _____ _____    ______ ____

>  <TORSDO>
F 0

$$$$
=
 OpenBabel11112417423D

 28 32  0  0  1  0  0  0  0  0999 V2000
  190.5420  174.9470  142.0130 C   0  0  0  0  0  0  0  0  0  0  0  0
  188.3430  177.7980  141.0830 O   0  0  0  0  0  0  0  0  0  0  0  0
  188.7430  174.1620  148.0630 C   0  0  0  0  0  1  0  0  0  0  0  0
  188.6980  173.2620  140.7390 C   0  0  0  0  0  3  0  0  0  0  0  0
  188.4900  176.4520  147.0790 C   0  0  2  0  0  3  0  0  0  0  0  0
  191.5700  175.8140  142.6780 C   0  0  0  0  0  2  0  0  0  0  0  0
  186.2900  176.4550  141.3490 O   0  0  0  0  0  0  0  0  0  0  0  0
  187.2260  177.4240  142.0160 S   0  0  0  0  0  0  0  0  0  0  0  0
  185.7090  178.6620  143.8850 C   0  0  2  0  0  3  0  0  0  0  0  0
  187.8610  176.7370  143.4680 N   0  0  0  0  0  0  0  0  0  0  0  0
  191.7570  172.9690  144.4550 O   0  0  0  0  0  0  0  0  0  0  0  0
  188.9700  175.5320  144.9590 C   0  0  0  0  0  0  0  0  0  0  0  0
  186.7750  178.4520  144.9650 C   0  0  0  0  0  2  0  0  0  0  0  0
  186.3320  178.8840  142.5080 C   0  0  0  0  0  2  0  0  0  0  0  0
  191.8670  174.2200  144.5440 C   0  0  0  0  0  0  0  0  0  0  0  0
  189.2140  174.8650  142.4900 C   0  0  0  0  0  0  0  0  0  0  0  0
  189.4380  175.2370  147.2500 C   0  0  2  0  0  3  0  0  0  0  0  0
  184.8580  179.8600  144.2490 C   0  0  0  0  0  1  0  0  0  0  0  0
  191.1960  174.9290  145.5800 N   0  0  0  0  0  2  0  0  0  0  0  0
  188.3020  174.0250  141.8390 C   0  0  0  0  0  3  0  0  0  0  0  0
  190.9290  174.1790  140.9070 C   0  0  0  0  0  3  0  0  0  0  0  0
  190.0120  173.3390  140.2720 C   0  0  0  0  0  3  0  0  0  0  0  0
  192.5720  174.9820  143.4780 C   0  0  0  0  0  2  0  0  0  0  0  0
  188.2860  176.4720  145.6210 C   0  0  0  0  0  0  0  0  0  0  0  0
  189.7910  174.6790  145.8470 C   0  0  2  0  0  3  0  0  0  0  0  0
  187.5860  177.2180  144.7010 C   0  0  0  0  0  0  0  0  0  0  0  0
  189.2060  177.7150  147.5180 C   0  0  0  0  0  1  0  0  0  0  0  0
  188.7190  175.6940  143.6050 C   0  0  0  0  0  0  0  0  0  0  0  0
  1 16  1  0  0  0  0
  1  6  1  0  0  0  0
  2  8  2  0  0  0  0
  4 20  1  0  0  0  0
  5 17  1  0  0  0  0
  5 27  1  6  0  0  0
  6 23  1  0  0  0  0
  7  8  2  0  0  0  0
  8 14  1  0  0  0  0
  8 10  1  0  0  0  0
  9 18  1  1  0  0  0
  9 13  1  0  0  0  0
 10 28  1  0  0  0  0
 10 26  1  0  0  0  0
 11 15  2  0  0  0  0
 12 24  1  0  0  0  0
 14  9  1  0  0  0  0
 15 19  1  0  0  0  0
 16 28  1  0  0  0  0
 17  3  1  1  0  0  0
 19 25  1  0  0  0  0
 20 16  2  0  0  0  0
 21  1  2  0  0  0  0
 22  4  2  0  0  0  0
 22 21  1  0  0  0  0
 23 15  1  0  0  0  0
 24  5  1  0  0  0  0
 25 12  1  6  0  0  0
 25 17  1  0  0  0  0
 26 13  1  0  0  0  0
 26 24  2  0  0  0  0
 28 12  2  0  0  0  0
M  END
>  <MODEL>
6

>  <REMARK>
 VINA RESULT:      -7.2      2.154      5.600
  Name = 
  0 active torsions:
  status: ('A' for Active; 'I' for Inactive)
                            x       y       z     vdW  Elec       q    Type
                         _______ _______ _______ _____ _____    ______ ____

>  <TORSDO>
F 0

$$$$
=
 OpenBabel11112417423D

 28 32  0  0  1  0  0  0  0  0999 V2000
  190.2910  176.6170  143.3650 C   0  0  0  0  0  0  0  0  0  0  0  0
  188.0650  177.9820  140.7180 O   0  0  0  0  0  0  0  0  0  0  0  0
  186.0490  175.9260  148.0540 C   0  0  0  0  0  1  0  0  0  0  0  0
  190.0440  174.1170  142.1180 C   0  0  0  0  0  3  0  0  0  0  0  0
  185.5800  177.6860  146.3330 C   0  0  2  0  0  3  0  0  0  0  0  0
  190.4760  177.9410  144.0460 C   0  0  0  0  0  2  0  0  0  0  0  0
  186.7540  175.8970  140.5800 O   0  0  0  0  0  0  0  0  0  0  0  0
  186.8300  177.2680  141.1900 S   0  0  0  0  0  0  0  0  0  0  0  0
  184.2610  177.9130  141.7480 C   0  0  2  0  0  3  0  0  0  0  0  0
  186.8250  177.1550  142.9140 N   0  0  0  0  0  0  0  0  0  0  0  0
  190.6750  175.7710  146.6040 O   0  0  0  0  0  0  0  0  0  0  0  0
  187.3490  176.8100  145.0380 C   0  0  0  0  0  0  0  0  0  0  0  0
  184.6260  178.3650  143.1640 C   0  0  0  0  0  2  0  0  0  0  0  0
  185.3810  178.2060  140.7510 C   0  0  0  0  0  2  0  0  0  0  0  0
  190.2970  176.9320  146.2960 C   0  0  0  0  0  0  0  0  0  0  0  0
  189.0230  176.0000  143.2650 C   0  0  0  0  0  0  0  0  0  0  0  0
  186.6520  177.0780  147.2730 C   0  0  2  0  0  3  0  0  0  0  0  0
  182.9990  178.6230  141.3060 C   0  0  0  0  0  1  0  0  0  0  0  0
  189.0000  177.3870  146.6650 N   0  0  0  0  0  2  0  0  0  0  0  0
  188.9140  174.7550  142.6330 C   0  0  0  0  0  3  0  0  0  0  0  0
  191.4190  175.9690  142.8430 C   0  0  0  0  0  3  0  0  0  0  0  0
  191.2970  174.7250  142.2220 C   0  0  0  0  0  3  0  0  0  0  0  0
  191.1430  177.7800  145.4120 C   0  0  0  0  0  2  0  0  0  0  0  0
  186.1550  177.4110  145.0050 C   0  0  0  0  0  0  0  0  0  0  0  0
  187.8340  176.5590  146.4140 C   0  0  2  0  0  3  0  0  0  0  0  0
  185.8170  177.6190  143.6870 C   0  0  0  0  0  0  0  0  0  0  0  0
  185.5000  179.1830  146.5620 C   0  0  0  0  0  1  0  0  0  0  0  0
  187.7850  176.6520  143.7310 C   0  0  0  0  0  0  0  0  0  0  0  0
  1  6  1  0  0  0  0
  2  8  2  0  0  0  0
  4 22  2  0  0  0  0
  4 20  1  0  0  0  0
  5 27  1  1  0  0  0
  5 17  1  0  0  0  0
  6 23  1  0  0  0  0
  7  8  2  0  0  0  0
  8 10  1  0  0  0  0
  9 18  1  6  0  0  0
  9 13  1  0  0  0  0
 10 26  1  0  0  0  0
 10 28  1  0  0  0  0
 13 26  1  0  0  0  0
 14  8  1  0  0  0  0
 14  9  1  0  0  0  0
 15 11  2  0  0  0  0
 15 19  1  0  0  0  0
 16  1  1  0  0  0  0
 16 28  1  0  0  0  0
 17  3  1  6  0  0  0
 20 16  2  0  0  0  0
 21  1  2  0  0  0  0
 22 21  1  0  0  0  0
 23 15  1  0  0  0  0
 24 12  1  0  0  0  0
 24  5  1  0  0  0  0
 25 12  1  6  0  0  0
 25 19  1  0  0  0  0
 25 17  1  0  0  0  0
 26 24  2  0  0  0  0
 28 12  2  0  0  0  0
M  END
>  <MODEL>
7

>  <REMARK>
 VINA RESULT:      -7.1      2.629      6.091
  Name = 
  0 active torsions:
  status: ('A' for Active; 'I' for Inactive)
                            x       y       z     vdW  Elec       q    Type
                         _______ _______ _______ _____ _____    ______ ____

>  <TORSDO>
F 0

$$$$
=
 OpenBabel11112417423D

 28 32  0  0  1  0  0  0  0  0999 V2000
  189.1420  176.9700  144.3700 C   0  0  0  0  0  0  0  0  0  0  0  0
  192.7300  176.7940  145.3330 O   0  0  0  0  0  0  0  0  0  0  0  0
  188.8580  171.9670  140.4520 C   0  0  0  0  0  1  0  0  0  0  0  0
  188.5480  175.7120  146.8040 C   0  0  0  0  0  3  0  0  0  0  0  0
  191.0770  173.1030  140.7030 C   0  0  2  0  0  3  0  0  0  0  0  0
  189.4120  177.6720  143.0710 C   0  0  0  0  0  2  0  0  0  0  0  0
  192.4350  174.6350  146.4890 O   0  0  0  0  0  0  0  0  0  0  0  0
  192.8370  175.3010  145.2030 S   0  0  0  0  0  0  0  0  0  0  0  0
  194.4990  173.5310  144.0070 C   0  0  2  0  0  3  0  0  0  0  0  0
  191.8460  174.7380  143.9050 N   0  0  0  0  0  0  0  0  0  0  0  0
  186.6760  175.8560  142.3620 O   0  0  0  0  0  0  0  0  0  0  0  0
  190.1780  174.3360  142.5040 C   0  0  0  0  0  0  0  0  0  0  0  0
  193.7650  173.6650  142.6700 C   0  0  0  0  0  2  0  0  0  0  0  0
  194.5070  174.8460  144.7850 C   0  0  0  0  0  2  0  0  0  0  0  0
  187.7370  176.3150  141.8620 C   0  0  0  0  0  0  0  0  0  0  0  0
  189.6340  175.6710  144.6310 C   0  0  0  0  0  0  0  0  0  0  0  0
  189.5580  173.3120  140.4740 C   0  0  2  0  0  3  0  0  0  0  0  0
  195.9260  173.0920  143.7530 C   0  0  0  0  0  1  0  0  0  0  0  0
  188.6030  175.4700  141.1120 N   0  0  0  0  0  2  0  0  0  0  0  0
  189.3350  175.0580  145.8540 C   0  0  0  0  0  3  0  0  0  0  0  0
  188.3550  177.6190  145.3300 C   0  0  0  0  0  3  0  0  0  0  0  0
  188.0580  176.9930  146.5430 C   0  0  0  0  0  3  0  0  0  0  0  0
  188.1690  177.7020  142.1820 C   0  0  0  0  0  2  0  0  0  0  0  0
  191.2800  173.7690  142.0010 C   0  0  0  0  0  0  0  0  0  0  0  0
  188.9920  174.1720  141.6340 C   0  0  2  0  0  3  0  0  0  0  0  0
  192.3190  174.0060  142.8720 C   0  0  0  0  0  0  0  0  0  0  0  0
  191.8540  173.8300  139.6220 C   0  0  0  0  0  1  0  0  0  0  0  0
  190.5230  174.9560  143.6950 C   0  0  0  0  0  0  0  0  0  0  0  0
  1 16  2  0  0  0  0
  1 21  1  0  0  0  0
  5 27  1  6  0  0  0
  5 24  1  0  0  0  0
  6  1  1  0  0  0  0
  8  2  2  0  0  0  0
  8  7  2  0  0  0  0
  9 18  1  6  0  0  0
  9 14  1  0  0  0  0
 10  8  1  0  0  0  0
 12 28  2  0  0  0  0
 13 26  1  0  0  0  0
 13  9  1  0  0  0  0
 14  8  1  0  0  0  0
 15 23  1  0  0  0  0
 15 11  2  0  0  0  0
 16 20  1  0  0  0  0
 17  3  1  1  0  0  0
 17  5  1  0  0  0  0
 17 25  1  0  0  0  0
 19 15  1  0  0  0  0
 20  4  2  0  0  0  0
 21 22  2  0  0  0  0
 22  4  1  0  0  0  0
 23  6  1  0  0  0  0
 24 12  1  0  0  0  0
 24 26  2  0  0  0  0
 25 19  1  6  0  0  0
 25 12  1  0  0  0  0
 26 10  1  0  0  0  0
 28 10  1  0  0  0  0
 28 16  1  0  0  0  0
M  END
>  <MODEL>
8

>  <REMARK>
 VINA RESULT:      -7.1      1.867      4.950
  Name = 
  0 active torsions:
  status: ('A' for Active; 'I' for Inactive)
                            x       y       z     vdW  Elec       q    Type
                         _______ _______ _______ _____ _____    ______ ____

>  <TORSDO>
F 0

$$$$
=
 OpenBabel11112417423D

 28 32  0  0  1  0  0  0  0  0999 V2000
  186.0000  176.9840  143.0210 C   0  0  0  0  0  0  0  0  0  0  0  0
  187.1080  173.6630  141.7660 O   0  0  0  0  0  0  0  0  0  0  0  0
  190.4320  177.9570  147.4790 C   0  0  0  0  0  1  0  0  0  0  0  0
  187.2870  178.1200  140.8050 C   0  0  0  0  0  3  0  0  0  0  0  0
  189.8820  175.5800  146.9070 C   0  0  2  0  0  3  0  0  0  0  0  0
  185.2720  176.4160  144.2040 C   0  0  0  0  0  2  0  0  0  0  0  0
  189.2270  174.5710  140.8870 O   0  0  0  0  0  0  0  0  0  0  0  0
  188.5670  173.8850  142.0510 S   0  0  0  0  0  0  0  0  0  0  0  0
  190.5710  172.5460  143.2820 C   0  0  2  0  0  3  0  0  0  0  0  0
  188.7620  174.8250  143.4870 N   0  0  0  0  0  0  0  0  0  0  0  0
  186.3160  179.3960  145.3520 O   0  0  0  0  0  0  0  0  0  0  0  0
  188.6320  176.3710  145.0670 C   0  0  0  0  0  0  0  0  0  0  0  0
  190.1510  173.0740  144.6560 C   0  0  0  0  0  2  0  0  0  0  0  0
  189.3680  172.3260  142.3660 C   0  0  0  0  0  2  0  0  0  0  0  0
  186.0810  178.2090  145.7010 C   0  0  0  0  0  0  0  0  0  0  0  0
  187.3960  176.8340  142.8630 C   0  0  0  0  0  0  0  0  0  0  0  0
  189.2990  176.9750  147.2460 C   0  0  2  0  0  3  0  0  0  0  0  0
  191.3130  171.2380  143.4550 C   0  0  0  0  0  1  0  0  0  0  0  0
  187.0390  177.4790  146.4600 N   0  0  0  0  0  2  0  0  0  0  0  0
  188.0250  177.4000  141.7470 C   0  0  0  0  0  3  0  0  0  0  0  0
  185.2680  177.7060  142.0690 C   0  0  0  0  0  3  0  0  0  0  0  0
  185.9080  178.2720  140.9650 C   0  0  0  0  0  3  0  0  0  0  0  0
  184.8700  177.5110  145.1930 C   0  0  0  0  0  2  0  0  0  0  0  0
  189.4000  175.3780  145.5300 C   0  0  0  0  0  0  0  0  0  0  0  0
  188.4330  177.4580  146.0530 C   0  0  2  0  0  3  0  0  0  0  0  0
  189.4930  174.4180  144.5480 C   0  0  0  0  0  0  0  0  0  0  0  0
  189.2700  174.5410  147.8260 C   0  0  0  0  0  1  0  0  0  0  0  0
  188.2180  176.0310  143.7890 C   0  0  0  0  0  0  0  0  0  0  0  0
  1  6  1  0  0  0  0
  2  8  2  0  0  0  0
  4 22  2  0  0  0  0
  4 20  1  0  0  0  0
  5 17  1  0  0  0  0
  5 27  1  1  0  0  0
  6 23  1  0  0  0  0
  7  8  2  0  0  0  0
  8 14  1  0  0  0  0
  8 10  1  0  0  0  0
  9 18  1  1  0  0  0
  9 13  1  0  0  0  0
 10 28  1  0  0  0  0
 10 26  1  0  0  0  0
 11 15  2  0  0  0  0
 12 24  1  0  0  0  0
 14  9  1  0  0  0  0
 15 19  1  0  0  0  0
 16  1  1  0  0  0  0
 16 28  1  0  0  0  0
 17  3  1  6  0  0  0
 20 16  2  0  0  0  0
 21  1  2  0  0  0  0
 22 21  1  0  0  0  0
 23 15  1  0  0  0  0
 24  5  1  0  0  0  0
 25 12  1  6  0  0  0
 25 19  1  0  0  0  0
 25 17  1  0  0  0  0
 26 13  1  0  0  0  0
 26 24  2  0  0  0  0
 28 12  2  0  0  0  0
M  END
>  <MODEL>
9

>  <REMARK>
 VINA RESULT:      -7.0      2.898      4.214
  Name = 
  0 active torsions:
  status: ('A' for Active; 'I' for Inactive)
                            x       y       z     vdW  Elec       q    Type
                         _______ _______ _______ _____ _____    ______ ____

>  <TORSDO>
F 0

$$$$
