=
 OpenBabel11112417423D

 28 32  0  0  1  0  0  0  0  0999 V2000
  186.5510  178.3840  145.0170 C   0  0  0  0  0  0  0  0  0  0  0  0
  189.7500  177.5120  147.5380 O   0  0  0  0  0  0  0  0  0  0  0  0
  187.0460  173.8140  141.9240 O   0  0  0  0  0  0  0  0  0  0  0  0
  185.8620  176.7620  147.1950 C   0  0  0  0  0  3  0  0  0  0  0  0
  189.2040  174.5810  142.4440 N   0  0  0  0  0  0  0  0  0  0  0  0
  186.8480  179.2110  143.7990 C   0  0  0  0  0  2  0  0  0  0  0  0
  190.6320  175.2300  147.6340 O   0  0  0  0  0  0  0  0  0  0  0  0
  190.4990  176.4560  146.7760 S   0  0  0  0  0  0  0  0  0  0  0  0
  192.6050  176.2210  145.3170 C   0  0  2  0  0  3  0  0  0  0  0  0
  189.6290  176.0190  145.2600 C   0  0  2  0  0  3  0  0  0  0  0  0
  184.3560  177.5550  141.5090 O   0  0  0  0  0  1  0  0  0  0  0  0
  188.6290  176.7700  143.2190 C   0  0  1  0  0  3  0  0  0  0  0  0
  191.7360  176.3720  144.0780 C   0  0  0  0  0  2  0  0  0  0  0  0
  192.0750  177.0510  146.3850 N   0  0  0  0  0  2  0  0  0  0  0  0
  185.4390  177.5780  142.3860 C   0  0  1  0  0  3  0  0  0  0  0  0
  187.4220  177.3440  145.4170 C   0  0  0  0  0  0  0  0  0  0  0  0
  187.8050  174.7230  142.3550 C   0  0  0  0  0  0  0  0  0  0  0  0
  194.0150  176.6680  144.9930 C   0  0  0  0  0  1  0  0  0  0  0  0
  186.5930  176.7980  141.7730 C   0  0  0  0  0  2  0  0  0  0  0  0
  187.0520  176.5320  146.5030 C   0  0  0  0  0  3  0  0  0  0  0  0
  185.3640  178.6130  145.7240 C   0  0  0  0  0  3  0  0  0  0  0  0
  185.0220  177.8080  146.8110 C   0  0  0  0  0  3  0  0  0  0  0  0
  185.8050  179.0330  142.6890 C   0  0  0  0  0  2  0  0  0  0  0  0
  189.8000  175.8070  142.9370 C   0  0  1  0  0  3  0  0  0  0  0  0
  187.3280  176.0270  142.8580 C   0  0  2  0  0  3  0  0  0  0  0  0
  190.5230  175.5560  144.1840 N   0  0  2  0  0  0  0  0  0  0  0  0
  189.9610  173.4510  141.9330 C   0  0  0  0  0  1  0  0  0  0  0  0
  188.7480  177.1230  144.6990 C   0  0  1  0  0  3  0  0  0  0  0  0
  1 16  2  0  0  0  0
  1 21  1  0  0  0  0
  3 17  2  0  0  0  0
  5 24  1  0  0  0  0
  6  1  1  0  0  0  0
  8  2  2  0  0  0  0
  8  7  2  0  0  0  0
  9 18  1  6  0  0  0
  9 14  1  0  0  0  0
 10  8  1  1  0  0  0
 11 15  1  0  0  0  0
 12 28  1  0  0  0  0
 13 26  1  0  0  0  0
 13  9  1  0  0  0  0
 14  8  1  0  0  0  0
 15 23  1  0  0  0  0
 16 20  1  0  0  0  0
 17  5  1  0  0  0  0
 17 25  1  0  0  0  0
 19 15  1  0  0  0  0
 19 25  1  0  0  0  0
 20  4  2  0  0  0  0
 21 22  2  0  0  0  0
 22  4  1  0  0  0  0
 23  6  1  0  0  0  0
 24 12  1  0  0  0  0
 24 26  1  0  0  0  0
 25 12  1  0  0  0  0
 26 10  1  0  0  0  0
 27  5  1  0  0  0  0
 28 10  1  0  0  0  0
 28 16  1  0  0  0  0
M  END
>  <MODEL>
1

>  <REMARK>
 VINA RESULT:      -8.6      0.000      0.000
  Name = 
  0 active torsions:
  status: ('A' for Active; 'I' for Inactive)
                            x       y       z     vdW  Elec       q    Type
                         _______ _______ _______ _____ _____    ______ ____

>  <TORSDO>
F 0

$$$$
=
 OpenBabel11112417423D

 28 32  0  0  1  0  0  0  0  0999 V2000
  189.1710  176.7330  145.3790 C   0  0  0  0  0  0  0  0  0  0  0  0
  193.0170  175.9480  146.7750 O   0  0  0  0  0  0  0  0  0  0  0  0
  189.3860  173.1380  141.1690 O   0  0  0  0  0  0  0  0  0  0  0  0
  189.3080  174.5690  147.1550 C   0  0  0  0  0  3  0  0  0  0  0  0
  191.4890  174.1660  141.3600 N   0  0  0  0  0  0  0  0  0  0  0  0
  189.0210  177.8490  144.3870 C   0  0  0  0  0  2  0  0  0  0  0  0
  194.1730  173.9100  146.0640 O   0  0  0  0  0  0  0  0  0  0  0  0
  193.6590  175.2480  145.6120 S   0  0  0  0  0  0  0  0  0  0  0  0
  195.3040  175.7440  143.6960 C   0  0  2  0  0  3  0  0  0  0  0  0
  192.4740  175.0000  144.2770 C   0  0  2  0  0  3  0  0  0  0  0  0
  186.2330  176.3000  142.3820 O   0  0  0  0  0  1  0  0  0  0  0  0
  190.8730  175.9800  142.7930 C   0  0  1  0  0  3  0  0  0  0  0  0
  194.1210  175.9980  142.7760 C   0  0  0  0  0  2  0  0  0  0  0  0
  194.9820  176.2020  145.0380 N   0  0  0  0  0  2  0  0  0  0  0  0
  187.5010  176.3330  142.9600 C   0  0  1  0  0  3  0  0  0  0  0  0
  190.2430  175.8150  145.2810 C   0  0  0  0  0  0  0  0  0  0  0  0
  190.1110  174.0570  141.6360 C   0  0  0  0  0  0  0  0  0  0  0  0
  196.5050  176.5100  143.1850 C   0  0  0  0  0  1  0  0  0  0  0  0
  188.5350  175.9400  141.9140 C   0  0  0  0  0  2  0  0  0  0  0  0
  190.2860  174.7280  146.1710 C   0  0  0  0  0  3  0  0  0  0  0  0
  188.2010  176.5710  146.3770 C   0  0  0  0  0  3  0  0  0  0  0  0
  188.2710  175.4960  147.2630 C   0  0  0  0  0  3  0  0  0  0  0  0
  187.7480  177.7270  143.5400 C   0  0  0  0  0  2  0  0  0  0  0  0
  192.0360  175.3430  142.0060 C   0  0  1  0  0  3  0  0  0  0  0  0
  189.6270  175.1030  142.5600 C   0  0  2  0  0  3  0  0  0  0  0  0
  193.0950  174.9640  142.9410 N   0  0  2  0  0  0  0  0  0  0  0  0
  192.2160  173.3410  140.4100 C   0  0  0  0  0  1  0  0  0  0  0  0
  191.3410  176.0130  144.2440 C   0  0  1  0  0  3  0  0  0  0  0  0
  1 21  1  0  0  0  0
  3 17  2  0  0  0  0
  4 22  1  0  0  0  0
  5 17  1  0  0  0  0
  5 24  1  0  0  0  0
  6  1  1  0  0  0  0
  8  7  2  0  0  0  0
  8  2  2  0  0  0  0
  9 18  1  6  0  0  0
  9 14  1  0  0  0  0
 10  8  1  1  0  0  0
 11 15  1  0  0  0  0
 12 28  1  0  0  0  0
 13 26  1  0  0  0  0
 13  9  1  0  0  0  0
 14  8  1  0  0  0  0
 15 23  1  0  0  0  0
 16  1  2  0  0  0  0
 16 20  1  0  0  0  0
 17 25  1  0  0  0  0
 19 25  1  0  0  0  0
 19 15  1  0  0  0  0
 20  4  2  0  0  0  0
 21 22  2  0  0  0  0
 23  6  1  0  0  0  0
 24 12  1  0  0  0  0
 24 26  1  0  0  0  0
 25 12  1  0  0  0  0
 26 10  1  0  0  0  0
 27  5  1  0  0  0  0
 28 10  1  0  0  0  0
 28 16  1  0  0  0  0
M  END
>  <MODEL>
2

>  <REMARK>
 VINA RESULT:      -8.2      2.234      3.059
  Name = 
  0 active torsions:
  status: ('A' for Active; 'I' for Inactive)
                            x       y       z     vdW  Elec       q    Type
                         _______ _______ _______ _____ _____    ______ ____

>  <TORSDO>
F 0

$$$$
=
 OpenBabel11112417423D

 28 32  0  0  1  0  0  0  0  0999 V2000
  188.4850  175.7430  146.1420 C   0  0  0  0  0  0  0  0  0  0  0  0
  186.9490  174.8010  142.3860 O   0  0  0  0  0  0  0  0  0  0  0  0
  193.3360  177.6570  144.2710 O   0  0  0  0  0  0  0  0  0  0  0  0
  187.2150  177.8930  144.8690 C   0  0  0  0  0  3  0  0  0  0  0  0
  192.7370  175.7920  142.9750 N   0  0  0  0  0  0  0  0  0  0  0  0
  189.2220  174.6570  146.8690 C   0  0  0  0  0  2  0  0  0  0  0  0
  187.9770  175.7580  140.3800 O   0  0  0  0  0  0  0  0  0  0  0  0
  188.1730  174.7940  141.5160 S   0  0  0  0  0  0  0  0  0  0  0  0
  189.7790  173.1120  140.4120 C   0  0  2  0  0  3  0  0  0  0  0  0
  189.6320  175.2820  142.4540 C   0  0  2  0  0  3  0  0  0  0  0  0
  191.7590  176.8770  148.5500 O   0  0  0  0  0  1  0  0  0  0  0  0
  191.0080  174.9200  144.3780 C   0  0  1  0  0  3  0  0  0  0  0  0
  190.7260  173.2780  141.5910 C   0  0  0  0  0  2  0  0  0  0  0  0
  188.4050  173.2030  140.8790 N   0  0  0  0  0  2  0  0  0  0  0  0
  191.0750  176.3500  147.4560 C   0  0  1  0  0  3  0  0  0  0  0  0
  188.6820  175.9510  144.7570 C   0  0  0  0  0  0  0  0  0  0  0  0
  192.6180  176.6360  144.0970 C   0  0  0  0  0  0  0  0  0  0  0  0
  190.0010  171.7540  139.7830 C   0  0  0  0  0  1  0  0  0  0  0  0
  192.0830  175.9180  146.4000 C   0  0  0  0  0  2  0  0  0  0  0  0
  188.0480  177.0430  144.1400 C   0  0  0  0  0  3  0  0  0  0  0  0
  187.6390  176.5950  146.8630 C   0  0  0  0  0  3  0  0  0  0  0  0
  187.0040  177.6640  146.2290 C   0  0  0  0  0  3  0  0  0  0  0  0
  190.1870  175.1980  147.9310 C   0  0  0  0  0  2  0  0  0  0  0  0
  191.8050  174.6870  143.0790 C   0  0  1  0  0  3  0  0  0  0  0  0
  191.5380  176.2210  145.0140 C   0  0  2  0  0  3  0  0  0  0  0  0
  190.8820  174.6920  141.9440 N   0  0  2  0  0  0  0  0  0  0  0  0
  193.7740  175.8970  141.9610 C   0  0  0  0  0  1  0  0  0  0  0  0
  189.5470  174.9960  143.9440 C   0  0  1  0  0  3  0  0  0  0  0  0
  1 21  1  0  0  0  0
  1  6  1  0  0  0  0
  4 22  1  0  0  0  0
  5 24  1  0  0  0  0
  5 17  1  0  0  0  0
  6 23  1  0  0  0  0
  7  8  2  0  0  0  0
  8  2  2  0  0  0  0
  9 18  1  1  0  0  0
  9 14  1  0  0  0  0
  9 13  1  0  0  0  0
 10  8  1  6  0  0  0
 10 28  1  0  0  0  0
 12 25  1  0  0  0  0
 13 26  1  0  0  0  0
 14  8  1  0  0  0  0
 15 23  1  0  0  0  0
 15 11  1  0  0  0  0
 16  1  2  0  0  0  0
 17  3  2  0  0  0  0
 17 25  1  0  0  0  0
 19 15  1  0  0  0  0
 20 16  1  0  0  0  0
 20  4  2  0  0  0  0
 22 21  2  0  0  0  0
 24 12  1  0  0  0  0
 25 19  1  0  0  0  0
 26 10  1  0  0  0  0
 26 24  1  0  0  0  0
 27  5  1  0  0  0  0
 28 12  1  0  0  0  0
 28 16  1  0  0  0  0
M  END
>  <MODEL>
3

>  <REMARK>
 VINA RESULT:      -8.0      2.272      5.555
  Name = 
  0 active torsions:
  status: ('A' for Active; 'I' for Inactive)
                            x       y       z     vdW  Elec       q    Type
                         _______ _______ _______ _____ _____    ______ ____

>  <TORSDO>
F 0

$$$$
=
 OpenBabel11112417423D

 28 32  0  0  1  0  0  0  0  0999 V2000
  186.0480  177.2070  144.1880 C   0  0  0  0  0  0  0  0  0  0  0  0
  188.7090  175.1270  141.7490 O   0  0  0  0  0  0  0  0  0  0  0  0
  189.8150  178.6370  147.9920 O   0  0  0  0  0  0  0  0  0  0  0  0
  187.3900  178.8300  142.3380 C   0  0  0  0  0  3  0  0  0  0  0  0
  190.2880  176.4490  147.2800 N   0  0  0  0  0  0  0  0  0  0  0  0
  185.3240  176.4160  145.2380 C   0  0  0  0  0  2  0  0  0  0  0  0
  191.1200  175.4720  142.0130 O   0  0  0  0  0  0  0  0  0  0  0  0
  189.8870  174.9010  142.6550 S   0  0  0  0  0  0  0  0  0  0  0  0
  190.9370  173.0220  144.0650 C   0  0  2  0  0  3  0  0  0  0  0  0
  189.6330  175.6990  144.2500 C   0  0  2  0  0  3  0  0  0  0  0  0
  185.2160  179.1240  147.8530 O   0  0  0  0  0  1  0  0  0  0  0  0
  188.2260  175.9800  146.1650 C   0  0  1  0  0  3  0  0  0  0  0  0
  190.2140  173.5670  145.2870 C   0  0  0  0  0  2  0  0  0  0  0  0
  190.1020  173.2020  142.8890 N   0  0  0  0  0  2  0  0  0  0  0  0
  185.8460  178.2700  146.9510 C   0  0  1  0  0  3  0  0  0  0  0  0
  187.4250  176.9960  143.9420 C   0  0  0  0  0  0  0  0  0  0  0  0
  189.4640  177.5870  147.3900 C   0  0  0  0  0  0  0  0  0  0  0  0
  191.2060  171.5460  144.2630 C   0  0  0  0  0  1  0  0  0  0  0  0
  187.0060  177.5750  147.6500 C   0  0  0  0  0  2  0  0  0  0  0  0
  188.0830  177.8300  143.0210 C   0  0  0  0  0  3  0  0  0  0  0  0
  185.3590  178.2070  143.4900 C   0  0  0  0  0  3  0  0  0  0  0  0
  186.0250  179.0130  142.5670 C   0  0  0  0  0  3  0  0  0  0  0  0
  184.8160  177.2840  146.3950 C   0  0  0  0  0  2  0  0  0  0  0  0
  189.5940  175.3950  146.5680 C   0  0  1  0  0  3  0  0  0  0  0  0
  188.1740  177.4290  146.6880 C   0  0  2  0  0  3  0  0  0  0  0  0
  190.3310  175.0270  145.3600 N   0  0  2  0  0  0  0  0  0  0  0  0
  191.5670  176.2800  147.9510 C   0  0  0  0  0  1  0  0  0  0  0  0
  188.1750  175.8710  144.6440 C   0  0  1  0  0  3  0  0  0  0  0  0
  1  6  1  0  0  0  0
  2  8  2  0  0  0  0
  4 22  2  0  0  0  0
  4 20  1  0  0  0  0
  5 17  1  0  0  0  0
  5 27  1  0  0  0  0
  6 23  1  0  0  0  0
  7  8  2  0  0  0  0
  8 14  1  0  0  0  0
  9 18  1  1  0  0  0
  9 13  1  0  0  0  0
 10  8  1  6  0  0  0
 10 28  1  0  0  0  0
 10 26  1  0  0  0  0
 12 24  1  0  0  0  0
 12 25  1  0  0  0  0
 13 26  1  0  0  0  0
 14  9  1  0  0  0  0
 15 19  1  0  0  0  0
 15 11  1  0  0  0  0
 16  1  1  0  0  0  0
 16 28  1  0  0  0  0
 17  3  2  0  0  0  0
 20 16  2  0  0  0  0
 21  1  2  0  0  0  0
 22 21  1  0  0  0  0
 23 15  1  0  0  0  0
 24  5  1  0  0  0  0
 25 17  1  0  0  0  0
 25 19  1  0  0  0  0
 26 24  1  0  0  0  0
 28 12  1  0  0  0  0
M  END
>  <MODEL>
4

>  <REMARK>
 VINA RESULT:      -7.8      2.251      4.680
  Name = 
  0 active torsions:
  status: ('A' for Active; 'I' for Inactive)
                            x       y       z     vdW  Elec       q    Type
                         _______ _______ _______ _____ _____    ______ ____

>  <TORSDO>
F 0

$$$$
=
 OpenBabel11112417423D

 28 32  0  0  1  0  0  0  0  0999 V2000
  190.3150  177.4650  144.5560 C   0  0  0  0  0  0  0  0  0  0  0  0
  194.2980  177.3050  145.7660 O   0  0  0  0  0  0  0  0  0  0  0  0
  190.0430  172.1810  142.9110 O   0  0  0  0  0  0  0  0  0  0  0  0
  190.6610  176.5640  147.1870 C   0  0  0  0  0  3  0  0  0  0  0  0
  192.1530  173.0240  142.3150 N   0  0  0  0  0  0  0  0  0  0  0  0
  190.0490  177.8930  143.1430 C   0  0  0  0  0  2  0  0  0  0  0  0
  195.3670  175.1330  146.1390 O   0  0  0  0  0  0  0  0  0  0  0  0
  194.8020  176.0570  145.0980 S   0  0  0  0  0  0  0  0  0  0  0  0
  196.2120  175.3640  143.0600 C   0  0  2  0  0  3  0  0  0  0  0  0
  193.4700  175.2140  144.2250 C   0  0  2  0  0  3  0  0  0  0  0  0
  187.0490  175.6910  142.5590 O   0  0  0  0  0  1  0  0  0  0  0  0
  191.7050  175.3550  142.6150 C   0  0  1  0  0  3  0  0  0  0  0  0
  194.9290  175.1640  142.2690 C   0  0  0  0  0  2  0  0  0  0  0  0
  196.0470  176.4810  143.9760 N   0  0  0  0  0  2  0  0  0  0  0  0
  188.3750  175.9470  142.9010 C   0  0  1  0  0  3  0  0  0  0  0  0
  191.3690  176.5700  144.8560 C   0  0  0  0  0  0  0  0  0  0  0  0
  190.8170  173.1610  142.7420 C   0  0  0  0  0  0  0  0  0  0  0  0
  197.3450  175.6690  142.1030 C   0  0  0  0  0  1  0  0  0  0  0  0
  189.2810  174.9990  142.1290 C   0  0  0  0  0  2  0  0  0  0  0  0
  191.5170  176.1180  146.1790 C   0  0  0  0  0  3  0  0  0  0  0  0
  189.4680  177.9140  145.5770 C   0  0  0  0  0  3  0  0  0  0  0  0
  189.6420  177.4680  146.8880 C   0  0  0  0  0  3  0  0  0  0  0  0
  188.6860  177.4200  142.6220 C   0  0  0  0  0  2  0  0  0  0  0  0
  192.7700  174.3290  142.1770 C   0  0  1  0  0  3  0  0  0  0  0  0
  190.4420  174.5650  143.0090 C   0  0  2  0  0  3  0  0  0  0  0  0
  193.9310  174.4380  143.0600 N   0  0  2  0  0  0  0  0  0  0  0  0
  192.7650  171.7790  141.8840 C   0  0  0  0  0  1  0  0  0  0  0  0
  192.3400  176.1220  143.7700 C   0  0  1  0  0  3  0  0  0  0  0  0
  1 16  2  0  0  0  0
  1 21  1  0  0  0  0
  5 17  1  0  0  0  0
  6  1  1  0  0  0  0
  8  2  2  0  0  0  0
  8  7  2  0  0  0  0
  9 18  1  6  0  0  0
  9 14  1  0  0  0  0
 10  8  1  6  0  0  0
 11 15  1  0  0  0  0
 12 25  1  0  0  0  0
 12 28  1  0  0  0  0
 13  9  1  0  0  0  0
 13 26  1  0  0  0  0
 14  8  1  0  0  0  0
 16 20  1  0  0  0  0
 17  3  2  0  0  0  0
 17 25  1  0  0  0  0
 19 15  1  0  0  0  0
 19 25  1  0  0  0  0
 20  4  2  0  0  0  0
 21 22  2  0  0  0  0
 22  4  1  0  0  0  0
 23 15  1  0  0  0  0
 23  6  1  0  0  0  0
 24  5  1  0  0  0  0
 24 12  1  0  0  0  0
 24 26  1  0  0  0  0
 26 10  1  0  0  0  0
 27  5  1  0  0  0  0
 28 10  1  0  0  0  0
 28 16  1  0  0  0  0
M  END
>  <MODEL>
5

>  <REMARK>
 VINA RESULT:      -7.7      3.014      3.982
  Name = 
  0 active torsions:
  status: ('A' for Active; 'I' for Inactive)
                            x       y       z     vdW  Elec       q    Type
                         _______ _______ _______ _____ _____    ______ ____

>  <TORSDO>
F 0

$$$$
=
 OpenBabel11112417423D

 28 32  0  0  1  0  0  0  0  0999 V2000
  194.8250  175.9450  144.3460 C   0  0  0  0  0  0  0  0  0  0  0  0
  191.5500  178.3350  143.3900 O   0  0  0  0  0  0  0  0  0  0  0  0
  192.1730  171.1220  143.7030 O   0  0  0  0  0  0  0  0  0  0  0  0
  194.5270  176.4050  141.5980 C   0  0  0  0  0  3  0  0  0  0  0  0
  190.6890  172.6450  144.7010 N   0  0  0  0  0  0  0  0  0  0  0  0
  195.0260  175.6130  145.7960 C   0  0  0  0  0  2  0  0  0  0  0  0
  189.6290  177.3540  142.2310 O   0  0  0  0  0  0  0  0  0  0  0  0
  190.3920  177.3870  143.5240 S   0  0  0  0  0  0  0  0  0  0  0  0
  188.5050  176.8290  145.1820 C   0  0  2  0  0  3  0  0  0  0  0  0
  190.9670  175.7230  143.9100 C   0  0  2  0  0  3  0  0  0  0  0  0
  196.4020  172.1440  145.2800 O   0  0  0  0  0  1  0  0  0  0  0  0
  192.2710  174.3200  145.3430 C   0  0  1  0  0  3  0  0  0  0  0  0
  189.3680  175.7160  145.7550 C   0  0  0  0  0  2  0  0  0  0  0  0
  189.3500  177.9430  144.7870 N   0  0  0  0  0  2  0  0  0  0  0  0
  195.4530  173.1560  145.1420 C   0  0  1  0  0  3  0  0  0  0  0  0
  193.5340  175.9130  143.7680 C   0  0  0  0  0  0  0  0  0  0  0  0
  191.9690  172.2170  144.2950 C   0  0  0  0  0  0  0  0  0  0  0  0
  187.5280  177.2960  146.2400 C   0  0  0  0  0  1  0  0  0  0  0  0
  194.0830  172.6090  145.5130 C   0  0  0  0  0  2  0  0  0  0  0  0
  193.4070  176.1320  142.3860 C   0  0  0  0  0  3  0  0  0  0  0  0
  195.9410  176.2300  143.5500 C   0  0  0  0  0  3  0  0  0  0  0  0
  195.7930  176.4630  142.1820 C   0  0  0  0  0  3  0  0  0  0  0  0
  195.8680  174.3490  146.0080 C   0  0  0  0  0  2  0  0  0  0  0  0
  190.7830  173.9190  145.3870 C   0  0  1  0  0  3  0  0  0  0  0  0
  193.0260  173.2030  144.5960 C   0  0  2  0  0  3  0  0  0  0  0  0
  189.9940  174.9330  144.6860 N   0  0  2  0  0  0  0  0  0  0  0  0
  189.4790  171.8430  144.6250 C   0  0  0  0  0  1  0  0  0  0  0  0
  192.3030  175.6690  144.6310 C   0  0  1  0  0  3  0  0  0  0  0  0
  1  6  1  0  0  0  0
  2  8  2  0  0  0  0
  3 17  2  0  0  0  0
  4 22  2  0  0  0  0
  4 20  1  0  0  0  0
  5 24  1  0  0  0  0
  6 23  1  0  0  0  0
  7  8  2  0  0  0  0
  8 14  1  0  0  0  0
  9 13  1  0  0  0  0
  9 18  1  1  0  0  0
 10  8  1  1  0  0  0
 10 28  1  0  0  0  0
 10 26  1  0  0  0  0
 12 24  1  0  0  0  0
 14  9  1  0  0  0  0
 15 11  1  0  0  0  0
 15 19  1  0  0  0  0
 15 23  1  0  0  0  0
 16  1  1  0  0  0  0
 16 28  1  0  0  0  0
 17 25  1  0  0  0  0
 17  5  1  0  0  0  0
 20 16  2  0  0  0  0
 21  1  2  0  0  0  0
 22 21  1  0  0  0  0
 25 12  1  0  0  0  0
 25 19  1  0  0  0  0
 26 24  1  0  0  0  0
 26 13  1  0  0  0  0
 27  5  1  0  0  0  0
 28 12  1  0  0  0  0
M  END
>  <MODEL>
6

>  <REMARK>
 VINA RESULT:      -7.5      3.144      7.306
  Name = 
  0 active torsions:
  status: ('A' for Active; 'I' for Inactive)
                            x       y       z     vdW  Elec       q    Type
                         _______ _______ _______ _____ _____    ______ ____

>  <TORSDO>
F 0

$$$$
=
 OpenBabel11112417423D

 28 32  0  0  1  0  0  0  0  0999 V2000
  187.9680  176.4730  144.5590 C   0  0  0  0  0  0  0  0  0  0  0  0
  188.2200  174.0410  141.1860 O   0  0  0  0  0  0  0  0  0  0  0  0
  193.4410  176.9640  145.2740 O   0  0  0  0  0  0  0  0  0  0  0  0
  188.2160  177.8950  142.1570 C   0  0  0  0  0  3  0  0  0  0  0  0
  192.9880  174.7630  144.5890 N   0  0  0  0  0  0  0  0  0  0  0  0
  187.8810  175.7850  145.8900 C   0  0  0  0  0  2  0  0  0  0  0  0
  190.3270  173.9030  139.9440 O   0  0  0  0  0  0  0  0  0  0  0  0
  189.6390  173.5490  141.2320 S   0  0  0  0  0  0  0  0  0  0  0  0
  190.9550  171.4370  141.8860 C   0  0  2  0  0  3  0  0  0  0  0  0
  190.5350  174.3020  142.6020 C   0  0  2  0  0  3  0  0  0  0  0  0
  189.8470  178.3330  147.8470 O   0  0  0  0  0  1  0  0  0  0  0  0
  190.6240  174.7550  144.9500 C   0  0  1  0  0  3  0  0  0  0  0  0
  191.2160  172.0500  143.2530 C   0  0  0  0  0  2  0  0  0  0  0  0
  189.6350  171.8300  141.4230 N   0  0  0  0  0  2  0  0  0  0  0  0
  189.6480  177.4180  146.8150 C   0  0  1  0  0  3  0  0  0  0  0  0
  188.8610  176.0130  143.5630 C   0  0  0  0  0  0  0  0  0  0  0  0
  192.6160  176.0320  145.0780 C   0  0  0  0  0  0  0  0  0  0  0  0
  191.0130  169.9280  141.9980 C   0  0  0  0  0  1  0  0  0  0  0  0
  190.8440  176.4800  146.7430 C   0  0  0  0  0  2  0  0  0  0  0  0
  188.9820  176.7480  142.3710 C   0  0  0  0  0  3  0  0  0  0  0  0
  187.1970  177.6190  144.3310 C   0  0  0  0  0  3  0  0  0  0  0  0
  187.3170  178.3260  143.1340 C   0  0  0  0  0  3  0  0  0  0  0  0
  188.3300  176.6770  147.0530 C   0  0  0  0  0  2  0  0  0  0  0  0
  191.8280  173.8980  144.5090 C   0  0  1  0  0  3  0  0  0  0  0  0
  191.1600  176.1590  145.2910 C   0  0  2  0  0  3  0  0  0  0  0  0
  191.6190  173.4540  143.1310 N   0  0  2  0  0  0  0  0  0  0  0  0
  194.3560  174.3190  144.3840 C   0  0  0  0  0  1  0  0  0  0  0  0
  189.6600  174.7310  143.7680 C   0  0  1  0  0  3  0  0  0  0  0  0
  1  6  1  0  0  0  0
  2  8  2  0  0  0  0
  4 20  2  0  0  0  0
  4 22  1  0  0  0  0
  5 17  1  0  0  0  0
  6 23  1  0  0  0  0
  7  8  2  0  0  0  0
  8 14  1  0  0  0  0
  9 18  1  1  0  0  0
  9 13  1  0  0  0  0
 10  8  1  6  0  0  0
 10 26  1  0  0  0  0
 10 28  1  0  0  0  0
 12 25  1  0  0  0  0
 14  9  1  0  0  0  0
 15 23  1  0  0  0  0
 15 11  1  0  0  0  0
 16 28  1  0  0  0  0
 16  1  2  0  0  0  0
 17  3  2  0  0  0  0
 17 25  1  0  0  0  0
 19 15  1  0  0  0  0
 20 16  1  0  0  0  0
 21  1  1  0  0  0  0
 22 21  2  0  0  0  0
 24  5  1  0  0  0  0
 24 12  1  0  0  0  0
 25 19  1  0  0  0  0
 26 13  1  0  0  0  0
 26 24  1  0  0  0  0
 27  5  1  0  0  0  0
 28 12  1  0  0  0  0
M  END
>  <MODEL>
7

>  <REMARK>
 VINA RESULT:      -7.2      2.414      5.448
  Name = 
  0 active torsions:
  status: ('A' for Active; 'I' for Inactive)
                            x       y       z     vdW  Elec       q    Type
                         _______ _______ _______ _____ _____    ______ ____

>  <TORSDO>
F 0

$$$$
=
 OpenBabel11112417423D

 28 32  0  0  1  0  0  0  0  0999 V2000
  193.0830  174.6410  142.8810 C   0  0  0  0  0  0  0  0  0  0  0  0
  189.6080  174.1200  140.6440 O   0  0  0  0  0  0  0  0  0  0  0  0
  190.5000  175.2910  147.7400 O   0  0  0  0  0  0  0  0  0  0  0  0
  192.1680  171.9940  142.8170 C   0  0  0  0  0  3  0  0  0  0  0  0
  189.2300  176.3730  146.0860 N   0  0  0  0  0  0  0  0  0  0  0  0
  193.6120  176.0410  143.0030 C   0  0  0  0  0  2  0  0  0  0  0  0
  187.5070  173.5700  141.7770 O   0  0  0  0  0  0  0  0  0  0  0  0
  188.5380  174.6420  141.5610 S   0  0  0  0  0  0  0  0  0  0  0  0
  187.0840  176.7420  141.8720 C   0  0  2  0  0  3  0  0  0  0  0  0
  189.2330  175.1170  143.1540 C   0  0  2  0  0  3  0  0  0  0  0  0
  194.9410  175.7190  146.5130 O   0  0  0  0  0  1  0  0  0  0  0  0
  190.8650  176.4030  144.3410 C   0  0  1  0  0  3  0  0  0  0  0  0
  188.0860  177.2570  142.8930 C   0  0  0  0  0  2  0  0  0  0  0  0
  187.7870  176.0160  140.8270 N   0  0  0  0  0  2  0  0  0  0  0  0
  193.9560  175.6580  145.5290 C   0  0  1  0  0  3  0  0  0  0  0  0
  191.6980  174.3780  142.9920 C   0  0  0  0  0  0  0  0  0  0  0  0
  190.4000  175.7540  146.5720 C   0  0  0  0  0  0  0  0  0  0  0  0
  186.3530  177.9160  141.2560 C   0  0  0  0  0  1  0  0  0  0  0  0
  192.7190  176.4000  146.0140 C   0  0  0  0  0  2  0  0  0  0  0  0
  191.2600  173.0420  142.9730 C   0  0  0  0  0  3  0  0  0  0  0  0
  193.9850  173.5830  142.7150 C   0  0  0  0  0  3  0  0  0  0  0  0
  193.5300  172.2650  142.6800 C   0  0  0  0  0  3  0  0  0  0  0  0
  194.5170  176.2330  144.2260 C   0  0  0  0  0  2  0  0  0  0  0  0
  189.4360  176.8350  144.7280 C   0  0  1  0  0  3  0  0  0  0  0  0
  191.4670  175.6700  145.5550 C   0  0  2  0  0  3  0  0  0  0  0  0
  188.4820  176.1950  143.8230 N   0  0  2  0  0  0  0  0  0  0  0  0
  188.0590  176.6840  146.8880 C   0  0  0  0  0  1  0  0  0  0  0  0
  190.6970  175.5210  143.1070 C   0  0  1  0  0  3  0  0  0  0  0  0
  1 16  1  0  0  0  0
  1  6  1  0  0  0  0
  2  8  2  0  0  0  0
  4 20  1  0  0  0  0
  5 17  1  0  0  0  0
  5 27  1  0  0  0  0
  6 23  1  0  0  0  0
  8  7  2  0  0  0  0
  9 18  1  6  0  0  0
  9 13  1  0  0  0  0
 10  8  1  6  0  0  0
 10 26  1  0  0  0  0
 12 24  1  0  0  0  0
 12 25  1  0  0  0  0
 13 26  1  0  0  0  0
 14  8  1  0  0  0  0
 14  9  1  0  0  0  0
 15 19  1  0  0  0  0
 15 11  1  0  0  0  0
 16 28  1  0  0  0  0
 17  3  2  0  0  0  0
 20 16  2  0  0  0  0
 21  1  2  0  0  0  0
 22 21  1  0  0  0  0
 22  4  2  0  0  0  0
 23 15  1  0  0  0  0
 24  5  1  0  0  0  0
 25 19  1  0  0  0  0
 25 17  1  0  0  0  0
 26 24  1  0  0  0  0
 28 10  1  0  0  0  0
 28 12  1  0  0  0  0
M  END
>  <MODEL>
8

>  <REMARK>
 VINA RESULT:      -7.2      2.314      7.015
  Name = 
  0 active torsions:
  status: ('A' for Active; 'I' for Inactive)
                            x       y       z     vdW  Elec       q    Type
                         _______ _______ _______ _____ _____    ______ ____

>  <TORSDO>
F 0

$$$$
=
 OpenBabel11112417423D

 28 32  0  0  1  0  0  0  0  0999 V2000
  191.7970  175.2070  144.7090 C   0  0  0  0  0  0  0  0  0  0  0  0
  189.8030  174.1150  141.2180 O   0  0  0  0  0  0  0  0  0  0  0  0
  187.2120  176.0900  147.6910 O   0  0  0  0  0  0  0  0  0  0  0  0
  191.1260  172.4880  144.5950 C   0  0  0  0  0  3  0  0  0  0  0  0
  186.8250  176.8650  145.5080 N   0  0  0  0  0  0  0  0  0  0  0  0
  192.1500  176.6570  144.8670 C   0  0  0  0  0  2  0  0  0  0  0  0
  187.4400  173.4780  141.3200 O   0  0  0  0  0  0  0  0  0  0  0  0
  188.4080  174.6190  141.4580 S   0  0  0  0  0  0  0  0  0  0  0  0
  186.8950  176.5840  140.7730 C   0  0  2  0  0  3  0  0  0  0  0  0
  188.2540  175.3220  143.1100 C   0  0  2  0  0  3  0  0  0  0  0  0
  191.6870  176.8310  148.6010 O   0  0  0  0  0  1  0  0  0  0  0  0
  189.0850  176.8790  144.7260 C   0  0  1  0  0  3  0  0  0  0  0  0
  187.2790  177.2990  142.0590 C   0  0  0  0  0  2  0  0  0  0  0  0
  188.0340  175.8290  140.2800 N   0  0  0  0  0  2  0  0  0  0  0  0
  191.2830  176.5710  147.2930 C   0  0  1  0  0  3  0  0  0  0  0  0
  190.5340  174.8190  144.2040 C   0  0  0  0  0  0  0  0  0  0  0  0
  187.6530  176.4190  146.5570 C   0  0  0  0  0  0  0  0  0  0  0  0
  186.4920  177.6100  139.7350 C   0  0  0  0  0  1  0  0  0  0  0  0
  189.9350  177.2320  147.0470 C   0  0  0  0  0  2  0  0  0  0  0  0
  190.2100  173.4520  144.1690 C   0  0  0  0  0  3  0  0  0  0  0  0
  192.7130  174.2320  145.1240 C   0  0  0  0  0  3  0  0  0  0  0  0
  192.3810  172.8780  145.0640 C   0  0  0  0  0  3  0  0  0  0  0  0
  192.3670  177.0620  146.3300 C   0  0  0  0  0  2  0  0  0  0  0  0
  187.6250  177.2040  144.3480 C   0  0  1  0  0  3  0  0  0  0  0  0
  189.0750  176.3380  146.1690 C   0  0  2  0  0  3  0  0  0  0  0  0
  187.2340  176.3820  143.2030 N   0  0  2  0  0  0  0  0  0  0  0  0
  185.4020  177.1380  145.6290 C   0  0  0  0  0  1  0  0  0  0  0  0
  189.5510  175.8630  143.6880 C   0  0  1  0  0  3  0  0  0  0  0  0
  1  6  1  0  0  0  0
  1 21  1  0  0  0  0
  2  8  2  0  0  0  0
  4 22  1  0  0  0  0
  5 27  1  0  0  0  0
  5 17  1  0  0  0  0
  6 23  1  0  0  0  0
  7  8  2  0  0  0  0
  9 18  1  6  0  0  0
  9 13  1  0  0  0  0
 10  8  1  6  0  0  0
 10 26  1  0  0  0  0
 10 28  1  0  0  0  0
 12 25  1  0  0  0  0
 13 26  1  0  0  0  0
 14  9  1  0  0  0  0
 14  8  1  0  0  0  0
 15 11  1  0  0  0  0
 16  1  2  0  0  0  0
 17  3  2  0  0  0  0
 19 15  1  0  0  0  0
 20 16  1  0  0  0  0
 20  4  2  0  0  0  0
 22 21  2  0  0  0  0
 23 15  1  0  0  0  0
 24 12  1  0  0  0  0
 24  5  1  0  0  0  0
 25 17  1  0  0  0  0
 25 19  1  0  0  0  0
 26 24  1  0  0  0  0
 28 16  1  0  0  0  0
 28 12  1  0  0  0  0
M  END
>  <MODEL>
9

>  <REMARK>
 VINA RESULT:      -7.0      2.422      6.328
  Name = 
  0 active torsions:
  status: ('A' for Active; 'I' for Inactive)
                            x       y       z     vdW  Elec       q    Type
                         _______ _______ _______ _____ _____    ______ ____

>  <TORSDO>
F 0

$$$$
