=
 OpenBabel11112417343D

 28 32  0  0  1  0  0  0  0  0999 V2000
  186.2130  178.2710  144.3310 C   0  0  0  0  0  0  0  0  0  0  0  0
  189.5730  177.8480  147.0840 O   0  0  0  0  0  0  0  0  0  0  0  0
  187.6340  173.7010  141.1640 O   0  0  0  0  0  1  0  0  0  0  0  0
  185.1780  176.8580  146.5210 C   0  0  0  0  0  3  0  0  0  0  0  0
  189.6400  174.8800  141.6750 C   0  0  0  0  0  0  0  0  0  0  0  0
  186.7120  179.0610  143.1650 C   0  0  0  0  0  2  0  0  0  0  0  0
  188.6690  175.5730  147.4250 O   0  0  0  0  0  0  0  0  0  0  0  0
  189.6300  176.4150  146.6360 S   0  0  0  0  0  0  0  0  0  0  0  0
  191.9090  175.1320  145.7830 C   0  0  0  0  0  0  0  0  0  0  0  0
  189.2940  176.3090  144.9470 N   0  0  0  0  0  0  0  0  0  0  0  0
  185.1200  177.6200  140.2090 O   0  0  0  0  0  0  0  0  0  0  0  0
  188.3910  176.3530  142.9140 C   0  0  0  0  0  0  0  0  0  0  0  0
  191.3610  175.0780  144.4570 N   0  0  0  0  0  2  0  0  0  0  0  0
  191.2270  175.7960  146.8530 N   0  0  0  0  0  2  0  0  0  0  0  0
  186.0450  177.9020  141.0140 C   0  0  0  0  0  0  0  0  0  0  0  0
  186.9140  177.1530  144.8400 C   0  0  0  0  0  0  0  0  0  0  0  0
  188.2840  174.9290  141.0140 C   0  0  2  0  0  3  0  0  0  0  0  0
  193.3610  174.4460  146.0700 S   0  0  0  0  0  0  0  0  0  0  0  0
  187.3700  177.2320  140.8650 C   0  0  0  0  0  2  0  0  0  0  0  0
  186.3770  176.4550  145.9290 C   0  0  0  0  0  3  0  0  0  0  0  0
  185.0150  178.6730  144.9360 C   0  0  0  0  0  3  0  0  0  0  0  0
  184.4980  177.9710  146.0260 C   0  0  0  0  0  3  0  0  0  0  0  0
  185.8150  178.8740  142.0340 N   0  0  0  0  0  2  0  0  0  0  0  0
  189.5890  175.7480  142.8230 C   0  0  0  0  0  0  0  0  0  0  0  0
  187.4860  176.0210  141.7750 C   0  0  2  0  0  3  0  0  0  0  0  0
  190.1400  175.7220  144.0800 C   0  0  0  0  0  0  0  0  0  0  0  0
  190.5280  173.9070  141.5040 C   0  0  0  0  0  2  0  0  0  0  0  0
  188.1870  176.6860  144.2480 C   0  0  0  0  0  0  0  0  0  0  0  0
  1 16  2  0  0  0  0
  1 21  1  0  0  0  0
  5 24  1  0  0  0  0
  6  1  1  0  0  0  0
  8 14  1  0  0  0  0
  8  2  2  0  0  0  0
  8  7  2  0  0  0  0
  9 18  2  0  0  0  0
  9 14  1  0  0  0  0
 10  8  1  0  0  0  0
 11 15  2  0  0  0  0
 12 28  2  0  0  0  0
 13  9  1  0  0  0  0
 15 23  1  0  0  0  0
 16 20  1  0  0  0  0
 17  3  1  1  0  0  0
 17  5  1  0  0  0  0
 17 25  1  0  0  0  0
 19 15  1  0  0  0  0
 20  4  2  0  0  0  0
 21 22  2  0  0  0  0
 22  4  1  0  0  0  0
 23  6  1  0  0  0  0
 24 12  1  0  0  0  0
 24 26  2  0  0  0  0
 25 19  1  6  0  0  0
 25 12  1  0  0  0  0
 26 13  1  0  0  0  0
 26 10  1  0  0  0  0
 27  5  2  0  0  0  0
 28 16  1  0  0  0  0
 28 10  1  0  0  0  0
M  END
>  <MODEL>
1

>  <REMARK>
 VINA RESULT:      -8.8      0.000      0.000
  Name = 
  0 active torsions:
  status: ('A' for Active; 'I' for Inactive)
                            x       y       z     vdW  Elec       q    Type
                         _______ _______ _______ _____ _____    ______ ____

>  <TORSDO>
F 0

$$$$
=
 OpenBabel11112417343D

 28 32  0  0  1  0  0  0  0  0999 V2000
  186.1490  176.9610  143.3670 C   0  0  0  0  0  0  0  0  0  0  0  0
  188.0070  173.3510  141.7680 O   0  0  0  0  0  0  0  0  0  0  0  0
  190.3740  178.0420  147.0960 O   0  0  0  0  0  1  0  0  0  0  0  0
  187.5050  177.8070  141.0620 C   0  0  0  0  0  3  0  0  0  0  0  0
  189.9620  175.6960  147.1300 C   0  0  0  0  0  0  0  0  0  0  0  0
  185.3750  176.5460  144.5760 C   0  0  0  0  0  2  0  0  0  0  0  0
  189.9210  174.8490  141.3190 O   0  0  0  0  0  0  0  0  0  0  0  0
  189.3000  173.8990  142.3030 S   0  0  0  0  0  0  0  0  0  0  0  0
  191.0660  172.4930  143.8730 C   0  0  0  0  0  0  0  0  0  0  0  0
  189.0300  174.6780  143.8190 N   0  0  0  0  0  0  0  0  0  0  0  0
  185.7760  179.2400  147.0110 O   0  0  0  0  0  0  0  0  0  0  0  0
  188.3920  176.0070  145.4860 C   0  0  0  0  0  0  0  0  0  0  0  0
  190.7400  173.3510  144.9770 N   0  0  0  0  0  2  0  0  0  0  0  0
  190.4030  172.6080  142.6100 N   0  0  0  0  0  2  0  0  0  0  0  0
  185.9210  178.0980  146.5010 C   0  0  0  0  0  0  0  0  0  0  0  0
  187.4930  176.5730  143.1610 C   0  0  0  0  0  0  0  0  0  0  0  0
  189.3970  177.0780  147.3540 C   0  0  2  0  0  3  0  0  0  0  0  0
  192.1990  171.3370  144.0740 S   0  0  0  0  0  0  0  0  0  0  0  0
  186.9310  177.1640  147.0790 C   0  0  0  0  0  2  0  0  0  0  0  0
  188.1560  177.0120  142.0080 C   0  0  0  0  0  3  0  0  0  0  0  0
  185.5010  177.7530  142.4090 C   0  0  0  0  0  3  0  0  0  0  0  0
  186.1740  178.1750  141.2620 C   0  0  0  0  0  3  0  0  0  0  0  0
  185.0990  177.7130  145.4000 N   0  0  0  0  0  2  0  0  0  0  0  0
  189.3120  175.1510  145.9660 C   0  0  0  0  0  0  0  0  0  0  0  0
  188.2470  177.2330  146.3230 C   0  0  2  0  0  3  0  0  0  0  0  0
  189.7030  174.3350  144.9330 C   0  0  0  0  0  0  0  0  0  0  0  0
  191.1190  175.2660  147.6180 C   0  0  0  0  0  2  0  0  0  0  0  0
  188.2280  175.7330  144.1320 C   0  0  0  0  0  0  0  0  0  0  0  0
  1  6  1  0  0  0  0
  2  8  2  0  0  0  0
  4 22  2  0  0  0  0
  4 20  1  0  0  0  0
  5 17  1  0  0  0  0
  5 27  2  0  0  0  0
  6 23  1  0  0  0  0
  7  8  2  0  0  0  0
  8 14  1  0  0  0  0
  8 10  1  0  0  0  0
  9 18  2  0  0  0  0
  9 13  1  0  0  0  0
 10 28  1  0  0  0  0
 10 26  1  0  0  0  0
 12 24  1  0  0  0  0
 12 25  1  0  0  0  0
 14  9  1  0  0  0  0
 15 11  2  0  0  0  0
 15 19  1  0  0  0  0
 16  1  1  0  0  0  0
 16 28  1  0  0  0  0
 17  3  1  6  0  0  0
 20 16  2  0  0  0  0
 21  1  2  0  0  0  0
 22 21  1  0  0  0  0
 23 15  1  0  0  0  0
 24  5  1  0  0  0  0
 25 19  1  1  0  0  0
 25 17  1  0  0  0  0
 26 13  1  0  0  0  0
 26 24  2  0  0  0  0
 28 12  2  0  0  0  0
M  END
>  <MODEL>
2

>  <REMARK>
 VINA RESULT:      -8.1      2.419      4.763
  Name = 
  0 active torsions:
  status: ('A' for Active; 'I' for Inactive)
                            x       y       z     vdW  Elec       q    Type
                         _______ _______ _______ _____ _____    ______ ____

>  <TORSDO>
F 0

$$$$
=
 OpenBabel11112417343D

 28 32  0  0  1  0  0  0  0  0999 V2000
  190.1310  174.5260  143.6060 C   0  0  0  0  0  0  0  0  0  0  0  0
  190.0560  173.8280  139.2990 O   0  0  0  0  0  0  0  0  0  0  0  0
  185.0390  177.1710  143.7320 O   0  0  0  0  0  1  0  0  0  0  0  0
  189.1500  171.9150  143.3150 C   0  0  0  0  0  3  0  0  0  0  0  0
  186.2110  177.9490  141.8100 C   0  0  0  0  0  0  0  0  0  0  0  0
  190.6920  175.8960  143.8080 C   0  0  0  0  0  2  0  0  0  0  0  0
  187.9070  172.7050  139.7820 O   0  0  0  0  0  0  0  0  0  0  0  0
  188.5660  173.9990  139.3980 S   0  0  0  0  0  0  0  0  0  0  0  0
  187.0730  175.6630  137.7950 C   0  0  0  0  0  0  0  0  0  0  0  0
  188.1880  175.2410  140.5350 N   0  0  0  0  0  0  0  0  0  0  0  0
  188.8300  177.3540  146.5930 O   0  0  0  0  0  0  0  0  0  0  0  0
  187.9200  176.5120  142.3410 C   0  0  0  0  0  0  0  0  0  0  0  0
  186.8150  176.4990  138.9340 N   0  0  0  0  0  2  0  0  0  0  0  0
  187.9340  174.5220  137.8790 N   0  0  0  0  0  2  0  0  0  0  0  0
  189.2100  177.1880  145.4050 C   0  0  0  0  0  0  0  0  0  0  0  0
  189.0900  174.2660  142.6850 C   0  0  0  0  0  0  0  0  0  0  0  0
  186.1980  177.8300  143.3150 C   0  0  2  0  0  3  0  0  0  0  0  0
  186.3920  176.0410  136.3620 S   0  0  0  0  0  0  0  0  0  0  0  0
  188.4750  177.8740  144.3020 C   0  0  0  0  0  2  0  0  0  0  0  0
  188.6080  172.9570  142.5600 C   0  0  0  0  0  3  0  0  0  0  0  0
  190.6740  173.4740  144.3550 C   0  0  0  0  0  3  0  0  0  0  0  0
  190.1870  172.1740  144.2120 C   0  0  0  0  0  3  0  0  0  0  0  0
  190.3490  176.3690  145.1410 N   0  0  0  0  0  2  0  0  0  0  0  0
  187.2630  177.0960  141.3210 C   0  0  0  0  0  0  0  0  0  0  0  0
  187.4330  176.9630  143.6770 C   0  0  2  0  0  3  0  0  0  0  0  0
  187.4310  176.3060  140.2110 C   0  0  0  0  0  0  0  0  0  0  0  0
  185.1920  178.3830  141.0790 C   0  0  0  0  0  2  0  0  0  0  0  0
  188.4810  175.3340  141.8610 C   0  0  0  0  0  0  0  0  0  0  0  0
  1  6  1  0  0  0  0
  1 21  1  0  0  0  0
  2  8  2  0  0  0  0
  4 22  1  0  0  0  0
  5 17  1  0  0  0  0
  6 23  1  0  0  0  0
  8  7  2  0  0  0  0
  8 10  1  0  0  0  0
  9 14  1  0  0  0  0
  9 13  1  0  0  0  0
 10 28  1  0  0  0  0
 12 25  1  0  0  0  0
 13 26  1  0  0  0  0
 14  8  1  0  0  0  0
 15 11  2  0  0  0  0
 16  1  2  0  0  0  0
 17 25  1  0  0  0  0
 17  3  1  6  0  0  0
 18  9  2  0  0  0  0
 19 15  1  0  0  0  0
 20 16  1  0  0  0  0
 20  4  2  0  0  0  0
 22 21  2  0  0  0  0
 23 15  1  0  0  0  0
 24  5  1  0  0  0  0
 24 12  1  0  0  0  0
 25 19  1  6  0  0  0
 26 10  1  0  0  0  0
 26 24  2  0  0  0  0
 27  5  2  0  0  0  0
 28 12  2  0  0  0  0
 28 16  1  0  0  0  0
M  END
>  <MODEL>
3

>  <REMARK>
 VINA RESULT:      -8.0      3.474      6.487
  Name = 
  0 active torsions:
  status: ('A' for Active; 'I' for Inactive)
                            x       y       z     vdW  Elec       q    Type
                         _______ _______ _______ _____ _____    ______ ____

>  <TORSDO>
F 0

$$$$
=
 OpenBabel11112417343D

 28 32  0  0  1  0  0  0  0  0999 V2000
  190.6060  174.1210  143.7840 C   0  0  0  0  0  0  0  0  0  0  0  0
  188.5000  175.2440  147.4370 O   0  0  0  0  0  0  0  0  0  0  0  0
  187.8460  177.9120  140.4770 O   0  0  0  0  0  1  0  0  0  0  0  0
  192.3010  175.9540  145.0600 C   0  0  0  0  0  3  0  0  0  0  0  0
  186.2470  176.9360  141.9480 C   0  0  0  0  0  0  0  0  0  0  0  0
  189.7540  173.1060  143.0930 C   0  0  0  0  0  2  0  0  0  0  0  0
  189.3340  177.5100  146.9110 O   0  0  0  0  0  0  0  0  0  0  0  0
  188.1970  176.5430  146.7450 S   0  0  0  0  0  0  0  0  0  0  0  0
  185.6950  177.6700  146.5570 C   0  0  0  0  0  0  0  0  0  0  0  0
  187.8720  176.2600  145.0740 N   0  0  0  0  0  0  0  0  0  0  0  0
  190.0410  173.8070  139.5180 O   0  0  0  0  0  0  0  0  0  0  0  0
  187.9500  175.7390  142.9120 C   0  0  0  0  0  0  0  0  0  0  0  0
  185.7040  177.4120  145.1450 N   0  0  0  0  0  2  0  0  0  0  0  0
  186.7640  177.2410  147.4070 N   0  0  0  0  0  2  0  0  0  0  0  0
  189.5010  173.7390  140.6540 C   0  0  0  0  0  0  0  0  0  0  0  0
  190.0830  175.3440  144.2640 C   0  0  0  0  0  0  0  0  0  0  0  0
  187.2580  176.7010  140.8520 C   0  0  2  0  0  3  0  0  0  0  0  0
  184.4190  178.4450  147.2140 S   0  0  0  0  0  0  0  0  0  0  0  0
  188.1800  174.3970  140.8730 C   0  0  0  0  0  2  0  0  0  0  0  0
  190.9470  176.2500  144.8910 C   0  0  0  0  0  3  0  0  0  0  0  0
  191.9650  173.8290  143.9640 C   0  0  0  0  0  3  0  0  0  0  0  0
  192.8100  174.7400  144.5990 C   0  0  0  0  0  3  0  0  0  0  0  0
  190.1510  173.0110  141.6960 N   0  0  0  0  0  2  0  0  0  0  0  0
  186.7720  176.3440  143.1510 C   0  0  0  0  0  0  0  0  0  0  0  0
  188.3440  175.7830  141.4740 C   0  0  2  0  0  3  0  0  0  0  0  0
  186.7310  176.6640  144.4850 C   0  0  0  0  0  0  0  0  0  0  0  0
  185.3050  177.8720  141.9170 C   0  0  0  0  0  2  0  0  0  0  0  0
  188.6570  175.7050  144.1090 C   0  0  0  0  0  0  0  0  0  0  0  0
  1 21  2  0  0  0  0
  1 16  1  0  0  0  0
  5 24  1  0  0  0  0
  6  1  1  0  0  0  0
  8  7  2  0  0  0  0
  8 14  1  0  0  0  0
  8  2  2  0  0  0  0
  9 18  2  0  0  0  0
  9 14  1  0  0  0  0
 10  8  1  0  0  0  0
 11 15  2  0  0  0  0
 12 24  1  0  0  0  0
 12 28  2  0  0  0  0
 13  9  1  0  0  0  0
 15 19  1  0  0  0  0
 15 23  1  0  0  0  0
 16 20  2  0  0  0  0
 17  3  1  1  0  0  0
 17 25  1  0  0  0  0
 17  5  1  0  0  0  0
 20  4  1  0  0  0  0
 21 22  1  0  0  0  0
 22  4  2  0  0  0  0
 23  6  1  0  0  0  0
 24 26  2  0  0  0  0
 25 19  1  6  0  0  0
 25 12  1  0  0  0  0
 26 10  1  0  0  0  0
 26 13  1  0  0  0  0
 27  5  2  0  0  0  0
 28 16  1  0  0  0  0
 28 10  1  0  0  0  0
M  END
>  <MODEL>
4

>  <REMARK>
 VINA RESULT:      -7.9      2.088      5.280
  Name = 
  0 active torsions:
  status: ('A' for Active; 'I' for Inactive)
                            x       y       z     vdW  Elec       q    Type
                         _______ _______ _______ _____ _____    ______ ____

>  <TORSDO>
F 0

$$$$
=
 OpenBabel11112417343D

 28 32  0  0  1  0  0  0  0  0999 V2000
  187.6560  176.8800  144.5240 C   0  0  0  0  0  0  0  0  0  0  0  0
  187.4390  173.2980  142.0400 O   0  0  0  0  0  0  0  0  0  0  0  0
  193.2880  176.4110  145.5180 O   0  0  0  0  0  1  0  0  0  0  0  0
  187.8530  177.8160  141.8880 C   0  0  0  0  0  3  0  0  0  0  0  0
  192.3430  174.2290  145.6670 C   0  0  0  0  0  0  0  0  0  0  0  0
  187.5090  176.4280  145.9410 C   0  0  0  0  0  2  0  0  0  0  0  0
  189.1930  174.4280  140.7140 O   0  0  0  0  0  0  0  0  0  0  0  0
  188.9180  173.4700  141.8380 S   0  0  0  0  0  0  0  0  0  0  0  0
  190.7860  171.4810  142.1870 C   0  0  0  0  0  0  0  0  0  0  0  0
  189.6560  174.0120  143.3000 N   0  0  0  0  0  0  0  0  0  0  0  0
  189.7650  178.5200  147.9110 O   0  0  0  0  0  0  0  0  0  0  0  0
  190.3100  175.1340  145.1070 C   0  0  0  0  0  0  0  0  0  0  0  0
  191.2940  172.1840  143.3320 N   0  0  0  0  0  2  0  0  0  0  0  0
  189.6400  171.9470  141.4660 N   0  0  0  0  0  2  0  0  0  0  0  0
  189.3290  177.4780  147.3540 C   0  0  0  0  0  0  0  0  0  0  0  0
  188.5610  176.2670  143.6270 C   0  0  0  0  0  0  0  0  0  0  0  0
  192.3540  175.6370  146.2110 C   0  0  2  0  0  3  0  0  0  0  0  0
  191.5160  170.1010  141.7140 S   0  0  0  0  0  0  0  0  0  0  0  0
  190.2030  176.2720  147.2760 C   0  0  0  0  0  2  0  0  0  0  0  0
  188.6510  176.7540  142.3170 C   0  0  0  0  0  3  0  0  0  0  0  0
  186.8540  177.9410  144.0830 C   0  0  0  0  0  3  0  0  0  0  0  0
  186.9500  178.4080  142.7720 C   0  0  0  0  0  3  0  0  0  0  0  0
  187.9990  177.4670  146.8340 N   0  0  0  0  0  2  0  0  0  0  0  0
  191.0830  174.0380  144.9960 C   0  0  0  0  0  0  0  0  0  0  0  0
  190.9330  176.2000  145.9450 C   0  0  2  0  0  3  0  0  0  0  0  0
  190.6750  173.3520  143.8800 C   0  0  0  0  0  0  0  0  0  0  0  0
  193.4280  173.4940  145.4560 C   0  0  0  0  0  2  0  0  0  0  0  0
  189.4290  175.1390  144.0320 C   0  0  0  0  0  0  0  0  0  0  0  0
  1  6  1  0  0  0  0
  4 20  2  0  0  0  0
  4 22  1  0  0  0  0
  5 17  1  0  0  0  0
  6 23  1  0  0  0  0
  7  8  2  0  0  0  0
  8  2  2  0  0  0  0
  8 10  1  0  0  0  0
  9 13  1  0  0  0  0
 10 26  1  0  0  0  0
 10 28  1  0  0  0  0
 12 25  1  0  0  0  0
 13 26  1  0  0  0  0
 14  8  1  0  0  0  0
 14  9  1  0  0  0  0
 15 11  2  0  0  0  0
 16 28  1  0  0  0  0
 16  1  2  0  0  0  0
 17  3  1  6  0  0  0
 18  9  2  0  0  0  0
 19 15  1  0  0  0  0
 20 16  1  0  0  0  0
 21  1  1  0  0  0  0
 22 21  2  0  0  0  0
 23 15  1  0  0  0  0
 24 12  1  0  0  0  0
 24  5  1  0  0  0  0
 25 17  1  0  0  0  0
 25 19  1  1  0  0  0
 26 24  2  0  0  0  0
 27  5  2  0  0  0  0
 28 12  2  0  0  0  0
M  END
>  <MODEL>
5

>  <REMARK>
 VINA RESULT:      -7.7      2.780      5.271
  Name = 
  0 active torsions:
  status: ('A' for Active; 'I' for Inactive)
                            x       y       z     vdW  Elec       q    Type
                         _______ _______ _______ _____ _____    ______ ____

>  <TORSDO>
F 0

$$$$
=
 OpenBabel11112417343D

 28 32  0  0  1  0  0  0  0  0999 V2000
  188.5240  175.8630  145.7990 C   0  0  0  0  0  0  0  0  0  0  0  0
  187.4040  173.9320  142.0490 O   0  0  0  0  0  0  0  0  0  0  0  0
  193.9330  176.8990  144.1850 O   0  0  0  0  0  1  0  0  0  0  0  0
  187.3220  177.8870  144.2760 C   0  0  0  0  0  3  0  0  0  0  0  0
  193.3640  174.7080  143.4440 C   0  0  0  0  0  0  0  0  0  0  0  0
  189.1310  174.8040  146.6620 C   0  0  0  0  0  2  0  0  0  0  0  0
  188.1800  176.0460  141.0310 O   0  0  0  0  0  0  0  0  0  0  0  0
  188.5720  174.6560  141.4420 S   0  0  0  0  0  0  0  0  0  0  0  0
  190.5240  173.4700  139.9100 C   0  0  0  0  0  0  0  0  0  0  0  0
  189.8880  174.6960  142.5590 N   0  0  0  0  0  0  0  0  0  0  0  0
  191.8870  176.4060  148.4470 O   0  0  0  0  0  0  0  0  0  0  0  0
  191.2530  175.0340  144.2830 C   0  0  0  0  0  0  0  0  0  0  0  0
  191.4710  173.7080  140.9630 N   0  0  0  0  0  2  0  0  0  0  0  0
  189.1390  173.7990  140.0550 N   0  0  0  0  0  2  0  0  0  0  0  0
  191.3190  175.6460  147.6190 C   0  0  0  0  0  0  0  0  0  0  0  0
  188.9170  176.0570  144.4540 C   0  0  0  0  0  0  0  0  0  0  0  0
  193.5280  175.6360  144.6230 C   0  0  2  0  0  3  0  0  0  0  0  0
  191.0360  172.7790  138.5240 S   0  0  0  0  0  0  0  0  0  0  0  0
  192.1360  174.9710  146.5690 C   0  0  0  0  0  2  0  0  0  0  0  0
  188.3110  177.0780  143.7120 C   0  0  0  0  0  3  0  0  0  0  0  0
  187.5270  176.6740  146.3540 C   0  0  0  0  0  3  0  0  0  0  0  0
  186.9270  177.6820  145.5980 C   0  0  0  0  0  3  0  0  0  0  0  0
  189.9120  175.4280  147.7190 N   0  0  0  0  0  2  0  0  0  0  0  0
  191.9580  174.4310  143.3080 C   0  0  0  0  0  0  0  0  0  0  0  0
  192.1190  175.7500  145.2650 C   0  0  2  0  0  3  0  0  0  0  0  0
  191.1100  174.2260  142.2470 C   0  0  0  0  0  0  0  0  0  0  0  0
  194.2610  174.5520  142.4770 C   0  0  0  0  0  2  0  0  0  0  0  0
  189.9600  175.2270  143.8110 C   0  0  0  0  0  0  0  0  0  0  0  0
  1 21  1  0  0  0  0
  1  6  1  0  0  0  0
  4 22  1  0  0  0  0
  5 17  1  0  0  0  0
  6 23  1  0  0  0  0
  7  8  2  0  0  0  0
  8  2  2  0  0  0  0
  8 10  1  0  0  0  0
  9 14  1  0  0  0  0
  9 13  1  0  0  0  0
 10 28  1  0  0  0  0
 12 25  1  0  0  0  0
 13 26  1  0  0  0  0
 14  8  1  0  0  0  0
 15 23  1  0  0  0  0
 15 11  2  0  0  0  0
 16  1  2  0  0  0  0
 17  3  1  6  0  0  0
 17 25  1  0  0  0  0
 18  9  2  0  0  0  0
 19 15  1  0  0  0  0
 20  4  2  0  0  0  0
 20 16  1  0  0  0  0
 22 21  2  0  0  0  0
 24  5  1  0  0  0  0
 24 12  1  0  0  0  0
 25 19  1  1  0  0  0
 26 10  1  0  0  0  0
 26 24  2  0  0  0  0
 27  5  2  0  0  0  0
 28 12  2  0  0  0  0
 28 16  1  0  0  0  0
M  END
>  <MODEL>
6

>  <REMARK>
 VINA RESULT:      -7.7      2.987      5.679
  Name = 
  0 active torsions:
  status: ('A' for Active; 'I' for Inactive)
                            x       y       z     vdW  Elec       q    Type
                         _______ _______ _______ _____ _____    ______ ____

>  <TORSDO>
F 0

$$$$
=
 OpenBabel11112417343D

 28 32  0  0  1  0  0  0  0  0999 V2000
  191.5600  174.7760  142.1840 C   0  0  0  0  0  0  0  0  0  0  0  0
  187.8370  176.7020  140.9720 O   0  0  0  0  0  0  0  0  0  0  0  0
  190.6180  175.4490  147.8050 O   0  0  0  0  0  1  0  0  0  0  0  0
  189.7530  172.6680  141.7870 C   0  0  0  0  0  3  0  0  0  0  0  0
  189.9610  177.4630  146.7150 C   0  0  0  0  0  0  0  0  0  0  0  0
  192.5680  175.8650  142.3630 C   0  0  0  0  0  2  0  0  0  0  0  0
  186.7880  175.0030  142.4290 O   0  0  0  0  0  0  0  0  0  0  0  0
  187.3430  176.3960  142.3580 S   0  0  0  0  0  0  0  0  0  0  0  0
  186.1720  178.2290  144.0420 C   0  0  0  0  0  0  0  0  0  0  0  0
  188.6210  176.6060  143.5000 N   0  0  0  0  0  0  0  0  0  0  0  0
  194.5910  174.9100  145.2520 O   0  0  0  0  0  0  0  0  0  0  0  0
  190.4840  176.4800  144.7080 C   0  0  0  0  0  0  0  0  0  0  0  0
  187.3240  178.1530  144.8960 N   0  0  0  0  0  2  0  0  0  0  0  0
  186.1070  177.5170  142.8020 N   0  0  0  0  0  2  0  0  0  0  0  0
  193.7480  175.5650  144.5840 C   0  0  0  0  0  0  0  0  0  0  0  0
  190.2700  174.8390  142.7600 C   0  0  0  0  0  0  0  0  0  0  0  0
  191.0850  176.4980  147.0090 C   0  0  2  0  0  3  0  0  0  0  0  0
  184.9190  179.1760  144.4810 S   0  0  0  0  0  0  0  0  0  0  0  0
  192.8670  176.5450  145.2820 C   0  0  0  0  0  2  0  0  0  0  0  0
  189.3850  173.7730  142.5570 C   0  0  0  0  0  3  0  0  0  0  0  0
  191.9190  173.6670  141.4070 C   0  0  0  0  0  3  0  0  0  0  0  0
  191.0210  172.6170  141.2090 C   0  0  0  0  0  3  0  0  0  0  0  0
  193.6740  175.3740  143.1710 N   0  0  0  0  0  2  0  0  0  0  0  0
  189.6570  177.3530  145.3110 C   0  0  0  0  0  0  0  0  0  0  0  0
  191.5220  175.9320  145.6310 C   0  0  2  0  0  3  0  0  0  0  0  0
  188.5090  177.4250  144.5620 C   0  0  0  0  0  0  0  0  0  0  0  0
  189.1360  177.9600  147.6280 C   0  0  0  0  0  2  0  0  0  0  0  0
  189.8310  175.9870  143.5840 C   0  0  0  0  0  0  0  0  0  0  0  0
  1  6  1  0  0  0  0
  1 16  1  0  0  0  0
  2  8  2  0  0  0  0
  4 20  1  0  0  0  0
  5 17  1  0  0  0  0
  5 27  2  0  0  0  0
  6 23  1  0  0  0  0
  8  7  2  0  0  0  0
  8 14  1  0  0  0  0
  8 10  1  0  0  0  0
  9 18  2  0  0  0  0
  9 13  1  0  0  0  0
 10 28  1  0  0  0  0
 10 26  1  0  0  0  0
 12 24  1  0  0  0  0
 12 25  1  0  0  0  0
 14  9  1  0  0  0  0
 15 11  2  0  0  0  0
 15 19  1  0  0  0  0
 16 28  1  0  0  0  0
 17  3  1  1  0  0  0
 20 16  2  0  0  0  0
 21  1  2  0  0  0  0
 22 21  1  0  0  0  0
 22  4  2  0  0  0  0
 23 15  1  0  0  0  0
 24  5  1  0  0  0  0
 25 19  1  6  0  0  0
 25 17  1  0  0  0  0
 26 13  1  0  0  0  0
 26 24  2  0  0  0  0
 28 12  2  0  0  0  0
M  END
>  <MODEL>
7

>  <REMARK>
 VINA RESULT:      -7.7      2.712      6.715
  Name = 
  0 active torsions:
  status: ('A' for Active; 'I' for Inactive)
                            x       y       z     vdW  Elec       q    Type
                         _______ _______ _______ _____ _____    ______ ____

>  <TORSDO>
F 0

$$$$
=
 OpenBabel11112417343D

 28 32  0  0  1  0  0  0  0  0999 V2000
  190.5650  177.1580  145.6280 C   0  0  0  0  0  0  0  0  0  0  0  0
  194.8950  177.6540  145.4020 O   0  0  0  0  0  0  0  0  0  0  0  0
  190.4280  172.6690  142.0560 O   0  0  0  0  0  1  0  0  0  0  0  0
  191.5660  175.7860  147.8600 C   0  0  0  0  0  3  0  0  0  0  0  0
  191.9660  174.2560  141.1660 C   0  0  0  0  0  0  0  0  0  0  0  0
  189.9860  177.9160  144.4770 C   0  0  0  0  0  2  0  0  0  0  0  0
  194.9410  175.2910  146.1220 O   0  0  0  0  0  0  0  0  0  0  0  0
  194.9350  176.2230  144.9450 S   0  0  0  0  0  0  0  0  0  0  0  0
  196.2720  175.3300  142.7140 C   0  0  0  0  0  0  0  0  0  0  0  0
  193.5930  175.8950  143.9100 N   0  0  0  0  0  0  0  0  0  0  0  0
  187.1780  175.9200  143.2600 O   0  0  0  0  0  0  0  0  0  0  0  0
  191.5860  175.5710  143.0070 C   0  0  0  0  0  0  0  0  0  0  0  0
  195.0090  175.0450  142.0930 N   0  0  0  0  0  2  0  0  0  0  0  0
  196.3540  175.9480  144.0030 N   0  0  0  0  0  2  0  0  0  0  0  0
  188.3190  176.4510  143.2570 C   0  0  0  0  0  0  0  0  0  0  0  0
  191.6370  176.2500  145.4710 C   0  0  0  0  0  0  0  0  0  0  0  0
  190.5420  173.9790  141.5840 C   0  0  2  0  0  3  0  0  0  0  0  0
  197.6480  174.9670  141.9170 S   0  0  0  0  0  0  0  0  0  0  0  0
  189.3110  176.0380  142.2210 C   0  0  0  0  0  2  0  0  0  0  0  0
  192.1180  175.5680  146.5960 C   0  0  0  0  0  3  0  0  0  0  0  0
  190.0220  177.3770  146.9010 C   0  0  0  0  0  3  0  0  0  0  0  0
  190.5190  176.6950  148.0130 C   0  0  0  0  0  3  0  0  0  0  0  0
  188.6300  177.4520  144.2250 N   0  0  0  0  0  2  0  0  0  0  0  0
  192.5120  175.2030  142.1030 C   0  0  0  0  0  0  0  0  0  0  0  0
  190.2480  174.9640  142.7470 C   0  0  2  0  0  3  0  0  0  0  0  0
  193.7480  175.4030  142.6670 C   0  0  0  0  0  0  0  0  0  0  0  0
  192.6910  173.4610  140.3880 C   0  0  0  0  0  2  0  0  0  0  0  0
  192.2560  175.9830  144.1540 C   0  0  0  0  0  0  0  0  0  0  0  0
  1 21  1  0  0  0  0
  4 22  1  0  0  0  0
  5 17  1  0  0  0  0
  5 24  1  0  0  0  0
  6  1  1  0  0  0  0
  8  2  2  0  0  0  0
  8  7  2  0  0  0  0
  9 14  1  0  0  0  0
 10 28  1  0  0  0  0
 10  8  1  0  0  0  0
 12 28  2  0  0  0  0
 13 26  1  0  0  0  0
 13  9  1  0  0  0  0
 14  8  1  0  0  0  0
 15 11  2  0  0  0  0
 15 23  1  0  0  0  0
 16  1  2  0  0  0  0
 16 20  1  0  0  0  0
 17  3  1  1  0  0  0
 17 25  1  0  0  0  0
 18  9  2  0  0  0  0
 19 15  1  0  0  0  0
 20  4  2  0  0  0  0
 21 22  2  0  0  0  0
 23  6  1  0  0  0  0
 24 26  2  0  0  0  0
 24 12  1  0  0  0  0
 25 19  1  6  0  0  0
 25 12  1  0  0  0  0
 26 10  1  0  0  0  0
 27  5  2  0  0  0  0
 28 16  1  0  0  0  0
M  END
>  <MODEL>
8

>  <REMARK>
 VINA RESULT:      -7.4      3.178      4.595
  Name = 
  0 active torsions:
  status: ('A' for Active; 'I' for Inactive)
                            x       y       z     vdW  Elec       q    Type
                         _______ _______ _______ _____ _____    ______ ____

>  <TORSDO>
F 0

$$$$
=
 OpenBabel11112417343D

 28 32  0  0  1  0  0  0  0  0999 V2000
  190.3910  176.8710  145.6500 C   0  0  0  0  0  0  0  0  0  0  0  0
  194.5460  176.4280  144.3940 O   0  0  0  0  0  0  0  0  0  0  0  0
  188.4630  172.5570  142.3940 O   0  0  0  0  0  1  0  0  0  0  0  0
  191.5810  175.2910  147.6380 C   0  0  0  0  0  3  0  0  0  0  0  0
  190.0440  173.7860  141.1040 C   0  0  0  0  0  0  0  0  0  0  0  0
  189.7280  177.7480  144.6380 C   0  0  0  0  0  2  0  0  0  0  0  0
  194.2630  174.1020  145.1780 O   0  0  0  0  0  0  0  0  0  0  0  0
  194.1740  175.0270  143.9990 S   0  0  0  0  0  0  0  0  0  0  0  0
  194.7210  173.8930  141.5540 C   0  0  0  0  0  0  0  0  0  0  0  0
  192.5860  175.0060  143.3220 N   0  0  0  0  0  0  0  0  0  0  0  0
  186.3540  176.4160  144.1960 O   0  0  0  0  0  0  0  0  0  0  0  0
  190.4000  175.1310  142.9290 C   0  0  0  0  0  0  0  0  0  0  0  0
  193.3160  173.8930  141.2590 N   0  0  0  0  0  2  0  0  0  0  0  0
  195.2370  174.4640  142.7610 N   0  0  0  0  0  2  0  0  0  0  0  0
  187.5480  176.6890  143.9030 C   0  0  0  0  0  0  0  0  0  0  0  0
  191.1780  175.7550  145.2820 C   0  0  0  0  0  0  0  0  0  0  0  0
  188.7350  173.8170  141.8560 C   0  0  2  0  0  3  0  0  0  0  0  0
  195.7600  173.2530  140.4710 S   0  0  0  0  0  0  0  0  0  0  0  0
  188.1550  176.0850  142.6810 C   0  0  0  0  0  2  0  0  0  0  0  0
  191.7580  174.9730  146.2890 C   0  0  0  0  0  3  0  0  0  0  0  0
  190.2250  177.1860  147.0050 C   0  0  0  0  0  3  0  0  0  0  0  0
  190.8160  176.4010  147.9960 C   0  0  0  0  0  3  0  0  0  0  0  0
  188.2840  177.5890  144.7300 N   0  0  0  0  0  2  0  0  0  0  0  0
  190.9850  174.5830  141.8490 C   0  0  0  0  0  0  0  0  0  0  0  0
  188.9410  174.8280  143.0150 C   0  0  2  0  0  3  0  0  0  0  0  0
  192.3330  174.5070  142.0980 C   0  0  0  0  0  0  0  0  0  0  0  0
  190.3790  172.8630  140.2100 C   0  0  0  0  0  2  0  0  0  0  0  0
  191.3950  175.3770  143.8680 C   0  0  0  0  0  0  0  0  0  0  0  0
  1 21  1  0  0  0  0
  4 22  1  0  0  0  0
  5 24  1  0  0  0  0
  5 17  1  0  0  0  0
  6 23  1  0  0  0  0
  6  1  1  0  0  0  0
  8  2  2  0  0  0  0
  8  7  2  0  0  0  0
  9 14  1  0  0  0  0
 10 28  1  0  0  0  0
 10  8  1  0  0  0  0
 12 25  1  0  0  0  0
 12 28  2  0  0  0  0
 13  9  1  0  0  0  0
 13 26  1  0  0  0  0
 14  8  1  0  0  0  0
 15 11  2  0  0  0  0
 15 23  1  0  0  0  0
 16  1  2  0  0  0  0
 16 20  1  0  0  0  0
 17  3  1  1  0  0  0
 17 25  1  0  0  0  0
 18  9  2  0  0  0  0
 19 15  1  0  0  0  0
 20  4  2  0  0  0  0
 21 22  2  0  0  0  0
 24 26  2  0  0  0  0
 24 12  1  0  0  0  0
 25 19  1  6  0  0  0
 26 10  1  0  0  0  0
 27  5  2  0  0  0  0
 28 16  1  0  0  0  0
M  END
>  <MODEL>
9

>  <REMARK>
 VINA RESULT:      -7.2      2.907      4.400
  Name = 
  0 active torsions:
  status: ('A' for Active; 'I' for Inactive)
                            x       y       z     vdW  Elec       q    Type
                         _______ _______ _______ _____ _____    ______ ____

>  <TORSDO>
F 0

$$$$
