=
 OpenBabel11112417053D

 31 35  0  0  1  0  0  0  0  0999 V2000
  184.6540  178.0840  146.7910 C   0  0  0  0  0  0  0  0  0  0  0  0
  187.0140  176.2800  144.4070 C   0  0  2  0  0  3  0  0  0  0  0  0
  186.7390  176.8840  143.0430 C   0  0  0  0  0  0  0  0  0  0  0  0
  185.2180  177.9160  141.4500 C   0  0  0  0  0  0  0  0  0  0  0  0
  186.5230  177.1330  145.5610 C   0  0  0  0  0  0  0  0  0  0  0  0
  185.5420  178.7360  147.6490 C   0  0  0  0  0  3  0  0  0  0  0  0
  185.4840  177.4290  142.7330 C   0  0  0  0  0  3  0  0  0  0  0  0
  189.3730  177.0500  145.0340 C   0  0  2  0  0  3  0  0  0  0  0  0
  183.3180  178.2290  146.9620 F   0  0  0  0  0  0  0  0  0  0  0  0
  189.0520  176.2010  142.3350 C   0  0  0  0  0  2  0  0  0  0  0  0
  183.9780  178.4680  141.1610 O   0  0  0  0  0  1  0  0  0  0  0  0
  188.8960  177.5370  146.3960 C   0  0  0  0  0  2  0  0  0  0  0  0
  188.4970  175.8770  144.5610 C   0  0  2  0  0  3  0  0  0  0  0  0
  185.1430  177.2830  145.7580 C   0  0  0  0  0  3  0  0  0  0  0  0
  186.1990  177.8430  140.4590 C   0  0  0  0  0  3  0  0  0  0  0  0
  187.4190  177.7860  146.4390 C   0  0  0  0  0  0  0  0  0  0  0  0
  186.9180  178.5780  147.4790 C   0  0  0  0  0  3  0  0  0  0  0  0
  188.9860  175.2550  143.3840 O   0  0  0  0  0  0  0  0  0  0  0  0
  187.7040  176.7760  142.0260 C   0  0  0  0  0  0  0  0  0  0  0  0
  187.4420  177.2750  140.7460 C   0  0  0  0  0  3  0  0  0  0  0  0
  191.5640  178.2910  143.6930 O   0  0  0  0  0  0  0  0  0  0  0  0
  191.8160  177.3030  144.4350 C   0  0  0  0  0  0  0  0  0  0  0  0
  190.7630  176.6290  145.1260 N   0  0  0  0  0  2  0  0  0  0  0  0
  193.5880  173.8810  144.9030 C   0  0  1  0  0  3  0  0  0  0  0  0
  193.6500  175.9090  143.4370 C   0  0  0  0  0  2  0  0  0  0  0  0
  193.8090  176.7820  146.8880 O   0  0  0  0  0  0  0  0  0  0  0  0
  193.0970  172.4540  145.0130 C   0  0  0  0  0  1  0  0  0  0  0  0
  193.1050  174.4880  143.5880 C   0  0  0  0  0  2  0  0  0  0  0  0
  193.4220  176.1380  145.9260 C   0  0  0  0  0  0  0  0  0  0  0  0
  193.2220  176.8150  144.5980 C   0  0  2  0  0  3  0  0  0  0  0  0
  193.0680  174.6890  146.0890 C   0  0  0  0  0  2  0  0  0  0  0  0
  1  9  1  0  0  0  0
  1  6  1  0  0  0  0
  2  3  1  6  0  0  0
  2 13  1  0  0  0  0
  2  5  1  0  0  0  0
  4  7  2  0  0  0  0
  5 14  1  0  0  0  0
  5 16  2  0  0  0  0
  7  3  1  0  0  0  0
  8 23  1  1  0  0  0
  8 12  1  0  0  0  0
 10 18  1  0  0  0  0
 11  4  1  0  0  0  0
 12 16  1  0  0  0  0
 13 18  1  6  0  0  0
 13  8  1  0  0  0  0
 14  1  2  0  0  0  0
 15 20  2  0  0  0  0
 15  4  1  0  0  0  0
 16 17  1  0  0  0  0
 17  6  2  0  0  0  0
 19 10  1  0  0  0  0
 19  3  2  0  0  0  0
 20 19  1  0  0  0  0
 21 22  2  0  0  0  0
 22 23  1  0  0  0  0
 24 27  1  1  0  0  0
 24 31  1  0  0  0  0
 25 28  1  0  0  0  0
 25 30  1  0  0  0  0
 28 24  1  0  0  0  0
 29 31  1  0  0  0  0
 29 26  2  0  0  0  0
 30 22  1  6  0  0  0
 30 29  1  0  0  0  0
M  END
>  <MODEL>
1

>  <REMARK>
 VINA RESULT:      -9.4      0.000      0.000
  Name = 
  2 active torsions:
  status: ('A' for Active; 'I' for Inactive)
    1  A    between atoms: C_5  and  C_30
    2  A    between atoms: C_10  and  N_16
                            x       y       z     vdW  Elec       q    Type
                         _______ _______ _______ _____ _____    ______ ____

>  <TORSDO>
F 2

$$$$
=
 OpenBabel11112417053D

 31 35  0  0  1  0  0  0  0  0999 V2000
  185.8030  178.2520  140.7680 C   0  0  0  0  0  0  0  0  0  0  0  0
  187.9910  178.2920  143.8860 C   0  0  2  0  0  3  0  0  0  0  0  0
  187.0430  178.0280  145.0410 C   0  0  0  0  0  0  0  0  0  0  0  0
  184.8390  178.2020  146.0550 C   0  0  0  0  0  0  0  0  0  0  0  0
  187.4340  177.8880  142.5350 C   0  0  0  0  0  0  0  0  0  0  0  0
  186.3180  177.1660  140.0600 C   0  0  0  0  0  3  0  0  0  0  0  0
  185.6870  178.3820  144.9580 C   0  0  0  0  0  3  0  0  0  0  0  0
  189.4760  176.2140  143.7310 C   0  0  2  0  0  3  0  0  0  0  0  0
  184.7610  178.9570  140.2650 F   0  0  0  0  0  0  0  0  0  0  0  0
  188.9910  177.1620  146.3720 C   0  0  0  0  0  2  0  0  0  0  0  0
  183.4960  178.5400  145.9550 O   0  0  0  0  0  1  0  0  0  0  0  0
  189.2060  176.0820  142.2380 C   0  0  0  0  0  2  0  0  0  0  0  0
  189.3890  177.6900  144.1510 C   0  0  2  0  0  3  0  0  0  0  0  0
  186.3620  178.6130  141.9960 C   0  0  0  0  0  3  0  0  0  0  0  0
  185.3430  177.6860  147.2500 C   0  0  0  0  0  3  0  0  0  0  0  0
  187.9600  176.7940  141.8080 C   0  0  0  0  0  0  0  0  0  0  0  0
  187.3990  176.4480  140.5740 C   0  0  0  0  0  3  0  0  0  0  0  0
  189.8010  177.9160  145.4900 O   0  0  0  0  0  0  0  0  0  0  0  0
  187.5480  177.5500  146.2620 C   0  0  0  0  0  0  0  0  0  0  0  0
  186.6960  177.3590  147.3540 C   0  0  0  0  0  3  0  0  0  0  0  0
  190.0050  173.9300  145.3570 O   0  0  0  0  0  0  0  0  0  0  0  0
  190.9930  174.5280  144.8500 C   0  0  0  0  0  0  0  0  0  0  0  0
  190.7980  175.6850  144.0360 N   0  0  0  0  0  2  0  0  0  0  0  0
  194.4510  176.1160  145.6130 C   0  0  1  0  0  3  0  0  0  0  0  0
  192.8700  174.3970  146.5120 C   0  0  0  0  0  2  0  0  0  0  0  0
  193.5620  173.8610  143.0580 O   0  0  0  0  0  0  0  0  0  0  0  0
  194.9400  177.5410  145.7630 C   0  0  0  0  0  1  0  0  0  0  0  0
  193.3270  175.8530  146.6110 C   0  0  0  0  0  2  0  0  0  0  0  0
  193.3420  174.5360  144.0500 C   0  0  0  0  0  0  0  0  0  0  0  0
  192.3860  174.0410  145.1010 C   0  0  2  0  0  3  0  0  0  0  0  0
  193.9620  175.8960  144.1840 C   0  0  0  0  0  2  0  0  0  0  0  0
  1 14  1  0  0  0  0
  2  5  1  6  0  0  0
  2 13  1  0  0  0  0
  2  3  1  0  0  0  0
  3 19  1  0  0  0  0
  4 15  2  0  0  0  0
  6 17  1  0  0  0  0
  6  1  2  0  0  0  0
  7  3  2  0  0  0  0
  7  4  1  0  0  0  0
  8 23  1  6  0  0  0
  8 13  1  0  0  0  0
  9  1  1  0  0  0  0
 11  4  1  0  0  0  0
 12  8  1  0  0  0  0
 13 18  1  1  0  0  0
 14  5  2  0  0  0  0
 15 20  1  0  0  0  0
 16 12  1  0  0  0  0
 16  5  1  0  0  0  0
 17 16  2  0  0  0  0
 18 10  1  0  0  0  0
 19 10  1  0  0  0  0
 19 20  2  0  0  0  0
 22 21  2  0  0  0  0
 23 22  1  0  0  0  0
 24 27  1  6  0  0  0
 24 28  1  0  0  0  0
 25 28  1  0  0  0  0
 26 29  2  0  0  0  0
 29 31  1  0  0  0  0
 29 30  1  0  0  0  0
 30 22  1  6  0  0  0
 30 25  1  0  0  0  0
 31 24  1  0  0  0  0
M  END
>  <MODEL>
2

>  <REMARK>
 VINA RESULT:      -9.2      2.148      4.449
  Name = 
  2 active torsions:
  status: ('A' for Active; 'I' for Inactive)
    1  A    between atoms: C_5  and  C_30
    2  A    between atoms: C_10  and  N_16
                            x       y       z     vdW  Elec       q    Type
                         _______ _______ _______ _____ _____    ______ ____

>  <TORSDO>
F 2

$$$$
=
 OpenBabel11112417053D

 31 35  0  0  1  0  0  0  0  0999 V2000
  184.6660  178.4040  146.5980 C   0  0  0  0  0  0  0  0  0  0  0  0
  187.1490  175.9900  145.0110 C   0  0  2  0  0  3  0  0  0  0  0  0
  187.2190  176.3940  143.5500 C   0  0  0  0  0  0  0  0  0  0  0  0
  186.1790  177.3200  141.5560 C   0  0  0  0  0  0  0  0  0  0  0  0
  186.5790  177.0660  145.9150 C   0  0  0  0  0  0  0  0  0  0  0  0
  185.4630  179.0820  147.5220 C   0  0  0  0  0  3  0  0  0  0  0  0
  186.1320  177.0190  142.9210 C   0  0  0  0  0  3  0  0  0  0  0  0
  189.4360  176.5830  145.9950 C   0  0  2  0  0  3  0  0  0  0  0  0
  183.3560  178.7220  146.4720 F   0  0  0  0  0  0  0  0  0  0  0  0
  189.5040  175.3540  143.4280 C   0  0  0  0  0  2  0  0  0  0  0  0
  185.1040  177.9540  140.9490 O   0  0  0  0  0  1  0  0  0  0  0  0
  188.7890  177.3320  147.1530 C   0  0  0  0  0  2  0  0  0  0  0  0
  188.5070  175.4550  145.5170 C   0  0  2  0  0  3  0  0  0  0  0  0
  185.2210  177.3990  145.8030 C   0  0  0  0  0  3  0  0  0  0  0  0
  187.3060  176.9810  140.8050 C   0  0  0  0  0  3  0  0  0  0  0  0
  187.3790  177.7480  146.8600 C   0  0  0  0  0  0  0  0  0  0  0  0
  186.8110  178.7460  147.6590 C   0  0  0  0  0  3  0  0  0  0  0  0
  189.1120  174.6010  144.5590 O   0  0  0  0  0  0  0  0  0  0  0  0
  188.3300  176.0180  142.7750 C   0  0  0  0  0  0  0  0  0  0  0  0
  188.3820  176.3310  141.4140 C   0  0  0  0  0  3  0  0  0  0  0  0
  191.9780  177.2420  144.8800 O   0  0  0  0  0  0  0  0  0  0  0  0
  191.9530  176.4120  145.8300 C   0  0  0  0  0  0  0  0  0  0  0  0
  190.7120  176.0300  146.4250 N   0  0  0  0  0  2  0  0  0  0  0  0
  195.6060  176.0170  144.5790 C   0  0  1  0  0  3  0  0  0  0  0  0
  194.3160  176.8640  146.5490 C   0  0  0  0  0  2  0  0  0  0  0  0
  193.3640  173.5400  145.6900 O   0  0  0  0  0  0  0  0  0  0  0  0
  196.3290  176.4230  143.3120 C   0  0  0  0  0  1  0  0  0  0  0  0
  194.9930  177.2520  145.2340 C   0  0  0  0  0  2  0  0  0  0  0  0
  193.7000  174.6890  145.4570 C   0  0  0  0  0  0  0  0  0  0  0  0
  193.2230  175.8080  146.3430 C   0  0  2  0  0  3  0  0  0  0  0  0
  194.5230  174.9970  144.2400 C   0  0  0  0  0  2  0  0  0  0  0  0
  1  6  1  0  0  0  0
  2  3  1  6  0  0  0
  2 13  1  0  0  0  0
  2  5  1  0  0  0  0
  4  7  2  0  0  0  0
  5 16  2  0  0  0  0
  6 17  2  0  0  0  0
  7  3  1  0  0  0  0
  8 23  1  1  0  0  0
  8 12  1  0  0  0  0
  9  1  1  0  0  0  0
 10 18  1  0  0  0  0
 11  4  1  0  0  0  0
 13 18  1  6  0  0  0
 13  8  1  0  0  0  0
 14  5  1  0  0  0  0
 14  1  2  0  0  0  0
 15 20  2  0  0  0  0
 15  4  1  0  0  0  0
 16 12  1  0  0  0  0
 16 17  1  0  0  0  0
 19 10  1  0  0  0  0
 19  3  2  0  0  0  0
 20 19  1  0  0  0  0
 21 22  2  0  0  0  0
 22 23  1  0  0  0  0
 24 27  1  6  0  0  0
 24 28  1  0  0  0  0
 28 25  1  0  0  0  0
 29 26  2  0  0  0  0
 29 30  1  0  0  0  0
 30 22  1  6  0  0  0
 30 25  1  0  0  0  0
 31 24  1  0  0  0  0
 31 29  1  0  0  0  0
M  END
>  <MODEL>
3

>  <REMARK>
 VINA RESULT:      -9.0      1.330      1.909
  Name = 
  2 active torsions:
  status: ('A' for Active; 'I' for Inactive)
    1  A    between atoms: C_5  and  C_30
    2  A    between atoms: C_10  and  N_16
                            x       y       z     vdW  Elec       q    Type
                         _______ _______ _______ _____ _____    ______ ____

>  <TORSDO>
F 2

$$$$
=
 OpenBabel11112417053D

 31 35  0  0  1  0  0  0  0  0999 V2000
  194.8060  176.1580  144.9230 C   0  0  0  0  0  0  0  0  0  0  0  0
  191.3600  176.7690  143.4200 C   0  0  2  0  0  3  0  0  0  0  0  0
  191.0850  175.5580  142.5490 C   0  0  0  0  0  0  0  0  0  0  0  0
  191.8700  173.7560  141.1160 C   0  0  0  0  0  0  0  0  0  0  0  0
  192.4530  176.5470  144.4460 C   0  0  0  0  0  0  0  0  0  0  0  0
  194.5230  176.0840  146.2880 C   0  0  0  0  0  3  0  0  0  0  0  0
  192.1360  174.8260  141.9760 C   0  0  0  0  0  3  0  0  0  0  0  0
  189.7040  176.6070  145.3630 C   0  0  2  0  0  3  0  0  0  0  0  0
  196.0780  176.0010  144.4850 F   0  0  0  0  0  0  0  0  0  0  0  0
  188.6240  176.0050  142.7980 C   0  0  0  0  0  2  0  0  0  0  0  0
  192.9180  173.0290  140.5690 O   0  0  0  0  0  1  0  0  0  0  0  0
  190.8180  176.8050  146.3830 C   0  0  0  0  0  2  0  0  0  0  0  0
  190.0620  177.3210  144.0500 C   0  0  2  0  0  3  0  0  0  0  0  0
  193.7770  176.3940  144.0090 C   0  0  0  0  0  3  0  0  0  0  0  0
  190.5500  173.4220  140.8050 C   0  0  0  0  0  3  0  0  0  0  0  0
  192.1730  176.4820  145.8310 C   0  0  0  0  0  0  0  0  0  0  0  0
  193.2140  176.2560  146.7390 C   0  0  0  0  0  3  0  0  0  0  0  0
  188.9980  177.3330  143.1110 O   0  0  0  0  0  0  0  0  0  0  0  0
  189.7620  175.2400  142.1950 C   0  0  0  0  0  0  0  0  0  0  0  0
  189.4960  174.1610  141.3450 C   0  0  0  0  0  3  0  0  0  0  0  0
  188.0300  175.2910  147.2630 O   0  0  0  0  0  0  0  0  0  0  0  0
  187.6700  176.4290  146.8550 C   0  0  0  0  0  0  0  0  0  0  0  0
  188.4560  177.1360  145.8950 N   0  0  0  0  0  2  0  0  0  0  0  0
  185.0390  178.9640  145.5450 C   0  0  1  0  0  3  0  0  0  0  0  0
  185.1930  176.6610  146.5130 C   0  0  0  0  0  2  0  0  0  0  0  0
  186.9030  179.0480  148.5320 O   0  0  0  0  0  0  0  0  0  0  0  0
  184.8950  179.7560  144.2630 C   0  0  0  0  0  1  0  0  0  0  0  0
  185.1130  177.4750  145.2200 C   0  0  0  0  0  2  0  0  0  0  0  0
  186.5380  178.5470  147.4810 C   0  0  0  0  0  0  0  0  0  0  0  0
  186.4080  177.0530  147.3640 C   0  0  2  0  0  3  0  0  0  0  0  0
  186.2980  179.4160  146.2810 C   0  0  0  0  0  2  0  0  0  0  0  0
  1  6  1  0  0  0  0
  2  3  1  1  0  0  0
  2 13  1  0  0  0  0
  2  5  1  0  0  0  0
  4  7  1  0  0  0  0
  5 16  2  0  0  0  0
  6 17  2  0  0  0  0
  7  3  2  0  0  0  0
  8 23  1  1  0  0  0
  8 12  1  0  0  0  0
  9  1  1  0  0  0  0
 10 18  1  0  0  0  0
 11  4  1  0  0  0  0
 13 18  1  6  0  0  0
 13  8  1  0  0  0  0
 14  5  1  0  0  0  0
 14  1  2  0  0  0  0
 15  4  2  0  0  0  0
 15 20  1  0  0  0  0
 16 12  1  0  0  0  0
 16 17  1  0  0  0  0
 19  3  1  0  0  0  0
 19 10  1  0  0  0  0
 20 19  2  0  0  0  0
 22 21  2  0  0  0  0
 23 22  1  0  0  0  0
 24 27  1  6  0  0  0
 24 31  1  0  0  0  0
 25 30  1  0  0  0  0
 28 24  1  0  0  0  0
 28 25  1  0  0  0  0
 29 26  2  0  0  0  0
 30 22  1  6  0  0  0
 30 29  1  0  0  0  0
 31 29  1  0  0  0  0
M  END
>  <MODEL>
4

>  <REMARK>
 VINA RESULT:      -8.8      3.389      7.122
  Name = 
  2 active torsions:
  status: ('A' for Active; 'I' for Inactive)
    1  A    between atoms: C_5  and  C_30
    2  A    between atoms: C_10  and  N_16
                            x       y       z     vdW  Elec       q    Type
                         _______ _______ _______ _____ _____    ______ ____

>  <TORSDO>
F 2

$$$$
=
 OpenBabel11112417053D

 31 35  0  0  1  0  0  0  0  0999 V2000
  192.0360  173.2100  141.3660 C   0  0  0  0  0  0  0  0  0  0  0  0
  191.5240  174.0860  145.0380 C   0  0  2  0  0  3  0  0  0  0  0  0
  192.6360  175.0620  145.3730 C   0  0  0  0  0  0  0  0  0  0  0  0
  194.8980  175.8920  145.0400 C   0  0  0  0  0  0  0  0  0  0  0  0
  191.2620  173.9470  143.5510 C   0  0  0  0  0  0  0  0  0  0  0  0
  190.8670  173.6980  140.7810 C   0  0  0  0  0  3  0  0  0  0  0  0
  193.8530  175.0380  144.6740 C   0  0  0  0  0  3  0  0  0  0  0  0
  189.3610  175.4510  145.1420 C   0  0  2  0  0  3  0  0  0  0  0  0
  192.9830  172.6200  140.5990 F   0  0  0  0  0  0  0  0  0  0  0  0
  191.2150  175.9560  147.2440 C   0  0  0  0  0  2  0  0  0  0  0  0
  196.0900  175.8720  144.3300 O   0  0  0  0  0  1  0  0  0  0  0  0
  188.9290  174.9450  143.7720 C   0  0  0  0  0  2  0  0  0  0  0  0
  190.2380  174.3960  145.8360 C   0  0  2  0  0  3  0  0  0  0  0  0
  192.2280  173.3290  142.7440 C   0  0  0  0  0  3  0  0  0  0  0  0
  194.7430  176.7620  146.1200 C   0  0  0  0  0  3  0  0  0  0  0  0
  190.0740  174.4310  142.9540 C   0  0  0  0  0  0  0  0  0  0  0  0
  189.8860  174.2960  141.5740 C   0  0  0  0  0  3  0  0  0  0  0  0
  190.5350  174.7170  147.1860 O   0  0  0  0  0  0  0  0  0  0  0  0
  192.5070  175.9110  146.4850 C   0  0  0  0  0  0  0  0  0  0  0  0
  193.5480  176.7740  146.8430 C   0  0  0  0  0  3  0  0  0  0  0  0
  188.6940  177.9940  146.2500 O   0  0  0  0  0  0  0  0  0  0  0  0
  187.9030  177.0350  146.4680 C   0  0  0  0  0  0  0  0  0  0  0  0
  188.1850  175.7340  145.9510 N   0  0  0  0  0  2  0  0  0  0  0  0
  184.3820  178.5670  145.9040 C   0  0  1  0  0  3  0  0  0  0  0  0
  185.4710  176.4620  146.7090 C   0  0  0  0  0  2  0  0  0  0  0  0
  186.7590  179.3300  148.3870 O   0  0  0  0  0  0  0  0  0  0  0  0
  183.7050  179.2310  144.7240 C   0  0  0  0  0  1  0  0  0  0  0  0
  184.8440  177.1670  145.5060 C   0  0  0  0  0  2  0  0  0  0  0  0
  186.3390  178.7060  147.4270 C   0  0  0  0  0  0  0  0  0  0  0  0
  186.6620  177.2440  147.2770 C   0  0  2  0  0  3  0  0  0  0  0  0
  185.5680  179.4160  146.3520 C   0  0  0  0  0  2  0  0  0  0  0  0
  1 14  1  0  0  0  0
  2  5  1  6  0  0  0
  2  3  1  0  0  0  0
  2 13  1  0  0  0  0
  3 19  1  0  0  0  0
  4 15  2  0  0  0  0
  6  1  2  0  0  0  0
  6 17  1  0  0  0  0
  7  4  1  0  0  0  0
  7  3  2  0  0  0  0
  8 13  1  0  0  0  0
  8 23  1  1  0  0  0
  9  1  1  0  0  0  0
 11  4  1  0  0  0  0
 12  8  1  0  0  0  0
 13 18  1  1  0  0  0
 14  5  2  0  0  0  0
 15 20  1  0  0  0  0
 16  5  1  0  0  0  0
 16 12  1  0  0  0  0
 17 16  2  0  0  0  0
 18 10  1  0  0  0  0
 19 20  2  0  0  0  0
 19 10  1  0  0  0  0
 21 22  2  0  0  0  0
 23 22  1  0  0  0  0
 24 27  1  6  0  0  0
 24 31  1  0  0  0  0
 25 30  1  0  0  0  0
 28 24  1  0  0  0  0
 28 25  1  0  0  0  0
 29 26  2  0  0  0  0
 30 22  1  6  0  0  0
 30 29  1  0  0  0  0
 31 29  1  0  0  0  0
M  END
>  <MODEL>
5

>  <REMARK>
 VINA RESULT:      -8.1      3.548      7.997
  Name = 
  2 active torsions:
  status: ('A' for Active; 'I' for Inactive)
    1  A    between atoms: C_5  and  C_30
    2  A    between atoms: C_10  and  N_16
                            x       y       z     vdW  Elec       q    Type
                         _______ _______ _______ _____ _____    ______ ____

>  <TORSDO>
F 2

$$$$
=
 OpenBabel11112417053D

 31 35  0  0  1  0  0  0  0  0999 V2000
  187.2840  176.6970  140.8270 C   0  0  0  0  0  0  0  0  0  0  0  0
  188.8910  177.5400  144.1760 C   0  0  2  0  0  3  0  0  0  0  0  0
  187.7330  177.7060  145.1420 C   0  0  0  0  0  0  0  0  0  0  0  0
  185.4260  178.3270  145.5990 C   0  0  0  0  0  0  0  0  0  0  0  0
  188.5280  176.7810  142.9150 C   0  0  0  0  0  0  0  0  0  0  0  0
  187.7750  175.4140  140.5790 C   0  0  0  0  0  3  0  0  0  0  0  0
  186.4660  178.1060  144.6910 C   0  0  0  0  0  3  0  0  0  0  0  0
  190.1120  175.4200  144.9260 C   0  0  2  0  0  3  0  0  0  0  0  0
  186.4390  177.2810  139.9450 F   0  0  0  0  0  0  0  0  0  0  0  0
  189.3010  177.1590  147.0300 C   0  0  0  0  0  2  0  0  0  0  0  0
  184.1730  178.7060  145.1390 O   0  0  0  0  0  1  0  0  0  0  0  0
  190.0890  174.8570  143.5110 C   0  0  0  0  0  2  0  0  0  0  0  0
  190.1370  176.9570  144.8780 C   0  0  2  0  0  3  0  0  0  0  0  0
  187.6630  177.3770  141.9860 C   0  0  0  0  0  3  0  0  0  0  0  0
  185.6490  178.1680  146.9680 C   0  0  0  0  0  3  0  0  0  0  0  0
  189.0320  175.4850  142.6530 C   0  0  0  0  0  0  0  0  0  0  0  0
  188.6540  174.8170  141.4840 C   0  0  0  0  0  3  0  0  0  0  0  0
  190.3370  177.5520  146.1500 O   0  0  0  0  0  0  0  0  0  0  0  0
  187.9580  177.5900  146.5260 C   0  0  0  0  0  0  0  0  0  0  0  0
  186.9140  177.7980  147.4320 C   0  0  0  0  0  3  0  0  0  0  0  0
  192.7860  175.5060  143.9360 O   0  0  0  0  0  0  0  0  0  0  0  0
  192.6020  175.0070  145.0800 C   0  0  0  0  0  0  0  0  0  0  0  0
  191.2860  174.9230  145.6290 N   0  0  0  0  0  2  0  0  0  0  0  0
  196.4180  174.5350  144.5520 C   0  0  1  0  0  3  0  0  0  0  0  0
  194.7990  175.5790  146.1510 C   0  0  0  0  0  2  0  0  0  0  0  0
  194.0050  172.1620  145.5250 O   0  0  0  0  0  0  0  0  0  0  0  0
  197.3570  174.8050  143.3960 C   0  0  0  0  0  1  0  0  0  0  0  0
  195.7020  175.8260  144.9410 C   0  0  0  0  0  2  0  0  0  0  0  0
  194.3810  173.2830  145.2250 C   0  0  0  0  0  0  0  0  0  0  0  0
  193.7570  174.4870  145.8770 C   0  0  2  0  0  3  0  0  0  0  0  0
  195.4090  173.4640  144.1470 C   0  0  0  0  0  2  0  0  0  0  0  0
  1 14  1  0  0  0  0
  2  5  1  6  0  0  0
  2 13  1  0  0  0  0
  2  3  1  0  0  0  0
  3 19  1  0  0  0  0
  4 15  2  0  0  0  0
  6  1  2  0  0  0  0
  6 17  1  0  0  0  0
  7  3  2  0  0  0  0
  7  4  1  0  0  0  0
  8 23  1  6  0  0  0
  9  1  1  0  0  0  0
 11  4  1  0  0  0  0
 12  8  1  0  0  0  0
 13  8  1  0  0  0  0
 13 18  1  1  0  0  0
 14  5  2  0  0  0  0
 15 20  1  0  0  0  0
 16  5  1  0  0  0  0
 16 12  1  0  0  0  0
 17 16  2  0  0  0  0
 18 10  1  0  0  0  0
 19 10  1  0  0  0  0
 19 20  2  0  0  0  0
 21 22  2  0  0  0  0
 22 23  1  0  0  0  0
 24 27  1  6  0  0  0
 24 28  1  0  0  0  0
 28 25  1  0  0  0  0
 29 26  2  0  0  0  0
 29 30  1  0  0  0  0
 30 22  1  6  0  0  0
 30 25  1  0  0  0  0
 31 24  1  0  0  0  0
 31 29  1  0  0  0  0
M  END
>  <MODEL>
6

>  <REMARK>
 VINA RESULT:      -8.0      2.435      4.480
  Name = 
  2 active torsions:
  status: ('A' for Active; 'I' for Inactive)
    1  A    between atoms: C_5  and  C_30
    2  A    between atoms: C_10  and  N_16
                            x       y       z     vdW  Elec       q    Type
                         _______ _______ _______ _____ _____    ______ ____

>  <TORSDO>
F 2

$$$$
=
 OpenBabel11112417053D

 31 35  0  0  1  0  0  0  0  0999 V2000
  185.8750  178.2750  141.1280 C   0  0  0  0  0  0  0  0  0  0  0  0
  188.1300  178.2550  144.1980 C   0  0  2  0  0  3  0  0  0  0  0  0
  187.2240  177.8790  145.3550 C   0  0  0  0  0  0  0  0  0  0  0  0
  185.0380  177.8820  146.4220 C   0  0  0  0  0  0  0  0  0  0  0  0
  187.5630  177.8980  142.8380 C   0  0  0  0  0  0  0  0  0  0  0  0
  186.4280  177.2580  140.3490 C   0  0  0  0  0  3  0  0  0  0  0  0
  185.8510  178.1660  145.3200 C   0  0  0  0  0  3  0  0  0  0  0  0
  189.7150  176.2690  143.8960 C   0  0  2  0  0  3  0  0  0  0  0  0
  184.7870  178.9510  140.6870 F   0  0  0  0  0  0  0  0  0  0  0  0
  189.2440  177.0430  146.5950 C   0  0  0  0  0  2  0  0  0  0  0  0
  183.6780  178.1550  146.3690 O   0  0  0  0  0  1  0  0  0  0  0  0
  189.4170  176.2060  142.4030 C   0  0  0  0  0  2  0  0  0  0  0  0
  189.5620  177.7130  144.4000 C   0  0  2  0  0  3  0  0  0  0  0  0
  186.4430  178.5960  142.3630 C   0  0  0  0  0  3  0  0  0  0  0  0
  185.5950  177.3280  147.5760 C   0  0  0  0  0  3  0  0  0  0  0  0
  188.1260  176.8750  142.0400 C   0  0  0  0  0  0  0  0  0  0  0  0
  187.5550  176.5690  140.8000 C   0  0  0  0  0  3  0  0  0  0  0  0
  189.9940  177.8850  145.7410 O   0  0  0  0  0  0  0  0  0  0  0  0
  187.7810  177.3610  146.5370 C   0  0  0  0  0  0  0  0  0  0  0  0
  186.9660  177.0650  147.6340 C   0  0  0  0  0  3  0  0  0  0  0  0
  192.0970  177.4860  142.9060 O   0  0  0  0  0  0  0  0  0  0  0  0
  192.2220  176.4580  143.6250 C   0  0  0  0  0  0  0  0  0  0  0  0
  191.0680  175.7940  144.1430 N   0  0  0  0  0  2  0  0  0  0  0  0
  193.7340  173.0150  144.5850 C   0  0  1  0  0  3  0  0  0  0  0  0
  194.0240  174.8600  142.9190 C   0  0  0  0  0  2  0  0  0  0  0  0
  194.0090  176.1010  146.2590 O   0  0  0  0  0  0  0  0  0  0  0  0
  193.1460  171.6380  144.8100 C   0  0  0  0  0  1  0  0  0  0  0  0
  193.3800  173.4980  143.1810 C   0  0  0  0  0  2  0  0  0  0  0  0
  193.6470  175.3770  145.3460 C   0  0  0  0  0  0  0  0  0  0  0  0
  193.5790  175.9130  143.9420 C   0  0  2  0  0  3  0  0  0  0  0  0
  193.1890  173.9780  145.6360 C   0  0  0  0  0  2  0  0  0  0  0  0
  1 14  1  0  0  0  0
  2  5  1  6  0  0  0
  2 13  1  0  0  0  0
  2  3  1  0  0  0  0
  3 19  1  0  0  0  0
  4 15  2  0  0  0  0
  6 17  1  0  0  0  0
  6  1  2  0  0  0  0
  7  3  2  0  0  0  0
  7  4  1  0  0  0  0
  8 23  1  6  0  0  0
  8 13  1  0  0  0  0
  9  1  1  0  0  0  0
 11  4  1  0  0  0  0
 12  8  1  0  0  0  0
 13 18  1  1  0  0  0
 14  5  2  0  0  0  0
 15 20  1  0  0  0  0
 16 12  1  0  0  0  0
 16  5  1  0  0  0  0
 17 16  2  0  0  0  0
 18 10  1  0  0  0  0
 19 10  1  0  0  0  0
 19 20  2  0  0  0  0
 21 22  2  0  0  0  0
 22 23  1  0  0  0  0
 24 27  1  1  0  0  0
 24 31  1  0  0  0  0
 25 28  1  0  0  0  0
 25 30  1  0  0  0  0
 28 24  1  0  0  0  0
 29 31  1  0  0  0  0
 29 26  2  0  0  0  0
 30 22  1  6  0  0  0
 30 29  1  0  0  0  0
M  END
>  <MODEL>
7

>  <REMARK>
 VINA RESULT:      -7.8      1.921      3.962
  Name = 
  2 active torsions:
  status: ('A' for Active; 'I' for Inactive)
    1  A    between atoms: C_5  and  C_30
    2  A    between atoms: C_10  and  N_16
                            x       y       z     vdW  Elec       q    Type
                         _______ _______ _______ _____ _____    ______ ____

>  <TORSDO>
F 2

$$$$
=
 OpenBabel11112417053D

 31 35  0  0  1  0  0  0  0  0999 V2000
  186.6190  177.1360  141.9360 C   0  0  0  0  0  0  0  0  0  0  0  0
  189.3500  174.7720  143.1450 C   0  0  2  0  0  3  0  0  0  0  0  0
  189.6090  173.8350  141.9810 C   0  0  0  0  0  0  0  0  0  0  0  0
  188.8310  172.6300  140.0160 C   0  0  0  0  0  0  0  0  0  0  0  0
  188.6370  176.0510  142.7520 C   0  0  0  0  0  0  0  0  0  0  0  0
  187.2670  178.3720  141.9620 C   0  0  0  0  0  3  0  0  0  0  0  0
  188.6040  173.5520  141.0430 C   0  0  0  0  0  3  0  0  0  0  0  0
  191.4660  176.1930  143.3660 C   0  0  2  0  0  3  0  0  0  0  0  0
  185.3320  177.0540  141.5250 F   0  0  0  0  0  0  0  0  0  0  0  0
  191.9130  173.4200  142.8980 C   0  0  0  0  0  2  0  0  0  0  0  0
  187.8350  172.3720  139.0850 O   0  0  0  0  0  1  0  0  0  0  0  0
  190.6500  177.4790  143.3800 C   0  0  0  0  0  2  0  0  0  0  0  0
  190.6380  175.0400  143.9550 C   0  0  2  0  0  3  0  0  0  0  0  0
  187.3000  175.9840  142.3340 C   0  0  0  0  0  3  0  0  0  0  0  0
  190.0570  171.9680  139.9300 C   0  0  0  0  0  3  0  0  0  0  0  0
  189.2850  177.3070  142.7870 C   0  0  0  0  0  0  0  0  0  0  0  0
  188.5900  178.4570  142.3960 C   0  0  0  0  0  3  0  0  0  0  0  0
  191.3880  173.8500  144.1390 O   0  0  0  0  0  0  0  0  0  0  0  0
  190.8240  173.1310  141.9100 C   0  0  0  0  0  0  0  0  0  0  0  0
  191.0550  172.2190  140.8750 C   0  0  0  0  0  3  0  0  0  0  0  0
  194.1150  176.1810  142.3050 O   0  0  0  0  0  0  0  0  0  0  0  0
  193.9820  176.3730  143.5440 C   0  0  0  0  0  0  0  0  0  0  0  0
  192.6840  176.3790  144.1410 N   0  0  0  0  0  2  0  0  0  0  0  0
  196.4120  174.1660  145.6130 C   0  0  1  0  0  3  0  0  0  0  0  0
  196.4350  175.9220  143.8300 C   0  0  0  0  0  2  0  0  0  0  0  0
  194.5130  176.9430  146.6510 O   0  0  0  0  0  0  0  0  0  0  0  0
  196.5070  172.6780  145.8810 C   0  0  0  0  0  1  0  0  0  0  0  0
  196.4640  174.4180  144.1090 C   0  0  0  0  0  2  0  0  0  0  0  0
  194.9300  176.1470  145.8270 C   0  0  0  0  0  0  0  0  0  0  0  0
  195.1830  176.5900  144.4120 C   0  0  2  0  0  3  0  0  0  0  0  0
  195.1130  174.7050  146.2030 C   0  0  0  0  0  2  0  0  0  0  0  0
  1  6  2  0  0  0  0
  1 14  1  0  0  0  0
  2  3  1  6  0  0  0
  2 13  1  0  0  0  0
  4  7  1  0  0  0  0
  5 16  1  0  0  0  0
  5  2  1  0  0  0  0
  6 17  1  0  0  0  0
  7  3  2  0  0  0  0
  8 12  1  0  0  0  0
  8 13  1  0  0  0  0
  8 23  1  1  0  0  0
  9  1  1  0  0  0  0
 10 18  1  0  0  0  0
 11  4  1  0  0  0  0
 13 18  1  6  0  0  0
 14  5  2  0  0  0  0
 15  4  2  0  0  0  0
 15 20  1  0  0  0  0
 16 12  1  0  0  0  0
 17 16  2  0  0  0  0
 19  3  1  0  0  0  0
 19 10  1  0  0  0  0
 20 19  2  0  0  0  0
 21 22  2  0  0  0  0
 22 23  1  0  0  0  0
 24 27  1  6  0  0  0
 24 31  1  0  0  0  0
 25 28  1  0  0  0  0
 25 30  1  0  0  0  0
 28 24  1  0  0  0  0
 29 31  1  0  0  0  0
 29 26  2  0  0  0  0
 30 22  1  6  0  0  0
 30 29  1  0  0  0  0
M  END
>  <MODEL>
8

>  <REMARK>
 VINA RESULT:      -7.6      3.208      4.281
  Name = 
  2 active torsions:
  status: ('A' for Active; 'I' for Inactive)
    1  A    between atoms: C_5  and  C_30
    2  A    between atoms: C_10  and  N_16
                            x       y       z     vdW  Elec       q    Type
                         _______ _______ _______ _____ _____    ______ ____

>  <TORSDO>
F 2

$$$$
=
 OpenBabel11112417053D

 31 35  0  0  1  0  0  0  0  0999 V2000
  186.5970  178.1440  145.4860 C   0  0  0  0  0  0  0  0  0  0  0  0
  189.7510  176.8730  143.7680 C   0  0  2  0  0  3  0  0  0  0  0  0
  190.5980  176.2810  144.8800 C   0  0  0  0  0  0  0  0  0  0  0  0
  191.3230  176.2450  147.2010 C   0  0  0  0  0  0  0  0  0  0  0  0
  188.2890  177.0340  144.1360 C   0  0  0  0  0  0  0  0  0  0  0  0
  185.6050  177.3540  144.9030 C   0  0  0  0  0  3  0  0  0  0  0  0
  190.4860  176.7450  146.1990 C   0  0  0  0  0  3  0  0  0  0  0  0
  189.0190  174.8850  142.3320 C   0  0  2  0  0  3  0  0  0  0  0  0
  186.2680  179.0620  146.4250 F   0  0  0  0  0  0  0  0  0  0  0  0
  191.7410  174.8400  143.1660 C   0  0  0  0  0  2  0  0  0  0  0  0
  191.1910  176.6990  148.5050 O   0  0  0  0  0  1  0  0  0  0  0  0
  187.5630  175.3290  142.3880 C   0  0  0  0  0  2  0  0  0  0  0  0
  189.9440  176.1090  142.4400 C   0  0  2  0  0  3  0  0  0  0  0  0
  187.9300  177.9870  145.1000 C   0  0  0  0  0  3  0  0  0  0  0  0
  192.2930  175.2910  146.8880 C   0  0  0  0  0  3  0  0  0  0  0  0
  187.2780  176.2430  143.5410 C   0  0  0  0  0  0  0  0  0  0  0  0
  185.9440  176.4160  143.9270 C   0  0  0  0  0  3  0  0  0  0  0  0
  191.3100  175.7980  142.2190 O   0  0  0  0  0  0  0  0  0  0  0  0
  191.6060  175.3520  144.5680 C   0  0  0  0  0  0  0  0  0  0  0  0
  192.4350  174.8430  145.5730 C   0  0  0  0  0  3  0  0  0  0  0  0
  189.3170  172.0610  142.0620 O   0  0  0  0  0  0  0  0  0  0  0  0
  189.3950  172.7600  141.0150 C   0  0  0  0  0  0  0  0  0  0  0  0
  189.2660  174.1810  141.0830 N   0  0  0  0  0  2  0  0  0  0  0  0
  192.4270  172.1310  138.6750 C   0  0  1  0  0  3  0  0  0  0  0  0
  190.5620  170.8980  139.8000 C   0  0  0  0  0  2  0  0  0  0  0  0
  189.3570  173.6960  137.9520 O   0  0  0  0  0  0  0  0  0  0  0  0
  193.8990  172.4770  138.7520 C   0  0  0  0  0  1  0  0  0  0  0  0
  192.0310  171.3090  139.8990 C   0  0  0  0  0  2  0  0  0  0  0  0
  190.1410  173.1010  138.6730 C   0  0  0  0  0  0  0  0  0  0  0  0
  189.6320  172.1130  139.6860 C   0  0  2  0  0  3  0  0  0  0  0  0
  191.6070  173.4160  138.6050 C   0  0  0  0  0  2  0  0  0  0  0  0
  1  9  1  0  0  0  0
  2  5  1  1  0  0  0
  2  3  1  0  0  0  0
  3  7  1  0  0  0  0
  4 11  1  0  0  0  0
  5 14  2  0  0  0  0
  6  1  2  0  0  0  0
  7  4  2  0  0  0  0
  8 23  1  6  0  0  0
  8 12  1  0  0  0  0
  8 13  1  0  0  0  0
 10 19  1  0  0  0  0
 12 16  1  0  0  0  0
 13 18  1  1  0  0  0
 13  2  1  0  0  0  0
 14  1  1  0  0  0  0
 15  4  1  0  0  0  0
 16 17  2  0  0  0  0
 16  5  1  0  0  0  0
 17  6  1  0  0  0  0
 18 10  1  0  0  0  0
 19  3  2  0  0  0  0
 19 20  1  0  0  0  0
 20 15  2  0  0  0  0
 22 23  1  0  0  0  0
 22 21  2  0  0  0  0
 24 27  1  1  0  0  0
 24 28  1  0  0  0  0
 25 28  1  0  0  0  0
 26 29  2  0  0  0  0
 29 30  1  0  0  0  0
 30 25  1  0  0  0  0
 30 22  1  1  0  0  0
 31 29  1  0  0  0  0
 31 24  1  0  0  0  0
M  END
>  <MODEL>
9

>  <REMARK>
 VINA RESULT:      -7.6      3.290      5.960
  Name = 
  2 active torsions:
  status: ('A' for Active; 'I' for Inactive)
    1  A    between atoms: C_5  and  C_30
    2  A    between atoms: C_10  and  N_16
                            x       y       z     vdW  Elec       q    Type
                         _______ _______ _______ _____ _____    ______ ____

>  <TORSDO>
F 2

$$$$
