=
 OpenBabel11112416263D

 30 35  0  0  1  0  0  0  0  0999 V2000
  186.5420  177.5310  143.8010 C   0  0  0  0  0  0  0  0  0  0  0  0
  184.7610  178.5590  145.2420 C   0  0  0  0  0  0  0  0  0  0  0  0
  188.5900  176.2040  147.1090 N   0  0  0  0  0  0  0  0  0  0  0  0
  187.7260  176.7430  143.6910 C   0  0  0  0  0  0  0  0  0  0  0  0
  185.9820  178.1290  142.5410 C   0  0  0  0  0  2  0  0  0  0  0  0
  187.7080  176.1910  140.0810 O   0  0  0  0  0  0  0  0  0  0  0  0
  190.5220  175.8170  142.7330 C   0  0  1  0  0  3  0  0  0  0  0  0
  187.3140  176.5270  141.2320 C   0  0  0  0  0  0  0  0  0  0  0  0
  190.7500  175.6320  144.2230 C   0  0  2  0  0  3  0  0  0  0  0  0
  189.6570  175.6910  146.4640 C   0  0  0  0  0  0  0  0  0  0  0  0
  185.9490  177.1180  141.4090 C   0  0  2  0  0  3  0  0  0  0  0  0
  188.1290  176.2540  142.3870 N   0  0  0  0  0  0  0  0  0  0  0  0
  184.2500  178.7980  146.5210 C   0  0  0  0  0  3  0  0  0  0  0  0
  191.4330  174.2850  144.3620 C   0  0  0  0  0  2  0  0  0  0  0  0
  191.6630  175.0680  142.0640 C   0  0  0  0  0  2  0  0  0  0  0  0
  184.0470  179.0580  144.1590 O   0  0  0  0  0  1  0  0  0  0  0  0
  187.8050  176.6350  146.1100 C   0  0  0  0  0  0  0  0  0  0  0  0
  184.9040  178.3190  147.6530 C   0  0  0  0  0  3  0  0  0  0  0  0
  185.9640  177.8190  145.0770 C   0  0  0  0  0  0  0  0  0  0  0  0
  188.3770  176.3740  144.8920 C   0  0  0  0  0  0  0  0  0  0  0  0
  190.8540  175.2010  147.2100 C   0  0  0  0  0  1  0  0  0  0  0  0
  189.5770  175.7720  145.1060 N   0  0  0  0  0  0  0  0  0  0  0  0
  192.2680  174.1390  143.1070 C   0  0  0  0  0  2  0  0  0  0  0  0
  188.7850  173.8970  142.7200 C   0  0  0  0  0  1  0  0  0  0  0  0
  186.0820  177.5900  147.5170 C   0  0  0  0  0  3  0  0  0  0  0  0
  186.6110  177.3340  146.2470 C   0  0  0  0  0  0  0  0  0  0  0  0
  189.1960  175.2790  142.2150 C   0  0  2  0  0  3  0  0  0  0  0  0
  185.5070  177.7770  140.1870 N   0  0  0  0  0  2  0  0  0  0  0  0
  183.0910  177.9080  140.2980 C   0  0  0  0  0  1  0  0  0  0  0  0
  184.3940  178.6390  140.5440 C   0  0  0  0  0  2  0  0  0  0  0  0
  1 19  1  0  0  0  0
  2 13  1  0  0  0  0
  4  1  2  0  0  0  0
  4 20  1  0  0  0  0
  5  1  1  0  0  0  0
  6  8  2  0  0  0  0
  7 15  1  6  0  0  0
  7  9  1  0  0  0  0
  8 11  1  0  0  0  0
  8 12  1  0  0  0  0
  9 14  1  6  0  0  0
  9 22  1  0  0  0  0
 10  3  2  0  0  0  0
 10 21  1  0  0  0  0
 11 28  1  6  0  0  0
 11  5  1  0  0  0  0
 12  4  1  0  0  0  0
 13 18  2  0  0  0  0
 15 23  1  0  0  0  0
 16  2  1  0  0  0  0
 17 26  1  0  0  0  0
 17  3  1  0  0  0  0
 19  2  2  0  0  0  0
 19 26  1  0  0  0  0
 20 22  1  0  0  0  0
 20 17  2  0  0  0  0
 22 10  1  0  0  0  0
 23 14  1  0  0  0  0
 25 18  1  0  0  0  0
 26 25  2  0  0  0  0
 27 12  1  0  0  0  0
 27 24  1  1  0  0  0
 27  7  1  0  0  0  0
 28 30  1  0  0  0  0
 29 30  1  0  0  0  0
M  END
>  <MODEL>
1

>  <REMARK>
 VINA RESULT:      -8.8      0.000      0.000
  Name = 
  2 active torsions:
  status: ('A' for Active; 'I' for Inactive)
    1  A    between atoms: C_11  and  N_28
    2  A    between atoms: N_28  and  C_30
                            x       y       z     vdW  Elec       q    Type
                         _______ _______ _______ _____ _____    ______ ____

>  <TORSDO>
F 2

$$$$
=
 OpenBabel11112416263D

 30 35  0  0  1  0  0  0  0  0999 V2000
  189.2620  175.4010  144.1160 C   0  0  0  0  0  0  0  0  0  0  0  0
  191.2110  174.6060  145.4860 C   0  0  0  0  0  0  0  0  0  0  0  0
  187.9200  177.7500  147.2110 N   0  0  0  0  0  0  0  0  0  0  0  0
  188.1240  176.2510  143.9820 C   0  0  0  0  0  0  0  0  0  0  0  0
  189.5520  174.4400  142.9970 C   0  0  0  0  0  2  0  0  0  0  0  0
  187.5260  175.8350  140.4030 O   0  0  0  0  0  0  0  0  0  0  0  0
  185.2590  177.1780  143.2570 C   0  0  1  0  0  3  0  0  0  0  0  0
  188.1000  175.7730  141.5250 C   0  0  0  0  0  0  0  0  0  0  0  0
  185.3130  177.7680  144.6560 C   0  0  2  0  0  3  0  0  0  0  0  0
  186.7850  178.1840  146.6250 C   0  0  0  0  0  0  0  0  0  0  0  0
  189.4390  175.1100  141.6410 C   0  0  2  0  0  3  0  0  0  0  0  0
  187.5230  176.4210  142.6730 N   0  0  0  0  0  0  0  0  0  0  0  0
  191.9290  174.6580  146.6840 C   0  0  0  0  0  3  0  0  0  0  0  0
  184.7440  179.1680  144.5250 C   0  0  0  0  0  2  0  0  0  0  0  0
  184.0610  177.8400  142.5970 C   0  0  0  0  0  2  0  0  0  0  0  0
  191.6900  173.7710  144.4840 O   0  0  0  0  0  1  0  0  0  0  0  0
  188.4870  176.9940  146.2580 C   0  0  0  0  0  0  0  0  0  0  0  0
  191.5160  175.4810  147.7290 C   0  0  0  0  0  3  0  0  0  0  0  0
  190.0420  175.3980  145.3150 C   0  0  0  0  0  0  0  0  0  0  0  0
  187.7210  176.9860  145.1220 C   0  0  0  0  0  0  0  0  0  0  0  0
  185.7710  178.9730  147.3870 C   0  0  0  0  0  1  0  0  0  0  0  0
  186.6150  177.7430  145.3470 N   0  0  0  0  0  0  0  0  0  0  0  0
  183.7070  179.0670  143.4250 C   0  0  0  0  0  2  0  0  0  0  0  0
  187.0720  178.8380  142.4440 C   0  0  0  0  0  1  0  0  0  0  0  0
  190.3770  176.2670  147.5840 C   0  0  0  0  0  3  0  0  0  0  0  0
  189.6440  176.2360  146.3930 C   0  0  0  0  0  0  0  0  0  0  0  0
  186.4990  177.4220  142.4100 C   0  0  2  0  0  3  0  0  0  0  0  0
  189.6160  174.1140  140.5930 N   0  0  0  0  0  2  0  0  0  0  0  0
  190.1760  171.7580  140.5190 C   0  0  0  0  0  1  0  0  0  0  0  0
  189.3230  172.8180  141.1820 C   0  0  0  0  0  2  0  0  0  0  0  0
  1 19  1  0  0  0  0
  2 13  1  0  0  0  0
  4  1  2  0  0  0  0
  4 20  1  0  0  0  0
  5  1  1  0  0  0  0
  6  8  2  0  0  0  0
  7 15  1  6  0  0  0
  7  9  1  0  0  0  0
  8 11  1  0  0  0  0
  8 12  1  0  0  0  0
  9 14  1  6  0  0  0
  9 22  1  0  0  0  0
 10  3  2  0  0  0  0
 10 21  1  0  0  0  0
 11 28  1  6  0  0  0
 11  5  1  0  0  0  0
 12  4  1  0  0  0  0
 13 18  2  0  0  0  0
 15 23  1  0  0  0  0
 16  2  1  0  0  0  0
 17 26  1  0  0  0  0
 17  3  1  0  0  0  0
 19  2  2  0  0  0  0
 19 26  1  0  0  0  0
 20 22  1  0  0  0  0
 20 17  2  0  0  0  0
 22 10  1  0  0  0  0
 23 14  1  0  0  0  0
 25 18  1  0  0  0  0
 26 25  2  0  0  0  0
 27 24  1  1  0  0  0
 27 12  1  0  0  0  0
 27  7  1  0  0  0  0
 28 30  1  0  0  0  0
 29 30  1  0  0  0  0
M  END
>  <MODEL>
2

>  <REMARK>
 VINA RESULT:      -8.3      1.918      5.676
  Name = 
  2 active torsions:
  status: ('A' for Active; 'I' for Inactive)
    1  A    between atoms: C_11  and  N_28
    2  A    between atoms: N_28  and  C_30
                            x       y       z     vdW  Elec       q    Type
                         _______ _______ _______ _____ _____    ______ ____

>  <TORSDO>
F 2

$$$$
=
 OpenBabel11112416263D

 30 35  0  0  1  0  0  0  0  0999 V2000
  188.1950  176.3740  143.3750 C   0  0  0  0  0  0  0  0  0  0  0  0
  185.8770  177.3040  143.6420 C   0  0  0  0  0  0  0  0  0  0  0  0
  189.1300  177.3210  147.2640 N   0  0  0  0  0  0  0  0  0  0  0  0
  189.4520  176.0330  143.9540 C   0  0  0  0  0  0  0  0  0  0  0  0
  188.0250  176.1600  141.8960 C   0  0  0  0  0  2  0  0  0  0  0  0
  190.7990  174.0040  141.2310 O   0  0  0  0  0  0  0  0  0  0  0  0
  192.5180  175.7150  144.2670 C   0  0  1  0  0  3  0  0  0  0  0  0
  189.9750  174.6610  141.9270 C   0  0  0  0  0  0  0  0  0  0  0  0
  192.2320  176.2730  145.6500 C   0  0  2  0  0  3  0  0  0  0  0  0
  190.4250  176.9450  147.2320 C   0  0  0  0  0  0  0  0  0  0  0  0
  188.5590  174.8080  141.4620 C   0  0  2  0  0  3  0  0  0  0  0  0
  190.3630  175.1830  143.2110 N   0  0  0  0  0  0  0  0  0  0  0  0
  184.9170  177.8970  144.4660 C   0  0  0  0  0  3  0  0  0  0  0  0
  193.0320  175.4090  146.6060 C   0  0  0  0  0  2  0  0  0  0  0  0
  193.9260  175.1530  144.3520 C   0  0  0  0  0  2  0  0  0  0  0  0
  185.5200  177.0350  142.3270 O   0  0  0  0  0  1  0  0  0  0  0  0
  188.6890  177.0080  146.0350 C   0  0  0  0  0  0  0  0  0  0  0  0
  185.1980  178.1850  145.7990 C   0  0  0  0  0  3  0  0  0  0  0  0
  187.1640  176.9860  144.1560 C   0  0  0  0  0  0  0  0  0  0  0  0
  189.6890  176.4430  145.2870 C   0  0  0  0  0  0  0  0  0  0  0  0
  191.3440  177.2290  148.3730 C   0  0  0  0  0  1  0  0  0  0  0  0
  190.8170  176.4030  146.0440 N   0  0  0  0  0  0  0  0  0  0  0  0
  194.2680  175.0060  145.8280 C   0  0  0  0  0  2  0  0  0  0  0  0
  191.2350  173.5390  144.8350 C   0  0  0  0  0  1  0  0  0  0  0  0
  186.4500  177.8810  146.3250 C   0  0  0  0  0  3  0  0  0  0  0  0
  187.4270  177.2830  145.5220 C   0  0  0  0  0  0  0  0  0  0  0  0
  191.5660  174.6200  143.8070 C   0  0  2  0  0  3  0  0  0  0  0  0
  188.4760  174.6990  140.0120 N   0  0  0  0  0  2  0  0  0  0  0  0
  188.4850  173.0170  138.2680 C   0  0  0  0  0  1  0  0  0  0  0  0
  188.1200  173.3240  139.7050 C   0  0  0  0  0  2  0  0  0  0  0  0
  1  4  2  0  0  0  0
  1 19  1  0  0  0  0
  2 19  2  0  0  0  0
  2 13  1  0  0  0  0
  4 20  1  0  0  0  0
  5  1  1  0  0  0  0
  6  8  2  0  0  0  0
  7 15  1  1  0  0  0
  7  9  1  0  0  0  0
  8 12  1  0  0  0  0
  9 22  1  0  0  0  0
  9 14  1  1  0  0  0
 10  3  2  0  0  0  0
 10 21  1  0  0  0  0
 11 28  1  6  0  0  0
 11  5  1  0  0  0  0
 11  8  1  0  0  0  0
 12 27  1  0  0  0  0
 12  4  1  0  0  0  0
 13 18  2  0  0  0  0
 15 23  1  0  0  0  0
 16  2  1  0  0  0  0
 17  3  1  0  0  0  0
 18 25  1  0  0  0  0
 19 26  1  0  0  0  0
 20 17  2  0  0  0  0
 20 22  1  0  0  0  0
 22 10  1  0  0  0  0
 23 14  1  0  0  0  0
 26 17  1  0  0  0  0
 26 25  2  0  0  0  0
 27  7  1  0  0  0  0
 27 24  1  1  0  0  0
 29 30  1  0  0  0  0
 30 28  1  0  0  0  0
M  END
>  <MODEL>
3

>  <REMARK>
 VINA RESULT:      -8.2      2.035      3.094
  Name = 
  2 active torsions:
  status: ('A' for Active; 'I' for Inactive)
    1  A    between atoms: C_11  and  N_28
    2  A    between atoms: N_28  and  C_30
                            x       y       z     vdW  Elec       q    Type
                         _______ _______ _______ _____ _____    ______ ____

>  <TORSDO>
F 2

$$$$
=
 OpenBabel11112416263D

 30 35  0  0  1  0  0  0  0  0999 V2000
  189.5110  175.0700  143.9840 C   0  0  0  0  0  0  0  0  0  0  0  0
  190.9700  173.3890  142.8210 C   0  0  0  0  0  0  0  0  0  0  0  0
  187.5730  175.9660  140.4710 N   0  0  0  0  0  0  0  0  0  0  0  0
  188.4210  175.9890  143.9350 C   0  0  0  0  0  0  0  0  0  0  0  0
  190.2750  174.9610  145.2740 C   0  0  0  0  0  2  0  0  0  0  0  0
  187.9860  176.5450  147.5190 O   0  0  0  0  0  0  0  0  0  0  0  0
  186.7580  178.5550  144.4300 C   0  0  1  0  0  3  0  0  0  0  0  0
  188.3920  176.0350  146.4370 C   0  0  0  0  0  0  0  0  0  0  0  0
  186.4790  178.4190  142.9430 C   0  0  2  0  0  3  0  0  0  0  0  0
  186.7930  176.9580  140.9460 C   0  0  0  0  0  0  0  0  0  0  0  0
  189.3450  174.8790  146.4700 C   0  0  2  0  0  3  0  0  0  0  0  0
  187.8690  176.4940  145.1770 N   0  0  0  0  0  0  0  0  0  0  0  0
  191.3140  172.7180  141.6440 C   0  0  0  0  0  3  0  0  0  0  0  0
  184.9900  178.6620  142.7880 C   0  0  0  0  0  2  0  0  0  0  0  0
  185.7310  179.5550  144.9330 C   0  0  0  0  0  2  0  0  0  0  0  0
  191.6790  173.0730  143.9730 O   0  0  0  0  0  1  0  0  0  0  0  0
  188.2350  175.5470  141.5610 C   0  0  0  0  0  0  0  0  0  0  0  0
  190.6400  172.9740  140.4530 C   0  0  0  0  0  3  0  0  0  0  0  0
  189.9210  174.3500  142.8180 C   0  0  0  0  0  0  0  0  0  0  0  0
  187.8520  176.2580  142.6680 C   0  0  0  0  0  0  0  0  0  0  0  0
  185.9630  177.7980  140.0330 C   0  0  0  0  0  1  0  0  0  0  0  0
  186.9270  177.1770  142.2850 N   0  0  0  0  0  0  0  0  0  0  0  0
  184.6420  179.6590  143.8740 C   0  0  0  0  0  2  0  0  0  0  0  0
  185.4150  176.3960  144.9190 C   0  0  0  0  0  1  0  0  0  0  0  0
  189.6080  173.9080  140.4260 C   0  0  0  0  0  3  0  0  0  0  0  0
  189.2420  174.5900  141.5910 C   0  0  0  0  0  0  0  0  0  0  0  0
  186.6340  177.2640  145.2260 C   0  0  2  0  0  3  0  0  0  0  0  0
  190.1310  174.8910  147.6960 N   0  0  0  0  0  2  0  0  0  0  0  0
  191.4910  176.8070  148.2850 C   0  0  0  0  0  1  0  0  0  0  0  0
  191.3730  175.5840  147.4000 C   0  0  0  0  0  2  0  0  0  0  0  0
  1  5  1  0  0  0  0
  2 16  1  0  0  0  0
  3 10  2  0  0  0  0
  3 17  1  0  0  0  0
  4  1  1  0  0  0  0
  4 12  1  0  0  0  0
  5 11  1  0  0  0  0
  7 15  1  1  0  0  0
  7 27  1  0  0  0  0
  8 11  1  0  0  0  0
  8  6  2  0  0  0  0
  9 14  1  1  0  0  0
  9  7  1  0  0  0  0
 10 22  1  0  0  0  0
 11 28  1  1  0  0  0
 12 27  1  0  0  0  0
 12  8  1  0  0  0  0
 13  2  2  0  0  0  0
 14 23  1  0  0  0  0
 17 26  2  0  0  0  0
 17 20  1  0  0  0  0
 18 13  1  0  0  0  0
 19  2  1  0  0  0  0
 19  1  2  0  0  0  0
 20  4  2  0  0  0  0
 21 10  1  0  0  0  0
 22 20  1  0  0  0  0
 22  9  1  0  0  0  0
 23 15  1  0  0  0  0
 25 18  2  0  0  0  0
 25 26  1  0  0  0  0
 26 19  1  0  0  0  0
 27 24  1  6  0  0  0
 30 28  1  0  0  0  0
 30 29  1  0  0  0  0
M  END
>  <MODEL>
4

>  <REMARK>
 VINA RESULT:      -8.0      2.236      7.232
  Name = 
  2 active torsions:
  status: ('A' for Active; 'I' for Inactive)
    1  A    between atoms: C_11  and  N_28
    2  A    between atoms: N_28  and  C_30
                            x       y       z     vdW  Elec       q    Type
                         _______ _______ _______ _____ _____    ______ ____

>  <TORSDO>
F 2

$$$$
=
 OpenBabel11112416263D

 30 35  0  0  1  0  0  0  0  0999 V2000
  187.8190  176.7340  143.3660 C   0  0  0  0  0  0  0  0  0  0  0  0
  185.6250  177.8900  143.7650 C   0  0  0  0  0  0  0  0  0  0  0  0
  188.9690  177.3560  147.2630 N   0  0  0  0  0  0  0  0  0  0  0  0
  189.0490  176.2290  143.8800 C   0  0  0  0  0  0  0  0  0  0  0  0
  187.5830  176.6230  141.8850 C   0  0  0  0  0  2  0  0  0  0  0  0
  190.0850  174.2240  141.0080 O   0  0  0  0  0  0  0  0  0  0  0  0
  192.0700  175.5690  144.0650 C   0  0  1  0  0  3  0  0  0  0  0  0
  189.3580  174.9240  141.7670 C   0  0  0  0  0  0  0  0  0  0  0  0
  191.8880  176.0760  145.4850 C   0  0  2  0  0  3  0  0  0  0  0  0
  190.2140  176.8470  147.1640 C   0  0  0  0  0  0  0  0  0  0  0  0
  187.9530  175.2480  141.3610 C   0  0  2  0  0  3  0  0  0  0  0  0
  189.8390  175.3300  143.0610 N   0  0  0  0  0  0  0  0  0  0  0  0
  184.7600  178.5350  144.6530 C   0  0  0  0  0  3  0  0  0  0  0  0
  192.6180  175.0790  146.3650 C   0  0  0  0  0  2  0  0  0  0  0  0
  193.4110  174.8550  144.0690 C   0  0  0  0  0  2  0  0  0  0  0  0
  185.2010  177.7350  142.4510 O   0  0  0  0  0  1  0  0  0  0  0  0
  188.4600  177.1620  146.0360 C   0  0  0  0  0  0  0  0  0  0  0  0
  185.1120  178.7160  145.9890 C   0  0  0  0  0  3  0  0  0  0  0  0
  186.8850  177.4080  144.2150 C   0  0  0  0  0  0  0  0  0  0  0  0
  189.3690  176.5360  145.2240 C   0  0  0  0  0  0  0  0  0  0  0  0
  191.1930  176.9660  148.2850 C   0  0  0  0  0  1  0  0  0  0  0  0
  190.5090  176.3340  145.9370 N   0  0  0  0  0  0  0  0  0  0  0  0
  193.7790  174.5910  145.5230 C   0  0  0  0  0  2  0  0  0  0  0  0
  190.5760  173.5140  144.5640 C   0  0  0  0  0  1  0  0  0  0  0  0
  186.3380  178.2510  146.4520 C   0  0  0  0  0  3  0  0  0  0  0  0
  187.2200  177.5980  145.5840 C   0  0  0  0  0  0  0  0  0  0  0  0
  190.9910  174.6090  143.5830 C   0  0  2  0  0  3  0  0  0  0  0  0
  187.8150  175.2300  139.9120 N   0  0  0  0  0  2  0  0  0  0  0  0
  186.6940  176.3410  138.0740 C   0  0  0  0  0  1  0  0  0  0  0  0
  187.0690  176.4200  139.5380 C   0  0  0  0  0  2  0  0  0  0  0  0
  1  4  2  0  0  0  0
  1 19  1  0  0  0  0
  2 19  2  0  0  0  0
  2 13  1  0  0  0  0
  4 20  1  0  0  0  0
  5  1  1  0  0  0  0
  6  8  2  0  0  0  0
  7 15  1  1  0  0  0
  7  9  1  0  0  0  0
  8 12  1  0  0  0  0
  9 22  1  0  0  0  0
  9 14  1  1  0  0  0
 10  3  2  0  0  0  0
 10 21  1  0  0  0  0
 11 28  1  6  0  0  0
 11  8  1  0  0  0  0
 11  5  1  0  0  0  0
 12 27  1  0  0  0  0
 12  4  1  0  0  0  0
 13 18  2  0  0  0  0
 15 23  1  0  0  0  0
 16  2  1  0  0  0  0
 17  3  1  0  0  0  0
 18 25  1  0  0  0  0
 19 26  1  0  0  0  0
 20 22  1  0  0  0  0
 20 17  2  0  0  0  0
 22 10  1  0  0  0  0
 23 14  1  0  0  0  0
 26 17  1  0  0  0  0
 26 25  2  0  0  0  0
 27  7  1  0  0  0  0
 27 24  1  1  0  0  0
 29 30  1  0  0  0  0
 30 28  1  0  0  0  0
M  END
>  <MODEL>
5

>  <REMARK>
 VINA RESULT:      -8.0      1.833      2.292
  Name = 
  2 active torsions:
  status: ('A' for Active; 'I' for Inactive)
    1  A    between atoms: C_11  and  N_28
    2  A    between atoms: N_28  and  C_30
                            x       y       z     vdW  Elec       q    Type
                         _______ _______ _______ _____ _____    ______ ____

>  <TORSDO>
F 2

$$$$
=
 OpenBabel11112416263D

 30 35  0  0  1  0  0  0  0  0999 V2000
  187.8420  176.4460  144.8430 C   0  0  0  0  0  0  0  0  0  0  0  0
  186.4700  178.3310  145.7770 C   0  0  0  0  0  0  0  0  0  0  0  0
  186.6780  177.3670  141.0100 N   0  0  0  0  0  0  0  0  0  0  0  0
  188.3500  175.7440  143.7100 C   0  0  0  0  0  0  0  0  0  0  0  0
  188.1770  175.9070  146.2070 C   0  0  0  0  0  2  0  0  0  0  0  0
  190.8730  173.7070  145.3890 O   0  0  0  0  0  0  0  0  0  0  0  0
  189.2020  173.3820  141.8980 C   0  0  1  0  0  3  0  0  0  0  0  0
  190.0040  174.6020  145.2010 C   0  0  0  0  0  0  0  0  0  0  0  0
  188.4560  174.1830  140.8450 C   0  0  2  0  0  3  0  0  0  0  0  0
  187.2920  176.3400  140.3860 C   0  0  0  0  0  0  0  0  0  0  0  0
  189.6440  175.5360  146.3160 C   0  0  2  0  0  3  0  0  0  0  0  0
  189.4290  174.7940  143.8960 N   0  0  0  0  0  0  0  0  0  0  0  0
  185.6230  179.4190  145.5470 C   0  0  0  0  0  3  0  0  0  0  0  0
  189.3480  174.1660  139.6180 C   0  0  0  0  0  2  0  0  0  0  0  0
  190.0060  172.3570  141.1160 C   0  0  0  0  0  2  0  0  0  0  0  0
  186.8060  178.0430  147.0940 O   0  0  0  0  0  1  0  0  0  0  0  0
  187.0320  177.2020  142.2940 C   0  0  0  0  0  0  0  0  0  0  0  0
  185.2520  179.7750  144.2530 C   0  0  0  0  0  3  0  0  0  0  0  0
  186.9680  177.5680  144.6850 C   0  0  0  0  0  0  0  0  0  0  0  0
  187.8510  176.1130  142.4380 C   0  0  0  0  0  0  0  0  0  0  0  0
  187.0650  176.0650  138.9370 C   0  0  0  0  0  1  0  0  0  0  0  0
  188.0210  175.5420  141.2160 N   0  0  0  0  0  0  0  0  0  0  0  0
  190.0560  172.8270  139.6690 C   0  0  0  0  0  2  0  0  0  0  0  0
  191.0250  175.2130  142.0580 C   0  0  0  0  0  1  0  0  0  0  0  0
  185.7280  179.0440  143.1690 C   0  0  0  0  0  3  0  0  0  0  0  0
  186.5810  177.9540  143.3720 C   0  0  0  0  0  0  0  0  0  0  0  0
  190.1410  174.1950  142.7770 C   0  0  2  0  0  3  0  0  0  0  0  0
  189.8890  174.9160  147.6110 N   0  0  0  0  0  2  0  0  0  0  0  0
  191.2390  176.8860  148.0140 C   0  0  0  0  0  1  0  0  0  0  0  0
  191.1910  175.3740  148.0650 C   0  0  0  0  0  2  0  0  0  0  0  0
  1  5  1  0  0  0  0
  2 16  1  0  0  0  0
  3 17  1  0  0  0  0
  4 12  1  0  0  0  0
  4  1  2  0  0  0  0
  5 11  1  0  0  0  0
  7 15  1  6  0  0  0
  7 27  1  0  0  0  0
  8  6  2  0  0  0  0
  8 11  1  0  0  0  0
  9 14  1  6  0  0  0
  9 22  1  0  0  0  0
  9  7  1  0  0  0  0
 10  3  2  0  0  0  0
 10 22  1  0  0  0  0
 11 28  1  1  0  0  0
 12  8  1  0  0  0  0
 13  2  1  0  0  0  0
 14 23  1  0  0  0  0
 17 20  2  0  0  0  0
 17 26  1  0  0  0  0
 18 13  2  0  0  0  0
 19  1  1  0  0  0  0
 19  2  2  0  0  0  0
 20  4  1  0  0  0  0
 21 10  1  0  0  0  0
 22 20  1  0  0  0  0
 23 15  1  0  0  0  0
 25 26  2  0  0  0  0
 25 18  1  0  0  0  0
 26 19  1  0  0  0  0
 27 24  1  6  0  0  0
 27 12  1  0  0  0  0
 28 30  1  0  0  0  0
 29 30  1  0  0  0  0
M  END
>  <MODEL>
6

>  <REMARK>
 VINA RESULT:      -7.9      2.125      5.287
  Name = 
  2 active torsions:
  status: ('A' for Active; 'I' for Inactive)
    1  A    between atoms: C_11  and  N_28
    2  A    between atoms: N_28  and  C_30
                            x       y       z     vdW  Elec       q    Type
                         _______ _______ _______ _____ _____    ______ ____

>  <TORSDO>
F 2

$$$$
=
 OpenBabel11112416263D

 30 35  0  0  1  0  0  0  0  0999 V2000
  186.5940  176.7730  143.9610 C   0  0  0  0  0  0  0  0  0  0  0  0
  184.7870  178.1810  142.9310 C   0  0  0  0  0  0  0  0  0  0  0  0
  187.8910  175.5520  140.2560 N   0  0  0  0  0  0  0  0  0  0  0  0
  187.7360  175.9340  143.7990 C   0  0  0  0  0  0  0  0  0  0  0  0
  186.0870  177.0010  145.3580 C   0  0  0  0  0  2  0  0  0  0  0  0
  188.9050  175.8920  147.2590 O   0  0  0  0  0  0  0  0  0  0  0  0
  189.6960  173.5760  144.2410 C   0  0  1  0  0  3  0  0  0  0  0  0
  188.2520  176.2240  146.2300 C   0  0  0  0  0  0  0  0  0  0  0  0
  189.6670  173.5320  142.7230 C   0  0  2  0  0  3  0  0  0  0  0  0
  188.8380  174.6880  140.6750 C   0  0  0  0  0  0  0  0  0  0  0  0
  187.2200  177.3060  146.3210 C   0  0  2  0  0  3  0  0  0  0  0  0
  188.5620  175.6370  144.9530 N   0  0  0  0  0  0  0  0  0  0  0  0
  184.1600  178.6630  141.7780 C   0  0  0  0  0  3  0  0  0  0  0  0
  191.1140  173.3720  142.2980 C   0  0  0  0  0  2  0  0  0  0  0  0
  190.8900  172.7250  144.6380 C   0  0  0  0  0  2  0  0  0  0  0  0
  184.2880  178.5990  144.1580 O   0  0  0  0  0  1  0  0  0  0  0  0
  187.4160  176.0660  141.4020 C   0  0  0  0  0  0  0  0  0  0  0  0
  184.6120  178.2970  140.5130 C   0  0  0  0  0  3  0  0  0  0  0  0
  185.9010  177.3030  142.8270 C   0  0  0  0  0  0  0  0  0  0  0  0
  188.0710  175.5370  142.4830 C   0  0  0  0  0  0  0  0  0  0  0  0
  189.5500  173.7920  139.7170 C   0  0  0  0  0  1  0  0  0  0  0  0
  188.9870  174.6400  142.0290 N   0  0  0  0  0  0  0  0  0  0  0  0
  191.7580  172.5550  143.3990 C   0  0  0  0  0  2  0  0  0  0  0  0
  190.8990  175.8680  144.1910 C   0  0  0  0  0  1  0  0  0  0  0  0
  185.7020  177.4410  140.3860 C   0  0  0  0  0  3  0  0  0  0  0  0
  186.3490  176.9470  141.5240 C   0  0  0  0  0  0  0  0  0  0  0  0
  189.8490  174.9680  144.8390 C   0  0  2  0  0  3  0  0  0  0  0  0
  186.6900  177.4040  147.6740 N   0  0  0  0  0  2  0  0  0  0  0  0
  186.3170  179.7750  147.9980 C   0  0  0  0  0  1  0  0  0  0  0  0
  185.6770  178.4450  147.6620 C   0  0  0  0  0  2  0  0  0  0  0  0
  1  5  1  0  0  0  0
  2 16  1  0  0  0  0
  3 10  2  0  0  0  0
  3 17  1  0  0  0  0
  4  1  1  0  0  0  0
  4 12  1  0  0  0  0
  5 11  1  0  0  0  0
  7 15  1  6  0  0  0
  7 27  1  0  0  0  0
  8 11  1  0  0  0  0
  8  6  2  0  0  0  0
  9 14  1  6  0  0  0
  9  7  1  0  0  0  0
 10 22  1  0  0  0  0
 11 28  1  1  0  0  0
 12  8  1  0  0  0  0
 13  2  2  0  0  0  0
 14 23  1  0  0  0  0
 17 26  2  0  0  0  0
 17 20  1  0  0  0  0
 18 13  1  0  0  0  0
 19  2  1  0  0  0  0
 19  1  2  0  0  0  0
 20  4  2  0  0  0  0
 21 10  1  0  0  0  0
 22 20  1  0  0  0  0
 22  9  1  0  0  0  0
 23 15  1  0  0  0  0
 25 18  2  0  0  0  0
 25 26  1  0  0  0  0
 26 19  1  0  0  0  0
 27 24  1  6  0  0  0
 27 12  1  0  0  0  0
 30 28  1  0  0  0  0
 30 29  1  0  0  0  0
M  END
>  <MODEL>
7

>  <REMARK>
 VINA RESULT:      -7.7      1.815      4.836
  Name = 
  2 active torsions:
  status: ('A' for Active; 'I' for Inactive)
    1  A    between atoms: C_11  and  N_28
    2  A    between atoms: N_28  and  C_30
                            x       y       z     vdW  Elec       q    Type
                         _______ _______ _______ _____ _____    ______ ____

>  <TORSDO>
F 2

$$$$
=
 OpenBabel11112416263D

 30 35  0  0  1  0  0  0  0  0999 V2000
  188.7690  176.2130  145.4200 C   0  0  0  0  0  0  0  0  0  0  0  0
  186.7100  177.5190  146.0190 C   0  0  0  0  0  0  0  0  0  0  0  0
  187.4320  175.6820  141.5690 N   0  0  0  0  0  0  0  0  0  0  0  0
  189.5550  175.5480  144.4320 C   0  0  0  0  0  0  0  0  0  0  0  0
  189.2610  176.1820  146.8400 C   0  0  0  0  0  2  0  0  0  0  0  0
  192.6520  175.1700  146.3300 O   0  0  0  0  0  0  0  0  0  0  0  0
  191.3650  173.4070  143.1160 C   0  0  1  0  0  3  0  0  0  0  0  0
  191.4930  175.5590  146.0150 C   0  0  0  0  0  0  0  0  0  0  0  0
  190.3820  173.5700  141.9700 C   0  0  2  0  0  3  0  0  0  0  0  0
  188.4350  174.8890  141.1400 C   0  0  0  0  0  0  0  0  0  0  0  0
  190.7460  176.4850  146.9250 C   0  0  2  0  0  3  0  0  0  0  0  0
  190.9270  175.1970  144.7420 N   0  0  0  0  0  0  0  0  0  0  0  0
  185.4920  178.0770  145.6200 C   0  0  0  0  0  3  0  0  0  0  0  0
  191.2320  173.6470  140.7170 C   0  0  0  0  0  2  0  0  0  0  0  0
  192.5460  172.6600  142.5190 C   0  0  0  0  0  2  0  0  0  0  0  0
  187.1000  177.7000  147.3400 O   0  0  0  0  0  1  0  0  0  0  0  0
  187.7870  175.9710  142.8310 C   0  0  0  0  0  0  0  0  0  0  0  0
  185.0420  177.9480  144.3090 C   0  0  0  0  0  3  0  0  0  0  0  0
  187.5110  176.8060  145.0860 C   0  0  0  0  0  0  0  0  0  0  0  0
  188.9830  175.3810  143.1490 C   0  0  0  0  0  0  0  0  0  0  0  0
  188.3840  174.2270  139.8030 C   0  0  0  0  0  1  0  0  0  0  0  0
  189.4090  174.6730  142.0690 N   0  0  0  0  0  0  0  0  0  0  0  0
  192.4330  172.7690  141.0040 C   0  0  0  0  0  2  0  0  0  0  0  0
  192.2500  175.8130  142.7500 C   0  0  0  0  0  1  0  0  0  0  0  0
  185.8090  177.2560  143.3770 C   0  0  0  0  0  3  0  0  0  0  0  0
  187.0340  176.6910  143.7500 C   0  0  0  0  0  0  0  0  0  0  0  0
  191.8550  174.7100  143.7310 C   0  0  2  0  0  3  0  0  0  0  0  0
  191.1930  176.3300  148.3020 N   0  0  0  0  0  2  0  0  0  0  0  0
  191.5620  177.9200  150.0920 C   0  0  0  0  0  1  0  0  0  0  0  0
  191.8980  177.5480  148.6630 C   0  0  0  0  0  2  0  0  0  0  0  0
  1  5  1  0  0  0  0
  2 16  1  0  0  0  0
  3 17  1  0  0  0  0
  4 12  1  0  0  0  0
  4  1  2  0  0  0  0
  5 11  1  0  0  0  0
  7 15  1  6  0  0  0
  7 27  1  0  0  0  0
  8  6  2  0  0  0  0
  8 11  1  0  0  0  0
  9 14  1  6  0  0  0
  9 22  1  0  0  0  0
  9  7  1  0  0  0  0
 10  3  2  0  0  0  0
 10 22  1  0  0  0  0
 11 28  1  1  0  0  0
 12  8  1  0  0  0  0
 13  2  1  0  0  0  0
 14 23  1  0  0  0  0
 17 20  2  0  0  0  0
 17 26  1  0  0  0  0
 18 13  2  0  0  0  0
 19  1  1  0  0  0  0
 19  2  2  0  0  0  0
 20  4  1  0  0  0  0
 21 10  1  0  0  0  0
 22 20  1  0  0  0  0
 23 15  1  0  0  0  0
 25 26  2  0  0  0  0
 25 18  1  0  0  0  0
 26 19  1  0  0  0  0
 27 24  1  6  0  0  0
 27 12  1  0  0  0  0
 28 30  1  0  0  0  0
 30 29  1  0  0  0  0
M  END
>  <MODEL>
8

>  <REMARK>
 VINA RESULT:      -7.5      2.372      5.480
  Name = 
  2 active torsions:
  status: ('A' for Active; 'I' for Inactive)
    1  A    between atoms: C_11  and  N_28
    2  A    between atoms: N_28  and  C_30
                            x       y       z     vdW  Elec       q    Type
                         _______ _______ _______ _____ _____    ______ ____

>  <TORSDO>
F 2

$$$$
=
 OpenBabel11112416263D

 30 35  0  0  1  0  0  0  0  0999 V2000
  189.2700  176.3090  144.7550 C   0  0  0  0  0  0  0  0  0  0  0  0
  190.3500  176.9160  146.9400 C   0  0  0  0  0  0  0  0  0  0  0  0
  192.1350  173.4540  144.0200 N   0  0  0  0  0  0  0  0  0  0  0  0
  189.2190  175.4660  143.6060 C   0  0  0  0  0  0  0  0  0  0  0  0
  188.2900  177.4470  144.8300 C   0  0  0  0  0  2  0  0  0  0  0  0
  185.9410  176.4460  142.3280 O   0  0  0  0  0  0  0  0  0  0  0  0
  188.9180  174.6000  140.6470 C   0  0  1  0  0  3  0  0  0  0  0  0
  186.9260  176.3380  143.1100 C   0  0  0  0  0  0  0  0  0  0  0  0
  190.1630  173.7910  140.9670 C   0  0  2  0  0  3  0  0  0  0  0  0
  191.7160  173.0940  142.7900 C   0  0  0  0  0  0  0  0  0  0  0  0
  186.8890  177.0040  144.4510 C   0  0  2  0  0  3  0  0  0  0  0  0
  188.0410  175.4970  142.7610 N   0  0  0  0  0  0  0  0  0  0  0  0
  191.3620  176.6870  147.8760 C   0  0  0  0  0  3  0  0  0  0  0  0
  189.9150  172.4180  140.3720 C   0  0  0  0  0  2  0  0  0  0  0  0
  188.4000  174.0260  139.3390 C   0  0  0  0  0  2  0  0  0  0  0  0
  189.4270  177.9150  147.2220 O   0  0  0  0  0  1  0  0  0  0  0  0
  191.2280  174.3690  144.3980 C   0  0  0  0  0  0  0  0  0  0  0  0
  192.3160  175.6940  147.6670 C   0  0  0  0  0  3  0  0  0  0  0  0
  190.2800  176.1350  145.7540 C   0  0  0  0  0  0  0  0  0  0  0  0
  190.2780  174.5440  143.4260 C   0  0  0  0  0  0  0  0  0  0  0  0
  192.5170  172.1680  141.9370 C   0  0  0  0  0  1  0  0  0  0  0  0
  190.5850  173.7340  142.3790 N   0  0  0  0  0  0  0  0  0  0  0  0
  189.0680  172.6720  139.1420 C   0  0  0  0  0  2  0  0  0  0  0  0
  187.5070  173.1400  142.2540 C   0  0  0  0  0  1  0  0  0  0  0  0
  192.2670  174.9150  146.5150 C   0  0  0  0  0  3  0  0  0  0  0  0
  191.2610  175.1220  145.5650 C   0  0  0  0  0  0  0  0  0  0  0  0
  187.8180  174.5280  141.6980 C   0  0  2  0  0  3  0  0  0  0  0  0
  186.0070  178.1630  144.4290 N   0  0  0  0  0  2  0  0  0  0  0  0
  184.8970  177.4370  146.4560 C   0  0  0  0  0  1  0  0  0  0  0  0
  185.7350  178.5200  145.8110 C   0  0  0  0  0  2  0  0  0  0  0  0
  1  5  1  0  0  0  0
  1 19  1  0  0  0  0
  2 16  1  0  0  0  0
  2 13  1  0  0  0  0
  3 17  1  0  0  0  0
  4  1  2  0  0  0  0
  6  8  2  0  0  0  0
  7 15  1  6  0  0  0
  7  9  1  0  0  0  0
  7 27  1  0  0  0  0
  8 11  1  0  0  0  0
  9 14  1  1  0  0  0
  9 22  1  0  0  0  0
 10  3  2  0  0  0  0
 11 28  1  6  0  0  0
 11  5  1  0  0  0  0
 12  8  1  0  0  0  0
 12  4  1  0  0  0  0
 17 26  1  0  0  0  0
 18 13  2  0  0  0  0
 19  2  2  0  0  0  0
 20  4  1  0  0  0  0
 20 17  2  0  0  0  0
 21 10  1  0  0  0  0
 22 10  1  0  0  0  0
 22 20  1  0  0  0  0
 23 15  1  0  0  0  0
 23 14  1  0  0  0  0
 25 18  1  0  0  0  0
 26 19  1  0  0  0  0
 26 25  2  0  0  0  0
 27 24  1  1  0  0  0
 27 12  1  0  0  0  0
 28 30  1  0  0  0  0
 30 29  1  0  0  0  0
M  END
>  <MODEL>
9

>  <REMARK>
 VINA RESULT:      -7.4      2.341      4.689
  Name = 
  2 active torsions:
  status: ('A' for Active; 'I' for Inactive)
    1  A    between atoms: C_11  and  N_28
    2  A    between atoms: N_28  and  C_30
                            x       y       z     vdW  Elec       q    Type
                         _______ _______ _______ _____ _____    ______ ____

>  <TORSDO>
F 2

$$$$
