=
 OpenBabel11112418013D

 34 41  0  0  1  0  0  0  0  0999 V2000
  189.6290  175.1250  142.7750 C   0  0  2  0  0  3  0  0  0  0  0  0
  191.6670  173.7630  142.5780 N   0  0  0  0  0  2  0  0  0  0  0  0
  184.8870  178.1700  146.1610 C   0  0  1  0  0  3  0  0  0  0  0  0
  187.6700  176.5920  143.0880 C   0  0  1  0  0  3  0  0  0  0  0  0
  186.8900  176.9650  145.5560 C   0  0  2  0  0  3  0  0  0  0  0  0
  185.9610  177.9130  147.8130 C   0  0  0  0  0  2  0  0  0  0  0  0
  184.6080  178.2020  147.5340 O   0  0  0  0  0  0  0  0  0  0  0  0
  184.8900  179.1140  143.8850 C   0  0  0  0  0  2  0  0  0  0  0  0
  191.1780  174.7620  144.6560 C   0  0  0  0  0  0  0  0  0  0  0  0
  193.5610  175.6810  146.5130 C   0  0  0  0  0  2  0  0  0  0  0  0
  188.3360  176.7200  145.8790 C   0  0  0  0  0  3  0  0  0  0  0  0
  186.3430  178.6650  143.6200 C   0  0  0  0  0  2  0  0  0  0  0  0
  190.5190  175.6570  145.4350 C   0  0  0  0  0  0  0  0  0  0  0  0
  192.8410  173.6100  143.4390 C   0  0  0  0  0  2  0  0  0  0  0  0
  186.6130  177.1960  144.0260 C   0  0  1  0  0  3  0  0  0  0  0  0
  184.5800  179.4160  145.3630 C   0  0  0  0  0  2  0  0  0  0  0  0
  193.5300  175.4800  145.0140 C   0  0  2  0  0  3  0  0  0  0  0  0
  188.5300  175.5160  143.7600 C   0  0  2  0  0  3  0  0  0  0  0  0
  186.3600  178.1220  146.3780 C   0  0  2  0  0  3  0  0  0  0  0  0
  189.1180  176.0110  145.0590 C   0  0  0  0  0  0  0  0  0  0  0  0
  188.0550  175.6460  140.9280 C   0  0  0  0  0  2  0  0  0  0  0  0
  192.3800  176.4400  147.0250 C   0  0  0  0  0  3  0  0  0  0  0  0
  187.0250  176.0290  141.8990 N   0  0  0  0  0  2  0  0  0  0  0  0
  191.1210  176.4000  146.5770 C   0  0  0  0  0  3  0  0  0  0  0  0
  192.5830  174.3140  144.7700 C   0  0  1  0  0  3  0  0  0  0  0  0
  188.9820  174.5730  141.5090 C   0  0  0  0  0  2  0  0  0  0  0  0
  190.5630  174.1320  143.4530 C   0  0  1  0  0  3  0  0  0  0  0  0
  194.8240  175.1660  144.5840 O   0  0  0  0  0  0  0  0  0  0  0  0
  195.5370  174.9100  145.7590 C   0  0  0  0  0  2  0  0  0  0  0  0
  196.4700  171.8310  145.2120 O   0  0  0  0  0  0  0  0  0  0  0  0
  196.8470  173.8060  143.9770 C   0  0  0  0  0  2  0  0  0  0  0  0
  196.8190  174.1660  145.4330 C   0  0  2  0  0  3  0  0  0  0  0  0
  196.9390  172.3000  143.9780 C   0  0  0  0  0  2  0  0  0  0  0  0
  196.8170  172.8270  146.1380 C   0  0  0  0  0  2  0  0  0  0  0  0
  1 26  1  6  0  0  0
  1 27  1  0  0  0  0
  1 18  1  0  0  0  0
  2 14  1  0  0  0  0
  3 16  1  6  0  0  0
  3 19  1  0  0  0  0
  3  7  1  0  0  0  0
  4 23  1  6  0  0  0
  4 18  1  0  0  0  0
  4 15  1  0  0  0  0
  5 11  1  6  0  0  0
  5 19  1  0  0  0  0
  7  6  1  0  0  0  0
  8 16  1  0  0  0  0
  9 25  1  0  0  0  0
  9 13  2  0  0  0  0
 10 22  1  0  0  0  0
 12  8  1  0  0  0  0
 13 24  1  0  0  0  0
 15 12  1  1  0  0  0
 15  5  1  0  0  0  0
 17 28  1  1  0  0  0
 17 10  1  0  0  0  0
 18 20  1  1  0  0  0
 19  6  1  1  0  0  0
 20 13  1  0  0  0  0
 20 11  2  0  0  0  0
 21 26  1  0  0  0  0
 21 23  1  0  0  0  0
 24 22  2  0  0  0  0
 25 14  1  6  0  0  0
 25 17  1  0  0  0  0
 27  2  1  6  0  0  0
 27  9  1  0  0  0  0
 28 29  1  0  0  0  0
 30 34  1  0  0  0  0
 31 33  1  0  0  0  0
 31 32  1  0  0  0  0
 32 29  1  6  0  0  0
 32 34  1  0  0  0  0
 33 30  1  0  0  0  0
M  END
>  <MODEL>
1

>  <REMARK>
 VINA RESULT:      -9.3      0.000      0.000
  Name = 
  3 active torsions:
  status: ('A' for Active; 'I' for Inactive)
    1  A    between atoms: C_17  and  O_28
    2  A    between atoms: O_28  and  C_29
    3  A    between atoms: C_29  and  C_32
                            x       y       z     vdW  Elec       q    Type
                         _______ _______ _______ _____ _____    ______ ____

>  <TORSDO>
F 3

$$$$
=
 OpenBabel11112418013D

 34 41  0  0  1  0  0  0  0  0999 V2000
  189.6770  174.9440  142.7840 C   0  0  2  0  0  3  0  0  0  0  0  0
  191.7070  173.5600  142.6750 N   0  0  0  0  0  2  0  0  0  0  0  0
  184.9190  178.1750  145.9700 C   0  0  1  0  0  3  0  0  0  0  0  0
  187.7250  176.4370  143.0060 C   0  0  1  0  0  3  0  0  0  0  0  0
  186.9200  176.9300  145.4450 C   0  0  2  0  0  3  0  0  0  0  0  0
  185.9720  177.9870  147.6440 C   0  0  0  0  0  2  0  0  0  0  0  0
  184.6250  178.2720  147.3370 O   0  0  0  0  0  0  0  0  0  0  0  0
  184.9550  179.0130  143.6530 C   0  0  0  0  0  2  0  0  0  0  0  0
  191.2010  174.6580  144.6980 C   0  0  0  0  0  0  0  0  0  0  0  0
  193.5700  175.6450  146.5380 C   0  0  0  0  0  2  0  0  0  0  0  0
  188.3600  176.6900  145.7950 C   0  0  0  0  0  3  0  0  0  0  0  0
  186.4080  178.5410  143.4250 C   0  0  0  0  0  2  0  0  0  0  0  0
  190.5400  175.5920  145.4270 C   0  0  0  0  0  0  0  0  0  0  0  0
  192.8700  173.4390  143.5550 C   0  0  0  0  0  2  0  0  0  0  0  0
  186.6620  177.0910  143.9030 C   0  0  1  0  0  3  0  0  0  0  0  0
  184.6300  179.3840  145.1110 C   0  0  0  0  0  2  0  0  0  0  0  0
  193.5550  175.3750  145.0500 C   0  0  2  0  0  3  0  0  0  0  0  0
  188.5700  175.3880  143.7360 C   0  0  2  0  0  3  0  0  0  0  0  0
  186.3890  178.1270  146.2060 C   0  0  2  0  0  3  0  0  0  0  0  0
  189.1460  175.9390  145.0180 C   0  0  0  0  0  0  0  0  0  0  0  0
  188.1280  175.3890  140.8970 C   0  0  0  0  0  2  0  0  0  0  0  0
  192.3890  176.4350  147.0010 C   0  0  0  0  0  3  0  0  0  0  0  0
  187.0900  175.8240  141.8370 N   0  0  0  0  0  2  0  0  0  0  0  0
  191.1350  176.3830  146.5400 C   0  0  0  0  0  3  0  0  0  0  0  0
  192.6020  174.2050  144.8490 C   0  0  1  0  0  3  0  0  0  0  0  0
  189.0400  174.3380  141.5370 C   0  0  0  0  0  2  0  0  0  0  0  0
  190.5950  173.9770  143.5180 C   0  0  1  0  0  3  0  0  0  0  0  0
  194.8510  175.0330  144.6500 O   0  0  0  0  0  0  0  0  0  0  0  0
  195.4370  176.2430  144.2700 C   0  0  0  0  0  2  0  0  0  0  0  0
  196.0190  174.5270  141.5550 O   0  0  0  0  0  0  0  0  0  0  0  0
  196.4470  176.7870  142.0800 C   0  0  0  0  0  2  0  0  0  0  0  0
  196.6040  175.9800  143.3350 C   0  0  2  0  0  3  0  0  0  0  0  0
  196.3990  175.7490  140.9850 C   0  0  0  0  0  2  0  0  0  0  0  0
  196.5500  174.5470  142.8540 C   0  0  0  0  0  2  0  0  0  0  0  0
  1 26  1  6  0  0  0
  1 27  1  0  0  0  0
  1 18  1  0  0  0  0
  2 14  1  0  0  0  0
  3 16  1  6  0  0  0
  3 19  1  0  0  0  0
  3  7  1  0  0  0  0
  4 23  1  6  0  0  0
  4 18  1  0  0  0  0
  4 15  1  0  0  0  0
  5 11  1  6  0  0  0
  5 19  1  0  0  0  0
  7  6  1  0  0  0  0
  8 16  1  0  0  0  0
  9 25  1  0  0  0  0
  9 13  2  0  0  0  0
 10 22  1  0  0  0  0
 12  8  1  0  0  0  0
 13 24  1  0  0  0  0
 15 12  1  1  0  0  0
 15  5  1  0  0  0  0
 17 28  1  1  0  0  0
 17 10  1  0  0  0  0
 18 20  1  1  0  0  0
 19  6  1  1  0  0  0
 20 13  1  0  0  0  0
 20 11  2  0  0  0  0
 21 26  1  0  0  0  0
 21 23  1  0  0  0  0
 24 22  2  0  0  0  0
 25 14  1  6  0  0  0
 25 17  1  0  0  0  0
 27  2  1  6  0  0  0
 27  9  1  0  0  0  0
 29 28  1  0  0  0  0
 30 34  1  0  0  0  0
 31 32  1  0  0  0  0
 32 29  1  1  0  0  0
 33 30  1  0  0  0  0
 33 31  1  0  0  0  0
 34 32  1  0  0  0  0
M  END
>  <MODEL>
2

>  <REMARK>
 VINA RESULT:      -9.1      1.195      1.544
  Name = 
  3 active torsions:
  status: ('A' for Active; 'I' for Inactive)
    1  A    between atoms: C_17  and  O_28
    2  A    between atoms: O_28  and  C_29
    3  A    between atoms: C_29  and  C_32
                            x       y       z     vdW  Elec       q    Type
                         _______ _______ _______ _____ _____    ______ ____

>  <TORSDO>
F 3

$$$$
=
 OpenBabel11112418013D

 34 41  0  0  1  0  0  0  0  0999 V2000
  190.7270  175.7510  145.1400 C   0  0  2  0  0  3  0  0  0  0  0  0
  192.5890  174.5960  144.0240 N   0  0  0  0  0  2  0  0  0  0  0  0
  184.9020  178.8000  145.2390 C   0  0  1  0  0  3  0  0  0  0  0  0
  188.7490  176.8000  146.1780 C   0  0  1  0  0  3  0  0  0  0  0  0
  186.8530  177.5590  144.5440 C   0  0  2  0  0  3  0  0  0  0  0  0
  184.5810  178.1540  143.3870 C   0  0  0  0  0  2  0  0  0  0  0  0
  184.0370  179.1700  144.2010 O   0  0  0  0  0  0  0  0  0  0  0  0
  185.4150  178.1160  147.5500 C   0  0  0  0  0  2  0  0  0  0  0  0
  190.5290  174.7640  142.8920 C   0  0  0  0  0  0  0  0  0  0  0  0
  189.6570  172.4350  140.9450 C   0  0  0  0  0  2  0  0  0  0  0  0
  187.3730  176.4440  143.6820 C   0  0  0  0  0  3  0  0  0  0  0  0
  186.4120  177.0310  147.0870 C   0  0  0  0  0  2  0  0  0  0  0  0
  189.1910  174.9950  142.8540 C   0  0  0  0  0  0  0  0  0  0  0  0
  192.6510  173.7310  142.8450 C   0  0  0  0  0  2  0  0  0  0  0  0
  187.4080  177.5340  146.0140 C   0  0  1  0  0  3  0  0  0  0  0  0
  184.2750  178.3960  146.5530 C   0  0  0  0  0  2  0  0  0  0  0  0
  190.6120  172.4030  142.1180 C   0  0  2  0  0  3  0  0  0  0  0  0
  189.5090  176.6280  144.8590 C   0  0  2  0  0  3  0  0  0  0  0  0
  185.3380  177.5580  144.5420 C   0  0  2  0  0  3  0  0  0  0  0  0
  188.6330  176.0130  143.7940 C   0  0  0  0  0  0  0  0  0  0  0  0
  190.7770  176.6900  147.4370 C   0  0  0  0  0  2  0  0  0  0  0  0
  188.3850  173.1600  141.2460 C   0  0  0  0  0  3  0  0  0  0  0  0
  189.5970  177.5090  147.1400 N   0  0  0  0  0  2  0  0  0  0  0  0
  188.2170  174.2340  142.0250 C   0  0  0  0  0  3  0  0  0  0  0  0
  191.3020  173.7590  142.1290 C   0  0  1  0  0  3  0  0  0  0  0  0
  191.6070  176.4490  146.1720 C   0  0  0  0  0  2  0  0  0  0  0  0
  191.4450  175.4760  143.8260 C   0  0  1  0  0  3  0  0  0  0  0  0
  191.5380  171.3770  141.9050 O   0  0  0  0  0  0  0  0  0  0  0  0
  190.7630  170.2250  141.7500 C   0  0  0  0  0  2  0  0  0  0  0  0
  191.1300  169.8690  138.5260 O   0  0  0  0  0  0  0  0  0  0  0  0
  192.7150  169.8790  140.2730 C   0  0  0  0  0  2  0  0  0  0  0  0
  191.4510  169.2640  140.7960 C   0  0  2  0  0  3  0  0  0  0  0  0
  192.5070  169.9220  138.7790 C   0  0  0  0  0  2  0  0  0  0  0  0
  190.5970  169.0840  139.5600 C   0  0  0  0  0  2  0  0  0  0  0  0
  1 26  1  1  0  0  0
  3 16  1  1  0  0  0
  4 23  1  1  0  0  0
  5 11  1  6  0  0  0
  5 15  1  0  0  0  0
  6  7  1  0  0  0  0
  7  3  1  0  0  0  0
 10 22  1  0  0  0  0
 10 17  1  0  0  0  0
 11 20  2  0  0  0  0
 12  8  1  0  0  0  0
 13  9  2  0  0  0  0
 13 20  1  0  0  0  0
 14  2  1  0  0  0  0
 15  4  1  0  0  0  0
 15 12  1  1  0  0  0
 16  8  1  0  0  0  0
 17 28  1  6  0  0  0
 17 25  1  0  0  0  0
 18 20  1  6  0  0  0
 18  1  1  0  0  0  0
 18  4  1  0  0  0  0
 19  6  1  6  0  0  0
 19  5  1  0  0  0  0
 19  3  1  0  0  0  0
 22 24  2  0  0  0  0
 23 21  1  0  0  0  0
 24 13  1  0  0  0  0
 25 14  1  1  0  0  0
 25  9  1  0  0  0  0
 26 21  1  0  0  0  0
 27  9  1  6  0  0  0
 27  2  1  0  0  0  0
 27  1  1  0  0  0  0
 29 28  1  0  0  0  0
 30 33  1  0  0  0  0
 30 34  1  0  0  0  0
 31 32  1  0  0  0  0
 32 29  1  1  0  0  0
 33 31  1  0  0  0  0
 34 32  1  0  0  0  0
M  END
>  <MODEL>
3

>  <REMARK>
 VINA RESULT:      -8.7      3.128      5.060
  Name = 
  3 active torsions:
  status: ('A' for Active; 'I' for Inactive)
    1  A    between atoms: C_17  and  O_28
    2  A    between atoms: O_28  and  C_29
    3  A    between atoms: C_29  and  C_32
                            x       y       z     vdW  Elec       q    Type
                         _______ _______ _______ _____ _____    ______ ____

>  <TORSDO>
F 3

$$$$
=
 OpenBabel11112418013D

 34 41  0  0  1  0  0  0  0  0999 V2000
  190.9360  175.9090  145.0200 C   0  0  2  0  0  3  0  0  0  0  0  0
  192.7990  174.8760  143.7910 N   0  0  0  0  0  2  0  0  0  0  0  0
  185.2470  179.1810  145.4260 C   0  0  1  0  0  3  0  0  0  0  0  0
  188.9560  176.8570  146.1480 C   0  0  1  0  0  3  0  0  0  0  0  0
  187.1760  177.9850  144.6000 C   0  0  2  0  0  3  0  0  0  0  0  0
  184.9890  178.8870  143.4780 C   0  0  0  0  0  2  0  0  0  0  0  0
  184.4490  179.7700  144.4360 O   0  0  0  0  0  0  0  0  0  0  0  0
  185.6190  178.0760  147.5960 C   0  0  0  0  0  2  0  0  0  0  0  0
  190.8050  175.3430  142.6260 C   0  0  0  0  0  0  0  0  0  0  0  0
  189.9310  173.4400  140.2620 C   0  0  0  0  0  2  0  0  0  0  0  0
  187.6890  177.0140  143.5750 C   0  0  0  0  0  3  0  0  0  0  0  0
  186.5900  177.0410  146.9890 C   0  0  0  0  0  2  0  0  0  0  0  0
  189.4820  175.6440  142.5760 C   0  0  0  0  0  0  0  0  0  0  0  0
  192.8820  174.2300  142.4800 C   0  0  0  0  0  2  0  0  0  0  0  0
  187.6580  177.6740  146.0630 C   0  0  1  0  0  3  0  0  0  0  0  0
  184.5420  178.5830  146.6210 C   0  0  0  0  0  2  0  0  0  0  0  0
  190.8260  173.1540  141.4480 C   0  0  2  0  0  3  0  0  0  0  0  0
  189.7710  176.8810  144.8500 C   0  0  2  0  0  3  0  0  0  0  0  0
  185.6640  178.0600  144.5370 C   0  0  2  0  0  3  0  0  0  0  0  0
  188.9220  176.5080  143.6590 C   0  0  0  0  0  0  0  0  0  0  0  0
  190.9150  176.4250  147.4470 C   0  0  0  0  0  2  0  0  0  0  0  0
  188.6780  174.1630  140.6360 C   0  0  0  0  0  3  0  0  0  0  0  0
  189.7860  177.3410  147.2530 N   0  0  0  0  0  2  0  0  0  0  0  0
  188.5180  175.0900  141.5860 C   0  0  0  0  0  3  0  0  0  0  0  0
  191.5720  174.4510  141.7270 C   0  0  1  0  0  3  0  0  0  0  0  0
  191.7940  176.3690  146.1930 C   0  0  0  0  0  2  0  0  0  0  0  0
  191.7050  175.8340  143.7080 C   0  0  1  0  0  3  0  0  0  0  0  0
  191.7170  172.1360  141.0930 O   0  0  0  0  0  0  0  0  0  0  0  0
  190.9040  171.0390  140.7950 C   0  0  0  0  0  2  0  0  0  0  0  0
  192.3300  168.3050  141.8640 O   0  0  0  0  0  0  0  0  0  0  0  0
  191.9660  170.3790  142.9280 C   0  0  0  0  0  2  0  0  0  0  0  0
  190.8140  170.1220  142.0020 C   0  0  2  0  0  3  0  0  0  0  0  0
  192.6770  169.0500  142.9990 C   0  0  0  0  0  2  0  0  0  0  0  0
  191.0150  168.6890  141.5610 C   0  0  0  0  0  2  0  0  0  0  0  0
  1 26  1  1  0  0  0
  3 16  1  1  0  0  0
  4 23  1  1  0  0  0
  5 11  1  6  0  0  0
  5 15  1  0  0  0  0
  6  7  1  0  0  0  0
  7  3  1  0  0  0  0
 10 22  1  0  0  0  0
 10 17  1  0  0  0  0
 11 20  2  0  0  0  0
 12  8  1  0  0  0  0
 13  9  2  0  0  0  0
 13 20  1  0  0  0  0
 14  2  1  0  0  0  0
 15  4  1  0  0  0  0
 15 12  1  6  0  0  0
 16  8  1  0  0  0  0
 17 28  1  6  0  0  0
 17 25  1  0  0  0  0
 18 20  1  6  0  0  0
 18  1  1  0  0  0  0
 18  4  1  0  0  0  0
 19  6  1  6  0  0  0
 19  5  1  0  0  0  0
 19  3  1  0  0  0  0
 22 24  2  0  0  0  0
 23 21  1  0  0  0  0
 24 13  1  0  0  0  0
 25 14  1  1  0  0  0
 25  9  1  0  0  0  0
 26 21  1  0  0  0  0
 27  9  1  6  0  0  0
 27  2  1  0  0  0  0
 27  1  1  0  0  0  0
 29 28  1  0  0  0  0
 30 33  1  0  0  0  0
 31 33  1  0  0  0  0
 32 29  1  6  0  0  0
 32 31  1  0  0  0  0
 34 30  1  0  0  0  0
 34 32  1  0  0  0  0
M  END
>  <MODEL>
4

>  <REMARK>
 VINA RESULT:      -8.6      2.814      4.777
  Name = 
  3 active torsions:
  status: ('A' for Active; 'I' for Inactive)
    1  A    between atoms: C_17  and  O_28
    2  A    between atoms: O_28  and  C_29
    3  A    between atoms: C_29  and  C_32
                            x       y       z     vdW  Elec       q    Type
                         _______ _______ _______ _____ _____    ______ ____

>  <TORSDO>
F 3

$$$$
=
 OpenBabel11112418013D

 34 41  0  0  1  0  0  0  0  0999 V2000
  190.1330  173.8520  142.5210 C   0  0  2  0  0  3  0  0  0  0  0  0
  192.0500  172.5370  143.3230 N   0  0  0  0  0  2  0  0  0  0  0  0
  184.9320  177.7870  143.3560 C   0  0  1  0  0  3  0  0  0  0  0  0
  188.2700  175.3070  141.8120 C   0  0  1  0  0  3  0  0  0  0  0  0
  186.9290  176.4810  143.7260 C   0  0  2  0  0  3  0  0  0  0  0  0
  185.5370  178.1210  145.2190 C   0  0  0  0  0  2  0  0  0  0  0  0
  184.3220  178.2770  144.5190 O   0  0  0  0  0  0  0  0  0  0  0  0
  185.5720  177.9050  140.9800 C   0  0  0  0  0  2  0  0  0  0  0  0
  191.1320  174.1720  144.7500 C   0  0  0  0  0  0  0  0  0  0  0  0
  193.0370  175.7030  146.7500 C   0  0  0  0  0  2  0  0  0  0  0  0
  188.2270  176.3830  144.4750 C   0  0  0  0  0  3  0  0  0  0  0  0
  187.0080  177.4160  141.2640 C   0  0  0  0  0  2  0  0  0  0  0  0
  190.3670  175.2670  144.9910 C   0  0  0  0  0  0  0  0  0  0  0  0
  192.9570  172.7030  144.4590 C   0  0  0  0  0  2  0  0  0  0  0  0
  187.0600  176.1760  142.1890 C   0  0  1  0  0  3  0  0  0  0  0  0
  184.9250  178.6840  142.1400 C   0  0  0  0  0  2  0  0  0  0  0  0
  193.3670  175.0060  145.4480 C   0  0  2  0  0  3  0  0  0  0  0  0
  188.8550  174.5360  143.0000 C   0  0  2  0  0  3  0  0  0  0  0  0
  186.2970  177.8390  143.9510 C   0  0  2  0  0  3  0  0  0  0  0  0
  189.1340  175.4510  144.1680 C   0  0  0  0  0  0  0  0  0  0  0  0
  189.1120  173.6920  140.2650 C   0  0  0  0  0  2  0  0  0  0  0  0
  191.8250  176.5720  146.6570 C   0  0  0  0  0  3  0  0  0  0  0  0
  187.9030  174.3640  140.7520 N   0  0  0  0  0  2  0  0  0  0  0  0
  190.7180  176.3620  145.9370 C   0  0  0  0  0  3  0  0  0  0  0  0
  192.4280  173.8120  145.3670 C   0  0  1  0  0  3  0  0  0  0  0  0
  189.7840  172.8940  141.3870 C   0  0  0  0  0  2  0  0  0  0  0  0
  190.7920  173.1620  143.7080 C   0  0  1  0  0  3  0  0  0  0  0  0
  194.7000  174.5870  145.4980 O   0  0  0  0  0  0  0  0  0  0  0  0
  195.4310  175.6640  144.9900 C   0  0  0  0  0  2  0  0  0  0  0  0
  197.9410  176.1100  142.9530 O   0  0  0  0  0  0  0  0  0  0  0  0
  196.6040  174.2120  143.3690 C   0  0  0  0  0  2  0  0  0  0  0  0
  195.7430  175.4310  143.5220 C   0  0  2  0  0  3  0  0  0  0  0  0
  197.8560  174.7340  142.7070 C   0  0  0  0  0  2  0  0  0  0  0  0
  196.6120  176.5570  143.0080 C   0  0  0  0  0  2  0  0  0  0  0  0
  1 26  1  6  0  0  0
  1 18  1  0  0  0  0
  1 27  1  0  0  0  0
  2 14  1  0  0  0  0
  3 16  1  6  0  0  0
  3 19  1  0  0  0  0
  3  7  1  0  0  0  0
  4 23  1  6  0  0  0
  4 15  1  0  0  0  0
  4 18  1  0  0  0  0
  5 19  1  0  0  0  0
  5 11  1  6  0  0  0
  7  6  1  0  0  0  0
  8 12  1  0  0  0  0
  8 16  1  0  0  0  0
  9 13  2  0  0  0  0
  9 25  1  0  0  0  0
 13 24  1  0  0  0  0
 15 12  1  6  0  0  0
 15  5  1  0  0  0  0
 17 28  1  1  0  0  0
 17 10  1  0  0  0  0
 18 20  1  1  0  0  0
 19  6  1  1  0  0  0
 20 11  2  0  0  0  0
 20 13  1  0  0  0  0
 21 23  1  0  0  0  0
 21 26  1  0  0  0  0
 22 10  1  0  0  0  0
 24 22  2  0  0  0  0
 25 14  1  6  0  0  0
 25 17  1  0  0  0  0
 27  2  1  6  0  0  0
 27  9  1  0  0  0  0
 29 28  1  0  0  0  0
 30 34  1  0  0  0  0
 31 32  1  0  0  0  0
 32 29  1  1  0  0  0
 33 30  1  0  0  0  0
 33 31  1  0  0  0  0
 34 32  1  0  0  0  0
M  END
>  <MODEL>
5

>  <REMARK>
 VINA RESULT:      -8.3      1.600      2.215
  Name = 
  3 active torsions:
  status: ('A' for Active; 'I' for Inactive)
    1  A    between atoms: C_17  and  O_28
    2  A    between atoms: O_28  and  C_29
    3  A    between atoms: C_29  and  C_32
                            x       y       z     vdW  Elec       q    Type
                         _______ _______ _______ _____ _____    ______ ____

>  <TORSDO>
F 3

$$$$
=
 OpenBabel11112418013D

 34 41  0  0  1  0  0  0  0  0999 V2000
  192.4810  176.2470  146.1700 C   0  0  2  0  0  3  0  0  0  0  0  0
  194.8650  175.6480  146.0680 N   0  0  0  0  0  2  0  0  0  0  0  0
  186.8000  178.2600  143.5430 C   0  0  1  0  0  3  0  0  0  0  0  0
  190.0640  176.7400  146.1350 C   0  0  1  0  0  3  0  0  0  0  0  0
  189.0750  177.5070  143.8380 C   0  0  2  0  0  3  0  0  0  0  0  0
  187.5770  177.9600  141.7390 C   0  0  0  0  0  2  0  0  0  0  0  0
  186.4840  178.6920  142.2480 O   0  0  0  0  0  0  0  0  0  0  0  0
  186.2790  177.2110  145.7110 C   0  0  0  0  0  2  0  0  0  0  0  0
  193.6350  175.7160  144.0590 C   0  0  0  0  0  0  0  0  0  0  0  0
  194.3960  173.7230  141.7300 C   0  0  0  0  0  2  0  0  0  0  0  0
  190.1950  176.6850  143.2660 C   0  0  0  0  0  3  0  0  0  0  0  0
  187.6010  176.4130  145.7270 C   0  0  0  0  0  2  0  0  0  0  0  0
  192.4720  175.7370  143.3600 C   0  0  0  0  0  0  0  0  0  0  0  0
  195.6920  175.0610  145.0140 C   0  0  0  0  0  2  0  0  0  0  0  0
  188.8390  177.2720  145.3740 C   0  0  1  0  0  3  0  0  0  0  0  0
  185.7340  177.5040  144.3010 C   0  0  0  0  0  2  0  0  0  0  0  0
  194.6410  173.6050  143.2180 C   0  0  2  0  0  3  0  0  0  0  0  0
  191.3830  176.9600  145.3850 C   0  0  2  0  0  3  0  0  0  0  0  0
  187.8000  177.2680  143.0560 C   0  0  2  0  0  3  0  0  0  0  0  0
  191.3050  176.4440  143.9690 C   0  0  0  0  0  0  0  0  0  0  0  0
  191.1910  176.6970  148.2410 C   0  0  0  0  0  2  0  0  0  0  0  0
  193.0060  174.1630  141.4000 C   0  0  0  0  0  3  0  0  0  0  0  0
  190.1450  177.3630  147.4580 N   0  0  0  0  0  2  0  0  0  0  0  0
  192.2320  175.0170  142.0790 C   0  0  0  0  0  3  0  0  0  0  0  0
  194.8950  175.0220  143.7120 C   0  0  1  0  0  3  0  0  0  0  0  0
  192.5590  176.8500  147.5680 C   0  0  0  0  0  2  0  0  0  0  0  0
  193.7870  176.3600  145.3940 C   0  0  1  0  0  3  0  0  0  0  0  0
  195.7690  172.8010  143.4160 O   0  0  0  0  0  0  0  0  0  0  0  0
  195.2570  171.5610  143.8070 C   0  0  0  0  0  2  0  0  0  0  0  0
  195.7570  169.2280  146.0340 O   0  0  0  0  0  0  0  0  0  0  0  0
  196.7150  171.3710  145.7940 C   0  0  0  0  0  2  0  0  0  0  0  0
  195.2940  171.4410  145.3200 C   0  0  2  0  0  3  0  0  0  0  0  0
  196.7950  170.0430  146.5070 C   0  0  0  0  0  2  0  0  0  0  0  0
  194.7070  170.1090  145.7340 C   0  0  0  0  0  2  0  0  0  0  0  0
  1 26  1  1  0  0  0
  3 16  1  6  0  0  0
  4 23  1  1  0  0  0
  5 11  1  6  0  0  0
  5 15  1  0  0  0  0
  6  7  1  0  0  0  0
  7  3  1  0  0  0  0
  8 12  1  0  0  0  0
 10 17  1  0  0  0  0
 11 20  2  0  0  0  0
 13 20  1  0  0  0  0
 13  9  2  0  0  0  0
 14  2  1  0  0  0  0
 15 12  1  6  0  0  0
 15  4  1  0  0  0  0
 16  8  1  0  0  0  0
 17 28  1  6  0  0  0
 17 25  1  0  0  0  0
 18 20  1  6  0  0  0
 18  4  1  0  0  0  0
 18  1  1  0  0  0  0
 19  6  1  6  0  0  0
 19  3  1  0  0  0  0
 19  5  1  0  0  0  0
 22 10  1  0  0  0  0
 22 24  2  0  0  0  0
 23 21  1  0  0  0  0
 24 13  1  0  0  0  0
 25  9  1  0  0  0  0
 25 14  1  1  0  0  0
 26 21  1  0  0  0  0
 27  9  1  6  0  0  0
 27  2  1  0  0  0  0
 27  1  1  0  0  0  0
 28 29  1  0  0  0  0
 30 33  1  0  0  0  0
 31 33  1  0  0  0  0
 32 29  1  6  0  0  0
 32 34  1  0  0  0  0
 32 31  1  0  0  0  0
 34 30  1  0  0  0  0
M  END
>  <MODEL>
6

>  <REMARK>
 VINA RESULT:      -8.3      2.383      4.246
  Name = 
  3 active torsions:
  status: ('A' for Active; 'I' for Inactive)
    1  A    between atoms: C_17  and  O_28
    2  A    between atoms: O_28  and  C_29
    3  A    between atoms: C_29  and  C_32
                            x       y       z     vdW  Elec       q    Type
                         _______ _______ _______ _____ _____    ______ ____

>  <TORSDO>
F 3

$$$$
=
 OpenBabel11112418013D

 34 41  0  0  1  0  0  0  0  0999 V2000
  192.3340  176.1670  145.2390 C   0  0  2  0  0  3  0  0  0  0  0  0
  190.3270  176.2560  146.6580 N   0  0  0  0  0  2  0  0  0  0  0  0
  195.8420  173.9610  140.1350 C   0  0  1  0  0  3  0  0  0  0  0  0
  194.2420  176.1010  143.6760 C   0  0  1  0  0  3  0  0  0  0  0  0
  194.0530  174.4040  141.6960 C   0  0  2  0  0  3  0  0  0  0  0  0
  194.1830  173.1500  139.4010 C   0  0  0  0  0  2  0  0  0  0  0  0
  195.5660  172.9680  139.1850 O   0  0  0  0  0  0  0  0  0  0  0  0
  196.8900  176.0560  140.9000 C   0  0  0  0  0  2  0  0  0  0  0  0
  190.1380  175.3310  144.4990 C   0  0  0  0  0  0  0  0  0  0  0  0
  187.4220  175.6660  142.9220 C   0  0  0  0  0  2  0  0  0  0  0  0
  192.5770  174.6230  141.8620 C   0  0  0  0  0  3  0  0  0  0  0  0
  195.6010  176.5330  141.6010 C   0  0  0  0  0  2  0  0  0  0  0  0
  190.5880  175.1220  143.2350 C   0  0  0  0  0  0  0  0  0  0  0  0
  188.9040  176.0700  146.3710 C   0  0  0  0  0  2  0  0  0  0  0  0
  194.9390  175.4410  142.4760 C   0  0  1  0  0  3  0  0  0  0  0  0
  196.6490  175.1530  139.6760 C   0  0  0  0  0  2  0  0  0  0  0  0
  187.9980  176.5080  144.0390 C   0  0  2  0  0  3  0  0  0  0  0  0
  193.0130  175.3250  144.1630 C   0  0  2  0  0  3  0  0  0  0  0  0
  194.4170  174.3860  140.2250 C   0  0  2  0  0  3  0  0  0  0  0  0
  192.0640  175.0260  143.0280 C   0  0  0  0  0  0  0  0  0  0  0  0
  194.5660  177.0700  145.8360 C   0  0  0  0  0  2  0  0  0  0  0  0
  188.4250  175.3340  141.8640 C   0  0  0  0  0  3  0  0  0  0  0  0
  195.1880  176.2600  144.7840 N   0  0  0  0  0  2  0  0  0  0  0  0
  189.7310  175.0910  142.0180 C   0  0  0  0  0  3  0  0  0  0  0  0
  188.7430  175.5410  144.9470 C   0  0  1  0  0  3  0  0  0  0  0  0
  193.3140  176.3830  146.3880 C   0  0  0  0  0  2  0  0  0  0  0  0
  191.0510  175.4690  145.6690 C   0  0  1  0  0  3  0  0  0  0  0  0
  186.9390  177.1150  144.7240 O   0  0  0  0  0  0  0  0  0  0  0  0
  186.6840  178.2910  144.0130 C   0  0  0  0  0  2  0  0  0  0  0  0
  183.6910  178.6540  145.2630 O   0  0  0  0  0  0  0  0  0  0  0  0
  185.8160  178.7250  146.2860 C   0  0  0  0  0  2  0  0  0  0  0  0
  185.9490  179.2810  144.8990 C   0  0  2  0  0  3  0  0  0  0  0  0
  184.3250  178.6680  146.5120 C   0  0  0  0  0  2  0  0  0  0  0  0
  184.5190  179.4160  144.4230 C   0  0  0  0  0  2  0  0  0  0  0  0
  1 27  1  0  0  0  0
  1 26  1  1  0  0  0
  3 16  1  6  0  0  0
  3 19  1  0  0  0  0
  4 18  1  0  0  0  0
  4 23  1  1  0  0  0
  5 11  1  6  0  0  0
  5 15  1  0  0  0  0
  7  6  1  0  0  0  0
  7  3  1  0  0  0  0
  8 12  1  0  0  0  0
  9 25  1  0  0  0  0
 10 17  1  0  0  0  0
 11 20  2  0  0  0  0
 13  9  2  0  0  0  0
 14  2  1  0  0  0  0
 15 12  1  6  0  0  0
 15  4  1  0  0  0  0
 16  8  1  0  0  0  0
 17 28  1  1  0  0  0
 17 25  1  0  0  0  0
 18 20  1  6  0  0  0
 18  1  1  0  0  0  0
 19  6  1  6  0  0  0
 19  5  1  0  0  0  0
 20 13  1  0  0  0  0
 21 26  1  0  0  0  0
 22 24  2  0  0  0  0
 22 10  1  0  0  0  0
 23 21  1  0  0  0  0
 24 13  1  0  0  0  0
 25 14  1  1  0  0  0
 27  9  1  6  0  0  0
 27  2  1  0  0  0  0
 29 28  1  0  0  0  0
 30 33  1  0  0  0  0
 31 33  1  0  0  0  0
 32 29  1  6  0  0  0
 32 31  1  0  0  0  0
 34 32  1  0  0  0  0
 34 30  1  0  0  0  0
M  END
>  <MODEL>
7

>  <REMARK>
 VINA RESULT:      -8.2      2.667      9.225
  Name = 
  3 active torsions:
  status: ('A' for Active; 'I' for Inactive)
    1  A    between atoms: C_17  and  O_28
    2  A    between atoms: O_28  and  C_29
    3  A    between atoms: C_29  and  C_32
                            x       y       z     vdW  Elec       q    Type
                         _______ _______ _______ _____ _____    ______ ____

>  <TORSDO>
F 3

$$$$
=
 OpenBabel11112418013D

 34 41  0  0  1  0  0  0  0  0999 V2000
  192.0120  175.9980  145.7610 C   0  0  2  0  0  3  0  0  0  0  0  0
  189.9680  177.3570  145.9100 N   0  0  0  0  0  2  0  0  0  0  0  0
  195.2810  170.3580  144.9050 C   0  0  1  0  0  3  0  0  0  0  0  0
  194.0010  174.5680  145.4610 C   0  0  1  0  0  3  0  0  0  0  0  0
  193.5440  172.0310  145.0250 C   0  0  2  0  0  3  0  0  0  0  0  0
  193.6020  169.5370  144.2300 C   0  0  0  0  0  2  0  0  0  0  0  0
  194.8250  169.0440  144.7320 O   0  0  0  0  0  0  0  0  0  0  0  0
  196.8900  172.1970  144.5920 C   0  0  0  0  0  2  0  0  0  0  0  0
  189.8380  175.2390  144.8860 C   0  0  0  0  0  0  0  0  0  0  0  0
  187.7910  174.8040  142.5210 C   0  0  0  0  0  2  0  0  0  0  0  0
  192.2590  172.5300  144.4310 C   0  0  0  0  0  3  0  0  0  0  0  0
  195.7750  173.2210  144.2880 C   0  0  0  0  0  2  0  0  0  0  0  0
  190.3960  174.1450  144.3070 C   0  0  0  0  0  0  0  0  0  0  0  0
  188.6600  177.2500  145.2630 C   0  0  0  0  0  2  0  0  0  0  0  0
  194.6000  173.1630  145.2940 C   0  0  1  0  0  3  0  0  0  0  0  0
  196.5510  170.7510  144.1870 C   0  0  0  0  0  2  0  0  0  0  0  0
  188.4300  176.0820  143.0190 C   0  0  2  0  0  3  0  0  0  0  0  0
  192.5030  174.5520  145.7840 C   0  0  2  0  0  3  0  0  0  0  0  0
  194.1350  170.9410  144.1540 C   0  0  2  0  0  3  0  0  0  0  0  0
  191.7360  173.7030  144.7990 C   0  0  0  0  0  0  0  0  0  0  0  0
  194.2720  176.6980  146.5100 C   0  0  0  0  0  2  0  0  0  0  0  0
  188.7660  173.6810  142.3770 C   0  0  0  0  0  3  0  0  0  0  0  0
  194.7180  175.3010  146.5080 N   0  0  0  0  0  2  0  0  0  0  0  0
  189.8290  173.4130  143.1420 C   0  0  0  0  0  3  0  0  0  0  0  0
  188.5720  175.9150  144.5250 C   0  0  1  0  0  3  0  0  0  0  0  0
  192.7740  176.7930  146.8160 C   0  0  0  0  0  2  0  0  0  0  0  0
  190.5050  176.0050  145.9770 C   0  0  1  0  0  3  0  0  0  0  0  0
  187.5770  177.1480  142.7170 O   0  0  0  0  0  0  0  0  0  0  0  0
  186.2920  176.6030  142.7720 C   0  0  0  0  0  2  0  0  0  0  0  0
  185.4810  178.7630  145.0800 O   0  0  0  0  0  0  0  0  0  0  0  0
  185.9210  179.0470  142.7800 C   0  0  0  0  0  2  0  0  0  0  0  0
  185.2690  177.7090  142.9680 C   0  0  2  0  0  3  0  0  0  0  0  0
  185.7120  179.7410  144.1040 C   0  0  0  0  0  2  0  0  0  0  0  0
  184.8160  177.7250  144.4110 C   0  0  0  0  0  2  0  0  0  0  0  0
  1 18  1  0  0  0  0
  1 27  1  0  0  0  0
  1 26  1  1  0  0  0
  2 27  1  0  0  0  0
  3 16  1  6  0  0  0
  4 18  1  0  0  0  0
  4 23  1  1  0  0  0
  5 11  1  6  0  0  0
  5 15  1  0  0  0  0
  6  7  1  0  0  0  0
  7  3  1  0  0  0  0
 10 17  1  0  0  0  0
 11 20  2  0  0  0  0
 12  8  1  0  0  0  0
 13 20  1  0  0  0  0
 13  9  2  0  0  0  0
 14  2  1  0  0  0  0
 15 12  1  6  0  0  0
 15  4  1  0  0  0  0
 16  8  1  0  0  0  0
 17 28  1  1  0  0  0
 17 25  1  0  0  0  0
 18 20  1  6  0  0  0
 19  6  1  1  0  0  0
 19  3  1  0  0  0  0
 19  5  1  0  0  0  0
 21 26  1  0  0  0  0
 22 10  1  0  0  0  0
 22 24  2  0  0  0  0
 23 21  1  0  0  0  0
 24 13  1  0  0  0  0
 25  9  1  0  0  0  0
 25 14  1  1  0  0  0
 27  9  1  6  0  0  0
 28 29  1  0  0  0  0
 31 32  1  0  0  0  0
 31 33  1  0  0  0  0
 32 29  1  1  0  0  0
 32 34  1  0  0  0  0
 33 30  1  0  0  0  0
 34 30  1  0  0  0  0
M  END
>  <MODEL>
8

>  <REMARK>
 VINA RESULT:      -8.1      2.308      9.169
  Name = 
  3 active torsions:
  status: ('A' for Active; 'I' for Inactive)
    1  A    between atoms: C_17  and  O_28
    2  A    between atoms: O_28  and  C_29
    3  A    between atoms: C_29  and  C_32
                            x       y       z     vdW  Elec       q    Type
                         _______ _______ _______ _____ _____    ______ ____

>  <TORSDO>
F 3

$$$$
=
 OpenBabel11112418013D

 34 41  0  0  1  0  0  0  0  0999 V2000
  191.0350  172.7930  142.9310 C   0  0  2  0  0  3  0  0  0  0  0  0
  188.7110  173.1020  142.1890 N   0  0  0  0  0  2  0  0  0  0  0  0
  197.2650  174.7340  143.7370 C   0  0  1  0  0  3  0  0  0  0  0  0
  193.3560  172.6380  143.7570 C   0  0  1  0  0  3  0  0  0  0  0  0
  194.9020  174.6850  143.2460 C   0  0  2  0  0  3  0  0  0  0  0  0
  196.7000  176.5870  143.2930 C   0  0  0  0  0  2  0  0  0  0  0  0
  197.9300  175.8970  143.3240 O   0  0  0  0  0  0  0  0  0  0  0  0
  196.8890  172.8210  145.2430 C   0  0  0  0  0  2  0  0  0  0  0  0
  190.0750  175.0070  142.4370 C   0  0  0  0  0  0  0  0  0  0  0  0
  188.7550  177.7300  143.3390 C   0  0  0  0  0  2  0  0  0  0  0  0
  193.6130  175.4560  143.2650 C   0  0  0  0  0  3  0  0  0  0  0  0
  195.3580  173.0200  145.2350 C   0  0  0  0  0  2  0  0  0  0  0  0
  191.1790  175.6450  142.9040 C   0  0  0  0  0  0  0  0  0  0  0  0
  187.8560  174.2840  142.0840 C   0  0  0  0  0  2  0  0  0  0  0  0
  194.7750  173.2260  143.8160 C   0  0  1  0  0  3  0  0  0  0  0  0
  197.6970  174.1170  145.0460 C   0  0  0  0  0  2  0  0  0  0  0  0
  188.2790  176.3100  143.5560 C   0  0  2  0  0  3  0  0  0  0  0  0
  192.4400  173.3690  142.7690 C   0  0  2  0  0  3  0  0  0  0  0  0
  195.9830  175.4540  143.9750 C   0  0  2  0  0  3  0  0  0  0  0  0
  192.4450  174.8590  143.0110 C   0  0  0  0  0  0  0  0  0  0  0  0
  192.0770  170.6290  143.5570 C   0  0  0  0  0  2  0  0  0  0  0  0
  190.2090  177.9100  143.6310 C   0  0  0  0  0  3  0  0  0  0  0  0
  193.4130  171.2160  143.4080 N   0  0  0  0  0  2  0  0  0  0  0  0
  191.2020  177.0400  143.4240 C   0  0  0  0  0  3  0  0  0  0  0  0
  188.6990  175.5370  142.3140 C   0  0  1  0  0  3  0  0  0  0  0  0
  191.0760  171.3020  142.6130 C   0  0  0  0  0  2  0  0  0  0  0  0
  190.0810  173.5710  142.0360 C   0  0  1  0  0  3  0  0  0  0  0  0
  186.8860  176.3260  143.6830 O   0  0  0  0  0  0  0  0  0  0  0  0
  186.6160  177.4310  144.4940 C   0  0  0  0  0  2  0  0  0  0  0  0
  186.4390  178.5180  147.5660 O   0  0  0  0  0  0  0  0  0  0  0  0
  184.7650  177.7190  146.1080 C   0  0  0  0  0  2  0  0  0  0  0  0
  186.0320  176.9690  145.8180 C   0  0  2  0  0  3  0  0  0  0  0  0
  185.0500  178.4190  147.4150 C   0  0  0  0  0  2  0  0  0  0  0  0
  186.9590  177.3730  146.9430 C   0  0  0  0  0  2  0  0  0  0  0  0
  1 26  1  6  0  0  0
  3 19  1  0  0  0  0
  3 16  1  1  0  0  0
  4 23  1  6  0  0  0
  4 15  1  0  0  0  0
  5 11  1  1  0  0  0
  5 15  1  0  0  0  0
  5 19  1  0  0  0  0
  6  7  1  0  0  0  0
  7  3  1  0  0  0  0
  9 13  2  0  0  0  0
 10 17  1  0  0  0  0
 10 22  1  0  0  0  0
 12  8  1  0  0  0  0
 13 20  1  0  0  0  0
 13 24  1  0  0  0  0
 14  2  1  0  0  0  0
 15 12  1  1  0  0  0
 16  8  1  0  0  0  0
 17 28  1  6  0  0  0
 18  1  1  0  0  0  0
 18 20  1  1  0  0  0
 18  4  1  0  0  0  0
 19  6  1  6  0  0  0
 20 11  2  0  0  0  0
 23 21  1  0  0  0  0
 24 22  2  0  0  0  0
 25 14  1  1  0  0  0
 25  9  1  0  0  0  0
 25 17  1  0  0  0  0
 26 21  1  0  0  0  0
 27  2  1  1  0  0  0
 27  9  1  0  0  0  0
 27  1  1  0  0  0  0
 28 29  1  0  0  0  0
 31 33  1  0  0  0  0
 32 29  1  6  0  0  0
 32 31  1  0  0  0  0
 32 34  1  0  0  0  0
 33 30  1  0  0  0  0
 34 30  1  0  0  0  0
M  END
>  <MODEL>
9

>  <REMARK>
 VINA RESULT:      -8.1      2.099      8.757
  Name = 
  3 active torsions:
  status: ('A' for Active; 'I' for Inactive)
    1  A    between atoms: C_17  and  O_28
    2  A    between atoms: O_28  and  C_29
    3  A    between atoms: C_29  and  C_32
                            x       y       z     vdW  Elec       q    Type
                         _______ _______ _______ _____ _____    ______ ____

>  <TORSDO>
F 3

$$$$
