=
 OpenBabel11112417223D

 37 42  0  0  1  0  0  0  0  0999 V2000
  195.6610  175.9410  143.5050 C   0  0  0  0  0  0  0  0  0  0  0  0
  191.9200  176.0910  145.2890 C   0  0  0  0  0  0  0  0  0  0  0  0
  189.7800  173.5440  144.7440 C   0  0  0  0  0  2  0  0  0  0  0  0
  194.2540  176.6650  145.5030 C   0  0  0  0  0  0  0  0  0  0  0  0
  191.1270  175.6290  144.2490 C   0  0  0  0  0  0  0  0  0  0  0  0
  190.5530  171.6190  141.6900 C   0  0  0  0  0  0  0  0  0  0  0  0
  193.1540  176.2890  144.7660 C   0  0  0  0  0  0  0  0  0  0  0  0
  189.7490  175.0360  144.4070 C   0  0  2  0  0  3  0  0  0  0  0  0
  194.0570  176.9010  146.8770 C   0  0  0  0  0  3  0  0  0  0  0  0
  190.3320  171.6620  140.2760 N   0  0  0  0  0  2  0  0  0  0  0  0
  193.1420  175.9230  143.4640 C   0  0  0  0  0  0  0  0  0  0  0  0
  195.9460  174.5050  143.9110 C   0  0  0  0  0  1  0  0  0  0  0  0
  190.3290  176.0670  147.2410 C   0  0  0  0  0  2  0  0  0  0  0  0
  192.7700  176.7120  147.4480 C   0  0  0  0  0  3  0  0  0  0  0  0
  194.3820  175.9760  142.6200 C   0  0  0  0  0  2  0  0  0  0  0  0
  190.5050  172.8270  142.4630 N   0  0  0  0  0  0  0  0  0  0  0  0
  190.8000  172.7700  143.8990 C   0  0  0  0  0  2  0  0  0  0  0  0
  191.6800  176.2950  146.6490 C   0  0  0  0  0  0  0  0  0  0  0  0
  191.9020  175.4950  143.1250 N   0  0  0  0  0  0  0  0  0  0  0  0
  195.5680  176.8250  144.7840 C   0  0  0  0  0  2  0  0  0  0  0  0
  188.7300  175.8010  145.2750 C   0  0  1  0  0  3  0  0  0  0  0  0
  196.8270  176.4310  142.6730 C   0  0  0  0  0  1  0  0  0  0  0  0
  190.2920  174.1040  141.7800 C   0  0  0  0  0  2  0  0  0  0  0  0
  190.7830  170.5150  142.2560 O   0  0  0  0  0  0  0  0  0  0  0  0
  191.5430  174.9850  141.7960 C   0  0  0  0  0  2  0  0  0  0  0  0
  189.2670  176.7300  146.3720 C   0  0  0  0  0  2  0  0  0  0  0  0
  187.3010  175.9230  143.2280 C   0  0  0  0  0  3  0  0  0  0  0  0
  187.7480  176.5230  144.4100 C   0  0  0  0  0  0  0  0  0  0  0  0
  187.2790  177.7990  144.7610 C   0  0  0  0  0  3  0  0  0  0  0  0
  185.9180  179.6930  144.2770 F   0  0  0  0  0  0  0  0  0  0  0  0
  185.9240  177.8580  142.7560 C   0  0  0  0  0  3  0  0  0  0  0  0
  186.3690  178.4630  143.9350 C   0  0  0  0  0  0  0  0  0  0  0  0
  186.3900  176.5880  142.4030 C   0  0  0  0  0  3  0  0  0  0  0  0
  191.8410  170.1820  139.0420 C   0  0  0  0  0  1  0  0  0  0  0  0
  190.4000  170.4800  139.4280 C   0  0  2  0  0  3  0  0  0  0  0  0
  190.1580  170.0550  136.9440 C   0  0  0  0  0  1  0  0  0  0  0  0
  189.5260  170.6570  138.1900 C   0  0  0  0  0  2  0  0  0  0  0  0
  1 12  1  0  0  0  0
  1 20  1  0  0  0  0
  2 18  1  0  0  0  0
  4  9  2  0  0  0  0
  5  8  1  0  0  0  0
  5  2  2  0  0  0  0
  6 24  2  0  0  0  0
  6 16  1  0  0  0  0
  7  2  1  0  0  0  0
  7  4  1  0  0  0  0
  8  3  1  1  0  0  0
  8 21  1  0  0  0  0
  9 14  1  0  0  0  0
 10  6  1  0  0  0  0
 11  7  2  0  0  0  0
 15 11  1  0  0  0  0
 15  1  1  0  0  0  0
 16 17  1  0  0  0  0
 17  3  1  0  0  0  0
 18 13  1  0  0  0  0
 18 14  2  0  0  0  0
 19 11  1  0  0  0  0
 19  5  1  0  0  0  0
 20  4  1  0  0  0  0
 21 28  1  6  0  0  0
 21 26  1  0  0  0  0
 22  1  1  0  0  0  0
 23 25  1  0  0  0  0
 23 16  1  0  0  0  0
 25 19  1  0  0  0  0
 26 13  1  0  0  0  0
 27 28  1  0  0  0  0
 28 29  2  0  0  0  0
 31 32  2  0  0  0  0
 32 30  1  0  0  0  0
 32 29  1  0  0  0  0
 33 31  1  0  0  0  0
 33 27  2  0  0  0  0
 35 34  1  6  0  0  0
 35 10  1  0  0  0  0
 36 37  1  0  0  0  0
 37 35  1  0  0  0  0
M  END
>  <MODEL>
1

>  <REMARK>
 VINA RESULT:      -9.2      0.000      0.000
  Name = 
  3 active torsions:
  status: ('A' for Active; 'I' for Inactive)
    1  A    between atoms: C_4  and  N_12
    2  A    between atoms: C_4  and  C_37
    3  A    between atoms: C_23  and  C_30
                            x       y       z     vdW  Elec       q    Type
                         _______ _______ _______ _____ _____    ______ ____

>  <TORSDO>
F 3

$$$$
=
 OpenBabel11112417223D

 37 42  0  0  1  0  0  0  0  0999 V2000
  189.9530  172.2150  139.7890 C   0  0  0  0  0  0  0  0  0  0  0  0
  187.9620  175.6940  140.8550 C   0  0  0  0  0  0  0  0  0  0  0  0
  189.5840  177.9480  142.7660 C   0  0  0  0  0  2  0  0  0  0  0  0
  188.2560  174.0090  139.1540 C   0  0  0  0  0  0  0  0  0  0  0  0
  188.3570  175.8140  142.1800 C   0  0  0  0  0  0  0  0  0  0  0  0
  192.3970  176.4960  144.6640 C   0  0  0  0  0  0  0  0  0  0  0  0
  188.3810  174.4730  140.4440 C   0  0  0  0  0  0  0  0  0  0  0  0
  188.3340  177.0930  142.9790 C   0  0  2  0  0  3  0  0  0  0  0  0
  187.6070  174.8470  138.2280 C   0  0  0  0  0  3  0  0  0  0  0  0
  192.6540  175.7840  145.8800 N   0  0  0  0  0  2  0  0  0  0  0  0
  189.0490  173.8740  141.4560 C   0  0  0  0  0  0  0  0  0  0  0  0
  191.2280  172.9180  139.3560 C   0  0  0  0  0  1  0  0  0  0  0  0
  186.8750  177.9210  140.4070 C   0  0  0  0  0  2  0  0  0  0  0  0
  187.1480  176.1280  138.6380 C   0  0  0  0  0  3  0  0  0  0  0  0
  189.6850  172.5250  141.2900 C   0  0  0  0  0  2  0  0  0  0  0  0
  191.0980  176.4380  144.0580 N   0  0  0  0  0  0  0  0  0  0  0  0
  190.8750  177.1200  142.7780 C   0  0  0  0  0  2  0  0  0  0  0  0
  187.3300  176.5680  139.9700 C   0  0  0  0  0  0  0  0  0  0  0  0
  189.0620  174.6930  142.5360 N   0  0  0  0  0  0  0  0  0  0  0  0
  188.7910  172.6350  138.8410 C   0  0  0  0  0  2  0  0  0  0  0  0
  187.0460  177.9390  142.9490 C   0  0  1  0  0  3  0  0  0  0  0  0
  190.1690  170.7240  139.6440 C   0  0  0  0  0  1  0  0  0  0  0  0
  190.0640  175.5960  144.6610 C   0  0  0  0  0  2  0  0  0  0  0  0
  193.3150  177.1790  144.1320 O   0  0  0  0  0  0  0  0  0  0  0  0
  189.7380  174.3740  143.8010 C   0  0  0  0  0  2  0  0  0  0  0  0
  186.1250  177.8110  141.7280 C   0  0  0  0  0  2  0  0  0  0  0  0
  186.7250  176.8350  145.1680 C   0  0  0  0  0  3  0  0  0  0  0  0
  186.2700  177.7510  144.2130 C   0  0  0  0  0  0  0  0  0  0  0  0
  185.0880  178.4700  144.4480 C   0  0  0  0  0  3  0  0  0  0  0  0
  183.2310  178.9700  145.8550 F   0  0  0  0  0  0  0  0  0  0  0  0
  184.8300  177.3590  146.5830 C   0  0  0  0  0  3  0  0  0  0  0  0
  184.3710  178.2740  145.6310 C   0  0  0  0  0  0  0  0  0  0  0  0
  186.0070  176.6400  146.3520 C   0  0  0  0  0  3  0  0  0  0  0  0
  194.4620  177.1920  146.7400 C   0  0  0  0  0  1  0  0  0  0  0  0
  193.9570  175.7720  146.5300 C   0  0  2  0  0  3  0  0  0  0  0  0
  194.4770  173.5240  145.4850 C   0  0  0  0  0  1  0  0  0  0  0  0
  194.9540  174.9500  145.7180 C   0  0  0  0  0  2  0  0  0  0  0  0
  1 15  1  0  0  0  0
  2  5  2  0  0  0  0
  3 17  1  0  0  0  0
  4  7  1  0  0  0  0
  5 19  1  0  0  0  0
  5  8  1  0  0  0  0
  6 10  1  0  0  0  0
  7  2  1  0  0  0  0
  7 11  2  0  0  0  0
  8  3  1  6  0  0  0
  9 14  1  0  0  0  0
  9  4  2  0  0  0  0
 10 35  1  0  0  0  0
 11 19  1  0  0  0  0
 12  1  1  0  0  0  0
 13 26  1  0  0  0  0
 14 18  2  0  0  0  0
 15 11  1  0  0  0  0
 16 23  1  0  0  0  0
 16  6  1  0  0  0  0
 17 16  1  0  0  0  0
 18 13  1  0  0  0  0
 18  2  1  0  0  0  0
 19 25  1  0  0  0  0
 20  4  1  0  0  0  0
 20  1  1  0  0  0  0
 21  8  1  0  0  0  0
 21 28  1  1  0  0  0
 22  1  1  0  0  0  0
 24  6  2  0  0  0  0
 25 23  1  0  0  0  0
 26 21  1  0  0  0  0
 27 33  1  0  0  0  0
 28 29  1  0  0  0  0
 28 27  2  0  0  0  0
 29 32  2  0  0  0  0
 32 30  1  0  0  0  0
 32 31  1  0  0  0  0
 33 31  2  0  0  0  0
 35 34  1  6  0  0  0
 36 37  1  0  0  0  0
 37 35  1  0  0  0  0
M  END
>  <MODEL>
2

>  <REMARK>
 VINA RESULT:      -8.7      2.481      6.668
  Name = 
  3 active torsions:
  status: ('A' for Active; 'I' for Inactive)
    1  A    between atoms: C_4  and  N_12
    2  A    between atoms: C_4  and  C_37
    3  A    between atoms: C_23  and  C_30
                            x       y       z     vdW  Elec       q    Type
                         _______ _______ _______ _____ _____    ______ ____

>  <TORSDO>
F 3

$$$$
=
 OpenBabel11112417223D

 37 42  0  0  1  0  0  0  0  0999 V2000
  189.5040  172.9830  138.7930 C   0  0  0  0  0  0  0  0  0  0  0  0
  188.1900  176.0420  141.2650 C   0  0  0  0  0  0  0  0  0  0  0  0
  190.4690  177.7000  143.1150 C   0  0  0  0  0  2  0  0  0  0  0  0
  187.8450  174.8790  139.1800 C   0  0  0  0  0  0  0  0  0  0  0  0
  188.9590  175.8010  142.3940 C   0  0  0  0  0  0  0  0  0  0  0  0
  193.5850  175.7930  143.6420 C   0  0  0  0  0  0  0  0  0  0  0  0
  188.3740  174.9780  140.4470 C   0  0  0  0  0  0  0  0  0  0  0  0
  189.2700  176.8180  143.4650 C   0  0  2  0  0  3  0  0  0  0  0  0
  187.0250  175.9360  138.7400 C   0  0  0  0  0  3  0  0  0  0  0  0
  194.1240  174.7800  144.4980 N   0  0  0  0  0  2  0  0  0  0  0  0
  189.2550  174.1300  141.0220 C   0  0  0  0  0  0  0  0  0  0  0  0
  190.6520  173.7780  138.1940 C   0  0  0  0  0  1  0  0  0  0  0  0
  187.2010  178.3070  141.7530 C   0  0  0  0  0  2  0  0  0  0  0  0
  186.8070  177.0570  139.5840 C   0  0  0  0  0  3  0  0  0  0  0  0
  189.7070  172.8760  140.3310 C   0  0  0  0  0  2  0  0  0  0  0  0
  192.1660  175.9000  143.4590 N   0  0  0  0  0  0  0  0  0  0  0  0
  191.6390  176.9000  142.5260 C   0  0  0  0  0  2  0  0  0  0  0  0
  187.4000  177.1220  140.8660 C   0  0  0  0  0  0  0  0  0  0  0  0
  189.6460  174.6260  142.2210 N   0  0  0  0  0  0  0  0  0  0  0  0
  188.1550  173.6420  138.3780 C   0  0  0  0  0  2  0  0  0  0  0  0
  188.1000  177.6380  144.0410 C   0  0  1  0  0  3  0  0  0  0  0  0
  189.5500  171.5860  138.2100 C   0  0  0  0  0  1  0  0  0  0  0  0
  191.2870  174.9240  144.1060 C   0  0  0  0  0  2  0  0  0  0  0  0
  194.3620  176.5950  143.0540 O   0  0  0  0  0  0  0  0  0  0  0  0
  190.6300  173.9790  143.0980 C   0  0  0  0  0  2  0  0  0  0  0  0
  186.8580  177.8430  143.1630 C   0  0  0  0  0  2  0  0  0  0  0  0
  186.6100  177.6730  146.0470 C   0  0  0  0  0  3  0  0  0  0  0  0
  187.7090  177.1150  145.3860 C   0  0  0  0  0  0  0  0  0  0  0  0
  188.4370  176.0840  145.9990 C   0  0  0  0  0  3  0  0  0  0  0  0
  188.7670  174.6180  147.8480 F   0  0  0  0  0  0  0  0  0  0  0  0
  186.9630  176.1740  147.9160 C   0  0  0  0  0  3  0  0  0  0  0  0
  188.0640  175.6150  147.2610 C   0  0  0  0  0  0  0  0  0  0  0  0
  186.2360  177.2030  147.3100 C   0  0  0  0  0  3  0  0  0  0  0  0
  196.1090  173.5850  143.7070 C   0  0  0  0  0  1  0  0  0  0  0  0
  195.5550  174.5950  144.7010 C   0  0  2  0  0  3  0  0  0  0  0  0
  197.1600  173.4160  146.2650 C   0  0  0  0  0  1  0  0  0  0  0  0
  195.8420  174.1650  146.1370 C   0  0  0  0  0  2  0  0  0  0  0  0
  1 15  1  0  0  0  0
  2  5  2  0  0  0  0
  4  7  1  0  0  0  0
  5  8  1  0  0  0  0
  6 10  1  0  0  0  0
  7 11  2  0  0  0  0
  7  2  1  0  0  0  0
  8  3  1  6  0  0  0
  8 21  1  0  0  0  0
  9  4  2  0  0  0  0
  9 14  1  0  0  0  0
 10 35  1  0  0  0  0
 11 19  1  0  0  0  0
 12  1  1  0  0  0  0
 13 26  1  0  0  0  0
 14 18  2  0  0  0  0
 15 11  1  0  0  0  0
 16  6  1  0  0  0  0
 16 23  1  0  0  0  0
 17  3  1  0  0  0  0
 17 16  1  0  0  0  0
 18  2  1  0  0  0  0
 18 13  1  0  0  0  0
 19  5  1  0  0  0  0
 19 25  1  0  0  0  0
 20  1  1  0  0  0  0
 20  4  1  0  0  0  0
 21 28  1  1  0  0  0
 22  1  1  0  0  0  0
 24  6  2  0  0  0  0
 25 23  1  0  0  0  0
 26 21  1  0  0  0  0
 27 33  1  0  0  0  0
 28 29  1  0  0  0  0
 28 27  2  0  0  0  0
 29 32  2  0  0  0  0
 32 30  1  0  0  0  0
 32 31  1  0  0  0  0
 33 31  2  0  0  0  0
 35 34  1  6  0  0  0
 35 37  1  0  0  0  0
 37 36  1  0  0  0  0
M  END
>  <MODEL>
3

>  <REMARK>
 VINA RESULT:      -8.2      2.631      6.614
  Name = 
  3 active torsions:
  status: ('A' for Active; 'I' for Inactive)
    1  A    between atoms: C_4  and  N_12
    2  A    between atoms: C_4  and  C_37
    3  A    between atoms: C_23  and  C_30
                            x       y       z     vdW  Elec       q    Type
                         _______ _______ _______ _____ _____    ______ ____

>  <TORSDO>
F 3

$$$$
=
 OpenBabel11112417223D

 37 42  0  0  1  0  0  0  0  0999 V2000
  189.3280  176.1670  146.0810 C   0  0  0  0  0  0  0  0  0  0  0  0
  193.1640  174.6610  145.6150 C   0  0  0  0  0  0  0  0  0  0  0  0
  194.1390  173.6790  142.5420 C   0  0  0  0  0  2  0  0  0  0  0  0
  191.7700  176.2250  146.8120 C   0  0  0  0  0  0  0  0  0  0  0  0
  192.9160  173.6010  144.7560 C   0  0  0  0  0  0  0  0  0  0  0  0
  191.3140  172.9080  140.2930 C   0  0  0  0  0  0  0  0  0  0  0  0
  191.9530  175.1170  146.0150 C   0  0  0  0  0  0  0  0  0  0  0  0
  193.9450  172.9450  143.8690 C   0  0  2  0  0  3  0  0  0  0  0  0
  192.9250  176.8870  147.2690 C   0  0  0  0  0  3  0  0  0  0  0  0
  190.4160  171.8380  139.9820 N   0  0  0  0  0  2  0  0  0  0  0  0
  190.9880  174.3990  145.3970 C   0  0  0  0  0  0  0  0  0  0  0  0
  189.4060  177.1030  144.8870 C   0  0  0  0  0  1  0  0  0  0  0  0
  195.6780  174.8110  145.5830 C   0  0  0  0  0  2  0  0  0  0  0  0
  194.2080  176.4220  146.8730 C   0  0  0  0  0  3  0  0  0  0  0  0
  189.5310  174.7040  145.5950 C   0  0  0  0  0  2  0  0  0  0  0  0
  191.9460  172.9650  141.5800 N   0  0  0  0  0  0  0  0  0  0  0  0
  192.8110  174.1050  141.9030 C   0  0  0  0  0  2  0  0  0  0  0  0
  194.3380  175.2950  146.0280 C   0  0  0  0  0  0  0  0  0  0  0  0
  191.5600  173.4660  144.5980 N   0  0  0  0  0  0  0  0  0  0  0  0
  190.3580  176.6240  147.1560 C   0  0  0  0  0  2  0  0  0  0  0  0
  195.2880  172.5370  144.5040 C   0  0  1  0  0  3  0  0  0  0  0  0
  187.9400  176.2810  146.6740 C   0  0  0  0  0  1  0  0  0  0  0  0
  191.6120  171.9550  142.5850 C   0  0  0  0  0  2  0  0  0  0  0  0
  191.5540  173.7970  139.4300 O   0  0  0  0  0  0  0  0  0  0  0  0
  190.8040  172.5380  143.7460 C   0  0  0  0  0  2  0  0  0  0  0  0
  195.7610  173.3000  145.7480 C   0  0  0  0  0  2  0  0  0  0  0  0
  195.8500  170.2160  143.7660 C   0  0  0  0  0  3  0  0  0  0  0  0
  195.3230  171.0620  144.7480 C   0  0  0  0  0  0  0  0  0  0  0  0
  194.8240  170.5160  145.9400 C   0  0  0  0  0  3  0  0  0  0  0  0
  194.3740  168.6110  147.2980 F   0  0  0  0  0  0  0  0  0  0  0  0
  195.3840  168.2930  145.1630 C   0  0  0  0  0  3  0  0  0  0  0  0
  194.8560  169.1350  146.1470 C   0  0  0  0  0  0  0  0  0  0  0  0
  195.8820  168.8340  143.9740 C   0  0  0  0  0  3  0  0  0  0  0  0
  188.3320  172.3650  138.8100 C   0  0  0  0  0  1  0  0  0  0  0  0
  189.7150  171.7380  138.7090 C   0  0  2  0  0  3  0  0  0  0  0  0
  190.1170  170.0880  136.8300 C   0  0  0  0  0  1  0  0  0  0  0  0
  189.6270  170.2830  138.2570 C   0  0  0  0  0  2  0  0  0  0  0  0
  1 22  1  0  0  0  0
  1 20  1  0  0  0  0
  2  7  1  0  0  0  0
  2 18  1  0  0  0  0
  4 20  1  0  0  0  0
  4  9  2  0  0  0  0
  5  2  2  0  0  0  0
  6 16  1  0  0  0  0
  7  4  1  0  0  0  0
  8  3  1  6  0  0  0
  8 21  1  0  0  0  0
  8  5  1  0  0  0  0
 10  6  1  0  0  0  0
 11 15  1  0  0  0  0
 11  7  2  0  0  0  0
 12  1  1  0  0  0  0
 13 26  1  0  0  0  0
 13 18  1  0  0  0  0
 14  9  1  0  0  0  0
 15  1  1  0  0  0  0
 16 17  1  0  0  0  0
 16 23  1  0  0  0  0
 17  3  1  0  0  0  0
 18 14  2  0  0  0  0
 19  5  1  0  0  0  0
 19 11  1  0  0  0  0
 21 28  1  1  0  0  0
 21 26  1  0  0  0  0
 23 25  1  0  0  0  0
 24  6  2  0  0  0  0
 25 19  1  0  0  0  0
 27 33  2  0  0  0  0
 27 28  1  0  0  0  0
 28 29  2  0  0  0  0
 29 32  1  0  0  0  0
 31 32  2  0  0  0  0
 32 30  1  0  0  0  0
 33 31  1  0  0  0  0
 35 34  1  1  0  0  0
 35 10  1  0  0  0  0
 36 37  1  0  0  0  0
 37 35  1  0  0  0  0
M  END
>  <MODEL>
4

>  <REMARK>
 VINA RESULT:      -8.1      3.502      6.545
  Name = 
  3 active torsions:
  status: ('A' for Active; 'I' for Inactive)
    1  A    between atoms: C_4  and  N_12
    2  A    between atoms: C_4  and  C_37
    3  A    between atoms: C_23  and  C_30
                            x       y       z     vdW  Elec       q    Type
                         _______ _______ _______ _____ _____    ______ ____

>  <TORSDO>
F 3

$$$$
=
 OpenBabel11112417223D

 37 42  0  0  1  0  0  0  0  0999 V2000
  190.4130  171.7710  139.2110 C   0  0  0  0  0  0  0  0  0  0  0  0
  188.8390  175.0450  141.2120 C   0  0  0  0  0  0  0  0  0  0  0  0
  190.9550  177.0850  142.8620 C   0  0  0  0  0  2  0  0  0  0  0  0
  188.6280  173.5890  139.3000 C   0  0  0  0  0  0  0  0  0  0  0  0
  189.5890  175.0100  142.3780 C   0  0  0  0  0  0  0  0  0  0  0  0
  194.1680  175.4760  143.7090 C   0  0  0  0  0  0  0  0  0  0  0  0
  189.1130  173.8940  140.5510 C   0  0  0  0  0  0  0  0  0  0  0  0
  189.8040  176.1810  143.3050 C   0  0  2  0  0  3  0  0  0  0  0  0
  187.7580  174.5190  138.7020 C   0  0  0  0  0  3  0  0  0  0  0  0
  194.7440  174.6260  144.7070 N   0  0  0  0  0  2  0  0  0  0  0  0
  190.0290  173.1910  141.2560 C   0  0  0  0  0  0  0  0  0  0  0  0
  191.5260  172.5510  138.5310 C   0  0  0  0  0  1  0  0  0  0  0  0
  187.6970  177.2840  141.3630 C   0  0  0  0  0  2  0  0  0  0  0  0
  187.4450  175.7290  139.3790 C   0  0  0  0  0  3  0  0  0  0  0  0
  190.5780  171.8870  140.7530 C   0  0  0  0  0  2  0  0  0  0  0  0
  192.7510  175.4630  143.4840 N   0  0  0  0  0  0  0  0  0  0  0  0
  192.1890  176.2910  142.4120 C   0  0  0  0  0  2  0  0  0  0  0  0
  187.9960  176.0060  140.6520 C   0  0  0  0  0  0  0  0  0  0  0  0
  190.3520  173.8710  142.3820 N   0  0  0  0  0  0  0  0  0  0  0  0
  189.0390  172.2770  138.6820 C   0  0  0  0  0  2  0  0  0  0  0  0
  188.5690  176.9940  143.7400 C   0  0  1  0  0  3  0  0  0  0  0  0
  190.5630  170.3140  138.8260 C   0  0  0  0  0  1  0  0  0  0  0  0
  191.9160  174.5290  144.2420 C   0  0  0  0  0  2  0  0  0  0  0  0
  194.9100  176.2400  143.0320 O   0  0  0  0  0  0  0  0  0  0  0  0
  191.3490  173.4150  143.3600 C   0  0  0  0  0  2  0  0  0  0  0  0
  187.3430  176.9950  142.8160 C   0  0  0  0  0  2  0  0  0  0  0  0
  187.0880  177.2860  145.7310 C   0  0  0  0  0  3  0  0  0  0  0  0
  188.1730  176.6340  145.1350 C   0  0  0  0  0  0  0  0  0  0  0  0
  188.8810  175.6630  145.8590 C   0  0  0  0  0  3  0  0  0  0  0  0
  189.1880  174.4090  147.8620 F   0  0  0  0  0  0  0  0  0  0  0  0
  187.4170  176.0000  147.7560 C   0  0  0  0  0  3  0  0  0  0  0  0
  188.5030  175.3470  147.1660 C   0  0  0  0  0  0  0  0  0  0  0  0
  186.7090  176.9690  147.0390 C   0  0  0  0  0  3  0  0  0  0  0  0
  196.8980  173.8980  143.8010 C   0  0  0  0  0  1  0  0  0  0  0  0
  196.1770  174.5650  144.9630 C   0  0  2  0  0  3  0  0  0  0  0  0
  196.8640  172.3870  146.0560 C   0  0  0  0  0  1  0  0  0  0  0  0
  196.4570  173.8370  146.2740 C   0  0  0  0  0  2  0  0  0  0  0  0
  1 15  1  0  0  0  0
  2  5  2  0  0  0  0
  4  7  1  0  0  0  0
  5 19  1  0  0  0  0
  5  8  1  0  0  0  0
  6 10  1  0  0  0  0
  7  2  1  0  0  0  0
  7 11  2  0  0  0  0
  8  3  1  6  0  0  0
  8 21  1  0  0  0  0
  9  4  2  0  0  0  0
  9 14  1  0  0  0  0
 10 35  1  0  0  0  0
 11 19  1  0  0  0  0
 12  1  1  0  0  0  0
 13 26  1  0  0  0  0
 14 18  2  0  0  0  0
 15 11  1  0  0  0  0
 16  6  1  0  0  0  0
 16 23  1  0  0  0  0
 17  3  1  0  0  0  0
 17 16  1  0  0  0  0
 18  2  1  0  0  0  0
 18 13  1  0  0  0  0
 19 25  1  0  0  0  0
 20  1  1  0  0  0  0
 20  4  1  0  0  0  0
 21 28  1  1  0  0  0
 22  1  1  0  0  0  0
 24  6  2  0  0  0  0
 25 23  1  0  0  0  0
 26 21  1  0  0  0  0
 27 33  1  0  0  0  0
 28 27  2  0  0  0  0
 28 29  1  0  0  0  0
 29 32  2  0  0  0  0
 32 31  1  0  0  0  0
 32 30  1  0  0  0  0
 33 31  2  0  0  0  0
 35 34  1  6  0  0  0
 35 37  1  0  0  0  0
 36 37  1  0  0  0  0
M  END
>  <MODEL>
5

>  <REMARK>
 VINA RESULT:      -7.6      2.513      6.538
  Name = 
  3 active torsions:
  status: ('A' for Active; 'I' for Inactive)
    1  A    between atoms: C_4  and  N_12
    2  A    between atoms: C_4  and  C_37
    3  A    between atoms: C_23  and  C_30
                            x       y       z     vdW  Elec       q    Type
                         _______ _______ _______ _____ _____    ______ ____

>  <TORSDO>
F 3

$$$$
=
 OpenBabel11112417223D

 37 42  0  0  1  0  0  0  0  0999 V2000
  189.0790  173.0160  139.2880 C   0  0  0  0  0  0  0  0  0  0  0  0
  191.3860  172.8920  142.7320 C   0  0  0  0  0  0  0  0  0  0  0  0
  190.1050  174.1890  145.5680 C   0  0  0  0  0  2  0  0  0  0  0  0
  190.8210  171.7710  140.6720 C   0  0  0  0  0  0  0  0  0  0  0  0
  191.1280  174.1510  143.2530 C   0  0  0  0  0  0  0  0  0  0  0  0
  187.3980  176.6240  144.9640 C   0  0  0  0  0  0  0  0  0  0  0  0
  190.8500  172.8790  141.4880 C   0  0  0  0  0  0  0  0  0  0  0  0
  191.3110  174.5460  144.6980 C   0  0  2  0  0  3  0  0  0  0  0  0
  191.4310  170.5990  141.1560 C   0  0  0  0  0  3  0  0  0  0  0  0
  187.2120  178.0080  144.6470 N   0  0  0  0  0  2  0  0  0  0  0  0
  190.2450  174.0670  141.2600 C   0  0  0  0  0  0  0  0  0  0  0  0
  187.8160  172.4940  139.9530 C   0  0  0  0  0  1  0  0  0  0  0  0
  192.5680  171.7450  144.6380 C   0  0  0  0  0  2  0  0  0  0  0  0
  192.0110  170.5890  142.4530 C   0  0  0  0  0  3  0  0  0  0  0  0
  189.5080  174.3410  139.9800 C   0  0  0  0  0  2  0  0  0  0  0  0
  188.6260  175.9660  144.6230 N   0  0  0  0  0  0  0  0  0  0  0  0
  188.7690  174.5330  144.8960 C   0  0  0  0  0  2  0  0  0  0  0  0
  191.9860  171.7490  143.2630 C   0  0  0  0  0  0  0  0  0  0  0  0
  190.3880  174.8640  142.3450 N   0  0  0  0  0  0  0  0  0  0  0  0
  190.1700  171.9050  139.3200 C   0  0  0  0  0  2  0  0  0  0  0  0
  192.6430  174.1810  145.3820 C   0  0  1  0  0  3  0  0  0  0  0  0
  188.7520  173.3210  137.8420 C   0  0  0  0  0  1  0  0  0  0  0  0
  189.6550  176.7090  143.8940 C   0  0  0  0  0  2  0  0  0  0  0  0
  186.4800  175.9870  145.5500 O   0  0  0  0  0  0  0  0  0  0  0  0
  189.8170  176.2130  142.4550 C   0  0  0  0  0  2  0  0  0  0  0  0
  193.4320  172.9840  144.8350 C   0  0  0  0  0  2  0  0  0  0  0  0
  193.3620  176.2610  146.5660 C   0  0  0  0  0  3  0  0  0  0  0  0
  193.5220  175.3850  145.4870 C   0  0  0  0  0  0  0  0  0  0  0  0
  194.4950  175.6550  144.5120 C   0  0  0  0  0  3  0  0  0  0  0  0
  196.2400  177.0480  143.6800 F   0  0  0  0  0  0  0  0  0  0  0  0
  195.1380  177.6620  145.7030 C   0  0  0  0  0  3  0  0  0  0  0  0
  195.3010  176.7910  144.6210 C   0  0  0  0  0  0  0  0  0  0  0  0
  194.1690  177.3960  146.6750 C   0  0  0  0  0  3  0  0  0  0  0  0
  185.7430  179.8180  143.9000 C   0  0  0  0  0  1  0  0  0  0  0  0
  185.9790  178.7280  144.9350 C   0  0  2  0  0  3  0  0  0  0  0  0
  184.9830  178.6660  147.2630 C   0  0  0  0  0  1  0  0  0  0  0  0
  186.0130  179.3090  146.3450 C   0  0  0  0  0  2  0  0  0  0  0  0
  1 20  1  0  0  0  0
  1 12  1  0  0  0  0
  1 15  1  0  0  0  0
  2  5  2  0  0  0  0
  2 18  1  0  0  0  0
  4  9  2  0  0  0  0
  4  7  1  0  0  0  0
  5  8  1  0  0  0  0
  6 24  2  0  0  0  0
  7  2  1  0  0  0  0
  8 21  1  0  0  0  0
  8  3  1  1  0  0  0
  9 14  1  0  0  0  0
 10 35  1  0  0  0  0
 10  6  1  0  0  0  0
 11  7  2  0  0  0  0
 11 19  1  0  0  0  0
 13 26  1  0  0  0  0
 14 18  2  0  0  0  0
 15 11  1  0  0  0  0
 16 17  1  0  0  0  0
 16  6  1  0  0  0  0
 17  3  1  0  0  0  0
 18 13  1  0  0  0  0
 19 25  1  0  0  0  0
 19  5  1  0  0  0  0
 20  4  1  0  0  0  0
 21 28  1  6  0  0  0
 22  1  1  0  0  0  0
 23 16  1  0  0  0  0
 25 23  1  0  0  0  0
 26 21  1  0  0  0  0
 27 33  1  0  0  0  0
 28 27  2  0  0  0  0
 29 32  2  0  0  0  0
 29 28  1  0  0  0  0
 30 32  1  0  0  0  0
 31 33  2  0  0  0  0
 32 31  1  0  0  0  0
 35 34  1  6  0  0  0
 35 37  1  0  0  0  0
 37 36  1  0  0  0  0
M  END
>  <MODEL>
6

>  <REMARK>
 VINA RESULT:      -7.3      2.962      7.566
  Name = 
  3 active torsions:
  status: ('A' for Active; 'I' for Inactive)
    1  A    between atoms: C_4  and  N_12
    2  A    between atoms: C_4  and  C_37
    3  A    between atoms: C_23  and  C_30
                            x       y       z     vdW  Elec       q    Type
                         _______ _______ _______ _____ _____    ______ ____

>  <TORSDO>
F 3

$$$$
=
 OpenBabel11112417223D

 37 42  0  0  1  0  0  0  0  0999 V2000
  188.4070  176.6470  144.1000 C   0  0  0  0  0  0  0  0  0  0  0  0
  191.9980  174.7120  144.8490 C   0  0  0  0  0  0  0  0  0  0  0  0
  193.9290  173.8440  142.2250 C   0  0  0  0  0  2  0  0  0  0  0  0
  190.4120  176.3460  145.6460 C   0  0  0  0  0  0  0  0  0  0  0  0
  191.9840  173.7580  143.8420 C   0  0  0  0  0  0  0  0  0  0  0  0
  192.0560  173.6000  139.0540 C   0  0  0  0  0  0  0  0  0  0  0  0
  190.7700  175.2850  144.8450 C   0  0  0  0  0  0  0  0  0  0  0  0
  193.2010  173.0450  143.3070 C   0  0  2  0  0  3  0  0  0  0  0  0
  191.3770  176.8230  146.5530 C   0  0  0  0  0  3  0  0  0  0  0  0
  191.2390  172.6760  138.3260 N   0  0  0  0  0  2  0  0  0  0  0  0
  190.0360  174.7410  143.8490 C   0  0  0  0  0  0  0  0  0  0  0  0
  188.9960  177.6510  143.1250 C   0  0  0  0  0  1  0  0  0  0  0  0
  194.3550  174.5490  145.7220 C   0  0  0  0  0  2  0  0  0  0  0  0
  192.6680  176.2310  146.5850 C   0  0  0  0  0  3  0  0  0  0  0  0
  188.6400  175.2090  143.5540 C   0  0  0  0  0  2  0  0  0  0  0  0
  192.1800  173.4830  140.4780 N   0  0  0  0  0  0  0  0  0  0  0  0
  192.9680  174.4790  141.2120 C   0  0  0  0  0  2  0  0  0  0  0  0
  192.9940  175.1620  145.7180 C   0  0  0  0  0  0  0  0  0  0  0  0
  190.7720  173.8050  143.2020 N   0  0  0  0  0  0  0  0  0  0  0  0
  189.0130  176.8910  145.5140 C   0  0  0  0  0  2  0  0  0  0  0  0
  194.1800  172.4260  144.3240 C   0  0  1  0  0  3  0  0  0  0  0  0
  186.9140  176.8900  144.1750 C   0  0  0  0  0  1  0  0  0  0  0  0
  191.4150  172.4510  141.1800 C   0  0  0  0  0  2  0  0  0  0  0  0
  192.6710  174.5140  138.4380 O   0  0  0  0  0  0  0  0  0  0  0  0
  190.2960  173.0440  142.0400 C   0  0  0  0  0  2  0  0  0  0  0  0
  194.2360  173.0310  145.7330 C   0  0  0  0  0  2  0  0  0  0  0  0
  194.7050  170.2070  145.3440 C   0  0  0  0  0  3  0  0  0  0  0  0
  193.9910  170.9450  144.3950 C   0  0  0  0  0  0  0  0  0  0  0  0
  193.1180  170.2860  143.5160 C   0  0  0  0  0  3  0  0  0  0  0  0
  192.1180  168.2670  142.7430 F   0  0  0  0  0  0  0  0  0  0  0  0
  193.6760  168.1670  144.5430 C   0  0  0  0  0  3  0  0  0  0  0  0
  192.9610  168.9000  143.5910 C   0  0  0  0  0  0  0  0  0  0  0  0
  194.5470  168.8200  145.4200 C   0  0  0  0  0  3  0  0  0  0  0  0
  189.8600  173.6580  136.5590 C   0  0  0  0  0  1  0  0  0  0  0  0
  191.0430  172.7590  136.8850 C   0  0  2  0  0  3  0  0  0  0  0  0
  189.5760  171.2550  135.4710 C   0  0  0  0  0  1  0  0  0  0  0  0
  190.8540  171.3670  136.2890 C   0  0  0  0  0  2  0  0  0  0  0  0
  1 22  1  0  0  0  0
  1 20  1  0  0  0  0
  2 18  1  0  0  0  0
  4  9  2  0  0  0  0
  5  2  2  0  0  0  0
  6 16  1  0  0  0  0
  7  2  1  0  0  0  0
  7  4  1  0  0  0  0
  8  3  1  1  0  0  0
  8  5  1  0  0  0  0
  8 21  1  0  0  0  0
  9 14  1  0  0  0  0
 10  6  1  0  0  0  0
 11  7  2  0  0  0  0
 12  1  1  0  0  0  0
 13 26  1  0  0  0  0
 15 11  1  0  0  0  0
 15  1  1  0  0  0  0
 16 23  1  0  0  0  0
 16 17  1  0  0  0  0
 17  3  1  0  0  0  0
 18 13  1  0  0  0  0
 18 14  2  0  0  0  0
 19  5  1  0  0  0  0
 19 11  1  0  0  0  0
 20  4  1  0  0  0  0
 21 28  1  1  0  0  0
 21 26  1  0  0  0  0
 23 25  1  0  0  0  0
 24  6  2  0  0  0  0
 25 19  1  0  0  0  0
 27 33  1  0  0  0  0
 28 27  2  0  0  0  0
 29 32  2  0  0  0  0
 29 28  1  0  0  0  0
 30 32  1  0  0  0  0
 31 33  2  0  0  0  0
 32 31  1  0  0  0  0
 35 34  1  1  0  0  0
 35 10  1  0  0  0  0
 36 37  1  0  0  0  0
 37 35  1  0  0  0  0
M  END
>  <MODEL>
7

>  <REMARK>
 VINA RESULT:      -7.0      3.443      6.306
  Name = 
  3 active torsions:
  status: ('A' for Active; 'I' for Inactive)
    1  A    between atoms: C_4  and  N_12
    2  A    between atoms: C_4  and  C_37
    3  A    between atoms: C_23  and  C_30
                            x       y       z     vdW  Elec       q    Type
                         _______ _______ _______ _____ _____    ______ ____

>  <TORSDO>
F 3

$$$$
=
 OpenBabel11112417223D

 37 42  0  0  1  0  0  0  0  0999 V2000
  191.1420  170.3580  137.9560 C   0  0  0  0  0  0  0  0  0  0  0  0
  192.2640  170.6830  141.9360 C   0  0  0  0  0  0  0  0  0  0  0  0
  190.3080  172.4820  144.0110 C   0  0  0  0  0  2  0  0  0  0  0  0
  192.2500  169.2720  139.9790 C   0  0  0  0  0  0  0  0  0  0  0  0
  191.9810  172.0210  142.1680 C   0  0  0  0  0  0  0  0  0  0  0  0
  188.1610  174.9130  142.2490 C   0  0  0  0  0  0  0  0  0  0  0  0
  192.1350  170.4950  140.6000 C   0  0  0  0  0  0  0  0  0  0  0  0
  191.7500  172.6360  143.5270 C   0  0  2  0  0  3  0  0  0  0  0  0
  192.5680  168.1660  140.7900 C   0  0  0  0  0  3  0  0  0  0  0  0
  188.2150  176.2350  141.7000 N   0  0  0  0  0  2  0  0  0  0  0  0
  191.7450  171.6570  140.0290 C   0  0  0  0  0  0  0  0  0  0  0  0
  189.6930  170.0110  138.2530 C   0  0  0  0  0  1  0  0  0  0  0  0
  192.6910  169.8060  144.2580 C   0  0  0  0  0  2  0  0  0  0  0  0
  192.7200  168.3390  142.1920 C   0  0  0  0  0  3  0  0  0  0  0  0
  191.4650  171.7560  138.5580 C   0  0  0  0  0  2  0  0  0  0  0  0
  189.3660  174.1510  142.4090 N   0  0  0  0  0  0  0  0  0  0  0  0
  189.2810  172.7750  142.9090 C   0  0  0  0  0  2  0  0  0  0  0  0
  192.5610  169.6140  142.7830 C   0  0  0  0  0  0  0  0  0  0  0  0
  191.6250  172.6130  140.9830 N   0  0  0  0  0  0  0  0  0  0  0  0
  192.0590  169.2160  138.4860 C   0  0  0  0  0  2  0  0  0  0  0  0
  192.7680  172.3230  144.6410 C   0  0  1  0  0  3  0  0  0  0  0  0
  191.3040  170.4390  136.4530 C   0  0  0  0  0  1  0  0  0  0  0  0
  190.6350  174.7160  141.9470 C   0  0  0  0  0  2  0  0  0  0  0  0
  187.0510  174.4240  142.5970 O   0  0  0  0  0  0  0  0  0  0  0  0
  191.1800  173.9870  140.7180 C   0  0  0  0  0  2  0  0  0  0  0  0
  193.5680  171.0180  144.5440 C   0  0  0  0  0  2  0  0  0  0  0  0
  194.8630  173.5740  144.1020 C   0  0  0  0  0  3  0  0  0  0  0  0
  193.6850  173.4860  144.8500 C   0  0  0  0  0  0  0  0  0  0  0  0
  193.3850  174.4800  145.7940 C   0  0  0  0  0  3  0  0  0  0  0  0
  193.9670  176.5130  146.8940 F   0  0  0  0  0  0  0  0  0  0  0  0
  195.4340  175.6390  145.2310 C   0  0  0  0  0  3  0  0  0  0  0  0
  194.2590  175.5540  145.9830 C   0  0  0  0  0  0  0  0  0  0  0  0
  195.7370  174.6490  144.2910 C   0  0  0  0  0  3  0  0  0  0  0  0
  186.8540  177.3490  139.9980 C   0  0  0  0  0  1  0  0  0  0  0  0
  187.0280  177.0490  141.4800 C   0  0  2  0  0  3  0  0  0  0  0  0
  186.6120  178.1470  143.7240 C   0  0  0  0  0  1  0  0  0  0  0  0
  187.1010  178.3370  142.2950 C   0  0  0  0  0  2  0  0  0  0  0  0
  1 12  1  0  0  0  0
  1 20  1  0  0  0  0
  1 15  1  0  0  0  0
  2  5  2  0  0  0  0
  2 18  1  0  0  0  0
  4  7  1  0  0  0  0
  4  9  2  0  0  0  0
  5  8  1  0  0  0  0
  6 16  1  0  0  0  0
  6 24  2  0  0  0  0
  7  2  1  0  0  0  0
  8  3  1  1  0  0  0
  8 21  1  0  0  0  0
  9 14  1  0  0  0  0
 10  6  1  0  0  0  0
 11  7  2  0  0  0  0
 11 19  1  0  0  0  0
 13 26  1  0  0  0  0
 14 18  2  0  0  0  0
 15 11  1  0  0  0  0
 16 17  1  0  0  0  0
 17  3  1  0  0  0  0
 18 13  1  0  0  0  0
 19  5  1  0  0  0  0
 20  4  1  0  0  0  0
 21 28  1  6  0  0  0
 22  1  1  0  0  0  0
 23 16  1  0  0  0  0
 25 19  1  0  0  0  0
 25 23  1  0  0  0  0
 26 21  1  0  0  0  0
 27 33  2  0  0  0  0
 27 28  1  0  0  0  0
 28 29  2  0  0  0  0
 29 32  1  0  0  0  0
 31 32  2  0  0  0  0
 32 30  1  0  0  0  0
 33 31  1  0  0  0  0
 35 34  1  6  0  0  0
 35 10  1  0  0  0  0
 35 37  1  0  0  0  0
 37 36  1  0  0  0  0
M  END
>  <MODEL>
8

>  <REMARK>
 VINA RESULT:      -7.0      2.616      7.415
  Name = 
  3 active torsions:
  status: ('A' for Active; 'I' for Inactive)
    1  A    between atoms: C_4  and  N_12
    2  A    between atoms: C_4  and  C_37
    3  A    between atoms: C_23  and  C_30
                            x       y       z     vdW  Elec       q    Type
                         _______ _______ _______ _____ _____    ______ ____

>  <TORSDO>
F 3

$$$$
=
 OpenBabel11112417223D

 37 42  0  0  1  0  0  0  0  0999 V2000
  196.6150  174.4330  142.5250 C   0  0  0  0  0  0  0  0  0  0  0  0
  192.6760  174.6650  143.8040 C   0  0  0  0  0  0  0  0  0  0  0  0
  190.3960  172.6570  142.3440 C   0  0  0  0  0  2  0  0  0  0  0  0
  194.9940  174.8350  144.4510 C   0  0  0  0  0  0  0  0  0  0  0  0
  192.0130  174.5890  142.5880 C   0  0  0  0  0  0  0  0  0  0  0  0
  191.4340  171.4500  139.0140 C   0  0  0  0  0  0  0  0  0  0  0  0
  193.9910  174.8090  143.5090 C   0  0  0  0  0  0  0  0  0  0  0  0
  190.5720  174.1740  142.4110 C   0  0  2  0  0  3  0  0  0  0  0  0
  194.6100  174.7520  145.8030 C   0  0  0  0  0  3  0  0  0  0  0  0
  191.4440  171.8700  137.6450 N   0  0  0  0  0  2  0  0  0  0  0  0
  194.1450  174.7800  142.1660 C   0  0  0  0  0  0  0  0  0  0  0  0
  196.6820  172.9160  142.5720 C   0  0  0  0  0  1  0  0  0  0  0  0
  190.8040  174.3870  145.4650 C   0  0  0  0  0  2  0  0  0  0  0  0
  193.2370  174.6120  146.1380 C   0  0  0  0  0  3  0  0  0  0  0  0
  195.5010  174.8630  141.5270 C   0  0  0  0  0  2  0  0  0  0  0  0
  191.3910  172.4260  140.0650 N   0  0  0  0  0  0  0  0  0  0  0  0
  191.4500  171.9780  141.4600 C   0  0  0  0  0  2  0  0  0  0  0  0
  192.2480  174.5610  145.1280 C   0  0  0  0  0  0  0  0  0  0  0  0
  192.9360  174.6260  141.5740 N   0  0  0  0  0  0  0  0  0  0  0  0
  196.4140  174.9800  143.9690 C   0  0  0  0  0  2  0  0  0  0  0  0
  189.5150  174.8380  143.3140 C   0  0  1  0  0  3  0  0  0  0  0  0
  197.9410  174.9430  142.0030 C   0  0  0  0  0  1  0  0  0  0  0  0
  191.4210  173.8480  139.7200 C   0  0  0  0  0  2  0  0  0  0  0  0
  191.4570  170.2200  139.2930 O   0  0  0  0  0  0  0  0  0  0  0  0
  192.7390  174.5140  140.1230 C   0  0  0  0  0  2  0  0  0  0  0  0
  189.9670  175.3850  144.6750 C   0  0  0  0  0  2  0  0  0  0  0  0
  188.5570  177.1390  143.1330 C   0  0  0  0  0  3  0  0  0  0  0  0
  188.7610  175.8820  142.5540 C   0  0  0  0  0  0  0  0  0  0  0  0
  188.2460  175.6130  141.2770 C   0  0  0  0  0  3  0  0  0  0  0  0
  187.0410  176.3360  139.3530 F   0  0  0  0  0  0  0  0  0  0  0  0
  187.3360  177.8530  141.1670 C   0  0  0  0  0  3  0  0  0  0  0  0
  187.5360  176.5980  140.5860 C   0  0  0  0  0  0  0  0  0  0  0  0
  187.8470  178.1240  142.4400 C   0  0  0  0  0  3  0  0  0  0  0  0
  192.5730  171.3830  135.5280 C   0  0  0  0  0  1  0  0  0  0  0  0
  191.5210  170.9340  136.5310 C   0  0  2  0  0  3  0  0  0  0  0  0
  189.5100  172.1220  135.5530 C   0  0  0  0  0  1  0  0  0  0  0  0
  190.1570  170.7810  135.8640 C   0  0  0  0  0  2  0  0  0  0  0  0
  1 12  1  0  0  0  0
  1 20  1  0  0  0  0
  2 18  1  0  0  0  0
  4  9  2  0  0  0  0
  5  2  2  0  0  0  0
  6 24  2  0  0  0  0
  6 16  1  0  0  0  0
  7  2  1  0  0  0  0
  7  4  1  0  0  0  0
  8  3  1  1  0  0  0
  8  5  1  0  0  0  0
  8 21  1  0  0  0  0
  9 14  1  0  0  0  0
 10  6  1  0  0  0  0
 11  7  2  0  0  0  0
 15 11  1  0  0  0  0
 15  1  1  0  0  0  0
 16 17  1  0  0  0  0
 17  3  1  0  0  0  0
 18 13  1  0  0  0  0
 18 14  2  0  0  0  0
 19 11  1  0  0  0  0
 19  5  1  0  0  0  0
 20  4  1  0  0  0  0
 21 28  1  6  0  0  0
 21 26  1  0  0  0  0
 22  1  1  0  0  0  0
 23 16  1  0  0  0  0
 23 25  1  0  0  0  0
 25 19  1  0  0  0  0
 26 13  1  0  0  0  0
 28 27  1  0  0  0  0
 29 28  2  0  0  0  0
 30 32  1  0  0  0  0
 31 33  1  0  0  0  0
 32 31  2  0  0  0  0
 32 29  1  0  0  0  0
 33 27  2  0  0  0  0
 35 34  1  6  0  0  0
 35 10  1  0  0  0  0
 36 37  1  0  0  0  0
 37 35  1  0  0  0  0
M  END
>  <MODEL>
9

>  <REMARK>
 VINA RESULT:      -6.8      2.057      2.697
  Name = 
  3 active torsions:
  status: ('A' for Active; 'I' for Inactive)
    1  A    between atoms: C_4  and  N_12
    2  A    between atoms: C_4  and  C_37
    3  A    between atoms: C_23  and  C_30
                            x       y       z     vdW  Elec       q    Type
                         _______ _______ _______ _____ _____    ______ ____

>  <TORSDO>
F 3

$$$$
