=
 OpenBabel11112417363D

 28 31  0  0  1  0  0  0  0  0999 V2000
  187.8590  177.5760  144.5050 C   0  0  0  0  0  0  0  0  0  0  0  0
  190.8000  177.7350  147.4370 O   0  0  0  0  0  0  0  0  0  0  0  0
  185.8330  176.9910  146.3490 C   0  0  0  0  0  3  0  0  0  0  0  0
  188.8710  177.8540  143.5870 O   0  0  0  0  0  0  0  0  0  0  0  0
  190.4250  175.3440  147.9100 O   0  0  0  0  0  0  0  0  0  0  0  0
  191.0570  176.3310  146.9680 S   0  0  0  0  0  0  0  0  0  0  0  0
  193.2770  176.3710  145.3970 C   0  0  1  0  0  3  0  0  0  0  0  0
  190.4710  176.1170  145.3120 C   0  0  1  0  0  3  0  0  0  0  0  0
  186.5830  177.0630  141.3950 C   0  0  0  0  0  1  0  0  0  0  0  0
  189.1670  174.6190  143.9180 C   0  0  2  0  0  3  0  0  0  0  0  0
  192.6430  175.6910  144.3090 O   0  0  0  0  0  0  0  0  0  0  0  0
  192.8080  176.0210  146.8280 C   0  0  0  0  0  2  0  0  0  0  0  0
  188.1010  177.1600  141.3820 C   0  0  2  0  0  3  0  0  0  0  0  0
  187.9660  176.4400  145.3300 C   0  0  0  0  0  0  0  0  0  0  0  0
  194.7770  176.1890  145.3000 C   0  0  0  0  0  1  0  0  0  0  0  0
  188.8040  175.8190  141.6450 C   0  0  0  0  0  2  0  0  0  0  0  0
  186.9470  176.1540  146.2450 C   0  0  0  0  0  3  0  0  0  0  0  0
  186.7330  178.4060  144.6060 C   0  0  0  0  0  3  0  0  0  0  0  0
  185.7250  178.1160  145.5270 C   0  0  0  0  0  3  0  0  0  0  0  0
  188.6050  178.3020  142.2650 C   0  0  0  0  0  2  0  0  0  0  0  0
  190.6360  174.5610  143.4880 C   0  0  1  0  0  3  0  0  0  0  0  0
  188.1820  175.0030  142.7910 C   0  0  1  0  0  3  0  0  0  0  0  0
  191.4030  175.1170  144.6730 C   0  0  2  0  0  3  0  0  0  0  0  0
  189.1100  175.4660  145.2070 C   0  0  2  0  0  3  0  0  0  0  0  0
  188.2350  173.6350  141.0510 C   0  0  0  0  0  1  0  0  0  0  0  0
  187.5920  173.8500  142.2720 O   0  0  0  0  0  0  0  0  0  0  0  0
  191.0360  173.1210  143.2140 C   0  0  0  0  0  2  0  0  0  0  0  0
  190.3090  172.1810  144.1560 C   0  0  0  0  0  1  0  0  0  0  0  0
  1 18  2  0  0  0  0
  1 14  1  0  0  0  0
  4  1  1  0  0  0  0
  6  2  2  0  0  0  0
  6  5  2  0  0  0  0
  7 15  1  1  0  0  0
  7 12  1  0  0  0  0
  8  6  1  1  0  0  0
 10 24  1  0  0  0  0
 11 23  1  0  0  0  0
 11  7  1  0  0  0  0
 12  6  1  0  0  0  0
 13  9  1  0  0  0  0
 13 16  1  0  0  0  0
 13 20  1  0  0  0  0
 14 17  2  0  0  0  0
 16 22  1  0  0  0  0
 17  3  1  0  0  0  0
 18 19  1  0  0  0  0
 19  3  2  0  0  0  0
 20  4  1  0  0  0  0
 21 10  1  0  0  0  0
 21 23  1  0  0  0  0
 22 10  1  0  0  0  0
 23  8  1  0  0  0  0
 24  8  1  0  0  0  0
 24 14  1  0  0  0  0
 25 26  1  0  0  0  0
 26 22  1  0  0  0  0
 27 21  1  0  0  0  0
 27 28  1  0  0  0  0
M  END
>  <MODEL>
1

>  <REMARK>
 VINA RESULT:      -7.3      0.000      0.000
  Name = 
  2 active torsions:
  status: ('A' for Active; 'I' for Inactive)
    1  A    between atoms: C_5  and  C_24
    2  A    between atoms: O_17  and  C_25
                            x       y       z     vdW  Elec       q    Type
                         _______ _______ _______ _____ _____    ______ ____

>  <TORSDO>
F 2

$$$$
=
 OpenBabel11112417363D

 28 31  0  0  1  0  0  0  0  0999 V2000
  189.3070  176.3250  144.7330 C   0  0  0  0  0  0  0  0  0  0  0  0
  193.3460  176.7620  145.6130 O   0  0  0  0  0  0  0  0  0  0  0  0
  188.7460  175.0950  147.1840 C   0  0  0  0  0  3  0  0  0  0  0  0
  189.5910  176.9260  143.5060 O   0  0  0  0  0  0  0  0  0  0  0  0
  193.5750  174.3080  145.6680 O   0  0  0  0  0  0  0  0  0  0  0  0
  193.4530  175.5160  144.7820 S   0  0  0  0  0  0  0  0  0  0  0  0
  194.3880  176.2280  142.3290 C   0  0  1  0  0  3  0  0  0  0  0  0
  192.0680  175.3820  143.6880 C   0  0  1  0  0  3  0  0  0  0  0  0
  186.5760  175.9300  142.7460 C   0  0  0  0  0  1  0  0  0  0  0  0
  190.3880  173.8170  142.9040 C   0  0  2  0  0  3  0  0  0  0  0  0
  193.3360  175.5640  141.6220 O   0  0  0  0  0  0  0  0  0  0  0  0
  194.8460  175.6130  143.6720 C   0  0  0  0  0  2  0  0  0  0  0  0
  187.8030  176.3540  141.9540 C   0  0  2  0  0  3  0  0  0  0  0  0
  189.9870  175.1480  145.1000 C   0  0  0  0  0  0  0  0  0  0  0  0
  195.5850  176.3890  141.4150 C   0  0  0  0  0  1  0  0  0  0  0  0
  188.6800  175.1770  141.5000 C   0  0  0  0  0  2  0  0  0  0  0  0
  189.6970  174.5380  146.3250 C   0  0  0  0  0  3  0  0  0  0  0  0
  188.3460  176.8730  145.5940 C   0  0  0  0  0  3  0  0  0  0  0  0
  188.0690  176.2600  146.8190 C   0  0  0  0  0  3  0  0  0  0  0  0
  188.5810  177.4630  142.6630 C   0  0  0  0  0  2  0  0  0  0  0  0
  191.3580  174.1320  141.7620 C   0  0  1  0  0  3  0  0  0  0  0  0
  188.9040  174.1120  142.5870 C   0  0  1  0  0  3  0  0  0  0  0  0
  192.5880  174.6940  142.4500 C   0  0  2  0  0  3  0  0  0  0  0  0
  190.9670  174.4680  144.1780 C   0  0  2  0  0  3  0  0  0  0  0  0
  188.0870  173.0310  140.8370 C   0  0  0  0  0  1  0  0  0  0  0  0
  188.2610  172.9300  142.2180 O   0  0  0  0  0  0  0  0  0  0  0  0
  191.6960  172.8580  141.0070 C   0  0  0  0  0  2  0  0  0  0  0  0
  191.6480  171.6620  141.9380 C   0  0  0  0  0  1  0  0  0  0  0  0
  1 14  2  0  0  0  0
  1 18  1  0  0  0  0
  4  1  1  0  0  0  0
  6  2  2  0  0  0  0
  6  5  2  0  0  0  0
  7 15  1  6  0  0  0
  7 12  1  0  0  0  0
  8 24  1  0  0  0  0
  8  6  1  1  0  0  0
 10 24  1  0  0  0  0
 11  7  1  0  0  0  0
 11 23  1  0  0  0  0
 12  6  1  0  0  0  0
 13 20  1  0  0  0  0
 13  9  1  0  0  0  0
 14 17  1  0  0  0  0
 16 13  1  0  0  0  0
 16 22  1  0  0  0  0
 17  3  2  0  0  0  0
 18 19  2  0  0  0  0
 19  3  1  0  0  0  0
 20  4  1  0  0  0  0
 21 23  1  0  0  0  0
 21 10  1  0  0  0  0
 22 10  1  0  0  0  0
 23  8  1  0  0  0  0
 24 14  1  0  0  0  0
 25 26  1  0  0  0  0
 26 22  1  0  0  0  0
 27 21  1  0  0  0  0
 27 28  1  0  0  0  0
M  END
>  <MODEL>
2

>  <REMARK>
 VINA RESULT:      -7.1      1.930      2.552
  Name = 
  2 active torsions:
  status: ('A' for Active; 'I' for Inactive)
    1  A    between atoms: C_5  and  C_24
    2  A    between atoms: O_17  and  C_25
                            x       y       z     vdW  Elec       q    Type
                         _______ _______ _______ _____ _____    ______ ____

>  <TORSDO>
F 2

$$$$
=
 OpenBabel11112417363D

 28 31  0  0  1  0  0  0  0  0999 V2000
  188.7220  175.7850  145.1150 C   0  0  0  0  0  0  0  0  0  0  0  0
  187.5440  173.2280  142.0580 O   0  0  0  0  0  0  0  0  0  0  0  0
  187.5840  178.0300  143.8880 C   0  0  0  0  0  3  0  0  0  0  0  0
  189.3010  174.6690  145.7190 O   0  0  0  0  0  0  0  0  0  0  0  0
  189.0000  174.4610  140.4970 O   0  0  0  0  0  0  0  0  0  0  0  0
  188.9600  173.4470  141.6060 S   0  0  0  0  0  0  0  0  0  0  0  0
  190.3980  171.2360  142.2700 C   0  0  1  0  0  3  0  0  0  0  0  0
  189.9760  173.9330  142.9700 C   0  0  1  0  0  3  0  0  0  0  0  0
  190.6750  176.9010  147.6660 C   0  0  0  0  0  1  0  0  0  0  0  0
  191.6460  175.5640  143.6310 C   0  0  2  0  0  3  0  0  0  0  0  0
  191.4190  171.9780  142.9440 O   0  0  0  0  0  0  0  0  0  0  0  0
  189.6970  171.9140  141.0700 C   0  0  0  0  0  2  0  0  0  0  0  0
  190.9690  175.4520  147.3120 C   0  0  2  0  0  3  0  0  0  0  0  0
  189.1220  176.1540  143.8170 C   0  0  0  0  0  0  0  0  0  0  0  0
  190.9520  169.8940  141.8370 C   0  0  0  0  0  1  0  0  0  0  0  0
  192.0040  175.2920  146.1870 C   0  0  0  0  0  2  0  0  0  0  0  0
  188.5510  177.2800  143.2130 C   0  0  0  0  0  3  0  0  0  0  0  0
  187.7600  176.5480  145.7910 C   0  0  0  0  0  3  0  0  0  0  0  0
  187.1900  177.6660  145.1770 C   0  0  0  0  0  3  0  0  0  0  0  0
  189.6870  174.6500  147.0860 C   0  0  0  0  0  2  0  0  0  0  0  0
  192.2980  174.1810  143.5390 C   0  0  1  0  0  3  0  0  0  0  0  0
  191.7940  176.2540  145.0060 C   0  0  1  0  0  3  0  0  0  0  0  0
  191.3450  173.3660  142.6850 C   0  0  2  0  0  3  0  0  0  0  0  0
  190.2130  175.4230  143.0760 C   0  0  2  0  0  3  0  0  0  0  0  0
  193.8540  176.5970  145.7380 C   0  0  0  0  0  1  0  0  0  0  0  0
  192.8460  177.1690  144.9600 O   0  0  0  0  0  0  0  0  0  0  0  0
  193.6580  174.2950  142.8720 C   0  0  0  0  0  2  0  0  0  0  0  0
  193.6780  175.4660  141.9080 C   0  0  0  0  0  1  0  0  0  0  0  0
  1  4  1  0  0  0  0
  1 18  1  0  0  0  0
  3 19  1  0  0  0  0
  4 20  1  0  0  0  0
  5  6  2  0  0  0  0
  6  2  2  0  0  0  0
  7 15  1  6  0  0  0
  7 11  1  0  0  0  0
  8  6  1  6  0  0  0
  8 24  1  0  0  0  0
 10 22  1  0  0  0  0
 12  6  1  0  0  0  0
 12  7  1  0  0  0  0
 13  9  1  0  0  0  0
 14  1  2  0  0  0  0
 16 13  1  0  0  0  0
 17 14  1  0  0  0  0
 17  3  2  0  0  0  0
 19 18  2  0  0  0  0
 20 13  1  0  0  0  0
 21 10  1  0  0  0  0
 22 16  1  0  0  0  0
 23 11  1  0  0  0  0
 23  8  1  0  0  0  0
 23 21  1  0  0  0  0
 24 10  1  0  0  0  0
 24 14  1  0  0  0  0
 26 22  1  0  0  0  0
 26 25  1  0  0  0  0
 27 21  1  0  0  0  0
 28 27  1  0  0  0  0
M  END
>  <MODEL>
3

>  <REMARK>
 VINA RESULT:      -7.0      2.288      5.241
  Name = 
  2 active torsions:
  status: ('A' for Active; 'I' for Inactive)
    1  A    between atoms: C_5  and  C_24
    2  A    between atoms: O_17  and  C_25
                            x       y       z     vdW  Elec       q    Type
                         _______ _______ _______ _____ _____    ______ ____

>  <TORSDO>
F 2

$$$$
=
 OpenBabel11112417363D

 28 31  0  0  1  0  0  0  0  0999 V2000
  190.8580  176.8250  144.9570 C   0  0  0  0  0  0  0  0  0  0  0  0
  194.9290  177.5500  145.3690 O   0  0  0  0  0  0  0  0  0  0  0  0
  190.5300  176.2340  147.6740 C   0  0  0  0  0  3  0  0  0  0  0  0
  191.0260  177.1070  143.6010 O   0  0  0  0  0  0  0  0  0  0  0  0
  195.2610  175.1930  146.0100 O   0  0  0  0  0  0  0  0  0  0  0  0
  195.0250  176.1380  144.8660 S   0  0  0  0  0  0  0  0  0  0  0  0
  195.7470  176.2350  142.2450 C   0  0  1  0  0  3  0  0  0  0  0  0
  193.5690  175.7070  143.9560 C   0  0  1  0  0  3  0  0  0  0  0  0
  188.0050  175.8900  143.3600 C   0  0  0  0  0  1  0  0  0  0  0  0
  191.9000  173.9630  143.7230 C   0  0  2  0  0  3  0  0  0  0  0  0
  194.6730  175.3940  141.8130 O   0  0  0  0  0  0  0  0  0  0  0  0
  196.3260  175.9840  143.6560 C   0  0  0  0  0  2  0  0  0  0  0  0
  189.1510  176.1290  142.3900 C   0  0  2  0  0  3  0  0  0  0  0  0
  191.6090  175.7910  145.5470 C   0  0  0  0  0  0  0  0  0  0  0  0
  196.8650  176.1870  141.2250 C   0  0  0  0  0  1  0  0  0  0  0  0
  190.0390  174.8940  142.1710 C   0  0  0  0  0  2  0  0  0  0  0  0
  191.4360  175.5010  146.9040 C   0  0  0  0  0  3  0  0  0  0  0  0
  189.9420  177.5500  145.7320 C   0  0  0  0  0  3  0  0  0  0  0  0
  189.7810  177.2570  147.0880 C   0  0  0  0  0  3  0  0  0  0  0  0
  189.9350  177.3960  142.7370 C   0  0  0  0  0  2  0  0  0  0  0  0
  192.7690  174.0020  142.4630 C   0  0  1  0  0  3  0  0  0  0  0  0
  190.3860  174.1390  143.4650 C   0  0  1  0  0  3  0  0  0  0  0  0
  194.0230  174.7430  142.8880 C   0  0  2  0  0  3  0  0  0  0  0  0
  192.5450  174.9230  144.7450 C   0  0  2  0  0  3  0  0  0  0  0  0
  189.8340  172.4410  144.7740 C   0  0  0  0  0  1  0  0  0  0  0  0
  189.7650  172.8890  143.4540 O   0  0  0  0  0  0  0  0  0  0  0  0
  193.1020  172.5870  142.0210 C   0  0  0  0  0  2  0  0  0  0  0  0
  193.2290  171.6730  143.2240 C   0  0  0  0  0  1  0  0  0  0  0  0
  1 14  2  0  0  0  0
  1 18  1  0  0  0  0
  4  1  1  0  0  0  0
  6  2  2  0  0  0  0
  6  5  2  0  0  0  0
  7 15  1  6  0  0  0
  7 12  1  0  0  0  0
  8 24  1  0  0  0  0
  8  6  1  1  0  0  0
 10 24  1  0  0  0  0
 11  7  1  0  0  0  0
 11 23  1  0  0  0  0
 12  6  1  0  0  0  0
 13 20  1  0  0  0  0
 13  9  1  0  0  0  0
 14 17  1  0  0  0  0
 16 13  1  0  0  0  0
 16 22  1  0  0  0  0
 17  3  2  0  0  0  0
 18 19  2  0  0  0  0
 19  3  1  0  0  0  0
 20  4  1  0  0  0  0
 21 23  1  0  0  0  0
 21 10  1  0  0  0  0
 22 10  1  0  0  0  0
 23  8  1  0  0  0  0
 24 14  1  0  0  0  0
 26 22  1  0  0  0  0
 26 25  1  0  0  0  0
 27 21  1  0  0  0  0
 27 28  1  0  0  0  0
M  END
>  <MODEL>
4

>  <REMARK>
 VINA RESULT:      -6.8      2.483      3.560
  Name = 
  2 active torsions:
  status: ('A' for Active; 'I' for Inactive)
    1  A    between atoms: C_5  and  C_24
    2  A    between atoms: O_17  and  C_25
                            x       y       z     vdW  Elec       q    Type
                         _______ _______ _______ _____ _____    ______ ____

>  <TORSDO>
F 2

$$$$
=
 OpenBabel11112417363D

 28 31  0  0  1  0  0  0  0  0999 V2000
  189.2050  175.6040  144.7760 C   0  0  0  0  0  0  0  0  0  0  0  0
  188.7630  172.7590  141.7790 O   0  0  0  0  0  0  0  0  0  0  0  0
  188.4410  177.7140  143.1010 C   0  0  0  0  0  3  0  0  0  0  0  0
  189.5980  174.5530  145.6060 O   0  0  0  0  0  0  0  0  0  0  0  0
  190.5780  173.8450  140.5120 O   0  0  0  0  0  0  0  0  0  0  0  0
  190.2500  172.9410  141.6680 S   0  0  0  0  0  0  0  0  0  0  0  0
  191.4420  170.8120  142.8690 C   0  0  1  0  0  3  0  0  0  0  0  0
  190.9110  173.5620  143.1870 C   0  0  1  0  0  3  0  0  0  0  0  0
  190.4950  176.9700  147.6110 C   0  0  0  0  0  1  0  0  0  0  0  0
  192.3980  175.2580  144.0800 C   0  0  2  0  0  3  0  0  0  0  0  0
  192.2810  171.6210  143.6990 O   0  0  0  0  0  0  0  0  0  0  0  0
  191.0680  171.3680  141.4760 C   0  0  0  0  0  2  0  0  0  0  0  0
  190.8410  175.4950  147.4770 C   0  0  2  0  0  3  0  0  0  0  0  0
  189.9170  175.8490  143.5860 C   0  0  0  0  0  0  0  0  0  0  0  0
  192.0610  169.4390  142.7140 C   0  0  0  0  0  1  0  0  0  0  0  0
  192.1160  175.2340  146.6600 C   0  0  0  0  0  2  0  0  0  0  0  0
  189.5300  176.9080  142.7580 C   0  0  0  0  0  3  0  0  0  0  0  0
  188.1210  176.4230  145.1210 C   0  0  0  0  0  3  0  0  0  0  0  0
  187.7380  177.4730  144.2840 C   0  0  0  0  0  3  0  0  0  0  0  0
  189.6380  174.6680  147.0210 C   0  0  0  0  0  2  0  0  0  0  0  0
  193.0270  173.8760  144.2810 C   0  0  1  0  0  3  0  0  0  0  0  0
  192.2180  176.0770  145.3780 C   0  0  1  0  0  3  0  0  0  0  0  0
  192.2970  172.9780  143.3010 C   0  0  2  0  0  3  0  0  0  0  0  0
  191.1420  175.0570  143.2080 C   0  0  2  0  0  3  0  0  0  0  0  0
  194.0190  176.5240  146.5840 C   0  0  0  0  0  1  0  0  0  0  0  0
  193.2660  176.9890  145.5050 O   0  0  0  0  0  0  0  0  0  0  0  0
  194.5110  173.9340  143.9590 C   0  0  0  0  0  2  0  0  0  0  0  0
  195.3220  173.3290  145.0890 C   0  0  0  0  0  1  0  0  0  0  0  0
  1 18  1  0  0  0  0
  1  4  1  0  0  0  0
  3 19  1  0  0  0  0
  4 20  1  0  0  0  0
  5  6  2  0  0  0  0
  6  2  2  0  0  0  0
  7 15  1  6  0  0  0
  7 11  1  0  0  0  0
  8  6  1  6  0  0  0
  8 24  1  0  0  0  0
  8 23  1  0  0  0  0
 10 21  1  0  0  0  0
 10 22  1  0  0  0  0
 12  6  1  0  0  0  0
 12  7  1  0  0  0  0
 13  9  1  0  0  0  0
 14  1  2  0  0  0  0
 16 13  1  0  0  0  0
 17  3  2  0  0  0  0
 17 14  1  0  0  0  0
 19 18  2  0  0  0  0
 20 13  1  0  0  0  0
 22 26  1  0  0  0  0
 22 16  1  0  0  0  0
 23 11  1  0  0  0  0
 23 21  1  0  0  0  0
 24 14  1  0  0  0  0
 24 10  1  0  0  0  0
 26 25  1  0  0  0  0
 27 21  1  0  0  0  0
 27 28  1  0  0  0  0
M  END
>  <MODEL>
5

>  <REMARK>
 VINA RESULT:      -6.7      2.352      5.397
  Name = 
  2 active torsions:
  status: ('A' for Active; 'I' for Inactive)
    1  A    between atoms: C_5  and  C_24
    2  A    between atoms: O_17  and  C_25
                            x       y       z     vdW  Elec       q    Type
                         _______ _______ _______ _____ _____    ______ ____

>  <TORSDO>
F 2

$$$$
=
 OpenBabel11112417363D

 28 31  0  0  1  0  0  0  0  0999 V2000
  192.8370  174.0530  143.7070 C   0  0  0  0  0  0  0  0  0  0  0  0
  190.0110  173.4850  140.7120 O   0  0  0  0  0  0  0  0  0  0  0  0
  193.1810  171.3050  144.1190 C   0  0  0  0  0  3  0  0  0  0  0  0
  192.6540  175.4220  143.5100 O   0  0  0  0  0  0  0  0  0  0  0  0
  188.5060  172.4420  142.3630 O   0  0  0  0  0  0  0  0  0  0  0  0
  189.0580  173.7400  141.8450 S   0  0  0  0  0  0  0  0  0  0  0  0
  188.1290  176.2840  141.5940 C   0  0  1  0  0  3  0  0  0  0  0  0
  189.8540  174.6650  143.1260 C   0  0  1  0  0  3  0  0  0  0  0  0
  194.3750  175.6680  146.2740 C   0  0  0  0  0  1  0  0  0  0  0  0
  190.1840  174.7220  145.5290 C   0  0  2  0  0  3  0  0  0  0  0  0
  188.4570  176.6460  142.9390 O   0  0  0  0  0  0  0  0  0  0  0  0
  187.7320  174.8150  141.3260 C   0  0  0  0  0  2  0  0  0  0  0  0
  193.4340  176.5820  145.5050 C   0  0  2  0  0  3  0  0  0  0  0  0
  191.7320  173.2500  144.0490 C   0  0  0  0  0  0  0  0  0  0  0  0
  187.0410  177.2030  141.0770 C   0  0  0  0  0  1  0  0  0  0  0  0
  191.9820  176.5320  146.0060 C   0  0  0  0  0  2  0  0  0  0  0  0
  191.9150  171.8790  144.2560 C   0  0  0  0  0  3  0  0  0  0  0  0
  194.1070  173.4740  143.5810 C   0  0  0  0  0  3  0  0  0  0  0  0
  194.2780  172.1030  143.7840 C   0  0  0  0  0  3  0  0  0  0  0  0
  193.5690  176.3960  143.9930 C   0  0  0  0  0  2  0  0  0  0  0  0
  189.3100  175.9080  145.1090 C   0  0  1  0  0  3  0  0  0  0  0  0
  191.4710  175.1100  146.2920 C   0  0  1  0  0  3  0  0  0  0  0  0
  188.7790  175.5250  143.7410 C   0  0  2  0  0  3  0  0  0  0  0  0
  190.3600  173.8310  144.2810 C   0  0  2  0  0  3  0  0  0  0  0  0
  191.2020  176.2600  148.1640 C   0  0  0  0  0  1  0  0  0  0  0  0
  191.2650  174.9580  147.6640 O   0  0  0  0  0  0  0  0  0  0  0  0
  188.1720  176.0860  146.1010 C   0  0  0  0  0  2  0  0  0  0  0  0
  188.0580  177.5380  146.5200 C   0  0  0  0  0  1  0  0  0  0  0  0
  1 14  1  0  0  0  0
  2  6  2  0  0  0  0
  3 17  1  0  0  0  0
  4  1  1  0  0  0  0
  4 20  1  0  0  0  0
  6  5  2  0  0  0  0
  7 15  1  1  0  0  0
  7 11  1  0  0  0  0
  8  6  1  6  0  0  0
  8 23  1  0  0  0  0
  8 24  1  0  0  0  0
 10 22  1  0  0  0  0
 11 23  1  0  0  0  0
 12  7  1  0  0  0  0
 12  6  1  0  0  0  0
 13 16  1  0  0  0  0
 13  9  1  0  0  0  0
 14 17  2  0  0  0  0
 14 24  1  0  0  0  0
 16 22  1  0  0  0  0
 18  1  2  0  0  0  0
 18 19  1  0  0  0  0
 19  3  2  0  0  0  0
 20 13  1  0  0  0  0
 21 10  1  0  0  0  0
 21 27  1  0  0  0  0
 22 26  1  0  0  0  0
 23 21  1  0  0  0  0
 24 10  1  0  0  0  0
 26 25  1  0  0  0  0
 27 28  1  0  0  0  0
M  END
>  <MODEL>
6

>  <REMARK>
 VINA RESULT:      -6.6      2.013      6.483
  Name = 
  2 active torsions:
  status: ('A' for Active; 'I' for Inactive)
    1  A    between atoms: C_5  and  C_24
    2  A    between atoms: O_17  and  C_25
                            x       y       z     vdW  Elec       q    Type
                         _______ _______ _______ _____ _____    ______ ____

>  <TORSDO>
F 2

$$$$
=
 OpenBabel11112417363D

 28 31  0  0  1  0  0  0  0  0999 V2000
  191.0160  173.6600  144.3380 C   0  0  0  0  0  0  0  0  0  0  0  0
  189.7400  176.7350  146.8260 O   0  0  0  0  0  0  0  0  0  0  0  0
  193.6100  174.6960  144.1290 C   0  0  0  0  0  3  0  0  0  0  0  0
  189.7200  173.1530  144.4330 O   0  0  0  0  0  0  0  0  0  0  0  0
  190.1180  178.3420  144.9950 O   0  0  0  0  0  0  0  0  0  0  0  0
  189.2000  177.2820  145.5350 S   0  0  0  0  0  0  0  0  0  0  0  0
  186.5190  176.8290  145.4950 C   0  0  1  0  0  3  0  0  0  0  0  0
  188.9570  175.9760  144.3660 C   0  0  1  0  0  3  0  0  0  0  0  0
  190.7060  171.2130  141.9980 C   0  0  0  0  0  1  0  0  0  0  0  0
  189.3790  175.3660  142.0560 C   0  0  2  0  0  3  0  0  0  0  0  0
  186.5410  176.1990  144.2100 O   0  0  0  0  0  0  0  0  0  0  0  0
  187.5590  177.9410  145.7630 C   0  0  0  0  0  2  0  0  0  0  0  0
  189.3580  171.6540  142.5460 C   0  0  2  0  0  3  0  0  0  0  0  0
  191.2140  174.9670  143.8520 C   0  0  0  0  0  0  0  0  0  0  0  0
  185.1280  177.3620  145.7700 C   0  0  0  0  0  1  0  0  0  0  0  0
  188.7570  172.8590  141.8060 C   0  0  0  0  0  2  0  0  0  0  0  0
  192.5140  175.4740  143.7470 C   0  0  0  0  0  3  0  0  0  0  0  0
  192.1200  172.8800  144.7100 C   0  0  0  0  0  3  0  0  0  0  0  0
  193.4140  173.3980  144.6080 C   0  0  0  0  0  3  0  0  0  0  0  0
  189.3900  171.8210  144.0660 C   0  0  0  0  0  2  0  0  0  0  0  0
  187.8750  175.5700  142.2590 C   0  0  1  0  0  3  0  0  0  0  0  0
  189.7710  173.9760  141.5070 C   0  0  1  0  0  3  0  0  0  0  0  0
  187.7690  176.3870  143.5320 C   0  0  2  0  0  3  0  0  0  0  0  0
  190.0730  175.8190  143.3580 C   0  0  2  0  0  3  0  0  0  0  0  0
  188.8870  173.4000  139.5610 C   0  0  0  0  0  1  0  0  0  0  0  0
  189.9790  174.0580  140.1300 O   0  0  0  0  0  0  0  0  0  0  0  0
  187.2940  176.3310  141.0790 C   0  0  0  0  0  2  0  0  0  0  0  0
  187.6200  177.8070  141.1880 C   0  0  0  0  0  1  0  0  0  0  0  0
  1  4  1  0  0  0  0
  1 18  1  0  0  0  0
  3 19  1  0  0  0  0
  5  6  2  0  0  0  0
  6 12  1  0  0  0  0
  6  2  2  0  0  0  0
  7 12  1  0  0  0  0
  7 15  1  6  0  0  0
  8  6  1  1  0  0  0
  9 13  1  0  0  0  0
 10 21  1  0  0  0  0
 10 24  1  0  0  0  0
 11  7  1  0  0  0  0
 13 20  1  0  0  0  0
 14  1  2  0  0  0  0
 16 13  1  0  0  0  0
 17 14  1  0  0  0  0
 17  3  2  0  0  0  0
 19 18  2  0  0  0  0
 20  4  1  0  0  0  0
 21 23  1  0  0  0  0
 22 16  1  0  0  0  0
 22 10  1  0  0  0  0
 23 11  1  0  0  0  0
 23  8  1  0  0  0  0
 24 14  1  0  0  0  0
 24  8  1  0  0  0  0
 25 26  1  0  0  0  0
 26 22  1  0  0  0  0
 27 28  1  0  0  0  0
 27 21  1  0  0  0  0
M  END
>  <MODEL>
7

>  <REMARK>
 VINA RESULT:      -6.4      1.792      5.422
  Name = 
  2 active torsions:
  status: ('A' for Active; 'I' for Inactive)
    1  A    between atoms: C_5  and  C_24
    2  A    between atoms: O_17  and  C_25
                            x       y       z     vdW  Elec       q    Type
                         _______ _______ _______ _____ _____    ______ ____

>  <TORSDO>
F 2

$$$$
=
 OpenBabel11112417363D

 28 31  0  0  1  0  0  0  0  0999 V2000
  194.4200  176.0010  143.8160 C   0  0  0  0  0  0  0  0  0  0  0  0
  191.3330  178.7830  143.7460 O   0  0  0  0  0  0  0  0  0  0  0  0
  194.9670  176.3080  141.0870 C   0  0  0  0  0  3  0  0  0  0  0  0
  194.1370  175.8390  145.1720 O   0  0  0  0  0  0  0  0  0  0  0  0
  190.0740  177.3130  142.2190 O   0  0  0  0  0  0  0  0  0  0  0  0
  190.4910  177.5430  143.6450 S   0  0  0  0  0  0  0  0  0  0  0  0
  189.3920  177.0800  146.0890 C   0  0  1  0  0  3  0  0  0  0  0  0
  191.3620  176.1500  144.3000 C   0  0  1  0  0  3  0  0  0  0  0  0
  196.1230  173.2620  144.8940 C   0  0  0  0  0  1  0  0  0  0  0  0
  191.9400  173.8450  143.8090 C   0  0  2  0  0  3  0  0  0  0  0  0
  189.8390  175.7210  146.1450 O   0  0  0  0  0  0  0  0  0  0  0  0
  189.0560  177.6640  144.6980 C   0  0  0  0  0  2  0  0  0  0  0  0
  195.0540  173.6970  145.8840 C   0  0  2  0  0  3  0  0  0  0  0  0
  193.4060  175.7710  142.8660 C   0  0  0  0  0  0  0  0  0  0  0  0
  188.2040  177.2570  147.0110 C   0  0  0  0  0  1  0  0  0  0  0  0
  193.6680  173.0980  145.5950 C   0  0  0  0  0  2  0  0  0  0  0  0
  193.6910  175.9230  141.5040 C   0  0  0  0  0  3  0  0  0  0  0  0
  195.7020  176.3760  143.3900 C   0  0  0  0  0  3  0  0  0  0  0  0
  195.9740  176.5320  142.0290 C   0  0  0  0  0  3  0  0  0  0  0  0
  195.0390  175.2140  146.0750 C   0  0  0  0  0  2  0  0  0  0  0  0
  190.9580  173.8820  144.9840 C   0  0  1  0  0  3  0  0  0  0  0  0
  193.2740  173.1260  144.1090 C   0  0  1  0  0  3  0  0  0  0  0  0
  190.3090  175.2500  144.8960 C   0  0  2  0  0  3  0  0  0  0  0  0
  192.0350  175.2830  143.2590 C   0  0  2  0  0  3  0  0  0  0  0  0
  193.2920  171.9550  142.2300 C   0  0  0  0  0  1  0  0  0  0  0  0
  193.2230  171.8210  143.6180 O   0  0  0  0  0  0  0  0  0  0  0  0
  189.9230  172.7810  144.8260 C   0  0  0  0  0  2  0  0  0  0  0  0
  189.5260  172.6330  143.3700 C   0  0  0  0  0  1  0  0  0  0  0  0
  1  4  1  0  0  0  0
  3 17  2  0  0  0  0
  3 19  1  0  0  0  0
  4 20  1  0  0  0  0
  5  6  2  0  0  0  0
  6  2  2  0  0  0  0
  6 12  1  0  0  0  0
  7 11  1  0  0  0  0
  7 15  1  1  0  0  0
  8  6  1  6  0  0  0
  8 23  1  0  0  0  0
  9 13  1  0  0  0  0
 10 22  1  0  0  0  0
 10 21  1  0  0  0  0
 12  7  1  0  0  0  0
 13 20  1  0  0  0  0
 14 24  1  0  0  0  0
 14  1  2  0  0  0  0
 16 13  1  0  0  0  0
 17 14  1  0  0  0  0
 18  1  1  0  0  0  0
 19 18  2  0  0  0  0
 22 16  1  0  0  0  0
 23 21  1  0  0  0  0
 23 11  1  0  0  0  0
 24 10  1  0  0  0  0
 24  8  1  0  0  0  0
 25 26  1  0  0  0  0
 26 22  1  0  0  0  0
 27 21  1  0  0  0  0
 28 27  1  0  0  0  0
M  END
>  <MODEL>
8

>  <REMARK>
 VINA RESULT:      -6.4      2.426      6.276
  Name = 
  2 active torsions:
  status: ('A' for Active; 'I' for Inactive)
    1  A    between atoms: C_5  and  C_24
    2  A    between atoms: O_17  and  C_25
                            x       y       z     vdW  Elec       q    Type
                         _______ _______ _______ _____ _____    ______ ____

>  <TORSDO>
F 2

$$$$
=
 OpenBabel11112417363D

 28 31  0  0  1  0  0  0  0  0999 V2000
  193.4780  176.1550  143.2190 C   0  0  0  0  0  0  0  0  0  0  0  0
  189.9260  178.0320  142.1520 O   0  0  0  0  0  0  0  0  0  0  0  0
  193.9650  175.2520  140.6130 C   0  0  0  0  0  3  0  0  0  0  0  0
  193.2260  176.5940  144.5190 O   0  0  0  0  0  0  0  0  0  0  0  0
  188.9670  175.8360  141.5720 O   0  0  0  0  0  0  0  0  0  0  0  0
  189.3300  176.7650  142.6960 S   0  0  0  0  0  0  0  0  0  0  0  0
  188.3320  177.3080  145.1670 C   0  0  1  0  0  3  0  0  0  0  0  0
  190.4450  175.9990  143.8380 C   0  0  1  0  0  3  0  0  0  0  0  0
  195.6590  174.5510  145.2770 C   0  0  0  0  0  1  0  0  0  0  0  0
  191.4430  173.8610  144.4020 C   0  0  2  0  0  3  0  0  0  0  0  0
  189.0230  176.2250  145.7970 O   0  0  0  0  0  0  0  0  0  0  0  0
  187.8960  177.1180  143.6960 C   0  0  0  0  0  2  0  0  0  0  0  0
  194.5240  175.2090  146.0460 C   0  0  2  0  0  3  0  0  0  0  0  0
  192.5270  175.3470  142.5660 C   0  0  0  0  0  0  0  0  0  0  0  0
  187.1280  177.6910  146.0040 C   0  0  0  0  0  1  0  0  0  0  0  0
  193.2760  174.3230  146.1800 C   0  0  0  0  0  2  0  0  0  0  0  0
  192.7810  174.8970  141.2660 C   0  0  0  0  0  3  0  0  0  0  0  0
  194.6680  176.4980  142.5630 C   0  0  0  0  0  3  0  0  0  0  0  0
  194.9090  176.0500  141.2620 C   0  0  0  0  0  3  0  0  0  0  0  0
  194.2270  176.6170  145.5270 C   0  0  0  0  0  2  0  0  0  0  0  0
  190.4690  174.2730  145.5090 C   0  0  1  0  0  3  0  0  0  0  0  0
  192.8870  173.5950  144.8820 C   0  0  1  0  0  3  0  0  0  0  0  0
  189.5760  175.3160  144.8640 C   0  0  2  0  0  3  0  0  0  0  0  0
  191.2700  174.8750  143.2520 C   0  0  2  0  0  3  0  0  0  0  0  0
  193.2950  171.7350  143.7540 C   0  0  0  0  0  1  0  0  0  0  0  0
  193.0820  172.2230  145.0440 O   0  0  0  0  0  0  0  0  0  0  0  0
  189.6570  173.0680  145.9560 C   0  0  0  0  0  2  0  0  0  0  0  0
  189.5400  172.0610  144.8290 C   0  0  0  0  0  1  0  0  0  0  0  0
  1  4  1  0  0  0  0
  2  6  2  0  0  0  0
  3 19  2  0  0  0  0
  3 17  1  0  0  0  0
  4 20  1  0  0  0  0
  5  6  2  0  0  0  0
  6 12  1  0  0  0  0
  7 11  1  0  0  0  0
  7 15  1  1  0  0  0
  8  6  1  6  0  0  0
  8 23  1  0  0  0  0
  9 13  1  0  0  0  0
 10 22  1  0  0  0  0
 10 21  1  0  0  0  0
 12  7  1  0  0  0  0
 13 16  1  0  0  0  0
 14  1  1  0  0  0  0
 14 24  1  0  0  0  0
 17 14  2  0  0  0  0
 18  1  2  0  0  0  0
 19 18  1  0  0  0  0
 20 13  1  0  0  0  0
 21 27  1  0  0  0  0
 22 26  1  0  0  0  0
 22 16  1  0  0  0  0
 23 21  1  0  0  0  0
 23 11  1  0  0  0  0
 24  8  1  0  0  0  0
 24 10  1  0  0  0  0
 25 26  1  0  0  0  0
 28 27  1  0  0  0  0
M  END
>  <MODEL>
9

>  <REMARK>
 VINA RESULT:      -6.3      2.336      6.140
  Name = 
  2 active torsions:
  status: ('A' for Active; 'I' for Inactive)
    1  A    between atoms: C_5  and  C_24
    2  A    between atoms: O_17  and  C_25
                            x       y       z     vdW  Elec       q    Type
                         _______ _______ _______ _____ _____    ______ ____

>  <TORSDO>
F 2

$$$$
