=
 OpenBabel11112416433D

 32 37  0  0  1  0  0  0  0  0999 V2000
  186.5210  176.8160  146.6240 C   0  0  0  0  0  2  0  0  0  0  0  0
  190.7090  175.6210  144.3050 C   0  0  2  0  0  3  0  0  0  0  0  0
  189.9430  173.5620  139.8800 C   0  0  0  0  0  3  0  0  0  0  0  0
  191.3040  173.3030  139.7500 C   0  0  0  0  0  3  0  0  0  0  0  0
  193.0070  175.3880  145.2610 C   0  0  0  0  0  0  0  0  0  0  0  0
  194.3720  174.8880  145.1380 C   0  0  0  0  0  0  0  0  0  0  0  0
  189.0340  177.4100  144.8770 C   0  0  1  0  0  3  0  0  0  0  0  0
  188.4170  175.6170  143.2380 C   0  0  0  0  0  3  0  0  0  0  0  0
  196.2260  173.9860  144.0530 C   0  0  2  0  0  3  0  0  0  0  0  0
  186.5410  176.8080  144.2290 C   0  0  0  0  0  2  0  0  0  0  0  0
  189.4640  174.1980  141.0230 C   0  0  0  0  0  3  0  0  0  0  0  0
  189.8400  175.2290  143.1400 C   0  0  0  0  0  0  0  0  0  0  0  0
  190.3320  174.5800  142.0650 C   0  0  0  0  0  0  0  0  0  0  0  0
  192.6000  174.6710  142.8990 C   0  0  0  0  0  0  0  0  0  0  0  0
  196.5380  174.2420  145.5350 C   0  0  0  0  0  2  0  0  0  0  0  0
  188.0160  176.4970  146.7650 C   0  0  0  0  0  2  0  0  0  0  0  0
  188.0190  176.5980  144.0550 C   0  0  0  0  0  0  0  0  0  0  0  0
  195.2820  174.8480  146.0890 C   0  0  0  0  0  3  0  0  0  0  0  0
  188.7920  177.5630  146.2700 O   0  0  0  0  0  0  0  0  0  0  0  0
  186.2470  177.6060  145.4180 N   0  0  0  0  0  0  0  0  0  0  0  0
  192.1830  173.6770  140.7660 C   0  0  0  0  0  3  0  0  0  0  0  0
  191.7220  174.3140  141.9350 C   0  0  0  0  0  0  0  0  0  0  0  0
  194.0920  174.4820  142.6660 C   0  0  0  0  0  2  0  0  0  0  0  0
  190.5110  177.1070  144.5850 C   0  0  0  0  0  2  0  0  0  0  0  0
  192.6030  175.8710  146.3550 O   0  0  0  0  0  0  0  0  0  0  0  0
  197.1020  174.8880  143.2010 C   0  0  0  0  0  1  0  0  0  0  0  0
  192.1270  175.2900  144.1230 N   0  0  0  0  0  0  0  0  0  0  0  0
  194.8300  174.3620  143.9180 N   0  0  0  0  0  0  0  0  0  0  0  0
  184.8180  177.8720  145.3990 C   0  0  0  0  0  2  0  0  0  0  0  0
  184.4950  178.8740  144.3390 C   0  0  0  0  0  0  0  0  0  0  0  0
  185.2600  180.1490  144.2660 C   0  0  0  0  0  1  0  0  0  0  0  0
  183.5970  178.6580  143.5430 O   0  0  0  0  0  0  0  0  0  0  0  0
  1 16  1  0  0  0  0
  2 24  1  6  0  0  0
  3 11  2  0  0  0  0
  4  3  1  0  0  0  0
  4 21  2  0  0  0  0
  5 25  2  0  0  0  0
  6  5  1  0  0  0  0
  6 18  2  0  0  0  0
  7 24  1  1  0  0  0
  7 19  1  0  0  0  0
  8 17  2  0  0  0  0
  9 26  1  6  0  0  0
  9 15  1  0  0  0  0
 10 20  1  0  0  0  0
 11 13  1  0  0  0  0
 12  8  1  0  0  0  0
 12  2  1  0  0  0  0
 13 12  2  0  0  0  0
 14 27  1  0  0  0  0
 15 18  1  0  0  0  0
 17 10  1  0  0  0  0
 17  7  1  0  0  0  0
 19 16  1  0  0  0  0
 20  1  1  0  0  0  0
 21 22  1  0  0  0  0
 22 13  1  0  0  0  0
 22 14  2  0  0  0  0
 23 14  1  0  0  0  0
 23 28  1  0  0  0  0
 27  2  1  0  0  0  0
 27  5  1  0  0  0  0
 28  9  1  0  0  0  0
 28  6  1  0  0  0  0
 29 20  1  0  0  0  0
 30 29  1  0  0  0  0
 31 30  1  0  0  0  0
 32 30  2  0  0  0  0
M  END
>  <MODEL>
1

>  <REMARK>
 VINA RESULT:      -8.3      0.000      0.000
  Name = 
  2 active torsions:
  status: ('A' for Active; 'I' for Inactive)
    1  A    between atoms: N_20  and  C_29
    2  A    between atoms: C_29  and  C_30
                            x       y       z     vdW  Elec       q    Type
                         _______ _______ _______ _____ _____    ______ ____

>  <TORSDO>
F 2

$$$$
=
 OpenBabel11112416433D

 32 37  0  0  1  0  0  0  0  0999 V2000
  188.8920  172.4840  139.6550 C   0  0  0  0  0  2  0  0  0  0  0  0
  188.6320  175.3850  143.6390 C   0  0  2  0  0  3  0  0  0  0  0  0
  192.4810  174.8280  146.6840 C   0  0  0  0  0  3  0  0  0  0  0  0
  191.8820  175.6690  147.6170 C   0  0  0  0  0  3  0  0  0  0  0  0
  186.6450  176.5900  144.5600 C   0  0  0  0  0  0  0  0  0  0  0  0
  186.0010  177.2790  145.6740 C   0  0  0  0  0  0  0  0  0  0  0  0
  189.2420  175.1660  141.2070 C   0  0  1  0  0  3  0  0  0  0  0  0
  190.6740  174.0660  142.9450 C   0  0  0  0  0  3  0  0  0  0  0  0
  185.8780  178.3410  147.7440 C   0  0  2  0  0  3  0  0  0  0  0  0
  190.9320  173.1990  140.6860 C   0  0  0  0  0  2  0  0  0  0  0  0
  191.8360  174.5570  145.4790 C   0  0  0  0  0  3  0  0  0  0  0  0
  189.9970  174.8590  143.9930 C   0  0  0  0  0  0  0  0  0  0  0  0
  190.5750  175.1110  145.1840 C   0  0  0  0  0  0  0  0  0  0  0  0
  188.7590  176.5380  145.8990 C   0  0  0  0  0  0  0  0  0  0  0  0
  184.4950  178.2910  147.0790 C   0  0  0  0  0  2  0  0  0  0  0  0
  187.9860  173.3040  140.5850 C   0  0  0  0  0  2  0  0  0  0  0  0
  190.3210  174.1670  141.6590 C   0  0  0  0  0  0  0  0  0  0  0  0
  184.7320  177.6210  145.7570 C   0  0  0  0  0  3  0  0  0  0  0  0
  188.1910  174.6810  140.3800 O   0  0  0  0  0  0  0  0  0  0  0  0
  190.1810  173.1490  139.4330 N   0  0  0  0  0  0  0  0  0  0  0  0
  190.6380  176.2350  147.3440 C   0  0  0  0  0  3  0  0  0  0  0  0
  189.9620  175.9690  146.1370 C   0  0  0  0  0  0  0  0  0  0  0  0
  188.1940  177.5480  146.8880 C   0  0  0  0  0  2  0  0  0  0  0  0
  188.7180  176.1090  142.3000 C   0  0  0  0  0  2  0  0  0  0  0  0
  185.9810  176.2890  143.5300 O   0  0  0  0  0  0  0  0  0  0  0  0
  186.3160  179.7910  147.8630 C   0  0  0  0  0  1  0  0  0  0  0  0
  188.0380  176.2360  144.6760 N   0  0  0  0  0  0  0  0  0  0  0  0
  186.7390  177.6280  146.8180 N   0  0  0  0  0  0  0  0  0  0  0  0
  190.9430  172.3080  138.5240 C   0  0  0  0  0  2  0  0  0  0  0  0
  190.4220  172.4500  137.1310 C   0  0  0  0  0  0  0  0  0  0  0  0
  190.0040  171.2430  136.3690 C   0  0  0  0  0  1  0  0  0  0  0  0
  190.3510  173.5520  136.6120 O   0  0  0  0  0  0  0  0  0  0  0  0
  1 16  1  0  0  0  0
  2 24  1  6  0  0  0
  2 12  1  0  0  0  0
  2 27  1  0  0  0  0
  3  4  1  0  0  0  0
  5 27  1  0  0  0  0
  5  6  1  0  0  0  0
  6 18  2  0  0  0  0
  6 28  1  0  0  0  0
  7 17  1  0  0  0  0
  7 24  1  1  0  0  0
  8 12  1  0  0  0  0
  9 26  1  6  0  0  0
 10 17  1  0  0  0  0
 11  3  2  0  0  0  0
 12 13  2  0  0  0  0
 13 11  1  0  0  0  0
 13 22  1  0  0  0  0
 14 22  2  0  0  0  0
 14 23  1  0  0  0  0
 15  9  1  0  0  0  0
 17  8  2  0  0  0  0
 18 15  1  0  0  0  0
 19 16  1  0  0  0  0
 19  7  1  0  0  0  0
 20  1  1  0  0  0  0
 20 10  1  0  0  0  0
 21  4  2  0  0  0  0
 22 21  1  0  0  0  0
 25  5  2  0  0  0  0
 27 14  1  0  0  0  0
 28 23  1  0  0  0  0
 28  9  1  0  0  0  0
 29 20  1  0  0  0  0
 30 29  1  0  0  0  0
 31 30  1  0  0  0  0
 32 30  2  0  0  0  0
M  END
>  <MODEL>
2

>  <REMARK>
 VINA RESULT:      -8.2      2.977      7.999
  Name = 
  2 active torsions:
  status: ('A' for Active; 'I' for Inactive)
    1  A    between atoms: N_20  and  C_29
    2  A    between atoms: C_29  and  C_30
                            x       y       z     vdW  Elec       q    Type
                         _______ _______ _______ _____ _____    ______ ____

>  <TORSDO>
F 2

$$$$
=
 OpenBabel11112416433D

 32 37  0  0  1  0  0  0  0  0999 V2000
  187.4390  176.8320  141.1270 C   0  0  0  0  0  2  0  0  0  0  0  0
  190.8590  174.1430  143.4560 C   0  0  2  0  0  3  0  0  0  0  0  0
  194.1990  176.9050  145.8260 C   0  0  0  0  0  3  0  0  0  0  0  0
  194.9380  175.7690  146.1380 C   0  0  0  0  0  3  0  0  0  0  0  0
  191.4360  171.7340  143.1260 C   0  0  0  0  0  0  0  0  0  0  0  0
  192.3750  170.6320  143.3100 C   0  0  0  0  0  0  0  0  0  0  0  0
  188.5430  175.1260  143.4920 C   0  0  1  0  0  3  0  0  0  0  0  0
  190.5300  176.6320  143.7550 C   0  0  0  0  0  3  0  0  0  0  0  0
  194.2270  169.5300  144.1950 C   0  0  2  0  0  3  0  0  0  0  0  0
  188.4680  177.7400  143.0900 C   0  0  0  0  0  2  0  0  0  0  0  0
  193.0170  176.7860  145.0980 C   0  0  0  0  0  3  0  0  0  0  0  0
  191.3840  175.4480  143.9900 C   0  0  0  0  0  0  0  0  0  0  0  0
  192.5520  175.5320  144.6580 C   0  0  0  0  0  0  0  0  0  0  0  0
  192.9000  173.1400  144.5890 C   0  0  0  0  0  0  0  0  0  0  0  0
  193.4910  168.6300  143.1910 C   0  0  0  0  0  2  0  0  0  0  0  0
  188.1590  175.4790  141.2210 C   0  0  0  0  0  2  0  0  0  0  0  0
  189.2250  176.5060  143.4930 C   0  0  0  0  0  0  0  0  0  0  0  0
  192.3170  169.4470  142.7370 C   0  0  0  0  0  3  0  0  0  0  0  0
  187.7410  174.7810  142.3700 O   0  0  0  0  0  0  0  0  0  0  0  0
  187.1940  177.4080  142.4550 N   0  0  0  0  0  0  0  0  0  0  0  0
  194.4940  174.5150  145.7190 C   0  0  0  0  0  3  0  0  0  0  0  0
  193.3070  174.3700  144.9750 C   0  0  0  0  0  0  0  0  0  0  0  0
  193.6680  171.9110  145.0550 C   0  0  0  0  0  2  0  0  0  0  0  0
  189.4270  173.9550  143.9430 C   0  0  0  0  0  2  0  0  0  0  0  0
  190.4290  171.5920  142.3780 O   0  0  0  0  0  0  0  0  0  0  0  0
  194.1320  168.9080  145.5780 C   0  0  0  0  0  1  0  0  0  0  0  0
  191.7000  172.9870  143.7870 N   0  0  0  0  0  0  0  0  0  0  0  0
  193.4910  170.7800  144.1510 N   0  0  0  0  0  0  0  0  0  0  0  0
  186.4900  178.6630  142.2510 C   0  0  0  0  0  2  0  0  0  0  0  0
  185.3190  178.7510  143.1740 C   0  0  0  0  0  0  0  0  0  0  0  0
  185.2900  179.7940  144.2360 C   0  0  0  0  0  1  0  0  0  0  0  0
  184.3930  177.9630  143.0700 O   0  0  0  0  0  0  0  0  0  0  0  0
  1 16  1  0  0  0  0
  1 20  1  0  0  0  0
  2 27  1  0  0  0  0
  2 24  1  1  0  0  0
  2 12  1  0  0  0  0
  3  4  1  0  0  0  0
  5  6  1  0  0  0  0
  5 27  1  0  0  0  0
  6 28  1  0  0  0  0
  7 17  1  0  0  0  0
  7 24  1  6  0  0  0
  8 12  1  0  0  0  0
  9 26  1  1  0  0  0
 10 17  1  0  0  0  0
 11  3  2  0  0  0  0
 12 13  2  0  0  0  0
 13 22  1  0  0  0  0
 13 11  1  0  0  0  0
 14 22  2  0  0  0  0
 14 23  1  0  0  0  0
 15  9  1  0  0  0  0
 16 19  1  0  0  0  0
 17  8  2  0  0  0  0
 18 15  1  0  0  0  0
 18  6  2  0  0  0  0
 19  7  1  0  0  0  0
 20 10  1  0  0  0  0
 21  4  2  0  0  0  0
 22 21  1  0  0  0  0
 25  5  2  0  0  0  0
 27 14  1  0  0  0  0
 28  9  1  0  0  0  0
 28 23  1  0  0  0  0
 29 20  1  0  0  0  0
 29 30  1  0  0  0  0
 30 31  1  0  0  0  0
 32 30  2  0  0  0  0
M  END
>  <MODEL>
3

>  <REMARK>
 VINA RESULT:      -7.9      2.978      4.541
  Name = 
  2 active torsions:
  status: ('A' for Active; 'I' for Inactive)
    1  A    between atoms: N_20  and  C_29
    2  A    between atoms: C_29  and  C_30
                            x       y       z     vdW  Elec       q    Type
                         _______ _______ _______ _____ _____    ______ ____

>  <TORSDO>
F 2

$$$$
=
 OpenBabel11112416433D

 32 37  0  0  1  0  0  0  0  0999 V2000
  186.3020  179.0410  142.8930 C   0  0  0  0  0  2  0  0  0  0  0  0
  188.9360  174.9780  141.9410 C   0  0  2  0  0  3  0  0  0  0  0  0
  192.4260  174.1060  145.3270 C   0  0  0  0  0  3  0  0  0  0  0  0
  192.9200  173.0510  144.5660 C   0  0  0  0  0  3  0  0  0  0  0  0
  189.1210  173.7090  139.7960 C   0  0  0  0  0  0  0  0  0  0  0  0
  189.8310  172.7380  138.9700 C   0  0  0  0  0  0  0  0  0  0  0  0
  186.8340  175.9690  142.9070 C   0  0  1  0  0  3  0  0  0  0  0  0
  189.0100  176.2700  144.1130 C   0  0  0  0  0  3  0  0  0  0  0  0
  191.3580  171.0410  138.5060 C   0  0  2  0  0  3  0  0  0  0  0  0
  187.2540  177.8370  144.7310 C   0  0  0  0  0  2  0  0  0  0  0  0
  191.3270  174.8330  144.8750 C   0  0  0  0  0  3  0  0  0  0  0  0
  189.6170  175.2260  143.2600 C   0  0  0  0  0  0  0  0  0  0  0  0
  190.7030  174.5280  143.6490 C   0  0  0  0  0  0  0  0  0  0  0  0
  190.6390  173.1090  141.6930 C   0  0  0  0  0  0  0  0  0  0  0  0
  190.5910  171.4400  137.2370 C   0  0  0  0  0  2  0  0  0  0  0  0
  186.7640  178.0340  141.8290 C   0  0  0  0  0  2  0  0  0  0  0  0
  187.7380  176.6500  143.9480 C   0  0  0  0  0  0  0  0  0  0  0  0
  189.6320  172.5010  137.6900 C   0  0  0  0  0  3  0  0  0  0  0  0
  186.1100  176.8000  142.0080 O   0  0  0  0  0  0  0  0  0  0  0  0
  186.0180  178.3830  144.1740 N   0  0  0  0  0  0  0  0  0  0  0  0
  192.3150  172.7270  143.3530 C   0  0  0  0  0  3  0  0  0  0  0  0
  191.2080  173.4520  142.8700 C   0  0  0  0  0  0  0  0  0  0  0  0
  191.1290  171.8740  140.9510 C   0  0  0  0  0  2  0  0  0  0  0  0
  187.4480  174.7560  142.1930 C   0  0  0  0  0  2  0  0  0  0  0  0
  188.1910  174.4050  139.3010 O   0  0  0  0  0  0  0  0  0  0  0  0
  191.0090  169.6070  138.8640 C   0  0  0  0  0  1  0  0  0  0  0  0
  189.5240  173.8770  141.1700 N   0  0  0  0  0  0  0  0  0  0  0  0
  190.8580  171.9510  139.5200 N   0  0  0  0  0  0  0  0  0  0  0  0
  185.5660  179.4160  145.0920 C   0  0  0  0  0  2  0  0  0  0  0  0
  185.0540  178.7970  146.3510 C   0  0  0  0  0  0  0  0  0  0  0  0
  185.7620  179.0410  147.6380 C   0  0  0  0  0  1  0  0  0  0  0  0
  184.0660  178.0810  146.3260 O   0  0  0  0  0  0  0  0  0  0  0  0
  1 20  1  0  0  0  0
  2 24  1  1  0  0  0
  2 12  1  0  0  0  0
  4  3  1  0  0  0  0
  5 27  1  0  0  0  0
  6 28  1  0  0  0  0
  6  5  1  0  0  0  0
  7 24  1  6  0  0  0
  7 17  1  0  0  0  0
  9 26  1  1  0  0  0
  9 28  1  0  0  0  0
 11  3  2  0  0  0  0
 12 13  2  0  0  0  0
 12  8  1  0  0  0  0
 13 11  1  0  0  0  0
 14 22  2  0  0  0  0
 15 18  1  0  0  0  0
 15  9  1  0  0  0  0
 16 19  1  0  0  0  0
 16  1  1  0  0  0  0
 17  8  2  0  0  0  0
 17 10  1  0  0  0  0
 18  6  2  0  0  0  0
 19  7  1  0  0  0  0
 20 10  1  0  0  0  0
 20 29  1  0  0  0  0
 21  4  2  0  0  0  0
 22 21  1  0  0  0  0
 22 13  1  0  0  0  0
 23 14  1  0  0  0  0
 25  5  2  0  0  0  0
 27 14  1  0  0  0  0
 27  2  1  0  0  0  0
 28 23  1  0  0  0  0
 29 30  1  0  0  0  0
 30 31  1  0  0  0  0
 32 30  2  0  0  0  0
M  END
>  <MODEL>
4

>  <REMARK>
 VINA RESULT:      -7.9      2.873      5.229
  Name = 
  2 active torsions:
  status: ('A' for Active; 'I' for Inactive)
    1  A    between atoms: N_20  and  C_29
    2  A    between atoms: C_29  and  C_30
                            x       y       z     vdW  Elec       q    Type
                         _______ _______ _______ _____ _____    ______ ____

>  <TORSDO>
F 2

$$$$
=
 OpenBabel11112416433D

 32 37  0  0  1  0  0  0  0  0999 V2000
  186.8750  178.2880  143.0000 C   0  0  0  0  0  2  0  0  0  0  0  0
  190.6750  175.1430  143.1510 C   0  0  2  0  0  3  0  0  0  0  0  0
  194.0740  176.3870  146.5130 C   0  0  0  0  0  3  0  0  0  0  0  0
  194.9090  175.3670  146.0670 C   0  0  0  0  0  3  0  0  0  0  0  0
  191.3570  173.4420  141.4520 C   0  0  0  0  0  0  0  0  0  0  0  0
  192.3740  172.5460  140.9120 C   0  0  0  0  0  0  0  0  0  0  0  0
  188.3210  175.6660  143.8710 C   0  0  1  0  0  3  0  0  0  0  0  0
  190.2310  176.9530  144.8600 C   0  0  0  0  0  3  0  0  0  0  0  0
  194.3710  171.3450  140.8950 C   0  0  2  0  0  3  0  0  0  0  0  0
  188.0480  178.0090  145.0690 C   0  0  0  0  0  2  0  0  0  0  0  0
  192.8320  176.5790  145.9130 C   0  0  0  0  0  3  0  0  0  0  0  0
  191.1740  175.9520  144.3180 C   0  0  0  0  0  0  0  0  0  0  0  0
  192.3990  175.7640  144.8490 C   0  0  0  0  0  0  0  0  0  0  0  0
  192.8800  173.9020  143.3830 C   0  0  0  0  0  0  0  0  0  0  0  0
  193.5880  171.1120  139.5940 C   0  0  0  0  0  2  0  0  0  0  0  0
  187.6800  177.2150  142.2520 C   0  0  0  0  0  2  0  0  0  0  0  0
  188.9150  176.8590  144.6390 C   0  0  0  0  0  0  0  0  0  0  0  0
  192.3270  171.9070  139.7610 C   0  0  0  0  0  3  0  0  0  0  0  0
  187.4270  175.9430  142.8000 O   0  0  0  0  0  0  0  0  0  0  0  0
  186.7370  177.9650  144.4250 N   0  0  0  0  0  0  0  0  0  0  0  0
  194.4990  174.5420  145.0200 C   0  0  0  0  0  3  0  0  0  0  0  0
  193.2510  174.7220  144.3920 C   0  0  0  0  0  0  0  0  0  0  0  0
  193.7640  172.7210  143.0070 C   0  0  0  0  0  2  0  0  0  0  0  0
  189.3160  174.5530  143.5100 C   0  0  0  0  0  2  0  0  0  0  0  0
  190.2870  173.6460  140.8140 O   0  0  0  0  0  0  0  0  0  0  0  0
  194.4590  170.0360  141.6600 C   0  0  0  0  0  1  0  0  0  0  0  0
  191.6130  174.1070  142.7050 N   0  0  0  0  0  0  0  0  0  0  0  0
  193.5610  172.3040  141.6250 N   0  0  0  0  0  0  0  0  0  0  0  0
  185.9410  179.0220  145.0260 C   0  0  0  0  0  2  0  0  0  0  0  0
  184.7790  178.4380  145.7610 C   0  0  0  0  0  0  0  0  0  0  0  0
  184.9420  177.1640  146.5120 C   0  0  0  0  0  1  0  0  0  0  0  0
  183.6940  178.9950  145.7340 O   0  0  0  0  0  0  0  0  0  0  0  0
  1 20  1  0  0  0  0
  2 24  1  1  0  0  0
  2 12  1  0  0  0  0
  4  3  1  0  0  0  0
  5 27  1  0  0  0  0
  6  5  1  0  0  0  0
  6 28  1  0  0  0  0
  7 24  1  6  0  0  0
  7 17  1  0  0  0  0
  9 28  1  0  0  0  0
  9 26  1  1  0  0  0
 11  3  2  0  0  0  0
 12 13  2  0  0  0  0
 12  8  1  0  0  0  0
 13 11  1  0  0  0  0
 14 22  2  0  0  0  0
 15 18  1  0  0  0  0
 15  9  1  0  0  0  0
 16 19  1  0  0  0  0
 16  1  1  0  0  0  0
 17  8  2  0  0  0  0
 17 10  1  0  0  0  0
 18  6  2  0  0  0  0
 19  7  1  0  0  0  0
 20 29  1  0  0  0  0
 20 10  1  0  0  0  0
 21  4  2  0  0  0  0
 22 13  1  0  0  0  0
 22 21  1  0  0  0  0
 23 14  1  0  0  0  0
 25  5  2  0  0  0  0
 27  2  1  0  0  0  0
 27 14  1  0  0  0  0
 28 23  1  0  0  0  0
 29 30  1  0  0  0  0
 30 31  1  0  0  0  0
 32 30  2  0  0  0  0
M  END
>  <MODEL>
5

>  <REMARK>
 VINA RESULT:      -7.6      2.180      4.318
  Name = 
  2 active torsions:
  status: ('A' for Active; 'I' for Inactive)
    1  A    between atoms: N_20  and  C_29
    2  A    between atoms: C_29  and  C_30
                            x       y       z     vdW  Elec       q    Type
                         _______ _______ _______ _____ _____    ______ ____

>  <TORSDO>
F 2

$$$$
=
 OpenBabel11112416433D

 32 37  0  0  1  0  0  0  0  0999 V2000
  195.1860  175.7910  145.6370 C   0  0  0  0  0  2  0  0  0  0  0  0
  190.2860  176.2240  145.2470 C   0  0  2  0  0  3  0  0  0  0  0  0
  188.5830  174.9160  140.7980 C   0  0  0  0  0  3  0  0  0  0  0  0
  187.3050  175.3390  141.1480 C   0  0  0  0  0  3  0  0  0  0  0  0
  188.7140  177.5000  146.7120 C   0  0  0  0  0  0  0  0  0  0  0  0
  187.4050  178.1110  146.9150 C   0  0  0  0  0  0  0  0  0  0  0  0
  192.2410  174.8380  146.0150 C   0  0  1  0  0  3  0  0  0  0  0  0
  191.7710  175.0610  143.5630 C   0  0  0  0  0  3  0  0  0  0  0  0
  185.1610  178.5510  146.4670 C   0  0  2  0  0  3  0  0  0  0  0  0
  194.0260  174.3400  144.1260 C   0  0  0  0  0  2  0  0  0  0  0  0
  189.6250  175.0230  141.7170 C   0  0  0  0  0  3  0  0  0  0  0  0
  190.4370  175.6160  143.8790 C   0  0  0  0  0  0  0  0  0  0  0  0
  189.4160  175.5630  143.0000 C   0  0  0  0  0  0  0  0  0  0  0  0
  187.8510  176.5120  144.5810 C   0  0  0  0  0  0  0  0  0  0  0  0
  185.6280  179.3310  147.7050 C   0  0  0  0  0  2  0  0  0  0  0  0
  193.9120  176.4550  146.1790 C   0  0  0  0  0  2  0  0  0  0  0  0
  192.6310  174.7250  144.5300 C   0  0  0  0  0  0  0  0  0  0  0  0
  187.0610  178.9260  147.8910 C   0  0  0  0  0  3  0  0  0  0  0  0
  193.1360  175.5180  146.8870 O   0  0  0  0  0  0  0  0  0  0  0  0
  194.9490  174.3930  145.2580 N   0  0  0  0  0  0  0  0  0  0  0  0
  187.0720  175.8710  142.4150 C   0  0  0  0  0  3  0  0  0  0  0  0
  188.1110  175.9980  143.3580 C   0  0  0  0  0  0  0  0  0  0  0  0
  186.4180  176.8480  144.9690 C   0  0  0  0  0  2  0  0  0  0  0  0
  190.7800  175.2220  146.2850 C   0  0  0  0  0  2  0  0  0  0  0  0
  189.6470  177.7100  147.5350 O   0  0  0  0  0  0  0  0  0  0  0  0
  184.1060  177.5420  146.8880 C   0  0  0  0  0  1  0  0  0  0  0  0
  188.9250  176.6830  145.5430 N   0  0  0  0  0  0  0  0  0  0  0  0
  186.3580  177.8690  146.0080 N   0  0  0  0  0  0  0  0  0  0  0  0
  196.2160  173.8580  144.7880 C   0  0  0  0  0  2  0  0  0  0  0  0
  196.8110  172.9590  145.8220 C   0  0  0  0  0  0  0  0  0  0  0  0
  196.9220  171.4980  145.5580 C   0  0  0  0  0  1  0  0  0  0  0  0
  197.1910  173.4160  146.8880 O   0  0  0  0  0  0  0  0  0  0  0  0
  1 16  1  0  0  0  0
  2 27  1  0  0  0  0
  2 24  1  1  0  0  0
  3  4  1  0  0  0  0
  3 11  2  0  0  0  0
  4 21  2  0  0  0  0
  5  6  1  0  0  0  0
  5 25  2  0  0  0  0
  6 18  2  0  0  0  0
  7 24  1  6  0  0  0
  7 19  1  0  0  0  0
  8 12  1  0  0  0  0
  8 17  2  0  0  0  0
  9 26  1  1  0  0  0
  9 15  1  0  0  0  0
 10 17  1  0  0  0  0
 10 20  1  0  0  0  0
 11 13  1  0  0  0  0
 12  2  1  0  0  0  0
 13 22  1  0  0  0  0
 13 12  2  0  0  0  0
 14 23  1  0  0  0  0
 14 27  1  0  0  0  0
 15 18  1  0  0  0  0
 16 19  1  0  0  0  0
 17  7  1  0  0  0  0
 20  1  1  0  0  0  0
 21 22  1  0  0  0  0
 22 14  2  0  0  0  0
 23 28  1  0  0  0  0
 27  5  1  0  0  0  0
 28  9  1  0  0  0  0
 28  6  1  0  0  0  0
 29 20  1  0  0  0  0
 29 30  1  0  0  0  0
 30 32  2  0  0  0  0
 31 30  1  0  0  0  0
M  END
>  <MODEL>
6

>  <REMARK>
 VINA RESULT:      -7.5      2.044      8.059
  Name = 
  2 active torsions:
  status: ('A' for Active; 'I' for Inactive)
    1  A    between atoms: N_20  and  C_29
    2  A    between atoms: C_29  and  C_30
                            x       y       z     vdW  Elec       q    Type
                         _______ _______ _______ _____ _____    ______ ____

>  <TORSDO>
F 2

$$$$
=
 OpenBabel11112416433D

 32 37  0  0  1  0  0  0  0  0999 V2000
  185.5370  177.6880  144.4930 C   0  0  0  0  0  2  0  0  0  0  0  0
  189.9680  175.7790  143.4610 C   0  0  2  0  0  3  0  0  0  0  0  0
  189.7980  172.2910  139.9670 C   0  0  0  0  0  3  0  0  0  0  0  0
  191.1460  172.0100  140.1620 C   0  0  0  0  0  3  0  0  0  0  0  0
  192.0720  175.9110  144.8040 C   0  0  0  0  0  0  0  0  0  0  0  0
  193.4110  175.4080  145.0890 C   0  0  0  0  0  0  0  0  0  0  0  0
  188.3210  177.6450  143.0900 C   0  0  1  0  0  3  0  0  0  0  0  0
  187.8750  175.3860  142.0990 C   0  0  0  0  0  3  0  0  0  0  0  0
  195.3620  174.1930  144.7090 C   0  0  2  0  0  3  0  0  0  0  0  0
  185.9320  176.8390  142.2890 C   0  0  0  0  0  2  0  0  0  0  0  0
  189.1800  173.2850  140.7220 C   0  0  0  0  0  3  0  0  0  0  0  0
  189.2730  174.9970  142.3790 C   0  0  0  0  0  0  0  0  0  0  0  0
  189.8920  174.0140  141.6940 C   0  0  0  0  0  0  0  0  0  0  0  0
  192.0030  174.4060  142.8060 C   0  0  0  0  0  0  0  0  0  0  0  0
  195.4510  174.9550  146.0390 C   0  0  0  0  0  2  0  0  0  0  0  0
  186.9720  177.4490  144.9810 C   0  0  0  0  0  2  0  0  0  0  0  0
  187.4050  176.5890  142.4460 C   0  0  0  0  0  0  0  0  0  0  0  0
  194.1580  175.7100  146.1320 C   0  0  0  0  0  3  0  0  0  0  0  0
  187.8710  178.2770  144.2820 O   0  0  0  0  0  0  0  0  0  0  0  0
  185.4970  178.0020  143.0600 N   0  0  0  0  0  0  0  0  0  0  0  0
  191.8740  172.7230  141.1140 C   0  0  0  0  0  3  0  0  0  0  0  0
  191.2690  173.7270  141.8950 C   0  0  0  0  0  0  0  0  0  0  0  0
  193.5010  174.1570  142.9030 C   0  0  0  0  0  2  0  0  0  0  0  0
  189.8070  177.2670  143.1700 C   0  0  0  0  0  2  0  0  0  0  0  0
  191.5280  176.7460  145.5790 O   0  0  0  0  0  0  0  0  0  0  0  0
  196.4070  174.7420  143.7530 C   0  0  0  0  0  1  0  0  0  0  0  0
  191.3770  175.4140  143.6430 N   0  0  0  0  0  0  0  0  0  0  0  0
  194.0270  174.4880  144.2230 N   0  0  0  0  0  0  0  0  0  0  0  0
  184.1050  178.2360  142.7140 C   0  0  0  0  0  2  0  0  0  0  0  0
  183.9520  178.3290  141.2310 C   0  0  0  0  0  0  0  0  0  0  0  0
  182.6620  177.9480  140.5940 C   0  0  0  0  0  1  0  0  0  0  0  0
  184.8860  178.7010  140.5390 O   0  0  0  0  0  0  0  0  0  0  0  0
  1 16  1  0  0  0  0
  2 24  1  6  0  0  0
  2 27  1  0  0  0  0
  3  4  1  0  0  0  0
  3 11  2  0  0  0  0
  4 21  2  0  0  0  0
  5  6  1  0  0  0  0
  5 25  2  0  0  0  0
  6 18  2  0  0  0  0
  7 24  1  1  0  0  0
  7 19  1  0  0  0  0
  8 12  1  0  0  0  0
  8 17  2  0  0  0  0
  9 26  1  6  0  0  0
  9 15  1  0  0  0  0
 10 17  1  0  0  0  0
 10 20  1  0  0  0  0
 11 13  1  0  0  0  0
 12  2  1  0  0  0  0
 13 22  1  0  0  0  0
 13 12  2  0  0  0  0
 14 23  1  0  0  0  0
 14 27  1  0  0  0  0
 15 18  1  0  0  0  0
 17  7  1  0  0  0  0
 19 16  1  0  0  0  0
 20  1  1  0  0  0  0
 21 22  1  0  0  0  0
 22 14  2  0  0  0  0
 23 28  1  0  0  0  0
 27  5  1  0  0  0  0
 28  9  1  0  0  0  0
 28  6  1  0  0  0  0
 29 20  1  0  0  0  0
 30 29  1  0  0  0  0
 31 30  1  0  0  0  0
 32 30  2  0  0  0  0
M  END
>  <MODEL>
7

>  <REMARK>
 VINA RESULT:      -7.5      1.658      1.892
  Name = 
  2 active torsions:
  status: ('A' for Active; 'I' for Inactive)
    1  A    between atoms: N_20  and  C_29
    2  A    between atoms: C_29  and  C_30
                            x       y       z     vdW  Elec       q    Type
                         _______ _______ _______ _____ _____    ______ ____

>  <TORSDO>
F 2

$$$$
=
 OpenBabel11112416433D

 32 37  0  0  1  0  0  0  0  0999 V2000
  187.0980  178.4120  142.6540 C   0  0  0  0  0  2  0  0  0  0  0  0
  189.1640  174.1120  141.3910 C   0  0  2  0  0  3  0  0  0  0  0  0
  192.5140  172.5470  144.6680 C   0  0  0  0  0  3  0  0  0  0  0  0
  192.8610  171.4920  143.8290 C   0  0  0  0  0  3  0  0  0  0  0  0
  189.1750  172.9850  139.1600 C   0  0  0  0  0  0  0  0  0  0  0  0
  189.7470  171.9880  138.2610 C   0  0  0  0  0  0  0  0  0  0  0  0
  187.2150  175.3030  142.4470 C   0  0  1  0  0  3  0  0  0  0  0  0
  189.4150  175.2260  143.6470 C   0  0  0  0  0  3  0  0  0  0  0  0
  191.0330  170.1410  137.6620 C   0  0  2  0  0  3  0  0  0  0  0  0
  187.8850  176.9660  144.3930 C   0  0  0  0  0  2  0  0  0  0  0  0
  191.5200  173.4440  144.2800 C   0  0  0  0  0  3  0  0  0  0  0  0
  189.8750  174.1740  142.7160 C   0  0  0  0  0  0  0  0  0  0  0  0
  190.8590  173.3120  143.0430 C   0  0  0  0  0  0  0  0  0  0  0  0
  190.6020  172.0560  140.9930 C   0  0  0  0  0  0  0  0  0  0  0  0
  190.3230  170.7270  136.4320 C   0  0  0  0  0  2  0  0  0  0  0  0
  187.4190  177.4300  141.5170 C   0  0  0  0  0  2  0  0  0  0  0  0
  188.2050  175.7830  143.5230 C   0  0  0  0  0  0  0  0  0  0  0  0
  189.5150  171.8720  136.9690 C   0  0  0  0  0  3  0  0  0  0  0  0
  186.6070  176.2850  141.6170 O   0  0  0  0  0  0  0  0  0  0  0  0
  186.7320  177.7090  143.8890 N   0  0  0  0  0  0  0  0  0  0  0  0
  192.2160  171.3380  142.6030 C   0  0  0  0  0  3  0  0  0  0  0  0
  191.2140  172.2360  142.1850 C   0  0  0  0  0  0  0  0  0  0  0  0
  190.9210  170.8220  140.1610 C   0  0  0  0  0  2  0  0  0  0  0  0
  187.6610  174.0730  141.6430 C   0  0  0  0  0  2  0  0  0  0  0  0
  188.3450  173.8310  138.7260 O   0  0  0  0  0  0  0  0  0  0  0  0
  190.4960  168.7440  137.9230 C   0  0  0  0  0  1  0  0  0  0  0  0
  189.5990  173.0000  140.5380 N   0  0  0  0  0  0  0  0  0  0  0  0
  190.6610  171.0360  138.7430 N   0  0  0  0  0  0  0  0  0  0  0  0
  186.4240  178.7250  144.8810 C   0  0  0  0  0  2  0  0  0  0  0  0
  185.0570  178.5010  145.4410 C   0  0  0  0  0  0  0  0  0  0  0  0
  184.8530  177.4970  146.5210 C   0  0  0  0  0  1  0  0  0  0  0  0
  184.1050  179.1270  145.0050 O   0  0  0  0  0  0  0  0  0  0  0  0
  1 20  1  0  0  0  0
  2 24  1  1  0  0  0
  2 12  1  0  0  0  0
  4  3  1  0  0  0  0
  5 27  1  0  0  0  0
  6 28  1  0  0  0  0
  6  5  1  0  0  0  0
  7 24  1  6  0  0  0
  7 17  1  0  0  0  0
  9 26  1  1  0  0  0
  9 28  1  0  0  0  0
 11  3  2  0  0  0  0
 12 13  2  0  0  0  0
 12  8  1  0  0  0  0
 13 11  1  0  0  0  0
 14 22  2  0  0  0  0
 15 18  1  0  0  0  0
 15  9  1  0  0  0  0
 16 19  1  0  0  0  0
 16  1  1  0  0  0  0
 17  8  2  0  0  0  0
 17 10  1  0  0  0  0
 18  6  2  0  0  0  0
 19  7  1  0  0  0  0
 20 10  1  0  0  0  0
 20 29  1  0  0  0  0
 21  4  2  0  0  0  0
 22 21  1  0  0  0  0
 22 13  1  0  0  0  0
 23 14  1  0  0  0  0
 25  5  2  0  0  0  0
 27 14  1  0  0  0  0
 27  2  1  0  0  0  0
 28 23  1  0  0  0  0
 29 30  1  0  0  0  0
 30 31  1  0  0  0  0
 32 30  2  0  0  0  0
M  END
>  <MODEL>
8

>  <REMARK>
 VINA RESULT:      -7.2      3.151      5.677
  Name = 
  2 active torsions:
  status: ('A' for Active; 'I' for Inactive)
    1  A    between atoms: N_20  and  C_29
    2  A    between atoms: C_29  and  C_30
                            x       y       z     vdW  Elec       q    Type
                         _______ _______ _______ _____ _____    ______ ____

>  <TORSDO>
F 2

$$$$
=
 OpenBabel11112416433D

 32 37  0  0  1  0  0  0  0  0999 V2000
  193.6930  171.2380  144.2150 C   0  0  0  0  0  2  0  0  0  0  0  0
  190.7040  175.1170  144.8160 C   0  0  2  0  0  3  0  0  0  0  0  0
  191.5020  177.5280  149.0540 C   0  0  0  0  0  3  0  0  0  0  0  0
  190.4000  178.3430  148.8140 C   0  0  0  0  0  3  0  0  0  0  0  0
  188.5740  175.6420  143.6190 C   0  0  0  0  0  0  0  0  0  0  0  0
  187.3220  176.3900  143.5540 C   0  0  0  0  0  0  0  0  0  0  0  0
  192.8030  174.1940  143.7820 C   0  0  1  0  0  3  0  0  0  0  0  0
  192.7240  174.6170  146.2510 C   0  0  0  0  0  3  0  0  0  0  0  0
  185.7950  178.0500  144.1330 C   0  0  2  0  0  3  0  0  0  0  0  0
  194.4720  173.0930  145.5140 C   0  0  0  0  0  2  0  0  0  0  0  0
  191.8510  176.5430  148.1320 C   0  0  0  0  0  3  0  0  0  0  0  0
  191.4890  175.4080  146.0670 C   0  0  0  0  0  0  0  0  0  0  0  0
  191.1010  176.3430  146.9570 C   0  0  0  0  0  0  0  0  0  0  0  0
  189.2280  177.0340  145.5930 C   0  0  0  0  0  0  0  0  0  0  0  0
  185.2260  177.1570  143.0200 C   0  0  0  0  0  2  0  0  0  0  0  0
  192.3670  171.9050  143.8230 C   0  0  0  0  0  2  0  0  0  0  0  0
  193.3300  174.0220  145.2170 C   0  0  0  0  0  0  0  0  0  0  0  0
  186.3180  176.1710  142.7300 C   0  0  0  0  0  3  0  0  0  0  0  0
  192.6070  173.0220  143.0000 O   0  0  0  0  0  0  0  0  0  0  0  0
  194.7680  172.2230  144.3770 N   0  0  0  0  0  0  0  0  0  0  0  0
  189.6470  178.1680  147.6540 C   0  0  0  0  0  3  0  0  0  0  0  0
  189.9740  177.1740  146.7110 C   0  0  0  0  0  0  0  0  0  0  0  0
  188.1070  178.0230  145.3060 C   0  0  0  0  0  2  0  0  0  0  0  0
  191.6450  175.1890  143.6190 C   0  0  0  0  0  2  0  0  0  0  0  0
  188.7920  174.6970  142.8110 O   0  0  0  0  0  0  0  0  0  0  0  0
  185.9830  179.4570  143.5910 C   0  0  0  0  0  1  0  0  0  0  0  0
  189.5340  175.9850  144.6370 N   0  0  0  0  0  0  0  0  0  0  0  0
  187.0800  177.4510  144.4430 N   0  0  0  0  0  0  0  0  0  0  0  0
  195.9740  171.4860  144.7180 C   0  0  0  0  0  2  0  0  0  0  0  0
  197.1050  171.9140  143.8410 C   0  0  0  0  0  0  0  0  0  0  0  0
  197.5240  171.0550  142.6990 C   0  0  0  0  0  1  0  0  0  0  0  0
  197.6950  172.9570  144.0660 O   0  0  0  0  0  0  0  0  0  0  0  0
  1 20  1  0  0  0  0
  2 24  1  6  0  0  0
  2 12  1  0  0  0  0
  4  3  1  0  0  0  0
  5 27  1  0  0  0  0
  6  5  1  0  0  0  0
  6 28  1  0  0  0  0
  7 24  1  1  0  0  0
  7 17  1  0  0  0  0
  9 26  1  6  0  0  0
  9 28  1  0  0  0  0
 11  3  2  0  0  0  0
 12  8  1  0  0  0  0
 12 13  2  0  0  0  0
 13 11  1  0  0  0  0
 14 22  2  0  0  0  0
 15  9  1  0  0  0  0
 16  1  1  0  0  0  0
 17 10  1  0  0  0  0
 17  8  2  0  0  0  0
 18 15  1  0  0  0  0
 18  6  2  0  0  0  0
 19  7  1  0  0  0  0
 19 16  1  0  0  0  0
 20 29  1  0  0  0  0
 20 10  1  0  0  0  0
 21  4  2  0  0  0  0
 22 13  1  0  0  0  0
 22 21  1  0  0  0  0
 23 14  1  0  0  0  0
 25  5  2  0  0  0  0
 27  2  1  0  0  0  0
 27 14  1  0  0  0  0
 28 23  1  0  0  0  0
 30 32  2  0  0  0  0
 30 29  1  0  0  0  0
 31 30  1  0  0  0  0
M  END
>  <MODEL>
9

>  <REMARK>
 VINA RESULT:      -7.1      2.646      8.820
  Name = 
  2 active torsions:
  status: ('A' for Active; 'I' for Inactive)
    1  A    between atoms: N_20  and  C_29
    2  A    between atoms: C_29  and  C_30
                            x       y       z     vdW  Elec       q    Type
                         _______ _______ _______ _____ _____    ______ ____

>  <TORSDO>
F 2

$$$$
