=
 OpenBabel11112416443D

 32 37  0  0  1  0  0  0  0  0999 V2000
  190.8730  174.7300  144.1760 C   0  0  0  0  0  2  0  0  0  0  0  0
  187.3170  177.4560  143.2960 C   0  0  2  0  0  3  0  0  0  0  0  0
  186.0950  178.1690  148.0300 C   0  0  0  0  0  3  0  0  0  0  0  0
  184.7500  178.2400  147.6690 C   0  0  0  0  0  3  0  0  0  0  0  0
  185.4890  177.6410  141.6020 C   0  0  0  0  0  0  0  0  0  0  0  0
  184.1750  177.9670  141.2820 C   0  0  0  0  0  0  0  0  0  0  0  0
  189.7350  177.2920  142.5710 C   0  0  1  0  0  3  0  0  0  0  0  0
  189.0990  177.4870  145.0590 C   0  0  0  0  0  2  0  0  0  0  0  0
  182.1590  178.5820  141.6060 C   0  0  0  0  0  0  0  0  0  0  0  0
  191.5410  177.1840  144.4770 C   0  0  0  0  0  2  0  0  0  0  0  0
  187.0790  178.0960  147.0430 C   0  0  0  0  0  3  0  0  0  0  0  0
  187.7760  178.1140  144.6110 C   0  0  2  0  0  3  0  0  0  0  0  0
  186.7250  178.0680  145.6830 C   0  0  0  0  0  0  0  0  0  0  0  0
  185.0030  178.1610  143.8850 C   0  0  0  0  0  0  0  0  0  0  0  0
  182.2350  178.3120  140.2830 N   0  0  0  0  0  0  0  0  0  0  0  0
  189.5740  175.0100  143.4150 C   0  0  0  0  0  2  0  0  0  0  0  0
  190.1810  177.7120  144.0010 C   0  0  1  0  0  3  0  0  0  0  0  0
  183.5160  177.9170  140.0680 C   0  0  0  0  0  3  0  0  0  0  0  0
  189.8150  175.8550  142.2470 N   0  0  0  0  0  2  0  0  0  0  0  0
  191.9450  175.8030  143.9520 C   0  0  1  0  0  3  0  0  0  0  0  0
  184.3920  178.2440  146.3190 C   0  0  0  0  0  3  0  0  0  0  0  0
  185.3750  178.1660  145.3180 C   0  0  0  0  0  0  0  0  0  0  0  0
  183.6750  178.4680  143.5280 C   0  0  0  0  0  3  0  0  0  0  0  0
  188.3520  177.8510  142.2310 C   0  0  0  0  0  2  0  0  0  0  0  0
  186.2450  177.1750  140.7050 O   0  0  0  0  0  0  0  0  0  0  0  0
  180.9120  179.0330  142.2840 C   0  0  0  0  0  1  0  0  0  0  0  0
  185.9250  177.8130  142.9060 N   0  0  0  0  0  0  0  0  0  0  0  0
  183.3310  178.3760  142.2260 N   0  0  0  0  0  0  0  0  0  0  0  0
  193.2570  175.3870  144.6010 C   0  0  0  0  0  2  0  0  0  0  0  0
  193.2730  175.7260  146.0570 C   0  0  0  0  0  0  0  0  0  0  0  0
  192.5350  175.0230  146.9110 C   0  0  0  0  0  2  0  0  0  0  0  0
  194.1720  176.7990  146.5680 C   0  0  0  0  0  1  0  0  0  0  0  0
  2 24  1  6  0  0  0
  2 12  1  0  0  0  0
  4  3  1  0  0  0  0
  5 27  1  0  0  0  0
  6  5  1  0  0  0  0
  6 28  1  0  0  0  0
  7 24  1  1  0  0  0
  7 17  1  0  0  0  0
  9 28  1  0  0  0  0
  9 26  1  0  0  0  0
 11  3  2  0  0  0  0
 12  8  1  1  0  0  0
 12 13  1  0  0  0  0
 13 11  1  0  0  0  0
 14 22  1  0  0  0  0
 15  9  2  0  0  0  0
 16  1  1  0  0  0  0
 17 10  1  1  0  0  0
 17  8  1  0  0  0  0
 18 15  1  0  0  0  0
 18  6  2  0  0  0  0
 19  7  1  0  0  0  0
 19 16  1  0  0  0  0
 20  1  1  0  0  0  0
 20 10  1  0  0  0  0
 20 29  1  1  0  0  0
 21  4  2  0  0  0  0
 22 13  2  0  0  0  0
 22 21  1  0  0  0  0
 23 14  2  0  0  0  0
 25  5  2  0  0  0  0
 27  2  1  0  0  0  0
 27 14  1  0  0  0  0
 28 23  1  0  0  0  0
 29 30  1  0  0  0  0
 30 32  1  0  0  0  0
 30 31  2  0  0  0  0
M  END
>  <MODEL>
1

>  <REMARK>
 VINA RESULT:     -10.0      0.000      0.000
  Name = 
  2 active torsions:
  status: ('A' for Active; 'I' for Inactive)
    1  A    between atoms: C_20  and  C_29
    2  A    between atoms: C_29  and  C_30
                            x       y       z     vdW  Elec       q    Type
                         _______ _______ _______ _____ _____    ______ ____

>  <TORSDO>
F 2

$$$$
=
 OpenBabel11112416443D

 32 37  0  0  1  0  0  0  0  0999 V2000
  188.1010  175.6940  146.8960 C   0  0  0  0  0  2  0  0  0  0  0  0
  191.4460  176.0430  143.8090 C   0  0  2  0  0  3  0  0  0  0  0  0
  189.5280  172.7420  140.6710 C   0  0  0  0  0  3  0  0  0  0  0  0
  190.8150  172.3470  140.3050 C   0  0  0  0  0  3  0  0  0  0  0  0
  193.9260  176.3420  143.7790 C   0  0  0  0  0  0  0  0  0  0  0  0
  195.1630  176.0800  143.1960 C   0  0  0  0  0  0  0  0  0  0  0  0
  189.9710  177.6320  145.1120 C   0  0  1  0  0  3  0  0  0  0  0  0
  188.9580  175.7970  143.6130 C   0  0  0  0  0  2  0  0  0  0  0  0
  196.5610  175.2110  141.8420 C   0  0  0  0  0  0  0  0  0  0  0  0
  187.3770  177.2250  144.9760 C   0  0  0  0  0  2  0  0  0  0  0  0
  189.3500  173.8380  141.5170 C   0  0  0  0  0  3  0  0  0  0  0  0
  190.2780  175.7860  142.8370 C   0  0  2  0  0  3  0  0  0  0  0  0
  190.4590  174.5340  142.0280 C   0  0  0  0  0  0  0  0  0  0  0  0
  192.9190  174.9020  142.1570 C   0  0  0  0  0  0  0  0  0  0  0  0
  197.3080  175.9610  142.6840 N   0  0  0  0  0  0  0  0  0  0  0  0
  189.5930  175.7020  146.5550 C   0  0  0  0  0  2  0  0  0  0  0  0
  188.7450  177.1580  144.2810 C   0  0  1  0  0  3  0  0  0  0  0  0
  196.4250  176.5170  143.5530 C   0  0  0  0  0  3  0  0  0  0  0  0
  190.1100  177.0660  146.4680 N   0  0  0  0  0  2  0  0  0  0  0  0
  187.3820  176.9860  146.4880 C   0  0  1  0  0  3  0  0  0  0  0  0
  191.9210  173.0530  140.7840 C   0  0  0  0  0  3  0  0  0  0  0  0
  191.7510  174.1550  141.6400 C   0  0  0  0  0  0  0  0  0  0  0  0
  194.1890  174.6470  141.6020 C   0  0  0  0  0  3  0  0  0  0  0  0
  191.2720  177.4810  144.3230 C   0  0  0  0  0  2  0  0  0  0  0  0
  193.8760  177.0410  144.8290 O   0  0  0  0  0  0  0  0  0  0  0  0
  197.1350  174.4010  140.7310 C   0  0  0  0  0  1  0  0  0  0  0  0
  192.7860  175.8050  143.2050 N   0  0  0  0  0  0  0  0  0  0  0  0
  195.2550  175.2740  142.1420 N   0  0  0  0  0  0  0  0  0  0  0  0
  185.9490  176.9800  146.9970 C   0  0  0  0  0  2  0  0  0  0  0  0
  185.3500  178.3490  146.9450 C   0  0  0  0  0  0  0  0  0  0  0  0
  185.9310  179.3540  147.5920 C   0  0  0  0  0  2  0  0  0  0  0  0
  184.1450  178.6090  146.1060 C   0  0  0  0  0  1  0  0  0  0  0  0
  2 24  1  6  0  0  0
  3 11  1  0  0  0  0
  4  3  2  0  0  0  0
  4 21  1  0  0  0  0
  5 25  2  0  0  0  0
  6 18  2  0  0  0  0
  6  5  1  0  0  0  0
  7 24  1  6  0  0  0
  7 19  1  0  0  0  0
  9 28  1  0  0  0  0
  9 15  2  0  0  0  0
 10 20  1  0  0  0  0
 11 13  2  0  0  0  0
 12  8  1  1  0  0  0
 12  2  1  0  0  0  0
 13 12  1  0  0  0  0
 14 27  1  0  0  0  0
 15 18  1  0  0  0  0
 16  1  1  0  0  0  0
 17  8  1  1  0  0  0
 17 10  1  0  0  0  0
 17  7  1  0  0  0  0
 19 16  1  0  0  0  0
 20  1  1  0  0  0  0
 20 29  1  6  0  0  0
 21 22  2  0  0  0  0
 22 13  1  0  0  0  0
 22 14  1  0  0  0  0
 23 28  1  0  0  0  0
 23 14  2  0  0  0  0
 26  9  1  0  0  0  0
 27  5  1  0  0  0  0
 27  2  1  0  0  0  0
 28  6  1  0  0  0  0
 30 29  1  0  0  0  0
 30 31  2  0  0  0  0
 32 30  1  0  0  0  0
M  END
>  <MODEL>
2

>  <REMARK>
 VINA RESULT:      -9.4      3.842      8.954
  Name = 
  2 active torsions:
  status: ('A' for Active; 'I' for Inactive)
    1  A    between atoms: C_20  and  C_29
    2  A    between atoms: C_29  and  C_30
                            x       y       z     vdW  Elec       q    Type
                         _______ _______ _______ _____ _____    ______ ____

>  <TORSDO>
F 2

$$$$
=
 OpenBabel11112416443D

 32 37  0  0  1  0  0  0  0  0999 V2000
  194.5620  175.8530  144.2740 C   0  0  0  0  0  2  0  0  0  0  0  0
  190.1120  175.9870  145.2840 C   0  0  2  0  0  3  0  0  0  0  0  0
  188.5660  174.8400  140.7330 C   0  0  0  0  0  3  0  0  0  0  0  0
  187.4420  175.6450  140.9160 C   0  0  0  0  0  3  0  0  0  0  0  0
  188.5680  177.3390  146.7100 C   0  0  0  0  0  0  0  0  0  0  0  0
  187.3190  177.9180  146.9170 C   0  0  0  0  0  0  0  0  0  0  0  0
  192.1930  174.9410  146.2710 C   0  0  1  0  0  3  0  0  0  0  0  0
  191.4900  174.4740  143.8370 C   0  0  0  0  0  2  0  0  0  0  0  0
  185.3140  178.4940  146.4770 C   0  0  0  0  0  0  0  0  0  0  0  0
  193.6680  173.4840  144.6560 C   0  0  0  0  0  2  0  0  0  0  0  0
  189.4370  174.6070  141.8000 C   0  0  0  0  0  3  0  0  0  0  0  0
  190.0630  174.8580  144.2370 C   0  0  2  0  0  3  0  0  0  0  0  0
  189.2050  175.1990  143.0530 C   0  0  0  0  0  0  0  0  0  0  0  0
  187.8040  176.5900  144.5710 C   0  0  0  0  0  0  0  0  0  0  0  0
  185.5710  179.0200  147.6970 N   0  0  0  0  0  0  0  0  0  0  0  0
  193.3660  176.5780  144.8960 C   0  0  0  0  0  2  0  0  0  0  0  0
  192.2690  173.9740  145.0550 C   0  0  1  0  0  3  0  0  0  0  0  0
  186.8470  178.6600  147.9840 C   0  0  0  0  0  3  0  0  0  0  0  0
  193.1040  176.1010  146.2520 N   0  0  0  0  0  2  0  0  0  0  0  0
  194.8150  174.4710  144.8880 C   0  0  1  0  0  3  0  0  0  0  0  0
  187.1880  176.2120  142.1660 C   0  0  0  0  0  3  0  0  0  0  0  0
  188.0610  175.9860  143.2450 C   0  0  0  0  0  0  0  0  0  0  0  0
  186.5560  177.2020  144.8080 C   0  0  0  0  0  3  0  0  0  0  0  0
  190.7530  175.3820  146.5430 C   0  0  0  0  0  2  0  0  0  0  0  0
  189.4790  177.5180  147.5650 O   0  0  0  0  0  0  0  0  0  0  0  0
  184.0180  178.6660  145.7630 C   0  0  0  0  0  1  0  0  0  0  0  0
  188.7840  176.6050  145.5550 N   0  0  0  0  0  0  0  0  0  0  0  0
  186.3680  177.8220  145.9910 N   0  0  0  0  0  0  0  0  0  0  0  0
  196.1050  173.8760  144.3430 C   0  0  0  0  0  2  0  0  0  0  0  0
  196.8640  173.1570  145.4130 C   0  0  0  0  0  0  0  0  0  0  0  0
  197.1910  173.7910  146.5350 C   0  0  0  0  0  2  0  0  0  0  0  0
  197.1890  171.7110  145.2590 C   0  0  0  0  0  1  0  0  0  0  0  0
  1 20  1  0  0  0  0
  1 16  1  0  0  0  0
  2 27  1  0  0  0  0
  2 24  1  1  0  0  0
  3  4  2  0  0  0  0
  3 11  1  0  0  0  0
  4 21  1  0  0  0  0
  5  6  1  0  0  0  0
  5 25  2  0  0  0  0
  6 18  2  0  0  0  0
  7 24  1  6  0  0  0
  9 15  2  0  0  0  0
 10 20  1  0  0  0  0
 10 17  1  0  0  0  0
 11 13  2  0  0  0  0
 12  8  1  6  0  0  0
 12  2  1  0  0  0  0
 13 22  1  0  0  0  0
 13 12  1  0  0  0  0
 14 23  2  0  0  0  0
 14 27  1  0  0  0  0
 15 18  1  0  0  0  0
 16 19  1  0  0  0  0
 17  8  1  6  0  0  0
 17  7  1  0  0  0  0
 19  7  1  0  0  0  0
 20 29  1  6  0  0  0
 21 22  2  0  0  0  0
 22 14  1  0  0  0  0
 23 28  1  0  0  0  0
 26  9  1  0  0  0  0
 27  5  1  0  0  0  0
 28  9  1  0  0  0  0
 28  6  1  0  0  0  0
 29 30  1  0  0  0  0
 30 31  2  0  0  0  0
 32 30  1  0  0  0  0
M  END
>  <MODEL>
3

>  <REMARK>
 VINA RESULT:      -9.0      2.990      5.413
  Name = 
  2 active torsions:
  status: ('A' for Active; 'I' for Inactive)
    1  A    between atoms: C_20  and  C_29
    2  A    between atoms: C_29  and  C_30
                            x       y       z     vdW  Elec       q    Type
                         _______ _______ _______ _____ _____    ______ ____

>  <TORSDO>
F 2

$$$$
=
 OpenBabel11112416443D

 32 37  0  0  1  0  0  0  0  0999 V2000
  192.3810  174.3920  144.0980 C   0  0  0  0  0  2  0  0  0  0  0  0
  188.7700  177.0920  143.3810 C   0  0  2  0  0  3  0  0  0  0  0  0
  187.1800  176.9940  148.0590 C   0  0  0  0  0  3  0  0  0  0  0  0
  185.8630  177.0730  147.6090 C   0  0  0  0  0  3  0  0  0  0  0  0
  187.0600  177.4790  141.6000 C   0  0  0  0  0  0  0  0  0  0  0  0
  185.7580  177.8040  141.2340 C   0  0  0  0  0  0  0  0  0  0  0  0
  191.2380  177.1340  142.8300 C   0  0  1  0  0  3  0  0  0  0  0  0
  190.4180  176.9050  145.2610 C   0  0  0  0  0  2  0  0  0  0  0  0
  183.6970  178.2850  141.4920 C   0  0  0  0  0  0  0  0  0  0  0  0
  192.9070  176.7880  144.8310 C   0  0  0  0  0  2  0  0  0  0  0  0
  188.2350  177.1160  147.1520 C   0  0  0  0  0  3  0  0  0  0  0  0
  189.1010  177.5470  144.8150 C   0  0  2  0  0  3  0  0  0  0  0  0
  187.9810  177.2920  145.7810 C   0  0  0  0  0  0  0  0  0  0  0  0
  186.3880  177.6090  143.8910 C   0  0  0  0  0  0  0  0  0  0  0  0
  183.8800  178.2330  140.1530 N   0  0  0  0  0  0  0  0  0  0  0  0
  191.1280  174.7420  143.2910 C   0  0  0  0  0  2  0  0  0  0  0  0
  191.5600  177.3360  144.3380 C   0  0  1  0  0  3  0  0  0  0  0  0
  185.1900  177.9250  139.9780 C   0  0  0  0  0  3  0  0  0  0  0  0
  191.4110  175.7710  142.2930 N   0  0  0  0  0  2  0  0  0  0  0  0
  193.4140  175.5250  144.1290 C   0  0  1  0  0  3  0  0  0  0  0  0
  185.6020  177.2790  146.2530 C   0  0  0  0  0  3  0  0  0  0  0  0
  186.6570  177.3990  145.3320 C   0  0  0  0  0  0  0  0  0  0  0  0
  185.0750  177.9210  143.4840 C   0  0  0  0  0  3  0  0  0  0  0  0
  189.8580  177.6900  142.4750 C   0  0  0  0  0  2  0  0  0  0  0  0
  187.8990  177.1900  140.7020 O   0  0  0  0  0  0  0  0  0  0  0  0
  182.3840  178.5770  142.1330 C   0  0  0  0  0  1  0  0  0  0  0  0
  187.3930  177.4550  142.9450 N   0  0  0  0  0  0  0  0  0  0  0  0
  184.8300  178.0250  142.1610 N   0  0  0  0  0  0  0  0  0  0  0  0
  194.6940  175.0580  144.8050 C   0  0  0  0  0  2  0  0  0  0  0  0
  195.7950  174.8710  143.8100 C   0  0  0  0  0  0  0  0  0  0  0  0
  196.5650  175.9000  143.4710 C   0  0  0  0  0  2  0  0  0  0  0  0
  196.0820  173.5190  143.2540 C   0  0  0  0  0  1  0  0  0  0  0  0
  1 20  1  0  0  0  0
  2 24  1  6  0  0  0
  2 12  1  0  0  0  0
  4  3  1  0  0  0  0
  5 27  1  0  0  0  0
  6  5  1  0  0  0  0
  6 28  1  0  0  0  0
  7 24  1  1  0  0  0
  7 17  1  0  0  0  0
  9 26  1  0  0  0  0
  9 28  1  0  0  0  0
 11  3  2  0  0  0  0
 12  8  1  1  0  0  0
 12 13  1  0  0  0  0
 13 11  1  0  0  0  0
 14 22  1  0  0  0  0
 15  9  2  0  0  0  0
 16  1  1  0  0  0  0
 17 10  1  1  0  0  0
 17  8  1  0  0  0  0
 18 15  1  0  0  0  0
 18  6  2  0  0  0  0
 19  7  1  0  0  0  0
 19 16  1  0  0  0  0
 20 29  1  1  0  0  0
 20 10  1  0  0  0  0
 21  4  2  0  0  0  0
 22 13  2  0  0  0  0
 22 21  1  0  0  0  0
 23 14  2  0  0  0  0
 25  5  2  0  0  0  0
 27  2  1  0  0  0  0
 27 14  1  0  0  0  0
 28 23  1  0  0  0  0
 30 29  1  0  0  0  0
 31 30  2  0  0  0  0
 32 30  1  0  0  0  0
M  END
>  <MODEL>
4

>  <REMARK>
 VINA RESULT:      -8.7      1.545      2.057
  Name = 
  2 active torsions:
  status: ('A' for Active; 'I' for Inactive)
    1  A    between atoms: C_20  and  C_29
    2  A    between atoms: C_29  and  C_30
                            x       y       z     vdW  Elec       q    Type
                         _______ _______ _______ _____ _____    ______ ____

>  <TORSDO>
F 2

$$$$
=
 OpenBabel11112416443D

 32 37  0  0  1  0  0  0  0  0999 V2000
  187.3430  176.6030  145.8380 C   0  0  0  0  0  2  0  0  0  0  0  0
  191.4680  175.4430  144.2620 C   0  0  2  0  0  3  0  0  0  0  0  0
  189.7850  172.4180  140.7360 C   0  0  0  0  0  3  0  0  0  0  0  0
  190.9050  171.6040  140.9050 C   0  0  0  0  0  3  0  0  0  0  0  0
  193.7460  174.9780  145.1770 C   0  0  0  0  0  0  0  0  0  0  0  0
  194.9430  174.2690  145.1210 C   0  0  0  0  0  0  0  0  0  0  0  0
  190.2570  177.5850  144.8470 C   0  0  1  0  0  3  0  0  0  0  0  0
  189.2820  175.9270  143.1340 C   0  0  0  0  0  2  0  0  0  0  0  0
  196.3480  172.8190  144.4360 C   0  0  0  0  0  0  0  0  0  0  0  0
  187.9030  177.9580  143.7390 C   0  0  0  0  0  2  0  0  0  0  0  0
  189.7010  173.6360  141.4130 C   0  0  0  0  0  3  0  0  0  0  0  0
  190.7030  175.3980  142.9240 C   0  0  2  0  0  3  0  0  0  0  0  0
  190.7240  174.0400  142.2870 C   0  0  0  0  0  0  0  0  0  0  0  0
  192.9520  173.6690  143.3390 C   0  0  0  0  0  0  0  0  0  0  0  0
  196.9570  173.4340  145.4760 N   0  0  0  0  0  0  0  0  0  0  0  0
  188.7700  176.1090  146.0950 C   0  0  0  0  0  2  0  0  0  0  0  0
  189.3180  177.3760  143.6240 C   0  0  1  0  0  3  0  0  0  0  0  0
  196.0680  174.3580  145.9210 C   0  0  0  0  0  3  0  0  0  0  0  0
  189.7110  177.2250  146.1700 N   0  0  0  0  0  2  0  0  0  0  0  0
  187.2940  177.9690  145.1440 C   0  0  1  0  0  3  0  0  0  0  0  0
  191.9400  172.0110  141.7480 C   0  0  0  0  0  3  0  0  0  0  0  0
  191.8620  173.2340  142.4370 C   0  0  0  0  0  0  0  0  0  0  0  0
  194.1710  172.9610  143.3230 C   0  0  0  0  0  3  0  0  0  0  0  0
  191.6200  176.9290  144.6230 C   0  0  0  0  0  2  0  0  0  0  0  0
  193.5680  175.8160  146.1030 O   0  0  0  0  0  0  0  0  0  0  0  0
  196.9670  171.7110  143.6580 C   0  0  0  0  0  1  0  0  0  0  0  0
  192.7710  174.7230  144.2260 N   0  0  0  0  0  0  0  0  0  0  0  0
  195.1230  173.3170  144.2100 N   0  0  0  0  0  0  0  0  0  0  0  0
  185.8610  178.4730  145.0640 C   0  0  0  0  0  2  0  0  0  0  0  0
  185.2800  178.6750  146.4270 C   0  0  0  0  0  0  0  0  0  0  0  0
  184.0930  178.1570  146.7260 C   0  0  0  0  0  2  0  0  0  0  0  0
  186.0610  179.3880  147.4770 C   0  0  0  0  0  1  0  0  0  0  0  0
  1 16  1  0  0  0  0
  2 24  1  6  0  0  0
  3  4  2  0  0  0  0
  3 11  1  0  0  0  0
  4 21  1  0  0  0  0
  5 25  2  0  0  0  0
  6  5  1  0  0  0  0
  6 18  2  0  0  0  0
  7 24  1  6  0  0  0
  7 19  1  0  0  0  0
  9 15  2  0  0  0  0
 10 20  1  0  0  0  0
 11 13  2  0  0  0  0
 12  8  1  1  0  0  0
 12  2  1  0  0  0  0
 13 22  1  0  0  0  0
 13 12  1  0  0  0  0
 14 27  1  0  0  0  0
 15 18  1  0  0  0  0
 16 19  1  0  0  0  0
 17  8  1  1  0  0  0
 17 10  1  0  0  0  0
 17  7  1  0  0  0  0
 20 29  1  6  0  0  0
 20  1  1  0  0  0  0
 21 22  2  0  0  0  0
 22 14  1  0  0  0  0
 23 14  2  0  0  0  0
 23 28  1  0  0  0  0
 26  9  1  0  0  0  0
 27  2  1  0  0  0  0
 27  5  1  0  0  0  0
 28  9  1  0  0  0  0
 28  6  1  0  0  0  0
 29 30  1  0  0  0  0
 30 31  2  0  0  0  0
 30 32  1  0  0  0  0
M  END
>  <MODEL>
5

>  <REMARK>
 VINA RESULT:      -8.4      3.651      9.298
  Name = 
  2 active torsions:
  status: ('A' for Active; 'I' for Inactive)
    1  A    between atoms: C_20  and  C_29
    2  A    between atoms: C_29  and  C_30
                            x       y       z     vdW  Elec       q    Type
                         _______ _______ _______ _____ _____    ______ ____

>  <TORSDO>
F 2

$$$$
=
 OpenBabel11112416443D

 32 37  0  0  1  0  0  0  0  0999 V2000
  187.0180  178.9870  142.7630 C   0  0  0  0  0  2  0  0  0  0  0  0
  189.2280  175.0980  141.8520 C   0  0  2  0  0  3  0  0  0  0  0  0
  193.4310  176.4160  144.0910 C   0  0  0  0  0  3  0  0  0  0  0  0
  194.1570  175.6870  143.1490 C   0  0  0  0  0  3  0  0  0  0  0  0
  189.3960  173.4470  139.9830 C   0  0  0  0  0  0  0  0  0  0  0  0
  190.1530  172.5500  139.2350 C   0  0  0  0  0  0  0  0  0  0  0  0
  186.9730  175.7580  142.7900 C   0  0  1  0  0  3  0  0  0  0  0  0
  189.1610  176.5950  143.8620 C   0  0  0  0  0  2  0  0  0  0  0  0
  191.8840  171.4850  138.5940 C   0  0  0  0  0  0  0  0  0  0  0  0
  186.9740  177.4450  144.8060 C   0  0  0  0  0  2  0  0  0  0  0  0
  192.0360  176.3480  144.1000 C   0  0  0  0  0  3  0  0  0  0  0  0
  189.8640  175.3940  143.2230 C   0  0  2  0  0  3  0  0  0  0  0  0
  191.3530  175.5720  143.1480 C   0  0  0  0  0  0  0  0  0  0  0  0
  191.3650  173.9820  141.2310 C   0  0  0  0  0  0  0  0  0  0  0  0
  190.8940  171.0740  137.7690 N   0  0  0  0  0  0  0  0  0  0  0  0
  187.4560  177.9160  141.7610 C   0  0  0  0  0  2  0  0  0  0  0  0
  187.6760  176.2940  144.0700 C   0  0  1  0  0  3  0  0  0  0  0  0
  189.7870  171.7500  138.1690 C   0  0  0  0  0  3  0  0  0  0  0  0
  186.5580  176.7630  141.7930 N   0  0  0  0  0  2  0  0  0  0  0  0
  186.1930  178.4240  143.9260 C   0  0  1  0  0  3  0  0  0  0  0  0
  193.4870  174.8900  142.2190 C   0  0  0  0  0  3  0  0  0  0  0  0
  192.0830  174.8190  142.2180 C   0  0  0  0  0  0  0  0  0  0  0  0
  192.1040  173.0760  140.4430 C   0  0  0  0  0  3  0  0  0  0  0  0
  187.7880  174.6420  142.1330 C   0  0  0  0  0  2  0  0  0  0  0  0
  188.1910  173.6510  139.6660 O   0  0  0  0  0  0  0  0  0  0  0  0
  193.2910  171.0040  138.4950 C   0  0  0  0  0  1  0  0  0  0  0  0
  189.9960  174.1130  141.0400 N   0  0  0  0  0  0  0  0  0  0  0  0
  191.4480  172.3820  139.4900 N   0  0  0  0  0  0  0  0  0  0  0  0
  185.6560  179.5540  144.7920 C   0  0  0  0  0  2  0  0  0  0  0  0
  185.1640  179.0410  146.1080 C   0  0  0  0  0  0  0  0  0  0  0  0
  184.0660  178.2920  146.1600 C   0  0  0  0  0  2  0  0  0  0  0  0
  185.9410  179.3000  147.3530 C   0  0  0  0  0  1  0  0  0  0  0  0
  1 20  1  0  0  0  0
  2 24  1  1  0  0  0
  2 12  1  0  0  0  0
  3 11  1  0  0  0  0
  4  3  2  0  0  0  0
  5 27  1  0  0  0  0
  6 28  1  0  0  0  0
  6  5  1  0  0  0  0
  7 24  1  6  0  0  0
  7 17  1  0  0  0  0
  9 28  1  0  0  0  0
 12  8  1  6  0  0  0
 13 12  1  0  0  0  0
 13 11  2  0  0  0  0
 14 22  1  0  0  0  0
 15 18  1  0  0  0  0
 15  9  2  0  0  0  0
 16 19  1  0  0  0  0
 16  1  1  0  0  0  0
 17  8  1  6  0  0  0
 17 10  1  0  0  0  0
 18  6  2  0  0  0  0
 19  7  1  0  0  0  0
 20 29  1  1  0  0  0
 20 10  1  0  0  0  0
 21  4  1  0  0  0  0
 22 21  2  0  0  0  0
 22 13  1  0  0  0  0
 23 14  2  0  0  0  0
 25  5  2  0  0  0  0
 26  9  1  0  0  0  0
 27 14  1  0  0  0  0
 27  2  1  0  0  0  0
 28 23  1  0  0  0  0
 29 30  1  0  0  0  0
 30 31  2  0  0  0  0
 30 32  1  0  0  0  0
M  END
>  <MODEL>
6

>  <REMARK>
 VINA RESULT:      -8.3      3.213      7.835
  Name = 
  2 active torsions:
  status: ('A' for Active; 'I' for Inactive)
    1  A    between atoms: C_20  and  C_29
    2  A    between atoms: C_29  and  C_30
                            x       y       z     vdW  Elec       q    Type
                         _______ _______ _______ _____ _____    ______ ____

>  <TORSDO>
F 2

$$$$
=
 OpenBabel11112416443D

 32 37  0  0  1  0  0  0  0  0999 V2000
  194.7160  175.9010  144.8610 C   0  0  0  0  0  2  0  0  0  0  0  0
  190.1640  175.8260  144.5180 C   0  0  2  0  0  3  0  0  0  0  0  0
  190.0630  173.4380  140.1930 C   0  0  0  0  0  3  0  0  0  0  0  0
  188.9150  174.1440  139.8340 C   0  0  0  0  0  3  0  0  0  0  0  0
  188.2340  177.3230  145.0430 C   0  0  0  0  0  0  0  0  0  0  0  0
  186.9650  177.8040  144.7320 C   0  0  0  0  0  0  0  0  0  0  0  0
  191.8860  175.2740  146.2870 C   0  0  1  0  0  3  0  0  0  0  0  0
  191.9470  174.1510  143.9690 C   0  0  0  0  0  2  0  0  0  0  0  0
  185.1660  178.0460  143.6150 C   0  0  0  0  0  0  0  0  0  0  0  0
  193.8100  173.6220  145.5950 C   0  0  0  0  0  2  0  0  0  0  0  0
  190.5850  173.5660  141.4810 C   0  0  0  0  0  3  0  0  0  0  0  0
  190.4560  174.4740  143.8380 C   0  0  2  0  0  3  0  0  0  0  0  0
  189.9780  174.4220  142.4160 C   0  0  0  0  0  0  0  0  0  0  0  0
  188.1550  175.9950  143.0560 C   0  0  0  0  0  0  0  0  0  0  0  0
  185.0370  178.8810  144.6720 N   0  0  0  0  0  0  0  0  0  0  0  0
  193.3710  176.6320  144.9090 C   0  0  0  0  0  2  0  0  0  0  0  0
  192.3430  174.0490  145.4430 C   0  0  1  0  0  3  0  0  0  0  0  0
  186.1810  178.7350  145.3880 C   0  0  0  0  0  3  0  0  0  0  0  0
  192.7320  176.4800  146.2140 N   0  0  0  0  0  2  0  0  0  0  0  0
  194.8110  174.7480  145.8660 C   0  0  1  0  0  3  0  0  0  0  0  0
  188.2880  174.9740  140.7660 C   0  0  0  0  0  3  0  0  0  0  0  0
  188.8090  175.1120  142.0650 C   0  0  0  0  0  0  0  0  0  0  0  0
  186.8780  176.5160  142.7640 C   0  0  0  0  0  3  0  0  0  0  0  0
  190.4200  175.6190  146.0190 C   0  0  0  0  0  2  0  0  0  0  0  0
  188.8460  177.7990  146.0390 O   0  0  0  0  0  0  0  0  0  0  0  0
  184.1350  177.9030  142.5490 C   0  0  0  0  0  1  0  0  0  0  0  0
  188.8000  176.3520  144.2330 N   0  0  0  0  0  0  0  0  0  0  0  0
  186.3330  177.3860  143.6390 N   0  0  0  0  0  0  0  0  0  0  0  0
  196.2190  174.1710  145.8810 C   0  0  0  0  0  2  0  0  0  0  0  0
  196.2930  172.9020  145.0940 C   0  0  0  0  0  0  0  0  0  0  0  0
  196.3840  172.9470  143.7680 C   0  0  0  0  0  2  0  0  0  0  0  0
  196.3430  171.5860  145.7930 C   0  0  0  0  0  1  0  0  0  0  0  0
  1 16  1  0  0  0  0
  1 20  1  0  0  0  0
  2 24  1  1  0  0  0
  3 11  1  0  0  0  0
  4  3  2  0  0  0  0
  4 21  1  0  0  0  0
  5 25  2  0  0  0  0
  6  5  1  0  0  0  0
  6 18  2  0  0  0  0
  7 24  1  6  0  0  0
  9 28  1  0  0  0  0
  9 15  2  0  0  0  0
 10 20  1  0  0  0  0
 11 13  2  0  0  0  0
 12  8  1  6  0  0  0
 12  2  1  0  0  0  0
 13 12  1  0  0  0  0
 14 27  1  0  0  0  0
 15 18  1  0  0  0  0
 16 19  1  0  0  0  0
 17  8  1  6  0  0  0
 17 10  1  0  0  0  0
 17  7  1  0  0  0  0
 19  7  1  0  0  0  0
 20 29  1  6  0  0  0
 21 22  2  0  0  0  0
 22 13  1  0  0  0  0
 22 14  1  0  0  0  0
 23 14  2  0  0  0  0
 23 28  1  0  0  0  0
 26  9  1  0  0  0  0
 27  2  1  0  0  0  0
 27  5  1  0  0  0  0
 28  6  1  0  0  0  0
 30 32  1  0  0  0  0
 30 29  1  0  0  0  0
 31 30  2  0  0  0  0
M  END
>  <MODEL>
7

>  <REMARK>
 VINA RESULT:      -8.3      2.614      5.313
  Name = 
  2 active torsions:
  status: ('A' for Active; 'I' for Inactive)
    1  A    between atoms: C_20  and  C_29
    2  A    between atoms: C_29  and  C_30
                            x       y       z     vdW  Elec       q    Type
                         _______ _______ _______ _____ _____    ______ ____

>  <TORSDO>
F 2

$$$$
=
 OpenBabel11112416443D

 32 37  0  0  1  0  0  0  0  0999 V2000
  186.6700  178.6660  142.1830 C   0  0  0  0  0  2  0  0  0  0  0  0
  189.8320  175.6410  143.4850 C   0  0  2  0  0  3  0  0  0  0  0  0
  190.4390  177.5230  148.0140 C   0  0  0  0  0  3  0  0  0  0  0  0
  191.7870  177.1650  147.9770 C   0  0  0  0  0  3  0  0  0  0  0  0
  191.7730  174.4300  142.4800 C   0  0  0  0  0  0  0  0  0  0  0  0
  193.0470  173.8850  142.6070 C   0  0  0  0  0  0  0  0  0  0  0  0
  187.5560  175.5660  142.3840 C   0  0  1  0  0  3  0  0  0  0  0  0
  187.8960  176.7060  144.6690 C   0  0  0  0  0  2  0  0  0  0  0  0
  194.8990  173.3950  143.5420 C   0  0  0  0  0  0  0  0  0  0  0  0
  185.6030  176.8280  143.6110 C   0  0  0  0  0  2  0  0  0  0  0  0
  189.5840  177.1210  146.9850 C   0  0  0  0  0  3  0  0  0  0  0  0
  189.1450  175.8390  144.8500 C   0  0  2  0  0  3  0  0  0  0  0  0
  190.0750  176.3800  145.8960 C   0  0  0  0  0  0  0  0  0  0  0  0
  191.9370  175.1970  144.7390 C   0  0  0  0  0  0  0  0  0  0  0  0
  195.0020  172.9080  142.2850 N   0  0  0  0  0  0  0  0  0  0  0  0
  187.9810  177.9210  141.9160 C   0  0  0  0  0  2  0  0  0  0  0  0
  186.9070  176.0250  143.7220 C   0  0  1  0  0  3  0  0  0  0  0  0
  193.8270  173.2170  141.6800 C   0  0  0  0  0  3  0  0  0  0  0  0
  187.7320  176.5990  141.3460 N   0  0  0  0  0  2  0  0  0  0  0  0
  185.4730  177.7280  142.3790 C   0  0  1  0  0  3  0  0  0  0  0  0
  192.2760  176.4030  146.9150 C   0  0  0  0  0  3  0  0  0  0  0  0
  191.4240  175.9980  145.8730 C   0  0  0  0  0  0  0  0  0  0  0  0
  193.2310  174.6470  144.8270 C   0  0  0  0  0  3  0  0  0  0  0  0
  188.8630  174.8100  142.6290 C   0  0  0  0  0  2  0  0  0  0  0  0
  191.1950  174.3890  141.3590 O   0  0  0  0  0  0  0  0  0  0  0  0
  195.9860  173.2910  144.5560 C   0  0  0  0  0  1  0  0  0  0  0  0
  191.1850  175.0270  143.5830 N   0  0  0  0  0  0  0  0  0  0  0  0
  193.7160  173.9910  143.7520 N   0  0  0  0  0  0  0  0  0  0  0  0
  184.1820  178.5270  142.4780 C   0  0  0  0  0  2  0  0  0  0  0  0
  183.2870  178.2580  141.3110 C   0  0  0  0  0  0  0  0  0  0  0  0
  183.8100  177.9160  140.1380 C   0  0  0  0  0  2  0  0  0  0  0  0
  181.8060  178.2950  141.4770 C   0  0  0  0  0  1  0  0  0  0  0  0
  1 20  1  0  0  0  0
  2 24  1  6  0  0  0
  2 27  1  0  0  0  0
  2 12  1  0  0  0  0
  4  3  1  0  0  0  0
  5  6  1  0  0  0  0
  5 27  1  0  0  0  0
  6 28  1  0  0  0  0
  7 24  1  1  0  0  0
  7 17  1  0  0  0  0
  9 28  1  0  0  0  0
  9 26  1  0  0  0  0
 11  3  2  0  0  0  0
 12  8  1  6  0  0  0
 12 13  1  0  0  0  0
 13 11  1  0  0  0  0
 14 23  2  0  0  0  0
 14 22  1  0  0  0  0
 15  9  2  0  0  0  0
 16  1  1  0  0  0  0
 17 10  1  6  0  0  0
 17  8  1  0  0  0  0
 18 15  1  0  0  0  0
 18  6  2  0  0  0  0
 19 16  1  0  0  0  0
 19  7  1  0  0  0  0
 20 29  1  1  0  0  0
 20 10  1  0  0  0  0
 21  4  2  0  0  0  0
 22 13  2  0  0  0  0
 22 21  1  0  0  0  0
 25  5  2  0  0  0  0
 27 14  1  0  0  0  0
 28 23  1  0  0  0  0
 30 32  1  0  0  0  0
 30 29  1  0  0  0  0
 31 30  2  0  0  0  0
M  END
>  <MODEL>
8

>  <REMARK>
 VINA RESULT:      -8.2      2.500      8.334
  Name = 
  2 active torsions:
  status: ('A' for Active; 'I' for Inactive)
    1  A    between atoms: C_20  and  C_29
    2  A    between atoms: C_29  and  C_30
                            x       y       z     vdW  Elec       q    Type
                         _______ _______ _______ _____ _____    ______ ____

>  <TORSDO>
F 2

$$$$
=
 OpenBabel11112416443D

 32 37  0  0  1  0  0  0  0  0999 V2000
  188.0540  176.2040  147.1510 C   0  0  0  0  0  2  0  0  0  0  0  0
  191.0490  176.0020  143.7120 C   0  0  2  0  0  3  0  0  0  0  0  0
  188.1940  173.2440  140.7700 C   0  0  0  0  0  3  0  0  0  0  0  0
  189.3310  172.6200  140.2570 C   0  0  0  0  0  3  0  0  0  0  0  0
  193.5220  175.8170  143.4070 C   0  0  0  0  0  0  0  0  0  0  0  0
  194.6130  175.3400  142.6850 C   0  0  0  0  0  0  0  0  0  0  0  0
  190.0640  177.8020  145.1920 C   0  0  1  0  0  3  0  0  0  0  0  0
  188.5560  176.2500  143.7940 C   0  0  0  0  0  2  0  0  0  0  0  0
  195.6590  174.2630  141.1720 C   0  0  0  0  0  0  0  0  0  0  0  0
  187.4420  177.9100  145.3430 C   0  0  0  0  0  2  0  0  0  0  0  0
  188.3270  174.3240  141.6440 C   0  0  0  0  0  3  0  0  0  0  0  0
  189.7560  176.0090  142.8740 C   0  0  2  0  0  3  0  0  0  0  0  0
  189.5990  174.7750  142.0350 C   0  0  0  0  0  0  0  0  0  0  0  0
  192.0830  174.6550  141.8910 C   0  0  0  0  0  0  0  0  0  0  0  0
  196.6250  174.8250  141.9330 N   0  0  0  0  0  0  0  0  0  0  0  0
  189.4730  175.9340  146.6440 C   0  0  0  0  0  2  0  0  0  0  0  0
  188.6860  177.6020  144.4980 C   0  0  1  0  0  3  0  0  0  0  0  0
  195.9680  175.5120  142.9020 C   0  0  0  0  0  3  0  0  0  0  0  0
  190.2350  177.1740  146.5160 N   0  0  0  0  0  2  0  0  0  0  0  0
  187.5630  177.6230  146.8430 C   0  0  1  0  0  3  0  0  0  0  0  0
  190.5990  173.0810  140.6160 C   0  0  0  0  0  3  0  0  0  0  0  0
  190.7420  174.1660  141.4990 C   0  0  0  0  0  0  0  0  0  0  0  0
  193.2110  174.1780  141.1930 C   0  0  0  0  0  3  0  0  0  0  0  0
  191.2180  177.4280  144.2590 C   0  0  0  0  0  2  0  0  0  0  0  0
  193.7240  176.4760  144.4640 O   0  0  0  0  0  0  0  0  0  0  0  0
  195.9400  173.3960  139.9940 C   0  0  0  0  0  1  0  0  0  0  0  0
  192.2430  175.5300  142.9580 N   0  0  0  0  0  0  0  0  0  0  0  0
  194.4310  174.5680  141.6170 N   0  0  0  0  0  0  0  0  0  0  0  0
  186.2200  177.8780  147.5090 C   0  0  0  0  0  2  0  0  0  0  0  0
  185.0900  177.6470  146.5580 C   0  0  0  0  0  0  0  0  0  0  0  0
  184.8160  176.4160  146.1380 C   0  0  0  0  0  2  0  0  0  0  0  0
  184.2190  178.7810  146.1370 C   0  0  0  0  0  1  0  0  0  0  0  0
  2 24  1  6  0  0  0
  3 11  1  0  0  0  0
  4 21  1  0  0  0  0
  4  3  2  0  0  0  0
  5 25  2  0  0  0  0
  6 18  2  0  0  0  0
  6  5  1  0  0  0  0
  7 24  1  6  0  0  0
  7 19  1  0  0  0  0
  9 28  1  0  0  0  0
  9 15  2  0  0  0  0
 10 20  1  0  0  0  0
 11 13  2  0  0  0  0
 12  2  1  0  0  0  0
 12  8  1  1  0  0  0
 13 12  1  0  0  0  0
 14 27  1  0  0  0  0
 15 18  1  0  0  0  0
 16  1  1  0  0  0  0
 17  8  1  1  0  0  0
 17  7  1  0  0  0  0
 17 10  1  0  0  0  0
 19 16  1  0  0  0  0
 20  1  1  0  0  0  0
 20 29  1  1  0  0  0
 21 22  2  0  0  0  0
 22 14  1  0  0  0  0
 22 13  1  0  0  0  0
 23 28  1  0  0  0  0
 23 14  2  0  0  0  0
 26  9  1  0  0  0  0
 27  5  1  0  0  0  0
 27  2  1  0  0  0  0
 28  6  1  0  0  0  0
 30 29  1  0  0  0  0
 31 30  2  0  0  0  0
 32 30  1  0  0  0  0
M  END
>  <MODEL>
9

>  <REMARK>
 VINA RESULT:      -8.1      3.856      8.579
  Name = 
  2 active torsions:
  status: ('A' for Active; 'I' for Inactive)
    1  A    between atoms: C_20  and  C_29
    2  A    between atoms: C_29  and  C_30
                            x       y       z     vdW  Elec       q    Type
                         _______ _______ _______ _____ _____    ______ ____

>  <TORSDO>
F 2

$$$$
