=
 OpenBabel11112416183D

 30 35  0  0  1  0  0  0  0  0999 V2000
  187.0000  177.7780  144.4490 C   0  0  0  0  0  0  0  0  0  0  0  0
  185.4080  178.7200  146.1470 C   0  0  2  0  0  3  0  0  0  0  0  0
  190.0360  176.9140  147.2260 N   0  0  0  0  0  2  0  0  0  0  0  0
  188.2950  177.1260  144.0660 C   0  0  0  0  0  0  0  0  0  0  0  0
  185.9750  177.9820  143.4090 C   0  0  0  0  0  3  0  0  0  0  0  0
  187.5130  176.6020  140.4950 O   0  0  0  0  0  0  0  0  0  0  0  0
  191.0200  176.0990  142.5550 C   0  0  1  0  0  3  0  0  0  0  0  0
  187.4150  177.0060  141.6860 C   0  0  0  0  0  0  0  0  0  0  0  0
  191.3070  176.7490  143.8450 N   0  0  2  0  0  0  0  0  0  0  0  0
  191.0800  176.3730  146.3400 C   0  0  1  0  0  3  0  0  0  0  0  0
  186.1490  177.6170  142.1400 C   0  0  0  0  0  0  0  0  0  0  0  0
  188.6230  176.9540  142.5900 C   0  0  2  0  0  3  0  0  0  0  0  0
  185.4320  179.3330  147.5230 C   0  0  0  0  0  3  0  0  0  0  0  0
  192.7300  176.4740  144.0610 C   0  0  0  0  0  2  0  0  0  0  0  0
  191.9630  174.9310  142.3660 C   0  0  0  0  0  2  0  0  0  0  0  0
  184.4340  177.7200  146.1120 O   0  0  0  0  0  1  0  0  0  0  0  0
  188.9580  177.1910  146.3780 N   0  0  0  0  0  0  0  0  0  0  0  0
  186.4370  179.1400  148.3820 C   0  0  0  0  0  3  0  0  0  0  0  0
  186.7460  178.1380  145.7310 C   0  0  0  0  0  0  0  0  0  0  0  0
  189.1880  176.8380  145.0380 C   0  0  0  0  0  0  0  0  0  0  0  0
  191.5860  175.0580  146.8980 C   0  0  0  0  0  1  0  0  0  0  0  0
  190.4950  176.1520  144.9220 C   0  0  1  0  0  3  0  0  0  0  0  0
  193.1220  175.2310  143.2800 C   0  0  0  0  0  2  0  0  0  0  0  0
  189.0490  174.4460  142.8260 C   0  0  0  0  0  1  0  0  0  0  0  0
  187.6260  178.3590  148.0080 C   0  0  0  0  0  3  0  0  0  0  0  0
  187.7770  177.8920  146.7660 C   0  0  0  0  0  0  0  0  0  0  0  0
  189.5430  175.7740  142.2530 C   0  0  2  0  0  3  0  0  0  0  0  0
  185.0340  177.8550  141.1710 C   0  0  0  0  0  2  0  0  0  0  0  0
  182.5650  178.1560  140.9310 C   0  0  0  0  0  1  0  0  0  0  0  0
  183.7360  178.1840  141.8950 C   0  0  0  0  0  2  0  0  0  0  0  0
  1 19  2  0  0  0  0
  2 16  1  1  0  0  0
  2 13  1  0  0  0  0
  4  1  1  0  0  0  0
  4 20  2  0  0  0  0
  5  1  1  0  0  0  0
  6  8  2  0  0  0  0
  7 15  1  1  0  0  0
  7  9  1  0  0  0  0
  8 11  1  0  0  0  0
  9 14  1  1  0  0  0
  9 22  1  0  0  0  0
 10 21  1  1  0  0  0
 10  3  1  0  0  0  0
 11  5  2  0  0  0  0
 12  8  1  6  0  0  0
 12  4  1  0  0  0  0
 13 18  2  0  0  0  0
 15 23  1  0  0  0  0
 17 26  1  0  0  0  0
 17  3  1  0  0  0  0
 19  2  1  0  0  0  0
 19 26  1  0  0  0  0
 20 17  1  0  0  0  0
 22 20  1  1  0  0  0
 22 10  1  0  0  0  0
 23 14  1  0  0  0  0
 25 18  1  0  0  0  0
 26 25  2  0  0  0  0
 27  7  1  0  0  0  0
 27 12  1  0  0  0  0
 27 24  1  1  0  0  0
 28 30  1  0  0  0  0
 28 11  1  0  0  0  0
 29 30  1  0  0  0  0
M  END
>  <MODEL>
1

>  <REMARK>
 VINA RESULT:      -8.3      0.000      0.000
  Name = 
  2 active torsions:
  status: ('A' for Active; 'I' for Inactive)
    1  A    between atoms: C_11  and  C_28
    2  A    between atoms: C_28  and  C_30
                            x       y       z     vdW  Elec       q    Type
                         _______ _______ _______ _____ _____    ______ ____

>  <TORSDO>
F 2

$$$$
=
 OpenBabel11112416183D

 30 35  0  0  1  0  0  0  0  0999 V2000
  189.1460  176.5340  144.4390 C   0  0  0  0  0  0  0  0  0  0  0  0
  189.4270  177.5120  146.7340 C   0  0  0  0  0  0  0  0  0  0  0  0
  191.9270  173.4340  145.0130 N   0  0  0  0  0  2  0  0  0  0  0  0
  189.4440  175.5010  143.3930 C   0  0  0  0  0  0  0  0  0  0  0  0
  188.1090  177.5440  144.1610 C   0  0  0  0  0  3  0  0  0  0  0  0
  186.9730  176.6400  140.8960 O   0  0  0  0  0  0  0  0  0  0  0  0
  189.9500  173.8380  140.6100 C   0  0  1  0  0  3  0  0  0  0  0  0
  187.6950  176.6210  141.9310 C   0  0  0  0  0  0  0  0  0  0  0  0
  191.1170  173.7960  141.5070 N   0  0  2  0  0  0  0  0  0  0  0  0
  191.8920  172.7790  143.6950 C   0  0  1  0  0  3  0  0  0  0  0  0
  187.4250  177.5830  143.0190 C   0  0  0  0  0  0  0  0  0  0  0  0
  188.8810  175.6890  141.9920 C   0  0  2  0  0  3  0  0  0  0  0  0
  190.4380  177.5410  147.8510 C   0  0  0  0  0  3  0  0  0  0  0  0
  191.9990  172.8070  140.8810 C   0  0  0  0  0  2  0  0  0  0  0  0
  189.7990  172.4960  139.9280 C   0  0  0  0  0  2  0  0  0  0  0  0
  188.1760  177.1930  147.2630 O   0  0  0  0  0  1  0  0  0  0  0  0
  190.9860  174.4650  144.9220 N   0  0  0  0  0  0  0  0  0  0  0  0
  191.3860  176.6090  147.9910 C   0  0  0  0  0  3  0  0  0  0  0  0
  189.7800  176.5260  145.6370 C   0  0  0  0  0  0  0  0  0  0  0  0
  190.3130  174.5100  143.6900 C   0  0  0  0  0  0  0  0  0  0  0  0
  191.7090  171.2860  143.8750 C   0  0  0  0  0  1  0  0  0  0  0  0
  190.7220  173.3560  142.8580 C   0  0  1  0  0  3  0  0  0  0  0  0
  191.1660  171.8700  140.0220 C   0  0  0  0  0  2  0  0  0  0  0  0
  187.7910  173.3780  141.9600 C   0  0  0  0  0  1  0  0  0  0  0  0
  191.5420  175.5210  147.0130 C   0  0  0  0  0  3  0  0  0  0  0  0
  190.7950  175.4810  145.9080 C   0  0  2  0  0  3  0  0  0  0  0  0
  188.6400  174.3980  141.2000 C   0  0  2  0  0  3  0  0  0  0  0  0
  186.3790  178.6410  142.8510 C   0  0  0  0  0  2  0  0  0  0  0  0
  184.4440  179.0370  144.3810 C   0  0  0  0  0  1  0  0  0  0  0  0
  185.9410  179.2010  144.1960 C   0  0  0  0  0  2  0  0  0  0  0  0
  1 19  2  0  0  0  0
  2 16  1  0  0  0  0
  2 13  2  0  0  0  0
  4 20  2  0  0  0  0
  4  1  1  0  0  0  0
  5  1  1  0  0  0  0
  6  8  2  0  0  0  0
  7 15  1  1  0  0  0
  7 27  1  0  0  0  0
  7  9  1  0  0  0  0
  8 11  1  0  0  0  0
  9 14  1  6  0  0  0
  9 22  1  0  0  0  0
 10 21  1  1  0  0  0
 10  3  1  0  0  0  0
 11  5  2  0  0  0  0
 12  8  1  1  0  0  0
 12  4  1  0  0  0  0
 13 18  1  0  0  0  0
 15 23  1  0  0  0  0
 17  3  1  0  0  0  0
 17 26  1  0  0  0  0
 19 26  1  0  0  0  0
 19  2  1  0  0  0  0
 20 17  1  0  0  0  0
 22 20  1  1  0  0  0
 22 10  1  0  0  0  0
 23 14  1  0  0  0  0
 25 18  2  0  0  0  0
 26 25  1  6  0  0  0
 27 24  1  1  0  0  0
 27 12  1  0  0  0  0
 28 11  1  0  0  0  0
 28 30  1  0  0  0  0
 30 29  1  0  0  0  0
M  END
>  <MODEL>
2

>  <REMARK>
 VINA RESULT:      -7.9      2.264      3.630
  Name = 
  2 active torsions:
  status: ('A' for Active; 'I' for Inactive)
    1  A    between atoms: C_11  and  C_28
    2  A    between atoms: C_28  and  C_30
                            x       y       z     vdW  Elec       q    Type
                         _______ _______ _______ _____ _____    ______ ____

>  <TORSDO>
F 2

$$$$
=
 OpenBabel11112416183D

 30 35  0  0  1  0  0  0  0  0999 V2000
  187.6330  176.4920  143.6210 C   0  0  0  0  0  0  0  0  0  0  0  0
  186.1760  178.1470  142.4220 C   0  0  0  0  0  0  0  0  0  0  0  0
  188.8970  174.5130  140.1340 N   0  0  0  0  0  2  0  0  0  0  0  0
  188.6070  175.3510  143.6380 C   0  0  0  0  0  0  0  0  0  0  0  0
  187.3020  177.1570  144.8940 C   0  0  0  0  0  3  0  0  0  0  0  0
  189.2960  175.3790  147.2650 O   0  0  0  0  0  0  0  0  0  0  0  0
  190.3950  172.6980  144.3670 C   0  0  1  0  0  3  0  0  0  0  0  0
  188.7600  175.6480  146.1550 C   0  0  0  0  0  0  0  0  0  0  0  0
  189.7010  172.5670  143.0740 N   0  0  2  0  0  0  0  0  0  0  0  0
  189.7560  173.4620  140.7040 C   0  0  1  0  0  3  0  0  0  0  0  0
  187.8260  176.7890  146.0620 C   0  0  0  0  0  0  0  0  0  0  0  0
  189.0010  174.7400  144.9740 C   0  0  2  0  0  3  0  0  0  0  0  0
  185.4470  178.2920  141.1110 C   0  0  0  0  0  3  0  0  0  0  0  0
  190.2790  171.3520  142.4940 C   0  0  0  0  0  2  0  0  0  0  0  0
  191.7640  172.0640  144.2630 C   0  0  0  0  0  2  0  0  0  0  0  0
  186.9160  179.3050  142.6600 O   0  0  0  0  0  1  0  0  0  0  0  0
  188.4630  175.2550  141.2370 N   0  0  0  0  0  0  0  0  0  0  0  0
  185.7820  177.6000  140.0180 C   0  0  0  0  0  3  0  0  0  0  0  0
  187.0940  176.9400  142.4610 C   0  0  0  0  0  0  0  0  0  0  0  0
  188.9960  174.8140  142.4600 C   0  0  0  0  0  0  0  0  0  0  0  0
  191.0880  173.4500  139.9830 C   0  0  0  0  0  1  0  0  0  0  0  0
  189.9770  173.7340  142.2140 C   0  0  1  0  0  3  0  0  0  0  0  0
  191.6520  171.1150  143.0990 C   0  0  0  0  0  2  0  0  0  0  0  0
  191.5020  175.0300  144.5350 C   0  0  0  0  0  1  0  0  0  0  0  0
  186.8540  176.5930  140.0470 C   0  0  0  0  0  3  0  0  0  0  0  0
  187.4680  176.2780  141.1900 C   0  0  2  0  0  3  0  0  0  0  0  0
  190.3920  174.0960  145.0190 C   0  0  2  0  0  3  0  0  0  0  0  0
  187.4340  177.5480  147.2900 C   0  0  0  0  0  2  0  0  0  0  0  0
  185.4300  179.0400  147.2600 C   0  0  0  0  0  1  0  0  0  0  0  0
  185.9200  177.6150  147.4360 C   0  0  0  0  0  2  0  0  0  0  0  0
  1  4  1  0  0  0  0
  1  5  1  0  0  0  0
  2 19  1  0  0  0  0
  2 16  1  0  0  0  0
  3 10  1  0  0  0  0
  3 17  1  0  0  0  0
  5 11  2  0  0  0  0
  7 15  1  6  0  0  0
  7 27  1  0  0  0  0
  8  6  2  0  0  0  0
  9 14  1  6  0  0  0
  9  7  1  0  0  0  0
 10 21  1  6  0  0  0
 10 22  1  0  0  0  0
 11  8  1  0  0  0  0
 11 28  1  0  0  0  0
 12  4  1  6  0  0  0
 12 27  1  0  0  0  0
 12  8  1  0  0  0  0
 13  2  2  0  0  0  0
 14 23  1  0  0  0  0
 17 20  1  0  0  0  0
 18 25  2  0  0  0  0
 18 13  1  0  0  0  0
 19  1  2  0  0  0  0
 20  4  2  0  0  0  0
 22 20  1  1  0  0  0
 22  9  1  0  0  0  0
 23 15  1  0  0  0  0
 26 25  1  1  0  0  0
 26 17  1  0  0  0  0
 26 19  1  0  0  0  0
 27 24  1  6  0  0  0
 28 30  1  0  0  0  0
 29 30  1  0  0  0  0
M  END
>  <MODEL>
3

>  <REMARK>
 VINA RESULT:      -7.8      2.564      5.269
  Name = 
  2 active torsions:
  status: ('A' for Active; 'I' for Inactive)
    1  A    between atoms: C_11  and  C_28
    2  A    between atoms: C_28  and  C_30
                            x       y       z     vdW  Elec       q    Type
                         _______ _______ _______ _____ _____    ______ ____

>  <TORSDO>
F 2

$$$$
=
 OpenBabel11112416183D

 30 35  0  0  1  0  0  0  0  0999 V2000
  189.3200  175.7500  144.2800 C   0  0  0  0  0  0  0  0  0  0  0  0
  191.5590  174.9720  145.1090 C   0  0  2  0  0  3  0  0  0  0  0  0
  188.3020  177.7840  147.8150 N   0  0  0  0  0  2  0  0  0  0  0  0
  188.0400  176.5120  144.4420 C   0  0  0  0  0  0  0  0  0  0  0  0
  189.6100  175.1220  142.9780 C   0  0  0  0  0  3  0  0  0  0  0  0
  186.7650  176.0180  141.0120 O   0  0  0  0  0  0  0  0  0  0  0  0
  184.9530  177.6210  144.3190 C   0  0  1  0  0  3  0  0  0  0  0  0
  187.4860  175.8990  142.0400 C   0  0  0  0  0  0  0  0  0  0  0  0
  185.4000  177.3600  145.6990 N   0  0  2  0  0  0  0  0  0  0  0  0
  186.9560  178.2760  147.4770 C   0  0  1  0  0  3  0  0  0  0  0  0
  188.7830  175.1980  141.9370 C   0  0  0  0  0  0  0  0  0  0  0  0
  186.9650  176.3830  143.3730 C   0  0  2  0  0  3  0  0  0  0  0  0
  192.2740  174.7200  146.4110 C   0  0  0  0  0  3  0  0  0  0  0  0
  184.3300  177.9300  146.5220 C   0  0  0  0  0  2  0  0  0  0  0  0
  184.0850  178.8590  144.3040 C   0  0  0  0  0  2  0  0  0  0  0  0
  192.3780  175.7420  144.2830 O   0  0  0  0  0  1  0  0  0  0  0  0
  188.7380  177.1230  146.6620 N   0  0  0  0  0  0  0  0  0  0  0  0
  191.9020  175.2900  147.5610 C   0  0  0  0  0  3  0  0  0  0  0  0
  190.2230  175.6670  145.2880 C   0  0  0  0  0  0  0  0  0  0  0  0
  187.8250  177.1810  145.5960 C   0  0  0  0  0  0  0  0  0  0  0  0
  186.8620  179.7550  147.7930 C   0  0  0  0  0  1  0  0  0  0  0  0
  186.6800  178.0420  145.9700 C   0  0  1  0  0  3  0  0  0  0  0  0
  183.6030  178.9990  145.7240 C   0  0  0  0  0  2  0  0  0  0  0  0
  186.7900  178.9090  143.0320 C   0  0  0  0  0  1  0  0  0  0  0  0
  190.7170  176.1590  147.6370 C   0  0  0  0  0  3  0  0  0  0  0  0
  189.9260  176.3350  146.5770 C   0  0  0  0  0  0  0  0  0  0  0  0
  186.0360  177.5930  143.2210 C   0  0  2  0  0  3  0  0  0  0  0  0
  189.1860  174.5390  140.6560 C   0  0  0  0  0  2  0  0  0  0  0  0
  188.1910  172.7690  139.2000 C   0  0  0  0  0  1  0  0  0  0  0  0
  188.6870  173.1030  140.5950 C   0  0  0  0  0  2  0  0  0  0  0  0
  1  4  1  0  0  0  0
  1 19  2  0  0  0  0
  2 16  1  6  0  0  0
  2 19  1  0  0  0  0
  2 13  1  0  0  0  0
  4 20  2  0  0  0  0
  5  1  1  0  0  0  0
  6  8  2  0  0  0  0
  7 15  1  1  0  0  0
  7  9  1  0  0  0  0
  9 22  1  0  0  0  0
  9 14  1  1  0  0  0
 10 21  1  6  0  0  0
 10  3  1  0  0  0  0
 11  8  1  0  0  0  0
 11  5  2  0  0  0  0
 12  8  1  6  0  0  0
 12  4  1  0  0  0  0
 13 18  2  0  0  0  0
 15 23  1  0  0  0  0
 17  3  1  0  0  0  0
 18 25  1  0  0  0  0
 19 26  1  0  0  0  0
 20 17  1  0  0  0  0
 22 20  1  1  0  0  0
 22 10  1  0  0  0  0
 23 14  1  0  0  0  0
 26 17  1  0  0  0  0
 26 25  2  0  0  0  0
 27 24  1  1  0  0  0
 27 12  1  0  0  0  0
 27  7  1  0  0  0  0
 28 11  1  0  0  0  0
 29 30  1  0  0  0  0
 30 28  1  0  0  0  0
M  END
>  <MODEL>
4

>  <REMARK>
 VINA RESULT:      -7.7      1.995      5.654
  Name = 
  2 active torsions:
  status: ('A' for Active; 'I' for Inactive)
    1  A    between atoms: C_11  and  C_28
    2  A    between atoms: C_28  and  C_30
                            x       y       z     vdW  Elec       q    Type
                         _______ _______ _______ _____ _____    ______ ____

>  <TORSDO>
F 2

$$$$
=
 OpenBabel11112416183D

 30 35  0  0  1  0  0  0  0  0999 V2000
  188.3830  175.0210  142.6890 C   0  0  0  0  0  0  0  0  0  0  0  0
  188.3270  173.6230  140.6050 C   0  0  2  0  0  3  0  0  0  0  0  0
  192.0430  173.4820  144.0720 N   0  0  0  0  0  2  0  0  0  0  0  0
  189.0420  175.4930  143.9500 C   0  0  0  0  0  0  0  0  0  0  0  0
  187.1310  175.6690  142.2600 C   0  0  0  0  0  3  0  0  0  0  0  0
  186.5970  178.1280  144.7960 O   0  0  0  0  0  0  0  0  0  0  0  0
  189.7400  176.6210  146.9520 C   0  0  1  0  0  3  0  0  0  0  0  0
  187.1280  177.1410  144.2160 C   0  0  0  0  0  0  0  0  0  0  0  0
  190.3460  175.3030  146.6940 N   0  0  2  0  0  0  0  0  0  0  0  0
  192.1890  174.2070  145.3440 C   0  0  1  0  0  3  0  0  0  0  0  0
  186.5540  176.6550  142.9450 C   0  0  0  0  0  0  0  0  0  0  0  0
  188.2710  176.4140  144.8840 C   0  0  2  0  0  3  0  0  0  0  0  0
  188.9080  172.3380  140.0710 C   0  0  0  0  0  3  0  0  0  0  0  0
  191.2400  175.1050  147.8380 C   0  0  0  0  0  2  0  0  0  0  0  0
  190.7010  177.4600  147.7640 C   0  0  0  0  0  2  0  0  0  0  0  0
  188.5120  174.6320  139.6580 O   0  0  0  0  0  1  0  0  0  0  0  0
  190.8560  173.9720  143.5170 N   0  0  0  0  0  0  0  0  0  0  0  0
  190.0220  171.7900  140.5650 C   0  0  0  0  0  3  0  0  0  0  0  0
  188.9390  174.0490  141.9260 C   0  0  0  0  0  0  0  0  0  0  0  0
  190.2460  174.9780  144.2850 C   0  0  0  0  0  0  0  0  0  0  0  0
  193.5720  174.8220  145.4210 C   0  0  0  0  0  1  0  0  0  0  0  0
  191.1140  175.3200  145.4340 C   0  0  1  0  0  3  0  0  0  0  0  0
  191.6160  176.4580  148.4180 C   0  0  0  0  0  2  0  0  0  0  0  0
  190.1220  178.1740  144.9190 C   0  0  0  0  0  1  0  0  0  0  0  0
  190.7220  172.3800  141.7160 C   0  0  0  0  0  3  0  0  0  0  0  0
  190.2170  173.4350  142.3580 C   0  0  0  0  0  0  0  0  0  0  0  0
  189.1280  177.3530  145.7400 C   0  0  2  0  0  3  0  0  0  0  0  0
  185.2930  177.2540  142.4060 C   0  0  0  0  0  2  0  0  0  0  0  0
  184.2170  178.3740  140.4490 C   0  0  0  0  0  1  0  0  0  0  0  0
  185.5290  177.9090  141.0530 C   0  0  0  0  0  2  0  0  0  0  0  0
  1  4  1  0  0  0  0
  2 16  1  6  0  0  0
  2 19  1  0  0  0  0
  3 10  1  0  0  0  0
  4 20  2  0  0  0  0
  5  1  1  0  0  0  0
  5 11  2  0  0  0  0
  7 15  1  6  0  0  0
  8  6  2  0  0  0  0
  8 12  1  0  0  0  0
  9  7  1  0  0  0  0
  9 14  1  1  0  0  0
 10 21  1  6  0  0  0
 10 22  1  0  0  0  0
 11  8  1  0  0  0  0
 12  4  1  6  0  0  0
 12 27  1  0  0  0  0
 13 18  2  0  0  0  0
 13  2  1  0  0  0  0
 14 23  1  0  0  0  0
 15 23  1  0  0  0  0
 17  3  1  0  0  0  0
 17 20  1  0  0  0  0
 18 25  1  0  0  0  0
 19 26  1  0  0  0  0
 19  1  2  0  0  0  0
 22 20  1  6  0  0  0
 22  9  1  0  0  0  0
 25 26  2  0  0  0  0
 26 17  1  0  0  0  0
 27 24  1  6  0  0  0
 27  7  1  0  0  0  0
 28 11  1  0  0  0  0
 29 30  1  0  0  0  0
 30 28  1  0  0  0  0
M  END
>  <MODEL>
5

>  <REMARK>
 VINA RESULT:      -7.6      2.109      5.266
  Name = 
  2 active torsions:
  status: ('A' for Active; 'I' for Inactive)
    1  A    between atoms: C_11  and  C_28
    2  A    between atoms: C_28  and  C_30
                            x       y       z     vdW  Elec       q    Type
                         _______ _______ _______ _____ _____    ______ ____

>  <TORSDO>
F 2

$$$$
=
 OpenBabel11112416183D

 30 35  0  0  1  0  0  0  0  0999 V2000
  190.1470  175.6910  144.4430 C   0  0  0  0  0  0  0  0  0  0  0  0
  191.5140  176.3210  146.4520 C   0  0  0  0  0  0  0  0  0  0  0  0
  193.0330  173.0960  142.8270 N   0  0  0  0  0  2  0  0  0  0  0  0
  189.9280  174.9120  143.1800 C   0  0  0  0  0  0  0  0  0  0  0  0
  189.0470  176.5270  144.9580 C   0  0  0  0  0  3  0  0  0  0  0  0
  186.4420  175.9700  142.5770 O   0  0  0  0  0  0  0  0  0  0  0  0
  189.0240  173.8380  140.2140 C   0  0  1  0  0  3  0  0  0  0  0  0
  187.5970  175.9160  143.0820 C   0  0  0  0  0  0  0  0  0  0  0  0
  190.4870  173.8660  140.3770 N   0  0  2  0  0  0  0  0  0  0  0  0
  192.3630  172.6670  141.5890 C   0  0  1  0  0  3  0  0  0  0  0  0
  187.8660  176.6250  144.3500 C   0  0  0  0  0  0  0  0  0  0  0  0
  188.7050  175.2170  142.3290 C   0  0  2  0  0  3  0  0  0  0  0  0
  192.9550  176.3520  146.8930 C   0  0  0  0  0  3  0  0  0  0  0  0
  190.9810  173.1670  139.1870 C   0  0  0  0  0  2  0  0  0  0  0  0
  188.6360  172.6190  139.4060 C   0  0  0  0  0  2  0  0  0  0  0  0
  190.7500  175.6990  147.4400 O   0  0  0  0  0  1  0  0  0  0  0  0
  192.1120  173.9400  143.4570 N   0  0  0  0  0  0  0  0  0  0  0  0
  193.9000  175.5990  146.3250 C   0  0  0  0  0  3  0  0  0  0  0  0
  191.3120  175.6050  145.1300 C   0  0  0  0  0  0  0  0  0  0  0  0
  190.8930  174.0600  142.7690 C   0  0  0  0  0  0  0  0  0  0  0  0
  192.4090  171.1560  141.4850 C   0  0  0  0  0  1  0  0  0  0  0  0
  190.8900  173.1480  141.6020 C   0  0  1  0  0  3  0  0  0  0  0  0
  189.8920  172.2450  138.6630 C   0  0  0  0  0  2  0  0  0  0  0  0
  187.9290  172.7830  142.3060 C   0  0  0  0  0  1  0  0  0  0  0  0
  193.6000  174.7290  145.1770 C   0  0  0  0  0  3  0  0  0  0  0  0
  192.3910  174.7320  144.6120 C   0  0  2  0  0  3  0  0  0  0  0  0
  188.1790  174.0490  141.4870 C   0  0  2  0  0  3  0  0  0  0  0  0
  186.8140  177.4880  144.9710 C   0  0  0  0  0  2  0  0  0  0  0  0
  184.7740  177.4560  146.4130 C   0  0  0  0  0  1  0  0  0  0  0  0
  186.0660  176.7410  146.0660 C   0  0  0  0  0  2  0  0  0  0  0  0
  1  5  1  0  0  0  0
  1 19  2  0  0  0  0
  2 13  2  0  0  0  0
  2 16  1  0  0  0  0
  3 17  1  0  0  0  0
  4  1  1  0  0  0  0
  6  8  2  0  0  0  0
  7 15  1  1  0  0  0
  7  9  1  0  0  0  0
  7 27  1  0  0  0  0
  8 11  1  0  0  0  0
  9 14  1  6  0  0  0
  9 22  1  0  0  0  0
 10 21  1  1  0  0  0
 10 22  1  0  0  0  0
 10  3  1  0  0  0  0
 11  5  2  0  0  0  0
 11 28  1  0  0  0  0
 12  8  1  1  0  0  0
 12  4  1  0  0  0  0
 17 26  1  0  0  0  0
 18 13  1  0  0  0  0
 19  2  1  0  0  0  0
 20  4  2  0  0  0  0
 20 17  1  0  0  0  0
 22 20  1  1  0  0  0
 23 14  1  0  0  0  0
 23 15  1  0  0  0  0
 25 18  2  0  0  0  0
 26 19  1  0  0  0  0
 26 25  1  6  0  0  0
 27 24  1  1  0  0  0
 27 12  1  0  0  0  0
 28 30  1  0  0  0  0
 30 29  1  0  0  0  0
M  END
>  <MODEL>
6

>  <REMARK>
 VINA RESULT:      -7.6      2.716      5.238
  Name = 
  2 active torsions:
  status: ('A' for Active; 'I' for Inactive)
    1  A    between atoms: C_11  and  C_28
    2  A    between atoms: C_28  and  C_30
                            x       y       z     vdW  Elec       q    Type
                         _______ _______ _______ _____ _____    ______ ____

>  <TORSDO>
F 2

$$$$
=
 OpenBabel11112416183D

 30 35  0  0  1  0  0  0  0  0999 V2000
  188.9920  174.8790  142.1340 C   0  0  0  0  0  0  0  0  0  0  0  0
  188.1910  173.7940  140.0170 C   0  0  2  0  0  3  0  0  0  0  0  0
  192.9600  173.5390  141.7600 N   0  0  0  0  0  2  0  0  0  0  0  0
  190.0680  175.2300  143.1180 C   0  0  0  0  0  0  0  0  0  0  0  0
  187.6460  175.4500  142.3230 C   0  0  0  0  0  3  0  0  0  0  0  0
  188.0370  177.4530  145.2550 O   0  0  0  0  0  0  0  0  0  0  0  0
  191.8250  175.9820  145.7850 C   0  0  1  0  0  3  0  0  0  0  0  0
  188.3420  176.6190  144.3590 C   0  0  0  0  0  0  0  0  0  0  0  0
  192.3370  174.7840  145.0980 N   0  0  2  0  0  0  0  0  0  0  0  0
  193.5570  174.0860  142.9890 C   0  0  1  0  0  3  0  0  0  0  0  0
  187.3410  176.2630  143.3320 C   0  0  0  0  0  0  0  0  0  0  0  0
  189.6810  175.9240  144.4150 C   0  0  2  0  0  3  0  0  0  0  0  0
  188.5710  172.6660  139.0930 C   0  0  0  0  0  3  0  0  0  0  0  0
  193.6100  174.5160  145.7720 C   0  0  0  0  0  2  0  0  0  0  0  0
  192.9920  176.7910  146.3090 C   0  0  0  0  0  2  0  0  0  0  0  0
  187.9560  174.9420  139.2580 O   0  0  0  0  0  1  0  0  0  0  0  0
  191.6320  173.9800  141.7830 N   0  0  0  0  0  0  0  0  0  0  0  0
  189.8100  172.1690  139.0320 C   0  0  0  0  0  3  0  0  0  0  0  0
  189.2480  174.0870  141.0640 C   0  0  0  0  0  0  0  0  0  0  0  0
  191.3270  174.7980  142.8840 C   0  0  0  0  0  0  0  0  0  0  0  0
  194.8370  174.8210  142.6470 C   0  0  0  0  0  1  0  0  0  0  0  0
  192.5570  175.0590  143.6650 C   0  0  1  0  0  3  0  0  0  0  0  0
  194.1270  175.8040  146.3900 C   0  0  0  0  0  2  0  0  0  0  0  0
  191.3320  177.8410  144.0560 C   0  0  0  0  0  1  0  0  0  0  0  0
  190.8760  172.6570  139.9190 C   0  0  0  0  0  3  0  0  0  0  0  0
  190.6170  173.5520  140.8750 C   0  0  0  0  0  0  0  0  0  0  0  0
  190.7650  176.8140  145.0360 C   0  0  2  0  0  3  0  0  0  0  0  0
  185.9470  176.8020  143.4170 C   0  0  0  0  0  2  0  0  0  0  0  0
  185.5670  179.2700  143.5130 C   0  0  0  0  0  1  0  0  0  0  0  0
  185.8000  178.0790  142.6020 C   0  0  0  0  0  2  0  0  0  0  0  0
  1  5  1  0  0  0  0
  1  4  1  0  0  0  0
  2 16  1  6  0  0  0
  2 19  1  0  0  0  0
  3 17  1  0  0  0  0
  3 10  1  0  0  0  0
  5 11  2  0  0  0  0
  7 15  1  6  0  0  0
  8 12  1  0  0  0  0
  8  6  2  0  0  0  0
  9 14  1  1  0  0  0
  9  7  1  0  0  0  0
 10 21  1  6  0  0  0
 10 22  1  0  0  0  0
 11 28  1  0  0  0  0
 11  8  1  0  0  0  0
 12  4  1  6  0  0  0
 12 27  1  0  0  0  0
 13  2  1  0  0  0  0
 14 23  1  0  0  0  0
 15 23  1  0  0  0  0
 17 20  1  0  0  0  0
 18 13  2  0  0  0  0
 18 25  1  0  0  0  0
 19  1  2  0  0  0  0
 20  4  2  0  0  0  0
 22 20  1  6  0  0  0
 22  9  1  0  0  0  0
 25 26  2  0  0  0  0
 26 19  1  0  0  0  0
 26 17  1  0  0  0  0
 27 24  1  6  0  0  0
 27  7  1  0  0  0  0
 30 28  1  0  0  0  0
 30 29  1  0  0  0  0
M  END
>  <MODEL>
7

>  <REMARK>
 VINA RESULT:      -7.4      2.450      5.702
  Name = 
  2 active torsions:
  status: ('A' for Active; 'I' for Inactive)
    1  A    between atoms: C_11  and  C_28
    2  A    between atoms: C_28  and  C_30
                            x       y       z     vdW  Elec       q    Type
                         _______ _______ _______ _____ _____    ______ ____

>  <TORSDO>
F 2

$$$$
=
 OpenBabel11112416183D

 30 35  0  0  1  0  0  0  0  0999 V2000
  189.0580  174.2320  141.8270 C   0  0  0  0  0  0  0  0  0  0  0  0
  190.6850  172.3210  141.8380 C   0  0  2  0  0  3  0  0  0  0  0  0
  189.4570  175.0850  145.9250 N   0  0  0  0  0  2  0  0  0  0  0  0
  188.3340  175.3600  142.5000 C   0  0  0  0  0  0  0  0  0  0  0  0
  188.8960  174.0560  140.3720 C   0  0  0  0  0  3  0  0  0  0  0  0
  186.7090  176.7370  139.4840 O   0  0  0  0  0  0  0  0  0  0  0  0
  186.1900  177.6580  143.4430 C   0  0  1  0  0  3  0  0  0  0  0  0
  187.3590  175.9570  140.2320 C   0  0  0  0  0  0  0  0  0  0  0  0
  186.5610  176.7540  144.5450 N   0  0  2  0  0  0  0  0  0  0  0  0
  188.5030  176.1960  146.0740 C   0  0  1  0  0  3  0  0  0  0  0  0
  188.1310  174.8520  139.6270 C   0  0  0  0  0  0  0  0  0  0  0  0
  187.2520  176.1030  141.7310 C   0  0  2  0  0  3  0  0  0  0  0  0
  191.2870  171.3340  142.8060 C   0  0  0  0  0  3  0  0  0  0  0  0
  185.9780  177.3930  145.7280 C   0  0  0  0  0  2  0  0  0  0  0  0
  186.0430  179.0640  143.9820 C   0  0  0  0  0  2  0  0  0  0  0  0
  191.7070  172.8990  141.0850 O   0  0  0  0  0  1  0  0  0  0  0  0
  189.4190  174.7630  144.5640 N   0  0  0  0  0  0  0  0  0  0  0  0
  191.3360  171.5540  144.1230 C   0  0  0  0  0  3  0  0  0  0  0  0
  189.8810  173.4100  142.5220 C   0  0  0  0  0  0  0  0  0  0  0  0
  188.5680  175.5900  143.8110 C   0  0  0  0  0  0  0  0  0  0  0  0
  189.1730  177.3450  146.8000 C   0  0  0  0  0  1  0  0  0  0  0  0
  188.0280  176.6640  144.6750 C   0  0  1  0  0  3  0  0  0  0  0  0
  185.8070  178.8780  145.4590 C   0  0  0  0  0  2  0  0  0  0  0  0
  188.3120  178.3890  142.1570 C   0  0  0  0  0  1  0  0  0  0  0  0
  190.7410  172.7580  144.7220 C   0  0  0  0  0  3  0  0  0  0  0  0
  190.0560  173.6280  143.9770 C   0  0  0  0  0  0  0  0  0  0  0  0
  187.0270  177.5610  142.1510 C   0  0  2  0  0  3  0  0  0  0  0  0
  188.0550  174.5930  138.1550 C   0  0  0  0  0  2  0  0  0  0  0  0
  189.4530  173.9940  136.1730 C   0  0  0  0  0  1  0  0  0  0  0  0
  189.2720  173.8190  137.6690 C   0  0  0  0  0  2  0  0  0  0  0  0
  1  4  1  0  0  0  0
  1 19  2  0  0  0  0
  2 16  1  1  0  0  0
  2 19  1  0  0  0  0
  2 13  1  0  0  0  0
  3 10  1  0  0  0  0
  4 20  2  0  0  0  0
  5  1  1  0  0  0  0
  6  8  2  0  0  0  0
  7 15  1  1  0  0  0
  7  9  1  0  0  0  0
  9 22  1  0  0  0  0
  9 14  1  1  0  0  0
 10 21  1  6  0  0  0
 11  8  1  0  0  0  0
 11  5  2  0  0  0  0
 12  8  1  6  0  0  0
 12 27  1  0  0  0  0
 12  4  1  0  0  0  0
 13 18  2  0  0  0  0
 15 23  1  0  0  0  0
 17  3  1  0  0  0  0
 18 25  1  0  0  0  0
 19 26  1  0  0  0  0
 20 17  1  0  0  0  0
 22 20  1  6  0  0  0
 22 10  1  0  0  0  0
 23 14  1  0  0  0  0
 26 17  1  0  0  0  0
 26 25  2  0  0  0  0
 27 24  1  1  0  0  0
 27  7  1  0  0  0  0
 28 11  1  0  0  0  0
 29 30  1  0  0  0  0
 30 28  1  0  0  0  0
M  END
>  <MODEL>
8

>  <REMARK>
 VINA RESULT:      -7.3      2.745      6.057
  Name = 
  2 active torsions:
  status: ('A' for Active; 'I' for Inactive)
    1  A    between atoms: C_11  and  C_28
    2  A    between atoms: C_28  and  C_30
                            x       y       z     vdW  Elec       q    Type
                         _______ _______ _______ _____ _____    ______ ____

>  <TORSDO>
F 2

$$$$
=
 OpenBabel11112416183D

 30 35  0  0  1  0  0  0  0  0999 V2000
  189.7760  174.8710  143.6360 C   0  0  0  0  0  0  0  0  0  0  0  0
  188.0820  174.3380  141.8630 C   0  0  0  0  0  0  0  0  0  0  0  0
  192.9740  172.9680  141.6800 N   0  0  0  0  0  2  0  0  0  0  0  0
  191.1720  174.8520  144.1830 C   0  0  0  0  0  0  0  0  0  0  0  0
  188.7390  175.6190  144.3700 C   0  0  0  0  0  3  0  0  0  0  0  0
  190.5410  176.9660  147.1450 O   0  0  0  0  0  0  0  0  0  0  0  0
  193.8530  174.8030  146.0750 C   0  0  1  0  0  3  0  0  0  0  0  0
  190.3280  176.2670  146.1160 C   0  0  0  0  0  0  0  0  0  0  0  0
  193.8190  173.6790  145.1240 N   0  0  2  0  0  0  0  0  0  0  0  0
  194.0600  173.1760  142.6520 C   0  0  1  0  0  3  0  0  0  0  0  0
  188.9840  176.2770  145.5010 C   0  0  0  0  0  0  0  0  0  0  0  0
  191.4150  175.3570  145.5980 C   0  0  2  0  0  3  0  0  0  0  0  0
  187.8630  173.3460  140.7490 C   0  0  0  0  0  3  0  0  0  0  0  0
  195.1520  173.0820  145.2460 C   0  0  0  0  0  2  0  0  0  0  0  0
  195.2770  175.2940  146.2140 C   0  0  0  0  0  2  0  0  0  0  0  0
  187.8640  175.6260  141.3720 O   0  0  0  0  0  1  0  0  0  0  0  0
  191.8680  173.6160  142.2390 N   0  0  0  0  0  0  0  0  0  0  0  0
  188.8620  172.6660  140.1810 C   0  0  0  0  0  3  0  0  0  0  0  0
  189.4690  174.2540  142.4690 C   0  0  0  0  0  0  0  0  0  0  0  0
  192.1460  174.2630  143.4560 C   0  0  0  0  0  0  0  0  0  0  0  0
  195.2770  173.7320  141.9410 C   0  0  0  0  0  1  0  0  0  0  0  0
  193.5940  174.1660  143.7490 C   0  0  1  0  0  3  0  0  0  0  0  0
  196.1220  174.1310  145.7630 C   0  0  0  0  0  2  0  0  0  0  0  0
  193.2280  176.9990  144.8600 C   0  0  0  0  0  1  0  0  0  0  0  0
  190.2480  172.7980  140.6580 C   0  0  0  0  0  3  0  0  0  0  0  0
  190.5360  173.5370  141.7310 C   0  0  2  0  0  3  0  0  0  0  0  0
  192.8150  175.9240  145.8650 C   0  0  2  0  0  3  0  0  0  0  0  0
  187.8600  177.0200  146.1520 C   0  0  0  0  0  2  0  0  0  0  0  0
  185.3800  176.8220  146.3810 C   0  0  0  0  0  1  0  0  0  0  0  0
  186.5490  176.7910  145.4140 C   0  0  0  0  0  2  0  0  0  0  0  0
  1  4  1  0  0  0  0
  1  5  1  0  0  0  0
  2 19  1  0  0  0  0
  3 17  1  0  0  0  0
  3 10  1  0  0  0  0
  5 11  2  0  0  0  0
  7 15  1  6  0  0  0
  8  6  2  0  0  0  0
  9 14  1  6  0  0  0
  9  7  1  0  0  0  0
 10 21  1  6  0  0  0
 10 22  1  0  0  0  0
 11  8  1  0  0  0  0
 11 28  1  0  0  0  0
 12  4  1  6  0  0  0
 12 27  1  0  0  0  0
 12  8  1  0  0  0  0
 13  2  2  0  0  0  0
 14 23  1  0  0  0  0
 16  2  1  0  0  0  0
 17 20  1  0  0  0  0
 18 25  2  0  0  0  0
 18 13  1  0  0  0  0
 19  1  2  0  0  0  0
 20  4  2  0  0  0  0
 22 20  1  6  0  0  0
 22  9  1  0  0  0  0
 23 15  1  0  0  0  0
 26 25  1  1  0  0  0
 26 17  1  0  0  0  0
 26 19  1  0  0  0  0
 27 24  1  6  0  0  0
 27  7  1  0  0  0  0
 30 28  1  0  0  0  0
 30 29  1  0  0  0  0
M  END
>  <MODEL>
9

>  <REMARK>
 VINA RESULT:      -7.2      3.065      5.990
  Name = 
  2 active torsions:
  status: ('A' for Active; 'I' for Inactive)
    1  A    between atoms: C_11  and  C_28
    2  A    between atoms: C_28  and  C_30
                            x       y       z     vdW  Elec       q    Type
                         _______ _______ _______ _____ _____    ______ ____

>  <TORSDO>
F 2

$$$$
