=
 OpenBabel11112417403D

 28 32  0  0  1  0  0  0  0  0999 V2000
  191.1820  174.4280  143.1570 C   0  0  0  0  0  0  0  0  0  0  0  0
  187.4120  178.0640  143.4640 C   0  0  0  0  0  1  0  0  0  0  0  0
  192.7990  175.7120  147.1360 O   0  0  0  0  0  0  0  0  0  0  0  0
  190.1610  172.2840  144.6430 C   0  0  0  0  0  3  0  0  0  0  0  0
  190.4470  176.2180  147.3440 C   0  0  1  0  0  3  0  0  0  0  0  0
  191.7180  175.5070  142.4530 O   0  0  0  0  0  0  0  0  0  0  0  0
  186.6690  175.8230  142.7460 C   0  0  0  0  0  1  0  0  0  0  0  0
  186.9890  176.6830  143.9530 C   0  0  0  0  0  0  0  0  0  0  0  0
  185.9190  177.2210  146.0700 C   0  0  0  0  0  0  0  0  0  0  0  0
  188.1040  176.0010  144.7890 C   0  0  2  0  0  3  0  0  0  0  0  0
  194.5550  175.6720  144.3100 O   0  0  0  0  0  0  0  0  0  0  0  0
  190.2840  176.9970  145.0060 C   0  0  1  0  0  3  0  0  0  0  0  0
  187.2780  177.4860  146.6220 C   0  0  0  0  0  2  0  0  0  0  0  0
  185.8130  176.8050  144.7470 O   0  0  0  0  0  0  0  0  0  0  0  0
  193.5590  176.1780  143.8200 C   0  0  0  0  0  0  0  0  0  0  0  0
  190.0730  174.6310  143.9970 C   0  0  0  0  0  0  0  0  0  0  0  0
  191.7290  176.1220  146.6140 C   0  0  0  0  0  0  0  0  0  0  0  0
  184.8900  177.3920  146.7730 O   0  0  0  0  0  0  0  0  0  0  0  0
  192.7830  177.1960  144.5970 C   0  0  0  0  0  2  0  0  0  0  0  0
  189.5760  173.5470  144.7430 C   0  0  0  0  0  3  0  0  0  0  0  0
  191.7710  173.1590  143.0670 C   0  0  0  0  0  3  0  0  0  0  0  0
  191.2600  172.0890  143.8040 C   0  0  0  0  0  3  0  0  0  0  0  0
  193.1160  175.7680  142.4470 C   0  0  0  0  0  2  0  0  0  0  0  0
  189.5680  177.0140  146.3560 C   0  0  1  0  0  3  0  0  0  0  0  0
  191.6500  176.5720  145.2730 N   0  0  0  0  0  0  0  0  0  0  0  0
  188.2280  176.4460  146.2010 N   0  0  2  0  0  0  0  0  0  0  0  0
  189.9430  174.9330  147.5620 O   0  0  0  0  0  1  0  0  0  0  0  0
  189.4830  176.0250  144.1350 C   0  0  1  0  0  3  0  0  0  0  0  0
  1 16  1  0  0  0  0
  2  8  1  0  0  0  0
  4 20  1  0  0  0  0
  5 27  1  6  0  0  0
  6  1  1  0  0  0  0
  7  8  1  0  0  0  0
  8 14  1  0  0  0  0
  9 13  1  0  0  0  0
  9 18  2  0  0  0  0
 10  8  1  6  0  0  0
 10 26  1  0  0  0  0
 12 25  1  1  0  0  0
 12 24  1  0  0  0  0
 14  9  1  0  0  0  0
 15 11  2  0  0  0  0
 15 19  1  0  0  0  0
 16 28  1  0  0  0  0
 16 20  2  0  0  0  0
 17  3  2  0  0  0  0
 17  5  1  0  0  0  0
 19 25  1  0  0  0  0
 21  1  2  0  0  0  0
 21 22  1  0  0  0  0
 22  4  2  0  0  0  0
 23  6  1  0  0  0  0
 23 15  1  0  0  0  0
 24  5  1  0  0  0  0
 25 17  1  0  0  0  0
 26 24  1  0  0  0  0
 26 13  1  0  0  0  0
 28 10  1  0  0  0  0
 28 12  1  0  0  0  0
M  END
>  <MODEL>
1

>  <REMARK>
 VINA RESULT:      -8.2      0.000      0.000
  Name = 
  0 active torsions:
  status: ('A' for Active; 'I' for Inactive)
                            x       y       z     vdW  Elec       q    Type
                         _______ _______ _______ _____ _____    ______ ____

>  <TORSDO>
F 0

$$$$
=
 OpenBabel11112417403D

 28 32  0  0  1  0  0  0  0  0999 V2000
  190.2260  174.9310  143.9220 C   0  0  0  0  0  0  0  0  0  0  0  0
  185.7010  176.6390  145.9560 C   0  0  0  0  0  1  0  0  0  0  0  0
  188.4450  174.9910  139.8090 O   0  0  0  0  0  0  0  0  0  0  0  0
  191.4860  177.2720  143.0450 C   0  0  0  0  0  3  0  0  0  0  0  0
  187.2330  176.7570  140.9250 C   0  0  1  0  0  3  0  0  0  0  0  0
  189.5850  173.7540  144.3150 O   0  0  0  0  0  0  0  0  0  0  0  0
  187.7300  177.7730  146.7810 C   0  0  0  0  0  1  0  0  0  0  0  0
  186.7090  177.7440  145.6610 C   0  0  0  0  0  0  0  0  0  0  0  0
  185.3270  179.3650  144.4880 C   0  0  0  0  0  0  0  0  0  0  0  0
  187.4350  177.5140  144.3090 C   0  0  2  0  0  3  0  0  0  0  0  0
  189.7650  172.3000  141.2530 O   0  0  0  0  0  0  0  0  0  0  0  0
  187.1050  175.4930  143.0440 C   0  0  1  0  0  3  0  0  0  0  0  0
  185.3340  178.4390  143.3200 C   0  0  0  0  0  2  0  0  0  0  0  0
  186.0360  178.9980  145.6270 O   0  0  0  0  0  0  0  0  0  0  0  0
  189.1420  172.6640  142.2360 C   0  0  0  0  0  0  0  0  0  0  0  0
  189.4850  176.1210  143.8210 C   0  0  0  0  0  0  0  0  0  0  0  0
  187.8970  175.4370  140.8510 C   0  0  0  0  0  0  0  0  0  0  0  0
  184.6770  180.4410  144.4560 O   0  0  0  0  0  0  0  0  0  0  0  0
  187.7700  173.2420  142.0740 C   0  0  0  0  0  2  0  0  0  0  0  0
  190.1300  177.2880  143.3710 C   0  0  0  0  0  3  0  0  0  0  0  0
  191.5870  174.9190  143.5850 C   0  0  0  0  0  3  0  0  0  0  0  0
  192.2160  176.0870  143.1510 C   0  0  0  0  0  3  0  0  0  0  0  0
  189.7590  172.5390  143.5970 C   0  0  0  0  0  2  0  0  0  0  0  0
  186.5130  176.6830  142.2880 C   0  0  1  0  0  3  0  0  0  0  0  0
  187.8240  174.7000  142.0580 N   0  0  0  0  0  0  0  0  0  0  0  0
  186.6810  177.8970  143.0870 N   0  0  2  0  0  0  0  0  0  0  0  0
  188.2030  177.7620  140.9080 O   0  0  0  0  0  1  0  0  0  0  0  0
  187.9970  176.1070  144.1280 C   0  0  1  0  0  3  0  0  0  0  0  0
  1  6  1  0  0  0  0
  3 17  2  0  0  0  0
  4 22  2  0  0  0  0
  4 20  1  0  0  0  0
  5 27  1  1  0  0  0
  5 24  1  0  0  0  0
  8  2  1  0  0  0  0
  8  7  1  0  0  0  0
  9 14  1  0  0  0  0
 10  8  1  1  0  0  0
 11 15  2  0  0  0  0
 12 25  1  6  0  0  0
 12 28  1  0  0  0  0
 13  9  1  0  0  0  0
 14  8  1  0  0  0  0
 15 23  1  0  0  0  0
 16  1  1  0  0  0  0
 16 28  1  0  0  0  0
 17  5  1  0  0  0  0
 17 25  1  0  0  0  0
 18  9  2  0  0  0  0
 19 15  1  0  0  0  0
 20 16  2  0  0  0  0
 21  1  2  0  0  0  0
 22 21  1  0  0  0  0
 23  6  1  0  0  0  0
 24 12  1  0  0  0  0
 24 26  1  0  0  0  0
 25 19  1  0  0  0  0
 26 13  1  0  0  0  0
 26 10  1  0  0  0  0
 28 10  1  0  0  0  0
M  END
>  <MODEL>
2

>  <REMARK>
 VINA RESULT:      -7.9      2.508      4.737
  Name = 
  0 active torsions:
  status: ('A' for Active; 'I' for Inactive)
                            x       y       z     vdW  Elec       q    Type
                         _______ _______ _______ _____ _____    ______ ____

>  <TORSDO>
F 0

$$$$
=
 OpenBabel11112417403D

 28 32  0  0  1  0  0  0  0  0999 V2000
  189.2420  176.7210  145.0450 C   0  0  0  0  0  0  0  0  0  0  0  0
  194.3540  176.0410  144.0810 C   0  0  0  0  0  1  0  0  0  0  0  0
  188.2740  172.9900  142.7550 O   0  0  0  0  0  0  0  0  0  0  0  0
  188.7590  175.0820  147.2630 C   0  0  0  0  0  3  0  0  0  0  0  0
  190.4800  172.5140  143.6170 C   0  0  1  0  0  3  0  0  0  0  0  0
  189.4630  177.5050  143.9110 O   0  0  0  0  0  0  0  0  0  0  0  0
  193.7810  176.6210  146.4100 C   0  0  0  0  0  1  0  0  0  0  0  0
  193.8910  175.4770  145.4200 C   0  0  0  0  0  0  0  0  0  0  0  0
  194.8880  173.2600  145.3880 C   0  0  0  0  0  0  0  0  0  0  0  0
  192.5170  174.7670  145.3010 C   0  0  2  0  0  3  0  0  0  0  0  0
  187.0500  176.0040  142.0550 O   0  0  0  0  0  0  0  0  0  0  0  0
  191.2540  174.8310  143.2530 C   0  0  1  0  0  3  0  0  0  0  0  0
  193.8660  172.8780  144.3720 C   0  0  0  0  0  2  0  0  0  0  0  0
  194.8600  174.5510  145.9010 O   0  0  0  0  0  0  0  0  0  0  0  0
  188.1970  176.3820  142.2250 C   0  0  0  0  0  0  0  0  0  0  0  0
  190.1970  175.7590  145.4180 C   0  0  0  0  0  0  0  0  0  0  0  0
  189.4320  173.3890  143.0490 C   0  0  0  0  0  0  0  0  0  0  0  0
  195.7710  172.4430  145.7550 O   0  0  0  0  0  0  0  0  0  0  0  0
  189.3370  175.5390  141.7440 C   0  0  0  0  0  2  0  0  0  0  0  0
  189.9370  174.9380  146.5290 C   0  0  0  0  0  3  0  0  0  0  0  0
  188.0560  176.8550  145.7800 C   0  0  0  0  0  3  0  0  0  0  0  0
  187.8170  176.0410  146.8880 C   0  0  0  0  0  3  0  0  0  0  0  0
  188.4550  177.6830  142.9240 C   0  0  0  0  0  2  0  0  0  0  0  0
  191.7350  173.4050  143.5230 C   0  0  1  0  0  3  0  0  0  0  0  0
  189.8660  174.7200  142.8300 N   0  0  0  0  0  0  0  0  0  0  0  0
  192.5380  173.3880  144.7460 N   0  0  2  0  0  0  0  0  0  0  0  0
  190.1600  172.2110  144.9420 O   0  0  0  0  0  1  0  0  0  0  0  0
  191.4490  175.5800  144.5750 C   0  0  1  0  0  3  0  0  0  0  0  0
  1 16  2  0  0  0  0
  1 21  1  0  0  0  0
  2  8  1  0  0  0  0
  3 17  2  0  0  0  0
  5 27  1  1  0  0  0
  6  1  1  0  0  0  0
  8 14  1  0  0  0  0
  8  7  1  0  0  0  0
  9 18  2  0  0  0  0
  9 14  1  0  0  0  0
 10  8  1  6  0  0  0
 11 15  2  0  0  0  0
 12 25  1  1  0  0  0
 12 24  1  0  0  0  0
 12 28  1  0  0  0  0
 13 26  1  0  0  0  0
 13  9  1  0  0  0  0
 15 23  1  0  0  0  0
 16 20  1  0  0  0  0
 17  5  1  0  0  0  0
 19 15  1  0  0  0  0
 19 25  1  0  0  0  0
 20  4  2  0  0  0  0
 21 22  2  0  0  0  0
 22  4  1  0  0  0  0
 23  6  1  0  0  0  0
 24  5  1  0  0  0  0
 24 26  1  0  0  0  0
 25 17  1  0  0  0  0
 26 10  1  0  0  0  0
 28 10  1  0  0  0  0
 28 16  1  0  0  0  0
M  END
>  <MODEL>
3

>  <REMARK>
 VINA RESULT:      -7.6      2.374      6.112
  Name = 
  0 active torsions:
  status: ('A' for Active; 'I' for Inactive)
                            x       y       z     vdW  Elec       q    Type
                         _______ _______ _______ _____ _____    ______ ____

>  <TORSDO>
F 0

$$$$
=
 OpenBabel11112417403D

 28 32  0  0  1  0  0  0  0  0999 V2000
  190.0630  174.7450  146.2280 C   0  0  0  0  0  0  0  0  0  0  0  0
  185.1900  176.5590  145.5270 C   0  0  0  0  0  1  0  0  0  0  0  0
  190.9800  175.4220  141.8920 O   0  0  0  0  0  0  0  0  0  0  0  0
  191.5940  177.0650  146.5670 C   0  0  0  0  0  3  0  0  0  0  0  0
  189.3430  177.1370  142.3500 C   0  0  1  0  0  3  0  0  0  0  0  0
  189.3160  173.5850  146.0140 O   0  0  0  0  0  0  0  0  0  0  0  0
  186.3700  177.4270  147.5130 C   0  0  0  0  0  1  0  0  0  0  0  0
  186.1820  177.6080  146.0190 C   0  0  0  0  0  0  0  0  0  0  0  0
  185.7250  179.4580  144.5090 C   0  0  0  0  0  0  0  0  0  0  0  0
  187.5550  177.4790  145.3090 C   0  0  2  0  0  3  0  0  0  0  0  0
  191.2310  172.4860  143.4370 O   0  0  0  0  0  0  0  0  0  0  0  0
  188.0190  175.6510  143.8140 C   0  0  1  0  0  3  0  0  0  0  0  0
  186.4070  178.6760  143.4380 C   0  0  0  0  0  2  0  0  0  0  0  0
  185.6480  178.9070  145.7830 O   0  0  0  0  0  0  0  0  0  0  0  0
  190.1540  172.7820  143.9270 C   0  0  0  0  0  0  0  0  0  0  0  0
  189.5140  175.9940  145.8890 C   0  0  0  0  0  0  0  0  0  0  0  0
  189.9300  175.7860  142.4840 C   0  0  0  0  0  0  0  0  0  0  0  0
  185.2100  180.5790  144.2630 O   0  0  0  0  0  0  0  0  0  0  0  0
  189.1250  173.4810  143.0930 C   0  0  0  0  0  2  0  0  0  0  0  0
  190.2980  177.1500  146.0570 C   0  0  0  0  0  3  0  0  0  0  0  0
  191.3690  174.6650  146.7300 C   0  0  0  0  0  3  0  0  0  0  0  0
  192.1310  175.8210  146.9030 C   0  0  0  0  0  3  0  0  0  0  0  0
  189.8740  172.4520  145.3620 C   0  0  0  0  0  2  0  0  0  0  0  0
  187.9690  176.9630  143.0310 C   0  0  1  0  0  3  0  0  0  0  0  0
  189.1760  174.9230  143.3160 N   0  0  0  0  0  0  0  0  0  0  0  0
  187.6430  178.0600  143.9430 N   0  0  2  0  0  0  0  0  0  0  0  0
  190.1430  178.0570  143.0320 O   0  0  0  0  0  1  0  0  0  0  0  0
  188.1210  176.0620  145.2860 C   0  0  1  0  0  3  0  0  0  0  0  0
  1 21  1  0  0  0  0
  2  8  1  0  0  0  0
  3 17  2  0  0  0  0
  4 22  1  0  0  0  0
  5 17  1  0  0  0  0
  5 24  1  0  0  0  0
  5 27  1  1  0  0  0
  6  1  1  0  0  0  0
  8  7  1  0  0  0  0
  9 14  1  0  0  0  0
 10  8  1  6  0  0  0
 11 15  2  0  0  0  0
 12 25  1  6  0  0  0
 12 28  1  0  0  0  0
 13 26  1  0  0  0  0
 13  9  1  0  0  0  0
 14  8  1  0  0  0  0
 15 23  1  0  0  0  0
 16 20  1  0  0  0  0
 16  1  2  0  0  0  0
 17 25  1  0  0  0  0
 18  9  2  0  0  0  0
 19 25  1  0  0  0  0
 19 15  1  0  0  0  0
 20  4  2  0  0  0  0
 21 22  2  0  0  0  0
 23  6  1  0  0  0  0
 24 12  1  0  0  0  0
 24 26  1  0  0  0  0
 26 10  1  0  0  0  0
 28 10  1  0  0  0  0
 28 16  1  0  0  0  0
M  END
>  <MODEL>
4

>  <REMARK>
 VINA RESULT:      -7.5      2.146      4.092
  Name = 
  0 active torsions:
  status: ('A' for Active; 'I' for Inactive)
                            x       y       z     vdW  Elec       q    Type
                         _______ _______ _______ _____ _____    ______ ____

>  <TORSDO>
F 0

$$$$
=
 OpenBabel11112417403D

 28 32  0  0  1  0  0  0  0  0999 V2000
  188.7970  175.6530  145.4710 C   0  0  0  0  0  0  0  0  0  0  0  0
  190.0630  171.6140  142.3710 C   0  0  0  0  0  1  0  0  0  0  0  0
  192.9960  177.2050  145.2290 O   0  0  0  0  0  0  0  0  0  0  0  0
  188.2820  177.7360  143.6720 C   0  0  0  0  0  3  0  0  0  0  0  0
  192.7330  176.0860  143.1040 C   0  0  1  0  0  3  0  0  0  0  0  0
  189.0970  174.6340  146.3770 O   0  0  0  0  0  0  0  0  0  0  0  0
  187.9530  172.7620  141.8090 C   0  0  0  0  0  1  0  0  0  0  0  0
  189.4580  172.8020  141.6320 C   0  0  0  0  0  0  0  0  0  0  0  0
  191.0120  173.0670  139.7800 C   0  0  0  0  0  0  0  0  0  0  0  0
  190.0040  174.1520  142.1690 C   0  0  2  0  0  3  0  0  0  0  0  0
  191.4320  176.4300  148.0610 O   0  0  0  0  0  0  0  0  0  0  0  0
  191.4340  174.2370  144.1030 C   0  0  1  0  0  3  0  0  0  0  0  0
  191.9960  173.6110  140.7590 C   0  0  0  0  0  2  0  0  0  0  0  0
  189.7550  172.6930  140.2440 O   0  0  0  0  0  0  0  0  0  0  0  0
  191.0720  175.4350  147.4550 C   0  0  0  0  0  0  0  0  0  0  0  0
  189.1980  175.5260  144.1290 C   0  0  0  0  0  0  0  0  0  0  0  0
  192.5310  176.2440  144.5610 C   0  0  0  0  0  0  0  0  0  0  0  0
  191.3160  172.9250  138.5680 O   0  0  0  0  0  0  0  0  0  0  0  0
  192.0200  174.7500  146.5210 C   0  0  0  0  0  2  0  0  0  0  0  0
  188.9390  176.5840  143.2390 C   0  0  0  0  0  3  0  0  0  0  0  0
  188.1460  176.8170  145.9020 C   0  0  0  0  0  3  0  0  0  0  0  0
  187.8850  177.8530  145.0050 C   0  0  0  0  0  3  0  0  0  0  0  0
  189.6790  174.9140  147.6430 C   0  0  0  0  0  2  0  0  0  0  0  0
  192.2170  174.6530  142.8580 C   0  0  1  0  0  3  0  0  0  0  0  0
  191.7930  175.1860  145.1470 N   0  0  0  0  0  0  0  0  0  0  0  0
  191.3490  174.5540  141.6840 N   0  0  2  0  0  0  0  0  0  0  0  0
  191.9620  177.0350  142.4270 O   0  0  0  0  0  1  0  0  0  0  0  0
  189.9600  174.2880  143.6890 C   0  0  1  0  0  3  0  0  0  0  0  0
  1 21  1  0  0  0  0
  1  6  1  0  0  0  0
  4 22  1  0  0  0  0
  5 27  1  6  0  0  0
  5 17  1  0  0  0  0
  6 23  1  0  0  0  0
  8  7  1  0  0  0  0
  8  2  1  0  0  0  0
  9 14  1  0  0  0  0
  9 13  1  0  0  0  0
 10  8  1  1  0  0  0
 10 28  1  0  0  0  0
 12 25  1  1  0  0  0
 13 26  1  0  0  0  0
 14  8  1  0  0  0  0
 15 23  1  0  0  0  0
 15 11  2  0  0  0  0
 16  1  2  0  0  0  0
 17 25  1  0  0  0  0
 17  3  2  0  0  0  0
 18  9  2  0  0  0  0
 19 15  1  0  0  0  0
 20  4  2  0  0  0  0
 20 16  1  0  0  0  0
 22 21  2  0  0  0  0
 24  5  1  0  0  0  0
 24 12  1  0  0  0  0
 25 19  1  0  0  0  0
 26 10  1  0  0  0  0
 26 24  1  0  0  0  0
 28 12  1  0  0  0  0
 28 16  1  0  0  0  0
M  END
>  <MODEL>
5

>  <REMARK>
 VINA RESULT:      -7.2      2.164      5.472
  Name = 
  0 active torsions:
  status: ('A' for Active; 'I' for Inactive)
                            x       y       z     vdW  Elec       q    Type
                         _______ _______ _______ _____ _____    ______ ____

>  <TORSDO>
F 0

$$$$
=
 OpenBabel11112417403D

 28 32  0  0  1  0  0  0  0  0999 V2000
  194.2130  173.8660  145.4820 C   0  0  0  0  0  0  0  0  0  0  0  0
  189.3780  174.7150  147.3320 C   0  0  0  0  0  1  0  0  0  0  0  0
  192.5400  172.9260  141.4300 O   0  0  0  0  0  0  0  0  0  0  0  0
  194.8950  176.2940  144.2640 C   0  0  0  0  0  3  0  0  0  0  0  0
  190.9240  174.4900  142.3090 C   0  0  1  0  0  3  0  0  0  0  0  0
  193.8640  172.6370  146.0450 O   0  0  0  0  0  0  0  0  0  0  0  0
  191.0650  176.4040  147.9560 C   0  0  0  0  0  1  0  0  0  0  0  0
  190.0990  175.9760  146.8690 C   0  0  0  0  0  0  0  0  0  0  0  0
  188.3910  177.0420  145.5040 C   0  0  0  0  0  0  0  0  0  0  0  0
  190.8820  175.7390  145.5500 C   0  0  2  0  0  3  0  0  0  0  0  0
  194.4380  170.8550  143.2140 O   0  0  0  0  0  0  0  0  0  0  0  0
  191.0640  173.5420  144.5860 C   0  0  1  0  0  3  0  0  0  0  0  0
  188.6380  175.9890  144.4770 C   0  0  0  0  0  2  0  0  0  0  0  0
  189.1470  177.0160  146.6710 O   0  0  0  0  0  0  0  0  0  0  0  0
  193.7280  171.1940  144.1470 C   0  0  0  0  0  0  0  0  0  0  0  0
  193.2120  174.8200  145.2270 C   0  0  0  0  0  0  0  0  0  0  0  0
  191.8830  173.3690  142.4090 C   0  0  0  0  0  0  0  0  0  0  0  0
  187.5040  177.9170  145.3330 O   0  0  0  0  0  0  0  0  0  0  0  0
  192.2610  171.4000  143.9290 C   0  0  0  0  0  2  0  0  0  0  0  0
  193.5690  176.0310  144.6080 C   0  0  0  0  0  3  0  0  0  0  0  0
  195.5430  174.1310  145.1260 C   0  0  0  0  0  3  0  0  0  0  0  0
  195.8840  175.3430  144.5230 C   0  0  0  0  0  3  0  0  0  0  0  0
  194.3340  171.4110  145.5010 C   0  0  0  0  0  2  0  0  0  0  0  0
  190.2190  174.4380  143.6810 C   0  0  1  0  0  3  0  0  0  0  0  0
  191.9680  172.8120  143.7090 N   0  0  0  0  0  0  0  0  0  0  0  0
  190.0790  175.7570  144.2990 N   0  0  2  0  0  0  0  0  0  0  0  0
  191.6270  175.6850  142.1360 O   0  0  0  0  0  1  0  0  0  0  0  0
  191.7650  174.4950  145.5580 C   0  0  1  0  0  3  0  0  0  0  0  0
  1  6  1  0  0  0  0
  3 17  2  0  0  0  0
  4 22  2  0  0  0  0
  4 20  1  0  0  0  0
  5 27  1  1  0  0  0
  5 17  1  0  0  0  0
  5 24  1  0  0  0  0
  8  2  1  0  0  0  0
  8  7  1  0  0  0  0
  9 14  1  0  0  0  0
 10 28  1  0  0  0  0
 10  8  1  1  0  0  0
 11 15  2  0  0  0  0
 12 25  1  6  0  0  0
 12 28  1  0  0  0  0
 13  9  1  0  0  0  0
 14  8  1  0  0  0  0
 15 23  1  0  0  0  0
 16  1  1  0  0  0  0
 16 28  1  0  0  0  0
 17 25  1  0  0  0  0
 18  9  2  0  0  0  0
 19 15  1  0  0  0  0
 20 16  2  0  0  0  0
 21  1  2  0  0  0  0
 22 21  1  0  0  0  0
 23  6  1  0  0  0  0
 24 26  1  0  0  0  0
 24 12  1  0  0  0  0
 25 19  1  0  0  0  0
 26 13  1  0  0  0  0
 26 10  1  0  0  0  0
M  END
>  <MODEL>
6

>  <REMARK>
 VINA RESULT:      -7.0      2.273      4.664
  Name = 
  0 active torsions:
  status: ('A' for Active; 'I' for Inactive)
                            x       y       z     vdW  Elec       q    Type
                         _______ _______ _______ _____ _____    ______ ____

>  <TORSDO>
F 0

$$$$
=
 OpenBabel11112417403D

 28 32  0  0  1  0  0  0  0  0999 V2000
  186.9500  176.8000  143.6710 C   0  0  0  0  0  0  0  0  0  0  0  0
  188.9410  171.9550  143.3750 C   0  0  0  0  0  1  0  0  0  0  0  0
  190.0660  177.9390  146.6860 O   0  0  0  0  0  0  0  0  0  0  0  0
  188.5660  178.2910  141.9370 C   0  0  0  0  0  3  0  0  0  0  0  0
  191.2050  176.2650  145.3690 C   0  0  1  0  0  3  0  0  0  0  0  0
  186.1680  176.0750  144.5720 O   0  0  0  0  0  0  0  0  0  0  0  0
  188.4170  173.0210  141.2120 C   0  0  0  0  0  1  0  0  0  0  0  0
  189.4610  172.9100  142.3060 C   0  0  0  0  0  0  0  0  0  0  0  0
  191.8580  172.5180  142.4250 C   0  0  0  0  0  0  0  0  0  0  0  0
  189.7500  174.3200  142.8860 C   0  0  2  0  0  3  0  0  0  0  0  0
  186.7850  178.1340  147.1990 O   0  0  0  0  0  0  0  0  0  0  0  0
  189.1710  174.8780  145.1540 C   0  0  1  0  0  3  0  0  0  0  0  0
  191.8570  173.2620  143.7180 C   0  0  0  0  0  2  0  0  0  0  0  0
  190.6560  172.3790  141.7420 O   0  0  0  0  0  0  0  0  0  0  0  0
  186.7550  177.0300  146.6820 C   0  0  0  0  0  0  0  0  0  0  0  0
  188.1660  176.2590  143.2190 C   0  0  0  0  0  0  0  0  0  0  0  0
  190.0290  176.8560  146.0440 C   0  0  0  0  0  0  0  0  0  0  0  0
  192.9160  172.0070  141.9750 O   0  0  0  0  0  0  0  0  0  0  0  0
  187.8390  176.0410  146.9780 C   0  0  0  0  0  2  0  0  0  0  0  0
  188.9710  177.0220  142.3540 C   0  0  0  0  0  3  0  0  0  0  0  0
  186.5530  178.0790  143.2550 C   0  0  0  0  0  3  0  0  0  0  0  0
  187.3560  178.8200  142.3880 C   0  0  0  0  0  3  0  0  0  0  0  0
  185.6380  176.6780  145.7460 C   0  0  0  0  0  2  0  0  0  0  0  0
  190.6920  174.8580  144.9950 C   0  0  1  0  0  3  0  0  0  0  0  0
  188.8580  176.0670  145.9330 N   0  0  0  0  0  0  0  0  0  0  0  0
  191.0310  174.4750  143.6240 N   0  0  2  0  0  0  0  0  0  0  0  0
  191.5130  177.0190  144.2350 O   0  0  0  0  0  1  0  0  0  0  0  0
  188.6160  174.8990  143.7270 C   0  0  1  0  0  3  0  0  0  0  0  0
  1  6  1  0  0  0  0
  4 20  2  0  0  0  0
  4 22  1  0  0  0  0
  5 27  1  6  0  0  0
  5 17  1  0  0  0  0
  6 23  1  0  0  0  0
  7  8  1  0  0  0  0
  8  2  1  0  0  0  0
  9 13  1  0  0  0  0
 10  8  1  1  0  0  0
 10 26  1  0  0  0  0
 10 28  1  0  0  0  0
 12 25  1  1  0  0  0
 14  8  1  0  0  0  0
 14  9  1  0  0  0  0
 15 19  1  0  0  0  0
 15 11  2  0  0  0  0
 16  1  2  0  0  0  0
 16 28  1  0  0  0  0
 17  3  2  0  0  0  0
 18  9  2  0  0  0  0
 20 16  1  0  0  0  0
 21  1  1  0  0  0  0
 22 21  2  0  0  0  0
 23 15  1  0  0  0  0
 24 12  1  0  0  0  0
 24  5  1  0  0  0  0
 25 17  1  0  0  0  0
 25 19  1  0  0  0  0
 26 13  1  0  0  0  0
 26 24  1  0  0  0  0
 28 12  1  0  0  0  0
M  END
>  <MODEL>
7

>  <REMARK>
 VINA RESULT:      -7.0      1.915      5.752
  Name = 
  0 active torsions:
  status: ('A' for Active; 'I' for Inactive)
                            x       y       z     vdW  Elec       q    Type
                         _______ _______ _______ _____ _____    ______ ____

>  <TORSDO>
F 0

$$$$
=
 OpenBabel11112417403D

 28 32  0  0  1  0  0  0  0  0999 V2000
  194.1320  175.2140  141.5400 C   0  0  0  0  0  0  0  0  0  0  0  0
  190.6030  178.0880  144.1500 C   0  0  0  0  0  1  0  0  0  0  0  0
  196.3320  174.3780  145.3560 O   0  0  0  0  0  0  0  0  0  0  0  0
  193.2310  172.5840  141.8790 C   0  0  0  0  0  3  0  0  0  0  0  0
  194.0550  174.6380  146.1150 C   0  0  1  0  0  3  0  0  0  0  0  0
  194.6150  176.5170  141.4040 O   0  0  0  0  0  0  0  0  0  0  0  0
  189.6720  176.4890  142.5180 C   0  0  0  0  0  1  0  0  0  0  0  0
  190.1900  176.6360  143.9350 C   0  0  0  0  0  0  0  0  0  0  0  0
  189.4440  176.0070  146.1620 C   0  0  0  0  0  0  0  0  0  0  0  0
  191.3790  175.6620  144.1520 C   0  0  2  0  0  3  0  0  0  0  0  0
  197.6830  175.8150  142.6760 O   0  0  0  0  0  0  0  0  0  0  0  0
  193.6090  176.4810  144.5310 C   0  0  1  0  0  3  0  0  0  0  0  0
  190.8760  176.0000  146.5770 C   0  0  0  0  0  2  0  0  0  0  0  0
  189.1410  176.3070  144.8390 O   0  0  0  0  0  0  0  0  0  0  0  0
  196.6530  176.4680  142.6500 C   0  0  0  0  0  0  0  0  0  0  0  0
  193.1580  174.9340  142.5140 C   0  0  0  0  0  0  0  0  0  0  0  0
  195.2200  174.9610  145.2640 C   0  0  0  0  0  0  0  0  0  0  0  0
  188.5290  175.7700  146.9930 O   0  0  0  0  0  0  0  0  0  0  0  0
  196.0350  176.9340  143.9320 C   0  0  0  0  0  2  0  0  0  0  0  0
  192.7210  173.6080  142.6790 C   0  0  0  0  0  3  0  0  0  0  0  0
  194.6480  174.1800  140.7450 C   0  0  0  0  0  3  0  0  0  0  0  0
  194.1950  172.8700  140.9110 C   0  0  0  0  0  3  0  0  0  0  0  0
  196.0090  176.7890  141.3340 C   0  0  0  0  0  2  0  0  0  0  0  0
  193.0850  175.7950  145.7930 C   0  0  1  0  0  3  0  0  0  0  0  0
  194.9790  176.0210  144.3550 N   0  0  0  0  0  0  0  0  0  0  0  0
  191.7130  175.3410  145.5640 N   0  0  2  0  0  0  0  0  0  0  0  0
  193.5290  173.4030  145.7290 O   0  0  0  0  0  1  0  0  0  0  0  0
  192.6550  176.0520  143.4130 C   0  0  1  0  0  3  0  0  0  0  0  0
  1 16  1  0  0  0  0
  4 20  1  0  0  0  0
  5 27  1  6  0  0  0
  6  1  1  0  0  0  0
  7  8  1  0  0  0  0
  8  2  1  0  0  0  0
  8 14  1  0  0  0  0
  9 13  1  0  0  0  0
  9 18  2  0  0  0  0
 10  8  1  1  0  0  0
 10 26  1  0  0  0  0
 12 25  1  6  0  0  0
 12 24  1  0  0  0  0
 14  9  1  0  0  0  0
 15 11  2  0  0  0  0
 15 19  1  0  0  0  0
 16 20  2  0  0  0  0
 16 28  1  0  0  0  0
 17  3  2  0  0  0  0
 17  5  1  0  0  0  0
 19 25  1  0  0  0  0
 21 22  1  0  0  0  0
 21  1  2  0  0  0  0
 22  4  2  0  0  0  0
 23  6  1  0  0  0  0
 23 15  1  0  0  0  0
 24  5  1  0  0  0  0
 25 17  1  0  0  0  0
 26 24  1  0  0  0  0
 26 13  1  0  0  0  0
 28 10  1  0  0  0  0
 28 12  1  0  0  0  0
M  END
>  <MODEL>
8

>  <REMARK>
 VINA RESULT:      -6.8      2.404      3.644
  Name = 
  0 active torsions:
  status: ('A' for Active; 'I' for Inactive)
                            x       y       z     vdW  Elec       q    Type
                         _______ _______ _______ _____ _____    ______ ____

>  <TORSDO>
F 0

$$$$
=
 OpenBabel11112417403D

 28 32  0  0  1  0  0  0  0  0999 V2000
  195.0440  175.9040  143.9930 C   0  0  0  0  0  0  0  0  0  0  0  0
  189.9200  176.6320  144.8510 C   0  0  0  0  0  1  0  0  0  0  0  0
  194.2560  171.7170  142.5980 O   0  0  0  0  0  0  0  0  0  0  0  0
  195.3370  176.4020  141.2530 C   0  0  0  0  0  3  0  0  0  0  0  0
  192.2160  172.8590  141.9940 C   0  0  1  0  0  3  0  0  0  0  0  0
  194.9010  175.6090  145.3500 O   0  0  0  0  0  0  0  0  0  0  0  0
  191.0690  178.4670  143.6690 C   0  0  0  0  0  1  0  0  0  0  0  0
  190.4000  177.1190  143.4880 C   0  0  0  0  0  0  0  0  0  0  0  0
  188.7210  176.1640  142.0100 C   0  0  0  0  0  0  0  0  0  0  0  0
  191.4060  176.1280  142.8450 C   0  0  2  0  0  3  0  0  0  0  0  0
  196.2810  172.5170  145.1150 O   0  0  0  0  0  0  0  0  0  0  0  0
  192.2210  174.2160  144.0580 C   0  0  1  0  0  3  0  0  0  0  0  0
  189.3510  174.8340  142.2500 C   0  0  0  0  0  2  0  0  0  0  0  0
  189.2790  177.2790  142.6250 O   0  0  0  0  0  0  0  0  0  0  0  0
  195.3810  173.2710  145.4460 C   0  0  0  0  0  0  0  0  0  0  0  0
  193.9040  175.9600  143.1720 C   0  0  0  0  0  0  0  0  0  0  0  0
  193.3770  172.5780  142.8660 C   0  0  0  0  0  0  0  0  0  0  0  0
  187.6960  176.2740  141.2900 O   0  0  0  0  0  0  0  0  0  0  0  0
  193.9550  172.8370  145.3010 C   0  0  0  0  0  2  0  0  0  0  0  0
  194.0680  176.2030  141.7970 C   0  0  0  0  0  3  0  0  0  0  0  0
  196.3190  176.0960  143.4400 C   0  0  0  0  0  3  0  0  0  0  0  0
  196.4640  176.3480  142.0750 C   0  0  0  0  0  3  0  0  0  0  0  0
  195.7110  174.6300  145.9870 C   0  0  0  0  0  2  0  0  0  0  0  0
  191.3420  173.7570  142.8950 C   0  0  1  0  0  3  0  0  0  0  0  0
  193.3880  173.3460  144.0560 N   0  0  0  0  0  0  0  0  0  0  0  0
  190.8170  174.9290  142.1920 N   0  0  2  0  0  0  0  0  0  0  0  0
  192.6490  173.5390  140.8530 O   0  0  0  0  0  1  0  0  0  0  0  0
  192.5350  175.6870  143.7720 C   0  0  1  0  0  3  0  0  0  0  0  0
  1  6  1  0  0  0  0
  3 17  2  0  0  0  0
  4 20  2  0  0  0  0
  4 22  1  0  0  0  0
  5 27  1  6  0  0  0
  5 17  1  0  0  0  0
  5 24  1  0  0  0  0
  6 23  1  0  0  0  0
  8  7  1  0  0  0  0
  8  2  1  0  0  0  0
  9 13  1  0  0  0  0
  9 14  1  0  0  0  0
 10  8  1  1  0  0  0
 10 28  1  0  0  0  0
 11 15  2  0  0  0  0
 12 25  1  6  0  0  0
 14  8  1  0  0  0  0
 15 23  1  0  0  0  0
 16 28  1  0  0  0  0
 16  1  2  0  0  0  0
 17 25  1  0  0  0  0
 18  9  2  0  0  0  0
 19 15  1  0  0  0  0
 20 16  1  0  0  0  0
 21  1  1  0  0  0  0
 22 21  2  0  0  0  0
 24 12  1  0  0  0  0
 25 19  1  0  0  0  0
 26 13  1  0  0  0  0
 26 10  1  0  0  0  0
 26 24  1  0  0  0  0
 28 12  1  0  0  0  0
M  END
>  <MODEL>
9

>  <REMARK>
 VINA RESULT:      -6.6      2.875      5.073
  Name = 
  0 active torsions:
  status: ('A' for Active; 'I' for Inactive)
                            x       y       z     vdW  Elec       q    Type
                         _______ _______ _______ _____ _____    ______ ____

>  <TORSDO>
F 0

$$$$
