=
 OpenBabel11112416273D

 32 38  0  0  1  0  0  0  0  0999 V2000
  184.8810  177.5060  146.8690 C   0  0  1  0  0  3  0  0  0  0  0  0
  189.6430  176.1310  145.0820 C   0  0  0  0  0  0  0  0  0  0  0  0
  188.6220  174.1090  140.8000 C   0  0  0  0  0  3  0  0  0  0  0  0
  189.9540  173.7290  140.6490 C   0  0  0  0  0  3  0  0  0  0  0  0
  192.0040  176.0850  145.9400 C   0  0  0  0  0  0  0  0  0  0  0  0
  193.3070  175.6670  145.7020 C   0  0  0  0  0  0  0  0  0  0  0  0
  187.8220  177.4580  146.2300 C   0  0  1  0  0  3  0  0  0  0  0  0
  187.3420  176.2760  144.1370 C   0  0  0  0  0  2  0  0  0  0  0  0
  194.9770  174.7490  144.6640 C   0  0  0  0  0  0  0  0  0  0  0  0
  185.3770  176.9720  145.5260 C   0  0  2  0  0  3  0  0  0  0  0  0
  188.2200  174.8020  141.9430 C   0  0  0  0  0  3  0  0  0  0  0  0
  188.7410  175.8070  144.0830 N   0  0  0  0  0  0  0  0  0  0  0  0
  189.1430  175.1290  142.9590 C   0  0  0  0  0  0  0  0  0  0  0  0
  191.4270  175.0580  143.7830 C   0  0  0  0  0  0  0  0  0  0  0  0
  195.4250  175.2760  145.8280 N   0  0  0  0  0  0  0  0  0  0  0  0
  185.9470  177.4720  147.9860 C   0  0  0  0  0  2  0  0  0  0  0  0
  186.8470  176.5030  145.5510 C   0  0  2  0  0  3  0  0  0  0  0  0
  194.4010  175.8420  146.4670 N   0  0  0  0  0  0  0  0  0  0  0  0
  187.3450  177.9650  147.5920 C   0  0  0  0  0  2  0  0  0  0  0  0
  185.1940  178.4740  145.7350 C   0  0  1  0  0  3  0  0  0  0  0  0
  190.8820  174.0420  141.6410 C   0  0  0  0  0  3  0  0  0  0  0  0
  190.4900  174.7390  142.7960 C   0  0  0  0  0  0  0  0  0  0  0  0
  192.7360  174.6830  143.6190 N   0  0  0  0  0  0  0  0  0  0  0  0
  189.1530  176.7520  146.3740 C   0  0  0  0  0  2  0  0  0  0  0  0
  191.7240  176.7900  147.1050 O   0  0  0  0  0  1  0  0  0  0  0  0
  195.8260  174.0360  143.6730 C   0  0  0  0  0  1  0  0  0  0  0  0
  191.0130  175.7710  144.9550 C   0  0  0  0  0  0  0  0  0  0  0  0
  193.6340  174.9940  144.5780 C   0  0  0  0  0  0  0  0  0  0  0  0
  183.9530  178.8960  145.1070 N   0  0  0  0  0  2  0  0  0  0  0  0
  184.2900  179.3900  143.7820 C   0  0  0  0  0  3  0  0  0  0  0  0
  184.0440  178.3030  142.7540 C   0  0  0  0  0  1  0  0  0  0  0  0
  185.7500  179.7880  143.7500 C   0  0  0  0  0  1  0  0  0  0  0  0
  1 16  1  1  0  0  0
  2 24  1  0  0  0  0
  3 11  1  0  0  0  0
  4  3  2  0  0  0  0
  4 21  1  0  0  0  0
  5 25  1  0  0  0  0
  6  5  2  0  0  0  0
  6 18  1  0  0  0  0
  7 24  1  1  0  0  0
  7 19  1  0  0  0  0
  8 17  1  0  0  0  0
  9 15  1  0  0  0  0
 10 17  1  0  0  0  0
 10 20  1  0  0  0  0
 10  1  1  0  0  0  0
 11 13  2  0  0  0  0
 12  8  1  0  0  0  0
 12  2  1  0  0  0  0
 13 12  1  0  0  0  0
 14 27  1  0  0  0  0
 15 18  2  0  0  0  0
 17  7  1  0  0  0  0
 19 16  1  0  0  0  0
 20  1  1  0  0  0  0
 21 22  2  0  0  0  0
 22 13  1  0  0  0  0
 22 14  1  0  0  0  0
 23 14  2  0  0  0  0
 23 28  1  0  0  0  0
 26  9  1  0  0  0  0
 27  2  2  0  0  0  0
 27  5  1  0  0  0  0
 28  9  2  0  0  0  0
 28  6  1  0  0  0  0
 29 20  1  0  0  0  0
 30 29  1  0  0  0  0
 31 30  1  0  0  0  0
 32 30  1  0  0  0  0
M  END
>  <MODEL>
1

>  <REMARK>
 VINA RESULT:      -9.2      0.000      0.000
  Name = 
  2 active torsions:
  status: ('A' for Active; 'I' for Inactive)
    1  A    between atoms: C_20  and  N_29
    2  A    between atoms: N_29  and  C_30
                            x       y       z     vdW  Elec       q    Type
                         _______ _______ _______ _____ _____    ______ ____

>  <TORSDO>
F 2

$$$$
=
 OpenBabel11112416273D

 32 38  0  0  1  0  0  0  0  0999 V2000
  192.2950  175.1150  144.0560 C   0  0  1  0  0  3  0  0  0  0  0  0
  187.4860  177.1940  143.4970 C   0  0  0  0  0  0  0  0  0  0  0  0
  186.2810  178.3120  148.0530 C   0  0  0  0  0  3  0  0  0  0  0  0
  184.9990  178.6660  147.6400 C   0  0  0  0  0  3  0  0  0  0  0  0
  185.7950  177.4890  141.6630 C   0  0  0  0  0  0  0  0  0  0  0  0
  184.4970  177.8660  141.3440 C   0  0  0  0  0  0  0  0  0  0  0  0
  189.9000  176.6140  143.0190 C   0  0  1  0  0  3  0  0  0  0  0  0
  189.1770  177.0420  145.3210 C   0  0  0  0  0  2  0  0  0  0  0  0
  182.4700  178.5820  141.6400 C   0  0  0  0  0  0  0  0  0  0  0  0
  191.3540  175.8390  145.0180 C   0  0  2  0  0  3  0  0  0  0  0  0
  187.2140  177.8590  147.1200 C   0  0  0  0  0  3  0  0  0  0  0  0
  187.8050  177.3000  144.8400 N   0  0  0  0  0  0  0  0  0  0  0  0
  186.8840  177.7500  145.7530 C   0  0  0  0  0  0  0  0  0  0  0  0
  185.2310  178.0230  143.9940 C   0  0  0  0  0  0  0  0  0  0  0  0
  182.6530  178.3280  140.3230 N   0  0  0  0  0  0  0  0  0  0  0  0
  191.6490  174.7590  142.7000 C   0  0  0  0  0  2  0  0  0  0  0  0
  189.9410  176.0710  144.4420 C   0  0  2  0  0  3  0  0  0  0  0  0
  183.8980  177.8880  140.1380 N   0  0  0  0  0  0  0  0  0  0  0  0
  190.8140  175.8680  142.0450 C   0  0  0  0  0  2  0  0  0  0  0  0
  192.4580  176.6100  144.2990 C   0  0  1  0  0  3  0  0  0  0  0  0
  184.6510  178.5670  146.2930 C   0  0  0  0  0  3  0  0  0  0  0  0
  185.5810  178.1120  145.3440 C   0  0  0  0  0  0  0  0  0  0  0  0
  183.9670  178.3810  143.5990 N   0  0  0  0  0  0  0  0  0  0  0  0
  188.4680  176.5620  142.5320 C   0  0  0  0  0  2  0  0  0  0  0  0
  186.6460  177.0760  140.6450 O   0  0  0  0  0  1  0  0  0  0  0  0
  181.2070  179.0900  142.2390 C   0  0  0  0  0  1  0  0  0  0  0  0
  186.1910  177.5590  143.0370 C   0  0  0  0  0  0  0  0  0  0  0  0
  183.6360  178.2910  142.2940 C   0  0  0  0  0  0  0  0  0  0  0  0
  193.5620  176.8300  145.2180 N   0  0  0  0  0  2  0  0  0  0  0  0
  194.6030  175.8760  144.8730 C   0  0  0  0  0  3  0  0  0  0  0  0
  195.1960  175.2870  146.1380 C   0  0  0  0  0  1  0  0  0  0  0  0
  195.6920  176.5810  144.0910 C   0  0  0  0  0  1  0  0  0  0  0  0
  1 16  1  6  0  0  0
  1 20  1  0  0  0  0
  1 10  1  0  0  0  0
  2 12  1  0  0  0  0
  4  3  1  0  0  0  0
  5 27  1  0  0  0  0
  6  5  2  0  0  0  0
  6 28  1  0  0  0  0
  7 19  1  6  0  0  0
  7 17  1  0  0  0  0
  9 26  1  0  0  0  0
  9 28  2  0  0  0  0
 11  3  2  0  0  0  0
 12  8  1  0  0  0  0
 12 13  1  0  0  0  0
 13 11  1  0  0  0  0
 14 22  1  0  0  0  0
 15  9  1  0  0  0  0
 17 10  1  0  0  0  0
 17  8  1  0  0  0  0
 18 15  2  0  0  0  0
 18  6  1  0  0  0  0
 19 16  1  0  0  0  0
 20 10  1  0  0  0  0
 20 29  1  0  0  0  0
 21  4  2  0  0  0  0
 22 13  2  0  0  0  0
 22 21  1  0  0  0  0
 23 14  2  0  0  0  0
 24  7  1  0  0  0  0
 24  2  1  0  0  0  0
 25  5  1  0  0  0  0
 27  2  2  0  0  0  0
 27 14  1  0  0  0  0
 28 23  1  0  0  0  0
 30 29  1  0  0  0  0
 30 31  1  0  0  0  0
 32 30  1  0  0  0  0
M  END
>  <MODEL>
2

>  <REMARK>
 VINA RESULT:      -9.1      2.399      8.755
  Name = 
  2 active torsions:
  status: ('A' for Active; 'I' for Inactive)
    1  A    between atoms: C_20  and  N_29
    2  A    between atoms: N_29  and  C_30
                            x       y       z     vdW  Elec       q    Type
                         _______ _______ _______ _____ _____    ______ ____

>  <TORSDO>
F 2

$$$$
=
 OpenBabel11112416273D

 32 38  0  0  1  0  0  0  0  0999 V2000
  185.4160  179.2640  143.5010 C   0  0  1  0  0  3  0  0  0  0  0  0
  188.8850  175.3020  143.3490 C   0  0  0  0  0  0  0  0  0  0  0  0
  191.6950  176.2090  147.1890 C   0  0  0  0  0  3  0  0  0  0  0  0
  192.5480  175.1690  146.8250 C   0  0  0  0  0  3  0  0  0  0  0  0
  189.4790  173.4150  141.8000 C   0  0  0  0  0  0  0  0  0  0  0  0
  190.3820  172.3990  141.5180 C   0  0  0  0  0  0  0  0  0  0  0  0
  186.7050  176.5670  143.1520 C   0  0  1  0  0  3  0  0  0  0  0  0
  188.2540  177.0760  144.9810 C   0  0  0  0  0  2  0  0  0  0  0  0
  192.1150  171.1140  141.7500 C   0  0  0  0  0  0  0  0  0  0  0  0
  186.4970  178.7870  144.4700 C   0  0  2  0  0  3  0  0  0  0  0  0
  190.5730  176.4950  146.4110 C   0  0  0  0  0  3  0  0  0  0  0  0
  189.1770  176.0350  144.4860 N   0  0  0  0  0  0  0  0  0  0  0  0
  190.2800  175.7460  145.2510 C   0  0  0  0  0  0  0  0  0  0  0  0
  190.8790  173.9310  143.7530 C   0  0  0  0  0  0  0  0  0  0  0  0
  191.4310  170.7270  140.6470 N   0  0  0  0  0  0  0  0  0  0  0  0
  185.4570  178.5650  142.1260 C   0  0  0  0  0  2  0  0  0  0  0  0
  187.4190  177.6990  143.8800 C   0  0  2  0  0  3  0  0  0  0  0  0
  190.3660  171.5140  140.5020 N   0  0  0  0  0  0  0  0  0  0  0  0
  185.6460  177.0430  142.1540 C   0  0  0  0  0  2  0  0  0  0  0  0
  185.0480  178.3460  144.6600 C   0  0  1  0  0  3  0  0  0  0  0  0
  192.2770  174.4160  145.6830 C   0  0  0  0  0  3  0  0  0  0  0  0
  191.1510  174.6940  144.8910 C   0  0  0  0  0  0  0  0  0  0  0  0
  191.7240  172.9060  143.4090 N   0  0  0  0  0  0  0  0  0  0  0  0
  187.7460  175.7260  142.4450 C   0  0  0  0  0  2  0  0  0  0  0  0
  188.3810  173.5930  140.9660 O   0  0  0  0  0  1  0  0  0  0  0  0
  193.3640  170.4730  142.2420 C   0  0  0  0  0  1  0  0  0  0  0  0
  189.7260  174.2250  142.9550 C   0  0  0  0  0  0  0  0  0  0  0  0
  191.4550  172.1750  142.3070 C   0  0  0  0  0  0  0  0  0  0  0  0
  184.4440  179.1310  145.7230 N   0  0  0  0  0  2  0  0  0  0  0  0
  184.6090  178.3800  146.9570 C   0  0  0  0  0  3  0  0  0  0  0  0
  185.7970  178.9190  147.7290 C   0  0  0  0  0  1  0  0  0  0  0  0
  184.8460  176.9210  146.6290 C   0  0  0  0  0  1  0  0  0  0  0  0
  1 16  1  6  0  0  0
  1 10  1  0  0  0  0
  1 20  1  0  0  0  0
  2 12  1  0  0  0  0
  4  3  1  0  0  0  0
  5 27  1  0  0  0  0
  6  5  2  0  0  0  0
  6 28  1  0  0  0  0
  7 19  1  6  0  0  0
  7 17  1  0  0  0  0
  9 26  1  0  0  0  0
  9 28  2  0  0  0  0
 10 20  1  0  0  0  0
 11  3  2  0  0  0  0
 12  8  1  0  0  0  0
 12 13  1  0  0  0  0
 13 11  1  0  0  0  0
 14 22  1  0  0  0  0
 15  9  1  0  0  0  0
 16 19  1  0  0  0  0
 17 10  1  0  0  0  0
 17  8  1  0  0  0  0
 18 15  2  0  0  0  0
 18  6  1  0  0  0  0
 20 29  1  0  0  0  0
 21  4  2  0  0  0  0
 22 13  2  0  0  0  0
 22 21  1  0  0  0  0
 23 14  2  0  0  0  0
 24  7  1  0  0  0  0
 24  2  1  0  0  0  0
 25  5  1  0  0  0  0
 27  2  2  0  0  0  0
 27 14  1  0  0  0  0
 28 23  1  0  0  0  0
 29 30  1  0  0  0  0
 30 31  1  0  0  0  0
 32 30  1  0  0  0  0
M  END
>  <MODEL>
3

>  <REMARK>
 VINA RESULT:      -9.0      2.421      4.652
  Name = 
  2 active torsions:
  status: ('A' for Active; 'I' for Inactive)
    1  A    between atoms: C_20  and  N_29
    2  A    between atoms: N_29  and  C_30
                            x       y       z     vdW  Elec       q    Type
                         _______ _______ _______ _____ _____    ______ ____

>  <TORSDO>
F 2

$$$$
=
 OpenBabel11112416273D

 32 38  0  0  1  0  0  0  0  0999 V2000
  195.5590  175.4660  144.5790 C   0  0  1  0  0  3  0  0  0  0  0  0
  190.3850  176.3340  145.0690 C   0  0  0  0  0  0  0  0  0  0  0  0
  188.6280  174.6420  140.8840 C   0  0  0  0  0  3  0  0  0  0  0  0
  187.3600  175.1160  141.2110 C   0  0  0  0  0  3  0  0  0  0  0  0
  188.8430  177.4890  146.6810 C   0  0  0  0  0  0  0  0  0  0  0  0
  187.5470  177.9240  146.9220 C   0  0  0  0  0  0  0  0  0  0  0  0
  192.7700  175.7510  145.6740 C   0  0  1  0  0  3  0  0  0  0  0  0
  191.8550  175.0640  143.5070 C   0  0  0  0  0  2  0  0  0  0  0  0
  185.4300  178.2590  146.5780 C   0  0  0  0  0  0  0  0  0  0  0  0
  194.3490  175.0530  143.7420 C   0  0  2  0  0  3  0  0  0  0  0  0
  189.6920  174.8300  141.7670 C   0  0  0  0  0  3  0  0  0  0  0  0
  190.5610  175.6820  143.8610 N   0  0  0  0  0  0  0  0  0  0  0  0
  189.5100  175.4970  142.9970 C   0  0  0  0  0  0  0  0  0  0  0  0
  188.0090  176.6280  144.5360 C   0  0  0  0  0  0  0  0  0  0  0  0
  185.7610  178.7740  147.7860 N   0  0  0  0  0  0  0  0  0  0  0  0
  195.2320  176.4870  145.6890 C   0  0  0  0  0  2  0  0  0  0  0  0
  193.0360  175.7410  144.1740 C   0  0  2  0  0  3  0  0  0  0  0  0
  187.0610  178.5690  148.0000 N   0  0  0  0  0  0  0  0  0  0  0  0
  193.9700  176.1990  146.5130 C   0  0  0  0  0  2  0  0  0  0  0  0
  194.9260  174.0960  144.7810 C   0  0  1  0  0  3  0  0  0  0  0  0
  187.1570  175.7770  142.4220 C   0  0  0  0  0  3  0  0  0  0  0  0
  188.2200  175.9730  143.3200 C   0  0  0  0  0  0  0  0  0  0  0  0
  186.7540  177.0850  144.8490 N   0  0  0  0  0  0  0  0  0  0  0  0
  191.5840  176.6520  145.9400 C   0  0  0  0  0  2  0  0  0  0  0  0
  189.8200  177.7110  147.6450 O   0  0  0  0  0  1  0  0  0  0  0  0
  184.0660  178.2910  145.9860 C   0  0  0  0  0  1  0  0  0  0  0  0
  189.1020  176.8190  145.4420 C   0  0  0  0  0  0  0  0  0  0  0  0
  186.5590  177.7180  146.0240 C   0  0  0  0  0  0  0  0  0  0  0  0
  195.7310  173.0900  144.1100 N   0  0  0  0  0  2  0  0  0  0  0  0
  195.8610  171.9660  145.0220 C   0  0  0  0  0  3  0  0  0  0  0  0
  194.5070  171.6270  145.6120 C   0  0  0  0  0  1  0  0  0  0  0  0
  196.8160  172.3330  146.1380 C   0  0  0  0  0  1  0  0  0  0  0  0
  1 20  1  0  0  0  0
  1 16  1  1  0  0  0
  2 27  2  0  0  0  0
  2 24  1  0  0  0  0
  3  4  2  0  0  0  0
  3 11  1  0  0  0  0
  4 21  1  0  0  0  0
  5  6  2  0  0  0  0
  5 25  1  0  0  0  0
  6 18  1  0  0  0  0
  7 24  1  6  0  0  0
  7 19  1  0  0  0  0
  8 12  1  0  0  0  0
  8 17  1  0  0  0  0
  9 15  1  0  0  0  0
 10 17  1  0  0  0  0
 10  1  1  0  0  0  0
 10 20  1  0  0  0  0
 11 13  2  0  0  0  0
 12  2  1  0  0  0  0
 13 22  1  0  0  0  0
 13 12  1  0  0  0  0
 14 23  2  0  0  0  0
 14 27  1  0  0  0  0
 15 18  2  0  0  0  0
 16 19  1  0  0  0  0
 17  7  1  0  0  0  0
 21 22  2  0  0  0  0
 22 14  1  0  0  0  0
 23 28  1  0  0  0  0
 26  9  1  0  0  0  0
 27  5  1  0  0  0  0
 28  9  2  0  0  0  0
 28  6  1  0  0  0  0
 29 20  1  0  0  0  0
 29 30  1  0  0  0  0
 30 31  1  0  0  0  0
 30 32  1  0  0  0  0
M  END
>  <MODEL>
4

>  <REMARK>
 VINA RESULT:      -8.3      1.791      7.775
  Name = 
  2 active torsions:
  status: ('A' for Active; 'I' for Inactive)
    1  A    between atoms: C_20  and  N_29
    2  A    between atoms: N_29  and  C_30
                            x       y       z     vdW  Elec       q    Type
                         _______ _______ _______ _____ _____    ______ ____

>  <TORSDO>
F 2

$$$$
=
 OpenBabel11112416273D

 32 38  0  0  1  0  0  0  0  0999 V2000
  185.9420  178.9690  143.7200 C   0  0  1  0  0  3  0  0  0  0  0  0
  189.2500  175.0520  142.5040 C   0  0  0  0  0  0  0  0  0  0  0  0
  192.2370  174.9690  146.3170 C   0  0  0  0  0  3  0  0  0  0  0  0
  193.0350  174.0180  145.6850 C   0  0  0  0  0  3  0  0  0  0  0  0
  189.7120  173.5580  140.5380 C   0  0  0  0  0  0  0  0  0  0  0  0
  190.5650  172.6100  139.9890 C   0  0  0  0  0  0  0  0  0  0  0  0
  187.1130  176.3890  142.7020 C   0  0  1  0  0  3  0  0  0  0  0  0
  188.7500  176.4190  144.5270 C   0  0  0  0  0  2  0  0  0  0  0  0
  192.2560  171.2570  139.8400 C   0  0  0  0  0  0  0  0  0  0  0  0
  187.0400  178.2510  144.5030 C   0  0  2  0  0  3  0  0  0  0  0  0
  191.0980  175.4590  145.6770 C   0  0  0  0  0  3  0  0  0  0  0  0
  189.6130  175.4950  143.7640 N   0  0  0  0  0  0  0  0  0  0  0  0
  190.7330  175.0060  144.3910 C   0  0  0  0  0  0  0  0  0  0  0  0
  191.2050  173.5700  142.4900 C   0  0  0  0  0  0  0  0  0  0  0  0
  191.5160  171.1550  138.7100 N   0  0  0  0  0  0  0  0  0  0  0  0
  185.9040  178.6050  142.2200 C   0  0  0  0  0  2  0  0  0  0  0  0
  187.8970  177.3030  143.6370 C   0  0  2  0  0  3  0  0  0  0  0  0
  190.4760  171.9840  138.8000 N   0  0  0  0  0  0  0  0  0  0  0  0
  186.0360  177.1120  141.8900 C   0  0  0  0  0  2  0  0  0  0  0  0
  185.5840  177.8180  144.6530 C   0  0  1  0  0  3  0  0  0  0  0  0
  192.6930  173.5570  144.4150 C   0  0  0  0  0  3  0  0  0  0  0  0
  191.5490  174.0420  143.7590 C   0  0  0  0  0  0  0  0  0  0  0  0
  191.9960  172.6290  141.8820 N   0  0  0  0  0  0  0  0  0  0  0  0
  188.0940  175.7060  141.7740 C   0  0  0  0  0  2  0  0  0  0  0  0
  188.5910  173.9550  139.8180 O   0  0  0  0  0  1  0  0  0  0  0  0
  193.4970  170.4860  140.1150 C   0  0  0  0  0  1  0  0  0  0  0  0
  190.0340  174.0720  141.8350 C   0  0  0  0  0  0  0  0  0  0  0  0
  191.6580  172.1790  140.6550 C   0  0  0  0  0  0  0  0  0  0  0  0
  185.0520  178.3530  145.8940 N   0  0  0  0  0  2  0  0  0  0  0  0
  186.1240  178.3100  146.8740 C   0  0  0  0  0  3  0  0  0  0  0  0
  186.0710  176.9990  147.6330 C   0  0  0  0  0  1  0  0  0  0  0  0
  185.9620  179.4590  147.8470 C   0  0  0  0  0  1  0  0  0  0  0  0
  1 16  1  6  0  0  0
  1 10  1  0  0  0  0
  1 20  1  0  0  0  0
  2 12  1  0  0  0  0
  4  3  1  0  0  0  0
  5 27  1  0  0  0  0
  6  5  2  0  0  0  0
  6 28  1  0  0  0  0
  7 24  1  6  0  0  0
  7 17  1  0  0  0  0
  9 26  1  0  0  0  0
  9 28  2  0  0  0  0
 10 20  1  0  0  0  0
 11  3  2  0  0  0  0
 12 13  1  0  0  0  0
 12  8  1  0  0  0  0
 13 11  1  0  0  0  0
 14 22  1  0  0  0  0
 15 18  2  0  0  0  0
 15  9  1  0  0  0  0
 17 10  1  0  0  0  0
 17  8  1  0  0  0  0
 18  6  1  0  0  0  0
 19 16  1  0  0  0  0
 19  7  1  0  0  0  0
 20 29  1  0  0  0  0
 21  4  2  0  0  0  0
 22 13  2  0  0  0  0
 22 21  1  0  0  0  0
 23 14  2  0  0  0  0
 24  2  1  0  0  0  0
 25  5  1  0  0  0  0
 27 14  1  0  0  0  0
 27  2  2  0  0  0  0
 28 23  1  0  0  0  0
 29 30  1  0  0  0  0
 30 31  1  0  0  0  0
 30 32  1  0  0  0  0
M  END
>  <MODEL>
5

>  <REMARK>
 VINA RESULT:      -8.2      2.718      4.956
  Name = 
  2 active torsions:
  status: ('A' for Active; 'I' for Inactive)
    1  A    between atoms: C_20  and  N_29
    2  A    between atoms: N_29  and  C_30
                            x       y       z     vdW  Elec       q    Type
                         _______ _______ _______ _____ _____    ______ ____

>  <TORSDO>
F 2

$$$$
=
 OpenBabel11112416273D

 32 38  0  0  1  0  0  0  0  0999 V2000
  190.4090  171.9190  139.5300 C   0  0  1  0  0  3  0  0  0  0  0  0
  188.8110  175.3700  143.1770 C   0  0  0  0  0  0  0  0  0  0  0  0
  192.2860  175.0440  146.5360 C   0  0  0  0  0  3  0  0  0  0  0  0
  191.5650  175.8840  147.3810 C   0  0  0  0  0  3  0  0  0  0  0  0
  186.7930  176.7990  143.6200 C   0  0  0  0  0  0  0  0  0  0  0  0
  186.1470  177.6290  144.5280 C   0  0  0  0  0  0  0  0  0  0  0  0
  189.2470  174.3260  140.9160 C   0  0  1  0  0  3  0  0  0  0  0  0
  190.8890  174.0730  142.7180 C   0  0  0  0  0  2  0  0  0  0  0  0
  185.8070  178.7470  146.3560 C   0  0  0  0  0  0  0  0  0  0  0  0
  191.0640  172.4830  140.7900 C   0  0  2  0  0  3  0  0  0  0  0  0
  191.7750  174.7110  145.2810 C   0  0  0  0  0  3  0  0  0  0  0  0
  190.0310  174.8790  143.6100 N   0  0  0  0  0  0  0  0  0  0  0  0
  190.5310  175.2130  144.8440 C   0  0  0  0  0  0  0  0  0  0  0  0
  188.5770  176.5830  145.2970 C   0  0  0  0  0  0  0  0  0  0  0  0
  184.7610  178.9510  145.5210 N   0  0  0  0  0  0  0  0  0  0  0  0
  188.9180  172.2910  139.3820 C   0  0  0  0  0  2  0  0  0  0  0  0
  190.1030  173.3130  141.6680 C   0  0  2  0  0  3  0  0  0  0  0  0
  184.9680  178.2660  144.3960 N   0  0  0  0  0  0  0  0  0  0  0  0
  188.5600  173.7540  139.6740 C   0  0  0  0  0  2  0  0  0  0  0  0
  191.3620  173.1020  139.4280 C   0  0  1  0  0  3  0  0  0  0  0  0
  190.3330  176.3910  146.9690 C   0  0  0  0  0  3  0  0  0  0  0  0
  189.8070  176.0640  145.7080 C   0  0  0  0  0  0  0  0  0  0  0  0
  187.8790  177.4140  146.1360 N   0  0  0  0  0  0  0  0  0  0  0  0
  188.2140  174.8780  141.8750 C   0  0  0  0  0  2  0  0  0  0  0  0
  186.1990  176.5560  142.3870 O   0  0  0  0  0  1  0  0  0  0  0  0
  185.9420  179.3480  147.7100 C   0  0  0  0  0  1  0  0  0  0  0  0
  188.0540  176.2420  144.0080 C   0  0  0  0  0  0  0  0  0  0  0  0
  186.6900  177.9090  145.7320 C   0  0  0  0  0  0  0  0  0  0  0  0
  192.6580  172.6370  138.9640 N   0  0  0  0  0  2  0  0  0  0  0  0
  193.1920  173.6630  138.0840 C   0  0  0  0  0  3  0  0  0  0  0  0
  193.8170  174.7710  138.9100 C   0  0  0  0  0  1  0  0  0  0  0  0
  192.0720  174.2360  137.2430 C   0  0  0  0  0  1  0  0  0  0  0  0
  1 16  1  1  0  0  0
  1 10  1  0  0  0  0
  2 12  1  0  0  0  0
  2 27  2  0  0  0  0
  3  4  1  0  0  0  0
  5 27  1  0  0  0  0
  5  6  2  0  0  0  0
  6 28  1  0  0  0  0
  7 19  1  6  0  0  0
  7 17  1  0  0  0  0
  7 24  1  0  0  0  0
  8 12  1  0  0  0  0
  9 26  1  0  0  0  0
 10 17  1  0  0  0  0
 11  3  2  0  0  0  0
 12 13  1  0  0  0  0
 13 11  1  0  0  0  0
 13 22  2  0  0  0  0
 14 22  1  0  0  0  0
 14 23  2  0  0  0  0
 15  9  1  0  0  0  0
 16 19  1  0  0  0  0
 17  8  1  0  0  0  0
 18  6  1  0  0  0  0
 18 15  2  0  0  0  0
 20  1  1  0  0  0  0
 20 10  1  0  0  0  0
 21  4  2  0  0  0  0
 22 21  1  0  0  0  0
 24  2  1  0  0  0  0
 25  5  1  0  0  0  0
 27 14  1  0  0  0  0
 28 23  1  0  0  0  0
 28  9  2  0  0  0  0
 29 20  1  0  0  0  0
 30 31  1  0  0  0  0
 30 29  1  0  0  0  0
 32 30  1  0  0  0  0
M  END
>  <MODEL>
6

>  <REMARK>
 VINA RESULT:      -8.2      2.558      8.015
  Name = 
  2 active torsions:
  status: ('A' for Active; 'I' for Inactive)
    1  A    between atoms: C_20  and  N_29
    2  A    between atoms: N_29  and  C_30
                            x       y       z     vdW  Elec       q    Type
                         _______ _______ _______ _____ _____    ______ ____

>  <TORSDO>
F 2

$$$$
=
 OpenBabel11112416273D

 32 38  0  0  1  0  0  0  0  0999 V2000
  186.2480  176.7110  145.5550 C   0  0  1  0  0  3  0  0  0  0  0  0
  190.9590  175.8590  143.3540 C   0  0  0  0  0  0  0  0  0  0  0  0
  189.8510  173.1380  139.5030 C   0  0  0  0  0  3  0  0  0  0  0  0
  191.2040  172.9510  139.2310 C   0  0  0  0  0  3  0  0  0  0  0  0
  193.3700  176.2960  143.9060 C   0  0  0  0  0  0  0  0  0  0  0  0
  194.6930  176.0570  143.5570 C   0  0  0  0  0  0  0  0  0  0  0  0
  189.0700  177.0320  144.5590 C   0  0  1  0  0  3  0  0  0  0  0  0
  188.5800  175.5160  142.6970 C   0  0  0  0  0  2  0  0  0  0  0  0
  196.3760  175.2760  142.4310 C   0  0  0  0  0  0  0  0  0  0  0  0
  186.6820  176.0820  144.2320 C   0  0  2  0  0  3  0  0  0  0  0  0
  189.4600  173.9090  140.5980 C   0  0  0  0  0  3  0  0  0  0  0  0
  190.0250  175.2660  142.5230 N   0  0  0  0  0  0  0  0  0  0  0  0
  190.4150  174.5110  141.4440 C   0  0  0  0  0  0  0  0  0  0  0  0
  192.7520  174.9080  141.9750 C   0  0  0  0  0  0  0  0  0  0  0  0
  196.8480  176.0200  143.4590 N   0  0  0  0  0  0  0  0  0  0  0  0
  187.4150  176.9950  146.5240 C   0  0  0  0  0  2  0  0  0  0  0  0
  188.2050  175.8540  144.1260 C   0  0  2  0  0  3  0  0  0  0  0  0
  195.8160  176.5020  144.1520 N   0  0  0  0  0  0  0  0  0  0  0  0
  188.6600  177.6410  145.9020 C   0  0  0  0  0  2  0  0  0  0  0  0
  186.2700  177.5510  144.2840 C   0  0  1  0  0  3  0  0  0  0  0  0
  192.1650  173.5370  140.0540 C   0  0  0  0  0  3  0  0  0  0  0  0
  191.7850  174.3150  141.1600 C   0  0  0  0  0  0  0  0  0  0  0  0
  194.0810  174.7210  141.6930 N   0  0  0  0  0  0  0  0  0  0  0  0
  190.5100  176.5670  144.6160 C   0  0  0  0  0  2  0  0  0  0  0  0
  193.0990  177.1020  145.0060 O   0  0  0  0  0  1  0  0  0  0  0  0
  197.2240  174.5740  141.4320 C   0  0  0  0  0  1  0  0  0  0  0  0
  192.3490  175.7010  143.0980 C   0  0  0  0  0  0  0  0  0  0  0  0
  195.0090  175.2950  142.4870 C   0  0  0  0  0  0  0  0  0  0  0  0
  184.9170  177.6870  143.7730 N   0  0  0  0  0  2  0  0  0  0  0  0
  184.4370  178.9980  144.1740 C   0  0  0  0  0  3  0  0  0  0  0  0
  185.5770  179.9970  144.1270 C   0  0  0  0  0  1  0  0  0  0  0  0
  183.8940  178.9250  145.5850 C   0  0  0  0  0  1  0  0  0  0  0  0
  1 16  1  1  0  0  0
  2 24  1  0  0  0  0
  3 11  1  0  0  0  0
  4  3  2  0  0  0  0
  4 21  1  0  0  0  0
  5 25  1  0  0  0  0
  6  5  2  0  0  0  0
  6 18  1  0  0  0  0
  7 24  1  1  0  0  0
  7 19  1  0  0  0  0
  8 17  1  0  0  0  0
  9 28  2  0  0  0  0
  9 15  1  0  0  0  0
 10 20  1  0  0  0  0
 10  1  1  0  0  0  0
 11 13  2  0  0  0  0
 12  8  1  0  0  0  0
 12  2  1  0  0  0  0
 13 12  1  0  0  0  0
 14 27  1  0  0  0  0
 15 18  2  0  0  0  0
 17 10  1  0  0  0  0
 17  7  1  0  0  0  0
 19 16  1  0  0  0  0
 20  1  1  0  0  0  0
 21 22  2  0  0  0  0
 22 13  1  0  0  0  0
 22 14  1  0  0  0  0
 23 14  2  0  0  0  0
 23 28  1  0  0  0  0
 26  9  1  0  0  0  0
 27  2  2  0  0  0  0
 27  5  1  0  0  0  0
 28  6  1  0  0  0  0
 29 30  1  0  0  0  0
 29 20  1  0  0  0  0
 30 32  1  0  0  0  0
 31 30  1  0  0  0  0
M  END
>  <MODEL>
7

>  <REMARK>
 VINA RESULT:      -8.2      1.612      2.274
  Name = 
  2 active torsions:
  status: ('A' for Active; 'I' for Inactive)
    1  A    between atoms: C_20  and  N_29
    2  A    between atoms: N_29  and  C_30
                            x       y       z     vdW  Elec       q    Type
                         _______ _______ _______ _____ _____    ______ ____

>  <TORSDO>
F 2

$$$$
=
 OpenBabel11112416273D

 32 38  0  0  1  0  0  0  0  0999 V2000
  195.2980  174.4440  145.3870 C   0  0  1  0  0  3  0  0  0  0  0  0
  190.3480  175.6350  144.0280 C   0  0  0  0  0  0  0  0  0  0  0  0
  189.9150  173.5490  139.6780 C   0  0  0  0  0  3  0  0  0  0  0  0
  188.6570  174.1260  139.5140 C   0  0  0  0  0  3  0  0  0  0  0  0
  188.4730  177.0550  144.9110 C   0  0  0  0  0  0  0  0  0  0  0  0
  187.2130  177.5830  144.6610 C   0  0  0  0  0  0  0  0  0  0  0  0
  192.3400  175.0040  145.4510 C   0  0  1  0  0  3  0  0  0  0  0  0
  192.1280  174.1120  143.1780 C   0  0  0  0  0  2  0  0  0  0  0  0
  185.3660  177.9850  143.5960 C   0  0  0  0  0  0  0  0  0  0  0  0
  194.3960  173.9980  144.2360 C   0  0  2  0  0  3  0  0  0  0  0  0
  190.6430  173.7850  140.8440 C   0  0  0  0  0  3  0  0  0  0  0  0
  190.8510  174.8350  143.0160 N   0  0  0  0  0  0  0  0  0  0  0  0
  190.1280  174.6030  141.8720 C   0  0  0  0  0  0  0  0  0  0  0  0
  188.3140  175.9880  142.7030 C   0  0  0  0  0  0  0  0  0  0  0  0
  185.3270  178.6230  144.7900 N   0  0  0  0  0  0  0  0  0  0  0  0
  194.7170  175.6070  146.2200 C   0  0  0  0  0  2  0  0  0  0  0  0
  193.0810  174.8010  144.1350 C   0  0  2  0  0  3  0  0  0  0  0  0
  186.4610  178.3770  145.4460 N   0  0  0  0  0  0  0  0  0  0  0  0
  193.2340  175.4860  146.5960 C   0  0  0  0  0  2  0  0  0  0  0  0
  194.5130  173.1430  145.4950 C   0  0  1  0  0  3  0  0  0  0  0  0
  188.1290  174.9370  140.5170 C   0  0  0  0  0  3  0  0  0  0  0  0
  188.8520  175.1820  141.6960 C   0  0  0  0  0  0  0  0  0  0  0  0
  187.0720  176.5450  142.5320 N   0  0  0  0  0  0  0  0  0  0  0  0
  191.2180  175.9920  145.2160 C   0  0  0  0  0  2  0  0  0  0  0  0
  189.0950  177.3390  146.1210 O   0  0  0  0  0  1  0  0  0  0  0  0
  184.2790  178.0180  142.5810 C   0  0  0  0  0  1  0  0  0  0  0  0
  189.0620  176.2290  143.9010 C   0  0  0  0  0  0  0  0  0  0  0  0
  186.5600  177.3240  143.5080 C   0  0  0  0  0  0  0  0  0  0  0  0
  195.4000  172.0230  145.2320 N   0  0  0  0  0  2  0  0  0  0  0  0
  194.7750  170.8390  145.7980 C   0  0  0  0  0  3  0  0  0  0  0  0
  195.8380  169.9280  146.3800 C   0  0  0  0  0  1  0  0  0  0  0  0
  194.0220  170.1000  144.7120 C   0  0  0  0  0  1  0  0  0  0  0  0
  1 20  1  0  0  0  0
  1 16  1  1  0  0  0
  2 24  1  0  0  0  0
  3 11  1  0  0  0  0
  4  3  2  0  0  0  0
  4 21  1  0  0  0  0
  5 25  1  0  0  0  0
  6  5  2  0  0  0  0
  6 18  1  0  0  0  0
  7 24  1  6  0  0  0
  7 19  1  0  0  0  0
  8 17  1  0  0  0  0
  9 15  1  0  0  0  0
 10  1  1  0  0  0  0
 10 20  1  0  0  0  0
 11 13  2  0  0  0  0
 12  8  1  0  0  0  0
 12  2  1  0  0  0  0
 13 12  1  0  0  0  0
 14 27  1  0  0  0  0
 15 18  2  0  0  0  0
 16 19  1  0  0  0  0
 17 10  1  0  0  0  0
 17  7  1  0  0  0  0
 21 22  2  0  0  0  0
 22 13  1  0  0  0  0
 22 14  1  0  0  0  0
 23 14  2  0  0  0  0
 23 28  1  0  0  0  0
 26  9  1  0  0  0  0
 27  2  2  0  0  0  0
 27  5  1  0  0  0  0
 28  9  2  0  0  0  0
 28  6  1  0  0  0  0
 29 20  1  0  0  0  0
 29 30  1  0  0  0  0
 30 31  1  0  0  0  0
 32 30  1  0  0  0  0
M  END
>  <MODEL>
8

>  <REMARK>
 VINA RESULT:      -8.0      2.008      7.830
  Name = 
  2 active torsions:
  status: ('A' for Active; 'I' for Inactive)
    1  A    between atoms: C_20  and  N_29
    2  A    between atoms: N_29  and  C_30
                            x       y       z     vdW  Elec       q    Type
                         _______ _______ _______ _____ _____    ______ ____

>  <TORSDO>
F 2

$$$$
=
 OpenBabel11112416273D

 32 38  0  0  1  0  0  0  0  0999 V2000
  189.6790  175.0010  147.6370 C   0  0  1  0  0  3  0  0  0  0  0  0
  192.3780  175.0580  143.1130 C   0  0  0  0  0  0  0  0  0  0  0  0
  189.3800  172.7820  140.0640 C   0  0  0  0  0  3  0  0  0  0  0  0
  190.3550  172.8050  139.0700 C   0  0  0  0  0  3  0  0  0  0  0  0
  194.6740  175.7130  142.3310 C   0  0  0  0  0  0  0  0  0  0  0  0
  195.5810  175.6920  141.2800 C   0  0  0  0  0  0  0  0  0  0  0  0
  191.4540  175.8070  145.3440 C   0  0  1  0  0  3  0  0  0  0  0  0
  190.0470  174.5150  143.8080 C   0  0  0  0  0  2  0  0  0  0  0  0
  196.3690  175.2910  139.2980 C   0  0  0  0  0  0  0  0  0  0  0  0
  189.3160  174.6210  146.2020 C   0  0  2  0  0  3  0  0  0  0  0  0
  189.6470  173.3390  141.3150 C   0  0  0  0  0  3  0  0  0  0  0  0
  191.1550  174.4740  142.8320 N   0  0  0  0  0  0  0  0  0  0  0  0
  190.8960  173.9310  141.5980 C   0  0  0  0  0  0  0  0  0  0  0  0
  193.1200  174.5390  140.8320 C   0  0  0  0  0  0  0  0  0  0  0  0
  197.3150  175.9380  140.0190 N   0  0  0  0  0  0  0  0  0  0  0  0
  191.1800  175.2910  147.8460 C   0  0  0  0  0  2  0  0  0  0  0  0
  190.5260  174.6020  145.2440 C   0  0  2  0  0  3  0  0  0  0  0  0
  196.8330  176.1860  141.2370 N   0  0  0  0  0  0  0  0  0  0  0  0
  191.8480  176.1680  146.7790 C   0  0  0  0  0  2  0  0  0  0  0  0
  188.9650  176.0050  146.7410 C   0  0  1  0  0  3  0  0  0  0  0  0
  191.5960  173.3860  139.3270 C   0  0  0  0  0  3  0  0  0  0  0  0
  191.8780  173.9500  140.5830 C   0  0  0  0  0  0  0  0  0  0  0  0
  194.0690  174.5620  139.8420 N   0  0  0  0  0  0  0  0  0  0  0  0
  192.6920  175.5220  144.5200 C   0  0  0  0  0  2  0  0  0  0  0  0
  195.0420  176.3170  143.5280 O   0  0  0  0  0  1  0  0  0  0  0  0
  196.5330  174.8460  137.8880 C   0  0  0  0  0  1  0  0  0  0  0  0
  193.3920  175.1120  142.1170 C   0  0  0  0  0  0  0  0  0  0  0  0
  195.2670  175.1310  140.0930 C   0  0  0  0  0  0  0  0  0  0  0  0
  187.5540  176.0410  147.0860 N   0  0  0  0  0  2  0  0  0  0  0  0
  186.9910  177.2280  146.4650 C   0  0  0  0  0  3  0  0  0  0  0  0
  185.5340  176.9830  146.1230 C   0  0  0  0  0  1  0  0  0  0  0  0
  187.7570  177.5420  145.1970 C   0  0  0  0  0  1  0  0  0  0  0  0
  1 16  1  6  0  0  0
  2 24  1  0  0  0  0
  3 11  1  0  0  0  0
  4 21  1  0  0  0  0
  4  3  2  0  0  0  0
  5 25  1  0  0  0  0
  6  5  2  0  0  0  0
  7 24  1  6  0  0  0
  7 19  1  0  0  0  0
  8 17  1  0  0  0  0
  9 15  1  0  0  0  0
  9 28  2  0  0  0  0
 10 20  1  0  0  0  0
 10  1  1  0  0  0  0
 11 13  2  0  0  0  0
 12  2  1  0  0  0  0
 12  8  1  0  0  0  0
 13 12  1  0  0  0  0
 14 27  1  0  0  0  0
 15 18  2  0  0  0  0
 17  7  1  0  0  0  0
 17 10  1  0  0  0  0
 18  6  1  0  0  0  0
 19 16  1  0  0  0  0
 20 29  1  0  0  0  0
 20  1  1  0  0  0  0
 21 22  2  0  0  0  0
 22 14  1  0  0  0  0
 22 13  1  0  0  0  0
 23 28  1  0  0  0  0
 23 14  2  0  0  0  0
 26  9  1  0  0  0  0
 27  5  1  0  0  0  0
 27  2  2  0  0  0  0
 28  6  1  0  0  0  0
 30 29  1  0  0  0  0
 31 30  1  0  0  0  0
 32 30  1  0  0  0  0
M  END
>  <MODEL>
9

>  <REMARK>
 VINA RESULT:      -7.9      2.768      4.276
  Name = 
  2 active torsions:
  status: ('A' for Active; 'I' for Inactive)
    1  A    between atoms: C_20  and  N_29
    2  A    between atoms: N_29  and  C_30
                            x       y       z     vdW  Elec       q    Type
                         _______ _______ _______ _____ _____    ______ ____

>  <TORSDO>
F 2

$$$$
