=
 OpenBabel11112416553D

 31 35  0  0  1  0  0  0  0  0999 V2000
  185.2260  178.0890  146.8250 C   0  0  0  0  0  0  0  0  0  0  0  0
  186.8580  177.6310  143.4630 C   0  0  0  0  0  0  0  0  0  0  0  0
  185.8440  177.8100  142.4740 C   0  0  0  0  0  0  0  0  0  0  0  0
  191.6380  176.7160  145.5030 O   0  0  0  0  0  0  0  0  0  0  0  0
  191.7000  176.6460  144.2470 C   0  0  0  0  0  0  0  0  0  0  0  0
  183.4570  178.2810  141.6710 C   0  0  0  0  0  0  0  0  0  0  0  0
  186.6450  177.7250  144.8710 C   0  0  0  0  0  0  0  0  0  0  0  0
  186.3160  177.8900  147.6710 C   0  0  0  0  0  3  0  0  0  0  0  0
  184.4040  178.1240  142.8290 C   0  0  0  0  0  2  0  0  0  0  0  0
  189.2150  177.1540  143.9220 C   0  0  0  0  0  0  0  0  0  0  0  0
  183.9760  178.3700  147.3590 O   0  0  0  0  0  1  0  0  0  0  0  0
  187.4720  177.4100  140.7660 N   0  0  0  0  0  0  0  0  0  0  0  0
  182.1560  178.5640  141.9250 F   0  0  0  0  0  0  0  0  0  0  0  0
  188.9730  177.2500  145.2540 N   0  0  0  0  0  0  0  0  0  0  0  0
  188.1700  177.3410  143.0090 C   0  0  0  0  0  0  0  0  0  0  0  0
  190.5340  176.8600  143.4400 N   0  0  0  0  0  2  0  0  0  0  0  0
  185.3910  178.0070  145.4420 C   0  0  0  0  0  3  0  0  0  0  0  0
  183.8540  178.1550  140.4080 C   0  0  0  0  0  3  0  0  0  0  0  0
  187.7420  177.5250  145.7470 C   0  0  0  0  0  0  0  0  0  0  0  0
  187.5710  177.6090  147.1320 C   0  0  0  0  0  3  0  0  0  0  0  0
  188.4240  177.2410  141.6780 N   0  0  0  0  0  0  0  0  0  0  0  0
  186.1950  177.6890  141.1170 C   0  0  0  0  0  0  0  0  0  0  0  0
  185.2140  177.8600  140.0940 N   0  0  0  0  0  2  0  0  0  0  0  0
  194.2150  173.9040  144.5900 C   0  0  1  0  0  3  0  0  0  0  0  0
  192.9950  174.9970  142.8650 C   0  0  0  0  0  2  0  0  0  0  0  0
  194.1570  177.5400  145.3550 F   0  0  0  0  0  0  0  0  0  0  0  0
  194.2760  172.6760  145.4740 C   0  0  0  0  0  1  0  0  0  0  0  0
  192.9770  173.8820  143.8150 N   0  0  0  0  0  2  0  0  0  0  0  0
  194.2020  176.3980  144.5780 C   0  0  2  0  0  3  0  0  0  0  0  0
  193.0190  176.3430  143.6000 C   0  0  2  0  0  3  0  0  0  0  0  0
  194.2640  175.1550  145.4630 C   0  0  0  0  0  2  0  0  0  0  0  0
  1 11  1  0  0  0  0
  1  8  1  0  0  0  0
  2  7  1  0  0  0  0
  3  9  1  0  0  0  0
  3  2  2  0  0  0  0
  5  4  2  0  0  0  0
  6 13  1  0  0  0  0
  6  9  1  0  0  0  0
  7 17  1  0  0  0  0
  7 19  2  0  0  0  0
 10 14  2  0  0  0  0
 12 22  2  0  0  0  0
 12 21  1  0  0  0  0
 14 19  1  0  0  0  0
 15  2  1  0  0  0  0
 15 10  1  0  0  0  0
 16 10  1  0  0  0  0
 16  5  1  0  0  0  0
 17  1  2  0  0  0  0
 18  6  2  0  0  0  0
 19 20  1  0  0  0  0
 20  8  2  0  0  0  0
 21 15  2  0  0  0  0
 22  3  1  0  0  0  0
 23 18  1  0  0  0  0
 23 22  1  0  0  0  0
 24 31  1  0  0  0  0
 24 27  1  1  0  0  0
 25 30  1  0  0  0  0
 25 28  1  0  0  0  0
 28 24  1  0  0  0  0
 29 26  1  1  0  0  0
 29 31  1  0  0  0  0
 30  5  1  1  0  0  0
 30 29  1  0  0  0  0
M  END
>  <MODEL>
1

>  <REMARK>
 VINA RESULT:      -9.8      0.000      0.000
  Name = 
  1 active torsions:
  status: ('A' for Active; 'I' for Inactive)
    1  A    between atoms: C_5  and  C_30
                            x       y       z     vdW  Elec       q    Type
                         _______ _______ _______ _____ _____    ______ ____

>  <TORSDO>
F 1

$$$$
=
 OpenBabel11112416553D

 31 35  0  0  1  0  0  0  0  0999 V2000
  184.6800  178.4700  146.2460 C   0  0  0  0  0  0  0  0  0  0  0  0
  187.1980  177.1560  143.7740 C   0  0  0  0  0  0  0  0  0  0  0  0
  186.6540  177.3600  142.4700 C   0  0  0  0  0  0  0  0  0  0  0  0
  190.6340  175.6900  147.5010 O   0  0  0  0  0  0  0  0  0  0  0  0
  191.1010  175.4030  146.3670 C   0  0  0  0  0  0  0  0  0  0  0  0
  184.8690  178.1420  140.8070 C   0  0  0  0  0  0  0  0  0  0  0  0
  186.5480  177.5210  144.9910 C   0  0  0  0  0  0  0  0  0  0  0  0
  185.3370  178.2080  147.4480 C   0  0  0  0  0  3  0  0  0  0  0  0
  185.2990  177.9990  142.2420 C   0  0  0  0  0  2  0  0  0  0  0  0
  189.0710  176.3170  145.1080 C   0  0  0  0  0  0  0  0  0  0  0  0
  183.4290  179.0700  146.2560 O   0  0  0  0  0  1  0  0  0  0  0  0
  188.6200  176.3770  141.5220 N   0  0  0  0  0  0  0  0  0  0  0  0
  183.6660  178.7070  140.5390 F   0  0  0  0  0  0  0  0  0  0  0  0
  188.4230  176.6780  146.2430 N   0  0  0  0  0  0  0  0  0  0  0  0
  188.4770  176.5480  143.8610 C   0  0  0  0  0  0  0  0  0  0  0  0
  190.3650  175.7000  145.1730 N   0  0  0  0  0  2  0  0  0  0  0  0
  185.2810  178.1290  145.0340 C   0  0  0  0  0  3  0  0  0  0  0  0
  185.6290  177.7340  139.7950 C   0  0  0  0  0  3  0  0  0  0  0  0
  187.2010  177.2620  146.2230 C   0  0  0  0  0  0  0  0  0  0  0  0
  186.5940  177.6050  147.4350 C   0  0  0  0  0  3  0  0  0  0  0  0
  189.1360  176.1820  142.7320 N   0  0  0  0  0  0  0  0  0  0  0  0
  187.4060  176.9510  141.3530 C   0  0  0  0  0  0  0  0  0  0  0  0
  186.9020  177.1350  140.0300 N   0  0  0  0  0  2  0  0  0  0  0  0
  193.8510  175.3990  143.8360 C   0  0  1  0  0  3  0  0  0  0  0  0
  193.5750  175.7820  146.1680 C   0  0  0  0  0  2  0  0  0  0  0  0
  191.4620  172.8680  145.1400 F   0  0  0  0  0  0  0  0  0  0  0  0
  193.9970  176.0620  142.4830 C   0  0  0  0  0  1  0  0  0  0  0  0
  193.5760  176.4170  144.8480 N   0  0  0  0  0  2  0  0  0  0  0  0
  192.5510  173.7200  145.1450 C   0  0  2  0  0  3  0  0  0  0  0  0
  192.4480  174.7490  146.2800 C   0  0  2  0  0  3  0  0  0  0  0  0
  192.7050  174.3920  143.7820 C   0  0  0  0  0  2  0  0  0  0  0  0
  1 11  1  0  0  0  0
  1  8  1  0  0  0  0
  2 15  1  0  0  0  0
  2  7  1  0  0  0  0
  3  2  2  0  0  0  0
  5  4  2  0  0  0  0
  6  9  1  0  0  0  0
  7 17  1  0  0  0  0
  7 19  2  0  0  0  0
  9  3  1  0  0  0  0
 10 16  1  0  0  0  0
 10 14  2  0  0  0  0
 12 21  1  0  0  0  0
 13  6  1  0  0  0  0
 15 10  1  0  0  0  0
 16  5  1  0  0  0  0
 17  1  2  0  0  0  0
 18 23  1  0  0  0  0
 18  6  2  0  0  0  0
 19 14  1  0  0  0  0
 19 20  1  0  0  0  0
 20  8  2  0  0  0  0
 21 15  2  0  0  0  0
 22 12  2  0  0  0  0
 22  3  1  0  0  0  0
 23 22  1  0  0  0  0
 24 27  1  6  0  0  0
 24 28  1  0  0  0  0
 25 30  1  0  0  0  0
 28 25  1  0  0  0  0
 29 26  1  6  0  0  0
 29 30  1  0  0  0  0
 30  5  1  6  0  0  0
 31 24  1  0  0  0  0
 31 29  1  0  0  0  0
M  END
>  <MODEL>
2

>  <REMARK>
 VINA RESULT:      -9.5      1.725      2.203
  Name = 
  1 active torsions:
  status: ('A' for Active; 'I' for Inactive)
    1  A    between atoms: C_5  and  C_30
                            x       y       z     vdW  Elec       q    Type
                         _______ _______ _______ _____ _____    ______ ____

>  <TORSDO>
F 1

$$$$
=
 OpenBabel11112416553D

 31 35  0  0  1  0  0  0  0  0999 V2000
  185.4290  177.9100  140.8970 C   0  0  0  0  0  0  0  0  0  0  0  0
  187.1660  176.7730  144.0380 C   0  0  0  0  0  0  0  0  0  0  0  0
  186.3830  177.2290  145.1410 C   0  0  0  0  0  0  0  0  0  0  0  0
  191.0970  174.3980  141.4400 O   0  0  0  0  0  0  0  0  0  0  0  0
  191.2810  174.2730  142.6800 C   0  0  0  0  0  0  0  0  0  0  0  0
  184.3940  178.4280  146.2250 C   0  0  0  0  0  0  0  0  0  0  0  0
  186.8460  177.0000  142.6660 C   0  0  0  0  0  0  0  0  0  0  0  0
  186.2920  177.4010  139.9270 C   0  0  0  0  0  3  0  0  0  0  0  0
  185.1030  178.0200  144.9620 C   0  0  0  0  0  2  0  0  0  0  0  0
  189.1620  175.5630  143.3000 C   0  0  0  0  0  0  0  0  0  0  0  0
  184.2960  178.6140  140.5170 O   0  0  0  0  0  1  0  0  0  0  0  0
  187.9570  176.2300  146.6420 N   0  0  0  0  0  0  0  0  0  0  0  0
  183.2430  179.1360  146.1280 F   0  0  0  0  0  0  0  0  0  0  0  0
  188.8250  175.7990  142.0070 N   0  0  0  0  0  0  0  0  0  0  0  0
  188.3450  176.0420  144.3320 C   0  0  0  0  0  0  0  0  0  0  0  0
  190.3510  174.8270  143.6200 N   0  0  0  0  0  2  0  0  0  0  0  0
  185.7060  177.7100  142.2500 C   0  0  0  0  0  3  0  0  0  0  0  0
  184.8600  178.1150  147.4310 C   0  0  0  0  0  3  0  0  0  0  0  0
  187.7120  176.4900  141.6650 C   0  0  0  0  0  0  0  0  0  0  0  0
  187.4300  176.6930  140.3110 C   0  0  0  0  0  3  0  0  0  0  0  0
  188.6940  175.8000  145.6220 N   0  0  0  0  0  0  0  0  0  0  0  0
  186.8180  176.9340  146.4470 C   0  0  0  0  0  0  0  0  0  0  0  0
  186.0660  177.3700  147.5790 N   0  0  0  0  0  2  0  0  0  0  0  0
  193.7740  174.8150  145.4110 C   0  0  1  0  0  3  0  0  0  0  0  0
  192.3370  173.0880  144.6260 C   0  0  0  0  0  2  0  0  0  0  0  0
  193.8860  174.8310  141.6960 F   0  0  0  0  0  0  0  0  0  0  0  0
  193.9400  175.9110  146.4420 C   0  0  0  0  0  1  0  0  0  0  0  0
  192.4370  174.2360  145.5300 N   0  0  0  0  0  2  0  0  0  0  0  0
  193.8000  174.3010  142.9700 C   0  0  2  0  0  3  0  0  0  0  0  0
  192.4890  173.5260  143.1640 C   0  0  2  0  0  3  0  0  0  0  0  0
  193.9680  175.4020  144.0160 C   0  0  0  0  0  2  0  0  0  0  0  0
  1 17  1  0  0  0  0
  2 15  1  0  0  0  0
  2  3  2  0  0  0  0
  3 22  1  0  0  0  0
  4  5  2  0  0  0  0
  5 16  1  0  0  0  0
  6 18  2  0  0  0  0
  7  2  1  0  0  0  0
  8 20  1  0  0  0  0
  8  1  2  0  0  0  0
  9  3  1  0  0  0  0
  9  6  1  0  0  0  0
 10 16  1  0  0  0  0
 10 15  1  0  0  0  0
 11  1  1  0  0  0  0
 13  6  1  0  0  0  0
 14 10  2  0  0  0  0
 15 21  2  0  0  0  0
 17  7  2  0  0  0  0
 18 23  1  0  0  0  0
 19 14  1  0  0  0  0
 19  7  1  0  0  0  0
 20 19  2  0  0  0  0
 21 12  1  0  0  0  0
 22 12  2  0  0  0  0
 22 23  1  0  0  0  0
 24 28  1  0  0  0  0
 24 27  1  1  0  0  0
 25 28  1  0  0  0  0
 29 26  1  6  0  0  0
 29 30  1  0  0  0  0
 29 31  1  0  0  0  0
 30  5  1  1  0  0  0
 30 25  1  0  0  0  0
 31 24  1  0  0  0  0
M  END
>  <MODEL>
3

>  <REMARK>
 VINA RESULT:      -9.4      2.465      4.343
  Name = 
  1 active torsions:
  status: ('A' for Active; 'I' for Inactive)
    1  A    between atoms: C_5  and  C_30
                            x       y       z     vdW  Elec       q    Type
                         _______ _______ _______ _____ _____    ______ ____

>  <TORSDO>
F 1

$$$$
=
 OpenBabel11112416553D

 31 35  0  0  1  0  0  0  0  0999 V2000
  185.9420  177.8050  141.2360 C   0  0  0  0  0  0  0  0  0  0  0  0
  187.6330  177.6560  144.5960 C   0  0  0  0  0  0  0  0  0  0  0  0
  186.6350  177.9130  145.5830 C   0  0  0  0  0  0  0  0  0  0  0  0
  192.3810  176.5670  142.5640 O   0  0  0  0  0  0  0  0  0  0  0  0
  192.4690  176.6340  143.8190 C   0  0  0  0  0  0  0  0  0  0  0  0
  184.2580  178.4400  146.3830 C   0  0  0  0  0  0  0  0  0  0  0  0
  187.3970  177.6230  143.1900 C   0  0  0  0  0  0  0  0  0  0  0  0
  187.0190  177.5390  140.3920 C   0  0  0  0  0  3  0  0  0  0  0  0
  185.1870  178.1850  145.2270 C   0  0  0  0  0  2  0  0  0  0  0  0
  189.9860  177.1550  144.1400 C   0  0  0  0  0  0  0  0  0  0  0  0
  184.6810  178.0280  140.7020 O   0  0  0  0  0  1  0  0  0  0  0  0
  188.2950  177.6770  147.2910 N   0  0  0  0  0  0  0  0  0  0  0  0
  182.9510  178.6880  146.1280 F   0  0  0  0  0  0  0  0  0  0  0  0
  189.7220  177.1320  142.8100 N   0  0  0  0  0  0  0  0  0  0  0  0
  188.9550  177.4150  145.0520 C   0  0  0  0  0  0  0  0  0  0  0  0
  191.3160  176.9160  144.6230 N   0  0  0  0  0  2  0  0  0  0  0  0
  186.1310  177.8460  142.6180 C   0  0  0  0  0  3  0  0  0  0  0  0
  184.6780  178.4270  147.6460 C   0  0  0  0  0  3  0  0  0  0  0  0
  188.4810  177.3540  142.3160 C   0  0  0  0  0  0  0  0  0  0  0  0
  188.2860  177.3150  140.9320 C   0  0  0  0  0  3  0  0  0  0  0  0
  189.2330  177.4360  146.3810 N   0  0  0  0  0  0  0  0  0  0  0  0
  187.0100  177.9160  146.9390 C   0  0  0  0  0  0  0  0  0  0  0  0
  186.0440  178.1690  147.9600 N   0  0  0  0  0  2  0  0  0  0  0  0
  194.2220  173.6490  145.2260 C   0  0  1  0  0  3  0  0  0  0  0  0
  194.6530  175.4030  143.6780 C   0  0  0  0  0  2  0  0  0  0  0  0
  192.8180  176.7890  146.6330 F   0  0  0  0  0  0  0  0  0  0  0  0
  193.8170  172.1970  145.3670 C   0  0  0  0  0  1  0  0  0  0  0  0
  194.1280  174.0440  143.8230 N   0  0  0  0  0  2  0  0  0  0  0  0
  193.6990  175.9810  145.9380 C   0  0  2  0  0  3  0  0  0  0  0  0
  193.8030  176.4070  144.4660 C   0  0  2  0  0  3  0  0  0  0  0  0
  193.2970  174.5140  146.0770 C   0  0  0  0  0  2  0  0  0  0  0  0
  1 17  1  0  0  0  0
  2 15  1  0  0  0  0
  2  3  2  0  0  0  0
  3 22  1  0  0  0  0
  4  5  2  0  0  0  0
  5 16  1  0  0  0  0
  6 18  2  0  0  0  0
  7  2  1  0  0  0  0
  8 20  1  0  0  0  0
  8  1  2  0  0  0  0
  9  3  1  0  0  0  0
  9  6  1  0  0  0  0
 10 16  1  0  0  0  0
 10 15  1  0  0  0  0
 11  1  1  0  0  0  0
 13  6  1  0  0  0  0
 14 10  2  0  0  0  0
 15 21  2  0  0  0  0
 17  7  2  0  0  0  0
 18 23  1  0  0  0  0
 19 14  1  0  0  0  0
 19  7  1  0  0  0  0
 20 19  2  0  0  0  0
 21 12  1  0  0  0  0
 22 12  2  0  0  0  0
 22 23  1  0  0  0  0
 24 27  1  6  0  0  0
 24 31  1  0  0  0  0
 25 28  1  0  0  0  0
 25 30  1  0  0  0  0
 28 24  1  0  0  0  0
 29 31  1  0  0  0  0
 29 26  1  1  0  0  0
 30  5  1  6  0  0  0
 30 29  1  0  0  0  0
M  END
>  <MODEL>
4

>  <REMARK>
 VINA RESULT:      -9.0      2.193      4.053
  Name = 
  1 active torsions:
  status: ('A' for Active; 'I' for Inactive)
    1  A    between atoms: C_5  and  C_30
                            x       y       z     vdW  Elec       q    Type
                         _______ _______ _______ _____ _____    ______ ____

>  <TORSDO>
F 1

$$$$
=
 OpenBabel11112416553D

 31 35  0  0  1  0  0  0  0  0999 V2000
  190.7890  176.4150  146.8950 C   0  0  0  0  0  0  0  0  0  0  0  0
  187.8810  176.4090  144.5040 C   0  0  0  0  0  0  0  0  0  0  0  0
  186.8910  177.2860  145.0410 C   0  0  0  0  0  0  0  0  0  0  0  0
  190.1720  173.0340  141.1550 O   0  0  0  0  0  0  0  0  0  0  0  0
  189.0310  173.3420  140.7210 C   0  0  0  0  0  0  0  0  0  0  0  0
  185.9450  178.9160  146.7770 C   0  0  0  0  0  0  0  0  0  0  0  0
  189.1410  176.1350  145.1140 C   0  0  0  0  0  0  0  0  0  0  0  0
  191.6560  175.5340  146.2500 C   0  0  0  0  0  3  0  0  0  0  0  0
  187.0830  178.0310  146.3470 C   0  0  0  0  0  2  0  0  0  0  0  0
  188.5110  174.8930  142.6870 C   0  0  0  0  0  0  0  0  0  0  0  0
  191.1610  176.9980  148.0980 O   0  0  0  0  0  1  0  0  0  0  0  0
  185.4850  176.8130  143.1620 N   0  0  0  0  0  0  0  0  0  0  0  0
  186.0600  179.6090  147.9360 F   0  0  0  0  0  0  0  0  0  0  0  0
  189.6990  174.6580  143.2970 N   0  0  0  0  0  0  0  0  0  0  0  0
  187.5860  175.7670  143.2730 C   0  0  0  0  0  0  0  0  0  0  0  0
  188.1910  174.2540  141.4430 N   0  0  0  0  0  2  0  0  0  0  0  0
  189.5470  176.7100  146.3310 C   0  0  0  0  0  3  0  0  0  0  0  0
  184.8330  179.0400  146.0580 C   0  0  0  0  0  3  0  0  0  0  0  0
  190.0360  175.2410  144.4720 C   0  0  0  0  0  0  0  0  0  0  0  0
  191.2790  174.9490  145.0410 C   0  0  0  0  0  3  0  0  0  0  0  0
  186.4000  175.9940  142.6520 N   0  0  0  0  0  0  0  0  0  0  0  0
  185.6890  177.4640  144.3310 C   0  0  0  0  0  0  0  0  0  0  0  0
  184.6710  178.3310  144.8320 N   0  0  0  0  0  2  0  0  0  0  0  0
  190.5870  172.8050  137.3660 C   0  0  1  0  0  3  0  0  0  0  0  0
  189.4160  171.5450  139.0110 C   0  0  0  0  0  2  0  0  0  0  0  0
  187.8340  174.9220  138.6880 F   0  0  0  0  0  0  0  0  0  0  0  0
  191.9530  173.1390  136.8070 C   0  0  0  0  0  1  0  0  0  0  0  0
  190.7420  171.9770  138.5600 N   0  0  0  0  0  2  0  0  0  0  0  0
  188.4770  173.7670  138.2830 C   0  0  2  0  0  3  0  0  0  0  0  0
  188.5600  172.7460  139.4270 C   0  0  2  0  0  3  0  0  0  0  0  0
  189.8560  174.0980  137.7160 C   0  0  0  0  0  2  0  0  0  0  0  0
  1 11  1  0  0  0  0
  2  3  2  0  0  0  0
  2  7  1  0  0  0  0
  3  9  1  0  0  0  0
  5  4  2  0  0  0  0
  5 16  1  0  0  0  0
  6 13  1  0  0  0  0
  7 17  2  0  0  0  0
  8  1  2  0  0  0  0
  9  6  1  0  0  0  0
 10 15  1  0  0  0  0
 10 14  2  0  0  0  0
 12 22  2  0  0  0  0
 14 19  1  0  0  0  0
 15  2  1  0  0  0  0
 16 10  1  0  0  0  0
 17  1  1  0  0  0  0
 18  6  2  0  0  0  0
 19 20  2  0  0  0  0
 19  7  1  0  0  0  0
 20  8  1  0  0  0  0
 21 12  1  0  0  0  0
 21 15  2  0  0  0  0
 22 23  1  0  0  0  0
 22  3  1  0  0  0  0
 23 18  1  0  0  0  0
 24 27  1  1  0  0  0
 24 31  1  0  0  0  0
 24 28  1  0  0  0  0
 25 30  1  0  0  0  0
 28 25  1  0  0  0  0
 29 26  1  1  0  0  0
 29 30  1  0  0  0  0
 30  5  1  1  0  0  0
 31 29  1  0  0  0  0
M  END
>  <MODEL>
5

>  <REMARK>
 VINA RESULT:      -8.7      4.116      5.727
  Name = 
  1 active torsions:
  status: ('A' for Active; 'I' for Inactive)
    1  A    between atoms: C_5  and  C_30
                            x       y       z     vdW  Elec       q    Type
                         _______ _______ _______ _____ _____    ______ ____

>  <TORSDO>
F 1

$$$$
=
 OpenBabel11112416553D

 31 35  0  0  1  0  0  0  0  0999 V2000
  185.4190  177.9190  140.9660 C   0  0  0  0  0  0  0  0  0  0  0  0
  187.2240  176.7950  144.0740 C   0  0  0  0  0  0  0  0  0  0  0  0
  186.4440  177.2210  145.1910 C   0  0  0  0  0  0  0  0  0  0  0  0
  191.1780  174.5420  141.4020 O   0  0  0  0  0  0  0  0  0  0  0  0
  191.3800  174.4090  142.6380 C   0  0  0  0  0  0  0  0  0  0  0  0
  184.4410  178.3600  146.3120 C   0  0  0  0  0  0  0  0  0  0  0  0
  186.8810  177.0270  142.7080 C   0  0  0  0  0  0  0  0  0  0  0  0
  186.2810  177.4410  139.9800 C   0  0  0  0  0  3  0  0  0  0  0  0
  185.1430  177.9820  145.0350 C   0  0  0  0  0  2  0  0  0  0  0  0
  189.2390  175.6410  143.2980 C   0  0  0  0  0  0  0  0  0  0  0  0
  184.2640  178.5990  140.6070 O   0  0  0  0  0  1  0  0  0  0  0  0
  188.0620  176.2460  146.6610 N   0  0  0  0  0  0  0  0  0  0  0  0
  183.2720  179.0410  146.2370 F   0  0  0  0  0  0  0  0  0  0  0  0
  188.8790  175.8810  142.0120 N   0  0  0  0  0  0  0  0  0  0  0  0
  188.4240  176.0900  144.3450 C   0  0  0  0  0  0  0  0  0  0  0  0
  190.4500  174.9310  143.5950 N   0  0  0  0  0  2  0  0  0  0  0  0
  185.7180  177.7130  142.3130 C   0  0  0  0  0  3  0  0  0  0  0  0
  184.9300  178.0470  147.5090 C   0  0  0  0  0  3  0  0  0  0  0  0
  187.7450  176.5480  141.6910 C   0  0  0  0  0  0  0  0  0  0  0  0
  187.4410  176.7580  140.3420 C   0  0  0  0  0  3  0  0  0  0  0  0
  188.7950  175.8440  145.6280 N   0  0  0  0  0  0  0  0  0  0  0  0
  186.9030  176.9230  146.4870 C   0  0  0  0  0  0  0  0  0  0  0  0
  186.1560  177.3300  147.6340 N   0  0  0  0  0  2  0  0  0  0  0  0
  192.4310  170.8240  142.7370 C   0  0  1  0  0  3  0  0  0  0  0  0
  193.2740  172.9080  141.9570 C   0  0  0  0  0  2  0  0  0  0  0  0
  191.6330  173.4110  145.2840 F   0  0  0  0  0  0  0  0  0  0  0  0
  191.7350  169.5420  142.3320 C   0  0  0  0  0  1  0  0  0  0  0  0
  192.4790  171.7330  141.5940 N   0  0  0  0  0  2  0  0  0  0  0  0
  192.3610  172.7660  144.3010 C   0  0  2  0  0  3  0  0  0  0  0  0
  192.6120  173.6870  143.0990 C   0  0  2  0  0  3  0  0  0  0  0  0
  191.6650  171.4710  143.8880 C   0  0  0  0  0  2  0  0  0  0  0  0
  1 17  1  0  0  0  0
  2 15  1  0  0  0  0
  2  3  2  0  0  0  0
  3 22  1  0  0  0  0
  4  5  2  0  0  0  0
  5 16  1  0  0  0  0
  6 18  2  0  0  0  0
  7  2  1  0  0  0  0
  8 20  1  0  0  0  0
  8  1  2  0  0  0  0
  9  3  1  0  0  0  0
  9  6  1  0  0  0  0
 10 16  1  0  0  0  0
 10 15  1  0  0  0  0
 11  1  1  0  0  0  0
 13  6  1  0  0  0  0
 14 10  2  0  0  0  0
 15 21  2  0  0  0  0
 17  7  2  0  0  0  0
 18 23  1  0  0  0  0
 19 14  1  0  0  0  0
 19  7  1  0  0  0  0
 20 19  2  0  0  0  0
 21 12  1  0  0  0  0
 22 12  2  0  0  0  0
 22 23  1  0  0  0  0
 24 27  1  6  0  0  0
 24 31  1  0  0  0  0
 25 30  1  0  0  0  0
 28 25  1  0  0  0  0
 28 24  1  0  0  0  0
 29 26  1  1  0  0  0
 30  5  1  6  0  0  0
 30 29  1  0  0  0  0
 31 29  1  0  0  0  0
M  END
>  <MODEL>
6

>  <REMARK>
 VINA RESULT:      -8.6      2.726      4.577
  Name = 
  1 active torsions:
  status: ('A' for Active; 'I' for Inactive)
    1  A    between atoms: C_5  and  C_30
                            x       y       z     vdW  Elec       q    Type
                         _______ _______ _______ _____ _____    ______ ____

>  <TORSDO>
F 1

$$$$
=
 OpenBabel11112416553D

 31 35  0  0  1  0  0  0  0  0999 V2000
  194.1790  175.9440  143.7950 C   0  0  0  0  0  0  0  0  0  0  0  0
  190.5800  175.1710  143.0050 C   0  0  0  0  0  0  0  0  0  0  0  0
  190.5620  174.4780  141.7570 C   0  0  0  0  0  0  0  0  0  0  0  0
  188.7490  177.4210  147.4140 O   0  0  0  0  0  0  0  0  0  0  0  0
  187.7830  176.9730  146.7410 C   0  0  0  0  0  0  0  0  0  0  0  0
  191.6350  173.4300  139.6800 C   0  0  0  0  0  0  0  0  0  0  0  0
  191.7590  175.6410  143.6560 C   0  0  0  0  0  0  0  0  0  0  0  0
  194.0390  176.6060  145.0150 C   0  0  0  0  0  3  0  0  0  0  0  0
  191.8240  174.1660  140.9790 C   0  0  0  0  0  2  0  0  0  0  0  0
  189.2750  176.0790  144.8670 C   0  0  0  0  0  0  0  0  0  0  0  0
  195.4400  175.7590  143.2470 O   0  0  0  0  0  1  0  0  0  0  0  0
  188.1770  174.3340  141.8980 N   0  0  0  0  0  0  0  0  0  0  0  0
  192.7280  173.1220  138.9400 F   0  0  0  0  0  0  0  0  0  0  0  0
  190.4190  176.5110  145.4560 N   0  0  0  0  0  0  0  0  0  0  0  0
  189.3340  175.4050  143.6410 C   0  0  0  0  0  0  0  0  0  0  0  0
  188.0030  176.3060  145.4910 N   0  0  0  0  0  2  0  0  0  0  0  0
  193.0510  175.4680  143.1260 C   0  0  0  0  0  3  0  0  0  0  0  0
  190.4330  173.0720  139.2360 C   0  0  0  0  0  3  0  0  0  0  0  0
  191.6370  176.3160  144.8970 C   0  0  0  0  0  0  0  0  0  0  0  0
  192.7710  176.7910  145.5630 C   0  0  0  0  0  3  0  0  0  0  0  0
  188.1820  174.9780  143.0610 N   0  0  0  0  0  0  0  0  0  0  0  0
  189.3230  174.0700  141.2290 C   0  0  0  0  0  0  0  0  0  0  0  0
  189.2570  173.3750  139.9830 N   0  0  0  0  0  2  0  0  0  0  0  0
  184.7020  178.6900  145.5060 C   0  0  1  0  0  3  0  0  0  0  0  0
  185.3450  176.5480  146.3180 C   0  0  0  0  0  2  0  0  0  0  0  0
  187.0450  179.1970  148.3460 F   0  0  0  0  0  0  0  0  0  0  0  0
  184.4130  179.5050  144.2630 C   0  0  0  0  0  1  0  0  0  0  0  0
  185.2020  177.3730  145.1170 N   0  0  0  0  0  2  0  0  0  0  0  0
  186.0400  178.5980  147.6080 C   0  0  2  0  0  3  0  0  0  0  0  0
  186.3890  177.1410  147.2710 C   0  0  2  0  0  3  0  0  0  0  0  0
  185.7430  179.4160  146.3530 C   0  0  0  0  0  2  0  0  0  0  0  0
  1  8  1  0  0  0  0
  2 15  1  0  0  0  0
  2  7  1  0  0  0  0
  3  2  2  0  0  0  0
  5  4  2  0  0  0  0
  6  9  1  0  0  0  0
  7 19  2  0  0  0  0
  8 20  2  0  0  0  0
  9  3  1  0  0  0  0
 10 14  2  0  0  0  0
 10 16  1  0  0  0  0
 11  1  1  0  0  0  0
 12 21  1  0  0  0  0
 13  6  1  0  0  0  0
 15 10  1  0  0  0  0
 16  5  1  0  0  0  0
 17  7  1  0  0  0  0
 17  1  2  0  0  0  0
 18  6  2  0  0  0  0
 18 23  1  0  0  0  0
 19 14  1  0  0  0  0
 19 20  1  0  0  0  0
 21 15  2  0  0  0  0
 22  3  1  0  0  0  0
 22 12  2  0  0  0  0
 23 22  1  0  0  0  0
 24 27  1  6  0  0  0
 24 31  1  0  0  0  0
 25 30  1  0  0  0  0
 28 24  1  0  0  0  0
 28 25  1  0  0  0  0
 29 26  1  6  0  0  0
 30  5  1  6  0  0  0
 30 29  1  0  0  0  0
 31 29  1  0  0  0  0
M  END
>  <MODEL>
7

>  <REMARK>
 VINA RESULT:      -8.5      3.282      7.499
  Name = 
  1 active torsions:
  status: ('A' for Active; 'I' for Inactive)
    1  A    between atoms: C_5  and  C_30
                            x       y       z     vdW  Elec       q    Type
                         _______ _______ _______ _____ _____    ______ ____

>  <TORSDO>
F 1

$$$$
=
 OpenBabel11112416553D

 31 35  0  0  1  0  0  0  0  0999 V2000
  185.5640  177.7930  146.7840 C   0  0  0  0  0  0  0  0  0  0  0  0
  186.9950  176.9230  143.4120 C   0  0  0  0  0  0  0  0  0  0  0  0
  186.0650  177.3760  142.4290 C   0  0  0  0  0  0  0  0  0  0  0  0
  191.3520  174.7270  145.4230 O   0  0  0  0  0  0  0  0  0  0  0  0
  191.3870  174.6490  144.1660 C   0  0  0  0  0  0  0  0  0  0  0  0
  183.8930  178.4860  141.6400 C   0  0  0  0  0  0  0  0  0  0  0  0
  186.8220  177.0640  144.8210 C   0  0  0  0  0  0  0  0  0  0  0  0
  186.5620  177.3000  147.6230 C   0  0  0  0  0  3  0  0  0  0  0  0
  184.7670  178.0690  142.7930 C   0  0  0  0  0  2  0  0  0  0  0  0
  189.1340  175.8170  143.8570 C   0  0  0  0  0  0  0  0  0  0  0  0
  184.4410  178.4020  147.3250 O   0  0  0  0  0  1  0  0  0  0  0  0
  187.5140  176.5550  140.7110 N   0  0  0  0  0  0  0  0  0  0  0  0
  182.7200  179.1110  141.9030 F   0  0  0  0  0  0  0  0  0  0  0  0
  188.9340  175.9700  145.1900 N   0  0  0  0  0  0  0  0  0  0  0  0
  188.1760  176.2880  142.9490 C   0  0  0  0  0  0  0  0  0  0  0  0
  190.3200  175.1760  143.3670 N   0  0  0  0  0  2  0  0  0  0  0  0
  185.6950  177.6750  145.4000 C   0  0  0  0  0  3  0  0  0  0  0  0
  184.2360  178.2610  140.3750 C   0  0  0  0  0  3  0  0  0  0  0  0
  187.8270  176.5680  145.6910 C   0  0  0  0  0  0  0  0  0  0  0  0
  187.6900  176.6890  147.0770 C   0  0  0  0  0  3  0  0  0  0  0  0
  188.3880  176.1280  141.6170 N   0  0  0  0  0  0  0  0  0  0  0  0
  186.3630  177.1710  141.0700 C   0  0  0  0  0  0  0  0  0  0  0  0
  185.4610  177.6080  140.0530 N   0  0  0  0  0  2  0  0  0  0  0  0
  191.8140  171.9900  141.5750 C   0  0  1  0  0  3  0  0  0  0  0  0
  192.5640  174.2090  141.9930 C   0  0  0  0  0  2  0  0  0  0  0  0
  192.5660  172.2830  145.2030 F   0  0  0  0  0  0  0  0  0  0  0  0
  190.8220  171.1450  140.8030 C   0  0  0  0  0  1  0  0  0  0  0  0
  191.5180  173.4040  141.3570 N   0  0  0  0  0  2  0  0  0  0  0  0
  192.7060  172.5070  143.8460 C   0  0  2  0  0  3  0  0  0  0  0  0
  192.5710  174.0000  143.5110 C   0  0  2  0  0  3  0  0  0  0  0  0
  191.7100  171.6570  143.0610 C   0  0  0  0  0  2  0  0  0  0  0  0
  1 11  1  0  0  0  0
  1  8  1  0  0  0  0
  2  7  1  0  0  0  0
  3  9  1  0  0  0  0
  3  2  2  0  0  0  0
  5  4  2  0  0  0  0
  6 13  1  0  0  0  0
  6  9  1  0  0  0  0
  7 17  1  0  0  0  0
  7 19  2  0  0  0  0
 10 14  2  0  0  0  0
 12 22  2  0  0  0  0
 12 21  1  0  0  0  0
 14 19  1  0  0  0  0
 15  2  1  0  0  0  0
 15 10  1  0  0  0  0
 16 10  1  0  0  0  0
 16  5  1  0  0  0  0
 17  1  2  0  0  0  0
 18  6  2  0  0  0  0
 19 20  1  0  0  0  0
 20  8  2  0  0  0  0
 21 15  2  0  0  0  0
 22  3  1  0  0  0  0
 23 18  1  0  0  0  0
 23 22  1  0  0  0  0
 24 27  1  6  0  0  0
 24 31  1  0  0  0  0
 25 30  1  0  0  0  0
 28 24  1  0  0  0  0
 28 25  1  0  0  0  0
 29 26  1  1  0  0  0
 30 29  1  0  0  0  0
 30  5  1  6  0  0  0
 31 29  1  0  0  0  0
M  END
>  <MODEL>
8

>  <REMARK>
 VINA RESULT:      -8.3      1.955      2.315
  Name = 
  1 active torsions:
  status: ('A' for Active; 'I' for Inactive)
    1  A    between atoms: C_5  and  C_30
                            x       y       z     vdW  Elec       q    Type
                         _______ _______ _______ _____ _____    ______ ____

>  <TORSDO>
F 1

$$$$
=
 OpenBabel11112416553D

 31 35  0  0  1  0  0  0  0  0999 V2000
  186.0090  178.9160  143.2850 C   0  0  0  0  0  0  0  0  0  0  0  0
  188.7660  176.3570  143.4620 C   0  0  0  0  0  0  0  0  0  0  0  0
  189.3860  176.4930  144.7400 C   0  0  0  0  0  0  0  0  0  0  0  0
  187.8160  174.4660  138.6270 O   0  0  0  0  0  0  0  0  0  0  0  0
  188.7850  173.8430  139.1360 C   0  0  0  0  0  0  0  0  0  0  0  0
  189.6930  177.5360  147.0610 C   0  0  0  0  0  0  0  0  0  0  0  0
  187.6710  177.1480  143.0010 C   0  0  0  0  0  0  0  0  0  0  0  0
  185.5060  178.6660  142.0080 C   0  0  0  0  0  3  0  0  0  0  0  0
  188.9340  177.5180  145.7610 C   0  0  0  0  0  2  0  0  0  0  0  0
  188.7170  175.1710  141.3210 C   0  0  0  0  0  0  0  0  0  0  0  0
  185.4450  179.9110  144.0690 O   0  0  0  0  0  1  0  0  0  0  0  0
  190.8890  174.7180  144.1750 N   0  0  0  0  0  0  0  0  0  0  0  0
  189.3330  178.4300  148.0140 F   0  0  0  0  0  0  0  0  0  0  0  0
  187.6770  175.9430  140.9180 N   0  0  0  0  0  0  0  0  0  0  0  0
  189.2770  175.3610  142.5900 C   0  0  0  0  0  0  0  0  0  0  0  0
  189.2510  174.1580  140.4550 N   0  0  0  0  0  2  0  0  0  0  0  0
  187.0790  178.1640  143.7730 C   0  0  0  0  0  3  0  0  0  0  0  0
  190.7010  176.7030  147.3050 C   0  0  0  0  0  3  0  0  0  0  0  0
  187.1460  176.9080  141.7060 C   0  0  0  0  0  0  0  0  0  0  0  0
  186.0750  177.6650  141.2210 C   0  0  0  0  0  3  0  0  0  0  0  0
  190.3180  174.5820  142.9820 N   0  0  0  0  0  0  0  0  0  0  0  0
  190.4600  175.6440  145.0640 C   0  0  0  0  0  0  0  0  0  0  0  0
  191.1110  175.7450  146.3310 N   0  0  0  0  0  2  0  0  0  0  0  0
  192.1010  172.1280  139.3030 C   0  0  1  0  0  3  0  0  0  0  0  0
  189.7960  171.5460  139.2190 C   0  0  0  0  0  2  0  0  0  0  0  0
  190.4300  174.4090  136.8910 F   0  0  0  0  0  0  0  0  0  0  0  0
  193.3000  172.3030  140.2110 C   0  0  0  0  0  1  0  0  0  0  0  0
  190.9170  171.8510  140.1110 N   0  0  0  0  0  2  0  0  0  0  0  0
  190.6860  173.2330  137.5720 C   0  0  2  0  0  3  0  0  0  0  0  0
  189.4470  172.7550  138.3430 C   0  0  2  0  0  3  0  0  0  0  0  0
  191.8950  173.4030  138.4900 C   0  0  0  0  0  2  0  0  0  0  0  0
  1 17  1  0  0  0  0
  1 11  1  0  0  0  0
  2  3  2  0  0  0  0
  3 22  1  0  0  0  0
  3  9  1  0  0  0  0
  4  5  2  0  0  0  0
  5 16  1  0  0  0  0
  6 18  2  0  0  0  0
  6 13  1  0  0  0  0
  7  2  1  0  0  0  0
  7 17  2  0  0  0  0
  8  1  2  0  0  0  0
  9  6  1  0  0  0  0
 10 15  1  0  0  0  0
 12 22  2  0  0  0  0
 14 10  2  0  0  0  0
 14 19  1  0  0  0  0
 15 21  2  0  0  0  0
 15  2  1  0  0  0  0
 16 10  1  0  0  0  0
 19  7  1  0  0  0  0
 20 19  2  0  0  0  0
 20  8  1  0  0  0  0
 21 12  1  0  0  0  0
 22 23  1  0  0  0  0
 23 18  1  0  0  0  0
 24 28  1  0  0  0  0
 24 27  1  1  0  0  0
 25 28  1  0  0  0  0
 29 26  1  1  0  0  0
 29 30  1  0  0  0  0
 29 31  1  0  0  0  0
 30  5  1  1  0  0  0
 30 25  1  0  0  0  0
 31 24  1  0  0  0  0
M  END
>  <MODEL>
9

>  <REMARK>
 VINA RESULT:      -8.3      4.008      6.115
  Name = 
  1 active torsions:
  status: ('A' for Active; 'I' for Inactive)
    1  A    between atoms: C_5  and  C_30
                            x       y       z     vdW  Elec       q    Type
                         _______ _______ _______ _____ _____    ______ ____

>  <TORSDO>
F 1

$$$$
