=
 OpenBabel11112417313D

 37 42  0  0  1  0  0  0  0  0999 V2000
  189.6250  176.7360  144.9530 C   0  0  1  0  0  3  0  0  0  0  0  0
  192.2080  175.3970  142.9960 C   0  0  0  0  0  2  0  0  0  0  0  0
  187.2590  177.8440  144.9240 C   0  0  2  0  0  3  0  0  0  0  0  0
  189.9520  175.5040  144.1260 C   0  0  2  0  0  3  0  0  0  0  0  0
  188.5160  177.4130  144.1370 C   0  0  2  0  0  3  0  0  0  0  0  0
  191.3940  174.9800  144.2210 C   0  0  2  0  0  3  0  0  0  0  0  0
  187.1040  177.0500  146.2130 C   0  0  0  0  0  2  0  0  0  0  0  0
  188.2610  176.4760  142.9700 C   0  0  0  0  0  2  0  0  0  0  0  0
  190.3900  176.0380  147.2400 C   0  0  0  0  0  2  0  0  0  0  0  0
  188.2940  177.1470  146.9440 O   0  0  0  0  0  0  0  0  0  0  0  0
  191.4480  173.2510  142.0740 O   0  0  0  0  0  0  0  0  0  0  0  0
  192.0310  174.4920  141.7570 C   0  0  1  0  0  3  0  0  0  0  0  0
  189.1770  176.2410  146.3390 C   0  0  1  0  0  3  0  0  0  0  0  0
  189.5210  175.7700  142.7600 N   0  0  2  0  0  0  0  0  0  0  0  0
  192.1100  175.3020  145.5490 C   0  0  1  0  0  3  0  0  0  0  0  0
  190.6500  174.1140  141.2910 C   0  0  2  0  0  3  0  0  0  0  0  0
  189.3840  174.4680  142.0930 C   0  0  2  0  0  3  0  0  0  0  0  0
  191.2740  174.8910  146.7620 C   0  0  0  0  0  2  0  0  0  0  0  0
  194.5880  175.4340  145.8530 C   0  0  0  0  0  3  0  0  0  0  0  0
  193.4570  174.6460  145.6210 C   0  0  0  0  0  0  0  0  0  0  0  0
  193.5980  173.2580  145.4600 C   0  0  0  0  0  3  0  0  0  0  0  0
  195.0020  171.2990  145.3680 O   0  0  0  0  0  1  0  0  0  0  0  0
  195.9920  173.4630  145.7610 C   0  0  0  0  0  3  0  0  0  0  0  0
  194.8650  172.6700  145.5290 C   0  0  0  0  0  0  0  0  0  0  0  0
  195.8540  174.8450  145.9230 C   0  0  0  0  0  3  0  0  0  0  0  0
  188.1840  174.3970  141.1260 C   0  0  0  0  0  2  0  0  0  0  0  0
  188.5590  174.0180  139.7550 N   0  0  0  0  0  0  0  0  0  0  0  0
  189.2090  171.9300  138.6830 C   0  0  0  0  0  1  0  0  0  0  0  0
  188.1410  172.6490  139.4840 C   0  0  0  0  0  2  0  0  0  0  0  0
  187.8900  174.8900  138.7960 C   0  0  0  0  0  2  0  0  0  0  0  0
  187.3280  176.0460  139.4780 N   0  0  0  0  0  2  0  0  0  0  0  0
  186.5970  176.7280  138.5650 O   0  0  0  0  0  1  0  0  0  0  0  0
  186.0910  177.7450  144.1460 O   0  0  0  0  0  0  0  0  0  0  0  0
  185.6660  179.0490  143.8220 C   0  0  0  0  0  0  0  0  0  0  0  0
  185.9280  179.9250  144.8650 F   0  0  0  0  0  0  0  0  0  0  0  0
  186.2860  179.4970  142.6660 F   0  0  0  0  0  0  0  0  0  0  0  0
  184.3030  179.0260  143.6050 F   0  0  0  0  0  0  0  0  0  0  0  0
  1 13  1  0  0  0  0
  2  6  1  0  0  0  0
  3  7  1  0  0  0  0
  4  6  1  0  0  0  0
  4  1  1  0  0  0  0
  5  3  1  0  0  0  0
  5  1  1  0  0  0  0
  6 15  1  0  0  0  0
  7 10  1  0  0  0  0
  8  5  1  0  0  0  0
 12 11  1  0  0  0  0
 12  2  1  0  0  0  0
 13 10  1  0  0  0  0
 13  9  1  0  0  0  0
 14  8  1  0  0  0  0
 14  4  1  0  0  0  0
 15 20  1  0  0  0  0
 15 18  1  0  0  0  0
 16 12  1  0  0  0  0
 16 11  1  0  0  0  0
 16 17  1  0  0  0  0
 17 14  1  0  0  0  0
 18  9  1  0  0  0  0
 19 25  1  0  0  0  0
 20 19  2  0  0  0  0
 21 24  2  0  0  0  0
 21 20  1  0  0  0  0
 22 24  1  0  0  0  0
 23 25  2  0  0  0  0
 24 23  1  0  0  0  0
 26 17  1  0  0  0  0
 27 26  1  0  0  0  0
 28 29  1  0  0  0  0
 29 27  1  0  0  0  0
 30 31  1  0  0  0  0
 30 27  1  0  0  0  0
 32 31  1  0  0  0  0
 33  3  1  0  0  0  0
 34 33  1  0  0  0  0
 34 35  1  0  0  0  0
 36 34  1  0  0  0  0
 37 34  1  0  0  0  0
M  END
>  <MODEL>
1

>  <REMARK>
 VINA RESULT:      -7.4      0.000      0.000
  Name = 
  8 active torsions:
  status: ('A' for Active; 'I' for Inactive)
    1  A    between atoms: C_1  and  N_4
    2  A    between atoms: C_1  and  C_27
    3  A    between atoms: C_2  and  O_22
    4  A    between atoms: N_4  and  C_12
    5  A    between atoms: N_4  and  C_37
    6  A    between atoms: C_6  and  O_22
    7  A    between atoms: N_8  and  C_12
    8  A    between atoms: C_23  and  C_30
                            x       y       z     vdW  Elec       q    Type
                         _______ _______ _______ _____ _____    ______ ____

>  <TORSDO>
F 8

$$$$
=
 OpenBabel11112417313D

 37 42  0  0  1  0  0  0  0  0999 V2000
  191.1400  174.7930  145.4850 C   0  0  1  0  0  3  0  0  0  0  0  0
  188.1370  174.8030  143.6740 C   0  0  0  0  0  2  0  0  0  0  0  0
  193.5300  173.7560  145.6790 C   0  0  2  0  0  3  0  0  0  0  0  0
  190.5710  175.2720  144.1600 C   0  0  2  0  0  3  0  0  0  0  0  0
  192.1170  173.6890  145.0600 C   0  0  2  0  0  3  0  0  0  0  0  0
  189.1400  175.8330  144.1940 C   0  0  2  0  0  3  0  0  0  0  0  0
  193.8720  175.1640  146.1460 C   0  0  0  0  0  2  0  0  0  0  0  0
  192.0730  173.6910  143.5420 C   0  0  0  0  0  2  0  0  0  0  0  0
  190.7820  176.7980  146.9540 C   0  0  0  0  0  2  0  0  0  0  0  0
  192.8560  175.6120  146.9970 O   0  0  0  0  0  0  0  0  0  0  0  0
  188.5470  175.8730  141.5020 O   0  0  0  0  0  0  0  0  0  0  0  0
  188.0060  174.7400  142.1360 C   0  0  1  0  0  3  0  0  0  0  0  0
  191.8090  176.0070  146.1520 C   0  0  1  0  0  3  0  0  0  0  0  0
  190.7480  174.1950  143.1950 N   0  0  2  0  0  0  0  0  0  0  0  0
  188.7190  176.4430  145.5470 C   0  0  1  0  0  3  0  0  0  0  0  0
  189.2400  174.6630  141.2780 C   0  0  2  0  0  3  0  0  0  0  0  0
  190.6590  174.7990  141.8590 C   0  0  2  0  0  3  0  0  0  0  0  0
  189.7410  177.4600  146.0570 C   0  0  0  0  0  2  0  0  0  0  0  0
  186.3430  176.6360  146.3010 C   0  0  0  0  0  3  0  0  0  0  0  0
  187.3670  177.0870  145.4640 C   0  0  0  0  0  0  0  0  0  0  0  0
  187.1160  178.1330  144.5610 C   0  0  0  0  0  3  0  0  0  0  0  0
  185.6000  179.7490  143.6060 O   0  0  0  0  0  1  0  0  0  0  0  0
  184.8270  178.2600  145.3400 C   0  0  0  0  0  3  0  0  0  0  0  0
  185.8470  178.7170  144.5000 C   0  0  0  0  0  0  0  0  0  0  0  0
  185.0750  177.2200  146.2400 C   0  0  0  0  0  3  0  0  0  0  0  0
  191.6410  174.1840  140.8400 C   0  0  0  0  0  2  0  0  0  0  0  0
  191.0230  173.1750  139.9670 N   0  0  0  0  0  0  0  0  0  0  0  0
  190.0910  173.5650  137.7510 C   0  0  0  0  0  1  0  0  0  0  0  0
  191.3580  173.4460  138.5760 C   0  0  0  0  0  2  0  0  0  0  0  0
  191.5310  171.8480  140.3010 C   0  0  0  0  0  2  0  0  0  0  0  0
  190.4250  170.9420  140.5680 N   0  0  0  0  0  2  0  0  0  0  0  0
  190.0850  171.1050  141.8690 O   0  0  0  0  0  1  0  0  0  0  0  0
  194.5160  173.2820  144.7940 O   0  0  0  0  0  0  0  0  0  0  0  0
  195.1440  172.1710  145.3910 C   0  0  0  0  0  0  0  0  0  0  0  0
  194.2500  171.4640  146.1820 F   0  0  0  0  0  0  0  0  0  0  0  0
  195.6830  171.3320  144.4280 F   0  0  0  0  0  0  0  0  0  0  0  0
  196.1710  172.6260  146.1950 F   0  0  0  0  0  0  0  0  0  0  0  0
  1 13  1  0  0  0  0
  2  6  1  0  0  0  0
  3  7  1  0  0  0  0
  4  6  1  0  0  0  0
  4  1  1  0  0  0  0
  5  1  1  0  0  0  0
  5  3  1  0  0  0  0
  6 15  1  0  0  0  0
  7 10  1  0  0  0  0
  8  5  1  0  0  0  0
 11 12  1  0  0  0  0
 12  2  1  0  0  0  0
 13  9  1  0  0  0  0
 13 10  1  0  0  0  0
 14  8  1  0  0  0  0
 14  4  1  0  0  0  0
 15 18  1  0  0  0  0
 16 11  1  0  0  0  0
 16 17  1  0  0  0  0
 16 12  1  0  0  0  0
 17 14  1  0  0  0  0
 18  9  1  0  0  0  0
 20 15  1  0  0  0  0
 20 19  2  0  0  0  0
 21 20  1  0  0  0  0
 22 24  1  0  0  0  0
 23 25  2  0  0  0  0
 24 21  2  0  0  0  0
 24 23  1  0  0  0  0
 25 19  1  0  0  0  0
 26 17  1  0  0  0  0
 27 30  1  0  0  0  0
 27 26  1  0  0  0  0
 28 29  1  0  0  0  0
 29 27  1  0  0  0  0
 30 31  1  0  0  0  0
 31 32  1  0  0  0  0
 33 34  1  0  0  0  0
 33  3  1  0  0  0  0
 34 35  1  0  0  0  0
 34 37  1  0  0  0  0
 36 34  1  0  0  0  0
M  END
>  <MODEL>
2

>  <REMARK>
 VINA RESULT:      -7.3      3.962      7.132
  Name = 
  8 active torsions:
  status: ('A' for Active; 'I' for Inactive)
    1  A    between atoms: C_1  and  N_4
    2  A    between atoms: C_1  and  C_27
    3  A    between atoms: C_2  and  O_22
    4  A    between atoms: N_4  and  C_12
    5  A    between atoms: N_4  and  C_37
    6  A    between atoms: C_6  and  O_22
    7  A    between atoms: N_8  and  C_12
    8  A    between atoms: C_23  and  C_30
                            x       y       z     vdW  Elec       q    Type
                         _______ _______ _______ _____ _____    ______ ____

>  <TORSDO>
F 8

$$$$
=
 OpenBabel11112417313D

 37 42  0  0  1  0  0  0  0  0999 V2000
  190.5970  175.7050  144.7290 C   0  0  1  0  0  3  0  0  0  0  0  0
  188.9590  176.4390  141.7170 C   0  0  0  0  0  2  0  0  0  0  0  0
  191.1710  176.5640  147.1280 C   0  0  2  0  0  3  0  0  0  0  0  0
  189.1960  175.8010  144.1490 C   0  0  2  0  0  3  0  0  0  0  0  0
  190.6430  176.8820  145.7130 C   0  0  2  0  0  3  0  0  0  0  0  0
  189.0140  175.2810  142.7130 C   0  0  2  0  0  3  0  0  0  0  0  0
  191.0320  175.0860  147.4610 C   0  0  0  0  0  2  0  0  0  0  0  0
  189.2520  177.4890  145.6610 C   0  0  0  0  0  2  0  0  0  0  0  0
  191.1420  173.2820  144.3620 C   0  0  0  0  0  2  0  0  0  0  0  0
  191.6400  174.3390  146.4460 O   0  0  0  0  0  0  0  0  0  0  0  0
  186.5360  176.3280  142.1060 O   0  0  0  0  0  0  0  0  0  0  0  0
  187.5760  177.1150  141.5780 C   0  0  1  0  0  3  0  0  0  0  0  0
  190.7160  174.3220  145.3920 C   0  0  1  0  0  3  0  0  0  0  0  0
  188.7430  177.1740  144.3300 N   0  0  2  0  0  0  0  0  0  0  0  0
  190.0120  174.1830  142.2950 C   0  0  1  0  0  3  0  0  0  0  0  0
  186.8110  177.5230  142.8080 C   0  0  2  0  0  3  0  0  0  0  0  0
  187.2770  177.1570  144.2290 C   0  0  2  0  0  3  0  0  0  0  0  0
  190.0630  173.0400  143.3110 C   0  0  0  0  0  2  0  0  0  0  0  0
  188.4000  173.1500  140.6860 C   0  0  0  0  0  3  0  0  0  0  0  0
  189.6880  173.6330  140.9370 C   0  0  0  0  0  0  0  0  0  0  0  0
  190.6540  173.5970  139.9190 C   0  0  0  0  0  3  0  0  0  0  0  0
  191.2870  173.0410  137.6580 O   0  0  0  0  0  1  0  0  0  0  0  0
  189.0410  172.5950  138.4170 C   0  0  0  0  0  3  0  0  0  0  0  0
  190.3300  173.0770  138.6620 C   0  0  0  0  0  0  0  0  0  0  0  0
  188.0760  172.6310  139.4290 C   0  0  0  0  0  3  0  0  0  0  0  0
  186.5830  178.1240  145.2100 C   0  0  0  0  0  2  0  0  0  0  0  0
  185.4080  177.5400  145.8750 N   0  0  0  0  0  0  0  0  0  0  0  0
  186.4160  178.4130  147.9140 C   0  0  0  0  0  1  0  0  0  0  0  0
  185.7230  177.2310  147.2640 C   0  0  0  0  0  2  0  0  0  0  0  0
  184.3040  178.4950  145.8670 C   0  0  0  0  0  2  0  0  0  0  0  0
  184.4150  179.3760  144.7150 N   0  0  0  0  0  2  0  0  0  0  0  0
  183.5360  178.9270  143.7880 O   0  0  0  0  0  1  0  0  0  0  0  0
  190.5430  177.3490  148.1130 O   0  0  0  0  0  0  0  0  0  0  0  0
  191.5150  177.7250  149.0610 C   0  0  0  0  0  0  0  0  0  0  0  0
  191.2250  178.9720  149.5960 F   0  0  0  0  0  0  0  0  0  0  0  0
  191.6030  176.7870  150.0780 F   0  0  0  0  0  0  0  0  0  0  0  0
  192.7410  177.7970  148.4290 F   0  0  0  0  0  0  0  0  0  0  0  0
  1 13  1  0  0  0  0
  1  5  1  0  0  0  0
  2  6  1  0  0  0  0
  3  7  1  0  0  0  0
  3 33  1  0  0  0  0
  4 14  1  0  0  0  0
  4  1  1  0  0  0  0
  5  3  1  0  0  0  0
  6  4  1  0  0  0  0
  8  5  1  0  0  0  0
  9 13  1  0  0  0  0
 10  7  1  0  0  0  0
 11 16  1  0  0  0  0
 12  2  1  0  0  0  0
 12 11  1  0  0  0  0
 12 16  1  0  0  0  0
 13 10  1  0  0  0  0
 14  8  1  0  0  0  0
 15  6  1  0  0  0  0
 15 18  1  0  0  0  0
 16 17  1  0  0  0  0
 17 14  1  0  0  0  0
 17 26  1  0  0  0  0
 18  9  1  0  0  0  0
 19 20  1  0  0  0  0
 20 15  1  0  0  0  0
 21 20  2  0  0  0  0
 22 24  1  0  0  0  0
 23 24  2  0  0  0  0
 23 25  1  0  0  0  0
 24 21  1  0  0  0  0
 25 19  2  0  0  0  0
 26 27  1  0  0  0  0
 27 29  1  0  0  0  0
 29 28  1  0  0  0  0
 30 27  1  0  0  0  0
 31 30  1  0  0  0  0
 32 31  1  0  0  0  0
 33 34  1  0  0  0  0
 34 35  1  0  0  0  0
 34 36  1  0  0  0  0
 37 34  1  0  0  0  0
M  END
>  <MODEL>
3

>  <REMARK>
 VINA RESULT:      -7.1      3.578      6.550
  Name = 
  8 active torsions:
  status: ('A' for Active; 'I' for Inactive)
    1  A    between atoms: C_1  and  N_4
    2  A    between atoms: C_1  and  C_27
    3  A    between atoms: C_2  and  O_22
    4  A    between atoms: N_4  and  C_12
    5  A    between atoms: N_4  and  C_37
    6  A    between atoms: C_6  and  O_22
    7  A    between atoms: N_8  and  C_12
    8  A    between atoms: C_23  and  C_30
                            x       y       z     vdW  Elec       q    Type
                         _______ _______ _______ _____ _____    ______ ____

>  <TORSDO>
F 8

$$$$
=
 OpenBabel11112417313D

 37 42  0  0  1  0  0  0  0  0999 V2000
  189.9630  176.6260  145.0740 C   0  0  1  0  0  3  0  0  0  0  0  0
  192.6730  175.5580  143.1200 C   0  0  0  0  0  2  0  0  0  0  0  0
  187.5880  177.7130  145.0440 C   0  0  2  0  0  3  0  0  0  0  0  0
  190.3540  175.5090  144.1200 C   0  0  2  0  0  3  0  0  0  0  0  0
  188.8930  177.3930  144.2840 C   0  0  2  0  0  3  0  0  0  0  0  0
  191.7960  174.9860  144.2340 C   0  0  2  0  0  3  0  0  0  0  0  0
  187.3710  176.7640  146.2130 C   0  0  0  0  0  2  0  0  0  0  0  0
  188.7190  176.6060  142.9970 C   0  0  0  0  0  2  0  0  0  0  0  0
  190.6050  175.6530  147.2970 C   0  0  0  0  0  2  0  0  0  0  0  0
  188.5150  176.7770  147.0180 O   0  0  0  0  0  0  0  0  0  0  0  0
  191.9960  173.5390  141.8960 O   0  0  0  0  0  0  0  0  0  0  0  0
  192.5790  174.8140  141.7700 C   0  0  1  0  0  3  0  0  0  0  0  0
  189.4440  175.9590  146.3590 C   0  0  1  0  0  3  0  0  0  0  0  0
  189.9990  175.9400  142.7750 N   0  0  2  0  0  0  0  0  0  0  0  0
  192.4290  175.1450  145.6310 C   0  0  1  0  0  3  0  0  0  0  0  0
  191.2320  174.4880  141.1810 C   0  0  2  0  0  3  0  0  0  0  0  0
  189.9170  174.7310  141.9450 C   0  0  2  0  0  3  0  0  0  0  0  0
  191.5310  174.5800  146.7320 C   0  0  0  0  0  2  0  0  0  0  0  0
  194.9080  175.2860  145.9290 C   0  0  0  0  0  3  0  0  0  0  0  0
  193.7790  174.4930  145.7000 C   0  0  0  0  0  0  0  0  0  0  0  0
  193.9250  173.1060  145.5390 C   0  0  0  0  0  3  0  0  0  0  0  0
  195.3360  171.1520  145.4440 O   0  0  0  0  0  1  0  0  0  0  0  0
  196.3190  173.3200  145.8340 C   0  0  0  0  0  3  0  0  0  0  0  0
  195.1940  172.5220  145.6050 C   0  0  0  0  0  0  0  0  0  0  0  0
  196.1760  174.7010  145.9960 C   0  0  0  0  0  3  0  0  0  0  0  0
  188.7770  174.7730  140.9070 C   0  0  0  0  0  2  0  0  0  0  0  0
  187.9800  173.5380  140.8620 N   0  0  0  0  0  0  0  0  0  0  0  0
  188.4740  173.7530  138.4860 C   0  0  0  0  0  1  0  0  0  0  0  0
  188.2820  172.7940  139.6460 C   0  0  0  0  0  2  0  0  0  0  0  0
  188.3120  172.6880  142.0010 C   0  0  0  0  0  2  0  0  0  0  0  0
  189.1780  171.5990  141.5770 N   0  0  0  0  0  2  0  0  0  0  0  0
  189.8650  171.1910  142.6700 O   0  0  0  0  0  1  0  0  0  0  0  0
  186.4680  177.7050  144.1920 O   0  0  0  0  0  0  0  0  0  0  0  0
  185.7490  178.8980  144.4000 C   0  0  0  0  0  0  0  0  0  0  0  0
  186.1310  179.5050  145.5870 F   0  0  0  0  0  0  0  0  0  0  0  0
  185.9350  179.7770  143.3440 F   0  0  0  0  0  0  0  0  0  0  0  0
  184.4040  178.5940  144.4790 F   0  0  0  0  0  0  0  0  0  0  0  0
  1 13  1  0  0  0  0
  2  6  1  0  0  0  0
  3  7  1  0  0  0  0
  4  6  1  0  0  0  0
  4  1  1  0  0  0  0
  5  3  1  0  0  0  0
  5  1  1  0  0  0  0
  6 15  1  0  0  0  0
  7 10  1  0  0  0  0
  8  5  1  0  0  0  0
 12 11  1  0  0  0  0
 12  2  1  0  0  0  0
 13 10  1  0  0  0  0
 13  9  1  0  0  0  0
 14  8  1  0  0  0  0
 14  4  1  0  0  0  0
 15 20  1  0  0  0  0
 15 18  1  0  0  0  0
 16 12  1  0  0  0  0
 16 11  1  0  0  0  0
 16 17  1  0  0  0  0
 17 14  1  0  0  0  0
 18  9  1  0  0  0  0
 19 25  1  0  0  0  0
 20 19  2  0  0  0  0
 21 24  2  0  0  0  0
 21 20  1  0  0  0  0
 22 24  1  0  0  0  0
 23 25  2  0  0  0  0
 24 23  1  0  0  0  0
 26 17  1  0  0  0  0
 27 26  1  0  0  0  0
 27 30  1  0  0  0  0
 28 29  1  0  0  0  0
 29 27  1  0  0  0  0
 31 30  1  0  0  0  0
 31 32  1  0  0  0  0
 33 34  1  0  0  0  0
 33  3  1  0  0  0  0
 34 37  1  0  0  0  0
 34 35  1  0  0  0  0
 36 34  1  0  0  0  0
M  END
>  <MODEL>
4

>  <REMARK>
 VINA RESULT:      -7.1      1.229      1.766
  Name = 
  8 active torsions:
  status: ('A' for Active; 'I' for Inactive)
    1  A    between atoms: C_1  and  N_4
    2  A    between atoms: C_1  and  C_27
    3  A    between atoms: C_2  and  O_22
    4  A    between atoms: N_4  and  C_12
    5  A    between atoms: N_4  and  C_37
    6  A    between atoms: C_6  and  O_22
    7  A    between atoms: N_8  and  C_12
    8  A    between atoms: C_23  and  C_30
                            x       y       z     vdW  Elec       q    Type
                         _______ _______ _______ _____ _____    ______ ____

>  <TORSDO>
F 8

$$$$
=
 OpenBabel11112417313D

 37 42  0  0  1  0  0  0  0  0999 V2000
  191.7800  175.4010  144.0120 C   0  0  1  0  0  3  0  0  0  0  0  0
  188.5490  174.6150  142.8990 C   0  0  0  0  0  2  0  0  0  0  0  0
  194.2420  174.5550  144.2340 C   0  0  2  0  0  3  0  0  0  0  0  0
  190.9870  175.2520  142.7240 C   0  0  2  0  0  3  0  0  0  0  0  0
  192.7620  174.2230  143.9480 C   0  0  2  0  0  3  0  0  0  0  0  0
  189.5390  175.7700  142.7500 C   0  0  2  0  0  3  0  0  0  0  0  0
  194.5460  176.0260  143.9850 C   0  0  0  0  0  2  0  0  0  0  0  0
  192.4920  173.5610  142.6080 C   0  0  0  0  0  2  0  0  0  0  0  0
  191.4990  177.8450  144.5100 C   0  0  0  0  0  2  0  0  0  0  0  0
  193.6370  176.8000  144.7160 O   0  0  0  0  0  0  0  0  0  0  0  0
  188.5520  174.6290  140.4430 O   0  0  0  0  0  0  0  0  0  0  0  0
  188.1950  173.8860  141.5840 C   0  0  1  0  0  3  0  0  0  0  0  0
  192.4500  176.7850  143.9700 C   0  0  1  0  0  3  0  0  0  0  0  0
  191.0970  173.8620  142.3030 N   0  0  2  0  0  0  0  0  0  0  0  0
  189.2810  176.9090  143.7570 C   0  0  1  0  0  3  0  0  0  0  0  0
  189.2900  173.4430  140.6510 C   0  0  2  0  0  3  0  0  0  0  0  0
  190.7660  173.8210  140.8720 C   0  0  2  0  0  3  0  0  0  0  0  0
  190.2900  178.0480  143.6020 C   0  0  0  0  0  2  0  0  0  0  0  0
  187.5060  178.0810  142.4410 C   0  0  0  0  0  3  0  0  0  0  0  0
  187.8880  177.4510  143.6300 C   0  0  0  0  0  0  0  0  0  0  0  0
  186.9650  177.3360  144.6820 C   0  0  0  0  0  3  0  0  0  0  0  0
  184.7630  177.7390  145.5820 O   0  0  0  0  0  1  0  0  0  0  0  0
  185.2980  178.4810  143.3500 C   0  0  0  0  0  3  0  0  0  0  0  0
  185.6730  177.8520  144.5400 C   0  0  0  0  0  0  0  0  0  0  0  0
  186.2150  178.5950  142.3000 C   0  0  0  0  0  3  0  0  0  0  0  0
  191.6280  172.8230  140.0710 C   0  0  0  0  0  2  0  0  0  0  0  0
  191.0100  171.4960  139.9320 N   0  0  0  0  0  0  0  0  0  0  0  0
  189.6910  170.6290  138.0770 C   0  0  0  0  0  1  0  0  0  0  0  0
  191.0680  171.0620  138.5420 C   0  0  0  0  0  2  0  0  0  0  0  0
  191.7380  170.5200  140.7370 C   0  0  0  0  0  2  0  0  0  0  0  0
  190.8070  169.7440  141.5430 N   0  0  0  0  0  2  0  0  0  0  0  0
  190.2030  170.6090  142.3920 O   0  0  0  0  0  1  0  0  0  0  0  0
  195.1170  173.7430  143.4910 O   0  0  0  0  0  0  0  0  0  0  0  0
  196.1000  173.2400  144.3660 C   0  0  0  0  0  0  0  0  0  0  0  0
  197.2800  173.9590  144.2470 F   0  0  0  0  0  0  0  0  0  0  0  0
  195.6580  173.2780  145.6790 F   0  0  0  0  0  0  0  0  0  0  0  0
  196.3560  171.9250  144.0310 F   0  0  0  0  0  0  0  0  0  0  0  0
  4  6  1  0  0  0  0
  4  1  1  0  0  0  0
  5  1  1  0  0  0  0
  5  3  1  0  0  0  0
  6  2  1  0  0  0  0
  6 15  1  0  0  0  0
  7  3  1  0  0  0  0
  7 10  1  0  0  0  0
  8  5  1  0  0  0  0
 11 16  1  0  0  0  0
 11 12  1  0  0  0  0
 12  2  1  0  0  0  0
 13  1  1  0  0  0  0
 13  9  1  0  0  0  0
 13 10  1  0  0  0  0
 14  8  1  0  0  0  0
 14  4  1  0  0  0  0
 16 17  1  0  0  0  0
 16 12  1  0  0  0  0
 17 14  1  0  0  0  0
 18 15  1  0  0  0  0
 18  9  1  0  0  0  0
 19 20  1  0  0  0  0
 20 15  1  0  0  0  0
 20 21  2  0  0  0  0
 23 24  2  0  0  0  0
 24 21  1  0  0  0  0
 24 22  1  0  0  0  0
 25 19  2  0  0  0  0
 25 23  1  0  0  0  0
 26 17  1  0  0  0  0
 27 26  1  0  0  0  0
 27 30  1  0  0  0  0
 28 29  1  0  0  0  0
 29 27  1  0  0  0  0
 30 31  1  0  0  0  0
 31 32  1  0  0  0  0
 33  3  1  0  0  0  0
 33 34  1  0  0  0  0
 34 36  1  0  0  0  0
 35 34  1  0  0  0  0
 37 34  1  0  0  0  0
M  END
>  <MODEL>
5

>  <REMARK>
 VINA RESULT:      -6.7      4.096      7.315
  Name = 
  8 active torsions:
  status: ('A' for Active; 'I' for Inactive)
    1  A    between atoms: C_1  and  N_4
    2  A    between atoms: C_1  and  C_27
    3  A    between atoms: C_2  and  O_22
    4  A    between atoms: N_4  and  C_12
    5  A    between atoms: N_4  and  C_37
    6  A    between atoms: C_6  and  O_22
    7  A    between atoms: N_8  and  C_12
    8  A    between atoms: C_23  and  C_30
                            x       y       z     vdW  Elec       q    Type
                         _______ _______ _______ _____ _____    ______ ____

>  <TORSDO>
F 8

$$$$
=
 OpenBabel11112417313D

 37 42  0  0  1  0  0  0  0  0999 V2000
  191.2700  175.7080  144.1020 C   0  0  1  0  0  3  0  0  0  0  0  0
  188.2480  174.5200  142.7780 C   0  0  0  0  0  2  0  0  0  0  0  0
  193.6600  175.0520  144.9270 C   0  0  2  0  0  3  0  0  0  0  0  0
  190.6870  175.1740  142.8040 C   0  0  2  0  0  3  0  0  0  0  0  0
  192.2410  174.5970  144.5250 C   0  0  2  0  0  3  0  0  0  0  0  0
  189.2570  175.6230  142.4610 C   0  0  2  0  0  3  0  0  0  0  0  0
  194.0100  176.4040  144.3220 C   0  0  0  0  0  2  0  0  0  0  0  0
  192.1800  173.5770  143.4020 C   0  0  0  0  0  2  0  0  0  0  0  0
  190.9310  178.1810  143.8400 C   0  0  0  0  0  2  0  0  0  0  0  0
  193.0030  177.3170  144.6560 O   0  0  0  0  0  0  0  0  0  0  0  0
  188.6360  173.8450  140.4490 O   0  0  0  0  0  0  0  0  0  0  0  0
  188.1000  173.4390  141.6850 C   0  0  1  0  0  3  0  0  0  0  0  0
  191.9480  177.0480  143.7730 C   0  0  1  0  0  3  0  0  0  0  0  0
  190.8520  173.7270  142.8150 N   0  0  2  0  0  0  0  0  0  0  0  0
  188.8520  176.9890  143.0540 C   0  0  1  0  0  3  0  0  0  0  0  0
  189.3240  172.7930  141.0930 C   0  0  2  0  0  3  0  0  0  0  0  0
  190.7500  173.2740  141.4210 C   0  0  2  0  0  3  0  0  0  0  0  0
  189.8810  178.0760  142.7380 C   0  0  0  0  0  2  0  0  0  0  0  0
  187.2710  177.5240  141.1920 C   0  0  0  0  0  3  0  0  0  0  0  0
  187.5000  177.4200  142.5670 C   0  0  0  0  0  0  0  0  0  0  0  0
  186.4660  177.7200  143.4690 C   0  0  0  0  0  3  0  0  0  0  0  0
  184.1950  178.4210  143.8840 O   0  0  0  0  0  1  0  0  0  0  0  0
  184.9920  178.2260  141.6150 C   0  0  0  0  0  3  0  0  0  0  0  0
  185.2150  178.1230  142.9910 C   0  0  0  0  0  0  0  0  0  0  0  0
  186.0200  177.9260  140.7160 C   0  0  0  0  0  3  0  0  0  0  0  0
  191.7200  172.1250  141.0760 C   0  0  0  0  0  2  0  0  0  0  0  0
  192.5140  172.3730  139.8630 N   0  0  0  0  0  0  0  0  0  0  0  0
  192.1900  172.6630  137.4670 C   0  0  0  0  0  1  0  0  0  0  0  0
  191.8150  171.8560  138.6940 C   0  0  0  0  0  2  0  0  0  0  0  0
  192.7010  173.8080  139.6750 C   0  0  0  0  0  2  0  0  0  0  0  0
  194.0040  174.2130  140.1810 N   0  0  0  0  0  2  0  0  0  0  0  0
  193.8080  175.3160  140.9420 O   0  0  0  0  0  1  0  0  0  0  0  0
  194.6350  174.0970  144.5860 O   0  0  0  0  0  0  0  0  0  0  0  0
  195.7180  174.2370  145.4770 C   0  0  0  0  0  0  0  0  0  0  0  0
  196.1110  173.0020  145.9730 F   0  0  0  0  0  0  0  0  0  0  0  0
  196.7910  174.8560  144.8560 F   0  0  0  0  0  0  0  0  0  0  0  0
  195.3160  175.0240  146.5380 F   0  0  0  0  0  0  0  0  0  0  0  0
  1  5  1  0  0  0  0
  4 14  1  0  0  0  0
  4  1  1  0  0  0  0
  5  3  1  0  0  0  0
  6  2  1  0  0  0  0
  6  4  1  0  0  0  0
  6 15  1  0  0  0  0
  7 10  1  0  0  0  0
  7  3  1  0  0  0  0
  8  5  1  0  0  0  0
 11 16  1  0  0  0  0
 11 12  1  0  0  0  0
 12  2  1  0  0  0  0
 13  9  1  0  0  0  0
 13  1  1  0  0  0  0
 13 10  1  0  0  0  0
 14  8  1  0  0  0  0
 16 17  1  0  0  0  0
 16 12  1  0  0  0  0
 17 14  1  0  0  0  0
 18 15  1  0  0  0  0
 18  9  1  0  0  0  0
 19 20  1  0  0  0  0
 20 15  1  0  0  0  0
 20 21  2  0  0  0  0
 23 24  2  0  0  0  0
 24 21  1  0  0  0  0
 24 22  1  0  0  0  0
 25 19  2  0  0  0  0
 25 23  1  0  0  0  0
 26 17  1  0  0  0  0
 27 26  1  0  0  0  0
 28 29  1  0  0  0  0
 29 27  1  0  0  0  0
 30 27  1  0  0  0  0
 30 31  1  0  0  0  0
 31 32  1  0  0  0  0
 33  3  1  0  0  0  0
 33 34  1  0  0  0  0
 34 35  1  0  0  0  0
 34 37  1  0  0  0  0
 36 34  1  0  0  0  0
M  END
>  <MODEL>
6

>  <REMARK>
 VINA RESULT:      -6.7      4.045      7.295
  Name = 
  8 active torsions:
  status: ('A' for Active; 'I' for Inactive)
    1  A    between atoms: C_1  and  N_4
    2  A    between atoms: C_1  and  C_27
    3  A    between atoms: C_2  and  O_22
    4  A    between atoms: N_4  and  C_12
    5  A    between atoms: N_4  and  C_37
    6  A    between atoms: C_6  and  O_22
    7  A    between atoms: N_8  and  C_12
    8  A    between atoms: C_23  and  C_30
                            x       y       z     vdW  Elec       q    Type
                         _______ _______ _______ _____ _____    ______ ____

>  <TORSDO>
F 8

$$$$
=
 OpenBabel11112417313D

 37 42  0  0  1  0  0  0  0  0999 V2000
  190.0870  174.2520  141.2930 C   0  0  1  0  0  3  0  0  0  0  0  0
  189.4440  177.5170  142.4000 C   0  0  0  0  0  2  0  0  0  0  0  0
  191.9370  172.5440  140.5980 C   0  0  2  0  0  3  0  0  0  0  0  0
  190.2090  175.1140  142.5390 C   0  0  2  0  0  3  0  0  0  0  0  0
  191.5510  174.0080  140.9010 C   0  0  2  0  0  3  0  0  0  0  0  0
  189.0550  176.0960  142.8050 C   0  0  2  0  0  3  0  0  0  0  0  0
  190.9800  171.5620  141.2580 C   0  0  0  0  0  2  0  0  0  0  0  0
  192.3650  174.6810  141.9920 C   0  0  0  0  0  2  0  0  0  0  0  0
  187.8180  173.2220  141.5980 C   0  0  0  0  0  2  0  0  0  0  0  0
  189.6720  171.8940  140.8870 O   0  0  0  0  0  0  0  0  0  0  0  0
  190.1960  177.7070  144.7290 O   0  0  0  0  0  0  0  0  0  0  0  0
  190.2630  178.2950  143.4530 C   0  0  1  0  0  3  0  0  0  0  0  0
  189.3200  172.9820  141.6970 C   0  0  1  0  0  3  0  0  0  0  0  0
  191.5160  175.7540  142.5000 N   0  0  2  0  0  0  0  0  0  0  0  0
  187.6940  175.6620  142.2250 C   0  0  1  0  0  3  0  0  0  0  0  0
  191.4600  177.6530  144.1010 C   0  0  2  0  0  3  0  0  0  0  0  0
  191.8280  176.1750  143.8730 C   0  0  2  0  0  3  0  0  0  0  0  0
  187.3290  174.2330  142.6310 C   0  0  0  0  0  2  0  0  0  0  0  0
  185.9430  177.3580  141.6650 C   0  0  0  0  0  3  0  0  0  0  0  0
  186.5960  176.5970  142.6390 C   0  0  0  0  0  0  0  0  0  0  0  0
  186.2160  176.7190  143.9860 C   0  0  0  0  0  3  0  0  0  0  0  0
  184.8190  177.7200  145.6790 O   0  0  0  0  0  1  0  0  0  0  0  0
  184.5430  178.3570  143.3690 C   0  0  0  0  0  3  0  0  0  0  0  0
  185.1910  177.5990  144.3480 C   0  0  0  0  0  0  0  0  0  0  0  0
  184.9190  178.2360  142.0270 C   0  0  0  0  0  3  0  0  0  0  0  0
  193.3140  176.0020  144.2470 C   0  0  0  0  0  2  0  0  0  0  0  0
  193.5190  175.3410  145.5440 N   0  0  0  0  0  0  0  0  0  0  0  0
  194.7530  177.4290  145.7680 C   0  0  0  0  0  1  0  0  0  0  0  0
  194.0800  176.2850  146.5020 C   0  0  0  0  0  2  0  0  0  0  0  0
  192.2410  174.8730  146.0720 C   0  0  0  0  0  2  0  0  0  0  0  0
  191.9410  175.5480  147.3260 N   0  0  0  0  0  2  0  0  0  0  0  0
  190.6380  175.3060  147.6030 O   0  0  0  0  0  1  0  0  0  0  0  0
  193.2630  172.2610  140.9730 O   0  0  0  0  0  0  0  0  0  0  0  0
  194.0470  172.1990  139.8030 C   0  0  0  0  0  0  0  0  0  0  0  0
  194.7390  173.3860  139.6100 F   0  0  0  0  0  0  0  0  0  0  0  0
  194.9400  171.1400  139.8630 F   0  0  0  0  0  0  0  0  0  0  0  0
  193.2100  172.0030  138.7230 F   0  0  0  0  0  0  0  0  0  0  0  0
  1 13  1  0  0  0  0
  1  4  1  0  0  0  0
  2  6  1  0  0  0  0
  2 12  1  0  0  0  0
  3  5  1  0  0  0  0
  3 33  1  0  0  0  0
  3  7  1  0  0  0  0
  4  6  1  0  0  0  0
  5  1  1  0  0  0  0
  5  8  1  0  0  0  0
  8 14  1  0  0  0  0
  9 13  1  0  0  0  0
  9 18  1  0  0  0  0
 10  7  1  0  0  0  0
 10 13  1  0  0  0  0
 12 16  1  0  0  0  0
 12 11  1  0  0  0  0
 14  4  1  0  0  0  0
 14 17  1  0  0  0  0
 15 18  1  0  0  0  0
 15 20  1  0  0  0  0
 15  6  1  0  0  0  0
 16 11  1  0  0  0  0
 17 16  1  0  0  0  0
 17 26  1  0  0  0  0
 19 25  2  0  0  0  0
 19 20  1  0  0  0  0
 20 21  2  0  0  0  0
 21 24  1  0  0  0  0
 23 24  2  0  0  0  0
 24 22  1  0  0  0  0
 25 23  1  0  0  0  0
 26 27  1  0  0  0  0
 27 30  1  0  0  0  0
 27 29  1  0  0  0  0
 28 29  1  0  0  0  0
 30 31  1  0  0  0  0
 31 32  1  0  0  0  0
 34 36  1  0  0  0  0
 34 33  1  0  0  0  0
 35 34  1  0  0  0  0
 37 34  1  0  0  0  0
M  END
>  <MODEL>
7

>  <REMARK>
 VINA RESULT:      -6.6      4.227      8.326
  Name = 
  8 active torsions:
  status: ('A' for Active; 'I' for Inactive)
    1  A    between atoms: C_1  and  N_4
    2  A    between atoms: C_1  and  C_27
    3  A    between atoms: C_2  and  O_22
    4  A    between atoms: N_4  and  C_12
    5  A    between atoms: N_4  and  C_37
    6  A    between atoms: C_6  and  O_22
    7  A    between atoms: N_8  and  C_12
    8  A    between atoms: C_23  and  C_30
                            x       y       z     vdW  Elec       q    Type
                         _______ _______ _______ _____ _____    ______ ____

>  <TORSDO>
F 8

$$$$
=
 OpenBabel11112417313D

 37 42  0  0  1  0  0  0  0  0999 V2000
  186.7370  176.4760  142.7200 C   0  0  1  0  0  3  0  0  0  0  0  0
  188.8980  173.7600  142.2170 C   0  0  0  0  0  2  0  0  0  0  0  0
  185.7600  178.1500  144.4710 C   0  0  2  0  0  3  0  0  0  0  0  0
  188.2210  176.1550  142.6480 C   0  0  2  0  0  3  0  0  0  0  0  0
  186.5370  176.8450  144.1960 C   0  0  2  0  0  3  0  0  0  0  0  0
  188.6460  175.1280  141.5850 C   0  0  2  0  0  3  0  0  0  0  0  0
  185.8130  179.0970  143.2810 C   0  0  0  0  0  2  0  0  0  0  0  0
  187.9250  176.7750  144.8080 C   0  0  0  0  0  2  0  0  0  0  0  0
  186.2250  177.0860  140.3390 C   0  0  0  0  0  2  0  0  0  0  0  0
  185.3820  178.4070  142.1410 O   0  0  0  0  0  0  0  0  0  0  0  0
  191.2090  174.5610  142.4270 O   0  0  0  0  0  0  0  0  0  0  0  0
  190.2940  173.5820  142.8540 C   0  0  1  0  0  3  0  0  0  0  0  0
  186.4780  177.6320  141.7390 C   0  0  1  0  0  3  0  0  0  0  0  0
  188.6580  175.8100  143.9930 N   0  0  2  0  0  0  0  0  0  0  0  0
  187.7200  175.0540  140.3540 C   0  0  1  0  0  3  0  0  0  0  0  0
  190.8350  174.6330  143.7870 C   0  0  2  0  0  3  0  0  0  0  0  0
  190.1180  175.9740  144.0240 C   0  0  2  0  0  3  0  0  0  0  0  0
  187.4700  176.4340  139.7440 C   0  0  0  0  0  2  0  0  0  0  0  0
  188.5440  172.8030  139.6400 C   0  0  0  0  0  3  0  0  0  0  0  0
  188.2710  174.1330  139.3050 C   0  0  0  0  0  0  0  0  0  0  0  0
  188.5140  174.5850  137.9980 C   0  0  0  0  0  3  0  0  0  0  0  0
  189.2730  174.1580  135.7480 O   0  0  0  0  0  1  0  0  0  0  0  0
  189.3020  172.3810  137.3790 C   0  0  0  0  0  3  0  0  0  0  0  0
  189.0300  173.7090  137.0380 C   0  0  0  0  0  0  0  0  0  0  0  0
  189.0590  171.9280  138.6800 C   0  0  0  0  0  3  0  0  0  0  0  0
  190.6420  176.5540  145.3540 C   0  0  0  0  0  2  0  0  0  0  0  0
  191.6980  175.7390  145.9720 N   0  0  0  0  0  0  0  0  0  0  0  0
  194.1120  175.5650  146.2490 C   0  0  0  0  0  1  0  0  0  0  0  0
  192.9360  176.5030  146.0530 C   0  0  0  0  0  2  0  0  0  0  0  0
  191.3110  175.3670  147.3290 C   0  0  0  0  0  2  0  0  0  0  0  0
  189.9190  175.7190  147.5660 N   0  0  0  0  0  2  0  0  0  0  0  0
  189.2240  174.5590  147.6380 O   0  0  0  0  0  1  0  0  0  0  0  0
  186.2160  178.8000  145.6330 O   0  0  0  0  0  0  0  0  0  0  0  0
  185.2440  178.6340  146.6390 C   0  0  0  0  0  0  0  0  0  0  0  0
  185.1470  177.3030  147.0170 F   0  0  0  0  0  0  0  0  0  0  0  0
  185.5420  179.4150  147.7460 F   0  0  0  0  0  0  0  0  0  0  0  0
  184.0210  179.0360  146.1400 F   0  0  0  0  0  0  0  0  0  0  0  0
  1  5  1  0  0  0  0
  2 12  1  0  0  0  0
  3 33  1  0  0  0  0
  4  1  1  0  0  0  0
  4 14  1  0  0  0  0
  5  3  1  0  0  0  0
  5  8  1  0  0  0  0
  6  2  1  0  0  0  0
  6  4  1  0  0  0  0
  7  3  1  0  0  0  0
  9 13  1  0  0  0  0
 10  7  1  0  0  0  0
 11 12  1  0  0  0  0
 11 16  1  0  0  0  0
 12 16  1  0  0  0  0
 13 10  1  0  0  0  0
 13  1  1  0  0  0  0
 14 17  1  0  0  0  0
 14  8  1  0  0  0  0
 15  6  1  0  0  0  0
 16 17  1  0  0  0  0
 17 26  1  0  0  0  0
 18  9  1  0  0  0  0
 18 15  1  0  0  0  0
 20 19  1  0  0  0  0
 20 15  1  0  0  0  0
 21 20  2  0  0  0  0
 22 24  1  0  0  0  0
 23 25  1  0  0  0  0
 24 23  2  0  0  0  0
 24 21  1  0  0  0  0
 25 19  2  0  0  0  0
 26 27  1  0  0  0  0
 27 29  1  0  0  0  0
 27 30  1  0  0  0  0
 29 28  1  0  0  0  0
 30 31  1  0  0  0  0
 31 32  1  0  0  0  0
 33 34  1  0  0  0  0
 34 35  1  0  0  0  0
 34 36  1  0  0  0  0
 37 34  1  0  0  0  0
M  END
>  <MODEL>
8

>  <REMARK>
 VINA RESULT:      -6.6      2.318      6.569
  Name = 
  8 active torsions:
  status: ('A' for Active; 'I' for Inactive)
    1  A    between atoms: C_1  and  N_4
    2  A    between atoms: C_1  and  C_27
    3  A    between atoms: C_2  and  O_22
    4  A    between atoms: N_4  and  C_12
    5  A    between atoms: N_4  and  C_37
    6  A    between atoms: C_6  and  O_22
    7  A    between atoms: N_8  and  C_12
    8  A    between atoms: C_23  and  C_30
                            x       y       z     vdW  Elec       q    Type
                         _______ _______ _______ _____ _____    ______ ____

>  <TORSDO>
F 8

$$$$
=
 OpenBabel11112417313D

 37 42  0  0  1  0  0  0  0  0999 V2000
  188.5110  175.0220  142.6600 C   0  0  1  0  0  3  0  0  0  0  0  0
  190.9710  172.6890  143.5550 C   0  0  0  0  0  2  0  0  0  0  0  0
  187.1800  177.1400  143.4150 C   0  0  2  0  0  3  0  0  0  0  0  0
  190.0170  174.9110  142.8260 C   0  0  2  0  0  3  0  0  0  0  0  0
  188.1080  175.9680  143.8000 C   0  0  2  0  0  3  0  0  0  0  0  0
  190.6600  173.5930  142.3630 C   0  0  2  0  0  3  0  0  0  0  0  0
  187.2750  177.4680  141.9320 C   0  0  0  0  0  2  0  0  0  0  0  0
  189.4180  176.3660  144.4580 C   0  0  0  0  0  2  0  0  0  0  0  0
  188.2170  174.4520  140.2330 C   0  0  0  0  0  2  0  0  0  0  0  0
  187.0480  176.2970  141.1990 O   0  0  0  0  0  0  0  0  0  0  0  0
  193.1540  173.8140  143.5180 O   0  0  0  0  0  0  0  0  0  0  0  0
  192.2960  173.0030  144.2850 C   0  0  1  0  0  3  0  0  0  0  0  0
  188.2540  175.5850  141.2510 C   0  0  1  0  0  3  0  0  0  0  0  0
  190.3300  175.2540  144.2070 N   0  0  2  0  0  0  0  0  0  0  0  0
  189.8920  172.8610  141.2440 C   0  0  1  0  0  3  0  0  0  0  0  0
  192.6210  174.4200  144.6770 C   0  0  2  0  0  3  0  0  0  0  0  0
  191.7530  175.6160  144.2460 C   0  0  2  0  0  3  0  0  0  0  0  0
  189.5790  173.7850  140.0670 C   0  0  0  0  0  2  0  0  0  0  0  0
  190.4430  170.4250  141.3750 C   0  0  0  0  0  3  0  0  0  0  0  0
  190.6470  171.6610  140.7540 C   0  0  0  0  0  0  0  0  0  0  0  0
  191.5520  171.7590  139.6840 C   0  0  0  0  0  3  0  0  0  0  0  0
  193.1400  170.7270  138.1900 O   0  0  0  0  0  1  0  0  0  0  0  0
  192.0370  169.3940  139.8720 C   0  0  0  0  0  3  0  0  0  0  0  0
  192.2460  170.6270  139.2460 C   0  0  0  0  0  0  0  0  0  0  0  0
  191.1360  169.2930  140.9360 C   0  0  0  0  0  3  0  0  0  0  0  0
  192.0630  176.7860  145.2030 C   0  0  0  0  0  2  0  0  0  0  0  0
  192.5650  176.3520  146.5150 N   0  0  0  0  0  0  0  0  0  0  0  0
  194.5850  177.4160  145.6670 C   0  0  0  0  0  1  0  0  0  0  0  0
  193.7310  177.1410  146.8900 C   0  0  0  0  0  2  0  0  0  0  0  0
  191.5390  176.5550  147.5340 C   0  0  0  0  0  2  0  0  0  0  0  0
  191.1660  175.2810  148.1290 N   0  0  0  0  0  2  0  0  0  0  0  0
  189.9550  174.9480  147.6230 O   0  0  0  0  0  1  0  0  0  0  0  0
  187.4350  178.2880  144.1860 O   0  0  0  0  0  0  0  0  0  0  0  0
  186.2070  178.7570  144.6950 C   0  0  0  0  0  0  0  0  0  0  0  0
  186.3120  179.0450  146.0480 F   0  0  0  0  0  0  0  0  0  0  0  0
  185.7860  179.8840  144.0070 F   0  0  0  0  0  0  0  0  0  0  0  0
  185.2570  177.7680  144.5330 F   0  0  0  0  0  0  0  0  0  0  0  0
  1  4  1  0  0  0  0
  1  5  1  0  0  0  0
  2 12  1  0  0  0  0
  3  5  1  0  0  0  0
  3 33  1  0  0  0  0
  4 14  1  0  0  0  0
  5  8  1  0  0  0  0
  6  4  1  0  0  0  0
  6  2  1  0  0  0  0
  7  3  1  0  0  0  0
  9 13  1  0  0  0  0
 10 13  1  0  0  0  0
 10  7  1  0  0  0  0
 11 12  1  0  0  0  0
 11 16  1  0  0  0  0
 12 16  1  0  0  0  0
 13  1  1  0  0  0  0
 14 17  1  0  0  0  0
 14  8  1  0  0  0  0
 15  6  1  0  0  0  0
 17 16  1  0  0  0  0
 17 26  1  0  0  0  0
 18  9  1  0  0  0  0
 18 15  1  0  0  0  0
 20 15  1  0  0  0  0
 20 19  2  0  0  0  0
 21 20  1  0  0  0  0
 22 24  1  0  0  0  0
 23 25  2  0  0  0  0
 24 21  2  0  0  0  0
 24 23  1  0  0  0  0
 25 19  1  0  0  0  0
 26 27  1  0  0  0  0
 27 29  1  0  0  0  0
 27 30  1  0  0  0  0
 28 29  1  0  0  0  0
 30 31  1  0  0  0  0
 32 31  1  0  0  0  0
 33 34  1  0  0  0  0
 34 35  1  0  0  0  0
 36 34  1  0  0  0  0
 37 34  1  0  0  0  0
M  END
>  <MODEL>
9

>  <REMARK>
 VINA RESULT:      -6.6      2.444      5.921
  Name = 
  8 active torsions:
  status: ('A' for Active; 'I' for Inactive)
    1  A    between atoms: C_1  and  N_4
    2  A    between atoms: C_1  and  C_27
    3  A    between atoms: C_2  and  O_22
    4  A    between atoms: N_4  and  C_12
    5  A    between atoms: N_4  and  C_37
    6  A    between atoms: C_6  and  O_22
    7  A    between atoms: N_8  and  C_12
    8  A    between atoms: C_23  and  C_30
                            x       y       z     vdW  Elec       q    Type
                         _______ _______ _______ _____ _____    ______ ____

>  <TORSDO>
F 8

$$$$
