=
 OpenBabel11112417073D

 31 35  0  0  1  0  0  0  0  0999 V2000
  188.1370  173.8450  140.3080 C   0  0  2  0  0  3  0  0  0  0  0  0
  188.9890  176.4800  143.0150 C   0  0  2  0  0  3  0  0  0  0  0  0
  188.3970  176.7570  144.3840 C   0  0  0  0  0  0  0  0  0  0  0  0
  186.5230  176.7000  145.9300 C   0  0  0  0  0  0  0  0  0  0  0  0
  188.4720  175.1640  142.4110 C   0  0  1  0  0  3  0  0  0  0  0  0
  188.8430  172.6480  140.9380 C   0  0  0  0  0  2  0  0  0  0  0  0
  187.0670  176.4200  144.6740 C   0  0  0  0  0  3  0  0  0  0  0  0
  191.0780  175.2970  143.6380 N   0  0  0  0  0  0  0  0  0  0  0  0
  188.3670  173.8350  138.8110 C   0  0  0  0  0  1  0  0  0  0  0  0
  190.4770  177.8190  145.0800 O   0  0  0  0  0  0  0  0  0  0  0  0
  185.2420  176.3580  146.2050 F   0  0  0  0  0  0  0  0  0  0  0  0
  190.6340  174.0190  143.0830 C   0  0  0  0  0  2  0  0  0  0  0  0
  190.5330  176.5170  143.0270 C   0  0  2  0  0  3  0  0  0  0  0  0
  188.6800  175.1430  140.8960 C   0  0  0  0  0  2  0  0  0  0  0  0
  187.3020  177.3310  146.9030 C   0  0  0  0  0  3  0  0  0  0  0  0
  189.1090  173.9400  143.0940 C   0  0  2  0  0  3  0  0  0  0  0  0
  188.6230  172.6390  142.4500 C   0  0  0  0  0  2  0  0  0  0  0  0
  191.0040  177.7800  143.7550 C   0  0  0  0  0  2  0  0  0  0  0  0
  189.1630  177.4290  145.3580 C   0  0  0  0  0  0  0  0  0  0  0  0
  188.6190  177.6970  146.6170 C   0  0  0  0  0  3  0  0  0  0  0  0
  191.2530  174.7890  146.4730 C   0  0  0  0  0  1  0  0  0  0  0  0
  192.4350  175.0910  145.6030 C   0  0  0  0  0  0  0  0  0  0  0  0
  192.2970  175.3610  144.3390 N   0  0  0  0  0  0  0  0  0  0  0  0
  195.7150  176.6980  144.5880 C   0  0  0  0  0  0  0  0  0  0  0  0
  194.1540  176.6810  146.5380 C   0  0  0  0  0  2  0  0  0  0  0  0
  194.9910  172.9620  145.2980 S   0  0  0  0  0  0  0  0  0  0  0  0
  196.6140  177.3970  143.8560 F   0  0  0  0  0  0  0  0  0  0  0  0
  194.6150  177.4400  145.2940 C   0  0  0  0  0  2  0  0  0  0  0  0
  194.8620  174.5910  145.3590 C   0  0  0  0  0  0  0  0  0  0  0  0
  193.8000  175.2280  146.2100 C   0  0  2  0  0  3  0  0  0  0  0  0
  195.7760  175.4000  144.6060 N   0  0  0  0  0  0  0  0  0  0  0  0
  1  9  1  6  0  0  0
  1 14  1  0  0  0  0
  1  6  1  0  0  0  0
  2 13  1  0  0  0  0
  2  3  1  1  0  0  0
  3  7  2  0  0  0  0
  3 19  1  0  0  0  0
  4 11  1  0  0  0  0
  4 15  2  0  0  0  0
  5 14  1  6  0  0  0
  5  2  1  0  0  0  0
  5 16  1  0  0  0  0
  6 17  1  0  0  0  0
  7  4  1  0  0  0  0
  8 23  1  0  0  0  0
 10 19  1  0  0  0  0
 12 16  1  0  0  0  0
 12  8  1  0  0  0  0
 13  8  1  0  0  0  0
 13 18  1  1  0  0  0
 16 17  1  6  0  0  0
 18 10  1  0  0  0  0
 19 20  2  0  0  0  0
 20 15  1  0  0  0  0
 22 21  1  0  0  0  0
 23 22  2  0  0  0  0
 24 31  2  0  0  0  0
 24 28  1  0  0  0  0
 26 29  2  0  0  0  0
 27 24  1  0  0  0  0
 28 25  1  0  0  0  0
 29 30  1  0  0  0  0
 30 22  1  6  0  0  0
 30 25  1  0  0  0  0
 31 29  1  0  0  0  0
M  END
>  <MODEL>
1

>  <REMARK>
 VINA RESULT:      -8.4      0.000      0.000
  Name = 
  2 active torsions:
  status: ('A' for Active; 'I' for Inactive)
    1  A    between atoms: C_5  and  C_30
    2  A    between atoms: N_10  and  N_16
                            x       y       z     vdW  Elec       q    Type
                         _______ _______ _______ _____ _____    ______ ____

>  <TORSDO>
F 2

$$$$
=
 OpenBabel11112417073D

 31 35  0  0  1  0  0  0  0  0999 V2000
  191.4900  171.0630  141.8850 C   0  0  2  0  0  3  0  0  0  0  0  0
  191.3460  173.3340  145.0190 C   0  0  2  0  0  3  0  0  0  0  0  0
  192.2960  174.3900  145.5530 C   0  0  0  0  0  0  0  0  0  0  0  0
  194.5370  175.3040  145.7710 C   0  0  0  0  0  0  0  0  0  0  0  0
  191.7210  172.8730  143.6020 C   0  0  1  0  0  3  0  0  0  0  0  0
  191.0460  172.0920  140.8500 C   0  0  0  0  0  2  0  0  0  0  0  0
  193.6660  174.3400  145.2560 C   0  0  0  0  0  3  0  0  0  0  0  0
  189.5770  174.7550  144.0200 N   0  0  0  0  0  0  0  0  0  0  0  0
  190.8390  169.7300  141.5830 C   0  0  0  0  0  1  0  0  0  0  0  0
  190.4630  175.4400  146.7670 O   0  0  0  0  0  0  0  0  0  0  0  0
  195.8560  175.2550  145.4690 F   0  0  0  0  0  0  0  0  0  0  0  0
  189.8950  174.3550  142.6500 C   0  0  0  0  0  2  0  0  0  0  0  0
  189.8710  173.7870  145.0850 C   0  0  2  0  0  3  0  0  0  0  0  0
  191.0850  171.5190  143.2840 C   0  0  0  0  0  2  0  0  0  0  0  0
  194.0470  176.3190  146.5960 C   0  0  0  0  0  3  0  0  0  0  0  0
  191.3600  173.9370  142.5480 C   0  0  2  0  0  3  0  0  0  0  0  0
  191.6930  173.4460  141.1370 C   0  0  0  0  0  2  0  0  0  0  0  0
  189.5780  174.3600  146.4750 C   0  0  0  0  0  2  0  0  0  0  0  0
  191.8160  175.3940  146.4170 C   0  0  0  0  0  0  0  0  0  0  0  0
  192.6890  176.3630  146.9200 C   0  0  0  0  0  3  0  0  0  0  0  0
  190.2080  177.5680  143.8820 C   0  0  0  0  0  1  0  0  0  0  0  0
  188.8330  177.0310  144.1410 C   0  0  0  0  0  0  0  0  0  0  0  0
  188.6100  175.7550  144.2430 N   0  0  0  0  0  0  0  0  0  0  0  0
  185.5070  176.8080  145.9460 C   0  0  0  0  0  0  0  0  0  0  0  0
  187.5440  178.2530  145.9300 C   0  0  0  0  0  2  0  0  0  0  0  0
  186.1660  177.6210  142.2190 S   0  0  0  0  0  0  0  0  0  0  0  0
  184.4860  176.2890  146.6670 F   0  0  0  0  0  0  0  0  0  0  0  0
  186.8040  177.1200  146.6380 C   0  0  0  0  0  2  0  0  0  0  0  0
  186.4080  177.5010  143.8310 C   0  0  0  0  0  0  0  0  0  0  0  0
  187.7020  177.9720  144.4330 C   0  0  2  0  0  3  0  0  0  0  0  0
  185.3730  176.9560  144.6620 N   0  0  0  0  0  0  0  0  0  0  0  0
  1  9  1  6  0  0  0
  1 14  1  0  0  0  0
  2 13  1  0  0  0  0
  2  3  1  6  0  0  0
  3 19  1  0  0  0  0
  4 15  2  0  0  0  0
  5 14  1  6  0  0  0
  5  2  1  0  0  0  0
  6 17  1  0  0  0  0
  6  1  1  0  0  0  0
  7  3  2  0  0  0  0
  7  4  1  0  0  0  0
  8 23  1  0  0  0  0
  8 13  1  0  0  0  0
 11  4  1  0  0  0  0
 12  8  1  0  0  0  0
 13 18  1  1  0  0  0
 15 20  1  0  0  0  0
 16 17  1  6  0  0  0
 16 12  1  0  0  0  0
 16  5  1  0  0  0  0
 18 10  1  0  0  0  0
 19 10  1  0  0  0  0
 19 20  2  0  0  0  0
 21 22  1  0  0  0  0
 22 23  2  0  0  0  0
 24 28  1  0  0  0  0
 24 27  1  0  0  0  0
 25 28  1  0  0  0  0
 26 29  2  0  0  0  0
 29 30  1  0  0  0  0
 29 31  1  0  0  0  0
 30 22  1  1  0  0  0
 30 25  1  0  0  0  0
 31 24  2  0  0  0  0
M  END
>  <MODEL>
2

>  <REMARK>
 VINA RESULT:      -8.2      2.799      6.424
  Name = 
  2 active torsions:
  status: ('A' for Active; 'I' for Inactive)
    1  A    between atoms: C_5  and  C_30
    2  A    between atoms: N_10  and  N_16
                            x       y       z     vdW  Elec       q    Type
                         _______ _______ _______ _____ _____    ______ ____

>  <TORSDO>
F 2

$$$$
=
 OpenBabel11112417073D

 31 35  0  0  1  0  0  0  0  0999 V2000
  194.2460  176.7210  145.3620 C   0  0  2  0  0  3  0  0  0  0  0  0
  190.9420  176.3200  143.3820 C   0  0  2  0  0  3  0  0  0  0  0  0
  190.1980  175.0940  142.8860 C   0  0  0  0  0  0  0  0  0  0  0  0
  190.1900  172.7830  142.1360 C   0  0  0  0  0  0  0  0  0  0  0  0
  192.0910  175.9580  144.3370 C   0  0  1  0  0  3  0  0  0  0  0  0
  193.7090  176.3930  146.7520 C   0  0  0  0  0  2  0  0  0  0  0  0
  190.8810  173.9000  142.6140 C   0  0  0  0  0  3  0  0  0  0  0  0
  189.5770  176.9300  145.3590 N   0  0  0  0  0  0  0  0  0  0  0  0
  195.2230  177.8730  145.4580 C   0  0  0  0  0  1  0  0  0  0  0  0
  188.1180  176.3640  142.8390 O   0  0  0  0  0  0  0  0  0  0  0  0
  190.8550  171.6300  141.8890 F   0  0  0  0  0  0  0  0  0  0  0  0
  190.6340  176.5970  146.3130 C   0  0  0  0  0  2  0  0  0  0  0  0
  189.9960  177.3610  144.0190 C   0  0  2  0  0  3  0  0  0  0  0  0
  193.0990  177.1060  144.4340 C   0  0  0  0  0  2  0  0  0  0  0  0
  188.8130  172.8560  141.9140 C   0  0  0  0  0  3  0  0  0  0  0  0
  191.5640  175.5400  145.7220 C   0  0  2  0  0  3  0  0  0  0  0  0
  192.7190  175.2300  146.6770 C   0  0  0  0  0  2  0  0  0  0  0  0
  188.7990  177.5920  143.0920 C   0  0  0  0  0  2  0  0  0  0  0  0
  188.8150  175.1710  142.6220 C   0  0  0  0  0  0  0  0  0  0  0  0
  188.1270  174.0480  142.1550 C   0  0  0  0  0  3  0  0  0  0  0  0
  188.1230  175.3300  147.2710 C   0  0  0  0  0  1  0  0  0  0  0  0
  187.6350  176.6420  146.7350 C   0  0  0  0  0  0  0  0  0  0  0  0
  188.3050  177.3010  145.8370 N   0  0  0  0  0  0  0  0  0  0  0  0
  185.0950  179.0230  145.2350 C   0  0  0  0  0  0  0  0  0  0  0  0
  185.1820  176.7030  146.1570 C   0  0  0  0  0  2  0  0  0  0  0  0
  186.9660  179.3230  148.6110 S   0  0  0  0  0  0  0  0  0  0  0  0
  184.5190  179.8780  144.3580 F   0  0  0  0  0  0  0  0  0  0  0  0
  185.1600  177.5620  144.8930 C   0  0  0  0  0  2  0  0  0  0  0  0
  186.2710  178.6480  147.2950 C   0  0  0  0  0  0  0  0  0  0  0  0
  186.2800  177.1550  147.1240 C   0  0  2  0  0  3  0  0  0  0  0  0
  185.6440  179.4900  146.3170 N   0  0  0  0  0  0  0  0  0  0  0  0
  1  9  1  1  0  0  0
  1  6  1  0  0  0  0
  2  3  1  1  0  0  0
  2 13  1  0  0  0  0
  2  5  1  0  0  0  0
  4  7  1  0  0  0  0
  5 14  1  1  0  0  0
  5 16  1  0  0  0  0
  7  3  2  0  0  0  0
  8 23  1  0  0  0  0
  8 12  1  0  0  0  0
 10 18  1  0  0  0  0
 11  4  1  0  0  0  0
 13 18  1  6  0  0  0
 13  8  1  0  0  0  0
 14  1  1  0  0  0  0
 15  4  2  0  0  0  0
 15 20  1  0  0  0  0
 16 12  1  1  0  0  0
 16 17  1  0  0  0  0
 17  6  1  0  0  0  0
 19 10  1  0  0  0  0
 19  3  1  0  0  0  0
 20 19  2  0  0  0  0
 22 21  1  0  0  0  0
 23 22  2  0  0  0  0
 24 31  2  0  0  0  0
 25 30  1  0  0  0  0
 27 24  1  0  0  0  0
 28 24  1  0  0  0  0
 28 25  1  0  0  0  0
 29 26  2  0  0  0  0
 30 22  1  6  0  0  0
 30 29  1  0  0  0  0
 31 29  1  0  0  0  0
M  END
>  <MODEL>
3

>  <REMARK>
 VINA RESULT:      -7.9      3.307      7.062
  Name = 
  2 active torsions:
  status: ('A' for Active; 'I' for Inactive)
    1  A    between atoms: C_5  and  C_30
    2  A    between atoms: N_10  and  N_16
                            x       y       z     vdW  Elec       q    Type
                         _______ _______ _______ _____ _____    ______ ____

>  <TORSDO>
F 2

$$$$
=
 OpenBabel11112417073D

 31 35  0  0  1  0  0  0  0  0999 V2000
  187.2590  176.5650  141.4130 C   0  0  2  0  0  3  0  0  0  0  0  0
  190.0750  176.9280  144.0470 C   0  0  2  0  0  3  0  0  0  0  0  0
  190.3280  176.2230  145.3660 C   0  0  0  0  0  0  0  0  0  0  0  0
  189.5090  175.0490  147.3300 C   0  0  0  0  0  0  0  0  0  0  0  0
  188.9500  176.2640  143.2370 C   0  0  1  0  0  3  0  0  0  0  0  0
  187.7640  175.3000  140.7260 C   0  0  0  0  0  2  0  0  0  0  0  0
  189.2680  175.6760  146.1050 C   0  0  0  0  0  3  0  0  0  0  0  0
  191.7170  175.7850  142.5820 N   0  0  0  0  0  0  0  0  0  0  0  0
  186.7310  177.5290  140.3720 C   0  0  0  0  0  1  0  0  0  0  0  0
  192.7010  176.7550  145.2060 O   0  0  0  0  0  0  0  0  0  0  0  0
  188.4810  174.5130  148.0300 F   0  0  0  0  0  0  0  0  0  0  0  0
  190.6870  175.1240  141.7810 C   0  0  0  0  0  2  0  0  0  0  0  0
  191.3610  177.0680  143.2020 C   0  0  2  0  0  3  0  0  0  0  0  0
  188.3920  177.2290  142.1890 C   0  0  0  0  0  2  0  0  0  0  0  0
  190.8100  174.9740  147.8330 C   0  0  0  0  0  3  0  0  0  0  0  0
  189.4150  174.9380  142.6050 C   0  0  2  0  0  3  0  0  0  0  0  0
  188.3020  174.3130  141.7610 C   0  0  0  0  0  2  0  0  0  0  0  0
  192.4890  177.6100  144.0850 C   0  0  0  0  0  2  0  0  0  0  0  0
  191.6330  176.1770  145.8990 C   0  0  0  0  0  0  0  0  0  0  0  0
  191.8700  175.5380  147.1200 C   0  0  0  0  0  3  0  0  0  0  0  0
  192.9780  173.4370  143.6860 C   0  0  0  0  0  1  0  0  0  0  0  0
  193.6720  174.4120  142.7850 C   0  0  0  0  0  0  0  0  0  0  0  0
  193.0730  175.4830  142.3530 N   0  0  0  0  0  0  0  0  0  0  0  0
  196.7840  176.5520  143.1070 C   0  0  0  0  0  0  0  0  0  0  0  0
  196.0030  174.2640  143.7330 C   0  0  0  0  0  2  0  0  0  0  0  0
  195.2000  175.0870  139.8930 S   0  0  0  0  0  0  0  0  0  0  0  0
  197.5730  177.6090  143.4130 F   0  0  0  0  0  0  0  0  0  0  0  0
  196.2550  175.6910  144.2190 C   0  0  0  0  0  2  0  0  0  0  0  0
  195.6110  175.2500  141.4670 C   0  0  0  0  0  0  0  0  0  0  0  0
  195.1300  174.2450  142.4750 C   0  0  2  0  0  3  0  0  0  0  0  0
  196.4410  176.3480  141.8700 N   0  0  0  0  0  0  0  0  0  0  0  0
  1  9  1  6  0  0  0
  1 14  1  0  0  0  0
  2  3  1  1  0  0  0
  3 19  2  0  0  0  0
  3  7  1  0  0  0  0
  4 15  1  0  0  0  0
  4 11  1  0  0  0  0
  5 14  1  6  0  0  0
  5  2  1  0  0  0  0
  6  1  1  0  0  0  0
  6 17  1  0  0  0  0
  7  4  2  0  0  0  0
  8 13  1  0  0  0  0
 10 19  1  0  0  0  0
 12  8  1  0  0  0  0
 12 16  1  0  0  0  0
 13  2  1  0  0  0  0
 13 18  1  1  0  0  0
 16 17  1  6  0  0  0
 16  5  1  0  0  0  0
 18 10  1  0  0  0  0
 19 20  1  0  0  0  0
 20 15  2  0  0  0  0
 22 21  1  0  0  0  0
 23  8  1  0  0  0  0
 23 22  2  0  0  0  0
 24 27  1  0  0  0  0
 24 28  1  0  0  0  0
 25 28  1  0  0  0  0
 26 29  2  0  0  0  0
 29 31  1  0  0  0  0
 29 30  1  0  0  0  0
 30 22  1  1  0  0  0
 30 25  1  0  0  0  0
 31 24  2  0  0  0  0
M  END
>  <MODEL>
4

>  <REMARK>
 VINA RESULT:      -7.7      2.265      3.018
  Name = 
  2 active torsions:
  status: ('A' for Active; 'I' for Inactive)
    1  A    between atoms: C_5  and  C_30
    2  A    between atoms: N_10  and  N_16
                            x       y       z     vdW  Elec       q    Type
                         _______ _______ _______ _____ _____    ______ ____

>  <TORSDO>
F 2

$$$$
=
 OpenBabel11112417073D

 31 35  0  0  1  0  0  0  0  0999 V2000
  193.2430  172.4620  141.5000 C   0  0  2  0  0  3  0  0  0  0  0  0
  191.6850  173.6590  144.8370 C   0  0  2  0  0  3  0  0  0  0  0  0
  192.0110  174.8260  145.7490 C   0  0  0  0  0  0  0  0  0  0  0  0
  193.6000  176.4310  146.6460 C   0  0  0  0  0  0  0  0  0  0  0  0
  192.4300  173.7400  143.4950 C   0  0  1  0  0  3  0  0  0  0  0  0
  192.5730  173.4700  140.5720 C   0  0  0  0  0  2  0  0  0  0  0  0
  193.3040  175.3700  145.7860 C   0  0  0  0  0  3  0  0  0  0  0  0
  189.6580  174.5110  143.6910 N   0  0  0  0  0  0  0  0  0  0  0  0
  193.2650  171.1020  140.8350 C   0  0  0  0  0  1  0  0  0  0  0  0
  189.7450  174.7740  146.6440 O   0  0  0  0  0  0  0  0  0  0  0  0
  194.8480  176.9580  146.6660 F   0  0  0  0  0  0  0  0  0  0  0  0
  190.3190  174.6120  142.3900 C   0  0  0  0  0  2  0  0  0  0  0  0
  190.1650  173.4930  144.6210 C   0  0  2  0  0  3  0  0  0  0  0  0
  192.4770  172.3700  142.8160 C   0  0  0  0  0  2  0  0  0  0  0  0
  192.6110  176.9480  147.4850 C   0  0  0  0  0  3  0  0  0  0  0  0
  191.8210  174.8150  142.5750 C   0  0  2  0  0  3  0  0  0  0  0  0
  192.5400  174.8520  141.2250 C   0  0  0  0  0  2  0  0  0  0  0  0
  189.4510  173.5490  145.9750 C   0  0  0  0  0  2  0  0  0  0  0  0
  191.0290  175.3290  146.6270 C   0  0  0  0  0  0  0  0  0  0  0  0
  191.3270  176.3970  147.4770 C   0  0  0  0  0  3  0  0  0  0  0  0
  189.0570  177.3110  144.0400 C   0  0  0  0  0  1  0  0  0  0  0  0
  188.0150  176.2380  143.9440 C   0  0  0  0  0  0  0  0  0  0  0  0
  188.3400  174.9840  143.8360 N   0  0  0  0  0  0  0  0  0  0  0  0
  185.9610  179.4230  144.0080 C   0  0  0  0  0  0  0  0  0  0  0  0
  185.9570  177.2060  142.8580 C   0  0  0  0  0  2  0  0  0  0  0  0
  186.4130  176.8010  146.8200 S   0  0  0  0  0  0  0  0  0  0  0  0
  185.6580  180.7410  143.9400 F   0  0  0  0  0  0  0  0  0  0  0  0
  186.3080  178.6890  142.7440 C   0  0  0  0  0  2  0  0  0  0  0  0
  186.3300  177.4480  145.3210 C   0  0  0  0  0  0  0  0  0  0  0  0
  186.5650  176.5800  144.1160 C   0  0  2  0  0  3  0  0  0  0  0  0
  186.0190  178.8400  145.1680 N   0  0  0  0  0  0  0  0  0  0  0  0
  1  9  1  6  0  0  0
  1 14  1  0  0  0  0
  2  3  1  6  0  0  0
  3  7  2  0  0  0  0
  3 19  1  0  0  0  0
  4 11  1  0  0  0  0
  4 15  2  0  0  0  0
  5 14  1  6  0  0  0
  5  2  1  0  0  0  0
  6 17  1  0  0  0  0
  6  1  1  0  0  0  0
  7  4  1  0  0  0  0
  8 23  1  0  0  0  0
  8 13  1  0  0  0  0
 12 16  1  0  0  0  0
 12  8  1  0  0  0  0
 13  2  1  0  0  0  0
 13 18  1  1  0  0  0
 16 17  1  6  0  0  0
 16  5  1  0  0  0  0
 18 10  1  0  0  0  0
 19 10  1  0  0  0  0
 19 20  2  0  0  0  0
 20 15  1  0  0  0  0
 22 21  1  0  0  0  0
 23 22  2  0  0  0  0
 24 31  2  0  0  0  0
 25 30  1  0  0  0  0
 27 24  1  0  0  0  0
 28 25  1  0  0  0  0
 28 24  1  0  0  0  0
 29 26  2  0  0  0  0
 30 22  1  6  0  0  0
 30 29  1  0  0  0  0
 31 29  1  0  0  0  0
M  END
>  <MODEL>
5

>  <REMARK>
 VINA RESULT:      -7.5      3.113      6.385
  Name = 
  2 active torsions:
  status: ('A' for Active; 'I' for Inactive)
    1  A    between atoms: C_5  and  C_30
    2  A    between atoms: N_10  and  N_16
                            x       y       z     vdW  Elec       q    Type
                         _______ _______ _______ _____ _____    ______ ____

>  <TORSDO>
F 2

$$$$
=
 OpenBabel11112417073D

 31 35  0  0  1  0  0  0  0  0999 V2000
  185.9300  177.4860  142.8520 C   0  0  2  0  0  3  0  0  0  0  0  0
  188.2290  174.4080  142.3580 C   0  0  2  0  0  3  0  0  0  0  0  0
  188.9970  173.8970  141.1540 C   0  0  0  0  0  0  0  0  0  0  0  0
  189.2680  173.6920  138.7480 C   0  0  0  0  0  0  0  0  0  0  0  0
  187.6490  175.8130  142.1280 C   0  0  1  0  0  3  0  0  0  0  0  0
  187.0160  178.5470  143.0000 C   0  0  0  0  0  2  0  0  0  0  0  0
  188.5660  174.1870  139.8510 C   0  0  0  0  0  3  0  0  0  0  0  0
  190.0560  175.4480  143.6740 N   0  0  0  0  0  0  0  0  0  0  0  0
  184.8190  177.7580  143.8440 C   0  0  0  0  0  1  0  0  0  0  0  0
  190.5380  172.7150  142.6270 O   0  0  0  0  0  0  0  0  0  0  0  0
  188.8520  173.9880  137.4940 F   0  0  0  0  0  0  0  0  0  0  0  0
  189.5510  176.8070  143.4820 C   0  0  0  0  0  2  0  0  0  0  0  0
  189.0700  174.3590  143.6530 C   0  0  2  0  0  3  0  0  0  0  0  0
  186.5130  176.1000  143.1120 C   0  0  0  0  0  2  0  0  0  0  0  0
  190.3980  172.8940  138.9390 C   0  0  0  0  0  3  0  0  0  0  0  0
  188.7450  176.8930  142.1880 C   0  0  2  0  0  3  0  0  0  0  0  0
  188.1480  178.2910  142.0060 C   0  0  0  0  0  2  0  0  0  0  0  0
  189.7340  172.9840  143.7740 C   0  0  0  0  0  2  0  0  0  0  0  0
  190.1150  173.0580  141.3380 C   0  0  0  0  0  0  0  0  0  0  0  0
  190.8200  172.5760  140.2320 C   0  0  0  0  0  3  0  0  0  0  0  0
  190.3370  175.7210  146.5330 C   0  0  0  0  0  1  0  0  0  0  0  0
  191.4520  175.3130  145.6180 C   0  0  0  0  0  0  0  0  0  0  0  0
  191.2860  175.2520  144.3300 N   0  0  0  0  0  0  0  0  0  0  0  0
  194.9650  176.2740  144.5700 C   0  0  0  0  0  0  0  0  0  0  0  0
  193.5020  176.4140  146.5890 C   0  0  0  0  0  2  0  0  0  0  0  0
  193.4770  172.7280  145.0130 S   0  0  0  0  0  0  0  0  0  0  0  0
  195.9690  176.8290  143.8520 F   0  0  0  0  0  0  0  0  0  0  0  0
  194.0740  177.1650  145.3880 C   0  0  0  0  0  2  0  0  0  0  0  0
  193.7040  174.3350  145.2110 C   0  0  0  0  0  0  0  0  0  0  0  0
  192.8330  175.1030  146.1640 C   0  0  2  0  0  3  0  0  0  0  0  0
  194.7460  174.9960  144.4790 N   0  0  0  0  0  0  0  0  0  0  0  0
  1  6  1  0  0  0  0
  1 14  1  0  0  0  0
  1  9  1  1  0  0  0
  2  3  1  6  0  0  0
  2 13  1  0  0  0  0
  3 19  1  0  0  0  0
  4 15  2  0  0  0  0
  4  7  1  0  0  0  0
  5 16  1  0  0  0  0
  5  2  1  0  0  0  0
  5 14  1  1  0  0  0
  7  3  2  0  0  0  0
  8 23  1  0  0  0  0
 10 18  1  0  0  0  0
 11  4  1  0  0  0  0
 12  8  1  0  0  0  0
 13  8  1  0  0  0  0
 13 18  1  6  0  0  0
 15 20  1  0  0  0  0
 16 17  1  1  0  0  0
 16 12  1  0  0  0  0
 17  6  1  0  0  0  0
 19 10  1  0  0  0  0
 20 19  2  0  0  0  0
 22 21  1  0  0  0  0
 23 22  2  0  0  0  0
 24 28  1  0  0  0  0
 26 29  2  0  0  0  0
 27 24  1  0  0  0  0
 28 25  1  0  0  0  0
 29 30  1  0  0  0  0
 30 22  1  6  0  0  0
 30 25  1  0  0  0  0
 31 24  2  0  0  0  0
 31 29  1  0  0  0  0
M  END
>  <MODEL>
6

>  <REMARK>
 VINA RESULT:      -7.5      2.479      4.678
  Name = 
  2 active torsions:
  status: ('A' for Active; 'I' for Inactive)
    1  A    between atoms: C_5  and  C_30
    2  A    between atoms: N_10  and  N_16
                            x       y       z     vdW  Elec       q    Type
                         _______ _______ _______ _____ _____    ______ ____

>  <TORSDO>
F 2

$$$$
=
 OpenBabel11112417073D

 31 35  0  0  1  0  0  0  0  0999 V2000
  185.9360  178.7620  144.8530 C   0  0  2  0  0  3  0  0  0  0  0  0
  189.6230  177.6460  144.4560 C   0  0  2  0  0  3  0  0  0  0  0  0
  190.5910  176.9810  145.4150 C   0  0  0  0  0  0  0  0  0  0  0  0
  191.3640  176.5430  147.6760 C   0  0  0  0  0  0  0  0  0  0  0  0
  188.1850  177.6700  145.0000 C   0  0  1  0  0  3  0  0  0  0  0  0
  185.2750  177.3970  144.6910 C   0  0  0  0  0  2  0  0  0  0  0  0
  190.4530  177.1410  146.8010 C   0  0  0  0  0  3  0  0  0  0  0  0
  188.9810  175.7230  143.0280 N   0  0  0  0  0  0  0  0  0  0  0  0
  185.1210  179.8080  144.1210 C   0  0  0  0  0  1  0  0  0  0  0  0
  191.8770  176.1170  143.5330 O   0  0  0  0  0  0  0  0  0  0  0  0
  191.2150  176.6920  149.0150 F   0  0  0  0  0  0  0  0  0  0  0  0
  187.6020  175.6970  143.5140 C   0  0  0  0  0  2  0  0  0  0  0  0
  189.6730  177.0180  143.0450 C   0  0  2  0  0  3  0  0  0  0  0  0
  187.3500  178.7320  144.2830 C   0  0  0  0  0  2  0  0  0  0  0  0
  192.4270  175.7900  147.1720 C   0  0  0  0  0  3  0  0  0  0  0  0
  187.5290  176.2780  144.9250 C   0  0  2  0  0  3  0  0  0  0  0  0
  186.0830  176.3270  145.4230 C   0  0  0  0  0  2  0  0  0  0  0  0
  191.1320  176.8940  142.5970 C   0  0  0  0  0  2  0  0  0  0  0  0
  191.6890  176.2530  144.9130 C   0  0  0  0  0  0  0  0  0  0  0  0
  192.5910  175.6470  145.7920 C   0  0  0  0  0  3  0  0  0  0  0  0
  189.8560  173.1370  143.9630 C   0  0  0  0  0  1  0  0  0  0  0  0
  189.7780  173.5200  142.5170 C   0  0  0  0  0  0  0  0  0  0  0  0
  189.4240  174.7160  142.1480 N   0  0  0  0  0  0  0  0  0  0  0  0
  192.0880  173.7060  139.5180 C   0  0  0  0  0  0  0  0  0  0  0  0
  191.7520  172.2890  141.5460 C   0  0  0  0  0  2  0  0  0  0  0  0
  188.3060  172.8850  139.5860 S   0  0  0  0  0  0  0  0  0  0  0  0
  192.9610  174.2140  138.6160 F   0  0  0  0  0  0  0  0  0  0  0  0
  192.5660  173.4160  140.9120 C   0  0  0  0  0  2  0  0  0  0  0  0
  189.8590  173.0160  140.0800 C   0  0  0  0  0  0  0  0  0  0  0  0
  190.2490  172.5660  141.4590 C   0  0  2  0  0  3  0  0  0  0  0  0
  190.8420  173.5510  139.1820 N   0  0  0  0  0  0  0  0  0  0  0  0
  1  9  1  6  0  0  0
  2  5  1  0  0  0  0
  2  3  1  1  0  0  0
  3  7  1  0  0  0  0
  4 11  1  0  0  0  0
  5 14  1  6  0  0  0
  6  1  1  0  0  0  0
  6 17  1  0  0  0  0
  7  4  2  0  0  0  0
  8 13  1  0  0  0  0
  8 12  1  0  0  0  0
 10 19  1  0  0  0  0
 13 18  1  1  0  0  0
 13  2  1  0  0  0  0
 14  1  1  0  0  0  0
 15  4  1  0  0  0  0
 16 12  1  6  0  0  0
 16  5  1  0  0  0  0
 16 17  1  0  0  0  0
 18 10  1  0  0  0  0
 19  3  2  0  0  0  0
 19 20  1  0  0  0  0
 20 15  2  0  0  0  0
 22 21  1  0  0  0  0
 23 22  2  0  0  0  0
 23  8  1  0  0  0  0
 24 28  1  0  0  0  0
 26 29  2  0  0  0  0
 27 24  1  0  0  0  0
 28 25  1  0  0  0  0
 29 30  1  0  0  0  0
 30 25  1  0  0  0  0
 30 22  1  1  0  0  0
 31 24  2  0  0  0  0
 31 29  1  0  0  0  0
M  END
>  <MODEL>
7

>  <REMARK>
 VINA RESULT:      -7.4      3.196      5.383
  Name = 
  2 active torsions:
  status: ('A' for Active; 'I' for Inactive)
    1  A    between atoms: C_5  and  C_30
    2  A    between atoms: N_10  and  N_16
                            x       y       z     vdW  Elec       q    Type
                         _______ _______ _______ _____ _____    ______ ____

>  <TORSDO>
F 2

$$$$
=
 OpenBabel11112417073D

 31 35  0  0  1  0  0  0  0  0999 V2000
  188.3500  173.1240  140.7830 C   0  0  2  0  0  3  0  0  0  0  0  0
  189.3530  176.1720  142.9520 C   0  0  2  0  0  3  0  0  0  0  0  0
  188.9530  176.5970  144.3530 C   0  0  0  0  0  0  0  0  0  0  0  0
  187.3510  176.6240  146.1790 C   0  0  0  0  0  0  0  0  0  0  0  0
  188.8760  174.7500  142.6150 C   0  0  1  0  0  3  0  0  0  0  0  0
  189.2530  172.0830  141.4370 C   0  0  0  0  0  2  0  0  0  0  0  0
  187.7210  176.2080  144.8970 C   0  0  0  0  0  3  0  0  0  0  0  0
  191.6140  175.2440  143.3710 N   0  0  0  0  0  0  0  0  0  0  0  0
  188.3490  172.9190  139.2830 C   0  0  0  0  0  1  0  0  0  0  0  0
  191.0060  177.8950  144.5560 O   0  0  0  0  0  0  0  0  0  0  0  0
  186.1650  176.2330  146.7020 F   0  0  0  0  0  0  0  0  0  0  0  0
  191.2130  173.8710  143.0660 C   0  0  0  0  0  2  0  0  0  0  0  0
  190.8710  176.3220  142.7060 C   0  0  2  0  0  3  0  0  0  0  0  0
  188.8520  174.5290  141.1020 C   0  0  0  0  0  2  0  0  0  0  0  0
  188.2060  177.4420  146.9220 C   0  0  0  0  0  3  0  0  0  0  0  0
  189.7220  173.6840  143.3370 C   0  0  2  0  0  3  0  0  0  0  0  0
  189.2690  172.2730  142.9540 C   0  0  0  0  0  2  0  0  0  0  0  0
  191.3260  177.7060  143.1780 C   0  0  0  0  0  2  0  0  0  0  0  0
  189.7930  177.4540  145.0930 C   0  0  0  0  0  0  0  0  0  0  0  0
  189.4240  177.8570  146.3800 C   0  0  0  0  0  3  0  0  0  0  0  0
  193.9220  175.2220  141.6390 C   0  0  0  0  0  1  0  0  0  0  0  0
  193.9770  175.5470  143.1000 C   0  0  0  0  0  0  0  0  0  0  0  0
  192.9150  175.4950  143.8490 N   0  0  0  0  0  0  0  0  0  0  0  0
  196.1810  173.7050  145.5740 C   0  0  0  0  0  0  0  0  0  0  0  0
  196.3730  174.8000  143.3380 C   0  0  0  0  0  2  0  0  0  0  0  0
  194.4980  177.1690  145.9730 S   0  0  0  0  0  0  0  0  0  0  0  0
  196.6180  172.7290  146.4040 F   0  0  0  0  0  0  0  0  0  0  0  0
  196.2350  173.4770  144.0900 C   0  0  0  0  0  2  0  0  0  0  0  0
  195.1740  175.8610  145.2610 C   0  0  0  0  0  0  0  0  0  0  0  0
  195.2980  175.8030  143.7640 C   0  0  2  0  0  3  0  0  0  0  0  0
  195.6560  174.7830  146.0750 N   0  0  0  0  0  0  0  0  0  0  0  0
  1  9  1  6  0  0  0
  1 14  1  0  0  0  0
  1  6  1  0  0  0  0
  2  3  1  1  0  0  0
  3  7  2  0  0  0  0
  3 19  1  0  0  0  0
  4 11  1  0  0  0  0
  4 15  2  0  0  0  0
  5 14  1  6  0  0  0
  5  2  1  0  0  0  0
  5 16  1  0  0  0  0
  6 17  1  0  0  0  0
  7  4  1  0  0  0  0
  8 23  1  0  0  0  0
 10 19  1  0  0  0  0
 12 16  1  0  0  0  0
 12  8  1  0  0  0  0
 13  2  1  0  0  0  0
 13 18  1  1  0  0  0
 13  8  1  0  0  0  0
 16 17  1  6  0  0  0
 18 10  1  0  0  0  0
 19 20  2  0  0  0  0
 20 15  1  0  0  0  0
 21 22  1  0  0  0  0
 22 23  2  0  0  0  0
 24 31  2  0  0  0  0
 24 27  1  0  0  0  0
 25 30  1  0  0  0  0
 25 28  1  0  0  0  0
 28 24  1  0  0  0  0
 29 26  2  0  0  0  0
 29 31  1  0  0  0  0
 30 22  1  6  0  0  0
 30 29  1  0  0  0  0
M  END
>  <MODEL>
8

>  <REMARK>
 VINA RESULT:      -7.3      1.773      2.272
  Name = 
  2 active torsions:
  status: ('A' for Active; 'I' for Inactive)
    1  A    between atoms: C_5  and  C_30
    2  A    between atoms: N_10  and  N_16
                            x       y       z     vdW  Elec       q    Type
                         _______ _______ _______ _____ _____    ______ ____

>  <TORSDO>
F 2

$$$$
=
 OpenBabel11112417073D

 31 35  0  0  1  0  0  0  0  0999 V2000
  188.3790  176.9320  145.2480 C   0  0  2  0  0  3  0  0  0  0  0  0
  189.9060  173.6840  143.7910 C   0  0  2  0  0  3  0  0  0  0  0  0
  189.8880  173.0910  142.3950 C   0  0  0  0  0  0  0  0  0  0  0  0
  188.8230  172.8110  140.2290 C   0  0  0  0  0  0  0  0  0  0  0  0
  189.3620  175.1220  143.8220 C   0  0  1  0  0  3  0  0  0  0  0  0
  189.4260  177.9150  144.7360 C   0  0  0  0  0  2  0  0  0  0  0  0
  188.8430  173.3810  141.5050 C   0  0  0  0  0  3  0  0  0  0  0  0
  192.2010  174.6190  143.8740 N   0  0  0  0  0  0  0  0  0  0  0  0
  187.9830  177.3070  146.6600 C   0  0  0  0  0  1  0  0  0  0  0  0
  191.9160  171.8350  142.8920 O   0  0  0  0  0  0  0  0  0  0  0  0
  187.8180  173.1080  139.3710 F   0  0  0  0  0  0  0  0  0  0  0  0
  191.7390  176.0060  143.9000 C   0  0  0  0  0  2  0  0  0  0  0  0
  191.3040  173.6050  144.4430 C   0  0  2  0  0  3  0  0  0  0  0  0
  188.9410  175.5140  145.2400 C   0  0  0  0  0  2  0  0  0  0  0  0
  189.8400  171.9380  139.8380 C   0  0  0  0  0  3  0  0  0  0  0  0
  190.3730  176.1210  143.2280 C   0  0  2  0  0  3  0  0  0  0  0  0
  189.8400  177.5540  143.3090 C   0  0  0  0  0  2  0  0  0  0  0  0
  191.8620  172.1880  144.2730 C   0  0  0  0  0  2  0  0  0  0  0  0
  190.8890  172.1780  142.0070 C   0  0  0  0  0  0  0  0  0  0  0  0
  190.8710  171.6200  140.7260 C   0  0  0  0  0  3  0  0  0  0  0  0
  193.6000  174.5420  141.3510 C   0  0  0  0  0  1  0  0  0  0  0  0
  194.2640  174.3560  142.6820 C   0  0  0  0  0  0  0  0  0  0  0  0
  193.5810  174.3500  143.7880 N   0  0  0  0  0  0  0  0  0  0  0  0
  196.7000  173.3680  145.4120 C   0  0  0  0  0  0  0  0  0  0  0  0
  195.9810  172.5720  143.1570 C   0  0  0  0  0  2  0  0  0  0  0  0
  196.7850  176.4990  143.1370 S   0  0  0  0  0  0  0  0  0  0  0  0
  197.1680  173.0400  146.6400 F   0  0  0  0  0  0  0  0  0  0  0  0
  195.8490  172.3800  144.6680 C   0  0  0  0  0  2  0  0  0  0  0  0
  196.4750  174.9760  143.6440 C   0  0  0  0  0  0  0  0  0  0  0  0
  195.7260  174.0260  142.7530 C   0  0  2  0  0  3  0  0  0  0  0  0
  196.9340  174.5550  144.9370 N   0  0  0  0  0  0  0  0  0  0  0  0
  1  9  1  1  0  0  0
  2  3  1  6  0  0  0
  2  5  1  0  0  0  0
  2 13  1  0  0  0  0
  4  7  1  0  0  0  0
  5 14  1  1  0  0  0
  6  1  1  0  0  0  0
  7  3  2  0  0  0  0
  8 12  1  0  0  0  0
  8 13  1  0  0  0  0
 10 18  1  0  0  0  0
 11  4  1  0  0  0  0
 13 18  1  6  0  0  0
 14  1  1  0  0  0  0
 15  4  2  0  0  0  0
 15 20  1  0  0  0  0
 16 17  1  1  0  0  0
 16  5  1  0  0  0  0
 16 12  1  0  0  0  0
 17  6  1  0  0  0  0
 19  3  1  0  0  0  0
 19 10  1  0  0  0  0
 20 19  2  0  0  0  0
 21 22  1  0  0  0  0
 22 23  2  0  0  0  0
 23  8  1  0  0  0  0
 24 27  1  0  0  0  0
 25 28  1  0  0  0  0
 26 29  2  0  0  0  0
 28 24  1  0  0  0  0
 29 31  1  0  0  0  0
 30 22  1  1  0  0  0
 30 25  1  0  0  0  0
 30 29  1  0  0  0  0
 31 24  2  0  0  0  0
M  END
>  <MODEL>
9

>  <REMARK>
 VINA RESULT:      -7.2      2.838      5.274
  Name = 
  2 active torsions:
  status: ('A' for Active; 'I' for Inactive)
    1  A    between atoms: C_5  and  C_30
    2  A    between atoms: N_10  and  N_16
                            x       y       z     vdW  Elec       q    Type
                         _______ _______ _______ _____ _____    ______ ____

>  <TORSDO>
F 2

$$$$
