=
 OpenBabel11112416583D

 31 35  0  0  1  0  0  0  0  0999 V2000
  184.2900  178.4920  146.1560 C   0  0  0  0  0  0  0  0  0  0  0  0
  186.9240  177.2790  143.7530 C   0  0  0  0  0  0  0  0  0  0  0  0
  186.4010  177.4450  142.4330 C   0  0  0  0  0  0  0  0  0  0  0  0
  184.6430  178.1220  140.8750 C   0  0  0  0  0  0  0  0  0  0  0  0
  186.2300  177.6230  144.9530 C   0  0  0  0  0  0  0  0  0  0  0  0
  184.9290  178.2710  147.3740 C   0  0  0  0  0  3  0  0  0  0  0  0
  185.1230  177.9740  142.1780 C   0  0  0  0  0  3  0  0  0  0  0  0
  188.8050  176.5440  145.1390 C   0  0  0  0  0  0  0  0  0  0  0  0
  183.0420  179.0180  146.1320 F   0  0  0  0  0  0  0  0  0  0  0  0
  188.4580  176.5370  141.5150 C   0  0  0  0  0  3  0  0  0  0  0  0
  183.3760  178.6480  140.6570 O   0  0  0  0  0  1  0  0  0  0  0  0
  188.1120  176.8810  146.2560 N   0  0  0  0  0  0  0  0  0  0  0  0
  188.2320  176.7320  143.8750 C   0  0  0  0  0  0  0  0  0  0  0  0
  190.1200  175.9900  145.2530 N   0  0  0  0  0  2  0  0  0  0  0  0
  184.9350  178.1710  144.9600 C   0  0  0  0  0  3  0  0  0  0  0  0
  185.4350  177.7410  139.7930 C   0  0  0  0  0  3  0  0  0  0  0  0
  186.8650  177.4060  146.2010 C   0  0  0  0  0  0  0  0  0  0  0  0
  186.2150  177.7300  147.3970 C   0  0  0  0  0  3  0  0  0  0  0  0
  188.9440  176.3840  142.7690 N   0  0  0  0  0  0  0  0  0  0  0  0
  187.1900  177.0650  141.3190 C   0  0  0  0  0  0  0  0  0  0  0  0
  186.7070  177.2140  140.0140 C   0  0  0  0  0  3  0  0  0  0  0  0
  190.5950  177.0130  147.4230 C   0  0  0  0  0  1  0  0  0  0  0  0
  190.7910  175.7960  146.5320 C   0  0  2  0  0  3  0  0  0  0  0  0
  194.9760  175.0130  145.9200 C   0  0  0  0  0  0  0  0  0  0  0  0
  193.2130  176.4760  146.7000 C   0  0  0  0  0  3  0  0  0  0  0  0
  191.7500  173.3870  145.3630 F   0  0  0  0  0  0  0  0  0  0  0  0
  196.2930  174.7640  145.7260 F   0  0  0  0  0  0  0  0  0  0  0  0
  194.5720  176.2180  146.5000 C   0  0  0  0  0  3  0  0  0  0  0  0
  192.6610  174.3190  145.7380 C   0  0  0  0  0  0  0  0  0  0  0  0
  192.2490  175.5280  146.3200 C   0  0  0  0  0  0  0  0  0  0  0  0
  194.0220  174.0650  145.5400 C   0  0  0  0  0  3  0  0  0  0  0  0
  1  6  1  0  0  0  0
  2 13  1  0  0  0  0
  2  5  1  0  0  0  0
  3  2  2  0  0  0  0
  4  7  2  0  0  0  0
  5 15  1  0  0  0  0
  5 17  2  0  0  0  0
  6 18  2  0  0  0  0
  7  3  1  0  0  0  0
  8 14  1  0  0  0  0
  8 12  2  0  0  0  0
  9  1  1  0  0  0  0
 10 19  1  0  0  0  0
 11  4  1  0  0  0  0
 13  8  1  0  0  0  0
 14 23  1  0  0  0  0
 15  1  2  0  0  0  0
 16 21  2  0  0  0  0
 16  4  1  0  0  0  0
 17 12  1  0  0  0  0
 17 18  1  0  0  0  0
 19 13  2  0  0  0  0
 20 10  2  0  0  0  0
 20  3  1  0  0  0  0
 21 20  1  0  0  0  0
 23 22  1  1  0  0  0
 24 28  1  0  0  0  0
 26 29  1  0  0  0  0
 27 24  1  0  0  0  0
 28 25  2  0  0  0  0
 29 30  2  0  0  0  0
 30 23  1  0  0  0  0
 30 25  1  0  0  0  0
 31 29  1  0  0  0  0
 31 24  2  0  0  0  0
M  END
>  <MODEL>
1

>  <REMARK>
 VINA RESULT:      -9.9      0.000      0.000
  Name = 
  2 active torsions:
  status: ('A' for Active; 'I' for Inactive)
    1  A    between atoms: C_5  and  N_16
    2  A    between atoms: C_5  and  C_30
                            x       y       z     vdW  Elec       q    Type
                         _______ _______ _______ _____ _____    ______ ____

>  <TORSDO>
F 2

$$$$
=
 OpenBabel11112416583D

 31 35  0  0  1  0  0  0  0  0999 V2000
  184.9310  178.0230  146.8650 C   0  0  0  0  0  0  0  0  0  0  0  0
  186.7000  177.6160  143.5670 C   0  0  0  0  0  0  0  0  0  0  0  0
  185.7290  177.8180  142.5370 C   0  0  0  0  0  0  0  0  0  0  0  0
  183.4570  178.3040  141.7760 C   0  0  0  0  0  0  0  0  0  0  0  0
  186.4290  177.6850  144.9670 C   0  0  0  0  0  0  0  0  0  0  0  0
  185.9820  177.8000  147.7530 C   0  0  0  0  0  3  0  0  0  0  0  0
  184.3800  178.1120  142.8070 C   0  0  0  0  0  3  0  0  0  0  0  0
  189.0350  177.1170  144.1170 C   0  0  0  0  0  0  0  0  0  0  0  0
  183.6910  178.2940  147.3390 F   0  0  0  0  0  0  0  0  0  0  0  0
  187.4410  177.4360  140.8580 C   0  0  0  0  0  3  0  0  0  0  0  0
  182.1320  178.5920  142.0760 O   0  0  0  0  0  1  0  0  0  0  0  0
  188.7370  177.1890  145.4390 N   0  0  0  0  0  0  0  0  0  0  0  0
  188.0330  177.3260  143.1600 C   0  0  0  0  0  0  0  0  0  0  0  0
  190.3720  176.8220  143.7000 N   0  0  0  0  0  2  0  0  0  0  0  0
  185.1540  177.9650  145.4890 C   0  0  0  0  0  3  0  0  0  0  0  0
  183.8650  178.2050  140.4470 C   0  0  0  0  0  3  0  0  0  0  0  0
  187.4880  177.4630  145.8840 C   0  0  0  0  0  0  0  0  0  0  0  0
  187.2580  177.5220  147.2620 C   0  0  0  0  0  3  0  0  0  0  0  0
  188.3540  177.2460  141.8400 N   0  0  0  0  0  0  0  0  0  0  0  0
  186.1230  177.7240  141.1790 C   0  0  0  0  0  0  0  0  0  0  0  0
  185.1960  177.9160  140.1490 C   0  0  0  0  0  3  0  0  0  0  0  0
  192.6330  177.5410  144.2910 C   0  0  0  0  0  1  0  0  0  0  0  0
  191.4700  176.6260  144.6380 C   0  0  2  0  0  3  0  0  0  0  0  0
  192.7340  172.5140  144.6370 C   0  0  0  0  0  0  0  0  0  0  0  0
  191.5330  174.3340  143.5880 C   0  0  0  0  0  3  0  0  0  0  0  0
  193.0760  175.5100  146.7040 F   0  0  0  0  0  0  0  0  0  0  0  0
  193.1340  171.2200  144.6390 F   0  0  0  0  0  0  0  0  0  0  0  0
  191.9460  172.9990  143.5910 C   0  0  0  0  0  3  0  0  0  0  0  0
  192.7000  174.7000  145.6820 C   0  0  0  0  0  0  0  0  0  0  0  0
  191.9070  175.1930  144.6340 C   0  0  0  0  0  0  0  0  0  0  0  0
  193.1110  173.3630  145.6810 C   0  0  0  0  0  3  0  0  0  0  0  0
  1  9  1  0  0  0  0
  1  6  1  0  0  0  0
  2  5  1  0  0  0  0
  3  7  1  0  0  0  0
  3  2  2  0  0  0  0
  4 11  1  0  0  0  0
  4  7  2  0  0  0  0
  5 15  1  0  0  0  0
  5 17  2  0  0  0  0
  8 12  2  0  0  0  0
 10 20  2  0  0  0  0
 10 19  1  0  0  0  0
 12 17  1  0  0  0  0
 13  2  1  0  0  0  0
 13  8  1  0  0  0  0
 14  8  1  0  0  0  0
 14 23  1  0  0  0  0
 15  1  2  0  0  0  0
 16  4  1  0  0  0  0
 17 18  1  0  0  0  0
 18  6  2  0  0  0  0
 19 13  2  0  0  0  0
 20  3  1  0  0  0  0
 21 16  2  0  0  0  0
 21 20  1  0  0  0  0
 23 22  1  6  0  0  0
 24 27  1  0  0  0  0
 24 31  1  0  0  0  0
 25 28  1  0  0  0  0
 25 30  2  0  0  0  0
 28 24  2  0  0  0  0
 29 26  1  0  0  0  0
 30 23  1  0  0  0  0
 30 29  1  0  0  0  0
 31 29  2  0  0  0  0
M  END
>  <MODEL>
2

>  <REMARK>
 VINA RESULT:      -9.8      1.554      2.156
  Name = 
  2 active torsions:
  status: ('A' for Active; 'I' for Inactive)
    1  A    between atoms: C_5  and  N_16
    2  A    between atoms: C_5  and  C_30
                            x       y       z     vdW  Elec       q    Type
                         _______ _______ _______ _____ _____    ______ ____

>  <TORSDO>
F 2

$$$$
=
 OpenBabel11112416583D

 31 35  0  0  1  0  0  0  0  0999 V2000
  185.4130  178.0000  140.9900 C   0  0  0  0  0  0  0  0  0  0  0  0
  187.2410  176.8610  144.0780 C   0  0  0  0  0  0  0  0  0  0  0  0
  186.4630  177.2710  145.2060 C   0  0  0  0  0  0  0  0  0  0  0  0
  184.5130  178.3530  146.2070 C   0  0  0  0  0  0  0  0  0  0  0  0
  186.8900  177.1030  142.7160 C   0  0  0  0  0  0  0  0  0  0  0  0
  186.2730  177.5400  139.9950 C   0  0  0  0  0  3  0  0  0  0  0  0
  185.2480  177.9680  145.0830 C   0  0  0  0  0  3  0  0  0  0  0  0
  189.2620  175.7300  143.2800 C   0  0  0  0  0  0  0  0  0  0  0  0
  184.2780  178.6570  140.6520 F   0  0  0  0  0  0  0  0  0  0  0  0
  188.1130  176.2840  146.6900 C   0  0  0  0  0  3  0  0  0  0  0  0
  183.3170  179.0410  146.0520 O   0  0  0  0  0  1  0  0  0  0  0  0
  188.8950  175.9820  141.9990 N   0  0  0  0  0  0  0  0  0  0  0  0
  188.4530  176.1610  144.3390 C   0  0  0  0  0  0  0  0  0  0  0  0
  190.4810  175.0300  143.5510 N   0  0  0  0  0  2  0  0  0  0  0  0
  185.7190  177.7820  142.3340 C   0  0  0  0  0  3  0  0  0  0  0  0
  184.9810  178.0480  147.4840 C   0  0  0  0  0  3  0  0  0  0  0  0
  187.7540  176.6420  141.6910 C   0  0  0  0  0  0  0  0  0  0  0  0
  187.4410  176.8620  140.3450 C   0  0  0  0  0  3  0  0  0  0  0  0
  188.8420  175.9000  145.6170 N   0  0  0  0  0  0  0  0  0  0  0  0
  186.9200  176.9690  146.5130 C   0  0  0  0  0  0  0  0  0  0  0  0
  186.1830  177.3570  147.6370 C   0  0  0  0  0  3  0  0  0  0  0  0
  191.4030  173.0060  142.5350 C   0  0  0  0  0  1  0  0  0  0  0  0
  191.3550  174.5250  142.5000 C   0  0  2  0  0  3  0  0  0  0  0  0
  195.3090  176.1700  142.9100 C   0  0  0  0  0  0  0  0  0  0  0  0
  193.2040  175.5100  143.9040 C   0  0  0  0  0  3  0  0  0  0  0  0
  193.1270  174.8380  140.2970 F   0  0  0  0  0  0  0  0  0  0  0  0
  196.5550  176.6870  143.0370 F   0  0  0  0  0  0  0  0  0  0  0  0
  194.4890  176.0430  144.0340 C   0  0  0  0  0  3  0  0  0  0  0  0
  193.5600  175.2290  141.5220 C   0  0  0  0  0  0  0  0  0  0  0  0
  192.7310  175.0990  142.6470 C   0  0  0  0  0  0  0  0  0  0  0  0
  194.8450  175.7630  141.6560 C   0  0  0  0  0  3  0  0  0  0  0  0
  1 15  1  0  0  0  0
  2 13  2  0  0  0  0
  2  3  1  0  0  0  0
  3 20  1  0  0  0  0
  4 16  2  0  0  0  0
  5  2  1  0  0  0  0
  6 18  1  0  0  0  0
  6  1  2  0  0  0  0
  7  3  2  0  0  0  0
  7  4  1  0  0  0  0
  8 14  1  0  0  0  0
  8 13  1  0  0  0  0
  9  1  1  0  0  0  0
 11  4  1  0  0  0  0
 12  8  2  0  0  0  0
 13 19  1  0  0  0  0
 15  5  2  0  0  0  0
 16 21  1  0  0  0  0
 17 12  1  0  0  0  0
 17  5  1  0  0  0  0
 18 17  2  0  0  0  0
 19 10  2  0  0  0  0
 20 10  1  0  0  0  0
 20 21  2  0  0  0  0
 23 22  1  1  0  0  0
 23 30  1  0  0  0  0
 23 14  1  0  0  0  0
 24 27  1  0  0  0  0
 24 28  1  0  0  0  0
 25 28  2  0  0  0  0
 26 29  1  0  0  0  0
 29 31  1  0  0  0  0
 29 30  2  0  0  0  0
 30 25  1  0  0  0  0
 31 24  2  0  0  0  0
M  END
>  <MODEL>
3

>  <REMARK>
 VINA RESULT:      -9.4      2.611      4.626
  Name = 
  2 active torsions:
  status: ('A' for Active; 'I' for Inactive)
    1  A    between atoms: C_5  and  N_16
    2  A    between atoms: C_5  and  C_30
                            x       y       z     vdW  Elec       q    Type
                         _______ _______ _______ _____ _____    ______ ____

>  <TORSDO>
F 2

$$$$
=
 OpenBabel11112416583D

 31 35  0  0  1  0  0  0  0  0999 V2000
  191.2970  171.0150  142.7840 C   0  0  0  0  0  0  0  0  0  0  0  0
  191.9840  174.3660  144.3590 C   0  0  0  0  0  0  0  0  0  0  0  0
  193.3170  174.3260  144.8740 C   0  0  0  0  0  0  0  0  0  0  0  0
  195.4440  173.1900  145.2780 C   0  0  0  0  0  0  0  0  0  0  0  0
  191.3400  173.2850  143.6830 C   0  0  0  0  0  0  0  0  0  0  0  0
  189.9890  171.2010  142.3380 C   0  0  0  0  0  3  0  0  0  0  0  0
  194.1460  173.1940  144.7630 C   0  0  0  0  0  3  0  0  0  0  0  0
  189.9390  175.6790  144.0550 C   0  0  0  0  0  0  0  0  0  0  0  0
  191.9220  169.8320  142.5730 F   0  0  0  0  0  0  0  0  0  0  0  0
  193.0700  176.6100  145.6630 C   0  0  0  0  0  3  0  0  0  0  0  0
  196.2360  172.0570  145.1530 O   0  0  0  0  0  1  0  0  0  0  0  0
  189.3600  174.6290  143.4200 N   0  0  0  0  0  0  0  0  0  0  0  0
  191.2500  175.5730  144.5360 C   0  0  0  0  0  0  0  0  0  0  0  0
  189.2060  176.8950  144.2400 N   0  0  0  0  0  2  0  0  0  0  0  0
  191.9620  172.0470  143.4490 C   0  0  0  0  0  3  0  0  0  0  0  0
  195.9440  174.3230  145.9180 C   0  0  0  0  0  3  0  0  0  0  0  0
  190.0100  173.4580  143.2220 C   0  0  0  0  0  0  0  0  0  0  0  0
  189.3480  172.4210  142.5560 C   0  0  0  0  0  3  0  0  0  0  0  0
  191.8090  176.6370  145.1730 N   0  0  0  0  0  0  0  0  0  0  0  0
  193.8460  175.4670  145.5270 C   0  0  0  0  0  0  0  0  0  0  0  0
  195.1460  175.4600  146.0430 C   0  0  0  0  0  3  0  0  0  0  0  0
  187.8440  178.1120  142.6140 C   0  0  0  0  0  1  0  0  0  0  0  0
  187.8520  177.0890  143.7390 C   0  0  2  0  0  3  0  0  0  0  0  0
  185.2420  178.3130  146.9320 C   0  0  0  0  0  0  0  0  0  0  0  0
  186.1530  178.6730  144.7200 C   0  0  0  0  0  3  0  0  0  0  0  0
  187.6260  175.6450  146.1790 F   0  0  0  0  0  0  0  0  0  0  0  0
  184.4210  178.6960  147.9390 F   0  0  0  0  0  0  0  0  0  0  0  0
  185.3060  179.0680  145.7580 C   0  0  0  0  0  3  0  0  0  0  0  0
  186.8740  176.7650  146.0300 C   0  0  0  0  0  0  0  0  0  0  0  0
  186.9430  177.5190  144.8490 C   0  0  0  0  0  0  0  0  0  0  0  0
  186.0250  177.1630  147.0680 C   0  0  0  0  0  3  0  0  0  0  0  0
  1 15  1  0  0  0  0
  2 13  2  0  0  0  0
  2  3  1  0  0  0  0
  3 20  1  0  0  0  0
  4 16  2  0  0  0  0
  5  2  1  0  0  0  0
  6 18  1  0  0  0  0
  6  1  2  0  0  0  0
  7  3  2  0  0  0  0
  7  4  1  0  0  0  0
  8 14  1  0  0  0  0
  8 13  1  0  0  0  0
  9  1  1  0  0  0  0
 11  4  1  0  0  0  0
 12  8  2  0  0  0  0
 13 19  1  0  0  0  0
 15  5  2  0  0  0  0
 16 21  1  0  0  0  0
 17 12  1  0  0  0  0
 17  5  1  0  0  0  0
 18 17  2  0  0  0  0
 19 10  2  0  0  0  0
 20 10  1  0  0  0  0
 20 21  2  0  0  0  0
 23 22  1  6  0  0  0
 23 14  1  0  0  0  0
 23 30  1  0  0  0  0
 24 31  1  0  0  0  0
 24 27  1  0  0  0  0
 25 30  2  0  0  0  0
 25 28  1  0  0  0  0
 28 24  2  0  0  0  0
 29 26  1  0  0  0  0
 29 31  2  0  0  0  0
 30 29  1  0  0  0  0
M  END
>  <MODEL>
4

>  <REMARK>
 VINA RESULT:      -9.2      3.656      8.586
  Name = 
  2 active torsions:
  status: ('A' for Active; 'I' for Inactive)
    1  A    between atoms: C_5  and  N_16
    2  A    between atoms: C_5  and  C_30
                            x       y       z     vdW  Elec       q    Type
                         _______ _______ _______ _____ _____    ______ ____

>  <TORSDO>
F 2

$$$$
=
 OpenBabel11112416583D

 31 35  0  0  1  0  0  0  0  0999 V2000
  190.8160  176.9350  147.6400 C   0  0  0  0  0  0  0  0  0  0  0  0
  188.4600  176.3890  144.7540 C   0  0  0  0  0  0  0  0  0  0  0  0
  187.2760  177.1430  145.0260 C   0  0  0  0  0  0  0  0  0  0  0  0
  185.9430  178.6430  146.4220 C   0  0  0  0  0  0  0  0  0  0  0  0
  189.6020  176.3300  145.6100 C   0  0  0  0  0  0  0  0  0  0  0  0
  191.9000  176.1540  147.2420 C   0  0  0  0  0  3  0  0  0  0  0  0
  187.1140  177.9180  146.1880 C   0  0  0  0  0  3  0  0  0  0  0  0
  189.6290  174.8860  143.2130 C   0  0  0  0  0  0  0  0  0  0  0  0
  190.8650  177.6120  148.8130 F   0  0  0  0  0  0  0  0  0  0  0  0
  186.3160  176.3720  142.9320 C   0  0  0  0  0  3  0  0  0  0  0  0
  185.8140  179.3990  147.5800 O   0  0  0  0  0  1  0  0  0  0  0  0
  190.6930  174.8530  144.0530 N   0  0  0  0  0  0  0  0  0  0  0  0
  188.4980  175.6450  143.5410 C   0  0  0  0  0  0  0  0  0  0  0  0
  189.6580  174.1380  141.9920 N   0  0  0  0  0  2  0  0  0  0  0  0
  189.6820  177.0200  146.8320 C   0  0  0  0  0  3  0  0  0  0  0  0
  184.9040  178.6070  145.4940 C   0  0  0  0  0  3  0  0  0  0  0  0
  190.7130  175.5400  145.2200 C   0  0  0  0  0  0  0  0  0  0  0  0
  191.8480  175.4590  146.0340 C   0  0  0  0  0  3  0  0  0  0  0  0
  187.4420  175.6610  142.6840 N   0  0  0  0  0  0  0  0  0  0  0  0
  186.2080  177.1210  144.0950 C   0  0  0  0  0  0  0  0  0  0  0  0
  185.0360  177.8470  144.3320 C   0  0  0  0  0  3  0  0  0  0  0  0
  191.9270  174.2650  141.0900 C   0  0  0  0  0  1  0  0  0  0  0  0
  190.8110  173.3520  141.5710 C   0  0  2  0  0  3  0  0  0  0  0  0
  189.6910  170.5740  138.4840 C   0  0  0  0  0  0  0  0  0  0  0  0
  189.6340  172.8090  139.4080 C   0  0  0  0  0  3  0  0  0  0  0  0
  191.5950  170.6180  141.6050 F   0  0  0  0  0  0  0  0  0  0  0  0
  189.3410  169.6970  137.5130 F   0  0  0  0  0  0  0  0  0  0  0  0
  189.2730  171.9050  138.4060 C   0  0  0  0  0  3  0  0  0  0  0  0
  190.8360  171.0500  140.5660 C   0  0  0  0  0  0  0  0  0  0  0  0
  190.4180  172.3880  140.4950 C   0  0  0  0  0  0  0  0  0  0  0  0
  190.4720  170.1470  139.5620 C   0  0  0  0  0  3  0  0  0  0  0  0
  1  9  1  0  0  0  0
  2  3  1  0  0  0  0
  2  5  1  0  0  0  0
  3  7  1  0  0  0  0
  4 11  1  0  0  0  0
  5 15  1  0  0  0  0
  6  1  1  0  0  0  0
  7  4  2  0  0  0  0
  8 13  1  0  0  0  0
  8 12  2  0  0  0  0
 10 20  1  0  0  0  0
 12 17  1  0  0  0  0
 13  2  2  0  0  0  0
 14  8  1  0  0  0  0
 15  1  2  0  0  0  0
 16  4  1  0  0  0  0
 17  5  2  0  0  0  0
 17 18  1  0  0  0  0
 18  6  2  0  0  0  0
 19 10  2  0  0  0  0
 19 13  1  0  0  0  0
 20 21  1  0  0  0  0
 20  3  2  0  0  0  0
 21 16  2  0  0  0  0
 23 22  1  6  0  0  0
 23 14  1  0  0  0  0
 24 31  1  0  0  0  0
 25 30  2  0  0  0  0
 27 24  1  0  0  0  0
 28 24  2  0  0  0  0
 28 25  1  0  0  0  0
 29 26  1  0  0  0  0
 30 29  1  0  0  0  0
 30 23  1  0  0  0  0
 31 29  2  0  0  0  0
M  END
>  <MODEL>
5

>  <REMARK>
 VINA RESULT:      -9.0      3.843      6.195
  Name = 
  2 active torsions:
  status: ('A' for Active; 'I' for Inactive)
    1  A    between atoms: C_5  and  N_16
    2  A    between atoms: C_5  and  C_30
                            x       y       z     vdW  Elec       q    Type
                         _______ _______ _______ _____ _____    ______ ____

>  <TORSDO>
F 2

$$$$
=
 OpenBabel11112416583D

 31 35  0  0  1  0  0  0  0  0999 V2000
  195.3090  176.1970  143.8990 C   0  0  0  0  0  0  0  0  0  0  0  0
  191.9810  175.0300  142.5810 C   0  0  0  0  0  0  0  0  0  0  0  0
  192.2250  174.3770  141.3330 C   0  0  0  0  0  0  0  0  0  0  0  0
  193.7140  173.5990  139.5570 C   0  0  0  0  0  0  0  0  0  0  0  0
  192.9890  175.6160  143.4040 C   0  0  0  0  0  0  0  0  0  0  0  0
  194.9180  176.8030  145.0920 C   0  0  0  0  0  3  0  0  0  0  0  0
  193.5110  174.2430  140.7790 C   0  0  0  0  0  3  0  0  0  0  0  0
  190.3220  175.7230  144.2450 C   0  0  0  0  0  0  0  0  0  0  0  0
  196.6170  176.1780  143.5470 F   0  0  0  0  0  0  0  0  0  0  0  0
  189.8470  173.9370  141.1080 C   0  0  0  0  0  3  0  0  0  0  0  0
  194.9970  173.4840  139.0370 O   0  0  0  0  0  1  0  0  0  0  0  0
  191.3090  176.2700  144.9980 N   0  0  0  0  0  0  0  0  0  0  0  0
  190.6310  175.0970  143.0310 C   0  0  0  0  0  0  0  0  0  0  0  0
  188.9630  175.7890  144.6890 N   0  0  0  0  0  2  0  0  0  0  0  0
  194.3540  175.6120  143.0660 C   0  0  0  0  0  3  0  0  0  0  0  0
  192.6290  173.0710  138.8580 C   0  0  0  0  0  3  0  0  0  0  0  0
  192.6090  176.2360  144.6210 C   0  0  0  0  0  0  0  0  0  0  0  0
  193.5700  176.8210  145.4520 C   0  0  0  0  0  3  0  0  0  0  0  0
  189.6260  174.5570  142.2900 N   0  0  0  0  0  0  0  0  0  0  0  0
  191.1370  173.8320  140.6070 C   0  0  0  0  0  0  0  0  0  0  0  0
  191.3420  173.1880  139.3820 C   0  0  0  0  0  3  0  0  0  0  0  0
  188.5510  175.3500  147.0590 C   0  0  0  0  0  1  0  0  0  0  0  0
  188.5710  176.3950  145.9550 C   0  0  2  0  0  3  0  0  0  0  0  0
  184.7240  178.2840  145.5760 C   0  0  0  0  0  0  0  0  0  0  0  0
  186.1760  176.6980  146.6860 C   0  0  0  0  0  3  0  0  0  0  0  0
  188.0200  178.3830  143.9970 F   0  0  0  0  0  0  0  0  0  0  0  0
  183.5150  178.8810  145.4550 F   0  0  0  0  0  0  0  0  0  0  0  0
  184.9290  177.3140  146.5610 C   0  0  0  0  0  3  0  0  0  0  0  0
  187.0190  178.0250  144.8390 C   0  0  0  0  0  0  0  0  0  0  0  0
  187.2300  177.0500  145.8260 C   0  0  0  0  0  0  0  0  0  0  0  0
  185.7680  178.6400  144.7170 C   0  0  0  0  0  3  0  0  0  0  0  0
  1  6  1  0  0  0  0
  2 13  1  0  0  0  0
  2  5  1  0  0  0  0
  3  2  2  0  0  0  0
  4  7  2  0  0  0  0
  5 17  2  0  0  0  0
  6 18  2  0  0  0  0
  7  3  1  0  0  0  0
  8 14  1  0  0  0  0
  8 12  2  0  0  0  0
  9  1  1  0  0  0  0
 10 19  1  0  0  0  0
 11  4  1  0  0  0  0
 13  8  1  0  0  0  0
 14 23  1  0  0  0  0
 15  5  1  0  0  0  0
 15  1  2  0  0  0  0
 16 21  2  0  0  0  0
 16  4  1  0  0  0  0
 17 12  1  0  0  0  0
 17 18  1  0  0  0  0
 19 13  2  0  0  0  0
 20 10  2  0  0  0  0
 20  3  1  0  0  0  0
 21 20  1  0  0  0  0
 23 22  1  1  0  0  0
 24 28  1  0  0  0  0
 26 29  1  0  0  0  0
 27 24  1  0  0  0  0
 28 25  2  0  0  0  0
 29 30  2  0  0  0  0
 30 23  1  0  0  0  0
 30 25  1  0  0  0  0
 31 29  1  0  0  0  0
 31 24  2  0  0  0  0
M  END
>  <MODEL>
6

>  <REMARK>
 VINA RESULT:      -8.9      3.750      7.935
  Name = 
  2 active torsions:
  status: ('A' for Active; 'I' for Inactive)
    1  A    between atoms: C_5  and  N_16
    2  A    between atoms: C_5  and  C_30
                            x       y       z     vdW  Elec       q    Type
                         _______ _______ _______ _____ _____    ______ ____

>  <TORSDO>
F 2

$$$$
=
 OpenBabel11112416583D

 31 35  0  0  1  0  0  0  0  0999 V2000
  191.4690  176.6020  147.4480 C   0  0  0  0  0  0  0  0  0  0  0  0
  188.9900  176.1170  144.6550 C   0  0  0  0  0  0  0  0  0  0  0  0
  187.7600  176.7150  145.0720 C   0  0  0  0  0  0  0  0  0  0  0  0
  186.3850  177.9220  146.6940 C   0  0  0  0  0  0  0  0  0  0  0  0
  190.1860  176.0870  145.4350 C   0  0  0  0  0  0  0  0  0  0  0  0
  192.5930  175.9800  146.9080 C   0  0  0  0  0  3  0  0  0  0  0  0
  187.6020  177.3480  146.3190 C   0  0  0  0  0  3  0  0  0  0  0  0
  190.1920  174.9060  142.8980 C   0  0  0  0  0  0  0  0  0  0  0  0
  191.5290  177.1570  148.6820 F   0  0  0  0  0  0  0  0  0  0  0  0
  186.7420  176.0680  142.9640 C   0  0  0  0  0  3  0  0  0  0  0  0
  186.2610  178.5380  147.9320 O   0  0  0  0  0  1  0  0  0  0  0  0
  191.3080  174.8960  143.6700 N   0  0  0  0  0  0  0  0  0  0  0  0
  189.0190  175.5090  143.3680 C   0  0  0  0  0  0  0  0  0  0  0  0
  190.2120  174.2930  141.6040 N   0  0  0  0  0  2  0  0  0  0  0  0
  190.2800  176.6540  146.7180 C   0  0  0  0  0  3  0  0  0  0  0  0
  185.2950  177.8750  145.8260 C   0  0  0  0  0  3  0  0  0  0  0  0
  191.3390  175.4590  144.9010 C   0  0  0  0  0  0  0  0  0  0  0  0
  192.5280  175.4100  145.6370 C   0  0  0  0  0  3  0  0  0  0  0  0
  187.9110  175.5050  142.5780 N   0  0  0  0  0  0  0  0  0  0  0  0
  186.6400  176.6800  144.2050 C   0  0  0  0  0  0  0  0  0  0  0  0
  185.4220  177.2550  144.5830 C   0  0  0  0  0  3  0  0  0  0  0  0
  191.3270  173.6710  139.5190 C   0  0  0  0  0  1  0  0  0  0  0  0
  191.4040  173.6760  141.0370 C   0  0  2  0  0  3  0  0  0  0  0  0
  191.8860  169.6760  142.5450 C   0  0  0  0  0  0  0  0  0  0  0  0
  190.5820  171.3100  141.3270 C   0  0  0  0  0  3  0  0  0  0  0  0
  193.6830  172.8600  142.5310 F   0  0  0  0  0  0  0  0  0  0  0  0
  192.0410  168.4170  143.0210 F   0  0  0  0  0  0  0  0  0  0  0  0
  190.7420  170.0110  141.8170 C   0  0  0  0  0  3  0  0  0  0  0  0
  192.7150  171.9390  142.2920 C   0  0  0  0  0  0  0  0  0  0  0  0
  191.5680  172.2820  141.5610 C   0  0  0  0  0  0  0  0  0  0  0  0
  192.8720  170.6390  142.7820 C   0  0  0  0  0  3  0  0  0  0  0  0
  1  9  1  0  0  0  0
  2  3  1  0  0  0  0
  2  5  1  0  0  0  0
  3  7  1  0  0  0  0
  4 11  1  0  0  0  0
  5 15  1  0  0  0  0
  6  1  1  0  0  0  0
  7  4  2  0  0  0  0
  8 13  1  0  0  0  0
  8 12  2  0  0  0  0
 10 20  1  0  0  0  0
 12 17  1  0  0  0  0
 13  2  2  0  0  0  0
 14  8  1  0  0  0  0
 15  1  2  0  0  0  0
 16  4  1  0  0  0  0
 17  5  2  0  0  0  0
 17 18  1  0  0  0  0
 18  6  2  0  0  0  0
 19 10  2  0  0  0  0
 19 13  1  0  0  0  0
 20 21  1  0  0  0  0
 20  3  2  0  0  0  0
 21 16  2  0  0  0  0
 23 22  1  6  0  0  0
 23 30  1  0  0  0  0
 23 14  1  0  0  0  0
 24 31  1  0  0  0  0
 24 27  1  0  0  0  0
 25 30  2  0  0  0  0
 25 28  1  0  0  0  0
 28 24  2  0  0  0  0
 29 26  1  0  0  0  0
 29 31  2  0  0  0  0
 30 29  1  0  0  0  0
M  END
>  <MODEL>
7

>  <REMARK>
 VINA RESULT:      -8.6      3.443      5.782
  Name = 
  2 active torsions:
  status: ('A' for Active; 'I' for Inactive)
    1  A    between atoms: C_5  and  N_16
    2  A    between atoms: C_5  and  C_30
                            x       y       z     vdW  Elec       q    Type
                         _______ _______ _______ _____ _____    ______ ____

>  <TORSDO>
F 2

$$$$
=
 OpenBabel11112416583D

 31 35  0  0  1  0  0  0  0  0999 V2000
  194.8470  174.9610  145.9300 C   0  0  0  0  0  0  0  0  0  0  0  0
  191.6070  173.8830  144.3430 C   0  0  0  0  0  0  0  0  0  0  0  0
  191.8460  172.6260  143.7050 C   0  0  0  0  0  0  0  0  0  0  0  0
  193.2960  170.7570  143.0900 C   0  0  0  0  0  0  0  0  0  0  0  0
  192.5890  174.6310  145.0620 C   0  0  0  0  0  0  0  0  0  0  0  0
  194.4670  176.1750  146.4980 C   0  0  0  0  0  3  0  0  0  0  0  0
  193.0980  171.9850  143.7230 C   0  0  0  0  0  3  0  0  0  0  0  0
  189.9920  175.6520  144.8540 C   0  0  0  0  0  0  0  0  0  0  0  0
  196.1210  174.5200  146.0670 F   0  0  0  0  0  0  0  0  0  0  0  0
  189.5310  172.5690  142.9730 C   0  0  0  0  0  3  0  0  0  0  0  0
  194.5450  170.1510  143.1250 O   0  0  0  0  0  1  0  0  0  0  0  0
  190.9530  176.3340  145.5260 N   0  0  0  0  0  0  0  0  0  0  0  0
  190.2940  174.4240  144.2510 C   0  0  0  0  0  0  0  0  0  0  0  0
  188.6690  176.1910  144.7540 N   0  0  0  0  0  2  0  0  0  0  0  0
  193.9180  174.1990  145.2200 C   0  0  0  0  0  3  0  0  0  0  0  0
  192.2410  170.1390  142.4210 C   0  0  0  0  0  3  0  0  0  0  0  0
  192.2180  175.8680  145.6460 C   0  0  0  0  0  0  0  0  0  0  0  0
  193.1540  176.6270  146.3570 C   0  0  0  0  0  3  0  0  0  0  0  0
  189.3150  173.7590  143.5790 N   0  0  0  0  0  0  0  0  0  0  0  0
  190.7860  171.9800  143.0210 C   0  0  0  0  0  0  0  0  0  0  0  0
  190.9870  170.7490  142.3870 C   0  0  0  0  0  3  0  0  0  0  0  0
  188.2740  177.3040  146.8950 C   0  0  0  0  0  1  0  0  0  0  0  0
  188.2750  177.4460  145.3820 C   0  0  2  0  0  3  0  0  0  0  0  0
  184.4030  178.6720  143.9640 C   0  0  0  0  0  0  0  0  0  0  0  0
  185.8170  177.8690  145.7560 C   0  0  0  0  0  3  0  0  0  0  0  0
  187.8140  178.2910  142.7050 F   0  0  0  0  0  0  0  0  0  0  0  0
  183.1850  179.0600  143.5150 F   0  0  0  0  0  0  0  0  0  0  0  0
  184.5610  178.2690  145.2920 C   0  0  0  0  0  3  0  0  0  0  0  0
  186.7600  178.2780  143.5590 C   0  0  0  0  0  0  0  0  0  0  0  0
  186.9250  177.8710  144.8920 C   0  0  0  0  0  0  0  0  0  0  0  0
  185.5010  178.6780  143.0990 C   0  0  0  0  0  3  0  0  0  0  0  0
  1  9  1  0  0  0  0
  1  6  1  0  0  0  0
  2  5  1  0  0  0  0
  3  7  1  0  0  0  0
  3  2  2  0  0  0  0
  4 11  1  0  0  0  0
  4  7  2  0  0  0  0
  5 15  1  0  0  0  0
  5 17  2  0  0  0  0
  8 12  2  0  0  0  0
 10 20  2  0  0  0  0
 10 19  1  0  0  0  0
 12 17  1  0  0  0  0
 13  2  1  0  0  0  0
 13  8  1  0  0  0  0
 14  8  1  0  0  0  0
 14 23  1  0  0  0  0
 15  1  2  0  0  0  0
 16  4  1  0  0  0  0
 17 18  1  0  0  0  0
 18  6  2  0  0  0  0
 19 13  2  0  0  0  0
 20  3  1  0  0  0  0
 21 16  2  0  0  0  0
 21 20  1  0  0  0  0
 23 22  1  1  0  0  0
 24 28  1  0  0  0  0
 26 29  1  0  0  0  0
 27 24  1  0  0  0  0
 28 25  2  0  0  0  0
 29 30  2  0  0  0  0
 30 23  1  0  0  0  0
 30 25  1  0  0  0  0
 31 29  1  0  0  0  0
 31 24  2  0  0  0  0
M  END
>  <MODEL>
8

>  <REMARK>
 VINA RESULT:      -8.6      3.610      8.378
  Name = 
  2 active torsions:
  status: ('A' for Active; 'I' for Inactive)
    1  A    between atoms: C_5  and  N_16
    2  A    between atoms: C_5  and  C_30
                            x       y       z     vdW  Elec       q    Type
                         _______ _______ _______ _____ _____    ______ ____

>  <TORSDO>
F 2

$$$$
=
 OpenBabel11112416583D

 31 35  0  0  1  0  0  0  0  0999 V2000
  186.4180  176.9100  147.2200 C   0  0  0  0  0  0  0  0  0  0  0  0
  187.4220  176.4450  143.6210 C   0  0  0  0  0  0  0  0  0  0  0  0
  186.4190  177.0720  142.8180 C   0  0  0  0  0  0  0  0  0  0  0  0
  184.3360  178.3240  142.5490 C   0  0  0  0  0  0  0  0  0  0  0  0
  187.4100  176.3990  145.0480 C   0  0  0  0  0  0  0  0  0  0  0  0
  187.4660  176.2590  147.8680 C   0  0  0  0  0  3  0  0  0  0  0  0
  185.2970  177.7210  143.3640 C   0  0  0  0  0  3  0  0  0  0  0  0
  189.5250  175.1900  143.6700 C   0  0  0  0  0  0  0  0  0  0  0  0
  185.4230  177.4770  147.9440 F   0  0  0  0  0  0  0  0  0  0  0  0
  187.6310  176.4240  140.8150 C   0  0  0  0  0  3  0  0  0  0  0  0
  183.2400  178.9570  143.1200 O   0  0  0  0  0  1  0  0  0  0  0  0
  189.4770  175.1660  145.0260 N   0  0  0  0  0  0  0  0  0  0  0  0
  188.5080  175.8230  142.9430 C   0  0  0  0  0  0  0  0  0  0  0  0
  190.6120  174.5640  142.9810 N   0  0  0  0  0  2  0  0  0  0  0  0
  186.3920  176.9780  145.8260 C   0  0  0  0  0  3  0  0  0  0  0  0
  184.4770  178.2910  141.1630 C   0  0  0  0  0  3  0  0  0  0  0  0
  188.4690  175.7420  145.7230 C   0  0  0  0  0  0  0  0  0  0  0  0
  188.4900  175.6770  147.1210 C   0  0  0  0  0  3  0  0  0  0  0  0
  188.5750  175.8320  141.5850 N   0  0  0  0  0  0  0  0  0  0  0  0
  186.5440  177.0510  141.4060 C   0  0  0  0  0  0  0  0  0  0  0  0
  185.5800  177.6550  140.5920 C   0  0  0  0  0  3  0  0  0  0  0  0
  191.2340  172.6790  144.4090 C   0  0  0  0  0  1  0  0  0  0  0  0
  191.7200  173.9160  143.6720 C   0  0  2  0  0  3  0  0  0  0  0  0
  193.5990  176.6710  146.3900 C   0  0  0  0  0  0  0  0  0  0  0  0
  192.3260  174.6490  146.0070 C   0  0  0  0  0  3  0  0  0  0  0  0
  193.0980  176.2450  142.7940 F   0  0  0  0  0  0  0  0  0  0  0  0
  194.1910  177.5390  147.2440 F   0  0  0  0  0  0  0  0  0  0  0  0
  192.9370  175.5450  146.8880 C   0  0  0  0  0  3  0  0  0  0  0  0
  193.0380  176.0060  144.1280 C   0  0  0  0  0  0  0  0  0  0  0  0
  192.3720  174.8730  144.6220 C   0  0  0  0  0  0  0  0  0  0  0  0
  193.6490  176.9010  145.0130 C   0  0  0  0  0  3  0  0  0  0  0  0
  1  6  1  0  0  0  0
  1  9  1  0  0  0  0
  2  5  1  0  0  0  0
  3  7  1  0  0  0  0
  3  2  2  0  0  0  0
  4 11  1  0  0  0  0
  4  7  2  0  0  0  0
  5 17  2  0  0  0  0
  5 15  1  0  0  0  0
  8 12  2  0  0  0  0
 10 20  2  0  0  0  0
 10 19  1  0  0  0  0
 12 17  1  0  0  0  0
 13  2  1  0  0  0  0
 13  8  1  0  0  0  0
 14  8  1  0  0  0  0
 14 23  1  0  0  0  0
 15  1  2  0  0  0  0
 16  4  1  0  0  0  0
 17 18  1  0  0  0  0
 18  6  2  0  0  0  0
 19 13  2  0  0  0  0
 20  3  1  0  0  0  0
 21 16  2  0  0  0  0
 21 20  1  0  0  0  0
 23 22  1  1  0  0  0
 23 30  1  0  0  0  0
 24 28  1  0  0  0  0
 24 27  1  0  0  0  0
 25 28  2  0  0  0  0
 26 29  1  0  0  0  0
 29 30  2  0  0  0  0
 29 31  1  0  0  0  0
 30 25  1  0  0  0  0
 31 24  2  0  0  0  0
M  END
>  <MODEL>
9

>  <REMARK>
 VINA RESULT:      -8.6      1.847      2.506
  Name = 
  2 active torsions:
  status: ('A' for Active; 'I' for Inactive)
    1  A    between atoms: C_5  and  N_16
    2  A    between atoms: C_5  and  C_30
                            x       y       z     vdW  Elec       q    Type
                         _______ _______ _______ _____ _____    ______ ____

>  <TORSDO>
F 2

$$$$
