=
 OpenBabel11112418083D

 34 40  0  0  1  0  0  0  0  0999 V2000
  192.5280  175.9640  146.3120 C   0  0  1  0  0  3  0  0  0  0  0  0
  194.9200  175.1010  146.2610 C   0  0  0  0  0  2  0  0  0  0  0  0
  187.1140  176.8400  143.1010 C   0  0  0  0  0  0  0  0  0  0  0  0
  190.1630  176.7080  146.2350 C   0  0  2  0  0  3  0  0  0  0  0  0
  189.3990  177.5340  143.9920 C   0  0  2  0  0  3  0  0  0  0  0  0
  188.6740  178.2290  141.6380 C   0  0  0  0  0  1  0  0  0  0  0  0
  187.1000  175.7970  142.2690 C   0  0  0  0  0  2  0  0  0  0  0  0
  186.5420  177.9060  145.3150 C   0  0  0  0  0  2  0  0  0  0  0  0
  193.9030  175.9450  144.2490 C   0  0  2  0  0  3  0  0  0  0  0  0
  194.2680  174.7600  141.2550 C   0  0  0  0  0  2  0  0  0  0  0  0
  190.3220  176.6770  143.3550 O   0  0  0  0  0  0  0  0  0  0  0  0
  187.8630  177.7080  146.0790 C   0  0  0  0  0  2  0  0  0  0  0  0
  192.6550  176.0390  143.3460 C   0  0  1  0  0  3  0  0  0  0  0  0
  196.1620  174.6240  145.0130 S   0  0  0  0  0  0  0  0  0  0  0  0
  188.9420  176.9040  145.3380 C   0  0  2  0  0  3  0  0  0  0  0  0
  186.2180  176.7910  144.3130 C   0  0  0  0  0  2  0  0  0  0  0  0
  194.8310  174.1880  142.5690 C   0  0  1  0  0  3  0  0  0  0  0  0
  191.2690  176.0070  145.4480 C   0  0  1  0  0  3  0  0  0  0  0  0
  188.2300  177.8590  143.0480 C   0  0  1  0  0  3  0  0  0  0  0  0
  191.5100  176.7210  144.1100 C   0  0  2  0  0  3  0  0  0  0  0  0
  190.9520  176.0000  148.2410 C   0  0  0  0  0  2  0  0  0  0  0  0
  194.1310  176.2860  141.2360 C   0  0  0  0  0  2  0  0  0  0  0  0
  189.8460  175.9280  147.3660 O   0  0  0  0  0  0  0  0  0  0  0  0
  192.9230  176.7910  142.0340 C   0  0  0  0  0  2  0  0  0  0  0  0
  195.1300  175.2620  143.6440 C   0  0  1  0  0  3  0  0  0  0  0  0
  192.1740  175.2910  147.6380 C   0  0  0  0  0  2  0  0  0  0  0  0
  193.5990  175.2070  145.5360 C   0  0  2  0  0  3  0  0  0  0  0  0
  193.9100  173.0730  143.0550 C   0  0  0  0  0  2  0  0  0  0  0  0
  192.9970  172.7220  142.0590 O   0  0  0  0  0  0  0  0  0  0  0  0
  190.7490  172.6390  144.6380 C   0  0  0  0  0  2  0  0  0  0  0  0
  190.6510  173.0340  142.3020 C   0  0  0  0  0  2  0  0  0  0  0  0
  191.8740  172.2700  142.7540 C   0  0  2  0  0  3  0  0  0  0  0  0
  189.8850  173.2660  143.5690 C   0  0  0  0  0  2  0  0  0  0  0  0
  192.0460  172.4860  144.1290 O   0  0  0  0  0  0  0  0  0  0  0  0
  1 26  1  1  0  0  0
  3 16  1  0  0  0  0
  4 23  1  1  0  0  0
  5 11  1  6  0  0  0
  5 15  1  0  0  0  0
  6 19  1  0  0  0  0
  7  3  2  0  0  0  0
  8 12  1  0  0  0  0
  9 27  1  0  0  0  0
 10 17  1  0  0  0  0
 11 20  1  0  0  0  0
 13 20  1  0  0  0  0
 13  9  1  0  0  0  0
 14  2  1  0  0  0  0
 15 12  1  0  0  0  0
 15  4  1  0  0  0  0
 16  8  1  0  0  0  0
 17 28  1  0  0  0  0
 17 25  1  0  0  0  0
 18  4  1  0  0  0  0
 18  1  1  0  0  0  0
 19  3  1  0  0  0  0
 19  5  1  0  0  0  0
 20 18  1  0  0  0  0
 22 10  1  0  0  0  0
 22 24  1  0  0  0  0
 23 21  1  0  0  0  0
 24 13  1  0  0  0  0
 25  9  1  0  0  0  0
 25 14  1  0  0  0  0
 26 21  1  0  0  0  0
 27  2  1  0  0  0  0
 27  1  1  0  0  0  0
 29 32  1  0  0  0  0
 29 28  1  0  0  0  0
 31 32  1  0  0  0  0
 31 33  1  0  0  0  0
 32 34  1  0  0  0  0
 33 30  1  0  0  0  0
 34 30  1  0  0  0  0
M  END
>  <MODEL>
1

>  <REMARK>
 VINA RESULT:      -7.0      0.000      0.000
  Name = 
  3 active torsions:
  status: ('A' for Active; 'I' for Inactive)
    1  A    between atoms: C_17  and  C_28
    2  A    between atoms: C_28  and  O_29
    3  A    between atoms: O_29  and  C_32
                            x       y       z     vdW  Elec       q    Type
                         _______ _______ _______ _____ _____    ______ ____

>  <TORSDO>
F 3

$$$$
=
 OpenBabel11112418083D

 34 40  0  0  1  0  0  0  0  0999 V2000
  187.5150  175.7500  141.5450 C   0  0  1  0  0  3  0  0  0  0  0  0
  189.0050  174.4240  139.9660 C   0  0  0  0  0  2  0  0  0  0  0  0
  186.8040  178.2680  147.3370 C   0  0  0  0  0  0  0  0  0  0  0  0
  186.1960  177.0810  143.1700 C   0  0  2  0  0  3  0  0  0  0  0  0
  186.5490  176.4460  145.5720 C   0  0  2  0  0  3  0  0  0  0  0  0
  187.0750  175.8190  147.9980 C   0  0  0  0  0  1  0  0  0  0  0  0
  188.0550  178.5970  147.6630 C   0  0  0  0  0  2  0  0  0  0  0  0
  184.5750  178.8210  146.2910 C   0  0  0  0  0  2  0  0  0  0  0  0
  189.1300  174.0450  142.3400 C   0  0  2  0  0  3  0  0  0  0  0  0
  191.8100  173.4570  144.0640 C   0  0  0  0  0  2  0  0  0  0  0  0
  187.8640  176.0290  145.2760 O   0  0  0  0  0  0  0  0  0  0  0  0
  184.7480  178.1910  144.8980 C   0  0  0  0  0  2  0  0  0  0  0  0
  189.1380  174.6330  143.7670 C   0  0  1  0  0  3  0  0  0  0  0  0
  190.4740  173.3490  140.0730 S   0  0  0  0  0  0  0  0  0  0  0  0
  186.1330  177.5930  144.6090 C   0  0  2  0  0  3  0  0  0  0  0  0
  185.8720  179.3690  146.9020 C   0  0  0  0  0  2  0  0  0  0  0  0
  191.7100  173.7930  142.5640 C   0  0  1  0  0  3  0  0  0  0  0  0
  187.5370  176.3880  142.9330 C   0  0  1  0  0  3  0  0  0  0  0  0
  186.4300  176.8290  147.0560 C   0  0  1  0  0  3  0  0  0  0  0  0
  187.8120  175.3580  144.0390 C   0  0  2  0  0  3  0  0  0  0  0  0
  185.8940  177.5520  140.9720 C   0  0  0  0  0  2  0  0  0  0  0  0
  190.6110  172.6850  144.6210 C   0  0  0  0  0  2  0  0  0  0  0  0
  186.0600  178.1370  142.2470 O   0  0  0  0  0  0  0  0  0  0  0  0
  189.3790  173.5700  144.8490 C   0  0  0  0  0  2  0  0  0  0  0  0
  190.3970  173.3110  141.9000 C   0  0  1  0  0  3  0  0  0  0  0  0
  187.1780  176.8370  140.5250 C   0  0  0  0  0  2  0  0  0  0  0  0
  188.8800  175.1190  141.3020 C   0  0  2  0  0  3  0  0  0  0  0  0
  191.9830  175.2820  142.3740 C   0  0  0  0  0  2  0  0  0  0  0  0
  192.7990  175.7660  143.3980 O   0  0  0  0  0  0  0  0  0  0  0  0
  190.4530  178.2570  143.4070 C   0  0  0  0  0  2  0  0  0  0  0  0
  191.6450  177.0300  145.0490 C   0  0  0  0  0  2  0  0  0  0  0  0
  192.2910  177.0340  143.6830 C   0  0  2  0  0  3  0  0  0  0  0  0
  190.4170  177.8690  144.8670 C   0  0  0  0  0  2  0  0  0  0  0  0
  191.3180  177.3810  142.7360 O   0  0  0  0  0  0  0  0  0  0  0  0
  1 26  1  6  0  0  0
  1 18  1  0  0  0  0
  2 14  1  0  0  0  0
  2 27  1  0  0  0  0
  3  7  2  0  0  0  0
  4 23  1  6  0  0  0
  4 15  1  0  0  0  0
  5 11  1  6  0  0  0
  5 19  1  0  0  0  0
  8 16  1  0  0  0  0
  9 13  1  0  0  0  0
 10 22  1  0  0  0  0
 12  8  1  0  0  0  0
 13 20  1  0  0  0  0
 13 24  1  0  0  0  0
 14 25  1  0  0  0  0
 15 12  1  0  0  0  0
 15  5  1  0  0  0  0
 16  3  1  0  0  0  0
 17 10  1  0  0  0  0
 18  4  1  0  0  0  0
 18 20  1  0  0  0  0
 19  3  1  0  0  0  0
 19  6  1  0  0  0  0
 20 11  1  0  0  0  0
 21 23  1  0  0  0  0
 22 24  1  0  0  0  0
 25  9  1  0  0  0  0
 25 17  1  0  0  0  0
 26 21  1  0  0  0  0
 27  1  1  0  0  0  0
 27  9  1  0  0  0  0
 28 17  1  0  0  0  0
 28 29  1  0  0  0  0
 29 32  1  0  0  0  0
 30 33  1  0  0  0  0
 32 31  1  0  0  0  0
 33 31  1  0  0  0  0
 34 30  1  0  0  0  0
 34 32  1  0  0  0  0
M  END
>  <MODEL>
2

>  <REMARK>
 VINA RESULT:      -6.7      2.529      5.406
  Name = 
  3 active torsions:
  status: ('A' for Active; 'I' for Inactive)
    1  A    between atoms: C_17  and  C_28
    2  A    between atoms: C_28  and  O_29
    3  A    between atoms: O_29  and  C_32
                            x       y       z     vdW  Elec       q    Type
                         _______ _______ _______ _____ _____    ______ ____

>  <TORSDO>
F 3

$$$$
=
 OpenBabel11112418083D

 34 40  0  0  1  0  0  0  0  0999 V2000
  189.9960  173.2790  142.2520 C   0  0  1  0  0  3  0  0  0  0  0  0
  187.7530  174.4810  142.2140 C   0  0  0  0  0  2  0  0  0  0  0  0
  195.8920  173.0840  144.6170 C   0  0  0  0  0  0  0  0  0  0  0  0
  192.2090  172.1760  142.4350 C   0  0  2  0  0  3  0  0  0  0  0  0
  194.1190  173.7350  142.9040 C   0  0  2  0  0  3  0  0  0  0  0  0
  195.9790  175.3830  143.5170 C   0  0  0  0  0  1  0  0  0  0  0  0
  195.7240  173.5690  145.8480 C   0  0  0  0  0  2  0  0  0  0  0  0
  195.9550  171.1530  142.9930 C   0  0  0  0  0  2  0  0  0  0  0  0
  189.7720  175.7150  142.6560 C   0  0  2  0  0  3  0  0  0  0  0  0
  190.1250  178.1480  144.7680 C   0  0  0  0  0  2  0  0  0  0  0  0
  193.2470  174.6090  143.5870 O   0  0  0  0  0  0  0  0  0  0  0  0
  194.5330  171.2190  142.4120 C   0  0  0  0  0  2  0  0  0  0  0  0
  191.1440  175.7840  143.3600 C   0  0  1  0  0  3  0  0  0  0  0  0
  187.0730  176.0960  142.7180 S   0  0  0  0  0  0  0  0  0  0  0  0
  193.6090  172.2730  143.0410 C   0  0  2  0  0  3  0  0  0  0  0  0
  196.0600  171.5940  144.4590 C   0  0  0  0  0  2  0  0  0  0  0  0
  188.8740  177.2820  144.5300 C   0  0  1  0  0  3  0  0  0  0  0  0
  191.3340  173.3010  142.9860 C   0  0  1  0  0  3  0  0  0  0  0  0
  195.5610  173.9220  143.4020 C   0  0  1  0  0  3  0  0  0  0  0  0
  192.0490  174.6540  142.8470 C   0  0  2  0  0  3  0  0  0  0  0  0
  190.4350  170.8450  141.9550 C   0  0  0  0  0  2  0  0  0  0  0  0
  190.9940  178.3610  143.5240 C   0  0  0  0  0  2  0  0  0  0  0  0
  191.6060  170.9400  142.7400 O   0  0  0  0  0  0  0  0  0  0  0  0
  191.8450  177.1370  143.1690 C   0  0  0  0  0  2  0  0  0  0  0  0
  188.7390  176.7610  143.0780 C   0  0  1  0  0  3  0  0  0  0  0  0
  189.3930  171.8820  142.3990 C   0  0  0  0  0  2  0  0  0  0  0  0
  189.1150  174.3650  142.8580 C   0  0  2  0  0  3  0  0  0  0  0  0
  188.8310  176.1800  145.5840 C   0  0  0  0  0  2  0  0  0  0  0  0
  188.2460  176.6490  146.7620 O   0  0  0  0  0  0  0  0  0  0  0  0
  184.8890  177.2130  146.4120 C   0  0  0  0  0  2  0  0  0  0  0  0
  186.7210  178.3680  147.3760 C   0  0  0  0  0  2  0  0  0  0  0  0
  187.1090  177.3400  146.3390 C   0  0  2  0  0  3  0  0  0  0  0  0
  185.2250  178.2950  147.4110 C   0  0  0  0  0  2  0  0  0  0  0  0
  186.0400  176.4460  146.1830 O   0  0  0  0  0  0  0  0  0  0  0  0
  1 26  1  1  0  0  0
  1 27  1  0  0  0  0
  1 18  1  0  0  0  0
  2 14  1  0  0  0  0
  2 27  1  0  0  0  0
  3  7  2  0  0  0  0
  4 23  1  1  0  0  0
  4 18  1  0  0  0  0
  4 15  1  0  0  0  0
  5 15  1  0  0  0  0
  5 19  1  0  0  0  0
  5 11  1  1  0  0  0
  8 16  1  0  0  0  0
  9 27  1  0  0  0  0
  9 25  1  0  0  0  0
  9 13  1  0  0  0  0
 12  8  1  0  0  0  0
 12 15  1  0  0  0  0
 14 25  1  0  0  0  0
 16  3  1  0  0  0  0
 17 10  1  0  0  0  0
 17 28  1  0  0  0  0
 19  6  1  0  0  0  0
 19  3  1  0  0  0  0
 20 18  1  0  0  0  0
 20 13  1  0  0  0  0
 20 11  1  0  0  0  0
 21 26  1  0  0  0  0
 21 23  1  0  0  0  0
 22 10  1  0  0  0  0
 24 13  1  0  0  0  0
 24 22  1  0  0  0  0
 25 17  1  0  0  0  0
 28 29  1  0  0  0  0
 30 33  1  0  0  0  0
 31 33  1  0  0  0  0
 32 29  1  0  0  0  0
 32 31  1  0  0  0  0
 34 32  1  0  0  0  0
 34 30  1  0  0  0  0
M  END
>  <MODEL>
3

>  <REMARK>
 VINA RESULT:      -6.7      2.564      7.289
  Name = 
  3 active torsions:
  status: ('A' for Active; 'I' for Inactive)
    1  A    between atoms: C_17  and  C_28
    2  A    between atoms: C_28  and  O_29
    3  A    between atoms: O_29  and  C_32
                            x       y       z     vdW  Elec       q    Type
                         _______ _______ _______ _____ _____    ______ ____

>  <TORSDO>
F 3

$$$$
=
 OpenBabel11112418083D

 34 40  0  0  1  0  0  0  0  0999 V2000
  189.0300  174.8340  142.5550 C   0  0  1  0  0  3  0  0  0  0  0  0
  191.2370  173.5860  142.7610 C   0  0  0  0  0  2  0  0  0  0  0  0
  185.1220  179.1850  145.0410 C   0  0  0  0  0  0  0  0  0  0  0  0
  186.9420  176.1670  142.4480 C   0  0  2  0  0  3  0  0  0  0  0  0
  186.0030  176.8190  144.6820 C   0  0  2  0  0  3  0  0  0  0  0  0
  185.1970  177.5510  146.9980 C   0  0  0  0  0  1  0  0  0  0  0  0
  185.9710  180.0480  145.6000 C   0  0  0  0  0  2  0  0  0  0  0  0
  183.7650  178.3830  143.0710 C   0  0  0  0  0  2  0  0  0  0  0  0
  190.1010  174.3550  144.7390 C   0  0  2  0  0  3  0  0  0  0  0  0
  191.4780  175.5860  147.4020 C   0  0  0  0  0  2  0  0  0  0  0  0
  187.3010  176.8190  145.2360 O   0  0  0  0  0  0  0  0  0  0  0  0
  184.7080  177.3170  142.4860 C   0  0  0  0  0  2  0  0  0  0  0  0
  189.2950  175.4660  145.4440 C   0  0  1  0  0  3  0  0  0  0  0  0
  192.5030  173.2740  144.0360 S   0  0  0  0  0  0  0  0  0  0  0  0
  186.0760  177.1950  143.1750 C   0  0  2  0  0  3  0  0  0  0  0  0
  184.4810  179.5680  143.7320 C   0  0  0  0  0  2  0  0  0  0  0  0
  192.1700  175.1720  146.0900 C   0  0  1  0  0  3  0  0  0  0  0  0
  188.2530  175.9740  143.2090 C   0  0  1  0  0  3  0  0  0  0  0  0
  185.0760  177.7420  145.4910 C   0  0  1  0  0  3  0  0  0  0  0  0
  187.9750  175.7060  144.6960 C   0  0  2  0  0  3  0  0  0  0  0  0
  187.8280  175.4870  140.4730 C   0  0  0  0  0  2  0  0  0  0  0  0
  190.2340  174.7620  147.7490 C   0  0  0  0  0  2  0  0  0  0  0  0
  187.2360  176.5860  141.1350 O   0  0  0  0  0  0  0  0  0  0  0  0
  189.0050  175.1490  146.9180 C   0  0  0  0  0  2  0  0  0  0  0  0
  191.4620  174.0130  145.3460 C   0  0  1  0  0  3  0  0  0  0  0  0
  189.2050  175.1640  141.0720 C   0  0  0  0  0  2  0  0  0  0  0  0
  190.3600  174.6980  143.2860 C   0  0  2  0  0  3  0  0  0  0  0  0
  192.3790  176.4150  145.2300 C   0  0  0  0  0  2  0  0  0  0  0  0
  193.7080  176.8380  145.2930 O   0  0  0  0  0  0  0  0  0  0  0  0
  194.7790  176.1180  142.1240 C   0  0  0  0  0  2  0  0  0  0  0  0
  195.8080  176.5220  144.2220 C   0  0  0  0  0  2  0  0  0  0  0  0
  194.3610  176.0950  144.3100 C   0  0  2  0  0  3  0  0  0  0  0  0
  196.0940  176.5200  142.7510 C   0  0  0  0  0  2  0  0  0  0  0  0
  193.7580  176.3200  143.0640 O   0  0  0  0  0  0  0  0  0  0  0  0
  1 26  1  6  0  0  0
  1 18  1  0  0  0  0
  1 27  1  0  0  0  0
  2 27  1  0  0  0  0
  2 14  1  0  0  0  0
  3 19  1  0  0  0  0
  3  7  2  0  0  0  0
  4 23  1  6  0  0  0
  4 15  1  0  0  0  0
  4 18  1  0  0  0  0
  5 11  1  1  0  0  0
  5 19  1  0  0  0  0
  8 16  1  0  0  0  0
  9 25  1  0  0  0  0
  9 13  1  0  0  0  0
 10 22  1  0  0  0  0
 12  8  1  0  0  0  0
 12 15  1  0  0  0  0
 13 24  1  0  0  0  0
 14 25  1  0  0  0  0
 15  5  1  0  0  0  0
 16  3  1  0  0  0  0
 17 10  1  0  0  0  0
 18 20  1  0  0  0  0
 19  6  1  0  0  0  0
 20 11  1  0  0  0  0
 20 13  1  0  0  0  0
 21 26  1  0  0  0  0
 21 23  1  0  0  0  0
 24 22  1  0  0  0  0
 25 17  1  0  0  0  0
 27  9  1  0  0  0  0
 28 29  1  0  0  0  0
 28 17  1  0  0  0  0
 30 33  1  0  0  0  0
 30 34  1  0  0  0  0
 31 32  1  0  0  0  0
 32 29  1  0  0  0  0
 33 31  1  0  0  0  0
 34 32  1  0  0  0  0
M  END
>  <MODEL>
4

>  <REMARK>
 VINA RESULT:      -6.6      2.163      5.230
  Name = 
  3 active torsions:
  status: ('A' for Active; 'I' for Inactive)
    1  A    between atoms: C_17  and  C_28
    2  A    between atoms: C_28  and  O_29
    3  A    between atoms: O_29  and  C_32
                            x       y       z     vdW  Elec       q    Type
                         _______ _______ _______ _____ _____    ______ ____

>  <TORSDO>
F 3

$$$$
=
 OpenBabel11112418083D

 34 40  0  0  1  0  0  0  0  0999 V2000
  190.6390  173.2620  141.9680 C   0  0  1  0  0  3  0  0  0  0  0  0
  188.2060  174.0050  141.9150 C   0  0  0  0  0  2  0  0  0  0  0  0
  196.4030  174.0850  144.5150 C   0  0  0  0  0  0  0  0  0  0  0  0
  193.0210  172.6020  142.1690 C   0  0  2  0  0  3  0  0  0  0  0  0
  194.5770  174.4740  142.7790 C   0  0  2  0  0  3  0  0  0  0  0  0
  196.0630  176.4150  143.5360 C   0  0  0  0  0  1  0  0  0  0  0  0
  196.1150  174.4590  145.7630 C   0  0  0  0  0  2  0  0  0  0  0  0
  196.8810  172.2970  142.8000 C   0  0  0  0  0  2  0  0  0  0  0  0
  189.9340  175.5820  142.4860 C   0  0  2  0  0  3  0  0  0  0  0  0
  189.7540  177.9160  144.7270 C   0  0  0  0  0  2  0  0  0  0  0  0
  193.5350  175.1230  143.4760 O   0  0  0  0  0  0  0  0  0  0  0  0
  195.4870  172.1180  142.1750 C   0  0  0  0  0  2  0  0  0  0  0  0
  191.2490  175.8770  143.2370 C   0  0  1  0  0  3  0  0  0  0  0  0
  187.2110  175.4270  142.4760 S   0  0  0  0  0  0  0  0  0  0  0  0
  194.3600  172.9350  142.8250 C   0  0  2  0  0  3  0  0  0  0  0  0
  196.8640  172.6680  144.2890 C   0  0  0  0  0  2  0  0  0  0  0  0
  188.7030  176.8380  144.4050 C   0  0  1  0  0  3  0  0  0  0  0  0
  191.9300  173.5030  142.7460 C   0  0  1  0  0  3  0  0  0  0  0  0
  195.9430  174.9100  143.3340 C   0  0  1  0  0  3  0  0  0  0  0  0
  192.3690  174.9740  142.6990 C   0  0  2  0  0  3  0  0  0  0  0  0
  191.5540  170.9810  141.5630 C   0  0  0  0  0  2  0  0  0  0  0  0
  190.5920  178.3620  143.5260 C   0  0  0  0  0  2  0  0  0  0  0  0
  192.6640  171.2570  142.3910 O   0  0  0  0  0  0  0  0  0  0  0  0
  191.6750  177.3490  143.1380 C   0  0  0  0  0  2  0  0  0  0  0  0
  188.7060  176.3820  142.9250 C   0  0  1  0  0  3  0  0  0  0  0  0
  190.3180  171.7690  142.0240 C   0  0  0  0  0  2  0  0  0  0  0  0
  189.5490  174.1210  142.5970 C   0  0  2  0  0  3  0  0  0  0  0  0
  188.8520  175.6910  145.4000 C   0  0  0  0  0  2  0  0  0  0  0  0
  189.0850  176.1840  146.6850 O   0  0  0  0  0  0  0  0  0  0  0  0
  191.9690  174.3670  146.3720 C   0  0  0  0  0  2  0  0  0  0  0  0
  191.3450  176.4170  147.3890 C   0  0  0  0  0  2  0  0  0  0  0  0
  190.1950  175.4700  147.1400 C   0  0  2  0  0  3  0  0  0  0  0  0
  192.5430  175.6660  146.8880 C   0  0  0  0  0  2  0  0  0  0  0  0
  190.5920  174.5380  146.1700 O   0  0  0  0  0  0  0  0  0  0  0  0
  1 26  1  1  0  0  0
  1 27  1  0  0  0  0
  1 18  1  0  0  0  0
  2 14  1  0  0  0  0
  2 27  1  0  0  0  0
  3  7  2  0  0  0  0
  4 23  1  1  0  0  0
  4 18  1  0  0  0  0
  4 15  1  0  0  0  0
  5 15  1  0  0  0  0
  5 19  1  0  0  0  0
  5 11  1  1  0  0  0
  8 16  1  0  0  0  0
  9 27  1  0  0  0  0
  9 25  1  0  0  0  0
  9 13  1  0  0  0  0
 12  8  1  0  0  0  0
 12 15  1  0  0  0  0
 14 25  1  0  0  0  0
 16  3  1  0  0  0  0
 17 10  1  0  0  0  0
 17 28  1  0  0  0  0
 19  6  1  0  0  0  0
 19  3  1  0  0  0  0
 20 18  1  0  0  0  0
 20 13  1  0  0  0  0
 20 11  1  0  0  0  0
 21 26  1  0  0  0  0
 21 23  1  0  0  0  0
 22 10  1  0  0  0  0
 24 13  1  0  0  0  0
 24 22  1  0  0  0  0
 25 17  1  0  0  0  0
 28 29  1  0  0  0  0
 29 32  1  0  0  0  0
 30 33  1  0  0  0  0
 32 31  1  0  0  0  0
 33 31  1  0  0  0  0
 34 30  1  0  0  0  0
 34 32  1  0  0  0  0
M  END
>  <MODEL>
5

>  <REMARK>
 VINA RESULT:      -6.5      2.327      6.907
  Name = 
  3 active torsions:
  status: ('A' for Active; 'I' for Inactive)
    1  A    between atoms: C_17  and  C_28
    2  A    between atoms: C_28  and  O_29
    3  A    between atoms: O_29  and  C_32
                            x       y       z     vdW  Elec       q    Type
                         _______ _______ _______ _____ _____    ______ ____

>  <TORSDO>
F 3

$$$$
=
 OpenBabel11112418083D

 34 40  0  0  1  0  0  0  0  0999 V2000
  189.3900  174.3460  140.9490 C   0  0  1  0  0  3  0  0  0  0  0  0
  187.5500  176.1010  141.0510 C   0  0  0  0  0  2  0  0  0  0  0  0
  194.3510  171.6570  143.8720 C   0  0  0  0  0  0  0  0  0  0  0  0
  191.1890  172.6410  141.0120 C   0  0  2  0  0  3  0  0  0  0  0  0
  193.2320  173.3240  142.3010 C   0  0  2  0  0  3  0  0  0  0  0  0
  195.2130  174.0550  143.7480 C   0  0  0  0  0  1  0  0  0  0  0  0
  194.0080  171.7420  145.1580 C   0  0  0  0  0  2  0  0  0  0  0  0
  194.3660  170.4330  141.6660 C   0  0  0  0  0  2  0  0  0  0  0  0
  189.6290  176.4680  142.2080 C   0  0  2  0  0  3  0  0  0  0  0  0
  190.0050  177.8620  145.1100 C   0  0  0  0  0  2  0  0  0  0  0  0
  192.4410  174.1450  143.1330 O   0  0  0  0  0  0  0  0  0  0  0  0
  193.1750  171.1020  140.9580 C   0  0  0  0  0  2  0  0  0  0  0  0
  190.7730  175.8950  143.0710 C   0  0  1  0  0  3  0  0  0  0  0  0
  187.1500  177.5890  142.0270 S   0  0  0  0  0  0  0  0  0  0  0  0
  192.3890  172.1170  141.8010 C   0  0  2  0  0  3  0  0  0  0  0  0
  194.2140  170.3210  143.1890 C   0  0  0  0  0  2  0  0  0  0  0  0
  188.6850  177.5320  144.3880 C   0  0  1  0  0  3  0  0  0  0  0  0
  190.4840  173.7310  141.8180 C   0  0  1  0  0  3  0  0  0  0  0  0
  194.5180  172.9030  143.0310 C   0  0  1  0  0  3  0  0  0  0  0  0
  191.4960  174.7800  142.3030 C   0  0  2  0  0  3  0  0  0  0  0  0
  189.3300  172.1270  139.8190 C   0  0  0  0  0  2  0  0  0  0  0  0
  191.1700  178.2010  144.1750 C   0  0  0  0  0  2  0  0  0  0  0  0
  190.2690  171.6100  140.7390 O   0  0  0  0  0  0  0  0  0  0  0  0
  191.7840  176.9650  143.5070 C   0  0  0  0  0  2  0  0  0  0  0  0
  188.7870  177.5760  142.8430 C   0  0  1  0  0  3  0  0  0  0  0  0
  188.4710  173.2220  140.4700 C   0  0  0  0  0  2  0  0  0  0  0  0
  188.6570  175.3850  141.7890 C   0  0  2  0  0  3  0  0  0  0  0  0
  188.1450  176.2120  144.9290 C   0  0  0  0  0  2  0  0  0  0  0  0
  187.6000  176.3890  146.2020 O   0  0  0  0  0  0  0  0  0  0  0  0
  184.4610  177.7500  146.2810 C   0  0  0  0  0  2  0  0  0  0  0  0
  186.5500  178.2190  147.3000 C   0  0  0  0  0  2  0  0  0  0  0  0
  186.6440  177.3930  146.0390 C   0  0  2  0  0  3  0  0  0  0  0  0
  185.0810  178.4750  147.4530 C   0  0  0  0  0  2  0  0  0  0  0  0
  185.3890  176.8180  145.7930 O   0  0  0  0  0  0  0  0  0  0  0  0
  1 26  1  1  0  0  0
  1 27  1  0  0  0  0
  1 18  1  0  0  0  0
  2 27  1  0  0  0  0
  2 14  1  0  0  0  0
  3  7  2  0  0  0  0
  4 23  1  1  0  0  0
  4 15  1  0  0  0  0
  4 18  1  0  0  0  0
  5 19  1  0  0  0  0
  5 11  1  1  0  0  0
  8 16  1  0  0  0  0
  9 25  1  0  0  0  0
  9 13  1  0  0  0  0
 12  8  1  0  0  0  0
 12 15  1  0  0  0  0
 13 24  1  0  0  0  0
 14 25  1  0  0  0  0
 15  5  1  0  0  0  0
 16  3  1  0  0  0  0
 17 28  1  0  0  0  0
 17 10  1  0  0  0  0
 18 20  1  0  0  0  0
 19  6  1  0  0  0  0
 19  3  1  0  0  0  0
 20 13  1  0  0  0  0
 20 11  1  0  0  0  0
 21 26  1  0  0  0  0
 21 23  1  0  0  0  0
 22 10  1  0  0  0  0
 24 22  1  0  0  0  0
 25 17  1  0  0  0  0
 27  9  1  0  0  0  0
 28 29  1  0  0  0  0
 30 33  1  0  0  0  0
 31 33  1  0  0  0  0
 32 29  1  0  0  0  0
 32 31  1  0  0  0  0
 34 32  1  0  0  0  0
 34 30  1  0  0  0  0
M  END
>  <MODEL>
6

>  <REMARK>
 VINA RESULT:      -6.5      2.694      7.463
  Name = 
  3 active torsions:
  status: ('A' for Active; 'I' for Inactive)
    1  A    between atoms: C_17  and  C_28
    2  A    between atoms: C_28  and  O_29
    3  A    between atoms: O_29  and  C_32
                            x       y       z     vdW  Elec       q    Type
                         _______ _______ _______ _____ _____    ______ ____

>  <TORSDO>
F 3

$$$$
=
 OpenBabel11112418083D

 34 40  0  0  1  0  0  0  0  0999 V2000
  189.9090  172.3850  142.7590 C   0  0  1  0  0  3  0  0  0  0  0  0
  189.9500  173.3960  145.0930 C   0  0  0  0  0  2  0  0  0  0  0  0
  189.9870  173.4480  136.4930 C   0  0  0  0  0  0  0  0  0  0  0  0
  189.9370  171.5360  140.4290 C   0  0  2  0  0  3  0  0  0  0  0  0
  188.8620  173.0580  138.7490 C   0  0  2  0  0  3  0  0  0  0  0  0
  187.8680  174.7360  137.0900 C   0  0  0  0  0  1  0  0  0  0  0  0
  190.7440  174.5410  136.3970 C   0  0  0  0  0  2  0  0  0  0  0  0
  189.7290  170.9380  136.5570 C   0  0  0  0  0  2  0  0  0  0  0  0
  188.9930  174.6330  143.2630 C   0  0  2  0  0  3  0  0  0  0  0  0
  189.2310  177.8240  142.7540 C   0  0  0  0  0  2  0  0  0  0  0  0
  189.2070  174.1800  139.5330 O   0  0  0  0  0  0  0  0  0  0  0  0
  189.6910  170.6910  138.0750 C   0  0  0  0  0  2  0  0  0  0  0  0
  189.0700  175.0600  141.7820 C   0  0  1  0  0  3  0  0  0  0  0  0
  189.6970  175.0280  145.8670 S   0  0  0  0  0  0  0  0  0  0  0  0
  189.9140  171.9320  138.9530 C   0  0  2  0  0  3  0  0  0  0  0  0
  190.6070  172.1220  136.1300 C   0  0  0  0  0  2  0  0  0  0  0  0
  189.9070  176.9950  143.8620 C   0  0  1  0  0  3  0  0  0  0  0  0
  190.0460  172.7910  141.2930 C   0  0  1  0  0  3  0  0  0  0  0  0
  188.6930  173.4680  137.2760 C   0  0  1  0  0  3  0  0  0  0  0  0
  188.9850  173.8220  140.8780 C   0  0  2  0  0  3  0  0  0  0  0  0
  190.8380  170.1940  142.0210 C   0  0  0  0  0  2  0  0  0  0  0  0
  187.8680  177.2900  142.3050 C   0  0  0  0  0  2  0  0  0  0  0  0
  191.0300  170.6920  140.7130 O   0  0  0  0  0  0  0  0  0  0  0  0
  187.9740  176.0630  141.3930 C   0  0  0  0  0  2  0  0  0  0  0  0
  189.0930  175.7520  144.3000 C   0  0  1  0  0  3  0  0  0  0  0  0
  190.9640  171.3190  143.0590 C   0  0  0  0  0  2  0  0  0  0  0  0
  190.0830  173.6380  143.6070 C   0  0  2  0  0  3  0  0  0  0  0  0
  191.3350  176.6720  143.4330 C   0  0  0  0  0  2  0  0  0  0  0  0
  192.2510  177.1670  144.3630 O   0  0  0  0  0  0  0  0  0  0  0  0
  195.3090  175.6680  144.6930 C   0  0  0  0  0  2  0  0  0  0  0  0
  193.4050  175.9800  146.0710 C   0  0  0  0  0  2  0  0  0  0  0  0
  193.1300  176.1080  144.5910 C   0  0  2  0  0  3  0  0  0  0  0  0
  194.8690  175.6660  146.1380 C   0  0  0  0  0  2  0  0  0  0  0  0
  194.3460  176.3500  143.9350 O   0  0  0  0  0  0  0  0  0  0  0  0
  1 26  1  1  0  0  0
  1 27  1  0  0  0  0
  2 14  1  0  0  0  0
  3 19  1  0  0  0  0
  4 23  1  6  0  0  0
  4 18  1  0  0  0  0
  5 15  1  0  0  0  0
  5 11  1  1  0  0  0
  6 19  1  0  0  0  0
  7  3  2  0  0  0  0
  8 12  1  0  0  0  0
  9 27  1  0  0  0  0
  9 25  1  0  0  0  0
 10 17  1  0  0  0  0
 11 20  1  0  0  0  0
 12 15  1  0  0  0  0
 13  9  1  0  0  0  0
 15  4  1  0  0  0  0
 16  3  1  0  0  0  0
 16  8  1  0  0  0  0
 17 25  1  0  0  0  0
 18  1  1  0  0  0  0
 19  5  1  0  0  0  0
 20 18  1  0  0  0  0
 20 13  1  0  0  0  0
 21 26  1  0  0  0  0
 22 10  1  0  0  0  0
 23 21  1  0  0  0  0
 24 13  1  0  0  0  0
 24 22  1  0  0  0  0
 25 14  1  0  0  0  0
 27  2  1  0  0  0  0
 28 17  1  0  0  0  0
 28 29  1  0  0  0  0
 29 32  1  0  0  0  0
 30 33  1  0  0  0  0
 31 33  1  0  0  0  0
 32 31  1  0  0  0  0
 34 32  1  0  0  0  0
 34 30  1  0  0  0  0
M  END
>  <MODEL>
7

>  <REMARK>
 VINA RESULT:      -6.5      3.413      6.680
  Name = 
  3 active torsions:
  status: ('A' for Active; 'I' for Inactive)
    1  A    between atoms: C_17  and  C_28
    2  A    between atoms: C_28  and  O_29
    3  A    between atoms: O_29  and  C_32
                            x       y       z     vdW  Elec       q    Type
                         _______ _______ _______ _____ _____    ______ ____

>  <TORSDO>
F 3

$$$$
=
 OpenBabel11112418083D

 34 40  0  0  1  0  0  0  0  0999 V2000
  190.4100  172.8600  140.6990 C   0  0  1  0  0  3  0  0  0  0  0  0
  192.2060  171.3550  139.7080 C   0  0  0  0  0  2  0  0  0  0  0  0
  188.8680  177.0360  145.2350 C   0  0  0  0  0  0  0  0  0  0  0  0
  188.7770  174.4140  141.7330 C   0  0  2  0  0  3  0  0  0  0  0  0
  189.0380  174.7070  144.2120 C   0  0  2  0  0  3  0  0  0  0  0  0
  189.4680  175.0460  146.7120 C   0  0  0  0  0  1  0  0  0  0  0  0
  190.0220  177.6690  145.4470 C   0  0  0  0  0  2  0  0  0  0  0  0
  186.6680  176.8030  144.0220 C   0  0  0  0  0  2  0  0  0  0  0  0
  192.2060  171.8360  142.0670 C   0  0  2  0  0  3  0  0  0  0  0  0
  194.8040  172.3470  143.9350 C   0  0  0  0  0  2  0  0  0  0  0  0
  190.4220  174.4490  144.1040 O   0  0  0  0  0  0  0  0  0  0  0  0
  187.0440  175.7760  142.9390 C   0  0  0  0  0  2  0  0  0  0  0  0
  192.0120  172.8670  143.1990 C   0  0  1  0  0  3  0  0  0  0  0  0
  193.8130  170.6540  140.2090 S   0  0  0  0  0  0  0  0  0  0  0  0
  188.5230  175.3660  142.9010 C   0  0  2  0  0  3  0  0  0  0  0  0
  187.8110  177.7430  144.4260 C   0  0  0  0  0  2  0  0  0  0  0  0
  194.7690  172.1280  142.4110 C   0  0  1  0  0  3  0  0  0  0  0  0
  190.2250  173.9260  141.7770 C   0  0  1  0  0  3  0  0  0  0  0  0
  188.7470  175.5460  145.4660 C   0  0  1  0  0  3  0  0  0  0  0  0
  190.5710  173.3990  143.1770 C   0  0  2  0  0  3  0  0  0  0  0  0
  188.5750  174.0470  139.5030 C   0  0  0  0  0  2  0  0  0  0  0  0
  193.7010  171.6150  144.7050 C   0  0  0  0  0  2  0  0  0  0  0  0
  188.5490  175.0510  140.4970 O   0  0  0  0  0  0  0  0  0  0  0  0
  192.3330  172.2950  144.5880 C   0  0  0  0  0  2  0  0  0  0  0  0
  193.6030  171.2280  141.9330 C   0  0  1  0  0  3  0  0  0  0  0  0
  189.9860  173.4580  139.3570 C   0  0  0  0  0  2  0  0  0  0  0  0
  191.8720  172.4310  140.7150 C   0  0  2  0  0  3  0  0  0  0  0  0
  194.8180  173.4870  141.7180 C   0  0  0  0  0  2  0  0  0  0  0  0
  195.6950  174.3460  142.3840 O   0  0  0  0  0  0  0  0  0  0  0  0
  192.9210  176.3480  142.4540 C   0  0  0  0  0  2  0  0  0  0  0  0
  194.7020  175.8490  143.9370 C   0  0  0  0  0  2  0  0  0  0  0  0
  194.9980  175.5500  142.4850 C   0  0  2  0  0  3  0  0  0  0  0  0
  193.3100  176.4030  143.9120 C   0  0  0  0  0  2  0  0  0  0  0  0
  193.7790  175.4550  141.7980 O   0  0  0  0  0  0  0  0  0  0  0  0
  1 26  1  6  0  0  0
  1 27  1  0  0  0  0
  1 18  1  0  0  0  0
  2 14  1  0  0  0  0
  2 27  1  0  0  0  0
  3  7  2  0  0  0  0
  3 19  1  0  0  0  0
  4 23  1  6  0  0  0
  4 18  1  0  0  0  0
  4 15  1  0  0  0  0
  5 11  1  6  0  0  0
  5 19  1  0  0  0  0
  8 16  1  0  0  0  0
  9 13  1  0  0  0  0
 10 22  1  0  0  0  0
 12  8  1  0  0  0  0
 13 24  1  0  0  0  0
 14 25  1  0  0  0  0
 15 12  1  0  0  0  0
 15  5  1  0  0  0  0
 16  3  1  0  0  0  0
 17 10  1  0  0  0  0
 18 20  1  0  0  0  0
 19  6  1  0  0  0  0
 20 13  1  0  0  0  0
 20 11  1  0  0  0  0
 21 23  1  0  0  0  0
 24 22  1  0  0  0  0
 25  9  1  0  0  0  0
 25 17  1  0  0  0  0
 26 21  1  0  0  0  0
 27  9  1  0  0  0  0
 28 29  1  0  0  0  0
 28 17  1  0  0  0  0
 29 32  1  0  0  0  0
 30 33  1  0  0  0  0
 32 31  1  0  0  0  0
 33 31  1  0  0  0  0
 34 30  1  0  0  0  0
 34 32  1  0  0  0  0
M  END
>  <MODEL>
8

>  <REMARK>
 VINA RESULT:      -6.5      2.209      4.964
  Name = 
  3 active torsions:
  status: ('A' for Active; 'I' for Inactive)
    1  A    between atoms: C_17  and  C_28
    2  A    between atoms: C_28  and  O_29
    3  A    between atoms: O_29  and  C_32
                            x       y       z     vdW  Elec       q    Type
                         _______ _______ _______ _____ _____    ______ ____

>  <TORSDO>
F 3

$$$$
=
 OpenBabel11112418083D

 34 40  0  0  1  0  0  0  0  0999 V2000
  187.8740  175.2950  141.3460 C   0  0  1  0  0  3  0  0  0  0  0  0
  188.6360  174.0210  139.2810 C   0  0  0  0  0  2  0  0  0  0  0  0
  189.2090  177.0710  147.3010 C   0  0  0  0  0  0  0  0  0  0  0  0
  187.2870  176.5470  143.4050 C   0  0  2  0  0  3  0  0  0  0  0  0
  188.1880  175.5520  145.5260 C   0  0  2  0  0  3  0  0  0  0  0  0
  189.2610  174.5410  147.6180 C   0  0  0  0  0  1  0  0  0  0  0  0
  190.5370  177.1950  147.2730 C   0  0  0  0  0  2  0  0  0  0  0  0
  186.8950  178.0350  147.0140 C   0  0  0  0  0  2  0  0  0  0  0  0
  189.3540  173.3100  141.4660 C   0  0  2  0  0  3  0  0  0  0  0  0
  192.2800  172.1640  142.2590 C   0  0  0  0  0  2  0  0  0  0  0  0
  189.2850  175.0190  144.8180 O   0  0  0  0  0  0  0  0  0  0  0  0
  186.5710  177.5840  145.5790 C   0  0  0  0  0  2  0  0  0  0  0  0
  189.8520  173.6930  142.8750 C   0  0  1  0  0  3  0  0  0  0  0  0
  189.8870  172.7670  138.8480 S   0  0  0  0  0  0  0  0  0  0  0  0
  187.7080  176.8620  144.8400 C   0  0  2  0  0  3  0  0  0  0  0  0
  188.3800  178.3290  147.2650 C   0  0  0  0  0  2  0  0  0  0  0  0
  191.8210  172.7100  140.8940 C   0  0  1  0  0  3  0  0  0  0  0  0
  188.3820  175.7310  142.7190 C   0  0  1  0  0  3  0  0  0  0  0  0
  188.5490  175.7430  147.0080 C   0  0  1  0  0  3  0  0  0  0  0  0
  188.7860  174.5340  143.5930 C   0  0  2  0  0  3  0  0  0  0  0  0
  186.4640  177.3470  141.4480 C   0  0  0  0  0  2  0  0  0  0  0  0
  191.1750  171.4790  143.0700 C   0  0  0  0  0  2  0  0  0  0  0  0
  187.0690  177.7270  142.6660 O   0  0  0  0  0  0  0  0  0  0  0  0
  190.2120  172.4710  143.7330 C   0  0  0  0  0  2  0  0  0  0  0  0
  190.3160  172.4900  140.6040 C   0  0  1  0  0  3  0  0  0  0  0  0
  187.4430  176.5450  140.5780 C   0  0  0  0  0  2  0  0  0  0  0  0
  188.9990  174.5380  140.6530 C   0  0  2  0  0  3  0  0  0  0  0  0
  192.2630  174.1650  140.7730 C   0  0  0  0  0  2  0  0  0  0  0  0
  193.5340  174.3400  141.3230 O   0  0  0  0  0  0  0  0  0  0  0  0
  191.9450  176.7060  143.2170 C   0  0  0  0  0  2  0  0  0  0  0  0
  193.7690  175.2210  143.5200 C   0  0  0  0  0  2  0  0  0  0  0  0
  193.4350  175.5110  142.0750 C   0  0  2  0  0  3  0  0  0  0  0  0
  192.7760  176.0400  144.2890 C   0  0  0  0  0  2  0  0  0  0  0  0
  192.1240  176.0050  142.0160 O   0  0  0  0  0  0  0  0  0  0  0  0
  1 26  1  6  0  0  0
  1 18  1  0  0  0  0
  2 27  1  0  0  0  0
  4 23  1  6  0  0  0
  4 15  1  0  0  0  0
  5 11  1  6  0  0  0
  5 19  1  0  0  0  0
  7  3  2  0  0  0  0
  8 16  1  0  0  0  0
  9 13  1  0  0  0  0
 10 22  1  0  0  0  0
 12  8  1  0  0  0  0
 13 20  1  0  0  0  0
 13 24  1  0  0  0  0
 14  2  1  0  0  0  0
 14 25  1  0  0  0  0
 15  5  1  0  0  0  0
 15 12  1  0  0  0  0
 16  3  1  0  0  0  0
 17 10  1  0  0  0  0
 18  4  1  0  0  0  0
 18 20  1  0  0  0  0
 19  3  1  0  0  0  0
 19  6  1  0  0  0  0
 20 11  1  0  0  0  0
 21 23  1  0  0  0  0
 22 24  1  0  0  0  0
 25 17  1  0  0  0  0
 25  9  1  0  0  0  0
 26 21  1  0  0  0  0
 27  1  1  0  0  0  0
 27  9  1  0  0  0  0
 28 17  1  0  0  0  0
 28 29  1  0  0  0  0
 29 32  1  0  0  0  0
 30 33  1  0  0  0  0
 31 33  1  0  0  0  0
 32 31  1  0  0  0  0
 34 32  1  0  0  0  0
 34 30  1  0  0  0  0
M  END
>  <MODEL>
9

>  <REMARK>
 VINA RESULT:      -6.4      2.341      5.211
  Name = 
  3 active torsions:
  status: ('A' for Active; 'I' for Inactive)
    1  A    between atoms: C_17  and  C_28
    2  A    between atoms: C_28  and  O_29
    3  A    between atoms: O_29  and  C_32
                            x       y       z     vdW  Elec       q    Type
                         _______ _______ _______ _____ _____    ______ ____

>  <TORSDO>
F 3

$$$$
