=
 OpenBabel11112417513D

 34 42  0  0  1  0  0  0  0  0999 V2000
  189.8800  176.8820  144.7870 C   0  0  0  0  0  0  0  0  0  0  0  0
  192.0990  175.9800  144.0120 C   0  0  0  0  0  2  0  0  0  0  0  0
  184.5790  179.1410  144.2080 C   0  0  2  0  0  0  0  0  0  0  0  0
  187.6320  176.9170  145.7420 C   0  0  0  0  0  0  0  0  0  0  0  0
  185.6000  176.7190  144.1920 C   0  0  1  0  0  3  0  0  0  0  0  0
  186.0960  179.2690  144.3160 C   0  0  2  0  0  3  0  0  0  0  0  0
  185.2290  180.5080  144.2100 C   0  0  0  0  0  2  0  0  0  0  0  0
  184.8770  178.5070  146.7260 C   0  0  0  0  0  2  0  0  0  0  0  0
  190.2720  176.0040  142.3780 C   0  0  2  0  0  3  0  0  0  0  0  0
  189.8900  173.0170  141.0860 C   0  0  0  0  0  2  0  0  0  0  0  0
  186.4820  175.8340  143.3180 C   0  0  0  0  0  2  0  0  0  0  0  0
  185.2330  177.0350  146.7600 C   0  0  0  0  0  2  0  0  0  0  0  0
  188.8550  175.4070  142.5240 C   0  0  1  0  0  3  0  0  0  0  0  0
  192.5890  175.3050  142.7510 C   0  0  0  0  0  2  0  0  0  0  0  0
  186.1600  176.6130  145.6190 C   0  0  2  0  0  3  0  0  0  0  0  0
  183.9300  178.7840  145.5620 C   0  0  0  0  0  2  0  0  0  0  0  0
  190.9550  173.4920  142.0890 C   0  0  1  0  0  3  0  0  0  0  0  0
  188.4900  176.6960  144.6360 C   0  0  0  0  0  0  0  0  0  0  0  0
  185.4870  178.1190  143.5290 C   0  0  2  0  0  3  0  0  0  0  0  0
  187.9270  176.3700  143.2630 C   0  0  2  0  0  3  0  0  0  0  0  0
  189.5450  177.5020  147.1130 C   0  0  0  0  0  3  0  0  0  0  0  0
  189.2070  174.1430  140.3030 C   0  0  0  0  0  2  0  0  0  0  0  0
  188.1740  177.2980  146.9760 C   0  0  0  0  0  3  0  0  0  0  0  0
  188.2710  174.9970  141.1620 C   0  0  0  0  0  2  0  0  0  0  0  0
  191.3460  174.9840  141.9460 C   0  0  1  0  0  3  0  0  0  0  0  0
  190.3900  177.3040  146.0240 C   0  0  0  0  0  3  0  0  0  0  0  0
  190.8290  176.7200  143.6210 C   0  0  1  0  0  3  0  0  0  0  0  0
  190.5310  173.1720  143.4470 N   0  0  0  0  0  2  0  0  0  0  0  0
  190.8280  171.7710  143.6840 C   0  0  0  0  0  2  0  0  0  0  0  0
  194.1940  170.7290  144.8450 N   0  0  0  0  0  0  0  0  0  0  0  0
  192.7390  172.5370  144.9960 N   0  0  0  0  0  0  0  0  0  0  0  0
  192.1990  171.6490  144.2480 C   0  0  0  0  0  0  0  0  0  0  0  0
  193.9760  172.0130  145.3780 N   0  0  0  0  0  0  0  0  0  0  0  0
  193.0150  170.5010  144.1150 N   0  0  0  0  0  2  0  0  0  0  0  0
  1 26  1  0  0  0  0
  3  7  1  6  0  0  0
  3  6  1  0  0  0  0
  3 16  1  0  0  0  0
  4 23  2  0  0  0  0
  5 11  1  6  0  0  0
  5 15  1  0  0  0  0
  6  7  1  6  0  0  0
  8 12  1  0  0  0  0
  9 13  1  0  0  0  0
  9 27  1  0  0  0  0
 10 17  1  0  0  0  0
 13 20  1  0  0  0  0
 14  2  1  0  0  0  0
 15  4  1  0  0  0  0
 15 12  1  0  0  0  0
 16  8  1  0  0  0  0
 17 28  1  0  0  0  0
 18  1  2  0  0  0  0
 18  4  1  0  0  0  0
 19  5  1  0  0  0  0
 19  3  1  0  0  0  0
 19  6  1  0  0  0  0
 20 11  1  0  0  0  0
 20 18  1  0  0  0  0
 22 10  1  0  0  0  0
 22 24  1  0  0  0  0
 23 21  1  0  0  0  0
 24 13  1  0  0  0  0
 25 17  1  0  0  0  0
 25  9  1  0  0  0  0
 25 14  1  0  0  0  0
 26 21  2  0  0  0  0
 27  2  1  0  0  0  0
 27  1  1  0  0  0  0
 28 29  1  0  0  0  0
 29 32  1  0  0  0  0
 30 33  2  0  0  0  0
 31 33  1  0  0  0  0
 32 31  2  0  0  0  0
 34 32  1  0  0  0  0
 34 30  1  0  0  0  0
M  END
>  <MODEL>
1

>  <REMARK>
 VINA RESULT:      -9.3      0.000      0.000
  Name = 
  3 active torsions:
  status: ('A' for Active; 'I' for Inactive)
    1  A    between atoms: C_17  and  N_28
    2  A    between atoms: N_28  and  C_29
    3  A    between atoms: C_29  and  C_32
                            x       y       z     vdW  Elec       q    Type
                         _______ _______ _______ _____ _____    ______ ____

>  <TORSDO>
F 3

$$$$
=
 OpenBabel11112417513D

 34 42  0  0  1  0  0  0  0  0999 V2000
  189.7030  173.9130  143.7740 C   0  0  0  0  0  0  0  0  0  0  0  0
  191.6250  172.2890  143.8500 C   0  0  0  0  0  2  0  0  0  0  0  0
  186.1080  177.9750  145.8010 C   0  0  2  0  0  0  0  0  0  0  0  0
  188.3920  175.8780  143.1530 C   0  0  0  0  0  0  0  0  0  0  0  0
  188.4670  177.9640  144.6420 C   0  0  1  0  0  3  0  0  0  0  0  0
  186.5350  176.5220  145.6170 C   0  0  2  0  0  3  0  0  0  0  0  0
  185.2480  176.8540  146.3440 C   0  0  0  0  0  2  0  0  0  0  0  0
  185.6150  177.7120  143.2470 C   0  0  0  0  0  2  0  0  0  0  0  0
  191.6360  174.1090  145.4920 C   0  0  2  0  0  3  0  0  0  0  0  0
  194.4850  175.7220  145.3530 C   0  0  0  0  0  2  0  0  0  0  0  0
  189.9090  177.5720  144.9430 C   0  0  0  0  0  2  0  0  0  0  0  0
  186.9280  177.9450  142.5300 C   0  0  0  0  0  2  0  0  0  0  0  0
  191.5140  175.6270  145.2330 C   0  0  1  0  0  3  0  0  0  0  0  0
  192.9210  172.2120  144.6260 C   0  0  0  0  0  2  0  0  0  0  0  0
  188.1310  177.3590  143.2700 C   0  0  2  0  0  3  0  0  0  0  0  0
  185.5470  178.5840  144.4990 C   0  0  0  0  0  2  0  0  0  0  0  0
  194.0610  174.4690  144.5670 C   0  0  1  0  0  3  0  0  0  0  0  0
  189.3910  175.2760  143.9580 C   0  0  0  0  0  0  0  0  0  0  0  0
  187.5850  177.5940  145.8650 C   0  0  2  0  0  3  0  0  0  0  0  0
  190.0500  176.0440  145.0910 C   0  0  2  0  0  3  0  0  0  0  0  0
  188.0380  173.7700  142.0090 C   0  0  0  0  0  3  0  0  0  0  0  0
  193.6610  175.9900  146.6160 C   0  0  0  0  0  2  0  0  0  0  0  0
  187.7420  175.1210  142.1720 C   0  0  0  0  0  3  0  0  0  0  0  0
  192.2290  176.4450  146.3200 C   0  0  0  0  0  2  0  0  0  0  0  0
  193.0640  173.5520  145.3210 C   0  0  1  0  0  3  0  0  0  0  0  0
  189.0060  173.1690  142.8100 C   0  0  0  0  0  3  0  0  0  0  0  0
  190.7160  173.2090  144.6490 C   0  0  1  0  0  3  0  0  0  0  0  0
  193.5530  174.8570  143.2570 N   0  0  0  0  0  2  0  0  0  0  0  0
  194.1250  176.1500  142.9280 C   0  0  0  0  0  2  0  0  0  0  0  0
  195.7460  175.3260  139.6940 N   0  0  0  0  0  0  0  0  0  0  0  0
  196.2110  176.4250  141.6900 N   0  0  0  0  0  0  0  0  0  0  0  0
  195.0000  176.0100  141.7340 C   0  0  0  0  0  0  0  0  0  0  0  0
  196.7050  176.0320  140.4440 N   0  0  0  0  0  0  0  0  0  0  0  0
  194.6380  175.3110  140.5590 N   0  0  0  0  0  2  0  0  0  0  0  0
  1 18  1  0  0  0  0
  1 27  1  0  0  0  0
  2 14  1  0  0  0  0
  2 27  1  0  0  0  0
  3 16  1  6  0  0  0
  3 19  1  0  0  0  0
  3  7  1  0  0  0  0
  4 15  1  0  0  0  0
  4 18  2  0  0  0  0
  5 11  1  1  0  0  0
  5 19  1  0  0  0  0
  6  3  1  0  0  0  0
  6 19  1  0  0  0  0
  6  7  1  1  0  0  0
  8 16  1  0  0  0  0
 10 22  1  0  0  0  0
 11 20  1  0  0  0  0
 12  8  1  0  0  0  0
 12 15  1  0  0  0  0
 13  9  1  0  0  0  0
 13 24  1  0  0  0  0
 14 25  1  0  0  0  0
 15  5  1  0  0  0  0
 17 25  1  0  0  0  0
 17 10  1  0  0  0  0
 18 20  1  0  0  0  0
 20 13  1  0  0  0  0
 21 23  2  0  0  0  0
 21 26  1  0  0  0  0
 23  4  1  0  0  0  0
 24 22  1  0  0  0  0
 25  9  1  0  0  0  0
 26  1  2  0  0  0  0
 27  9  1  0  0  0  0
 28 17  1  0  0  0  0
 29 28  1  0  0  0  0
 30 33  2  0  0  0  0
 30 34  1  0  0  0  0
 31 32  2  0  0  0  0
 32 29  1  0  0  0  0
 33 31  1  0  0  0  0
 34 32  1  0  0  0  0
M  END
>  <MODEL>
2

>  <REMARK>
 VINA RESULT:      -9.3      2.718      4.717
  Name = 
  3 active torsions:
  status: ('A' for Active; 'I' for Inactive)
    1  A    between atoms: C_17  and  N_28
    2  A    between atoms: N_28  and  C_29
    3  A    between atoms: C_29  and  C_32
                            x       y       z     vdW  Elec       q    Type
                         _______ _______ _______ _____ _____    ______ ____

>  <TORSDO>
F 3

$$$$
=
 OpenBabel11112417513D

 34 42  0  0  1  0  0  0  0  0999 V2000
  193.4720  175.5280  145.5350 C   0  0  0  0  0  0  0  0  0  0  0  0
  195.8860  174.9260  145.1500 C   0  0  0  0  0  2  0  0  0  0  0  0
  187.9460  176.4740  144.0850 C   0  0  2  0  0  0  0  0  0  0  0  0
  191.1660  175.3450  146.3170 C   0  0  0  0  0  0  0  0  0  0  0  0
  189.3780  174.3750  144.7550 C   0  0  1  0  0  3  0  0  0  0  0  0
  189.3960  176.9250  144.2430 C   0  0  2  0  0  3  0  0  0  0  0  0
  188.3380  177.9020  143.7700 C   0  0  0  0  0  2  0  0  0  0  0  0
  188.0820  176.5440  146.6940 C   0  0  0  0  0  2  0  0  0  0  0  0
  194.2690  174.1870  143.4620 C   0  0  2  0  0  3  0  0  0  0  0  0
  194.5650  170.9620  142.9680 C   0  0  0  0  0  2  0  0  0  0  0  0
  190.4920  173.4990  144.1930 C   0  0  0  0  0  2  0  0  0  0  0  0
  188.6890  175.2250  147.1280 C   0  0  0  0  0  2  0  0  0  0  0  0
  192.9740  173.3740  143.6750 C   0  0  1  0  0  3  0  0  0  0  0  0
  196.6210  174.0760  144.1380 C   0  0  0  0  0  2  0  0  0  0  0  0
  189.7930  174.7330  146.1910 C   0  0  2  0  0  3  0  0  0  0  0  0
  187.2310  176.3360  145.4450 C   0  0  0  0  0  2  0  0  0  0  0  0
  195.4160  171.8690  143.8740 C   0  0  1  0  0  3  0  0  0  0  0  0
  192.1620  175.0370  145.3570 C   0  0  0  0  0  0  0  0  0  0  0  0
  189.0890  175.5200  143.7470 C   0  0  2  0  0  3  0  0  0  0  0  0
  191.8150  174.2830  144.0850 C   0  0  2  0  0  3  0  0  0  0  0  0
  192.7860  176.6150  147.5970 C   0  0  0  0  0  3  0  0  0  0  0  0
  193.7800  171.7050  141.8810 C   0  0  0  0  0  2  0  0  0  0  0  0
  191.4970  176.1140  147.4390 C   0  0  0  0  0  3  0  0  0  0  0  0
  192.6210  172.5380  142.4350 C   0  0  0  0  0  2  0  0  0  0  0  0
  195.5470  173.3290  143.3720 C   0  0  1  0  0  3  0  0  0  0  0  0
  193.7640  176.3310  146.6470 C   0  0  0  0  0  3  0  0  0  0  0  0
  194.5540  175.2800  144.5070 C   0  0  1  0  0  3  0  0  0  0  0  0
  194.9130  171.8110  145.2410 N   0  0  0  0  0  2  0  0  0  0  0  0
  194.2940  170.5110  145.4290 C   0  0  0  0  0  2  0  0  0  0  0  0
  195.6690  168.2090  147.9930 N   0  0  0  0  0  0  0  0  0  0  0  0
  196.3610  169.9300  146.5900 N   0  0  0  0  0  0  0  0  0  0  0  0
  195.1200  169.7050  146.3670 C   0  0  0  0  0  0  0  0  0  0  0  0
  196.7420  169.0210  147.5810 N   0  0  0  0  0  0  0  0  0  0  0  0
  194.6110  168.6780  147.1950 N   0  0  0  0  0  2  0  0  0  0  0  0
  1 26  1  0  0  0  0
  3  7  1  6  0  0  0
  3  6  1  0  0  0  0
  3 16  1  0  0  0  0
  4 23  2  0  0  0  0
  5 11  1  6  0  0  0
  5 15  1  0  0  0  0
  6  7  1  6  0  0  0
  8 12  1  0  0  0  0
  9 13  1  0  0  0  0
  9 27  1  0  0  0  0
 10 17  1  0  0  0  0
 13 20  1  0  0  0  0
 14  2  1  0  0  0  0
 15  4  1  0  0  0  0
 15 12  1  0  0  0  0
 16  8  1  0  0  0  0
 17 28  1  0  0  0  0
 18  1  2  0  0  0  0
 18  4  1  0  0  0  0
 19  3  1  0  0  0  0
 19  6  1  0  0  0  0
 19  5  1  0  0  0  0
 20 11  1  0  0  0  0
 20 18  1  0  0  0  0
 22 24  1  0  0  0  0
 22 10  1  0  0  0  0
 23 21  1  0  0  0  0
 24 13  1  0  0  0  0
 25  9  1  0  0  0  0
 25 17  1  0  0  0  0
 25 14  1  0  0  0  0
 26 21  2  0  0  0  0
 27  2  1  0  0  0  0
 27  1  1  0  0  0  0
 28 29  1  0  0  0  0
 29 32  1  0  0  0  0
 31 33  1  0  0  0  0
 32 31  2  0  0  0  0
 32 34  1  0  0  0  0
 33 30  2  0  0  0  0
 34 30  1  0  0  0  0
M  END
>  <MODEL>
3

>  <REMARK>
 VINA RESULT:      -7.9      2.646      4.361
  Name = 
  3 active torsions:
  status: ('A' for Active; 'I' for Inactive)
    1  A    between atoms: C_17  and  N_28
    2  A    between atoms: N_28  and  C_29
    3  A    between atoms: C_29  and  C_32
                            x       y       z     vdW  Elec       q    Type
                         _______ _______ _______ _____ _____    ______ ____

>  <TORSDO>
F 3

$$$$
=
 OpenBabel11112417513D

 34 42  0  0  1  0  0  0  0  0999 V2000
  192.8660  175.5630  145.8600 C   0  0  0  0  0  0  0  0  0  0  0  0
  190.6180  175.5460  146.9940 C   0  0  0  0  0  2  0  0  0  0  0  0
  197.1780  173.4830  142.6020 C   0  0  2  0  0  0  0  0  0  0  0  0
  194.6310  176.1820  144.2900 C   0  0  0  0  0  0  0  0  0  0  0  0
  194.9540  174.8080  142.1490 C   0  0  1  0  0  3  0  0  0  0  0  0
  196.4370  173.6250  143.9280 C   0  0  2  0  0  3  0  0  0  0  0  0
  197.7210  172.8230  143.8510 C   0  0  0  0  0  2  0  0  0  0  0  0
  197.7480  175.9780  143.1350 C   0  0  0  0  0  2  0  0  0  0  0  0
  190.9320  174.0020  145.1170 C   0  0  2  0  0  3  0  0  0  0  0  0
  188.5490  174.4270  142.9090 C   0  0  0  0  0  2  0  0  0  0  0  0
  193.4450  174.5950  142.1820 C   0  0  0  0  0  2  0  0  0  0  0  0
  196.5690  176.7990  142.6560 C   0  0  0  0  0  2  0  0  0  0  0  0
  191.4180  174.3260  143.6870 C   0  0  1  0  0  3  0  0  0  0  0  0
  189.2970  174.8630  146.7230 C   0  0  0  0  0  2  0  0  0  0  0  0
  195.2210  176.1210  142.9030 C   0  0  2  0  0  3  0  0  0  0  0  0
  197.9410  174.7690  142.2230 C   0  0  0  0  0  2  0  0  0  0  0  0
  188.7170  175.1170  144.2740 C   0  0  1  0  0  3  0  0  0  0  0  0
  193.4740  175.4230  144.5950 C   0  0  0  0  0  0  0  0  0  0  0  0
  195.6520  173.5080  142.6310 C   0  0  2  0  0  3  0  0  0  0  0  0
  192.9440  174.3810  143.6250 C   0  0  2  0  0  3  0  0  0  0  0  0
  194.5550  177.1920  146.4930 C   0  0  0  0  0  3  0  0  0  0  0  0
  189.3360  173.1220  142.7540 C   0  0  0  0  0  2  0  0  0  0  0  0
  195.1460  177.0750  145.2380 C   0  0  0  0  0  3  0  0  0  0  0  0
  190.8490  173.3360  142.6580 C   0  0  0  0  0  2  0  0  0  0  0  0
  189.4270  174.2480  145.3430 C   0  0  1  0  0  3  0  0  0  0  0  0
  193.4280  176.4350  146.8040 C   0  0  0  0  0  3  0  0  0  0  0  0
  191.6670  174.7290  146.2560 C   0  0  1  0  0  3  0  0  0  0  0  0
  189.3770  176.4050  144.0990 N   0  0  0  0  0  2  0  0  0  0  0  0
  188.3600  177.3770  143.7410 C   0  0  0  0  0  2  0  0  0  0  0  0
  185.2560  177.2070  145.7670 N   0  0  0  0  0  0  0  0  0  0  0  0
  187.4760  177.8710  145.9630 N   0  0  0  0  0  0  0  0  0  0  0  0
  187.3040  177.3890  144.7890 C   0  0  0  0  0  0  0  0  0  0  0  0
  186.2380  177.7690  146.6030 N   0  0  0  0  0  0  0  0  0  0  0  0
  185.9680  176.9740  144.5780 N   0  0  0  0  0  2  0  0  0  0  0  0
  1 27  1  0  0  0  0
  1 26  1  0  0  0  0
  3 16  1  6  0  0  0
  3 19  1  0  0  0  0
  3  7  1  0  0  0  0
  3  6  1  0  0  0  0
  4 18  1  0  0  0  0
  4 23  2  0  0  0  0
  5 11  1  1  0  0  0
  5 19  1  0  0  0  0
  5 15  1  0  0  0  0
  6  7  1  1  0  0  0
  9 25  1  0  0  0  0
  9 27  1  0  0  0  0
 10 17  1  0  0  0  0
 11 20  1  0  0  0  0
 12 15  1  0  0  0  0
 12  8  1  0  0  0  0
 13  9  1  0  0  0  0
 14  2  1  0  0  0  0
 15  4  1  0  0  0  0
 16  8  1  0  0  0  0
 17 25  1  0  0  0  0
 18  1  2  0  0  0  0
 19  6  1  0  0  0  0
 20 13  1  0  0  0  0
 20 18  1  0  0  0  0
 21 26  2  0  0  0  0
 22 10  1  0  0  0  0
 23 21  1  0  0  0  0
 24 22  1  0  0  0  0
 24 13  1  0  0  0  0
 25 14  1  0  0  0  0
 27  2  1  0  0  0  0
 28 17  1  0  0  0  0
 29 28  1  0  0  0  0
 29 32  1  0  0  0  0
 30 33  2  0  0  0  0
 31 33  1  0  0  0  0
 32 31  2  0  0  0  0
 34 32  1  0  0  0  0
 34 30  1  0  0  0  0
M  END
>  <MODEL>
4

>  <REMARK>
 VINA RESULT:      -7.9      3.673      8.167
  Name = 
  3 active torsions:
  status: ('A' for Active; 'I' for Inactive)
    1  A    between atoms: C_17  and  N_28
    2  A    between atoms: N_28  and  C_29
    3  A    between atoms: C_29  and  C_32
                            x       y       z     vdW  Elec       q    Type
                         _______ _______ _______ _____ _____    ______ ____

>  <TORSDO>
F 3

$$$$
=
 OpenBabel11112417513D

 34 42  0  0  1  0  0  0  0  0999 V2000
  192.4760  175.5290  146.1090 C   0  0  0  0  0  0  0  0  0  0  0  0
  190.1260  176.2360  146.6680 C   0  0  0  0  0  2  0  0  0  0  0  0
  196.6810  171.8740  144.5310 C   0  0  2  0  0  0  0  0  0  0  0  0
  194.5800  175.3500  144.8820 C   0  0  0  0  0  0  0  0  0  0  0  0
  194.9390  173.3860  143.2730 C   0  0  1  0  0  3  0  0  0  0  0  0
  195.7770  172.5190  145.5770 C   0  0  2  0  0  3  0  0  0  0  0  0
  196.8330  171.5150  145.9940 C   0  0  0  0  0  2  0  0  0  0  0  0
  197.7150  174.2750  144.5560 C   0  0  0  0  0  2  0  0  0  0  0  0
  190.3900  174.1890  145.3470 C   0  0  2  0  0  3  0  0  0  0  0  0
  188.5880  174.3790  142.6180 C   0  0  0  0  0  2  0  0  0  0  0  0
  193.4390  173.4610  143.0110 C   0  0  0  0  0  2  0  0  0  0  0  0
  196.8600  175.1200  143.6340 C   0  0  0  0  0  2  0  0  0  0  0  0
  191.1770  173.9990  144.0320 C   0  0  1  0  0  3  0  0  0  0  0  0
  188.7490  175.7500  146.2770 C   0  0  0  0  0  2  0  0  0  0  0  0
  195.3700  174.7900  143.7250 C   0  0  2  0  0  3  0  0  0  0  0  0
  197.7770  172.8410  144.0360 C   0  0  0  0  0  2  0  0  0  0  0  0
  188.6740  175.3900  143.7750 C   0  0  1  0  0  3  0  0  0  0  0  0
  193.2440  174.9280  145.0900 C   0  0  0  0  0  0  0  0  0  0  0  0
  195.2220  172.1760  144.2040 C   0  0  2  0  0  3  0  0  0  0  0  0
  192.6620  173.7620  144.3080 C   0  0  2  0  0  3  0  0  0  0  0  0
  194.3630  176.9460  146.6950 C   0  0  0  0  0  3  0  0  0  0  0  0
  189.0650  172.9670  142.9700 C   0  0  0  0  0  2  0  0  0  0  0  0
  195.1170  176.3720  145.6750 C   0  0  0  0  0  3  0  0  0  0  0  0
  190.5790  172.8720  143.1730 C   0  0  0  0  0  2  0  0  0  0  0  0
  188.9680  174.7530  145.1560 C   0  0  1  0  0  3  0  0  0  0  0  0
  193.0540  176.5220  146.9150 C   0  0  0  0  0  3  0  0  0  0  0  0
  191.0670  175.0710  146.4110 C   0  0  1  0  0  3  0  0  0  0  0  0
  189.6360  176.4350  143.4460 N   0  0  0  0  0  2  0  0  0  0  0  0
  188.9740  177.7150  143.6260 C   0  0  0  0  0  2  0  0  0  0  0  0
  185.8710  178.1070  141.6310 N   0  0  0  0  0  0  0  0  0  0  0  0
  188.1480  177.7410  141.3290 N   0  0  0  0  0  0  0  0  0  0  0  0
  187.9260  177.8760  142.5830 C   0  0  0  0  0  0  0  0  0  0  0  0
  186.9070  177.8860  140.7040 N   0  0  0  0  0  0  0  0  0  0  0  0
  186.5550  178.0870  142.8590 N   0  0  0  0  0  2  0  0  0  0  0  0
  1 27  1  0  0  0  0
  1 26  1  0  0  0  0
  3 16  1  6  0  0  0
  3  6  1  0  0  0  0
  3  7  1  0  0  0  0
  4 18  1  0  0  0  0
  4 23  2  0  0  0  0
  5 11  1  1  0  0  0
  5 15  1  0  0  0  0
  5 19  1  0  0  0  0
  6  7  1  1  0  0  0
  9 27  1  0  0  0  0
 10 22  1  0  0  0  0
 10 17  1  0  0  0  0
 11 20  1  0  0  0  0
 12 15  1  0  0  0  0
 12  8  1  0  0  0  0
 13 20  1  0  0  0  0
 13  9  1  0  0  0  0
 14  2  1  0  0  0  0
 15  4  1  0  0  0  0
 16  8  1  0  0  0  0
 17 25  1  0  0  0  0
 18  1  2  0  0  0  0
 19  3  1  0  0  0  0
 19  6  1  0  0  0  0
 20 18  1  0  0  0  0
 21 26  2  0  0  0  0
 22 24  1  0  0  0  0
 23 21  1  0  0  0  0
 24 13  1  0  0  0  0
 25  9  1  0  0  0  0
 25 14  1  0  0  0  0
 27  2  1  0  0  0  0
 28 29  1  0  0  0  0
 28 17  1  0  0  0  0
 30 34  1  0  0  0  0
 31 32  2  0  0  0  0
 32 34  1  0  0  0  0
 32 29  1  0  0  0  0
 33 31  1  0  0  0  0
 33 30  2  0  0  0  0
M  END
>  <MODEL>
5

>  <REMARK>
 VINA RESULT:      -7.8      3.611      8.297
  Name = 
  3 active torsions:
  status: ('A' for Active; 'I' for Inactive)
    1  A    between atoms: C_17  and  N_28
    2  A    between atoms: N_28  and  C_29
    3  A    between atoms: C_29  and  C_32
                            x       y       z     vdW  Elec       q    Type
                         _______ _______ _______ _____ _____    ______ ____

>  <TORSDO>
F 3

$$$$
=
 OpenBabel11112417513D

 34 42  0  0  1  0  0  0  0  0999 V2000
  191.6320  173.1000  143.2350 C   0  0  0  0  0  0  0  0  0  0  0  0
  189.2050  173.0230  142.5730 C   0  0  0  0  0  2  0  0  0  0  0  0
  197.0380  175.1760  143.3380 C   0  0  2  0  0  0  0  0  0  0  0  0
  193.6140  173.3820  144.6350 C   0  0  0  0  0  0  0  0  0  0  0  0
  194.8210  175.6430  144.6710 C   0  0  1  0  0  3  0  0  0  0  0  0
  195.9290  174.3300  142.7190 C   0  0  2  0  0  3  0  0  0  0  0  0
  197.3150  174.3430  142.1050 C   0  0  0  0  0  2  0  0  0  0  0  0
  196.9050  173.2790  145.1320 C   0  0  0  0  0  2  0  0  0  0  0  0
  190.3620  175.1690  142.3220 C   0  0  2  0  0  3  0  0  0  0  0  0
  188.6920  177.5260  143.8690 C   0  0  0  0  0  2  0  0  0  0  0  0
  193.4460  176.2650  144.4590 C   0  0  0  0  0  2  0  0  0  0  0  0
  195.7760  173.6530  146.0700 C   0  0  0  0  0  2  0  0  0  0  0  0
  191.1670  175.9480  143.3850 C   0  0  1  0  0  3  0  0  0  0  0  0
  188.1880  174.0550  142.1400 C   0  0  0  0  0  2  0  0  0  0  0  0
  194.5830  174.2870  145.3530 C   0  0  2  0  0  3  0  0  0  0  0  0
  197.5990  174.5420  144.6280 C   0  0  0  0  0  2  0  0  0  0  0  0
  188.3100  176.0460  143.6940 C   0  0  1  0  0  3  0  0  0  0  0  0
  192.5990  173.9440  143.8220 C   0  0  0  0  0  0  0  0  0  0  0  0
  195.5980  175.6840  143.3270 C   0  0  2  0  0  3  0  0  0  0  0  0
  192.6000  175.4240  143.4810 C   0  0  2  0  0  3  0  0  0  0  0  0
  192.6930  171.1700  144.2630 C   0  0  0  0  0  3  0  0  0  0  0  0
  189.7400  178.0340  142.8730 C   0  0  0  0  0  2  0  0  0  0  0  0
  193.6360  172.0000  144.8630 C   0  0  0  0  0  3  0  0  0  0  0  0
  191.1380  177.4610  143.1200 C   0  0  0  0  0  2  0  0  0  0  0  0
  188.8390  175.4020  142.3880 C   0  0  1  0  0  3  0  0  0  0  0  0
  191.7040  171.7160  143.4480 C   0  0  0  0  0  3  0  0  0  0  0  0
  190.5670  173.6440  142.3090 C   0  0  1  0  0  3  0  0  0  0  0  0
  188.7150  175.2890  144.8720 N   0  0  0  0  0  2  0  0  0  0  0  0
  188.6010  176.1680  146.0220 C   0  0  0  0  0  2  0  0  0  0  0  0
  191.6420  176.7750  148.0600 N   0  0  0  0  0  0  0  0  0  0  0  0
  190.6010  175.0620  146.8800 N   0  0  0  0  0  0  0  0  0  0  0  0
  189.8570  176.1020  146.8160 C   0  0  0  0  0  0  0  0  0  0  0  0
  191.7090  175.4320  147.6460 N   0  0  0  0  0  0  0  0  0  0  0  0
  190.4260  177.2030  147.4980 N   0  0  0  0  0  2  0  0  0  0  0  0
  1 26  2  0  0  0  0
  1 18  1  0  0  0  0
  3  7  1  6  0  0  0
  3 16  1  0  0  0  0
  4 23  1  0  0  0  0
  4 15  1  0  0  0  0
  5 11  1  6  0  0  0
  5 15  1  0  0  0  0
  6  7  1  6  0  0  0
  6 19  1  0  0  0  0
  6  3  1  0  0  0  0
  8 12  1  0  0  0  0
  9 25  1  0  0  0  0
  9 13  1  0  0  0  0
 13 20  1  0  0  0  0
 14 25  1  0  0  0  0
 14  2  1  0  0  0  0
 15 12  1  0  0  0  0
 16  8  1  0  0  0  0
 17 10  1  0  0  0  0
 17 28  1  0  0  0  0
 18  4  2  0  0  0  0
 19  3  1  0  0  0  0
 19  5  1  0  0  0  0
 20 18  1  0  0  0  0
 20 11  1  0  0  0  0
 21 23  2  0  0  0  0
 22 24  1  0  0  0  0
 22 10  1  0  0  0  0
 24 13  1  0  0  0  0
 25 17  1  0  0  0  0
 26 21  1  0  0  0  0
 27  9  1  0  0  0  0
 27  2  1  0  0  0  0
 27  1  1  0  0  0  0
 28 29  1  0  0  0  0
 29 32  1  0  0  0  0
 31 33  1  0  0  0  0
 32 31  2  0  0  0  0
 32 34  1  0  0  0  0
 33 30  2  0  0  0  0
 34 30  1  0  0  0  0
M  END
>  <MODEL>
6

>  <REMARK>
 VINA RESULT:      -7.7      2.940      7.595
  Name = 
  3 active torsions:
  status: ('A' for Active; 'I' for Inactive)
    1  A    between atoms: C_17  and  N_28
    2  A    between atoms: N_28  and  C_29
    3  A    between atoms: C_29  and  C_32
                            x       y       z     vdW  Elec       q    Type
                         _______ _______ _______ _____ _____    ______ ____

>  <TORSDO>
F 3

$$$$
=
 OpenBabel11112417513D

 34 42  0  0  1  0  0  0  0  0999 V2000
  192.9380  174.8460  143.5590 C   0  0  0  0  0  0  0  0  0  0  0  0
  193.5220  176.3810  145.4670 C   0  0  0  0  0  2  0  0  0  0  0  0
  190.8170  170.0780  141.0470 C   0  0  2  0  0  0  0  0  0  0  0  0
  191.8030  174.0000  141.5690 C   0  0  0  0  0  0  0  0  0  0  0  0
  189.8300  172.3840  141.8330 C   0  0  1  0  0  3  0  0  0  0  0  0
  191.9330  170.8560  141.7400 C   0  0  2  0  0  3  0  0  0  0  0  0
  192.1740  169.4410  141.2540 C   0  0  0  0  0  2  0  0  0  0  0  0
  191.4050  171.7610  139.1360 C   0  0  0  0  0  2  0  0  0  0  0  0
  191.8070  174.6810  145.8880 C   0  0  2  0  0  3  0  0  0  0  0  0
  189.0990  176.0950  147.0710 C   0  0  0  0  0  2  0  0  0  0  0  0
  189.5190  173.1380  143.1210 C   0  0  0  0  0  2  0  0  0  0  0  0
  190.6460  173.0370  139.4380 C   0  0  0  0  0  2  0  0  0  0  0  0
  190.5210  174.4040  145.0790 C   0  0  1  0  0  3  0  0  0  0  0  0
  192.9700  176.6070  146.8560 C   0  0  0  0  0  2  0  0  0  0  0  0
  190.5920  173.3660  140.9300 C   0  0  2  0  0  3  0  0  0  0  0  0
  190.5930  170.5540  139.5960 C   0  0  0  0  0  2  0  0  0  0  0  0
  190.4480  176.7540  146.7350 C   0  0  1  0  0  3  0  0  0  0  0  0
  191.8510  174.1610  142.9750 C   0  0  0  0  0  0  0  0  0  0  0  0
  190.4930  171.0280  142.1970 C   0  0  2  0  0  3  0  0  0  0  0  0
  190.8120  173.5120  143.8730 C   0  0  2  0  0  3  0  0  0  0  0  0
  193.9030  175.1930  141.3560 C   0  0  0  0  0  3  0  0  0  0  0  0
  189.1630  174.5770  147.2660 C   0  0  0  0  0  2  0  0  0  0  0  0
  192.8220  174.5380  140.7730 C   0  0  0  0  0  3  0  0  0  0  0  0
  189.4130  173.8100  145.9640 C   0  0  0  0  0  2  0  0  0  0  0  0
  191.6740  175.8230  146.9160 C   0  0  1  0  0  3  0  0  0  0  0  0
  193.9640  175.3380  142.7400 C   0  0  0  0  0  3  0  0  0  0  0  0
  193.0670  174.9890  145.0600 C   0  0  1  0  0  3  0  0  0  0  0  0
  190.3980  177.3270  145.3960 N   0  0  0  0  0  2  0  0  0  0  0  0
  189.0230  177.7130  145.1330 C   0  0  0  0  0  2  0  0  0  0  0  0
  187.3230  175.9200  142.3650 N   0  0  0  0  0  0  0  0  0  0  0  0
  189.3130  177.0400  142.8040 N   0  0  0  0  0  0  0  0  0  0  0  0
  188.5790  177.1020  143.8510 C   0  0  0  0  0  0  0  0  0  0  0  0
  188.5710  176.3270  141.8590 N   0  0  0  0  0  0  0  0  0  0  0  0
  187.3490  176.4260  143.6760 N   0  0  0  0  0  2  0  0  0  0  0  0
  1 27  1  0  0  0  0
  2 14  1  0  0  0  0
  3 16  1  6  0  0  0
  3  7  1  0  0  0  0
  3  6  1  0  0  0  0
  3 19  1  0  0  0  0
  4 18  2  0  0  0  0
  5 19  1  0  0  0  0
  5 11  1  1  0  0  0
  6  7  1  1  0  0  0
  6 19  1  0  0  0  0
  8 12  1  0  0  0  0
  8 16  1  0  0  0  0
  9 25  1  0  0  0  0
 10 22  1  0  0  0  0
 11 20  1  0  0  0  0
 12 15  1  0  0  0  0
 13  9  1  0  0  0  0
 13 24  1  0  0  0  0
 14 25  1  0  0  0  0
 15  4  1  0  0  0  0
 15  5  1  0  0  0  0
 17 25  1  0  0  0  0
 17 10  1  0  0  0  0
 18  1  1  0  0  0  0
 18 20  1  0  0  0  0
 20 13  1  0  0  0  0
 21 26  1  0  0  0  0
 23 21  2  0  0  0  0
 23  4  1  0  0  0  0
 24 22  1  0  0  0  0
 26  1  2  0  0  0  0
 27  2  1  0  0  0  0
 27  9  1  0  0  0  0
 28 17  1  0  0  0  0
 29 28  1  0  0  0  0
 30 34  1  0  0  0  0
 31 32  2  0  0  0  0
 32 29  1  0  0  0  0
 33 30  2  0  0  0  0
 33 31  1  0  0  0  0
 34 32  1  0  0  0  0
M  END
>  <MODEL>
7

>  <REMARK>
 VINA RESULT:      -7.7      3.454      7.353
  Name = 
  3 active torsions:
  status: ('A' for Active; 'I' for Inactive)
    1  A    between atoms: C_17  and  N_28
    2  A    between atoms: N_28  and  C_29
    3  A    between atoms: C_29  and  C_32
                            x       y       z     vdW  Elec       q    Type
                         _______ _______ _______ _____ _____    ______ ____

>  <TORSDO>
F 3

$$$$
=
 OpenBabel11112417513D

 34 42  0  0  1  0  0  0  0  0999 V2000
  193.6540  175.9930  144.7990 C   0  0  0  0  0  0  0  0  0  0  0  0
  196.0120  175.7470  143.9520 C   0  0  0  0  0  2  0  0  0  0  0  0
  187.8950  176.4510  144.3980 C   0  0  2  0  0  0  0  0  0  0  0  0
  191.5460  175.4270  145.8960 C   0  0  0  0  0  0  0  0  0  0  0  0
  189.6180  174.4690  144.5030 C   0  0  1  0  0  3  0  0  0  0  0  0
  189.2990  177.0480  144.3940 C   0  0  2  0  0  3  0  0  0  0  0  0
  188.0860  177.9450  144.2500 C   0  0  0  0  0  2  0  0  0  0  0  0
  188.4730  176.1810  146.9330 C   0  0  0  0  0  2  0  0  0  0  0  0
  194.2070  175.0540  142.4460 C   0  0  2  0  0  3  0  0  0  0  0  0
  194.7240  171.9860  141.4190 C   0  0  0  0  0  2  0  0  0  0  0  0
  190.6980  173.8190  143.6450 C   0  0  0  0  0  2  0  0  0  0  0  0
  189.2710  174.8990  147.0570 C   0  0  0  0  0  2  0  0  0  0  0  0
  193.0530  174.0680  142.7310 C   0  0  1  0  0  3  0  0  0  0  0  0
  196.6390  175.1380  142.7180 C   0  0  0  0  0  2  0  0  0  0  0  0
  190.2380  174.6760  145.8940 C   0  0  2  0  0  3  0  0  0  0  0  0
  187.4420  176.0430  145.8160 C   0  0  0  0  0  2  0  0  0  0  0  0
  195.6270  172.8570  142.3100 C   0  0  1  0  0  3  0  0  0  0  0  0
  192.3860  175.3760  144.7560 C   0  0  0  0  0  0  0  0  0  0  0  0
  189.0490  175.6970  143.7420 C   0  0  2  0  0  3  0  0  0  0  0  0
  191.9000  174.7650  143.4530 C   0  0  2  0  0  3  0  0  0  0  0  0
  193.2330  176.6990  147.0870 C   0  0  0  0  0  3  0  0  0  0  0  0
  193.6950  172.7690  140.5970 C   0  0  0  0  0  2  0  0  0  0  0  0
  191.9900  176.0710  147.0570 C   0  0  0  0  0  3  0  0  0  0  0  0
  192.5730  173.3720  141.4470 C   0  0  0  0  0  2  0  0  0  0  0  0
  195.5270  174.3770  142.0240 C   0  0  1  0  0  3  0  0  0  0  0  0
  194.0550  176.6670  145.9630 C   0  0  0  0  0  3  0  0  0  0  0  0
  194.5610  176.0210  143.5890 C   0  0  1  0  0  3  0  0  0  0  0  0
  195.3760  172.5530  143.7130 N   0  0  0  0  0  2  0  0  0  0  0  0
  194.8850  171.1890  143.7880 C   0  0  0  0  0  2  0  0  0  0  0  0
  195.6160  169.3640  146.9340 N   0  0  0  0  0  0  0  0  0  0  0  0
  196.7020  170.6470  145.3270 N   0  0  0  0  0  0  0  0  0  0  0  0
  195.4760  170.5200  144.9780 C   0  0  0  0  0  0  0  0  0  0  0  0
  196.8330  169.9400  146.5250 N   0  0  0  0  0  0  0  0  0  0  0  0
  194.7340  169.7630  145.9150 N   0  0  0  0  0  2  0  0  0  0  0  0
  1 26  1  0  0  0  0
  3  7  1  6  0  0  0
  3 16  1  0  0  0  0
  4 23  2  0  0  0  0
  5 11  1  6  0  0  0
  5 15  1  0  0  0  0
  6  7  1  6  0  0  0
  6  3  1  0  0  0  0
  8 12  1  0  0  0  0
  9 13  1  0  0  0  0
  9 27  1  0  0  0  0
 10 17  1  0  0  0  0
 13 20  1  0  0  0  0
 14  2  1  0  0  0  0
 15  4  1  0  0  0  0
 15 12  1  0  0  0  0
 16  8  1  0  0  0  0
 17 28  1  0  0  0  0
 18  1  2  0  0  0  0
 18  4  1  0  0  0  0
 19  6  1  0  0  0  0
 19  3  1  0  0  0  0
 19  5  1  0  0  0  0
 20 11  1  0  0  0  0
 20 18  1  0  0  0  0
 22 10  1  0  0  0  0
 22 24  1  0  0  0  0
 23 21  1  0  0  0  0
 24 13  1  0  0  0  0
 25 17  1  0  0  0  0
 25  9  1  0  0  0  0
 25 14  1  0  0  0  0
 26 21  2  0  0  0  0
 27  2  1  0  0  0  0
 27  1  1  0  0  0  0
 28 29  1  0  0  0  0
 29 32  1  0  0  0  0
 31 33  1  0  0  0  0
 32 31  2  0  0  0  0
 32 34  1  0  0  0  0
 33 30  2  0  0  0  0
 34 30  1  0  0  0  0
M  END
>  <MODEL>
8

>  <REMARK>
 VINA RESULT:      -7.5      2.461      4.178
  Name = 
  3 active torsions:
  status: ('A' for Active; 'I' for Inactive)
    1  A    between atoms: C_17  and  N_28
    2  A    between atoms: N_28  and  C_29
    3  A    between atoms: C_29  and  C_32
                            x       y       z     vdW  Elec       q    Type
                         _______ _______ _______ _____ _____    ______ ____

>  <TORSDO>
F 3

$$$$
=
 OpenBabel11112417513D

 34 42  0  0  1  0  0  0  0  0999 V2000
  192.9730  175.8930  143.1800 C   0  0  0  0  0  0  0  0  0  0  0  0
  191.6490  178.0340  143.1700 C   0  0  0  0  0  2  0  0  0  0  0  0
  195.4420  171.1950  145.4970 C   0  0  2  0  0  0  0  0  0  0  0  0
  193.5450  173.5550  142.7660 C   0  0  0  0  0  0  0  0  0  0  0  0
  193.0580  171.8000  144.5710 C   0  0  1  0  0  3  0  0  0  0  0  0
  195.4450  172.6740  145.1210 C   0  0  2  0  0  3  0  0  0  0  0  0
  196.6620  172.0480  145.7730 C   0  0  0  0  0  2  0  0  0  0  0  0
  195.6390  170.9700  142.9000 C   0  0  0  0  0  2  0  0  0  0  0  0
  191.3220  176.5290  145.0760 C   0  0  2  0  0  3  0  0  0  0  0  0
  188.1320  175.8860  145.4580 C   0  0  0  0  0  2  0  0  0  0  0  0
  191.8520  172.6590  144.9350 C   0  0  0  0  0  2  0  0  0  0  0  0
  194.2310  171.0730  142.3520 C   0  0  0  0  0  2  0  0  0  0  0  0
  190.9520  175.0290  145.0540 C   0  0  1  0  0  3  0  0  0  0  0  0
  190.5530  178.6090  144.0390 C   0  0  0  0  0  2  0  0  0  0  0  0
  193.3690  172.0930  143.0950 C   0  0  2  0  0  3  0  0  0  0  0  0
  195.6150  170.2840  144.2630 C   0  0  0  0  0  2  0  0  0  0  0  0
  188.7980  176.8350  144.4460 C   0  0  1  0  0  3  0  0  0  0  0  0
  192.8900  174.5350  143.5520 C   0  0  0  0  0  0  0  0  0  0  0  0
  194.1680  172.0250  145.6330 C   0  0  2  0  0  3  0  0  0  0  0  0
  192.1920  174.1600  144.8490 C   0  0  2  0  0  3  0  0  0  0  0  0
  194.3500  175.2860  141.2710 C   0  0  0  0  0  3  0  0  0  0  0  0
  189.0030  175.5320  146.6680 C   0  0  0  0  0  2  0  0  0  0  0  0
  194.2520  173.9420  141.6210 C   0  0  0  0  0  3  0  0  0  0  0  0
  190.1810  174.6180  146.3190 C   0  0  0  0  0  2  0  0  0  0  0  0
  190.1140  177.4790  144.9490 C   0  0  1  0  0  3  0  0  0  0  0  0
  193.7230  176.2550  142.0510 C   0  0  0  0  0  3  0  0  0  0  0  0
  192.3440  176.9820  144.0200 C   0  0  1  0  0  3  0  0  0  0  0  0
  188.9840  176.1470  143.1740 N   0  0  0  0  0  2  0  0  0  0  0  0
  187.7000  175.5990  142.7770 C   0  0  0  0  0  2  0  0  0  0  0  0
  185.2730  178.0690  141.4450 N   0  0  0  0  0  0  0  0  0  0  0  0
  187.2590  177.0200  140.8410 N   0  0  0  0  0  0  0  0  0  0  0  0
  186.9400  176.6290  142.0190 C   0  0  0  0  0  0  0  0  0  0  0  0
  186.2610  177.9180  140.4550 N   0  0  0  0  0  0  0  0  0  0  0  0
  185.7280  177.2090  142.4590 N   0  0  0  0  0  2  0  0  0  0  0  0
  1 18  1  0  0  0  0
  1 27  1  0  0  0  0
  2 27  1  0  0  0  0
  2 14  1  0  0  0  0
  3 16  1  6  0  0  0
  3 19  1  0  0  0  0
  3  7  1  0  0  0  0
  4 15  1  0  0  0  0
  4 18  2  0  0  0  0
  5 11  1  1  0  0  0
  5 19  1  0  0  0  0
  6  3  1  0  0  0  0
  6 19  1  0  0  0  0
  6  7  1  1  0  0  0
  8 16  1  0  0  0  0
 10 22  1  0  0  0  0
 12  8  1  0  0  0  0
 12 15  1  0  0  0  0
 13  9  1  0  0  0  0
 13 24  1  0  0  0  0
 14 25  1  0  0  0  0
 15  5  1  0  0  0  0
 17 25  1  0  0  0  0
 17 10  1  0  0  0  0
 18 20  1  0  0  0  0
 20 11  1  0  0  0  0
 20 13  1  0  0  0  0
 21 23  2  0  0  0  0
 21 26  1  0  0  0  0
 23  4  1  0  0  0  0
 24 22  1  0  0  0  0
 25  9  1  0  0  0  0
 26  1  2  0  0  0  0
 27  9  1  0  0  0  0
 28 17  1  0  0  0  0
 29 28  1  0  0  0  0
 30 34  1  0  0  0  0
 31 32  2  0  0  0  0
 32 34  1  0  0  0  0
 32 29  1  0  0  0  0
 33 31  1  0  0  0  0
 33 30  2  0  0  0  0
M  END
>  <MODEL>
9

>  <REMARK>
 VINA RESULT:      -7.5      3.406      8.344
  Name = 
  3 active torsions:
  status: ('A' for Active; 'I' for Inactive)
    1  A    between atoms: C_17  and  N_28
    2  A    between atoms: N_28  and  C_29
    3  A    between atoms: C_29  and  C_32
                            x       y       z     vdW  Elec       q    Type
                         _______ _______ _______ _____ _____    ______ ____

>  <TORSDO>
F 3

$$$$
