=
 OpenBabel11112417593D

 34 41  0  0  1  0  0  0  0  0999 V2000
  186.9190  177.1990  145.0430 C   0  0  0  0  0  0  0  0  0  0  0  0
  184.7400  178.5930  145.3060 C   0  0  0  0  0  3  0  0  0  0  0  0
  190.2880  172.2580  143.6330 C   0  0  2  0  0  3  0  0  0  0  0  0
  188.8460  175.7920  144.5750 C   0  0  0  0  0  0  0  0  0  0  0  0
  189.0600  174.7760  142.3060 C   0  0  0  0  0  0  0  0  0  0  0  0
  189.1860  172.3770  141.5610 C   0  0  0  0  0  2  0  0  0  0  0  0
  190.1510  171.5990  142.3470 N   0  0  0  0  0  2  0  0  0  0  0  0
  191.4130  173.2570  143.4350 C   0  0  1  0  0  3  0  0  0  0  0  0
  185.2890  177.6860  143.2420 C   0  0  0  0  0  0  0  0  0  0  0  0
  183.8680  178.2930  140.6100 C   0  0  0  0  0  3  0  0  0  0  0  0
  187.9540  175.3570  141.9460 N   0  0  0  0  0  0  0  0  0  0  0  0
  190.9490  174.5460  144.0870 C   0  0  0  0  0  2  0  0  0  0  0  0
  185.9780  176.8030  142.2500 C   0  0  0  0  0  0  0  0  0  0  0  0
  183.7040  178.8780  144.3140 N   0  0  0  0  0  0  0  0  0  0  0  0
  189.6050  174.9890  143.6460 N   0  0  0  0  0  0  0  0  0  0  0  0
  191.6180  172.0490  144.3250 C   0  0  0  0  0  2  0  0  0  0  0  0
  183.3310  178.3260  141.8400 C   0  0  0  0  0  0  0  0  0  0  0  0
  187.6660  176.4150  144.1460 C   0  0  0  0  0  0  0  0  0  0  0  0
  189.6660  173.8190  141.3100 C   0  0  0  0  0  2  0  0  0  0  0  0
  187.2300  176.2290  142.7820 N   0  0  0  0  0  0  0  0  0  0  0  0
  188.5180  176.7380  146.7960 C   0  0  0  0  0  3  0  0  0  0  0  0
  185.2960  178.1500  140.2520 C   0  0  0  0  0  3  0  0  0  0  0  0
  189.2650  175.9610  145.9070 C   0  0  0  0  0  3  0  0  0  0  0  0
  186.2400  177.5390  140.9720 C   0  0  0  0  0  3  0  0  0  0  0  0
  184.1300  178.2910  143.0840 C   0  0  2  0  0  3  0  0  0  0  0  0
  187.3460  177.3590  146.3640 C   0  0  0  0  0  3  0  0  0  0  0  0
  185.7320  177.8240  144.5690 N   0  0  0  0  0  0  0  0  0  0  0  0
  181.8600  178.5470  141.9450 C   0  0  0  0  0  2  0  0  0  0  0  0
  181.1910  178.2870  140.6050 C   0  0  0  0  0  2  0  0  0  0  0  0
  178.1320  176.8920  140.0920 C   0  0  0  0  0  2  0  0  0  0  0  0
  179.2780  177.9020  141.9030 C   0  0  0  0  0  2  0  0  0  0  0  0
  179.7690  178.5660  140.7010 N   0  0  0  0  0  0  0  0  0  0  0  0
  177.9810  177.2190  141.5490 C   0  0  0  0  0  2  0  0  0  0  0  0
  179.1270  177.9080  139.5670 C   0  0  0  0  0  2  0  0  0  0  0  0
  1 26  1  0  0  0  0
  3 16  1  1  0  0  0
  4 23  2  0  0  0  0
  5 15  1  0  0  0  0
  6  7  1  0  0  0  0
  7  3  1  0  0  0  0
  8  3  1  0  0  0  0
  8 12  1  1  0  0  0
  8 16  1  0  0  0  0
  9 27  1  0  0  0  0
 10 17  2  0  0  0  0
 11  5  2  0  0  0  0
 11 20  1  0  0  0  0
 13 20  1  0  0  0  0
 13  9  2  0  0  0  0
 14  2  2  0  0  0  0
 15 12  1  0  0  0  0
 15  4  1  0  0  0  0
 17 28  1  0  0  0  0
 18  4  1  0  0  0  0
 18  1  2  0  0  0  0
 19  6  1  0  0  0  0
 19  5  1  0  0  0  0
 20 18  1  0  0  0  0
 22 10  1  0  0  0  0
 22 24  2  0  0  0  0
 23 21  1  0  0  0  0
 24 13  1  0  0  0  0
 25 17  1  1  0  0  0
 25  9  1  0  0  0  0
 25 14  1  0  0  0  0
 26 21  2  0  0  0  0
 27  1  1  0  0  0  0
 27  2  1  0  0  0  0
 29 32  1  0  0  0  0
 29 28  1  0  0  0  0
 30 33  1  0  0  0  0
 32 31  1  0  0  0  0
 33 31  1  0  0  0  0
 34 30  1  0  0  0  0
 34 32  1  0  0  0  0
M  END
>  <MODEL>
1

>  <REMARK>
 VINA RESULT:      -9.2      0.000      0.000
  Name = 
  3 active torsions:
  status: ('A' for Active; 'I' for Inactive)
    1  A    between atoms: C_17  and  C_28
    2  A    between atoms: C_28  and  C_29
    3  A    between atoms: C_29  and  N_32
                            x       y       z     vdW  Elec       q    Type
                         _______ _______ _______ _____ _____    ______ ____

>  <TORSDO>
F 3

$$$$
=
 OpenBabel11112417593D

 34 41  0  0  1  0  0  0  0  0999 V2000
  192.1830  176.4990  145.7920 C   0  0  0  0  0  0  0  0  0  0  0  0
  189.9190  176.8370  147.0260 C   0  0  0  0  0  3  0  0  0  0  0  0
  196.1360  173.7800  141.9550 C   0  0  2  0  0  3  0  0  0  0  0  0
  194.1550  176.1100  144.4260 C   0  0  0  0  0  0  0  0  0  0  0  0
  193.8740  175.9000  141.9550 C   0  0  0  0  0  0  0  0  0  0  0  0
  194.4170  174.0240  140.3710 C   0  0  0  0  0  2  0  0  0  0  0  0
  195.7680  173.4900  140.5810 N   0  0  0  0  0  2  0  0  0  0  0  0
  196.7970  175.1450  141.8960 C   0  0  1  0  0  3  0  0  0  0  0  0
  189.9760  176.7960  144.7060 C   0  0  0  0  0  0  0  0  0  0  0  0
  187.6440  177.5010  142.8670 C   0  0  0  0  0  3  0  0  0  0  0  0
  192.5950  176.0920  142.0890 N   0  0  0  0  0  0  0  0  0  0  0  0
  196.2340  175.9350  143.0620 C   0  0  0  0  0  2  0  0  0  0  0  0
  190.5130  176.5420  143.3330 C   0  0  0  0  0  0  0  0  0  0  0  0
  188.5740  176.9630  146.4640 N   0  0  0  0  0  0  0  0  0  0  0  0
  194.7530  175.9360  143.1240 N   0  0  0  0  0  0  0  0  0  0  0  0
  197.6220  173.9130  142.2090 C   0  0  0  0  0  2  0  0  0  0  0  0
  187.5650  176.9960  144.1080 C   0  0  0  0  0  0  0  0  0  0  0  0
  192.7750  176.3290  144.5290 C   0  0  0  0  0  0  0  0  0  0  0  0
  194.3560  175.5510  140.5700 C   0  0  0  0  0  2  0  0  0  0  0  0
  191.9790  176.3650  143.3250 N   0  0  0  0  0  0  0  0  0  0  0  0
  194.3380  176.2270  146.8520 C   0  0  0  0  0  3  0  0  0  0  0  0
  188.8480  178.0120  142.1750 C   0  0  0  0  0  3  0  0  0  0  0  0
  194.9300  176.0600  145.5980 C   0  0  0  0  0  3  0  0  0  0  0  0
  190.1110  177.6350  142.3920 C   0  0  0  0  0  3  0  0  0  0  0  0
  188.7100  176.9350  145.0420 C   0  0  2  0  0  3  0  0  0  0  0  0
  192.9640  176.4480  146.9510 C   0  0  0  0  0  3  0  0  0  0  0  0
  190.7800  176.7300  145.8580 N   0  0  0  0  0  0  0  0  0  0  0  0
  186.2160  176.6060  144.6100 C   0  0  0  0  0  2  0  0  0  0  0  0
  185.1970  177.6850  144.2760 C   0  0  0  0  0  2  0  0  0  0  0  0
  185.6500  177.7530  147.6460 C   0  0  0  0  0  2  0  0  0  0  0  0
  185.4850  179.3480  145.9020 C   0  0  0  0  0  2  0  0  0  0  0  0
  184.6390  178.2310  145.5010 N   0  0  0  0  0  0  0  0  0  0  0  0
  185.7230  179.2300  147.3860 C   0  0  0  0  0  2  0  0  0  0  0  0
  184.7840  177.2050  146.5290 C   0  0  0  0  0  2  0  0  0  0  0  0
  1 27  1  0  0  0  0
  1 26  1  0  0  0  0
  3 16  1  6  0  0  0
  4 18  1  0  0  0  0
  4 23  2  0  0  0  0
  5 11  2  0  0  0  0
  5 15  1  0  0  0  0
  6 19  1  0  0  0  0
  6  7  1  0  0  0  0
  7  3  1  0  0  0  0
  8  3  1  0  0  0  0
  8 16  1  1  0  0  0
  8 12  1  0  0  0  0
  9 25  1  0  0  0  0
  9 27  1  0  0  0  0
 10 17  2  0  0  0  0
 11 20  1  0  0  0  0
 12 15  1  0  0  0  0
 13  9  2  0  0  0  0
 14  2  2  0  0  0  0
 15  4  1  0  0  0  0
 17 28  1  0  0  0  0
 18  1  2  0  0  0  0
 19  5  1  0  0  0  0
 20 13  1  0  0  0  0
 20 18  1  0  0  0  0
 21 26  2  0  0  0  0
 22 24  2  0  0  0  0
 22 10  1  0  0  0  0
 23 21  1  0  0  0  0
 24 13  1  0  0  0  0
 25 17  1  1  0  0  0
 25 14  1  0  0  0  0
 27  2  1  0  0  0  0
 29 28  1  0  0  0  0
 29 32  1  0  0  0  0
 31 33  1  0  0  0  0
 32 31  1  0  0  0  0
 32 34  1  0  0  0  0
 33 30  1  0  0  0  0
 34 30  1  0  0  0  0
M  END
>  <MODEL>
2

>  <REMARK>
 VINA RESULT:      -8.6      4.038      6.003
  Name = 
  3 active torsions:
  status: ('A' for Active; 'I' for Inactive)
    1  A    between atoms: C_17  and  C_28
    2  A    between atoms: C_28  and  C_29
    3  A    between atoms: C_29  and  N_32
                            x       y       z     vdW  Elec       q    Type
                         _______ _______ _______ _____ _____    ______ ____

>  <TORSDO>
F 3

$$$$
=
 OpenBabel11112417593D

 34 41  0  0  1  0  0  0  0  0999 V2000
  189.3050  175.2220  142.4040 C   0  0  0  0  0  0  0  0  0  0  0  0
  190.9910  173.3950  141.6400 C   0  0  0  0  0  3  0  0  0  0  0  0
  184.9200  177.6980  145.9240 C   0  0  2  0  0  3  0  0  0  0  0  0
  187.7880  176.8580  143.3690 C   0  0  0  0  0  0  0  0  0  0  0  0
  188.0030  177.4010  145.7950 C   0  0  0  0  0  0  0  0  0  0  0  0
  186.3740  177.1900  147.6990 C   0  0  0  0  0  2  0  0  0  0  0  0
  185.0550  177.7430  147.3690 N   0  0  0  0  0  2  0  0  0  0  0  0
  185.4810  179.0230  145.4430 C   0  0  1  0  0  3  0  0  0  0  0  0
  191.0910  174.2270  143.8040 C   0  0  0  0  0  0  0  0  0  0  0  0
  193.3160  173.6610  145.8150 C   0  0  0  0  0  3  0  0  0  0  0  0
  188.9980  176.5680  145.8880 N   0  0  0  0  0  0  0  0  0  0  0  0
  186.3560  178.7000  144.2470 C   0  0  0  0  0  2  0  0  0  0  0  0
  190.6420  174.9350  145.0440 C   0  0  2  0  0  3  0  0  0  0  0  0
  192.0320  172.7200  142.4160 N   0  0  0  0  0  0  0  0  0  0  0  0
  187.3520  177.6320  144.5060 N   0  0  0  0  0  0  0  0  0  0  0  0
  183.9970  178.7390  145.3290 C   0  0  0  0  0  2  0  0  0  0  0  0
  192.9080  172.8580  144.8200 C   0  0  0  0  0  0  0  0  0  0  0  0
  188.8720  175.9810  143.5050 C   0  0  0  0  0  0  0  0  0  0  0  0
  187.5220  178.0150  147.0850 C   0  0  0  0  0  2  0  0  0  0  0  0
  189.5240  175.8650  144.7880 N   0  0  0  0  0  0  0  0  0  0  0  0
  187.5740  176.2040  141.0320 C   0  0  0  0  0  3  0  0  0  0  0  0
  192.9290  175.0690  146.0560 C   0  0  0  0  0  3  0  0  0  0  0  0
  187.1430  176.9620  142.1230 C   0  0  0  0  0  3  0  0  0  0  0  0
  191.7850  175.6540  145.6910 C   0  0  0  0  0  3  0  0  0  0  0  0
  192.0220  173.3000  143.7220 C   0  0  0  0  0  0  0  0  0  0  0  0
  188.6560  175.3340  141.1700 C   0  0  0  0  0  3  0  0  0  0  0  0
  190.4160  174.3500  142.5760 N   0  0  0  0  0  0  0  0  0  0  0  0
  193.4950  171.4890  144.7540 C   0  0  0  0  0  2  0  0  0  0  0  0
  194.6000  171.3380  145.7880 C   0  0  0  0  0  2  0  0  0  0  0  0
  196.7280  169.1920  147.3470 C   0  0  0  0  0  2  0  0  0  0  0  0
  194.5220  169.1040  146.4880 C   0  0  0  0  0  2  0  0  0  0  0  0
  195.2420  170.0440  145.6380 N   0  0  0  0  0  0  0  0  0  0  0  0
  195.5460  168.2750  147.2220 C   0  0  0  0  0  2  0  0  0  0  0  0
  196.5850  170.1690  146.1960 C   0  0  0  0  0  2  0  0  0  0  0  0
  1 27  1  0  0  0  0
  1 18  1  0  0  0  0
  2 14  2  0  0  0  0
  2 27  1  0  0  0  0
  3 16  1  1  0  0  0
  3  7  1  0  0  0  0
  4 18  2  0  0  0  0
  4 15  1  0  0  0  0
  5 11  2  0  0  0  0
  5 19  1  0  0  0  0
  7  6  1  0  0  0  0
  8 12  1  6  0  0  0
  8  3  1  0  0  0  0
  9 13  1  0  0  0  0
 10 22  1  0  0  0  0
 12 15  1  0  0  0  0
 13 24  1  6  0  0  0
 14 25  1  0  0  0  0
 15  5  1  0  0  0  0
 16  8  1  0  0  0  0
 17 10  2  0  0  0  0
 18 20  1  0  0  0  0
 19  6  1  0  0  0  0
 20 13  1  0  0  0  0
 20 11  1  0  0  0  0
 21 26  1  0  0  0  0
 21 23  2  0  0  0  0
 23  4  1  0  0  0  0
 24 22  2  0  0  0  0
 25  9  2  0  0  0  0
 25 17  1  0  0  0  0
 26  1  2  0  0  0  0
 27  9  1  0  0  0  0
 28 17  1  0  0  0  0
 28 29  1  0  0  0  0
 31 33  1  0  0  0  0
 32 29  1  0  0  0  0
 32 34  1  0  0  0  0
 32 31  1  0  0  0  0
 33 30  1  0  0  0  0
 34 30  1  0  0  0  0
M  END
>  <MODEL>
3

>  <REMARK>
 VINA RESULT:      -8.5      3.582     10.689
  Name = 
  3 active torsions:
  status: ('A' for Active; 'I' for Inactive)
    1  A    between atoms: C_17  and  C_28
    2  A    between atoms: C_28  and  C_29
    3  A    between atoms: C_29  and  N_32
                            x       y       z     vdW  Elec       q    Type
                         _______ _______ _______ _____ _____    ______ ____

>  <TORSDO>
F 3

$$$$
=
 OpenBabel11112417593D

 34 41  0  0  1  0  0  0  0  0999 V2000
  189.7620  174.7060  142.2770 C   0  0  0  0  0  0  0  0  0  0  0  0
  187.2150  175.2230  142.2130 C   0  0  0  0  0  3  0  0  0  0  0  0
  195.7380  175.9860  142.9150 C   0  0  2  0  0  3  0  0  0  0  0  0
  192.1600  174.4000  142.5370 C   0  0  0  0  0  0  0  0  0  0  0  0
  193.2540  175.2440  144.6140 C   0  0  0  0  0  0  0  0  0  0  0  0
  195.0850  176.9320  144.9640 C   0  0  0  0  0  2  0  0  0  0  0  0
  196.2310  176.7040  144.0760 N   0  0  0  0  0  2  0  0  0  0  0  0
  195.8660  174.5200  143.2850 C   0  0  1  0  0  3  0  0  0  0  0  0
  188.4500  175.7310  144.1120 C   0  0  0  0  0  0  0  0  0  0  0  0
  187.2900  176.6280  146.7880 C   0  0  0  0  0  3  0  0  0  0  0  0
  192.0990  175.6570  145.0490 N   0  0  0  0  0  0  0  0  0  0  0  0
  194.5740  173.8600  142.8440 C   0  0  0  0  0  2  0  0  0  0  0  0
  189.6570  175.9900  144.9570 C   0  0  2  0  0  3  0  0  0  0  0  0
  186.3820  175.8730  143.2250 N   0  0  0  0  0  0  0  0  0  0  0  0
  193.3540  174.5460  143.3330 N   0  0  0  0  0  0  0  0  0  0  0  0
  196.7580  175.1140  142.2150 C   0  0  0  0  0  2  0  0  0  0  0  0
  186.7570  176.8290  145.5730 C   0  0  0  0  0  0  0  0  0  0  0  0
  190.9320  174.8440  143.0450 C   0  0  0  0  0  0  0  0  0  0  0  0
  194.4530  175.6140  145.4510 C   0  0  0  0  0  2  0  0  0  0  0  0
  190.8920  175.4490  144.3550 N   0  0  0  0  0  0  0  0  0  0  0  0
  191.0390  173.6910  140.4930 C   0  0  0  0  0  3  0  0  0  0  0  0
  188.4440  175.7710  147.1370 C   0  0  0  0  0  3  0  0  0  0  0  0
  192.2030  173.8230  141.2550 C   0  0  0  0  0  3  0  0  0  0  0  0
  189.4660  175.4480  146.3390 C   0  0  0  0  0  3  0  0  0  0  0  0
  187.2210  176.1390  144.3500 C   0  0  0  0  0  0  0  0  0  0  0  0
  189.8180  174.1310  141.0040 C   0  0  0  0  0  3  0  0  0  0  0  0
  188.5320  175.1580  142.8300 N   0  0  0  0  0  0  0  0  0  0  0  0
  185.5440  177.6920  145.4860 C   0  0  0  0  0  2  0  0  0  0  0  0
  185.9340  179.1120  145.1030 C   0  0  0  0  0  2  0  0  0  0  0  0
  185.1310  178.3790  141.8810 C   0  0  0  0  0  2  0  0  0  0  0  0
  183.9590  178.6810  143.9170 C   0  0  0  0  0  2  0  0  0  0  0  0
  185.1170  179.5640  143.9900 N   0  0  0  0  0  0  0  0  0  0  0  0
  183.7510  178.3210  142.4670 C   0  0  0  0  0  2  0  0  0  0  0  0
  185.8930  179.3380  142.7740 C   0  0  0  0  0  2  0  0  0  0  0  0
  1 27  1  0  0  0  0
  1 18  1  0  0  0  0
  2 27  1  0  0  0  0
  2 14  2  0  0  0  0
  3 16  1  6  0  0  0
  3  8  1  0  0  0  0
  3  7  1  0  0  0  0
  4 18  2  0  0  0  0
  4 15  1  0  0  0  0
  5 11  2  0  0  0  0
  5 19  1  0  0  0  0
  6 19  1  0  0  0  0
  7  6  1  0  0  0  0
  8 16  1  6  0  0  0
  9 25  2  0  0  0  0
  9 13  1  0  0  0  0
 10 22  1  0  0  0  0
 12  8  1  0  0  0  0
 12 15  1  0  0  0  0
 13 24  1  1  0  0  0
 14 25  1  0  0  0  0
 15  5  1  0  0  0  0
 17 10  2  0  0  0  0
 18 20  1  0  0  0  0
 20 13  1  0  0  0  0
 20 11  1  0  0  0  0
 21 26  1  0  0  0  0
 21 23  2  0  0  0  0
 23  4  1  0  0  0  0
 24 22  2  0  0  0  0
 25 17  1  0  0  0  0
 26  1  2  0  0  0  0
 27  9  1  0  0  0  0
 28 17  1  0  0  0  0
 29 28  1  0  0  0  0
 30 33  1  0  0  0  0
 30 34  1  0  0  0  0
 31 32  1  0  0  0  0
 32 29  1  0  0  0  0
 33 31  1  0  0  0  0
 34 32  1  0  0  0  0
M  END
>  <MODEL>
4

>  <REMARK>
 VINA RESULT:      -8.5      2.714      5.825
  Name = 
  3 active torsions:
  status: ('A' for Active; 'I' for Inactive)
    1  A    between atoms: C_17  and  C_28
    2  A    between atoms: C_28  and  C_29
    3  A    between atoms: C_29  and  N_32
                            x       y       z     vdW  Elec       q    Type
                         _______ _______ _______ _____ _____    ______ ____

>  <TORSDO>
F 3

$$$$
=
 OpenBabel11112417593D

 34 41  0  0  1  0  0  0  0  0999 V2000
  190.8110  176.6510  146.0340 C   0  0  0  0  0  0  0  0  0  0  0  0
  193.2990  176.4400  146.7580 C   0  0  0  0  0  3  0  0  0  0  0  0
  186.1280  178.4580  142.4920 C   0  0  2  0  0  3  0  0  0  0  0  0
  188.5720  176.8280  145.1050 C   0  0  0  0  0  0  0  0  0  0  0  0
  188.2120  176.1760  142.7230 C   0  0  0  0  0  0  0  0  0  0  0  0
  187.3650  177.4820  140.7480 C   0  0  0  0  0  2  0  0  0  0  0  0
  186.1400  178.2300  141.0580 N   0  0  0  0  0  2  0  0  0  0  0  0
  185.4120  177.2510  143.0680 C   0  0  1  0  0  3  0  0  0  0  0  0
  192.6450  175.7240  144.6500 C   0  0  0  0  0  0  0  0  0  0  0  0
  194.3860  174.1520  142.6980 C   0  0  0  0  0  3  0  0  0  0  0  0
  189.4730  175.8710  142.6210 N   0  0  0  0  0  0  0  0  0  0  0  0
  186.2210  176.8200  144.2760 C   0  0  0  0  0  2  0  0  0  0  0  0
  191.7830  175.5820  143.4350 C   0  0  0  0  0  0  0  0  0  0  0  0
  194.4460  175.9590  145.9870 N   0  0  0  0  0  0  0  0  0  0  0  0
  187.6660  176.6430  143.9970 N   0  0  0  0  0  0  0  0  0  0  0  0
  184.7540  178.6150  143.1070 C   0  0  0  0  0  2  0  0  0  0  0  0
  194.8070  175.0210  143.6300 C   0  0  0  0  0  0  0  0  0  0  0  0
  189.9200  176.4740  144.9620 C   0  0  0  0  0  0  0  0  0  0  0  0
  187.4050  176.1120  141.4510 C   0  0  0  0  0  2  0  0  0  0  0  0
  190.3750  175.9390  143.6990 N   0  0  0  0  0  0  0  0  0  0  0  0
  189.0190  177.5400  147.3910 C   0  0  0  0  0  3  0  0  0  0  0  0
  193.0220  173.6070  142.5220 C   0  0  0  0  0  3  0  0  0  0  0  0
  188.1300  177.3620  146.3280 C   0  0  0  0  0  3  0  0  0  0  0  0
  191.8770  174.1980  142.8740 C   0  0  0  0  0  3  0  0  0  0  0  0
  193.9470  175.5370  144.7170 C   0  0  2  0  0  3  0  0  0  0  0  0
  190.3600  177.1830  147.2460 C   0  0  0  0  0  3  0  0  0  0  0  0
  192.1710  176.2710  145.8560 N   0  0  0  0  0  0  0  0  0  0  0  0
  196.2570  175.3720  143.6420 C   0  0  0  0  0  2  0  0  0  0  0  0
  197.0680  174.2790  142.9640 C   0  0  0  0  0  2  0  0  0  0  0  0
  196.8600  172.9840  146.1010 C   0  0  0  0  0  2  0  0  0  0  0  0
  197.3560  172.1660  143.9330 C   0  0  0  0  0  2  0  0  0  0  0  0
  197.8310  173.5440  143.9570 N   0  0  0  0  0  0  0  0  0  0  0  0
  197.1860  171.7180  145.3630 C   0  0  0  0  0  2  0  0  0  0  0  0
  197.4690  174.0900  145.2620 C   0  0  0  0  0  2  0  0  0  0  0  0
  1 26  1  0  0  0  0
  3  8  1  0  0  0  0
  3 16  1  6  0  0  0
  4 23  2  0  0  0  0
  5 15  1  0  0  0  0
  6  7  1  0  0  0  0
  6 19  1  0  0  0  0
  7  3  1  0  0  0  0
  8 16  1  1  0  0  0
  8 12  1  0  0  0  0
  9 25  1  0  0  0  0
  9 27  1  0  0  0  0
 10 17  2  0  0  0  0
 11  5  2  0  0  0  0
 11 20  1  0  0  0  0
 13 20  1  0  0  0  0
 13  9  2  0  0  0  0
 14  2  2  0  0  0  0
 15 12  1  0  0  0  0
 15  4  1  0  0  0  0
 17 28  1  0  0  0  0
 18  4  1  0  0  0  0
 18  1  2  0  0  0  0
 19  5  1  0  0  0  0
 20 18  1  0  0  0  0
 22 10  1  0  0  0  0
 22 24  2  0  0  0  0
 23 21  1  0  0  0  0
 24 13  1  0  0  0  0
 25 17  1  6  0  0  0
 25 14  1  0  0  0  0
 26 21  2  0  0  0  0
 27  1  1  0  0  0  0
 27  2  1  0  0  0  0
 29 28  1  0  0  0  0
 29 32  1  0  0  0  0
 31 32  1  0  0  0  0
 31 33  1  0  0  0  0
 32 34  1  0  0  0  0
 33 30  1  0  0  0  0
 34 30  1  0  0  0  0
M  END
>  <MODEL>
5

>  <REMARK>
 VINA RESULT:      -8.5      3.449     10.399
  Name = 
  3 active torsions:
  status: ('A' for Active; 'I' for Inactive)
    1  A    between atoms: C_17  and  C_28
    2  A    between atoms: C_28  and  C_29
    3  A    between atoms: C_29  and  N_32
                            x       y       z     vdW  Elec       q    Type
                         _______ _______ _______ _____ _____    ______ ____

>  <TORSDO>
F 3

$$$$
=
 OpenBabel11112417593D

 34 41  0  0  1  0  0  0  0  0999 V2000
  190.8710  175.2120  145.2790 C   0  0  0  0  0  0  0  0  0  0  0  0
  193.2770  174.3680  144.7720 C   0  0  0  0  0  3  0  0  0  0  0  0
  186.0120  178.9430  144.8080 C   0  0  2  0  0  3  0  0  0  0  0  0
  188.6060  176.0700  145.4950 C   0  0  0  0  0  0  0  0  0  0  0  0
  187.2810  176.4790  143.4200 C   0  0  0  0  0  0  0  0  0  0  0  0
  186.2360  178.5720  142.4990 C   0  0  0  0  0  2  0  0  0  0  0  0
  185.4680  179.3050  143.5120 N   0  0  0  0  0  2  0  0  0  0  0  0
  185.2150  177.7250  145.2350 C   0  0  1  0  0  3  0  0  0  0  0  0
  191.7640  174.6550  143.0360 C   0  0  0  0  0  0  0  0  0  0  0  0
  192.1900  173.7530  140.1520 C   0  0  0  0  0  3  0  0  0  0  0  0
  188.2830  176.0590  142.7040 N   0  0  0  0  0  0  0  0  0  0  0  0
  186.2220  176.7360  145.7880 C   0  0  0  0  0  2  0  0  0  0  0  0
  190.5380  175.1360  142.3250 C   0  0  0  0  0  0  0  0  0  0  0  0
  193.8960  174.0720  143.4800 N   0  0  0  0  0  0  0  0  0  0  0  0
  187.3650  176.4750  144.8810 N   0  0  0  0  0  0  0  0  0  0  0  0
  185.0420  179.0410  145.9650 C   0  0  0  0  0  2  0  0  0  0  0  0
  193.1390  174.1070  141.0320 C   0  0  0  0  0  0  0  0  0  0  0  0
  189.6580  175.6090  144.6910 C   0  0  0  0  0  0  0  0  0  0  0  0
  186.1080  177.0460  142.6610 C   0  0  0  0  0  2  0  0  0  0  0  0
  189.4760  175.5600  143.2590 N   0  0  0  0  0  0  0  0  0  0  0  0
  189.9940  175.7390  147.4690 C   0  0  0  0  0  3  0  0  0  0  0  0
  190.7520  173.5280  140.4170 C   0  0  0  0  0  3  0  0  0  0  0  0
  188.7860  176.1310  146.8880 C   0  0  0  0  0  3  0  0  0  0  0  0
  190.0230  174.0910  141.3840 C   0  0  0  0  0  3  0  0  0  0  0  0
  192.8930  174.2680  142.4810 C   0  0  2  0  0  3  0  0  0  0  0  0
  191.0370  175.2770  146.6660 C   0  0  0  0  0  3  0  0  0  0  0  0
  191.9120  174.7390  144.4320 N   0  0  0  0  0  0  0  0  0  0  0  0
  194.5410  174.2080  140.5320 C   0  0  0  0  0  2  0  0  0  0  0  0
  194.9290  175.6660  140.3420 C   0  0  0  0  0  2  0  0  0  0  0  0
  196.8920  176.0980  143.0850 C   0  0  0  0  0  2  0  0  0  0  0  0
  196.7980  174.5910  141.2600 C   0  0  0  0  0  2  0  0  0  0  0  0
  196.3090  175.8650  140.7480 N   0  0  0  0  0  0  0  0  0  0  0  0
  197.5560  174.8710  142.5330 C   0  0  0  0  0  2  0  0  0  0  0  0
  196.2900  176.7900  141.8770 C   0  0  0  0  0  2  0  0  0  0  0  0
  1 26  1  0  0  0  0
  3  8  1  0  0  0  0
  3 16  1  1  0  0  0
  4 23  2  0  0  0  0
  5 15  1  0  0  0  0
  6 19  1  0  0  0  0
  6  7  1  0  0  0  0
  7  3  1  0  0  0  0
  8 12  1  1  0  0  0
  8 16  1  0  0  0  0
  9 27  1  0  0  0  0
 10 22  1  0  0  0  0
 10 17  2  0  0  0  0
 11 20  1  0  0  0  0
 11  5  2  0  0  0  0
 13  9  2  0  0  0  0
 13 20  1  0  0  0  0
 14  2  2  0  0  0  0
 15  4  1  0  0  0  0
 15 12  1  0  0  0  0
 18  1  2  0  0  0  0
 18  4  1  0  0  0  0
 19  5  1  0  0  0  0
 20 18  1  0  0  0  0
 22 24  2  0  0  0  0
 23 21  1  0  0  0  0
 24 13  1  0  0  0  0
 25 17  1  6  0  0  0
 25  9  1  0  0  0  0
 25 14  1  0  0  0  0
 26 21  2  0  0  0  0
 27  2  1  0  0  0  0
 27  1  1  0  0  0  0
 28 17  1  0  0  0  0
 29 28  1  0  0  0  0
 29 32  1  0  0  0  0
 31 33  1  0  0  0  0
 32 31  1  0  0  0  0
 32 34  1  0  0  0  0
 33 30  1  0  0  0  0
 34 30  1  0  0  0  0
M  END
>  <MODEL>
6

>  <REMARK>
 VINA RESULT:      -8.4      3.538      9.737
  Name = 
  3 active torsions:
  status: ('A' for Active; 'I' for Inactive)
    1  A    between atoms: C_17  and  C_28
    2  A    between atoms: C_28  and  C_29
    3  A    between atoms: C_29  and  N_32
                            x       y       z     vdW  Elec       q    Type
                         _______ _______ _______ _____ _____    ______ ____

>  <TORSDO>
F 3

$$$$
=
 OpenBabel11112417593D

 34 41  0  0  1  0  0  0  0  0999 V2000
  192.1570  176.0130  145.2540 C   0  0  0  0  0  0  0  0  0  0  0  0
  190.0530  177.5400  145.3030 C   0  0  0  0  0  3  0  0  0  0  0  0
  195.2990  170.7620  145.8050 C   0  0  2  0  0  3  0  0  0  0  0  0
  193.9650  174.3940  145.1080 C   0  0  0  0  0  0  0  0  0  0  0  0
  193.6230  172.3420  143.7310 C   0  0  0  0  0  0  0  0  0  0  0  0
  193.6800  169.9020  144.3360 C   0  0  0  0  0  2  0  0  0  0  0  0
  194.8610  169.5520  145.1330 N   0  0  0  0  0  2  0  0  0  0  0  0
  196.2730  171.4090  144.8370 C   0  0  1  0  0  3  0  0  0  0  0  0
  190.0810  175.6550  143.9490 C   0  0  0  0  0  0  0  0  0  0  0  0
  187.9780  174.9530  141.8520 C   0  0  0  0  0  3  0  0  0  0  0  0
  192.4300  172.7560  143.4190 N   0  0  0  0  0  0  0  0  0  0  0  0
  195.9280  172.8860  144.8190 C   0  0  0  0  0  2  0  0  0  0  0  0
  190.5300  174.3280  143.4220 C   0  0  0  0  0  0  0  0  0  0  0  0
  188.7760  177.3700  144.6110 N   0  0  0  0  0  0  0  0  0  0  0  0
  194.4930  173.1620  144.5730 N   0  0  0  0  0  0  0  0  0  0  0  0
  196.7750  170.8160  146.1380 C   0  0  0  0  0  2  0  0  0  0  0  0
  187.7880  175.6620  142.9750 C   0  0  0  0  0  0  0  0  0  0  0  0
  192.6810  174.8150  144.7380 C   0  0  0  0  0  0  0  0  0  0  0  0
  193.9940  170.9590  143.2600 C   0  0  0  0  0  2  0  0  0  0  0  0
  191.9080  173.9960  143.8330 N   0  0  0  0  0  0  0  0  0  0  0  0
  194.1890  176.3720  146.5130 C   0  0  0  0  0  3  0  0  0  0  0  0
  189.2650  174.5140  141.2690 C   0  0  0  0  0  3  0  0  0  0  0  0
  194.7140  175.1830  146.0000 C   0  0  0  0  0  3  0  0  0  0  0  0
  190.4000  174.2750  141.9320 C   0  0  0  0  0  3  0  0  0  0  0  0
  188.8910  176.1970  143.8030 C   0  0  2  0  0  3  0  0  0  0  0  0
  192.9110  176.7890  146.1390 C   0  0  0  0  0  3  0  0  0  0  0  0
  190.8540  176.4140  144.8470 N   0  0  0  0  0  0  0  0  0  0  0  0
  186.3880  176.0420  143.3230 C   0  0  0  0  0  2  0  0  0  0  0  0
  185.9120  177.1760  142.4300 C   0  0  0  0  0  2  0  0  0  0  0  0
  185.6290  178.7750  145.4180 C   0  0  0  0  0  2  0  0  0  0  0  0
  185.6330  179.3950  143.1310 C   0  0  0  0  0  2  0  0  0  0  0  0
  185.0420  178.0630  143.1810 N   0  0  0  0  0  0  0  0  0  0  0  0
  185.5650  179.9770  144.5210 C   0  0  0  0  0  2  0  0  0  0  0  0
  185.0970  177.6330  144.5750 C   0  0  0  0  0  2  0  0  0  0  0  0
  1 26  1  0  0  0  0
  3 16  1  1  0  0  0
  4 23  2  0  0  0  0
  5 15  1  0  0  0  0
  6  7  1  0  0  0  0
  7  3  1  0  0  0  0
  8 12  1  1  0  0  0
  8  3  1  0  0  0  0
  8 16  1  0  0  0  0
  9 27  1  0  0  0  0
 10 17  2  0  0  0  0
 11  5  2  0  0  0  0
 11 20  1  0  0  0  0
 13 20  1  0  0  0  0
 13  9  2  0  0  0  0
 14  2  2  0  0  0  0
 15 12  1  0  0  0  0
 15  4  1  0  0  0  0
 17 28  1  0  0  0  0
 18  4  1  0  0  0  0
 18  1  2  0  0  0  0
 19  5  1  0  0  0  0
 19  6  1  0  0  0  0
 20 18  1  0  0  0  0
 22 10  1  0  0  0  0
 22 24  2  0  0  0  0
 23 21  1  0  0  0  0
 24 13  1  0  0  0  0
 25 17  1  1  0  0  0
 25  9  1  0  0  0  0
 25 14  1  0  0  0  0
 26 21  2  0  0  0  0
 27  1  1  0  0  0  0
 27  2  1  0  0  0  0
 29 32  1  0  0  0  0
 29 28  1  0  0  0  0
 31 32  1  0  0  0  0
 31 33  1  0  0  0  0
 32 34  1  0  0  0  0
 33 30  1  0  0  0  0
 34 30  1  0  0  0  0
M  END
>  <MODEL>
7

>  <REMARK>
 VINA RESULT:      -8.4      3.459      5.829
  Name = 
  3 active torsions:
  status: ('A' for Active; 'I' for Inactive)
    1  A    between atoms: C_17  and  C_28
    2  A    between atoms: C_28  and  C_29
    3  A    between atoms: C_29  and  N_32
                            x       y       z     vdW  Elec       q    Type
                         _______ _______ _______ _____ _____    ______ ____

>  <TORSDO>
F 3

$$$$
=
 OpenBabel11112417593D

 34 41  0  0  1  0  0  0  0  0999 V2000
  186.2860  177.8940  145.2430 C   0  0  0  0  0  0  0  0  0  0  0  0
  183.8920  178.9020  145.1320 C   0  0  0  0  0  3  0  0  0  0  0  0
  190.5840  173.5500  144.6060 C   0  0  2  0  0  3  0  0  0  0  0  0
  188.4640  176.8210  145.1190 C   0  0  0  0  0  0  0  0  0  0  0  0
  189.1520  175.7590  142.9690 C   0  0  0  0  0  0  0  0  0  0  0  0
  189.7720  173.3880  142.4060 C   0  0  0  0  0  2  0  0  0  0  0  0
  190.7350  172.8220  143.3590 N   0  0  0  0  0  2  0  0  0  0  0  0
  191.5450  174.7180  144.4880 C   0  0  1  0  0  3  0  0  0  0  0  0
  184.8610  178.0150  143.2190 C   0  0  0  0  0  0  0  0  0  0  0  0
  183.7350  178.2540  140.3930 C   0  0  0  0  0  3  0  0  0  0  0  0
  188.0250  176.1250  142.4330 N   0  0  0  0  0  0  0  0  0  0  0  0
  190.7900  175.9350  144.9890 C   0  0  0  0  0  2  0  0  0  0  0  0
  185.8160  177.2210  142.3840 C   0  0  0  0  0  0  0  0  0  0  0  0
  182.9690  178.9620  143.9980 N   0  0  0  0  0  0  0  0  0  0  0  0
  189.4650  176.1210  144.3510 N   0  0  0  0  0  0  0  0  0  0  0  0
  191.8220  173.6030  145.4750 C   0  0  0  0  0  2  0  0  0  0  0  0
  183.0360  178.2470  141.5390 C   0  0  0  0  0  0  0  0  0  0  0  0
  187.2670  177.2120  144.5030 C   0  0  0  0  0  0  0  0  0  0  0  0
  190.0390  174.8790  142.1240 C   0  0  0  0  0  2  0  0  0  0  0  0
  187.0600  176.8950  143.1090 N   0  0  0  0  0  0  0  0  0  0  0  0
  187.6820  177.7910  147.2130 C   0  0  0  0  0  3  0  0  0  0  0  0
  185.2030  178.3420  140.2310 C   0  0  0  0  0  3  0  0  0  0  0  0
  188.6620  177.1160  146.4800 C   0  0  0  0  0  3  0  0  0  0  0  0
  186.1260  177.9350  141.1050 C   0  0  0  0  0  3  0  0  0  0  0  0
  183.6510  178.4040  142.8740 C   0  0  2  0  0  3  0  0  0  0  0  0
  186.4940  178.1820  146.5950 C   0  0  0  0  0  3  0  0  0  0  0  0
  185.0880  178.2850  144.5810 N   0  0  0  0  0  0  0  0  0  0  0  0
  181.5480  178.2160  141.4390 C   0  0  0  0  0  2  0  0  0  0  0  0
  181.0010  179.6270  141.2880 C   0  0  0  0  0  2  0  0  0  0  0  0
  177.6940  180.2910  140.8570 C   0  0  0  0  0  2  0  0  0  0  0  0
  179.7340  181.0350  139.9100 C   0  0  0  0  0  2  0  0  0  0  0  0
  179.9530  179.6430  140.2830 N   0  0  0  0  0  0  0  0  0  0  0  0
  178.2440  181.2640  139.8550 C   0  0  0  0  0  2  0  0  0  0  0  0
  178.7290  179.1870  140.9350 C   0  0  0  0  0  2  0  0  0  0  0  0
  1 26  1  0  0  0  0
  3 16  1  1  0  0  0
  4 23  2  0  0  0  0
  5 15  1  0  0  0  0
  6  7  1  0  0  0  0
  7  3  1  0  0  0  0
  8  3  1  0  0  0  0
  8 12  1  1  0  0  0
  8 16  1  0  0  0  0
  9 27  1  0  0  0  0
 10 17  2  0  0  0  0
 11  5  2  0  0  0  0
 11 20  1  0  0  0  0
 13 20  1  0  0  0  0
 13  9  2  0  0  0  0
 14  2  2  0  0  0  0
 15 12  1  0  0  0  0
 15  4  1  0  0  0  0
 18  4  1  0  0  0  0
 18  1  2  0  0  0  0
 19  6  1  0  0  0  0
 19  5  1  0  0  0  0
 20 18  1  0  0  0  0
 22 10  1  0  0  0  0
 22 24  2  0  0  0  0
 23 21  1  0  0  0  0
 24 13  1  0  0  0  0
 25 17  1  1  0  0  0
 25  9  1  0  0  0  0
 25 14  1  0  0  0  0
 26 21  2  0  0  0  0
 27  2  1  0  0  0  0
 27  1  1  0  0  0  0
 28 17  1  0  0  0  0
 29 28  1  0  0  0  0
 30 34  1  0  0  0  0
 31 32  1  0  0  0  0
 32 34  1  0  0  0  0
 32 29  1  0  0  0  0
 33 31  1  0  0  0  0
 33 30  1  0  0  0  0
M  END
>  <MODEL>
8

>  <REMARK>
 VINA RESULT:      -8.3      1.390      1.624
  Name = 
  3 active torsions:
  status: ('A' for Active; 'I' for Inactive)
    1  A    between atoms: C_17  and  C_28
    2  A    between atoms: C_28  and  C_29
    3  A    between atoms: C_29  and  N_32
                            x       y       z     vdW  Elec       q    Type
                         _______ _______ _______ _____ _____    ______ ____

>  <TORSDO>
F 3

$$$$
=
 OpenBabel11112417593D

 34 41  0  0  1  0  0  0  0  0999 V2000
  190.8020  172.5020  143.2280 C   0  0  0  0  0  0  0  0  0  0  0  0
  188.4900  173.1570  142.2340 C   0  0  0  0  0  3  0  0  0  0  0  0
  196.8310  173.0660  144.2650 C   0  0  2  0  0  3  0  0  0  0  0  0
  193.0080  172.1520  144.1870 C   0  0  0  0  0  0  0  0  0  0  0  0
  194.1090  174.0510  145.3730 C   0  0  0  0  0  0  0  0  0  0  0  0
  196.2810  175.2460  144.9470 C   0  0  0  0  0  2  0  0  0  0  0  0
  197.3970  174.3170  144.7370 N   0  0  0  0  0  2  0  0  0  0  0  0
  196.5440  172.2730  145.5260 C   0  0  1  0  0  3  0  0  0  0  0  0
  189.6540  174.6750  143.5480 C   0  0  0  0  0  0  0  0  0  0  0  0
  188.5510  177.3230  144.5890 C   0  0  0  0  0  3  0  0  0  0  0  0
  193.0700  174.7960  145.1360 N   0  0  0  0  0  0  0  0  0  0  0  0
  195.1660  171.6690  145.3380 C   0  0  0  0  0  2  0  0  0  0  0  0
  190.8140  175.2880  144.2680 C   0  0  2  0  0  3  0  0  0  0  0  0
  187.7740  174.4290  142.3290 N   0  0  0  0  0  0  0  0  0  0  0  0
  194.1300  172.6530  144.9440 N   0  0  0  0  0  0  0  0  0  0  0  0
  197.6440  171.8300  144.5840 C   0  0  0  0  0  2  0  0  0  0  0  0
  188.1900  176.6890  143.4620 C   0  0  0  0  0  0  0  0  0  0  0  0
  191.9000  172.9800  143.9640 C   0  0  0  0  0  0  0  0  0  0  0  0
  195.2900  174.7370  146.0120 C   0  0  0  0  0  2  0  0  0  0  0  0
  191.9110  174.3250  144.4900 N   0  0  0  0  0  0  0  0  0  0  0  0
  191.9130  170.3760  142.9300 C   0  0  0  0  0  3  0  0  0  0  0  0
  189.4110  176.8100  145.6780 C   0  0  0  0  0  3  0  0  0  0  0  0
  193.0050  170.8470  143.6630 C   0  0  0  0  0  3  0  0  0  0  0  0
  190.3760  175.8930  145.5650 C   0  0  0  0  0  3  0  0  0  0  0  0
  188.5580  175.2890  143.1560 C   0  0  0  0  0  0  0  0  0  0  0  0
  190.8100  171.2020  142.7120 C   0  0  0  0  0  3  0  0  0  0  0  0
  189.6900  173.3670  143.0300 N   0  0  0  0  0  0  0  0  0  0  0  0
  187.2540  177.3970  142.5420 C   0  0  0  0  0  2  0  0  0  0  0  0
  185.8340  176.8940  142.7460 C   0  0  0  0  0  2  0  0  0  0  0  0
  185.3420  179.0880  145.2970 C   0  0  0  0  0  2  0  0  0  0  0  0
  185.7250  179.2250  142.9630 C   0  0  0  0  0  2  0  0  0  0  0  0
  184.9800  177.9890  143.1720 N   0  0  0  0  0  0  0  0  0  0  0  0
  185.5400  180.0820  144.1900 C   0  0  0  0  0  2  0  0  0  0  0  0
  184.7970  177.8490  144.6140 C   0  0  0  0  0  2  0  0  0  0  0  0
  1 18  1  0  0  0  0
  2 14  2  0  0  0  0
  2 27  1  0  0  0  0
  3 16  1  6  0  0  0
  3  7  1  0  0  0  0
  3  8  1  0  0  0  0
  4 15  1  0  0  0  0
  5 19  1  0  0  0  0
  6 19  1  0  0  0  0
  7  6  1  0  0  0  0
  8 16  1  6  0  0  0
  9 13  1  0  0  0  0
 10 22  1  0  0  0  0
 11  5  2  0  0  0  0
 12  8  1  0  0  0  0
 13 20  1  0  0  0  0
 13 24  1  1  0  0  0
 14 25  1  0  0  0  0
 15 12  1  0  0  0  0
 15  5  1  0  0  0  0
 17 10  2  0  0  0  0
 18  4  2  0  0  0  0
 18 20  1  0  0  0  0
 20 11  1  0  0  0  0
 21 23  2  0  0  0  0
 23  4  1  0  0  0  0
 24 22  2  0  0  0  0
 25 17  1  0  0  0  0
 25  9  2  0  0  0  0
 26 21  1  0  0  0  0
 26  1  2  0  0  0  0
 27  1  1  0  0  0  0
 27  9  1  0  0  0  0
 28 29  1  0  0  0  0
 28 17  1  0  0  0  0
 29 32  1  0  0  0  0
 31 32  1  0  0  0  0
 31 33  1  0  0  0  0
 32 34  1  0  0  0  0
 33 30  1  0  0  0  0
 34 30  1  0  0  0  0
M  END
>  <MODEL>
9

>  <REMARK>
 VINA RESULT:      -8.3      3.284      6.552
  Name = 
  3 active torsions:
  status: ('A' for Active; 'I' for Inactive)
    1  A    between atoms: C_17  and  C_28
    2  A    between atoms: C_28  and  C_29
    3  A    between atoms: C_29  and  N_32
                            x       y       z     vdW  Elec       q    Type
                         _______ _______ _______ _____ _____    ______ ____

>  <TORSDO>
F 3

$$$$
