=
 OpenBabel11112417463D

 34 40  0  0  1  0  0  0  0  0999 V2000
  189.6380  174.2500  142.5420 C   0  0  0  0  0  0  0  0  0  0  0  0
  187.3260  175.2870  142.7390 C   0  0  0  0  0  2  0  0  0  0  0  0
  195.3910  172.2590  144.9190 C   0  0  0  0  0  0  0  0  0  0  0  0
  191.7690  173.1280  142.6870 C   0  0  0  0  0  0  0  0  0  0  0  0
  193.5610  173.9990  144.3290 C   0  0  2  0  0  3  0  0  0  0  0  0
  195.4760  174.5560  145.8450 C   0  0  0  0  0  1  0  0  0  0  0  0
  195.6490  171.3630  145.7630 O   0  0  0  0  0  0  0  0  0  0  0  0
  195.6320  173.0920  142.5340 C   0  0  0  0  0  2  0  0  0  0  0  0
  189.1950  176.3870  143.8070 C   0  0  2  0  0  3  0  0  0  0  0  0
  188.4940  177.2080  146.8610 C   0  0  0  0  0  3  0  0  0  0  0  0
  192.3580  174.5680  145.0740 C   0  0  0  0  0  2  0  0  0  0  0  0
  194.1750  172.9840  142.0830 C   0  0  0  0  0  2  0  0  0  0  0  0
  190.2340  175.8870  144.8220 C   0  0  1  0  0  3  0  0  0  0  0  0
  186.8020  176.5190  143.4590 C   0  0  0  0  0  2  0  0  0  0  0  0
  193.1670  172.9720  143.2380 C   0  0  2  0  0  3  0  0  0  0  0  0
  195.9200  172.1360  143.5930 N   0  0  0  0  0  2  0  0  0  0  0  0
  187.6540  176.4810  145.8420 C   0  0  2  0  0  3  0  0  0  0  0  0
  190.9260  174.1760  143.0960 C   0  0  0  0  0  0  0  0  0  0  0  0
  194.5660  173.4450  145.3540 C   0  0  2  0  0  3  0  0  0  0  0  0
  191.4030  175.2190  144.0810 C   0  0  2  0  0  3  0  0  0  0  0  0
  190.0450  172.2870  141.2920 C   0  0  0  0  0  3  0  0  0  0  0  0
  189.8190  177.4250  146.7890 C   0  0  0  0  0  3  0  0  0  0  0  0
  191.3010  172.2050  141.8030 N   0  0  0  0  0  0  0  0  0  0  0  0
  190.7260  177.0750  145.6380 C   0  0  0  0  0  2  0  0  0  0  0  0
  187.9130  176.9810  144.4080 C   0  0  1  0  0  3  0  0  0  0  0  0
  189.2230  173.3030  141.6620 N   0  0  0  0  0  0  0  0  0  0  0  0
  188.7570  175.3030  142.9490 N   0  0  0  0  0  0  0  0  0  0  0  0
  186.3060  176.6250  146.1890 O   0  0  0  0  0  0  0  0  0  0  0  0
  186.2650  177.7610  147.0010 C   0  0  0  0  0  2  0  0  0  0  0  0
  185.0910  179.7680  144.2020 C   0  0  0  0  0  2  0  0  0  0  0  0
  184.1800  178.0930  145.6740 C   0  0  0  0  0  2  0  0  0  0  0  0
  185.3020  178.7800  146.4200 C   0  0  0  0  0  3  0  0  0  0  0  0
  183.8090  179.0470  144.5630 C   0  0  0  0  0  2  0  0  0  0  0  0
  186.0150  179.6480  145.4020 C   0  0  0  0  0  2  0  0  0  0  0  0
  1 27  1  0  0  0  0
  1 18  1  0  0  0  0
  2 27  1  0  0  0  0
  2 14  1  0  0  0  0
  3 19  1  0  0  0  0
  3  7  2  0  0  0  0
  4 18  2  0  0  0  0
  4 15  1  0  0  0  0
  5 11  1  1  0  0  0
  5 19  1  0  0  0  0
  8 16  1  0  0  0  0
  9 27  1  6  0  0  0
  9 25  1  0  0  0  0
  9 13  1  0  0  0  0
 12  8  1  0  0  0  0
 13 24  1  6  0  0  0
 15 12  1  6  0  0  0
 15  5  1  0  0  0  0
 16  3  1  0  0  0  0
 17 28  1  1  0  0  0
 17 10  1  0  0  0  0
 18 20  1  0  0  0  0
 19  6  1  6  0  0  0
 20 13  1  0  0  0  0
 20 11  1  1  0  0  0
 21 26  1  0  0  0  0
 21 23  2  0  0  0  0
 22 10  2  0  0  0  0
 23  4  1  0  0  0  0
 24 22  1  0  0  0  0
 25 14  1  6  0  0  0
 25 17  1  0  0  0  0
 26  1  2  0  0  0  0
 28 29  1  0  0  0  0
 30 33  1  0  0  0  0
 30 34  1  0  0  0  0
 31 32  1  0  0  0  0
 32 29  1  0  0  0  0
 33 31  1  0  0  0  0
 34 32  1  0  0  0  0
M  END
>  <MODEL>
1

>  <REMARK>
 VINA RESULT:      -8.3      0.000      0.000
  Name = 
  3 active torsions:
  status: ('A' for Active; 'I' for Inactive)
    1  A    between atoms: C_17  and  O_28
    2  A    between atoms: O_28  and  C_29
    3  A    between atoms: C_29  and  C_32
                            x       y       z     vdW  Elec       q    Type
                         _______ _______ _______ _____ _____    ______ ____

>  <TORSDO>
F 3

$$$$
=
 OpenBabel11112417463D

 34 40  0  0  1  0  0  0  0  0999 V2000
  192.3080  176.2610  145.6350 C   0  0  0  0  0  0  0  0  0  0  0  0
  190.1550  177.1240  146.6750 C   0  0  0  0  0  2  0  0  0  0  0  0
  196.2530  174.8960  140.6080 C   0  0  0  0  0  0  0  0  0  0  0  0
  194.3070  175.7100  144.4040 C   0  0  0  0  0  0  0  0  0  0  0  0
  194.1090  174.6690  142.0490 C   0  0  2  0  0  3  0  0  0  0  0  0
  194.2590  173.7060  139.7410 C   0  0  0  0  0  1  0  0  0  0  0  0
  196.7880  175.6660  139.7690 O   0  0  0  0  0  0  0  0  0  0  0  0
  196.5690  173.2250  142.4910 C   0  0  0  0  0  2  0  0  0  0  0  0
  190.0210  175.6490  144.7630 C   0  0  2  0  0  3  0  0  0  0  0  0
  187.9750  176.7940  142.5300 C   0  0  0  0  0  3  0  0  0  0  0  0
  192.7490  175.3590  142.0440 C   0  0  0  0  0  2  0  0  0  0  0  0
  195.9800  174.0350  143.6470 C   0  0  0  0  0  2  0  0  0  0  0  0
  190.6410  175.7330  143.3600 C   0  0  1  0  0  3  0  0  0  0  0  0
  188.6870  176.9360  146.3220 C   0  0  0  0  0  2  0  0  0  0  0  0
  195.0280  175.1520  143.1990 C   0  0  2  0  0  3  0  0  0  0  0  0
  197.0930  174.1030  141.4550 N   0  0  0  0  0  2  0  0  0  0  0  0
  188.3910  177.3910  143.8500 C   0  0  2  0  0  3  0  0  0  0  0  0
  192.9040  175.7200  144.4860 C   0  0  0  0  0  0  0  0  0  0  0  0
  194.7470  174.8140  140.6560 C   0  0  2  0  0  3  0  0  0  0  0  0
  192.0560  175.1320  143.3810 C   0  0  2  0  0  3  0  0  0  0  0  0
  194.4380  176.7890  146.5120 C   0  0  0  0  0  3  0  0  0  0  0  0
  188.5840  175.7830  141.8870 C   0  0  0  0  0  3  0  0  0  0  0  0
  195.0370  176.2550  145.4150 N   0  0  0  0  0  0  0  0  0  0  0  0
  189.7500  174.9710  142.3890 C   0  0  0  0  0  2  0  0  0  0  0  0
  188.6460  176.3140  144.9220 C   0  0  1  0  0  3  0  0  0  0  0  0
  193.0840  176.7910  146.6160 N   0  0  0  0  0  0  0  0  0  0  0  0
  190.8800  176.2920  145.7400 N   0  0  0  0  0  0  0  0  0  0  0  0
  187.4040  178.2910  144.2650 O   0  0  0  0  0  0  0  0  0  0  0  0
  186.1940  177.6520  143.9790 C   0  0  0  0  0  2  0  0  0  0  0  0
  185.1800  177.4220  147.4660 C   0  0  0  0  0  2  0  0  0  0  0  0
  185.5670  179.1710  145.8550 C   0  0  0  0  0  2  0  0  0  0  0  0
  185.1880  177.9280  145.0820 C   0  0  0  0  0  3  0  0  0  0  0  0
  185.0770  178.9200  147.2620 C   0  0  0  0  0  2  0  0  0  0  0  0
  185.1910  176.7910  146.0850 C   0  0  0  0  0  2  0  0  0  0  0  0
  1 27  1  0  0  0  0
  1 26  1  0  0  0  0
  3 19  1  0  0  0  0
  3 16  1  0  0  0  0
  4 18  1  0  0  0  0
  4 23  2  0  0  0  0
  5 11  1  6  0  0  0
  5 15  1  0  0  0  0
  7  3  2  0  0  0  0
  8 12  1  0  0  0  0
  9 25  1  0  0  0  0
  9 27  1  1  0  0  0
 10 17  1  0  0  0  0
 13 24  1  6  0  0  0
 13 20  1  0  0  0  0
 13  9  1  0  0  0  0
 14  2  1  0  0  0  0
 15 12  1  1  0  0  0
 15  4  1  0  0  0  0
 16  8  1  0  0  0  0
 17 28  1  1  0  0  0
 17 25  1  0  0  0  0
 18  1  2  0  0  0  0
 19  6  1  6  0  0  0
 19  5  1  0  0  0  0
 20 11  1  6  0  0  0
 20 18  1  0  0  0  0
 21 26  2  0  0  0  0
 22 24  1  0  0  0  0
 22 10  2  0  0  0  0
 23 21  1  0  0  0  0
 25 14  1  1  0  0  0
 27  2  1  0  0  0  0
 29 28  1  0  0  0  0
 29 32  1  0  0  0  0
 31 33  1  0  0  0  0
 32 31  1  0  0  0  0
 32 34  1  0  0  0  0
 33 30  1  0  0  0  0
 34 30  1  0  0  0  0
M  END
>  <MODEL>
2

>  <REMARK>
 VINA RESULT:      -8.1      2.513      4.124
  Name = 
  3 active torsions:
  status: ('A' for Active; 'I' for Inactive)
    1  A    between atoms: C_17  and  O_28
    2  A    between atoms: O_28  and  C_29
    3  A    between atoms: C_29  and  C_32
                            x       y       z     vdW  Elec       q    Type
                         _______ _______ _______ _____ _____    ______ ____

>  <TORSDO>
F 3

$$$$
=
 OpenBabel11112417463D

 34 40  0  0  1  0  0  0  0  0999 V2000
  190.8460  173.6530  141.7980 C   0  0  0  0  0  0  0  0  0  0  0  0
  188.3570  174.0590  142.1140 C   0  0  0  0  0  2  0  0  0  0  0  0
  197.1470  174.3580  143.3790 C   0  0  0  0  0  0  0  0  0  0  0  0
  193.2260  173.2700  141.8620 C   0  0  0  0  0  0  0  0  0  0  0  0
  194.8050  175.1690  142.6170 C   0  0  2  0  0  3  0  0  0  0  0  0
  196.5870  176.7720  143.3470 C   0  0  0  0  0  1  0  0  0  0  0  0
  197.7660  173.9950  144.4120 O   0  0  0  0  0  0  0  0  0  0  0  0
  196.8590  174.1440  140.8670 C   0  0  0  0  0  2  0  0  0  0  0  0
  189.8740  175.9360  142.2490 C   0  0  2  0  0  3  0  0  0  0  0  0
  189.2680  177.7580  144.8580 C   0  0  0  0  0  3  0  0  0  0  0  0
  193.5680  175.6760  143.3500 C   0  0  0  0  0  2  0  0  0  0  0  0
  195.4750  173.4940  140.8280 C   0  0  0  0  0  2  0  0  0  0  0  0
  191.1190  176.1880  143.1150 C   0  0  1  0  0  3  0  0  0  0  0  0
  187.5430  175.3050  142.4260 C   0  0  0  0  0  2  0  0  0  0  0  0
  194.6500  173.7160  142.1020 C   0  0  2  0  0  3  0  0  0  0  0  0
  197.5460  173.8270  142.1100 N   0  0  0  0  0  2  0  0  0  0  0  0
  188.6050  176.4860  144.3970 C   0  0  2  0  0  3  0  0  0  0  0  0
  192.1390  174.1440  142.0340 C   0  0  0  0  0  0  0  0  0  0  0  0
  196.0350  175.3680  143.5200 C   0  0  2  0  0  3  0  0  0  0  0  0
  192.3560  175.5870  142.4300 C   0  0  2  0  0  3  0  0  0  0  0  0
  191.7280  171.5180  141.3040 C   0  0  0  0  0  3  0  0  0  0  0  0
  190.4390  178.2510  144.4140 C   0  0  0  0  0  3  0  0  0  0  0  0
  192.9910  171.9760  141.5120 N   0  0  0  0  0  0  0  0  0  0  0  0
  191.2850  177.6890  143.3010 C   0  0  0  0  0  2  0  0  0  0  0  0
  188.5390  176.3850  142.8610 C   0  0  1  0  0  3  0  0  0  0  0  0
  190.6670  172.3530  141.4480 N   0  0  0  0  0  0  0  0  0  0  0  0
  189.7200  174.5210  141.9750 N   0  0  0  0  0  0  0  0  0  0  0  0
  187.3260  176.4190  144.9610 O   0  0  0  0  0  0  0  0  0  0  0  0
  187.5470  176.2890  146.3350 C   0  0  0  0  0  2  0  0  0  0  0  0
  185.5580  179.1760  147.3110 C   0  0  0  0  0  2  0  0  0  0  0  0
  185.1800  177.0660  146.2120 C   0  0  0  0  0  2  0  0  0  0  0  0
  186.3880  176.8930  147.1060 C   0  0  0  0  0  3  0  0  0  0  0  0
  184.4690  178.2850  146.7480 C   0  0  0  0  0  2  0  0  0  0  0  0
  186.7530  178.2820  147.5920 C   0  0  0  0  0  2  0  0  0  0  0  0
  1 27  1  0  0  0  0
  1 18  1  0  0  0  0
  2 14  1  0  0  0  0
  3 19  1  0  0  0  0
  3  7  2  0  0  0  0
  4 18  2  0  0  0  0
  4 15  1  0  0  0  0
  5 11  1  1  0  0  0
  5 19  1  0  0  0  0
  8 16  1  0  0  0  0
  9 27  1  1  0  0  0
  9 25  1  0  0  0  0
  9 13  1  0  0  0  0
 12  8  1  0  0  0  0
 13 24  1  6  0  0  0
 15 12  1  6  0  0  0
 15  5  1  0  0  0  0
 16  3  1  0  0  0  0
 17 10  1  0  0  0  0
 17 28  1  1  0  0  0
 18 20  1  0  0  0  0
 19  6  1  6  0  0  0
 20 13  1  0  0  0  0
 20 11  1  1  0  0  0
 21 26  1  0  0  0  0
 21 23  2  0  0  0  0
 22 10  2  0  0  0  0
 23  4  1  0  0  0  0
 24 22  1  0  0  0  0
 25 14  1  1  0  0  0
 25 17  1  0  0  0  0
 26  1  2  0  0  0  0
 27  2  1  0  0  0  0
 28 29  1  0  0  0  0
 29 32  1  0  0  0  0
 30 34  1  0  0  0  0
 31 33  1  0  0  0  0
 31 32  1  0  0  0  0
 32 34  1  0  0  0  0
 33 30  1  0  0  0  0
M  END
>  <MODEL>
3

>  <REMARK>
 VINA RESULT:      -8.1      1.855      2.268
  Name = 
  3 active torsions:
  status: ('A' for Active; 'I' for Inactive)
    1  A    between atoms: C_17  and  O_28
    2  A    between atoms: O_28  and  C_29
    3  A    between atoms: C_29  and  C_32
                            x       y       z     vdW  Elec       q    Type
                         _______ _______ _______ _____ _____    ______ ____

>  <TORSDO>
F 3

$$$$
=
 OpenBabel11112417463D

 34 40  0  0  1  0  0  0  0  0999 V2000
  190.5590  174.8740  142.6000 C   0  0  0  0  0  0  0  0  0  0  0  0
  188.9840  176.7930  143.1430 C   0  0  0  0  0  2  0  0  0  0  0  0
  194.4730  169.8800  144.1660 C   0  0  0  0  0  0  0  0  0  0  0  0
  191.9010  172.8830  142.3690 C   0  0  0  0  0  0  0  0  0  0  0  0
  193.7250  172.3630  144.1220 C   0  0  2  0  0  3  0  0  0  0  0  0
  195.5240  171.5500  145.6660 C   0  0  0  0  0  1  0  0  0  0  0  0
  194.2030  168.7900  144.7330 O   0  0  0  0  0  0  0  0  0  0  0  0
  195.3020  171.0650  142.0810 C   0  0  0  0  0  2  0  0  0  0  0  0
  191.0370  176.5740  144.4010 C   0  0  2  0  0  3  0  0  0  0  0  0
  190.5050  176.8370  147.5850 C   0  0  0  0  0  3  0  0  0  0  0  0
  192.8570  173.2260  145.0310 C   0  0  0  0  0  2  0  0  0  0  0  0
  194.0130  171.7750  141.6670 C   0  0  0  0  0  2  0  0  0  0  0  0
  191.6230  175.4070  145.2110 C   0  0  1  0  0  3  0  0  0  0  0  0
  189.0250  177.9030  144.1820 C   0  0  0  0  0  2  0  0  0  0  0  0
  193.0070  171.9530  142.8120 C   0  0  2  0  0  3  0  0  0  0  0  0
  195.0100  169.8570  142.8380 N   0  0  0  0  0  2  0  0  0  0  0  0
  189.5270  176.8740  146.4390 C   0  0  2  0  0  3  0  0  0  0  0  0
  191.6050  174.0640  143.0700 C   0  0  0  0  0  0  0  0  0  0  0  0
  194.2540  171.1630  144.9280 C   0  0  2  0  0  3  0  0  0  0  0  0
  192.4140  174.4750  144.2800 C   0  0  2  0  0  3  0  0  0  0  0  0
  190.1280  173.3340  140.8610 C   0  0  0  0  0  3  0  0  0  0  0  0
  191.7800  176.4120  147.5290 C   0  0  0  0  0  3  0  0  0  0  0  0
  191.1470  172.5430  141.2890 N   0  0  0  0  0  0  0  0  0  0  0  0
  192.5280  175.9750  146.2960 C   0  0  0  0  0  2  0  0  0  0  0  0
  190.1250  177.5320  145.1810 C   0  0  1  0  0  3  0  0  0  0  0  0
  189.8390  174.4880  141.5150 N   0  0  0  0  0  0  0  0  0  0  0  0
  190.2320  176.0790  143.3010 N   0  0  0  0  0  0  0  0  0  0  0  0
  188.3730  177.5450  146.8580 O   0  0  0  0  0  0  0  0  0  0  0  0
  187.4030  176.5470  146.9820 C   0  0  0  0  0  2  0  0  0  0  0  0
  185.3440  179.1690  145.5220 C   0  0  0  0  0  2  0  0  0  0  0  0
  185.7410  176.8230  145.1430 C   0  0  0  0  0  2  0  0  0  0  0  0
  186.0410  177.0960  146.6000 C   0  0  0  0  0  3  0  0  0  0  0  0
  184.8850  177.9850  144.6960 C   0  0  0  0  0  2  0  0  0  0  0  0
  186.0250  178.6040  146.7580 C   0  0  0  0  0  2  0  0  0  0  0  0
  1 18  1  0  0  0  0
  1 27  1  0  0  0  0
  2 27  1  0  0  0  0
  2 14  1  0  0  0  0
  3  7  2  0  0  0  0
  3 19  1  0  0  0  0
  4 15  1  0  0  0  0
  4 18  2  0  0  0  0
  5 19  1  0  0  0  0
  5 11  1  1  0  0  0
  8 16  1  0  0  0  0
  9 27  1  6  0  0  0
  9 25  1  0  0  0  0
  9 13  1  0  0  0  0
 12  8  1  0  0  0  0
 13 24  1  1  0  0  0
 15 12  1  6  0  0  0
 15  5  1  0  0  0  0
 16  3  1  0  0  0  0
 17 28  1  1  0  0  0
 17 10  1  0  0  0  0
 18 20  1  0  0  0  0
 19  6  1  6  0  0  0
 20 11  1  1  0  0  0
 20 13  1  0  0  0  0
 21 23  2  0  0  0  0
 21 26  1  0  0  0  0
 22 10  2  0  0  0  0
 23  4  1  0  0  0  0
 24 22  1  0  0  0  0
 25 14  1  6  0  0  0
 25 17  1  0  0  0  0
 26  1  2  0  0  0  0
 28 29  1  0  0  0  0
 30 34  1  0  0  0  0
 31 32  1  0  0  0  0
 32 34  1  0  0  0  0
 32 29  1  0  0  0  0
 33 31  1  0  0  0  0
 33 30  1  0  0  0  0
M  END
>  <MODEL>
4

>  <REMARK>
 VINA RESULT:      -8.1      1.530      1.933
  Name = 
  3 active torsions:
  status: ('A' for Active; 'I' for Inactive)
    1  A    between atoms: C_17  and  O_28
    2  A    between atoms: O_28  and  C_29
    3  A    between atoms: C_29  and  C_32
                            x       y       z     vdW  Elec       q    Type
                         _______ _______ _______ _____ _____    ______ ____

>  <TORSDO>
F 3

$$$$
=
 OpenBabel11112417463D

 34 40  0  0  1  0  0  0  0  0999 V2000
  191.7480  174.4360  142.5780 C   0  0  0  0  0  0  0  0  0  0  0  0
  189.4090  175.4040  142.8100 C   0  0  0  0  0  2  0  0  0  0  0  0
  197.2040  171.6730  144.8790 C   0  0  0  0  0  0  0  0  0  0  0  0
  193.8650  173.2820  142.6160 C   0  0  0  0  0  0  0  0  0  0  0  0
  195.4270  173.5490  144.6550 C   0  0  2  0  0  3  0  0  0  0  0  0
  197.1320  173.5550  146.4910 C   0  0  0  0  0  1  0  0  0  0  0  0
  197.3750  170.5500  145.4190 O   0  0  0  0  0  0  0  0  0  0  0  0
  197.7190  173.2160  142.9310 C   0  0  0  0  0  2  0  0  0  0  0  0
  191.1120  176.0690  144.3920 C   0  0  2  0  0  3  0  0  0  0  0  0
  190.0280  175.8900  147.4390 C   0  0  0  0  0  3  0  0  0  0  0  0
  194.1320  173.8760  145.3900 C   0  0  0  0  0  2  0  0  0  0  0  0
  196.3300  173.2880  142.2950 C   0  0  0  0  0  2  0  0  0  0  0  0
  192.0300  175.2500  145.3140 C   0  0  1  0  0  3  0  0  0  0  0  0
  188.7780  176.3540  143.8160 C   0  0  0  0  0  2  0  0  0  0  0  0
  195.1880  172.9300  143.2550 C   0  0  2  0  0  3  0  0  0  0  0  0
  197.8930  171.9670  143.6580 N   0  0  0  0  0  2  0  0  0  0  0  0
  189.3330  175.5430  146.1480 C   0  0  2  0  0  3  0  0  0  0  0  0
  192.9590  174.1630  143.2310 C   0  0  0  0  0  0  0  0  0  0  0  0
  196.3100  172.6760  145.5650 C   0  0  2  0  0  3  0  0  0  0  0  0
  193.2930  174.8280  144.5470 C   0  0  2  0  0  3  0  0  0  0  0  0
  192.3410  172.9640  140.8270 C   0  0  0  0  0  3  0  0  0  0  0  0
  191.3480  176.0920  147.6020 C   0  0  0  0  0  3  0  0  0  0  0  0
  193.5270  172.6980  141.4340 N   0  0  0  0  0  0  0  0  0  0  0  0
  192.3950  176.1070  146.5190 C   0  0  0  0  0  2  0  0  0  0  0  0
  189.7550  176.4680  144.9900 C   0  0  1  0  0  3  0  0  0  0  0  0
  191.4610  173.8260  141.3980 N   0  0  0  0  0  0  0  0  0  0  0  0
  190.8030  175.3230  143.1870 N   0  0  0  0  0  0  0  0  0  0  0  0
  187.9500  175.5970  146.3560 O   0  0  0  0  0  0  0  0  0  0  0  0
  187.7640  176.6510  147.2540 C   0  0  0  0  0  2  0  0  0  0  0  0
  185.1960  179.0840  146.3990 C   0  0  0  0  0  2  0  0  0  0  0  0
  185.6610  176.7700  145.9180 C   0  0  0  0  0  2  0  0  0  0  0  0
  186.3110  177.0890  147.2460 C   0  0  0  0  0  3  0  0  0  0  0  0
  184.6300  177.8550  145.7180 C   0  0  0  0  0  2  0  0  0  0  0  0
  186.2190  178.5930  147.4090 C   0  0  0  0  0  2  0  0  0  0  0  0
  1 27  1  0  0  0  0
  1 18  1  0  0  0  0
  2 27  1  0  0  0  0
  2 14  1  0  0  0  0
  3  7  2  0  0  0  0
  3 19  1  0  0  0  0
  4 18  2  0  0  0  0
  4 15  1  0  0  0  0
  5 11  1  1  0  0  0
  5 19  1  0  0  0  0
  8 16  1  0  0  0  0
  9 27  1  6  0  0  0
  9 25  1  0  0  0  0
  9 13  1  0  0  0  0
 10 22  2  0  0  0  0
 12  8  1  0  0  0  0
 13 24  1  1  0  0  0
 15 12  1  6  0  0  0
 15  5  1  0  0  0  0
 16  3  1  0  0  0  0
 17 28  1  1  0  0  0
 17 10  1  0  0  0  0
 18 20  1  0  0  0  0
 19  6  1  6  0  0  0
 20 13  1  0  0  0  0
 20 11  1  1  0  0  0
 21 26  1  0  0  0  0
 21 23  2  0  0  0  0
 23  4  1  0  0  0  0
 24 22  1  0  0  0  0
 25 14  1  6  0  0  0
 25 17  1  0  0  0  0
 26  1  2  0  0  0  0
 28 29  1  0  0  0  0
 30 34  1  0  0  0  0
 31 32  1  0  0  0  0
 32 29  1  0  0  0  0
 32 34  1  0  0  0  0
 33 31  1  0  0  0  0
 33 30  1  0  0  0  0
M  END
>  <MODEL>
5

>  <REMARK>
 VINA RESULT:      -8.0      1.460      2.070
  Name = 
  3 active torsions:
  status: ('A' for Active; 'I' for Inactive)
    1  A    between atoms: C_17  and  O_28
    2  A    between atoms: O_28  and  C_29
    3  A    between atoms: C_29  and  C_32
                            x       y       z     vdW  Elec       q    Type
                         _______ _______ _______ _____ _____    ______ ____

>  <TORSDO>
F 3

$$$$
=
 OpenBabel11112417463D

 34 40  0  0  1  0  0  0  0  0999 V2000
  192.2190  175.8590  145.8000 C   0  0  0  0  0  0  0  0  0  0  0  0
  190.1510  177.3290  145.9520 C   0  0  0  0  0  2  0  0  0  0  0  0
  196.2100  171.6490  142.7910 C   0  0  0  0  0  0  0  0  0  0  0  0
  194.1880  174.5570  145.3040 C   0  0  0  0  0  0  0  0  0  0  0  0
  193.9790  172.4260  143.8600 C   0  0  2  0  0  3  0  0  0  0  0  0
  194.1220  170.3560  142.4560 C   0  0  0  0  0  1  0  0  0  0  0  0
  196.8920  171.7910  141.7430 O   0  0  0  0  0  0  0  0  0  0  0  0
  196.1880  171.2480  145.2970 C   0  0  0  0  0  2  0  0  0  0  0  0
  189.9220  175.0710  145.1180 C   0  0  2  0  0  3  0  0  0  0  0  0
  188.1790  174.9920  142.3890 C   0  0  0  0  0  3  0  0  0  0  0  0
  192.7300  173.1170  143.3240 C   0  0  0  0  0  2  0  0  0  0  0  0
  195.6530  172.6020  145.7630 C   0  0  0  0  0  2  0  0  0  0  0  0
  190.6240  174.3260  143.9730 C   0  0  1  0  0  3  0  0  0  0  0  0
  188.6940  177.1070  145.5780 C   0  0  0  0  0  2  0  0  0  0  0  0
  194.8900  173.3750  144.6780 C   0  0  2  0  0  3  0  0  0  0  0  0
  196.8840  171.3740  144.0250 N   0  0  0  0  0  2  0  0  0  0  0  0
  188.6010  176.1710  143.2290 C   0  0  2  0  0  3  0  0  0  0  0  0
  192.7970  174.7310  145.1970 C   0  0  0  0  0  0  0  0  0  0  0  0
  194.7070  171.7370  142.6930 C   0  0  2  0  0  3  0  0  0  0  0  0
  191.9380  173.7130  144.4810 C   0  0  2  0  0  3  0  0  0  0  0  0
  194.3490  176.5910  146.5130 C   0  0  0  0  0  3  0  0  0  0  0  0
  188.6780  173.7460  142.4620 C   0  0  0  0  0  3  0  0  0  0  0  0
  194.9290  175.4980  145.9500 N   0  0  0  0  0  0  0  0  0  0  0  0
  189.6910  173.2400  143.4560 C   0  0  0  0  0  2  0  0  0  0  0  0
  188.6450  175.8320  144.7310 C   0  0  1  0  0  3  0  0  0  0  0  0
  193.0050  176.7660  146.4350 N   0  0  0  0  0  0  0  0  0  0  0  0
  190.8050  176.0640  145.6990 N   0  0  0  0  0  0  0  0  0  0  0  0
  187.7260  177.2340  142.9790 O   0  0  0  0  0  0  0  0  0  0  0  0
  186.4640  176.6420  142.8750 C   0  0  0  0  0  2  0  0  0  0  0  0
  185.1210  178.8560  145.4320 C   0  0  0  0  0  2  0  0  0  0  0  0
  185.8290  179.0390  143.1360 C   0  0  0  0  0  2  0  0  0  0  0  0
  185.3960  177.6070  143.3570 C   0  0  0  0  0  3  0  0  0  0  0  0
  185.1910  179.8170  144.2630 C   0  0  0  0  0  2  0  0  0  0  0  0
  185.1930  177.4540  144.8510 C   0  0  0  0  0  2  0  0  0  0  0  0
  1 26  1  0  0  0  0
  3 16  1  0  0  0  0
  4 23  2  0  0  0  0
  5 11  1  6  0  0  0
  5 15  1  0  0  0  0
  7  3  2  0  0  0  0
  8 12  1  0  0  0  0
  9 27  1  6  0  0  0
 10 22  2  0  0  0  0
 10 17  1  0  0  0  0
 13 24  1  1  0  0  0
 13 20  1  0  0  0  0
 13  9  1  0  0  0  0
 14  2  1  0  0  0  0
 15  4  1  0  0  0  0
 15 12  1  1  0  0  0
 16  8  1  0  0  0  0
 17 28  1  1  0  0  0
 17 25  1  0  0  0  0
 18  4  1  0  0  0  0
 18  1  2  0  0  0  0
 19  6  1  1  0  0  0
 19  3  1  0  0  0  0
 19  5  1  0  0  0  0
 20 11  1  6  0  0  0
 20 18  1  0  0  0  0
 22 24  1  0  0  0  0
 23 21  1  0  0  0  0
 25  9  1  0  0  0  0
 25 14  1  1  0  0  0
 26 21  2  0  0  0  0
 27  1  1  0  0  0  0
 27  2  1  0  0  0  0
 29 28  1  0  0  0  0
 29 32  1  0  0  0  0
 31 32  1  0  0  0  0
 31 33  1  0  0  0  0
 32 34  1  0  0  0  0
 33 30  1  0  0  0  0
 34 30  1  0  0  0  0
M  END
>  <MODEL>
6

>  <REMARK>
 VINA RESULT:      -8.0      2.049      3.869
  Name = 
  3 active torsions:
  status: ('A' for Active; 'I' for Inactive)
    1  A    between atoms: C_17  and  O_28
    2  A    between atoms: O_28  and  C_29
    3  A    between atoms: C_29  and  C_32
                            x       y       z     vdW  Elec       q    Type
                         _______ _______ _______ _____ _____    ______ ____

>  <TORSDO>
F 3

$$$$
=
 OpenBabel11112417463D

 34 40  0  0  1  0  0  0  0  0999 V2000
  188.0690  176.4840  141.6610 C   0  0  0  0  0  0  0  0  0  0  0  0
  186.0600  176.9590  140.1790 C   0  0  0  0  0  2  0  0  0  0  0  0
  191.0700  175.8010  147.4260 C   0  0  0  0  0  0  0  0  0  0  0  0
  189.7370  175.8750  143.2940 C   0  0  0  0  0  0  0  0  0  0  0  0
  189.7990  177.0920  145.5710 C   0  0  2  0  0  3  0  0  0  0  0  0
  190.0910  178.0340  147.8740 C   0  0  0  0  0  1  0  0  0  0  0  0
  190.8710  174.9670  148.3460 O   0  0  0  0  0  0  0  0  0  0  0  0
  192.6600  176.7260  145.6780 C   0  0  0  0  0  2  0  0  0  0  0  0
  186.5120  178.4310  142.0430 C   0  0  2  0  0  3  0  0  0  0  0  0
  183.8370  178.9950  143.7780 C   0  0  0  0  0  3  0  0  0  0  0  0
  188.3250  177.3520  145.2790 C   0  0  0  0  0  2  0  0  0  0  0  0
  191.9160  176.2990  144.4120 C   0  0  0  0  0  2  0  0  0  0  0  0
  186.6950  178.1570  143.5440 C   0  0  1  0  0  3  0  0  0  0  0  0
  184.9730  178.0220  140.2190 C   0  0  0  0  0  2  0  0  0  0  0  0
  190.4220  176.0290  144.6320 C   0  0  2  0  0  3  0  0  0  0  0  0
  192.3510  175.8350  146.7870 N   0  0  0  0  0  2  0  0  0  0  0  0
  184.0320  178.1210  142.5660 C   0  0  2  0  0  3  0  0  0  0  0  0
  188.6570  176.6920  142.9180 C   0  0  0  0  0  0  0  0  0  0  0  0
  189.9600  176.7560  147.0640 C   0  0  2  0  0  3  0  0  0  0  0  0
  188.1600  177.7920  143.8300 C   0  0  2  0  0  3  0  0  0  0  0  0
  189.5570  174.6960  141.2430 C   0  0  0  0  0  3  0  0  0  0  0  0
  184.8090  179.5110  144.5510 C   0  0  0  0  0  3  0  0  0  0  0  0
  190.1520  174.8910  142.4500 N   0  0  0  0  0  0  0  0  0  0  0  0
  186.2930  179.4050  144.3170 C   0  0  0  0  0  2  0  0  0  0  0  0
  185.0710  178.7020  141.5880 C   0  0  1  0  0  3  0  0  0  0  0  0
  188.5240  175.4890  140.8570 N   0  0  0  0  0  0  0  0  0  0  0  0
  186.9620  177.2970  141.2580 N   0  0  0  0  0  0  0  0  0  0  0  0
  182.7940  177.9440  141.9380 O   0  0  0  0  0  0  0  0  0  0  0  0
  181.9370  178.8440  142.5770 C   0  0  0  0  0  2  0  0  0  0  0  0
  179.4430  177.9160  140.0940 C   0  0  0  0  0  2  0  0  0  0  0  0
  179.4600  178.9020  142.2920 C   0  0  0  0  0  2  0  0  0  0  0  0
  180.7930  179.2170  141.6510 C   0  0  0  0  0  3  0  0  0  0  0  0
  178.5480  178.5470  141.1410 C   0  0  0  0  0  2  0  0  0  0  0  0
  180.8580  178.3880  140.3840 C   0  0  0  0  0  2  0  0  0  0  0  0
  1 18  1  0  0  0  0
  2 14  1  0  0  0  0
  2 27  1  0  0  0  0
  3  7  2  0  0  0  0
  4 15  1  0  0  0  0
  5 11  1  6  0  0  0
  5 19  1  0  0  0  0
  8 16  1  0  0  0  0
  9 27  1  6  0  0  0
  9 13  1  0  0  0  0
 10 22  2  0  0  0  0
 12  8  1  0  0  0  0
 13 20  1  0  0  0  0
 13 24  1  1  0  0  0
 15 12  1  6  0  0  0
 15  5  1  0  0  0  0
 16  3  1  0  0  0  0
 17 28  1  6  0  0  0
 17 10  1  0  0  0  0
 18  4  2  0  0  0  0
 18 20  1  0  0  0  0
 19  3  1  0  0  0  0
 19  6  1  1  0  0  0
 20 11  1  1  0  0  0
 21 23  2  0  0  0  0
 23  4  1  0  0  0  0
 24 22  1  0  0  0  0
 25 14  1  6  0  0  0
 25  9  1  0  0  0  0
 25 17  1  0  0  0  0
 26 21  1  0  0  0  0
 26  1  2  0  0  0  0
 27  1  1  0  0  0  0
 28 29  1  0  0  0  0
 30 34  1  0  0  0  0
 30 33  1  0  0  0  0
 32 31  1  0  0  0  0
 32 29  1  0  0  0  0
 33 31  1  0  0  0  0
 34 32  1  0  0  0  0
M  END
>  <MODEL>
7

>  <REMARK>
 VINA RESULT:      -7.9      3.133      5.131
  Name = 
  3 active torsions:
  status: ('A' for Active; 'I' for Inactive)
    1  A    between atoms: C_17  and  O_28
    2  A    between atoms: O_28  and  C_29
    3  A    between atoms: C_29  and  C_32
                            x       y       z     vdW  Elec       q    Type
                         _______ _______ _______ _____ _____    ______ ____

>  <TORSDO>
F 3

$$$$
=
 OpenBabel11112417463D

 34 40  0  0  1  0  0  0  0  0999 V2000
  189.8340  174.3980  141.6820 C   0  0  0  0  0  0  0  0  0  0  0  0
  188.5670  176.5810  141.9800 C   0  0  0  0  0  2  0  0  0  0  0  0
  193.0770  169.1580  143.8590 C   0  0  0  0  0  0  0  0  0  0  0  0
  190.8730  172.2220  141.7090 C   0  0  0  0  0  0  0  0  0  0  0  0
  192.6820  171.6930  143.4740 C   0  0  2  0  0  3  0  0  0  0  0  0
  194.4160  170.8520  145.0760 C   0  0  0  0  0  1  0  0  0  0  0  0
  192.6830  168.2080  144.5830 O   0  0  0  0  0  0  0  0  0  0  0  0
  193.9710  169.9100  141.6060 C   0  0  0  0  0  2  0  0  0  0  0  0
  190.6230  176.2450  143.2070 C   0  0  2  0  0  3  0  0  0  0  0  0
  190.2730  177.0230  146.3320 C   0  0  0  0  0  3  0  0  0  0  0  0
  191.9840  172.7900  144.2710 C   0  0  0  0  0  2  0  0  0  0  0  0
  192.7770  170.7340  141.1240 C   0  0  0  0  0  2  0  0  0  0  0  0
  191.0750  175.1300  144.1630 C   0  0  1  0  0  3  0  0  0  0  0  0
  188.8080  177.8070  142.8470 C   0  0  0  0  0  2  0  0  0  0  0  0
  191.8570  171.2130  142.2550 C   0  0  2  0  0  3  0  0  0  0  0  0
  193.5470  168.8740  142.5360 N   0  0  0  0  0  2  0  0  0  0  0  0
  189.2600  177.0410  145.2160 C   0  0  2  0  0  3  0  0  0  0  0  0
  190.7760  173.5200  142.2390 C   0  0  0  0  0  0  0  0  0  0  0  0
  193.0730  170.5540  144.4330 C   0  0  2  0  0  3  0  0  0  0  0  0
  191.6870  173.9730  143.3580 C   0  0  2  0  0  3  0  0  0  0  0  0
  189.1160  172.7090  140.1940 C   0  0  0  0  0  3  0  0  0  0  0  0
  191.4730  176.4160  146.3070 C   0  0  0  0  0  3  0  0  0  0  0  0
  190.0320  171.8480  140.7070 N   0  0  0  0  0  0  0  0  0  0  0  0
  192.0970  175.7080  145.1330 C   0  0  0  0  0  2  0  0  0  0  0  0
  189.8890  177.4240  143.8630 C   0  0  1  0  0  3  0  0  0  0  0  0
  189.0200  173.9730  140.6810 N   0  0  0  0  0  0  0  0  0  0  0  0
  189.7090  175.7230  142.2100 N   0  0  0  0  0  0  0  0  0  0  0  0
  188.2310  177.9240  145.5610 O   0  0  0  0  0  0  0  0  0  0  0  0
  187.2610  177.1220  146.1680 C   0  0  0  0  0  2  0  0  0  0  0  0
  183.9650  178.6660  146.1310 C   0  0  0  0  0  2  0  0  0  0  0  0
  185.9120  178.6320  144.7130 C   0  0  0  0  0  2  0  0  0  0  0  0
  185.9140  177.3440  145.5040 C   0  0  0  0  0  3  0  0  0  0  0  0
  184.4890  179.1350  144.7900 C   0  0  0  0  0  2  0  0  0  0  0  0
  184.8330  177.4930  146.5550 C   0  0  0  0  0  2  0  0  0  0  0  0
  1 27  1  0  0  0  0
  1 18  1  0  0  0  0
  2 27  1  0  0  0  0
  2 14  1  0  0  0  0
  3 19  1  0  0  0  0
  3  7  2  0  0  0  0
  4 18  2  0  0  0  0
  4 15  1  0  0  0  0
  5 11  1  1  0  0  0
  5 19  1  0  0  0  0
  8 16  1  0  0  0  0
  9 27  1  6  0  0  0
  9 25  1  0  0  0  0
  9 13  1  0  0  0  0
 12  8  1  0  0  0  0
 13 24  1  1  0  0  0
 15 12  1  6  0  0  0
 15  5  1  0  0  0  0
 16  3  1  0  0  0  0
 17 28  1  1  0  0  0
 17 10  1  0  0  0  0
 18 20  1  0  0  0  0
 19  6  1  6  0  0  0
 20 13  1  0  0  0  0
 20 11  1  1  0  0  0
 21 26  1  0  0  0  0
 21 23  2  0  0  0  0
 22 10  2  0  0  0  0
 23  4  1  0  0  0  0
 24 22  1  0  0  0  0
 25 14  1  6  0  0  0
 25 17  1  0  0  0  0
 26  1  2  0  0  0  0
 28 29  1  0  0  0  0
 30 34  1  0  0  0  0
 31 33  1  0  0  0  0
 31 32  1  0  0  0  0
 32 29  1  0  0  0  0
 32 34  1  0  0  0  0
 33 30  1  0  0  0  0
M  END
>  <MODEL>
8

>  <REMARK>
 VINA RESULT:      -7.6      1.952      2.403
  Name = 
  3 active torsions:
  status: ('A' for Active; 'I' for Inactive)
    1  A    between atoms: C_17  and  O_28
    2  A    between atoms: O_28  and  C_29
    3  A    between atoms: C_29  and  C_32
                            x       y       z     vdW  Elec       q    Type
                         _______ _______ _______ _____ _____    ______ ____

>  <TORSDO>
F 3

$$$$
=
 OpenBabel11112417463D

 34 40  0  0  1  0  0  0  0  0999 V2000
  190.6000  172.8860  142.3040 C   0  0  0  0  0  0  0  0  0  0  0  0
  188.2970  173.9480  142.1360 C   0  0  0  0  0  2  0  0  0  0  0  0
  196.5010  172.0780  144.9930 C   0  0  0  0  0  0  0  0  0  0  0  0
  192.7420  171.9070  142.8240 C   0  0  0  0  0  0  0  0  0  0  0  0
  194.6270  173.3940  143.7760 C   0  0  2  0  0  3  0  0  0  0  0  0
  196.6280  174.5410  144.7540 C   0  0  0  0  0  1  0  0  0  0  0  0
  196.8160  171.6630  146.1380 O   0  0  0  0  0  0  0  0  0  0  0  0
  196.5890  171.7180  142.4820 C   0  0  0  0  0  2  0  0  0  0  0  0
  190.2210  175.3740  142.4690 C   0  0  2  0  0  3  0  0  0  0  0  0
  189.7040  177.5190  144.8400 C   0  0  0  0  0  3  0  0  0  0  0  0
  193.4680  174.2680  144.2450 C   0  0  0  0  0  2  0  0  0  0  0  0
  195.1080  171.4480  142.2160 C   0  0  0  0  0  2  0  0  0  0  0  0
  191.3240  175.3720  143.5390 C   0  0  1  0  0  3  0  0  0  0  0  0
  187.8100  175.3850  142.2380 C   0  0  0  0  0  2  0  0  0  0  0  0
  194.1720  171.9900  143.3040 C   0  0  2  0  0  3  0  0  0  0  0  0
  196.9470  171.3490  143.8440 N   0  0  0  0  0  2  0  0  0  0  0  0
  188.8080  176.4250  144.3190 C   0  0  2  0  0  3  0  0  0  0  0  0
  191.9190  173.0440  142.7550 C   0  0  0  0  0  0  0  0  0  0  0  0
  195.6960  173.3490  144.8820 C   0  0  2  0  0  3  0  0  0  0  0  0
  192.4500  174.4120  143.1210 C   0  0  2  0  0  3  0  0  0  0  0  0
  190.9410  170.5590  142.0740 C   0  0  0  0  0  3  0  0  0  0  0  0
  191.0210  177.6500  144.6000 C   0  0  0  0  0  3  0  0  0  0  0  0
  192.2270  170.6920  142.4920 N   0  0  0  0  0  0  0  0  0  0  0  0
  191.8570  176.7900  143.6880 C   0  0  0  0  0  2  0  0  0  0  0  0
  188.9740  176.2060  142.8030 C   0  0  1  0  0  3  0  0  0  0  0  0
  190.1370  171.6500  141.9830 N   0  0  0  0  0  0  0  0  0  0  0  0
  189.7380  174.0270  142.2320 N   0  0  0  0  0  0  0  0  0  0  0  0
  187.4830  176.7430  144.6380 O   0  0  0  0  0  0  0  0  0  0  0  0
  187.3530  176.4160  145.9910 C   0  0  0  0  0  2  0  0  0  0  0  0
  185.1760  179.0400  147.2640 C   0  0  0  0  0  2  0  0  0  0  0  0
  185.1920  177.5120  145.4010 C   0  0  0  0  0  2  0  0  0  0  0  0
  186.0010  176.8750  146.5080 C   0  0  0  0  0  3  0  0  0  0  0  0
  184.3490  178.5600  146.0880 C   0  0  0  0  0  2  0  0  0  0  0  0
  186.1850  177.9450  147.5660 C   0  0  0  0  0  2  0  0  0  0  0  0
  1 18  1  0  0  0  0
  2 27  1  0  0  0  0
  2 14  1  0  0  0  0
  3  7  2  0  0  0  0
  4 15  1  0  0  0  0
  5 11  1  1  0  0  0
  5 19  1  0  0  0  0
  8 16  1  0  0  0  0
  9 27  1  1  0  0  0
  9 25  1  0  0  0  0
  9 13  1  0  0  0  0
 12  8  1  0  0  0  0
 13 24  1  6  0  0  0
 15 12  1  6  0  0  0
 15  5  1  0  0  0  0
 16  3  1  0  0  0  0
 17 28  1  6  0  0  0
 17 10  1  0  0  0  0
 18  4  2  0  0  0  0
 18 20  1  0  0  0  0
 19  6  1  6  0  0  0
 19  3  1  0  0  0  0
 20 13  1  0  0  0  0
 20 11  1  1  0  0  0
 21 23  2  0  0  0  0
 22 10  2  0  0  0  0
 23  4  1  0  0  0  0
 24 22  1  0  0  0  0
 25 14  1  1  0  0  0
 25 17  1  0  0  0  0
 26 21  1  0  0  0  0
 26  1  2  0  0  0  0
 27  1  1  0  0  0  0
 28 29  1  0  0  0  0
 29 32  1  0  0  0  0
 30 34  1  0  0  0  0
 31 33  1  0  0  0  0
 31 32  1  0  0  0  0
 32 34  1  0  0  0  0
 33 30  1  0  0  0  0
M  END
>  <MODEL>
9

>  <REMARK>
 VINA RESULT:      -7.6      1.365      1.865
  Name = 
  3 active torsions:
  status: ('A' for Active; 'I' for Inactive)
    1  A    between atoms: C_17  and  O_28
    2  A    between atoms: O_28  and  C_29
    3  A    between atoms: C_29  and  C_32
                            x       y       z     vdW  Elec       q    Type
                         _______ _______ _______ _____ _____    ______ ____

>  <TORSDO>
F 3

$$$$
