=
 OpenBabel11112417543D

 34 41  0  0  1  0  0  0  0  0999 V2000
  189.5770  176.0400  142.7840 C   0  0  0  0  0  0  0  0  0  0  0  0
  191.5680  174.5430  142.3040 C   0  0  0  0  0  2  0  0  0  0  0  0
  185.3930  178.9710  147.1840 C   0  0  1  0  0  3  0  0  0  0  0  0
  187.3390  176.3040  143.8890 C   0  0  2  0  0  3  0  0  0  0  0  0
  187.3220  177.6760  146.0220 C   0  0  1  0  0  3  0  0  0  0  0  0
  185.9860  176.6470  148.0570 C   0  0  0  0  0  1  0  0  0  0  0  0
  186.6400  179.1170  148.0530 C   0  0  0  0  0  2  0  0  0  0  0  0
  184.8570  179.0920  145.0090 C   0  0  0  0  0  2  0  0  0  0  0  0
  191.5890  175.9010  144.3100 C   0  0  1  0  0  3  0  0  0  0  0  0
  193.7210  176.0200  146.4100 C   0  0  0  0  0  2  0  0  0  0  0  0
  188.4450  176.7820  146.3030 N   0  0  0  0  0  2  0  0  0  0  0  0
  185.8510  178.3650  144.1060 C   0  0  0  0  0  2  0  0  0  0  0  0
  190.6120  175.9380  145.4980 C   0  0  2  0  0  3  0  0  0  0  0  0
  192.8260  174.2090  143.0790 C   0  0  0  0  0  2  0  0  0  0  0  0
  186.4860  177.1730  144.8290 C   0  0  1  0  0  3  0  0  0  0  0  0
  185.5440  179.7600  146.0320 O   0  0  0  0  0  0  0  0  0  0  0  0
  193.9120  175.2050  145.1260 C   0  0  2  0  0  3  0  0  0  0  0  0
  188.7940  176.8040  143.8160 C   0  0  1  0  0  3  0  0  0  0  0  0
  186.4340  177.8540  147.2540 C   0  0  2  0  0  0  0  0  0  0  0  0
  189.4420  176.9000  145.2270 C   0  0  1  0  0  3  0  0  0  0  0  0
  187.6050  176.2630  141.3330 C   0  0  0  0  0  2  0  0  0  0  0  0
  192.5000  175.5920  147.2130 C   0  0  0  0  0  2  0  0  0  0  0  0
  186.6800  175.9940  142.5280 C   0  0  0  0  0  2  0  0  0  0  0  0
  191.3020  176.4270  146.7820 C   0  0  0  0  0  2  0  0  0  0  0  0
  192.5960  174.7680  144.4750 C   0  0  1  0  0  3  0  0  0  0  0  0
  188.9950  175.7700  141.6100 C   0  0  0  0  0  3  0  0  0  0  0  0
  190.8980  175.5760  143.0750 N   0  0  0  0  0  0  0  0  0  0  0  0
  194.6900  174.0790  145.4060 O   0  0  0  0  0  0  0  0  0  0  0  0
  195.8540  174.5820  146.0010 C   0  0  0  0  0  2  0  0  0  0  0  0
  196.7750  171.8250  144.3440 O   0  0  0  0  0  0  0  0  0  0  0  0
  197.9080  173.8470  144.7920 C   0  0  0  0  0  2  0  0  0  0  0  0
  196.9890  173.5630  145.9420 C   0  0  2  0  0  3  0  0  0  0  0  0
  197.9410  172.5410  144.0370 C   0  0  0  0  0  2  0  0  0  0  0  0
  196.4640  172.1690  145.6690 C   0  0  0  0  0  2  0  0  0  0  0  0
  1 27  1  0  0  0  0
  2 27  1  0  0  0  0
  2 14  1  0  0  0  0
  3 19  1  0  0  0  0
  3  7  1  1  0  0  0
  4 23  1  6  0  0  0
  4 15  1  0  0  0  0
  5 11  1  1  0  0  0
  5 19  1  0  0  0  0
  8 16  1  0  0  0  0
  9 27  1  6  0  0  0
  9 25  1  0  0  0  0
  9 13  1  0  0  0  0
 10 22  1  0  0  0  0
 12  8  1  0  0  0  0
 13 24  1  1  0  0  0
 15 12  1  6  0  0  0
 15  5  1  0  0  0  0
 16  3  1  0  0  0  0
 17 28  1  1  0  0  0
 17 10  1  0  0  0  0
 18  1  1  6  0  0  0
 18  4  1  0  0  0  0
 18 20  1  0  0  0  0
 19  7  1  0  0  0  0
 19  6  1  1  0  0  0
 20 13  1  0  0  0  0
 20 11  1  1  0  0  0
 21 26  1  0  0  0  0
 21 23  1  0  0  0  0
 24 22  1  0  0  0  0
 25 14  1  6  0  0  0
 25 17  1  0  0  0  0
 26  1  2  0  0  0  0
 28 29  1  0  0  0  0
 30 34  1  0  0  0  0
 31 32  1  0  0  0  0
 32 29  1  6  0  0  0
 33 30  1  0  0  0  0
 33 31  1  0  0  0  0
 34 32  1  0  0  0  0
M  END
>  <MODEL>
1

>  <REMARK>
 VINA RESULT:      -8.9      0.000      0.000
  Name = 
  3 active torsions:
  status: ('A' for Active; 'I' for Inactive)
    1  A    between atoms: C_17  and  O_28
    2  A    between atoms: O_28  and  C_29
    3  A    between atoms: C_29  and  C_32
                            x       y       z     vdW  Elec       q    Type
                         _______ _______ _______ _____ _____    ______ ____

>  <TORSDO>
F 3

$$$$
=
 OpenBabel11112417543D

 34 41  0  0  1  0  0  0  0  0999 V2000
  192.3110  176.4880  145.5320 C   0  0  0  0  0  0  0  0  0  0  0  0
  190.1450  176.5750  146.8500 C   0  0  0  0  0  2  0  0  0  0  0  0
  195.7010  174.7700  139.9630 C   0  0  1  0  0  3  0  0  0  0  0  0
  193.9830  175.0900  144.2870 C   0  0  2  0  0  3  0  0  0  0  0  0
  193.8870  175.2530  141.7590 C   0  0  1  0  0  3  0  0  0  0  0  0
  193.9630  172.9630  140.4410 C   0  0  0  0  0  1  0  0  0  0  0  0
  194.4210  175.1690  139.2340 C   0  0  0  0  0  2  0  0  0  0  0  0
  196.8970  175.4680  141.7280 C   0  0  0  0  0  2  0  0  0  0  0  0
  190.0510  176.7980  144.4400 C   0  0  1  0  0  3  0  0  0  0  0  0
  187.6130  177.1320  142.7330 C   0  0  0  0  0  2  0  0  0  0  0  0
  192.4710  175.0410  142.0540 N   0  0  0  0  0  2  0  0  0  0  0  0
  196.0350  175.7950  142.9450 C   0  0  0  0  0  2  0  0  0  0  0  0
  190.5250  175.8420  143.3310 C   0  0  2  0  0  3  0  0  0  0  0  0
  188.6880  176.6540  146.4470 C   0  0  0  0  0  2  0  0  0  0  0  0
  194.7730  174.9270  142.9780 C   0  0  1  0  0  3  0  0  0  0  0  0
  196.2610  175.9110  140.5600 O   0  0  0  0  0  0  0  0  0  0  0  0
  187.5210  177.1340  144.2620 C   0  0  2  0  0  3  0  0  0  0  0  0
  192.9680  176.2450  144.2010 C   0  0  1  0  0  3  0  0  0  0  0  0
  194.3300  174.4320  140.5480 C   0  0  2  0  0  0  0  0  0  0  0  0
  192.0070  176.0780  142.9890 C   0  0  1  0  0  3  0  0  0  0  0  0
  194.5480  176.2320  146.5200 C   0  0  0  0  0  2  0  0  0  0  0  0
  188.2270  175.8550  142.1730 C   0  0  0  0  0  2  0  0  0  0  0  0
  194.8490  175.0690  145.5660 C   0  0  0  0  0  2  0  0  0  0  0  0
  189.7310  176.0460  142.0310 C   0  0  0  0  0  2  0  0  0  0  0  0
  188.6730  176.3920  144.9480 C   0  0  1  0  0  3  0  0  0  0  0  0
  193.0690  176.4620  146.6340 C   0  0  0  0  0  3  0  0  0  0  0  0
  190.8990  176.6980  145.6140 N   0  0  0  0  0  0  0  0  0  0  0  0
  186.3040  176.5690  144.6520 O   0  0  0  0  0  0  0  0  0  0  0  0
  185.3330  177.5040  144.2720 C   0  0  0  0  0  2  0  0  0  0  0  0
  185.6760  177.7110  147.5930 O   0  0  0  0  0  0  0  0  0  0  0  0
  185.3980  179.3650  145.9310 C   0  0  0  0  0  2  0  0  0  0  0  0
  184.6640  178.1320  145.4910 C   0  0  2  0  0  3  0  0  0  0  0  0
  185.6910  179.0970  147.3870 C   0  0  0  0  0  2  0  0  0  0  0  0
  184.7260  177.2100  146.6900 C   0  0  0  0  0  2  0  0  0  0  0  0
  1 27  1  0  0  0  0
  1 26  2  0  0  0  0
  3  7  1  6  0  0  0
  3 19  1  0  0  0  0
  3 16  1  0  0  0  0
  4 23  1  1  0  0  0
  5 11  1  1  0  0  0
  5 15  1  0  0  0  0
  7 19  1  0  0  0  0
  8 12  1  0  0  0  0
  9 25  1  0  0  0  0
  9 27  1  1  0  0  0
 10 17  1  0  0  0  0
 13 24  1  6  0  0  0
 13  9  1  0  0  0  0
 14  2  1  0  0  0  0
 15 12  1  1  0  0  0
 15  4  1  0  0  0  0
 16  8  1  0  0  0  0
 17 28  1  6  0  0  0
 17 25  1  0  0  0  0
 18  4  1  0  0  0  0
 18  1  1  1  0  0  0
 19  6  1  6  0  0  0
 19  5  1  0  0  0  0
 20 11  1  1  0  0  0
 20 13  1  0  0  0  0
 20 18  1  0  0  0  0
 21 26  1  0  0  0  0
 22 10  1  0  0  0  0
 23 21  1  0  0  0  0
 24 22  1  0  0  0  0
 25 14  1  1  0  0  0
 27  2  1  0  0  0  0
 29 28  1  0  0  0  0
 31 33  1  0  0  0  0
 32 29  1  6  0  0  0
 32 31  1  0  0  0  0
 32 34  1  0  0  0  0
 33 30  1  0  0  0  0
 34 30  1  0  0  0  0
M  END
>  <MODEL>
2

>  <REMARK>
 VINA RESULT:      -8.6      2.253      9.156
  Name = 
  3 active torsions:
  status: ('A' for Active; 'I' for Inactive)
    1  A    between atoms: C_17  and  O_28
    2  A    between atoms: O_28  and  C_29
    3  A    between atoms: C_29  and  C_32
                            x       y       z     vdW  Elec       q    Type
                         _______ _______ _______ _____ _____    ______ ____

>  <TORSDO>
F 3

$$$$
=
 OpenBabel11112417543D

 34 41  0  0  1  0  0  0  0  0999 V2000
  190.0930  175.1840  145.2740 C   0  0  0  0  0  0  0  0  0  0  0  0
  191.9250  174.0500  143.9350 C   0  0  0  0  0  2  0  0  0  0  0  0
  184.5240  178.9760  145.5180 C   0  0  1  0  0  3  0  0  0  0  0  0
  188.8670  177.3050  145.8210 C   0  0  2  0  0  3  0  0  0  0  0  0
  186.5620  177.5390  144.7910 C   0  0  1  0  0  3  0  0  0  0  0  0
  186.0250  179.8640  143.6540 C   0  0  0  0  0  1  0  0  0  0  0  0
  184.1400  178.2400  144.2370 C   0  0  0  0  0  2  0  0  0  0  0  0
  185.5450  178.5130  147.4600 C   0  0  0  0  0  2  0  0  0  0  0  0
  189.7080  174.2100  142.9720 C   0  0  1  0  0  3  0  0  0  0  0  0
  188.8150  173.2480  140.2800 C   0  0  0  0  0  2  0  0  0  0  0  0
  187.3270  177.1350  143.6120 N   0  0  0  0  0  2  0  0  0  0  0  0
  186.8140  177.6810  147.2870 C   0  0  0  0  0  2  0  0  0  0  0  0
  188.8430  175.4440  142.6620 C   0  0  2  0  0  3  0  0  0  0  0  0
  191.9840  173.4810  142.5330 C   0  0  0  0  0  2  0  0  0  0  0  0
  187.4890  177.9750  145.9430 C   0  0  1  0  0  3  0  0  0  0  0  0
  184.5540  178.0580  146.5800 O   0  0  0  0  0  0  0  0  0  0  0  0
  190.2260  172.9560  140.8020 C   0  0  2  0  0  3  0  0  0  0  0  0
  188.7590  175.8790  145.2490 C   0  0  1  0  0  3  0  0  0  0  0  0
  185.5740  178.6560  144.4540 C   0  0  2  0  0  0  0  0  0  0  0  0
  188.0080  175.8600  143.8870 C   0  0  1  0  0  3  0  0  0  0  0  0
  190.3740  176.1170  147.5310 C   0  0  0  0  0  2  0  0  0  0  0  0
  188.4980  174.7360  140.2120 C   0  0  0  0  0  2  0  0  0  0  0  0
  189.7630  177.4470  147.0700 C   0  0  0  0  0  2  0  0  0  0  0  0
  187.8510  175.1680  141.5210 C   0  0  0  0  0  2  0  0  0  0  0  0
  190.7110  173.9620  141.8520 C   0  0  1  0  0  3  0  0  0  0  0  0
  190.8640  175.3180  146.3580 C   0  0  0  0  0  3  0  0  0  0  0  0
  190.5390  174.4340  144.1410 N   0  0  0  0  0  0  0  0  0  0  0  0
  191.1190  172.9340  139.7290 O   0  0  0  0  0  0  0  0  0  0  0  0
  190.6950  171.8670  138.9270 C   0  0  0  0  0  2  0  0  0  0  0  0
  189.1200  173.6440  136.5690 O   0  0  0  0  0  0  0  0  0  0  0  0
  191.3790  173.5860  137.2530 C   0  0  0  0  0  2  0  0  0  0  0  0
  190.7980  172.2160  137.4440 C   0  0  2  0  0  3  0  0  0  0  0  0
  190.3540  174.2850  136.3940 C   0  0  0  0  0  2  0  0  0  0  0  0
  189.4300  172.2950  136.8000 C   0  0  0  0  0  2  0  0  0  0  0  0
  1 26  2  0  0  0  0
  2 27  1  0  0  0  0
  3  7  1  6  0  0  0
  3 16  1  0  0  0  0
  4 15  1  0  0  0  0
  4 23  1  1  0  0  0
  5 11  1  6  0  0  0
  5 15  1  0  0  0  0
  7 19  1  0  0  0  0
  9 27  1  1  0  0  0
 10 17  1  0  0  0  0
 12  8  1  0  0  0  0
 13 24  1  6  0  0  0
 13  9  1  0  0  0  0
 13 20  1  0  0  0  0
 14  2  1  0  0  0  0
 15 12  1  1  0  0  0
 16  8  1  0  0  0  0
 17 28  1  6  0  0  0
 17 25  1  0  0  0  0
 18  1  1  6  0  0  0
 18  4  1  0  0  0  0
 19  6  1  6  0  0  0
 19  5  1  0  0  0  0
 19  3  1  0  0  0  0
 20 11  1  6  0  0  0
 20 18  1  0  0  0  0
 22 10  1  0  0  0  0
 22 24  1  0  0  0  0
 23 21  1  0  0  0  0
 25 14  1  1  0  0  0
 25  9  1  0  0  0  0
 26 21  1  0  0  0  0
 27  1  1  0  0  0  0
 29 28  1  0  0  0  0
 30 34  1  0  0  0  0
 31 32  1  0  0  0  0
 32 29  1  1  0  0  0
 33 30  1  0  0  0  0
 33 31  1  0  0  0  0
 34 32  1  0  0  0  0
M  END
>  <MODEL>
3

>  <REMARK>
 VINA RESULT:      -8.3      3.237      5.916
  Name = 
  3 active torsions:
  status: ('A' for Active; 'I' for Inactive)
    1  A    between atoms: C_17  and  O_28
    2  A    between atoms: O_28  and  C_29
    3  A    between atoms: C_29  and  C_32
                            x       y       z     vdW  Elec       q    Type
                         _______ _______ _______ _____ _____    ______ ____

>  <TORSDO>
F 3

$$$$
=
 OpenBabel11112417543D

 34 41  0  0  1  0  0  0  0  0999 V2000
  189.6200  177.2390  146.2470 C   0  0  0  0  0  0  0  0  0  0  0  0
  187.1210  177.4520  146.6260 C   0  0  0  0  0  2  0  0  0  0  0  0
  194.8040  175.3040  142.3950 C   0  0  1  0  0  3  0  0  0  0  0  0
  191.5670  175.7440  145.7230 C   0  0  2  0  0  3  0  0  0  0  0  0
  192.4660  175.8970  143.3570 C   0  0  1  0  0  3  0  0  0  0  0  0
  192.9240  173.5980  142.1350 C   0  0  0  0  0  1  0  0  0  0  0  0
  193.9290  175.7680  141.2340 C   0  0  0  0  0  2  0  0  0  0  0  0
  195.2600  175.9450  144.4960 C   0  0  0  0  0  2  0  0  0  0  0  0
  187.9790  177.6660  144.3700 C   0  0  1  0  0  3  0  0  0  0  0  0
  186.4130  178.1240  141.8590 C   0  0  0  0  0  2  0  0  0  0  0  0
  191.0360  175.7640  143.0790 N   0  0  0  0  0  2  0  0  0  0  0  0
  194.0120  176.3270  145.2900 C   0  0  0  0  0  2  0  0  0  0  0  0
  188.7940  176.6790  143.5160 C   0  0  2  0  0  3  0  0  0  0  0  0
  185.9390  177.6100  145.6910 C   0  0  0  0  0  2  0  0  0  0  0  0
  192.7920  175.5290  144.8180 C   0  0  1  0  0  3  0  0  0  0  0  0
  195.1490  176.4160  143.1810 O   0  0  0  0  0  0  0  0  0  0  0  0
  185.7360  178.1410  143.2330 C   0  0  2  0  0  3  0  0  0  0  0  0
  190.7270  176.9520  145.2690 C   0  0  1  0  0  3  0  0  0  0  0  0
  193.2980  175.0450  142.3990 C   0  0  2  0  0  0  0  0  0  0  0  0
  190.3020  176.8310  143.7770 C   0  0  1  0  0  3  0  0  0  0  0  0
  191.2830  176.8660  148.0180 C   0  0  0  0  0  2  0  0  0  0  0  0
  187.1270  176.8120  141.5600 C   0  0  0  0  0  2  0  0  0  0  0  0
  191.8680  175.6830  147.2370 C   0  0  0  0  0  2  0  0  0  0  0  0
  188.5760  176.9190  142.0140 C   0  0  0  0  0  2  0  0  0  0  0  0
  186.4920  177.3400  144.2990 C   0  0  1  0  0  3  0  0  0  0  0  0
  189.8900  177.1780  147.5550 C   0  0  0  0  0  3  0  0  0  0  0  0
  188.2990  177.5270  145.7790 N   0  0  0  0  0  0  0  0  0  0  0  0
  184.4350  177.6460  143.1130 O   0  0  0  0  0  0  0  0  0  0  0  0
  183.7730  178.5650  142.2890 C   0  0  0  0  0  2  0  0  0  0  0  0
  180.7120  179.7910  141.7250 O   0  0  0  0  0  0  0  0  0  0  0  0
  182.0480  178.2670  140.5130 C   0  0  0  0  0  2  0  0  0  0  0  0
  182.3550  178.0990  141.9720 C   0  0  2  0  0  3  0  0  0  0  0  0
  180.7830  179.0900  140.5130 C   0  0  0  0  0  2  0  0  0  0  0  0
  181.3230  178.9570  142.6740 C   0  0  0  0  0  2  0  0  0  0  0  0
  1 26  2  0  0  0  0
  3  7  1  6  0  0  0
  3 19  1  0  0  0  0
  3 16  1  0  0  0  0
  4 23  1  1  0  0  0
  5 11  1  6  0  0  0
  5 15  1  0  0  0  0
  7 19  1  0  0  0  0
  8 12  1  0  0  0  0
  9 27  1  1  0  0  0
 10 17  1  0  0  0  0
 13 24  1  6  0  0  0
 13 20  1  0  0  0  0
 13  9  1  0  0  0  0
 14  2  1  0  0  0  0
 15 12  1  1  0  0  0
 15  4  1  0  0  0  0
 16  8  1  0  0  0  0
 17 28  1  6  0  0  0
 17 25  1  0  0  0  0
 18  4  1  0  0  0  0
 18  1  1  1  0  0  0
 19  6  1  6  0  0  0
 19  5  1  0  0  0  0
 20 11  1  1  0  0  0
 20 18  1  0  0  0  0
 22 10  1  0  0  0  0
 22 24  1  0  0  0  0
 23 21  1  0  0  0  0
 25  9  1  0  0  0  0
 25 14  1  1  0  0  0
 26 21  1  0  0  0  0
 27  1  1  0  0  0  0
 27  2  1  0  0  0  0
 29 28  1  0  0  0  0
 30 34  1  0  0  0  0
 31 32  1  0  0  0  0
 32 29  1  6  0  0  0
 32 34  1  0  0  0  0
 33 31  1  0  0  0  0
 33 30  1  0  0  0  0
M  END
>  <MODEL>
4

>  <REMARK>
 VINA RESULT:      -8.3      2.534      9.770
  Name = 
  3 active torsions:
  status: ('A' for Active; 'I' for Inactive)
    1  A    between atoms: C_17  and  O_28
    2  A    between atoms: O_28  and  C_29
    3  A    between atoms: C_29  and  C_32
                            x       y       z     vdW  Elec       q    Type
                         _______ _______ _______ _____ _____    ______ ____

>  <TORSDO>
F 3

$$$$
=
 OpenBabel11112417543D

 34 41  0  0  1  0  0  0  0  0999 V2000
  190.7040  173.8830  141.4950 C   0  0  0  0  0  0  0  0  0  0  0  0
  188.4530  174.9620  141.0410 C   0  0  0  0  0  2  0  0  0  0  0  0
  196.7340  173.9830  144.5080 C   0  0  1  0  0  3  0  0  0  0  0  0
  193.2040  174.0950  141.4620 C   0  0  2  0  0  3  0  0  0  0  0  0
  194.3070  174.4590  143.7160 C   0  0  1  0  0  3  0  0  0  0  0  0
  196.1320  176.3670  143.8250 C   0  0  0  0  0  1  0  0  0  0  0  0
  195.9800  174.6120  145.6760 C   0  0  0  0  0  2  0  0  0  0  0  0
  196.3790  172.4010  142.9570 C   0  0  0  0  0  2  0  0  0  0  0  0
  189.4690  175.2590  143.2200 C   0  0  1  0  0  3  0  0  0  0  0  0
  188.3980  176.8340  145.5320 C   0  0  0  0  0  2  0  0  0  0  0  0
  193.2470  175.4640  143.7860 N   0  0  0  0  0  2  0  0  0  0  0  0
  194.9970  172.4930  142.3130 C   0  0  0  0  0  2  0  0  0  0  0  0
  190.8250  175.8710  143.6130 C   0  0  2  0  0  3  0  0  0  0  0  0
  187.5670  175.8910  141.8450 C   0  0  0  0  0  2  0  0  0  0  0  0
  194.4990  173.9410  142.2770 C   0  0  1  0  0  3  0  0  0  0  0  0
  196.2830  172.6650  144.3300 O   0  0  0  0  0  0  0  0  0  0  0  0
  187.5740  176.6320  144.2560 C   0  0  2  0  0  3  0  0  0  0  0  0
  191.9530  173.8770  142.3320 C   0  0  1  0  0  3  0  0  0  0  0  0
  195.6250  175.0060  144.2640 C   0  0  2  0  0  0  0  0  0  0  0  0
  191.9440  174.8140  143.5740 C   0  0  1  0  0  3  0  0  0  0  0  0
  191.9470  172.4980  139.8890 C   0  0  0  0  0  2  0  0  0  0  0  0
  189.7400  177.5070  145.2760 C   0  0  0  0  0  2  0  0  0  0  0  0
  193.2050  173.3490  140.1100 C   0  0  0  0  0  2  0  0  0  0  0  0
  190.7980  176.4380  145.0410 C   0  0  0  0  0  2  0  0  0  0  0  0
  188.4260  176.3510  143.0130 C   0  0  1  0  0  3  0  0  0  0  0  0
  190.7160  173.2380  140.3230 C   0  0  0  0  0  3  0  0  0  0  0  0
  189.5450  174.6020  141.9280 N   0  0  0  0  0  0  0  0  0  0  0  0
  186.7830  177.7630  144.0340 O   0  0  0  0  0  0  0  0  0  0  0  0
  185.4640  177.3150  144.1790 C   0  0  0  0  0  2  0  0  0  0  0  0
  185.6770  177.7350  147.4910 O   0  0  0  0  0  0  0  0  0  0  0  0
  185.5020  179.2800  145.7150 C   0  0  0  0  0  2  0  0  0  0  0  0
  184.7600  178.0350  145.3260 C   0  0  2  0  0  3  0  0  0  0  0  0
  185.7300  179.1050  147.1960 C   0  0  0  0  0  2  0  0  0  0  0  0
  184.7540  177.1930  146.5840 C   0  0  0  0  0  2  0  0  0  0  0  0
  1 27  1  0  0  0  0
  2 14  1  0  0  0  0
  2 27  1  0  0  0  0
  3  7  1  1  0  0  0
  4 23  1  6  0  0  0
  4 15  1  0  0  0  0
  4 18  1  0  0  0  0
  5 11  1  6  0  0  0
  5 19  1  0  0  0  0
  8 16  1  0  0  0  0
  9 27  1  6  0  0  0
  9 13  1  0  0  0  0
 12  8  1  0  0  0  0
 13 24  1  1  0  0  0
 15 12  1  1  0  0  0
 15  5  1  0  0  0  0
 16  3  1  0  0  0  0
 17 28  1  6  0  0  0
 17 10  1  0  0  0  0
 18  1  1  6  0  0  0
 18 20  1  0  0  0  0
 19  6  1  6  0  0  0
 19  3  1  0  0  0  0
 19  7  1  0  0  0  0
 20 13  1  0  0  0  0
 20 11  1  6  0  0  0
 21 23  1  0  0  0  0
 21 26  1  0  0  0  0
 22 10  1  0  0  0  0
 24 22  1  0  0  0  0
 25 14  1  6  0  0  0
 25  9  1  0  0  0  0
 25 17  1  0  0  0  0
 26  1  2  0  0  0  0
 28 29  1  0  0  0  0
 31 33  1  0  0  0  0
 32 29  1  6  0  0  0
 32 31  1  0  0  0  0
 32 34  1  0  0  0  0
 33 30  1  0  0  0  0
 34 30  1  0  0  0  0
M  END
>  <MODEL>
5

>  <REMARK>
 VINA RESULT:      -8.1      1.747      8.724
  Name = 
  3 active torsions:
  status: ('A' for Active; 'I' for Inactive)
    1  A    between atoms: C_17  and  O_28
    2  A    between atoms: O_28  and  C_29
    3  A    between atoms: C_29  and  C_32
                            x       y       z     vdW  Elec       q    Type
                         _______ _______ _______ _____ _____    ______ ____

>  <TORSDO>
F 3

$$$$
=
 OpenBabel11112417543D

 34 41  0  0  1  0  0  0  0  0999 V2000
  189.9380  175.1200  145.1790 C   0  0  0  0  0  0  0  0  0  0  0  0
  191.7030  174.0020  143.7410 C   0  0  0  0  0  2  0  0  0  0  0  0
  184.4780  179.0340  145.7460 C   0  0  1  0  0  3  0  0  0  0  0  0
  188.7830  177.2440  145.8530 C   0  0  2  0  0  3  0  0  0  0  0  0
  186.4570  177.5810  144.9000 C   0  0  1  0  0  3  0  0  0  0  0  0
  185.9510  179.9670  143.8820 C   0  0  0  0  0  1  0  0  0  0  0  0
  184.0410  178.3660  144.4450 C   0  0  0  0  0  2  0  0  0  0  0  0
  185.5390  178.4590  147.6370 C   0  0  0  0  0  2  0  0  0  0  0  0
  189.4660  174.2600  142.8480 C   0  0  1  0  0  3  0  0  0  0  0  0
  188.4750  173.4410  140.1420 C   0  0  0  0  0  2  0  0  0  0  0  0
  187.1800  177.2110  143.6840 N   0  0  0  0  0  2  0  0  0  0  0  0
  186.7800  177.6050  147.3910 C   0  0  0  0  0  2  0  0  0  0  0  0
  188.6250  175.5280  142.6180 C   0  0  2  0  0  3  0  0  0  0  0  0
  191.7100  173.4950  142.3130 C   0  0  0  0  0  2  0  0  0  0  0  0
  187.4260  177.9420  146.0440 C   0  0  1  0  0  3  0  0  0  0  0  0
  184.5130  178.0690  146.7660 O   0  0  0  0  0  0  0  0  0  0  0  0
  189.8920  173.0920  140.6120 C   0  0  2  0  0  3  0  0  0  0  0  0
  188.6230  175.8480  145.2220 C   0  0  1  0  0  3  0  0  0  0  0  0
  185.4900  178.7360  144.6410 C   0  0  2  0  0  0  0  0  0  0  0  0
  187.8350  175.9080  143.8820 C   0  0  1  0  0  3  0  0  0  0  0  0
  190.3050  175.9440  147.4660 C   0  0  0  0  0  2  0  0  0  0  0  0
  188.1960  174.9380  140.1490 C   0  0  0  0  0  2  0  0  0  0  0  0
  189.7160  177.3080  147.0820 C   0  0  0  0  0  2  0  0  0  0  0  0
  187.5960  175.3270  141.4940 C   0  0  0  0  0  2  0  0  0  0  0  0
  190.4320  174.0370  141.6900 C   0  0  1  0  0  3  0  0  0  0  0  0
  190.7410  175.1860  146.2460 C   0  0  0  0  0  3  0  0  0  0  0  0
  190.3330  174.4100  144.0020 N   0  0  0  0  0  0  0  0  0  0  0  0
  190.7560  173.0950  139.5130 O   0  0  0  0  0  0  0  0  0  0  0  0
  190.0400  172.4650  138.4880 C   0  0  0  0  0  2  0  0  0  0  0  0
  191.2440  169.5010  139.4680 O   0  0  0  0  0  0  0  0  0  0  0  0
  189.8710  170.1220  137.6500 C   0  0  0  0  0  2  0  0  0  0  0  0
  190.8030  171.2610  137.9420 C   0  0  2  0  0  3  0  0  0  0  0  0
  190.4670  168.9730  138.4270 C   0  0  0  0  0  2  0  0  0  0  0  0
  191.7650  170.7060  138.9700 C   0  0  0  0  0  2  0  0  0  0  0  0
  1 26  2  0  0  0  0
  2 27  1  0  0  0  0
  3  7  1  6  0  0  0
  3 16  1  0  0  0  0
  4 15  1  0  0  0  0
  4 23  1  1  0  0  0
  5 11  1  6  0  0  0
  5 15  1  0  0  0  0
  7 19  1  0  0  0  0
  9 27  1  1  0  0  0
 10 22  1  0  0  0  0
 10 17  1  0  0  0  0
 12  8  1  0  0  0  0
 13 24  1  6  0  0  0
 13  9  1  0  0  0  0
 13 20  1  0  0  0  0
 14  2  1  0  0  0  0
 15 12  1  1  0  0  0
 16  8  1  0  0  0  0
 17 28  1  6  0  0  0
 17 25  1  0  0  0  0
 18  1  1  6  0  0  0
 18  4  1  0  0  0  0
 19  6  1  6  0  0  0
 19  5  1  0  0  0  0
 19  3  1  0  0  0  0
 20 11  1  6  0  0  0
 20 18  1  0  0  0  0
 22 24  1  0  0  0  0
 23 21  1  0  0  0  0
 25 14  1  1  0  0  0
 25  9  1  0  0  0  0
 26 21  1  0  0  0  0
 27  1  1  0  0  0  0
 29 28  1  0  0  0  0
 31 32  1  0  0  0  0
 31 33  1  0  0  0  0
 32 29  1  1  0  0  0
 32 34  1  0  0  0  0
 33 30  1  0  0  0  0
 34 30  1  0  0  0  0
M  END
>  <MODEL>
6

>  <REMARK>
 VINA RESULT:      -8.0      3.169      5.693
  Name = 
  3 active torsions:
  status: ('A' for Active; 'I' for Inactive)
    1  A    between atoms: C_17  and  O_28
    2  A    between atoms: O_28  and  C_29
    3  A    between atoms: C_29  and  C_32
                            x       y       z     vdW  Elec       q    Type
                         _______ _______ _______ _____ _____    ______ ____

>  <TORSDO>
F 3

$$$$
=
 OpenBabel11112417543D

 34 41  0  0  1  0  0  0  0  0999 V2000
  192.4130  176.2260  145.3110 C   0  0  0  0  0  0  0  0  0  0  0  0
  190.1520  176.6870  146.3660 C   0  0  0  0  0  2  0  0  0  0  0  0
  196.1720  173.0780  140.6850 C   0  0  1  0  0  3  0  0  0  0  0  0
  194.1220  174.5260  144.6160 C   0  0  2  0  0  3  0  0  0  0  0  0
  194.2400  174.0380  142.1300 C   0  0  1  0  0  3  0  0  0  0  0  0
  194.3290  171.4860  141.4470 C   0  0  0  0  0  1  0  0  0  0  0  0
  194.9730  173.3000  139.7670 C   0  0  0  0  0  2  0  0  0  0  0  0
  197.2480  174.1820  142.3140 C   0  0  0  0  0  2  0  0  0  0  0  0
  190.2640  176.2880  143.9790 C   0  0  1  0  0  3  0  0  0  0  0  0
  187.9880  176.2190  142.0330 C   0  0  0  0  0  2  0  0  0  0  0  0
  192.7960  173.9340  142.3420 N   0  0  0  0  0  2  0  0  0  0  0  0
  196.3040  174.8250  143.3270 C   0  0  0  0  0  2  0  0  0  0  0  0
  190.7870  175.0720  143.1960 C   0  0  2  0  0  3  0  0  0  0  0  0
  188.7370  176.6880  145.8270 C   0  0  0  0  0  2  0  0  0  0  0  0
  195.0090  174.0180  143.4660 C   0  0  1  0  0  3  0  0  0  0  0  0
  196.7280  174.3230  141.0210 O   0  0  0  0  0  0  0  0  0  0  0  0
  187.7720  176.6140  143.4980 C   0  0  2  0  0  3  0  0  0  0  0  0
  193.1660  175.6380  144.1490 C   0  0  1  0  0  3  0  0  0  0  0  0
  194.7460  172.9260  141.2110 C   0  0  2  0  0  0  0  0  0  0  0  0
  192.3000  175.1850  142.9390 C   0  0  1  0  0  3  0  0  0  0  0  0
  194.5490  176.1900  146.5270 C   0  0  0  0  0  2  0  0  0  0  0  0
  188.5940  174.8300  141.8720 C   0  0  0  0  0  2  0  0  0  0  0  0
  194.8800  174.8160  145.9300 C   0  0  0  0  0  2  0  0  0  0  0  0
  190.1100  174.9500  141.8210 C   0  0  0  0  0  2  0  0  0  0  0  0
  188.8330  176.0510  144.4490 C   0  0  1  0  0  3  0  0  0  0  0  0
  193.0770  176.4690  146.4470 C   0  0  0  0  0  3  0  0  0  0  0  0
  191.0080  176.4760  145.2110 N   0  0  0  0  0  0  0  0  0  0  0  0
  186.5060  176.1900  143.9080 O   0  0  0  0  0  0  0  0  0  0  0  0
  185.6490  177.2530  143.5940 C   0  0  0  0  0  2  0  0  0  0  0  0
  183.4600  179.0390  145.3860 O   0  0  0  0  0  0  0  0  0  0  0  0
  185.2440  177.6300  146.0260 C   0  0  0  0  0  2  0  0  0  0  0  0
  185.6060  178.2790  144.7220 C   0  0  2  0  0  3  0  0  0  0  0  0
  184.0580  178.4330  146.5000 C   0  0  0  0  0  2  0  0  0  0  0  0
  184.5130  179.3020  144.4960 C   0  0  0  0  0  2  0  0  0  0  0  0
  1 26  2  0  0  0  0
  3  7  1  6  0  0  0
  3 16  1  0  0  0  0
  3 19  1  0  0  0  0
  4 23  1  1  0  0  0
  5 11  1  1  0  0  0
  5 15  1  0  0  0  0
  7 19  1  0  0  0  0
  8 12  1  0  0  0  0
  9 25  1  0  0  0  0
  9 27  1  1  0  0  0
 10 17  1  0  0  0  0
 13 24  1  6  0  0  0
 13  9  1  0  0  0  0
 14  2  1  0  0  0  0
 15 12  1  6  0  0  0
 15  4  1  0  0  0  0
 16  8  1  0  0  0  0
 17 28  1  1  0  0  0
 17 25  1  0  0  0  0
 18  4  1  0  0  0  0
 18  1  1  1  0  0  0
 19  6  1  1  0  0  0
 19  5  1  0  0  0  0
 20 11  1  1  0  0  0
 20 13  1  0  0  0  0
 20 18  1  0  0  0  0
 22 10  1  0  0  0  0
 23 21  1  0  0  0  0
 24 22  1  0  0  0  0
 25 14  1  1  0  0  0
 26 21  1  0  0  0  0
 27  1  1  0  0  0  0
 27  2  1  0  0  0  0
 29 28  1  0  0  0  0
 30 33  1  0  0  0  0
 31 33  1  0  0  0  0
 32 29  1  6  0  0  0
 32 31  1  0  0  0  0
 34 32  1  0  0  0  0
 34 30  1  0  0  0  0
M  END
>  <MODEL>
7

>  <REMARK>
 VINA RESULT:      -7.9      2.110      9.474
  Name = 
  3 active torsions:
  status: ('A' for Active; 'I' for Inactive)
    1  A    between atoms: C_17  and  O_28
    2  A    between atoms: O_28  and  C_29
    3  A    between atoms: C_29  and  C_32
                            x       y       z     vdW  Elec       q    Type
                         _______ _______ _______ _____ _____    ______ ____

>  <TORSDO>
F 3

$$$$
=
 OpenBabel11112417543D

 34 41  0  0  1  0  0  0  0  0999 V2000
  191.2440  173.3890  142.4380 C   0  0  0  0  0  0  0  0  0  0  0  0
  189.1780  174.8580  142.5110 C   0  0  0  0  0  2  0  0  0  0  0  0
  197.3970  171.8370  144.7160 C   0  0  1  0  0  3  0  0  0  0  0  0
  193.7380  173.2460  142.1910 C   0  0  2  0  0  3  0  0  0  0  0  0
  195.0340  172.8440  144.3330 C   0  0  1  0  0  3  0  0  0  0  0  0
  197.1530  174.3770  144.7170 C   0  0  0  0  0  1  0  0  0  0  0  0
  196.8370  172.2380  146.0780 C   0  0  0  0  0  2  0  0  0  0  0  0
  196.6830  170.7850  142.8670 C   0  0  0  0  0  2  0  0  0  0  0  0
  190.3720  174.4250  144.5740 C   0  0  1  0  0  3  0  0  0  0  0  0
  189.7330  175.4720  147.3060 C   0  0  0  0  0  2  0  0  0  0  0  0
  194.1610  173.9360  144.7640 N   0  0  0  0  0  2  0  0  0  0  0  0
  195.2960  171.2380  142.4190 C   0  0  0  0  0  2  0  0  0  0  0  0
  191.8340  174.7130  144.9580 C   0  0  2  0  0  3  0  0  0  0  0  0
  188.5120  175.6580  143.6110 C   0  0  0  0  0  2  0  0  0  0  0  0
  195.0420  172.7010  142.7980 C   0  0  1  0  0  3  0  0  0  0  0  0
  196.7240  170.6900  144.2650 O   0  0  0  0  0  0  0  0  0  0  0  0
  188.8030  175.7320  146.1160 C   0  0  2  0  0  3  0  0  0  0  0  0
  192.5290  172.9860  143.1080 C   0  0  1  0  0  3  0  0  0  0  0  0
  196.4580  173.0350  144.8540 C   0  0  2  0  0  0  0  0  0  0  0  0
  192.7580  173.5560  144.5380 C   0  0  1  0  0  3  0  0  0  0  0  0
  192.1320  172.3130  140.4140 C   0  0  0  0  0  2  0  0  0  0  0  0
  191.1480  175.9920  147.0830 C   0  0  0  0  0  2  0  0  0  0  0  0
  193.5240  172.8880  140.7040 C   0  0  0  0  0  2  0  0  0  0  0  0
  191.9960  174.8820  146.4770 C   0  0  0  0  0  2  0  0  0  0  0  0
  189.5120  175.6690  144.7590 C   0  0  1  0  0  3  0  0  0  0  0  0
  191.0710  173.0800  141.1480 C   0  0  0  0  0  3  0  0  0  0  0  0
  190.2520  174.1260  143.1590 N   0  0  0  0  0  0  0  0  0  0  0  0
  188.1970  176.9810  146.2690 O   0  0  0  0  0  0  0  0  0  0  0  0
  186.9280  176.7060  146.7950 C   0  0  0  0  0  2  0  0  0  0  0  0
  184.5020  178.9630  146.3320 O   0  0  0  0  0  0  0  0  0  0  0  0
  186.2490  178.2150  144.9300 C   0  0  0  0  0  2  0  0  0  0  0  0
  185.8280  177.0700  145.8020 C   0  0  2  0  0  3  0  0  0  0  0  0
  185.1370  179.2200  145.1090 C   0  0  0  0  0  2  0  0  0  0  0  0
  184.5900  177.5730  146.5120 C   0  0  0  0  0  2  0  0  0  0  0  0
  1 27  1  0  0  0  0
  2 27  1  0  0  0  0
  2 14  1  0  0  0  0
  3 19  1  0  0  0  0
  3  7  1  1  0  0  0
  4 23  1  6  0  0  0
  4 15  1  0  0  0  0
  4 18  1  0  0  0  0
  5 11  1  6  0  0  0
  5 19  1  0  0  0  0
  8 16  1  0  0  0  0
  9 27  1  6  0  0  0
  9 25  1  0  0  0  0
  9 13  1  0  0  0  0
 12  8  1  0  0  0  0
 13 24  1  1  0  0  0
 15 12  1  1  0  0  0
 15  5  1  0  0  0  0
 16  3  1  0  0  0  0
 17 28  1  1  0  0  0
 17 10  1  0  0  0  0
 18  1  1  6  0  0  0
 18 20  1  0  0  0  0
 19  6  1  6  0  0  0
 19  7  1  0  0  0  0
 20 11  1  6  0  0  0
 20 13  1  0  0  0  0
 21 23  1  0  0  0  0
 21 26  1  0  0  0  0
 22 10  1  0  0  0  0
 24 22  1  0  0  0  0
 25 14  1  6  0  0  0
 25 17  1  0  0  0  0
 26  1  2  0  0  0  0
 28 29  1  0  0  0  0
 30 34  1  0  0  0  0
 31 33  1  0  0  0  0
 31 32  1  0  0  0  0
 32 34  1  0  0  0  0
 32 29  1  1  0  0  0
 33 30  1  0  0  0  0
M  END
>  <MODEL>
8

>  <REMARK>
 VINA RESULT:      -7.9      1.884      8.999
  Name = 
  3 active torsions:
  status: ('A' for Active; 'I' for Inactive)
    1  A    between atoms: C_17  and  O_28
    2  A    between atoms: O_28  and  C_29
    3  A    between atoms: C_29  and  C_32
                            x       y       z     vdW  Elec       q    Type
                         _______ _______ _______ _____ _____    ______ ____

>  <TORSDO>
F 3

$$$$
=
 OpenBabel11112417543D

 34 41  0  0  1  0  0  0  0  0999 V2000
  188.5670  174.0510  140.3450 C   0  0  0  0  0  0  0  0  0  0  0  0
  187.8520  176.3370  141.1800 C   0  0  0  0  0  2  0  0  0  0  0  0
  192.5640  168.6420  140.8190 C   0  0  1  0  0  3  0  0  0  0  0  0
  190.4250  172.5790  139.5220 C   0  0  2  0  0  3  0  0  0  0  0  0
  191.3080  170.8850  141.1900 C   0  0  1  0  0  3  0  0  0  0  0  0
  193.9380  170.7150  141.3960 C   0  0  0  0  0  1  0  0  0  0  0  0
  192.4430  168.8620  142.3240 C   0  0  0  0  0  2  0  0  0  0  0  0
  191.2590  168.8070  139.0020 C   0  0  0  0  0  2  0  0  0  0  0  0
  188.6310  174.7020  142.7880 C   0  0  1  0  0  3  0  0  0  0  0  0
  188.9170  175.0490  145.7500 C   0  0  0  0  0  2  0  0  0  0  0  0
  191.3170  172.0890  142.0200 N   0  0  0  0  0  2  0  0  0  0  0  0
  190.4240  170.0860  138.9780 C   0  0  0  0  0  2  0  0  0  0  0  0
  189.9770  173.9630  142.8860 C   0  0  2  0  0  3  0  0  0  0  0  0
  187.8790  177.0000  142.5410 C   0  0  0  0  0  2  0  0  0  0  0  0
  191.1460  171.2310  139.6970 C   0  0  1  0  0  3  0  0  0  0  0  0
  191.3050  168.2930  140.3050 O   0  0  0  0  0  0  0  0  0  0  0  0
  188.2840  176.1390  144.8770 C   0  0  2  0  0  3  0  0  0  0  0  0
  189.3630  172.8030  140.6140 C   0  0  1  0  0  3  0  0  0  0  0  0
  192.5720  170.0530  141.4070 C   0  0  2  0  0  0  0  0  0  0  0  0
  189.9680  172.6770  142.0420 C   0  0  1  0  0  3  0  0  0  0  0  0
  188.4960  173.3270  137.9970 C   0  0  0  0  0  2  0  0  0  0  0  0
  190.3370  174.6950  145.3270 C   0  0  0  0  0  2  0  0  0  0  0  0
  189.9600  172.8750  138.0800 C   0  0  0  0  0  2  0  0  0  0  0  0
  190.2880  173.5440  144.3320 C   0  0  0  0  0  2  0  0  0  0  0  0
  188.7310  176.0890  143.4130 C   0  0  1  0  0  3  0  0  0  0  0  0
  188.1730  174.3020  139.0920 C   0  0  0  0  0  3  0  0  0  0  0  0
  188.2790  174.9670  141.4050 N   0  0  0  0  0  0  0  0  0  0  0  0
  188.5850  177.3930  145.4150 O   0  0  0  0  0  0  0  0  0  0  0  0
  187.5310  177.6720  146.2930 C   0  0  0  0  0  2  0  0  0  0  0  0
  184.2630  178.1080  146.8660 O   0  0  0  0  0  0  0  0  0  0  0  0
  185.6680  178.8360  145.1120 C   0  0  0  0  0  2  0  0  0  0  0  0
  186.1790  177.5130  145.6020 C   0  0  2  0  0  3  0  0  0  0  0  0
  184.2950  178.9320  145.7320 C   0  0  0  0  0  2  0  0  0  0  0  0
  185.1180  177.0350  146.5700 C   0  0  0  0  0  2  0  0  0  0  0  0
  1 27  1  0  0  0  0
  2 27  1  0  0  0  0
  2 14  1  0  0  0  0
  3 19  1  0  0  0  0
  3  7  1  1  0  0  0
  4 23  1  6  0  0  0
  4 15  1  0  0  0  0
  4 18  1  0  0  0  0
  5 19  1  0  0  0  0
  5 11  1  1  0  0  0
  8 16  1  0  0  0  0
  9 27  1  6  0  0  0
  9 13  1  0  0  0  0
  9 25  1  0  0  0  0
 12  8  1  0  0  0  0
 13 24  1  1  0  0  0
 15 12  1  6  0  0  0
 15  5  1  0  0  0  0
 16  3  1  0  0  0  0
 17 28  1  1  0  0  0
 17 10  1  0  0  0  0
 18  1  1  6  0  0  0
 18 20  1  0  0  0  0
 19  6  1  1  0  0  0
 19  7  1  0  0  0  0
 20 11  1  6  0  0  0
 20 13  1  0  0  0  0
 21 23  1  0  0  0  0
 21 26  1  0  0  0  0
 22 10  1  0  0  0  0
 24 22  1  0  0  0  0
 25 14  1  6  0  0  0
 25 17  1  0  0  0  0
 26  1  2  0  0  0  0
 28 29  1  0  0  0  0
 31 32  1  0  0  0  0
 31 33  1  0  0  0  0
 32 29  1  1  0  0  0
 32 34  1  0  0  0  0
 33 30  1  0  0  0  0
 34 30  1  0  0  0  0
M  END
>  <MODEL>
9

>  <REMARK>
 VINA RESULT:      -7.6      3.536      8.979
  Name = 
  3 active torsions:
  status: ('A' for Active; 'I' for Inactive)
    1  A    between atoms: C_17  and  O_28
    2  A    between atoms: O_28  and  C_29
    3  A    between atoms: C_29  and  C_32
                            x       y       z     vdW  Elec       q    Type
                         _______ _______ _______ _____ _____    ______ ____

>  <TORSDO>
F 3

$$$$
