=
 OpenBabel11112417133D

 37 43  0  0  1  0  0  0  0  0999 V2000
  191.3540  172.7870  143.2850 O   0  0  0  0  0  0  0  0  0  0  0  0
  194.8240  176.1640  145.1050 C   0  0  0  0  0  0  0  0  0  0  0  0
  190.6430  175.4130  145.9220 C   0  0  1  0  0  3  0  0  0  0  0  0
  191.2220  171.7990  142.2910 C   0  0  2  0  0  3  0  0  0  0  0  0
  188.9950  176.3360  142.4360 C   0  0  0  0  0  2  0  0  0  0  0  0
  192.7780  176.6440  146.5190 C   0  0  1  0  0  3  0  0  0  0  0  0
  190.2190  175.2400  144.4620 C   0  0  1  0  0  3  0  0  0  0  0  0
  188.9470  172.6680  141.4810 C   0  0  2  0  0  3  0  0  0  0  0  0
  192.1670  175.3750  145.9130 C   0  0  2  0  0  3  0  0  0  0  0  0
  189.1850  176.2870  143.9630 C   0  0  2  0  0  3  0  0  0  0  0  0
  192.2800  176.8180  147.8810 N   0  0  0  0  0  2  0  0  0  0  0  0
  189.7370  171.4910  142.0740 C   0  0  0  0  0  2  0  0  0  0  0  0
  192.6500  175.0690  144.5500 N   0  0  2  0  0  0  0  0  0  0  0  0
  195.6290  174.8820  145.1940 C   0  0  0  0  0  1  0  0  0  0  0  0
  188.5760  176.6600  146.8240 C   0  0  0  0  0  2  0  0  0  0  0  0
  190.8200  177.0300  147.9100 C   0  0  0  0  0  2  0  0  0  0  0  0
  193.6930  175.9920  144.0760 C   0  0  0  0  0  2  0  0  0  0  0  0
  189.3570  173.9240  142.1230 N   0  0  2  0  0  0  0  0  0  0  0  0
  188.4570  175.0360  141.8230 C   0  0  0  0  0  2  0  0  0  0  0  0
  190.0910  176.6910  146.5960 C   0  0  1  0  0  3  0  0  0  0  0  0
  191.5140  175.2000  143.6430 C   0  0  1  0  0  3  0  0  0  0  0  0
  194.2950  176.5220  146.5030 C   0  0  0  0  0  2  0  0  0  0  0  0
  187.8280  176.1510  144.6840 C   0  0  1  0  0  3  0  0  0  0  0  0
  195.7380  177.2750  144.6330 C   0  0  0  0  0  1  0  0  0  0  0  0
  190.5730  174.2530  141.6080 O   0  0  0  0  0  0  0  0  0  0  0  0
  187.4680  172.3710  141.6990 C   0  0  0  0  0  1  0  0  0  0  0  0
  191.5190  174.0360  142.6370 C   0  0  2  0  0  3  0  0  0  0  0  0
  187.9170  175.6990  146.0250 O   0  0  0  0  0  0  0  0  0  0  0  0
  187.2340  178.2830  143.6320 C   0  0  0  0  0  3  0  0  0  0  0  0
  186.9110  177.3300  144.5130 C   0  0  0  0  0  0  0  0  0  0  0  0
  185.5790  177.3840  145.2220 C   0  0  0  0  0  2  0  0  0  0  0  0
  183.7280  178.8850  145.9650 C   0  0  0  0  0  1  0  0  0  0  0  0
  185.3600  179.6990  144.2940 C   0  0  0  0  0  3  0  0  0  0  0  0
  185.1700  178.8310  145.5080 C   0  0  2  0  0  3  0  0  0  0  0  0
  186.3590  179.4560  143.4400 C   0  0  0  0  0  3  0  0  0  0  0  0
  192.4820  170.7130  144.0630 N   0  0  0  0  0  1  0  0  0  0  0  0
  191.9370  170.5360  142.7280 C   0  0  0  0  0  2  0  0  0  0  0  0
  2 14  1  0  0  0  0
  2 22  1  0  0  0  0
  3 20  1  0  0  0  0
  4 37  1  0  0  0  0
  4  1  1  0  0  0  0
  5 10  1  0  0  0  0
  6 11  1  0  0  0  0
  7  3  1  0  0  0  0
  8 26  1  0  0  0  0
  8 12  1  0  0  0  0
  8 18  1  0  0  0  0
  9  3  1  0  0  0  0
  9  6  1  0  0  0  0
 10  7  1  0  0  0  0
 10 23  1  0  0  0  0
 11 16  1  0  0  0  0
 12  4  1  0  0  0  0
 13  9  1  0  0  0  0
 17 13  1  0  0  0  0
 17  2  1  0  0  0  0
 19 18  1  0  0  0  0
 19  5  1  0  0  0  0
 20 15  1  0  0  0  0
 20 16  1  0  0  0  0
 21  7  1  0  0  0  0
 21 13  1  0  0  0  0
 22  6  1  0  0  0  0
 23 28  1  0  0  0  0
 24  2  1  0  0  0  0
 25 18  1  0  0  0  0
 25 27  1  0  0  0  0
 27  1  1  0  0  0  0
 27 21  1  0  0  0  0
 28 15  1  0  0  0  0
 29 30  2  0  0  0  0
 30 23  1  0  0  0  0
 30 31  1  0  0  0  0
 31 34  1  0  0  0  0
 33 34  1  0  0  0  0
 34 32  1  0  0  0  0
 35 29  1  0  0  0  0
 35 33  2  0  0  0  0
 37 36  1  0  0  0  0
M  END
>  <MODEL>
1

>  <REMARK>
 VINA RESULT:      -9.0      0.000      0.000
  Name = 
  2 active torsions:
  status: ('A' for Active; 'I' for Inactive)
    1  A    between atoms: C_4  and  C_37
    2  A    between atoms: C_23  and  C_30
                            x       y       z     vdW  Elec       q    Type
                         _______ _______ _______ _____ _____    ______ ____

>  <TORSDO>
F 2

$$$$
=
 OpenBabel11112417133D

 37 43  0  0  1  0  0  0  0  0999 V2000
  194.2650  173.9590  143.6700 O   0  0  0  0  0  0  0  0  0  0  0  0
  191.4360  170.2640  141.4110 C   0  0  0  0  0  0  0  0  0  0  0  0
  190.8520  174.4920  142.1130 C   0  0  1  0  0  3  0  0  0  0  0  0
  195.4520  174.1140  144.4090 C   0  0  2  0  0  3  0  0  0  0  0  0
  190.7040  174.6060  146.0740 C   0  0  0  0  0  2  0  0  0  0  0  0
  190.0530  172.3490  141.0180 C   0  0  1  0  0  3  0  0  0  0  0  0
  191.3680  174.4920  143.5530 C   0  0  1  0  0  3  0  0  0  0  0  0
  194.3580  175.6070  146.1870 C   0  0  2  0  0  3  0  0  0  0  0  0
  191.2600  173.1430  141.5330 C   0  0  2  0  0  3  0  0  0  0  0  0
  190.3130  174.9100  144.6160 C   0  0  2  0  0  3  0  0  0  0  0  0
  189.3430  173.1420  140.0170 N   0  0  0  0  0  2  0  0  0  0  0  0
  195.4430  175.4780  145.1060 C   0  0  0  0  0  2  0  0  0  0  0  0
  192.0880  172.4080  142.5120 N   0  0  2  0  0  0  0  0  0  0  0  0
  192.7800  170.0070  140.7560 C   0  0  0  0  0  1  0  0  0  0  0  0
  188.9220  176.1830  142.3490 C   0  0  0  0  0  2  0  0  0  0  0  0
  188.7850  174.3810  140.5920 C   0  0  0  0  0  2  0  0  0  0  0  0
  191.6430  171.0230  142.7330 C   0  0  0  0  0  2  0  0  0  0  0  0
  193.1020  175.0070  145.7150 N   0  0  2  0  0  0  0  0  0  0  0  0
  191.9580  175.3430  146.5590 C   0  0  0  0  0  2  0  0  0  0  0  0
  189.3330  174.7530  141.9830 C   0  0  1  0  0  3  0  0  0  0  0  0
  191.9770  173.1060  143.7890 C   0  0  1  0  0  3  0  0  0  0  0  0
  190.5390  171.0320  140.4290 C   0  0  0  0  0  2  0  0  0  0  0  0
  189.8810  176.3830  144.4550 C   0  0  1  0  0  3  0  0  0  0  0  0
  190.7870  168.9310  141.7190 C   0  0  0  0  0  1  0  0  0  0  0  0
  193.2590  173.6570  145.7830 O   0  0  0  0  0  0  0  0  0  0  0  0
  194.2020  177.0910  146.4930 C   0  0  0  0  0  1  0  0  0  0  0  0
  193.3630  173.1950  144.4510 C   0  0  2  0  0  3  0  0  0  0  0  0
  189.8950  176.8580  143.1200 O   0  0  0  0  0  0  0  0  0  0  0  0
  188.2700  176.0190  146.2650 C   0  0  0  0  0  3  0  0  0  0  0  0
  188.6320  176.7500  145.2050 C   0  0  0  0  0  0  0  0  0  0  0  0
  187.8590  178.0000  144.8560 C   0  0  0  0  0  2  0  0  0  0  0  0
  185.6590  179.1600  145.0750 C   0  0  0  0  0  1  0  0  0  0  0  0
  186.1670  177.2290  146.5340 C   0  0  0  0  0  3  0  0  0  0  0  0
  186.3700  177.8270  145.1680 C   0  0  2  0  0  3  0  0  0  0  0  0
  187.0470  176.3480  147.0220 C   0  0  0  0  0  3  0  0  0  0  0  0
  197.4380  175.2490  143.5860 N   0  0  0  0  0  1  0  0  0  0  0  0
  196.6470  174.0350  143.4800 C   0  0  0  0  0  2  0  0  0  0  0  0
  1  4  1  0  0  0  0
  1 27  1  0  0  0  0
  2 24  1  0  0  0  0
  2 17  1  0  0  0  0
  3  7  1  0  0  0  0
  4 12  1  0  0  0  0
  5 19  1  0  0  0  0
  6  9  1  0  0  0  0
  7 21  1  0  0  0  0
  7 10  1  0  0  0  0
  8 26  1  0  0  0  0
  9  3  1  0  0  0  0
  9 13  1  0  0  0  0
 10  5  1  0  0  0  0
 11 16  1  0  0  0  0
 11  6  1  0  0  0  0
 12  8  1  0  0  0  0
 13 17  1  0  0  0  0
 13 21  1  0  0  0  0
 14  2  1  0  0  0  0
 15 28  1  0  0  0  0
 16 20  1  0  0  0  0
 18 25  1  0  0  0  0
 18  8  1  0  0  0  0
 18 19  1  0  0  0  0
 20  3  1  0  0  0  0
 20 15  1  0  0  0  0
 21 27  1  0  0  0  0
 22  6  1  0  0  0  0
 22  2  1  0  0  0  0
 23 10  1  0  0  0  0
 23 30  1  0  0  0  0
 27 25  1  0  0  0  0
 28 23  1  0  0  0  0
 29 35  1  0  0  0  0
 30 29  2  0  0  0  0
 31 34  1  0  0  0  0
 31 30  1  0  0  0  0
 32 34  1  0  0  0  0
 33 35  2  0  0  0  0
 34 33  1  0  0  0  0
 37 36  1  0  0  0  0
 37  4  1  0  0  0  0
M  END
>  <MODEL>
2

>  <REMARK>
 VINA RESULT:      -8.8      1.792      5.607
  Name = 
  2 active torsions:
  status: ('A' for Active; 'I' for Inactive)
    1  A    between atoms: C_4  and  C_37
    2  A    between atoms: C_23  and  C_30
                            x       y       z     vdW  Elec       q    Type
                         _______ _______ _______ _____ _____    ______ ____

>  <TORSDO>
F 2

$$$$
=
 OpenBabel11112417133D

 37 43  0  0  1  0  0  0  0  0999 V2000
  190.7270  173.3000  141.7050 O   0  0  0  0  0  0  0  0  0  0  0  0
  189.3840  175.5430  146.1690 C   0  0  0  0  0  0  0  0  0  0  0  0
  193.1560  174.3560  144.4140 C   0  0  1  0  0  3  0  0  0  0  0  0
  190.1400  172.7020  140.5740 C   0  0  2  0  0  3  0  0  0  0  0  0
  192.7340  170.4170  144.2630 C   0  0  0  0  0  2  0  0  0  0  0  0
  191.9150  175.5510  146.2750 C   0  0  1  0  0  3  0  0  0  0  0  0
  192.6760  172.9990  143.8960 C   0  0  1  0  0  3  0  0  0  0  0  0
  191.6960  170.6620  140.6250 C   0  0  2  0  0  3  0  0  0  0  0  0
  191.8930  175.1150  144.8050 C   0  0  2  0  0  3  0  0  0  0  0  0
  193.4100  171.7770  144.5160 C   0  0  2  0  0  3  0  0  0  0  0  0
  193.0990  176.3710  146.5190 N   0  0  0  0  0  2  0  0  0  0  0  0
  191.1950  171.8770  139.8300 C   0  0  0  0  0  2  0  0  0  0  0  0
  190.7010  174.3250  144.4320 N   0  0  2  0  0  0  0  0  0  0  0  0
  188.5780  176.3830  145.1960 C   0  0  0  0  0  1  0  0  0  0  0  0
  195.5390  173.7140  145.1570 C   0  0  0  0  0  2  0  0  0  0  0  0
  194.3470  175.6110  146.3130 C   0  0  0  0  0  2  0  0  0  0  0  0
  189.7230  174.1890  145.5220 C   0  0  0  0  0  2  0  0  0  0  0  0
  191.9020  171.0310  142.0330 N   0  0  2  0  0  0  0  0  0  0  0  0
  192.6440  170.0210  142.7830 C   0  0  0  0  0  2  0  0  0  0  0  0
  194.1730  174.2690  145.5760 C   0  0  1  0  0  3  0  0  0  0  0  0
  191.1570  172.9800  144.0900 C   0  0  1  0  0  3  0  0  0  0  0  0
  190.6410  176.3240  146.5830 C   0  0  0  0  0  2  0  0  0  0  0  0
  194.9010  171.7350  144.1210 C   0  0  1  0  0  3  0  0  0  0  0  0
  188.5420  175.2910  147.4010 C   0  0  0  0  0  1  0  0  0  0  0  0
  190.6680  171.1170  142.6030 O   0  0  0  0  0  0  0  0  0  0  0  0
  192.9860  170.1930  139.9640 C   0  0  0  0  0  1  0  0  0  0  0  0
  190.4240  172.4910  142.8290 C   0  0  2  0  0  3  0  0  0  0  0  0
  195.4970  173.0080  143.9340 O   0  0  0  0  0  0  0  0  0  0  0  0
  197.0090  170.5790  144.5970 C   0  0  0  0  0  3  0  0  0  0  0  0
  195.7380  170.8020  144.9510 C   0  0  0  0  0  0  0  0  0  0  0  0
  195.2060  170.2220  146.2390 C   0  0  0  0  0  2  0  0  0  0  0  0
  195.4990  168.4090  147.9290 C   0  0  0  0  0  1  0  0  0  0  0  0
  197.3170  168.8790  146.3210 C   0  0  0  0  0  3  0  0  0  0  0  0
  195.8260  168.8510  146.5190 C   0  0  2  0  0  3  0  0  0  0  0  0
  197.8590  169.6660  145.3850 C   0  0  0  0  0  3  0  0  0  0  0  0
  188.5660  174.5380  140.3270 N   0  0  0  0  0  1  0  0  0  0  0  0
  189.6020  173.7770  139.6500 C   0  0  0  0  0  2  0  0  0  0  0  0
  1 27  1  0  0  0  0
  2 22  1  0  0  0  0
  2 24  1  0  0  0  0
  3  9  1  0  0  0  0
  3 20  1  0  0  0  0
  4  1  1  0  0  0  0
  5 10  1  0  0  0  0
  6 11  1  0  0  0  0
  6 22  1  0  0  0  0
  7 21  1  0  0  0  0
  7  3  1  0  0  0  0
  7 10  1  0  0  0  0
  8 18  1  0  0  0  0
  9  6  1  0  0  0  0
 12  4  1  0  0  0  0
 12  8  1  0  0  0  0
 13  9  1  0  0  0  0
 13 17  1  0  0  0  0
 14  2  1  0  0  0  0
 15 20  1  0  0  0  0
 16 11  1  0  0  0  0
 17  2  1  0  0  0  0
 18 25  1  0  0  0  0
 18 19  1  0  0  0  0
 19  5  1  0  0  0  0
 20 16  1  0  0  0  0
 21 13  1  0  0  0  0
 23 10  1  0  0  0  0
 23 30  1  0  0  0  0
 25 27  1  0  0  0  0
 26  8  1  0  0  0  0
 27 21  1  0  0  0  0
 28 23  1  0  0  0  0
 28 15  1  0  0  0  0
 29 30  2  0  0  0  0
 29 35  1  0  0  0  0
 30 31  1  0  0  0  0
 31 34  1  0  0  0  0
 33 34  1  0  0  0  0
 34 32  1  0  0  0  0
 35 33  2  0  0  0  0
 37 36  1  0  0  0  0
 37  4  1  0  0  0  0
M  END
>  <MODEL>
3

>  <REMARK>
 VINA RESULT:      -8.2      2.952      7.605
  Name = 
  2 active torsions:
  status: ('A' for Active; 'I' for Inactive)
    1  A    between atoms: C_4  and  C_37
    2  A    between atoms: C_23  and  C_30
                            x       y       z     vdW  Elec       q    Type
                         _______ _______ _______ _____ _____    ______ ____

>  <TORSDO>
F 2

$$$$
=
 OpenBabel11112417133D

 37 43  0  0  1  0  0  0  0  0999 V2000
  191.3630  176.1330  145.9750 O   0  0  0  0  0  0  0  0  0  0  0  0
  187.1690  177.3810  143.2160 C   0  0  0  0  0  0  0  0  0  0  0  0
  190.0490  174.1600  143.0200 C   0  0  1  0  0  3  0  0  0  0  0  0
  192.1730  176.6460  147.0060 C   0  0  2  0  0  3  0  0  0  0  0  0
  193.3650  176.1390  142.1180 C   0  0  0  0  0  2  0  0  0  0  0  0
  187.8750  175.1720  142.1970 C   0  0  1  0  0  3  0  0  0  0  0  0
  191.2860  175.0320  143.2410 C   0  0  1  0  0  3  0  0  0  0  0  0
  194.3660  176.1370  145.7740 C   0  0  2  0  0  3  0  0  0  0  0  0
  188.8580  175.0440  143.3670 C   0  0  2  0  0  3  0  0  0  0  0  0
  192.2940  175.0340  142.0590 C   0  0  2  0  0  3  0  0  0  0  0  0
  187.4230  173.8420  141.7960 N   0  0  0  0  0  2  0  0  0  0  0  0
  193.5070  175.8940  147.0250 C   0  0  0  0  0  2  0  0  0  0  0  0
  189.3350  176.3400  143.8940 N   0  0  2  0  0  0  0  0  0  0  0  0
  186.6140  177.5240  144.6200 C   0  0  0  0  0  1  0  0  0  0  0  0
  191.0020  172.4950  141.2980 C   0  0  0  0  0  2  0  0  0  0  0  0
  188.5350  173.0140  141.2900 C   0  0  0  0  0  2  0  0  0  0  0  0
  188.7020  177.5030  143.2520 C   0  0  0  0  0  2  0  0  0  0  0  0
  193.5220  176.1170  144.5720 N   0  0  2  0  0  0  0  0  0  0  0  0
  194.2960  176.0520  143.3340 C   0  0  0  0  0  2  0  0  0  0  0  0
  189.9420  173.5610  141.5980 C   0  0  1  0  0  3  0  0  0  0  0  0
  190.7660  176.4220  143.6220 C   0  0  1  0  0  3  0  0  0  0  0  0
  186.7010  176.0420  142.6260 C   0  0  0  0  0  2  0  0  0  0  0  0
  192.9410  173.6500  141.8470 C   0  0  1  0  0  3  0  0  0  0  0  0
  186.6170  178.5050  142.3640 C   0  0  0  0  0  1  0  0  0  0  0  0
  192.8410  177.2960  144.5480 O   0  0  0  0  0  0  0  0  0  0  0  0
  195.4310  175.0470  145.7420 C   0  0  0  0  0  1  0  0  0  0  0  0
  191.4950  176.9890  144.8530 C   0  0  2  0  0  3  0  0  0  0  0  0
  192.1070  172.5530  142.1770 O   0  0  0  0  0  0  0  0  0  0  0  0
  194.6030  172.5600  140.4110 C   0  0  0  0  0  3  0  0  0  0  0  0
  193.6450  173.4870  140.5280 C   0  0  0  0  0  0  0  0  0  0  0  0
  193.1960  174.2600  139.3110 C   0  0  0  0  0  2  0  0  0  0  0  0
  193.8670  175.0460  137.0380 C   0  0  0  0  0  1  0  0  0  0  0  0
  195.1820  173.2710  138.1500 C   0  0  0  0  0  3  0  0  0  0  0  0
  194.3720  174.5200  138.3650 C   0  0  2  0  0  3  0  0  0  0  0  0
  195.3170  172.3760  139.1340 C   0  0  0  0  0  3  0  0  0  0  0  0
  191.5370  177.7010  149.1010 N   0  0  0  0  0  1  0  0  0  0  0  0
  191.4770  176.4650  148.3400 C   0  0  0  0  0  2  0  0  0  0  0  0
  1  4  1  0  0  0  0
  2 17  1  0  0  0  0
  2 14  1  0  0  0  0
  3  7  1  0  0  0  0
  3  9  1  0  0  0  0
  4 12  1  0  0  0  0
  4 37  1  0  0  0  0
  5 19  1  0  0  0  0
  6 22  1  0  0  0  0
  6  9  1  0  0  0  0
  7 21  1  0  0  0  0
  8 12  1  0  0  0  0
  9 13  1  0  0  0  0
 10  5  1  0  0  0  0
 10  7  1  0  0  0  0
 11  6  1  0  0  0  0
 15 20  1  0  0  0  0
 15 28  1  0  0  0  0
 16 20  1  0  0  0  0
 16 11  1  0  0  0  0
 17 13  1  0  0  0  0
 18  8  1  0  0  0  0
 19 18  1  0  0  0  0
 20  3  1  0  0  0  0
 21 13  1  0  0  0  0
 21 27  1  0  0  0  0
 22  2  1  0  0  0  0
 23 10  1  0  0  0  0
 23 28  1  0  0  0  0
 24  2  1  0  0  0  0
 25 18  1  0  0  0  0
 25 27  1  0  0  0  0
 26  8  1  0  0  0  0
 27  1  1  0  0  0  0
 29 30  2  0  0  0  0
 30 23  1  0  0  0  0
 31 30  1  0  0  0  0
 32 34  1  0  0  0  0
 33 34  1  0  0  0  0
 33 35  2  0  0  0  0
 34 31  1  0  0  0  0
 35 29  1  0  0  0  0
 37 36  1  0  0  0  0
M  END
>  <MODEL>
4

>  <REMARK>
 VINA RESULT:      -8.2      2.637      7.780
  Name = 
  2 active torsions:
  status: ('A' for Active; 'I' for Inactive)
    1  A    between atoms: C_4  and  C_37
    2  A    between atoms: C_23  and  C_30
                            x       y       z     vdW  Elec       q    Type
                         _______ _______ _______ _____ _____    ______ ____

>  <TORSDO>
F 2

$$$$
=
 OpenBabel11112417133D

 37 43  0  0  1  0  0  0  0  0999 V2000
  188.9960  174.3640  139.7880 O   0  0  0  0  0  0  0  0  0  0  0  0
  187.0820  176.9200  143.8580 C   0  0  0  0  0  0  0  0  0  0  0  0
  191.0830  175.9940  142.4970 C   0  0  1  0  0  3  0  0  0  0  0  0
  188.5650  173.5790  138.7020 C   0  0  2  0  0  3  0  0  0  0  0  0
  191.1060  172.0400  142.7930 C   0  0  0  0  0  2  0  0  0  0  0  0
  189.5810  177.2360  144.1200 C   0  0  1  0  0  3  0  0  0  0  0  0
  190.7940  174.5410  142.1170 C   0  0  1  0  0  3  0  0  0  0  0  0
  190.3260  171.7530  139.0950 C   0  0  2  0  0  3  0  0  0  0  0  0
  189.7180  176.6380  142.7150 C   0  0  2  0  0  3  0  0  0  0  0  0
  191.6070  173.4900  142.9230 C   0  0  2  0  0  3  0  0  0  0  0  0
  190.6470  178.2110  144.3380 N   0  0  0  0  0  2  0  0  0  0  0  0
  189.7570  172.8050  138.1290 C   0  0  0  0  0  2  0  0  0  0  0  0
  188.6520  175.6780  142.3650 N   0  0  2  0  0  0  0  0  0  0  0  0
  186.2650  177.5450  142.7430 C   0  0  0  0  0  1  0  0  0  0  0  0
  193.4580  175.7230  143.4600 C   0  0  0  0  0  2  0  0  0  0  0  0
  191.9820  177.5840  144.3030 C   0  0  0  0  0  2  0  0  0  0  0  0
  187.6140  175.5510  143.4010 C   0  0  0  0  0  2  0  0  0  0  0  0
  190.3820  172.2990  140.4580 N   0  0  2  0  0  0  0  0  0  0  0  0
  191.1720  171.4730  141.3690 C   0  0  0  0  0  2  0  0  0  0  0  0
  192.0110  176.1570  143.7230 C   0  0  1  0  0  3  0  0  0  0  0  0
  189.2750  174.3660  142.2160 C   0  0  1  0  0  3  0  0  0  0  0  0
  188.2100  177.8840  144.2530 C   0  0  0  0  0  2  0  0  0  0  0  0
  193.1200  173.5800  142.6310 C   0  0  1  0  0  3  0  0  0  0  0  0
  186.1800  176.7100  145.0560 C   0  0  0  0  0  1  0  0  0  0  0  0
  189.1070  172.3040  140.9350 O   0  0  0  0  0  0  0  0  0  0  0  0
  191.7060  171.3680  138.5770 C   0  0  0  0  0  1  0  0  0  0  0  0
  188.6980  173.6560  140.9790 C   0  0  2  0  0  3  0  0  0  0  0  0
  193.5860  174.8840  142.3300 O   0  0  0  0  0  0  0  0  0  0  0  0
  193.4530  172.4220  144.7660 C   0  0  0  0  0  3  0  0  0  0  0  0
  193.9890  172.8500  143.6170 C   0  0  0  0  0  0  0  0  0  0  0  0
  195.4120  172.4840  143.2720 C   0  0  0  0  0  2  0  0  0  0  0  0
  197.6260  171.8110  144.2100 C   0  0  0  0  0  1  0  0  0  0  0  0
  195.6070  171.6730  145.6330 C   0  0  0  0  0  3  0  0  0  0  0  0
  196.2850  172.4380  144.5290 C   0  0  2  0  0  3  0  0  0  0  0  0
  194.2760  171.7060  145.7580 C   0  0  0  0  0  3  0  0  0  0  0  0
  188.9040  174.5580  136.5030 N   0  0  0  0  0  1  0  0  0  0  0  0
  187.9840  174.4730  137.6240 C   0  0  0  0  0  2  0  0  0  0  0  0
  1 27  1  0  0  0  0
  2 22  1  0  0  0  0
  2 24  1  0  0  0  0
  3  9  1  0  0  0  0
  3 20  1  0  0  0  0
  4  1  1  0  0  0  0
  5 10  1  0  0  0  0
  6 22  1  0  0  0  0
  6 11  1  0  0  0  0
  7 21  1  0  0  0  0
  7  3  1  0  0  0  0
  7 10  1  0  0  0  0
  8 18  1  0  0  0  0
  9  6  1  0  0  0  0
 12  4  1  0  0  0  0
 12  8  1  0  0  0  0
 13  9  1  0  0  0  0
 13 17  1  0  0  0  0
 14  2  1  0  0  0  0
 15 20  1  0  0  0  0
 16 11  1  0  0  0  0
 17  2  1  0  0  0  0
 18 25  1  0  0  0  0
 18 19  1  0  0  0  0
 19  5  1  0  0  0  0
 20 16  1  0  0  0  0
 21 13  1  0  0  0  0
 23 10  1  0  0  0  0
 23 30  1  0  0  0  0
 25 27  1  0  0  0  0
 26  8  1  0  0  0  0
 27 21  1  0  0  0  0
 28 23  1  0  0  0  0
 28 15  1  0  0  0  0
 29 35  1  0  0  0  0
 30 29  2  0  0  0  0
 31 30  1  0  0  0  0
 31 34  1  0  0  0  0
 32 34  1  0  0  0  0
 33 35  2  0  0  0  0
 34 33  1  0  0  0  0
 36 37  1  0  0  0  0
 37  4  1  0  0  0  0
M  END
>  <MODEL>
5

>  <REMARK>
 VINA RESULT:      -7.9      2.568      7.139
  Name = 
  2 active torsions:
  status: ('A' for Active; 'I' for Inactive)
    1  A    between atoms: C_4  and  C_37
    2  A    between atoms: C_23  and  C_30
                            x       y       z     vdW  Elec       q    Type
                         _______ _______ _______ _____ _____    ______ ____

>  <TORSDO>
F 2

$$$$
=
 OpenBabel11112417133D

 37 43  0  0  1  0  0  0  0  0999 V2000
  188.6750  175.2760  143.1560 O   0  0  0  0  0  0  0  0  0  0  0  0
  189.5340  172.6450  138.7850 C   0  0  0  0  0  0  0  0  0  0  0  0
  191.0580  172.3490  142.8230 C   0  0  1  0  0  3  0  0  0  0  0  0
  187.9910  176.4170  143.6160 C   0  0  2  0  0  3  0  0  0  0  0  0
  192.9890  175.7940  143.1760 C   0  0  0  0  0  2  0  0  0  0  0  0
  190.9130  171.3730  140.4870 C   0  0  1  0  0  3  0  0  0  0  0  0
  191.2530  173.8510  143.0350 C   0  0  1  0  0  3  0  0  0  0  0  0
  189.9970  177.2960  144.9540 C   0  0  2  0  0  3  0  0  0  0  0  0
  190.2160  172.2200  141.5590 C   0  0  2  0  0  3  0  0  0  0  0  0
  192.7250  174.2810  143.2860 C   0  0  2  0  0  3  0  0  0  0  0  0
  191.2160  170.0530  141.0350 N   0  0  0  0  0  2  0  0  0  0  0  0
  188.5370  176.8170  144.9900 C   0  0  0  0  0  2  0  0  0  0  0  0
  189.8100  173.5620  141.0910 N   0  0  2  0  0  0  0  0  0  0  0  0
  188.0170  172.6760  138.7830 C   0  0  0  0  0  1  0  0  0  0  0  0
  193.1360  171.4670  144.0650 C   0  0  0  0  0  2  0  0  0  0  0  0
  192.1680  170.1300  142.1600 C   0  0  0  0  0  2  0  0  0  0  0  0
  190.0710  173.7890  139.6610 C   0  0  0  0  0  2  0  0  0  0  0  0
  190.7880  176.4340  144.0640 N   0  0  2  0  0  0  0  0  0  0  0  0
  192.2280  176.6450  144.2000 C   0  0  0  0  0  2  0  0  0  0  0  0
  192.3750  171.5440  142.7370 C   0  0  1  0  0  3  0  0  0  0  0  0
  190.5960  174.5410  141.8350 C   0  0  1  0  0  3  0  0  0  0  0  0
  190.0050  171.2650  139.2700 C   0  0  0  0  0  2  0  0  0  0  0  0
  193.2740  173.7190  144.6140 C   0  0  1  0  0  3  0  0  0  0  0  0
  190.0220  172.8530  137.3680 C   0  0  0  0  0  1  0  0  0  0  0  0
  190.4590  176.7760  142.7880 O   0  0  0  0  0  0  0  0  0  0  0  0
  190.5160  177.2650  146.3860 C   0  0  0  0  0  1  0  0  0  0  0  0
  189.6920  175.7080  142.2690 C   0  0  2  0  0  3  0  0  0  0  0  0
  192.7400  172.4610  144.9870 O   0  0  0  0  0  0  0  0  0  0  0  0
  195.3170  173.7150  145.9690 C   0  0  0  0  0  3  0  0  0  0  0  0
  194.7690  173.7950  144.7510 C   0  0  0  0  0  0  0  0  0  0  0  0
  195.6580  173.8300  143.5300 C   0  0  0  0  0  2  0  0  0  0  0  0
  197.9400  174.3920  142.6900 C   0  0  0  0  0  1  0  0  0  0  0  0
  197.5610  174.1640  145.1230 C   0  0  0  0  0  3  0  0  0  0  0  0
  196.9520  174.5970  143.8180 C   0  0  2  0  0  3  0  0  0  0  0  0
  196.7800  173.7900  146.1420 C   0  0  0  0  0  3  0  0  0  0  0  0
  185.7690  176.8620  142.7370 N   0  0  0  0  0  1  0  0  0  0  0  0
  186.5110  176.1120  143.7350 C   0  0  0  0  0  2  0  0  0  0  0  0
  1  4  1  0  0  0  0
  2 22  1  0  0  0  0
  2 17  1  0  0  0  0
  3  7  1  0  0  0  0
  4 37  1  0  0  0  0
  4 12  1  0  0  0  0
  5 10  1  0  0  0  0
  5 19  1  0  0  0  0
  6 11  1  0  0  0  0
  6  9  1  0  0  0  0
  7 10  1  0  0  0  0
  8 12  1  0  0  0  0
  8 26  1  0  0  0  0
  9  3  1  0  0  0  0
 10 23  1  0  0  0  0
 11 16  1  0  0  0  0
 13  9  1  0  0  0  0
 13 21  1  0  0  0  0
 14  2  1  0  0  0  0
 15 28  1  0  0  0  0
 16 20  1  0  0  0  0
 17 13  1  0  0  0  0
 18 19  1  0  0  0  0
 18  8  1  0  0  0  0
 20  3  1  0  0  0  0
 20 15  1  0  0  0  0
 21 27  1  0  0  0  0
 21  7  1  0  0  0  0
 22  6  1  0  0  0  0
 23 30  1  0  0  0  0
 23 28  1  0  0  0  0
 24  2  1  0  0  0  0
 25 18  1  0  0  0  0
 27 25  1  0  0  0  0
 27  1  1  0  0  0  0
 29 35  1  0  0  0  0
 30 29  2  0  0  0  0
 31 34  1  0  0  0  0
 31 30  1  0  0  0  0
 32 34  1  0  0  0  0
 33 35  2  0  0  0  0
 34 33  1  0  0  0  0
 36 37  1  0  0  0  0
M  END
>  <MODEL>
6

>  <REMARK>
 VINA RESULT:      -7.7      2.312      7.940
  Name = 
  2 active torsions:
  status: ('A' for Active; 'I' for Inactive)
    1  A    between atoms: C_4  and  C_37
    2  A    between atoms: C_23  and  C_30
                            x       y       z     vdW  Elec       q    Type
                         _______ _______ _______ _____ _____    ______ ____

>  <TORSDO>
F 2

$$$$
=
 OpenBabel11112417133D

 37 43  0  0  1  0  0  0  0  0999 V2000
  189.2350  175.0520  143.2310 O   0  0  0  0  0  0  0  0  0  0  0  0
  189.6430  173.0050  138.4980 C   0  0  0  0  0  0  0  0  0  0  0  0
  190.7830  171.6820  142.4560 C   0  0  1  0  0  3  0  0  0  0  0  0
  188.8470  176.2480  143.8640 C   0  0  2  0  0  3  0  0  0  0  0  0
  193.5240  174.3820  143.4150 C   0  0  0  0  0  2  0  0  0  0  0  0
  190.5330  171.1590  139.9870 C   0  0  1  0  0  3  0  0  0  0  0  0
  191.3520  173.0240  142.9200 C   0  0  1  0  0  3  0  0  0  0  0  0
  190.9260  176.3340  145.3660 C   0  0  2  0  0  3  0  0  0  0  0  0
  190.0180  171.9840  141.1730 C   0  0  2  0  0  3  0  0  0  0  0  0
  192.8670  172.9970  143.2650 C   0  0  2  0  0  3  0  0  0  0  0  0
  190.4450  169.7370  140.3110 N   0  0  0  0  0  2  0  0  0  0  0  0
  189.3930  176.2660  145.2950 C   0  0  0  0  0  2  0  0  0  0  0  0
  190.0060  173.4410  140.9300 N   0  0  2  0  0  0  0  0  0  0  0  0
  188.1910  173.4420  138.4730 C   0  0  0  0  0  1  0  0  0  0  0  0
  192.4760  170.0900  143.5700 C   0  0  0  0  0  2  0  0  0  0  0  0
  191.3130  169.3780  141.4500 C   0  0  0  0  0  2  0  0  0  0  0  0
  190.4070  173.8110  139.5630 C   0  0  0  0  0  2  0  0  0  0  0  0
  191.5170  175.4420  144.3590 N   0  0  2  0  0  0  0  0  0  0  0  0
  192.9500  175.2340  144.5540 C   0  0  0  0  0  2  0  0  0  0  0  0
  191.8460  170.5760  142.2600 C   0  0  1  0  0  3  0  0  0  0  0  0
  190.9750  174.0440  141.8410 C   0  0  1  0  0  3  0  0  0  0  0  0
  189.7060  171.4910  138.7530 C   0  0  0  0  0  2  0  0  0  0  0  0
  193.1660  172.1080  144.4900 C   0  0  1  0  0  3  0  0  0  0  0  0
  190.2560  173.2940  137.1440 C   0  0  0  0  0  1  0  0  0  0  0  0
  191.3690  176.0560  143.1520 O   0  0  0  0  0  0  0  0  0  0  0  0
  191.3290  175.9420  146.7820 C   0  0  0  0  0  1  0  0  0  0  0  0
  190.3830  175.3280  142.4480 C   0  0  2  0  0  3  0  0  0  0  0  0
  192.2980  170.9970  144.6380 O   0  0  0  0  0  0  0  0  0  0  0  0
  195.0550  171.3800  145.8710 C   0  0  0  0  0  3  0  0  0  0  0  0
  194.6170  171.7570  144.6650 C   0  0  0  0  0  0  0  0  0  0  0  0
  195.5490  171.7010  143.4770 C   0  0  0  0  0  2  0  0  0  0  0  0
  197.9410  171.7220  142.7640 C   0  0  0  0  0  1  0  0  0  0  0  0
  197.3810  171.3030  145.1370 C   0  0  0  0  0  3  0  0  0  0  0  0
  196.9820  172.0450  143.8900 C   0  0  2  0  0  3  0  0  0  0  0  0
  196.4740  171.0320  146.0800 C   0  0  0  0  0  3  0  0  0  0  0  0
  186.7690  175.6780  142.7400 N   0  0  0  0  0  1  0  0  0  0  0  0
  187.3340  176.3370  143.9040 C   0  0  0  0  0  2  0  0  0  0  0  0
  1  4  1  0  0  0  0
  2 22  1  0  0  0  0
  2 17  1  0  0  0  0
  3  7  1  0  0  0  0
  4 37  1  0  0  0  0
  4 12  1  0  0  0  0
  5 19  1  0  0  0  0
  6 11  1  0  0  0  0
  6  9  1  0  0  0  0
  7 10  1  0  0  0  0
  8 26  1  0  0  0  0
  9  3  1  0  0  0  0
 10  5  1  0  0  0  0
 10 23  1  0  0  0  0
 11 16  1  0  0  0  0
 12  8  1  0  0  0  0
 13  9  1  0  0  0  0
 13 21  1  0  0  0  0
 14  2  1  0  0  0  0
 15 28  1  0  0  0  0
 16 20  1  0  0  0  0
 17 13  1  0  0  0  0
 18 19  1  0  0  0  0
 18  8  1  0  0  0  0
 20  3  1  0  0  0  0
 20 15  1  0  0  0  0
 21 27  1  0  0  0  0
 21  7  1  0  0  0  0
 22  6  1  0  0  0  0
 23 28  1  0  0  0  0
 23 30  1  0  0  0  0
 24  2  1  0  0  0  0
 25 18  1  0  0  0  0
 27 25  1  0  0  0  0
 27  1  1  0  0  0  0
 29 35  1  0  0  0  0
 30 29  2  0  0  0  0
 31 34  1  0  0  0  0
 31 30  1  0  0  0  0
 32 34  1  0  0  0  0
 33 35  2  0  0  0  0
 34 33  1  0  0  0  0
 36 37  1  0  0  0  0
M  END
>  <MODEL>
7

>  <REMARK>
 VINA RESULT:      -7.3      2.578      8.369
  Name = 
  2 active torsions:
  status: ('A' for Active; 'I' for Inactive)
    1  A    between atoms: C_4  and  C_37
    2  A    between atoms: C_23  and  C_30
                            x       y       z     vdW  Elec       q    Type
                         _______ _______ _______ _____ _____    ______ ____

>  <TORSDO>
F 2

$$$$
=
 OpenBabel11112417133D

 37 43  0  0  1  0  0  0  0  0999 V2000
  189.2040  175.5570  142.2910 O   0  0  0  0  0  0  0  0  0  0  0  0
  191.2000  175.9890  147.0440 C   0  0  0  0  0  0  0  0  0  0  0  0
  192.9080  175.5730  143.0910 C   0  0  1  0  0  3  0  0  0  0  0  0
  187.9610  175.4100  141.6480 C   0  0  2  0  0  3  0  0  0  0  0  0
  191.6320  171.9590  142.0730 C   0  0  0  0  0  2  0  0  0  0  0  0
  193.2590  175.9870  145.5680 C   0  0  1  0  0  3  0  0  0  0  0  0
  191.9360  174.4950  142.6060 C   0  0  1  0  0  3  0  0  0  0  0  0
  188.7740  173.5110  140.1250 C   0  0  2  0  0  3  0  0  0  0  0  0
  192.3010  176.1200  144.3780 C   0  0  2  0  0  3  0  0  0  0  0  0
  192.6050  173.1390  142.2460 C   0  0  2  0  0  3  0  0  0  0  0  0
  194.5110  176.6730  145.2620 N   0  0  0  0  0  2  0  0  0  0  0  0
  188.1860  174.9280  140.2110 C   0  0  0  0  0  2  0  0  0  0  0  0
  190.9750  175.5090  144.6040 N   0  0  2  0  0  0  0  0  0  0  0  0
  190.1880  177.1180  147.0770 C   0  0  0  0  0  1  0  0  0  0  0  0
  195.0740  174.7300  141.9800 C   0  0  0  0  0  2  0  0  0  0  0  0
  195.2120  176.0560  144.1190 C   0  0  0  0  0  2  0  0  0  0  0  0
  190.8010  174.9710  145.9620 C   0  0  0  0  0  2  0  0  0  0  0  0
  189.8260  173.3400  141.1370 N   0  0  2  0  0  0  0  0  0  0  0  0
  190.6240  172.1330  140.9300 C   0  0  0  0  0  2  0  0  0  0  0  0
  194.3590  175.0770  143.2900 C   0  0  1  0  0  3  0  0  0  0  0  0
  190.8450  174.3890  143.6760 C   0  0  1  0  0  3  0  0  0  0  0  0
  192.5990  176.5780  146.8060 C   0  0  0  0  0  2  0  0  0  0  0  0
  193.5460  173.2620  141.0290 C   0  0  1  0  0  3  0  0  0  0  0  0
  191.1890  175.2930  148.3880 C   0  0  0  0  0  1  0  0  0  0  0  0
  189.2000  173.1970  142.3370 O   0  0  0  0  0  0  0  0  0  0  0  0
  189.3100  173.3330  138.7100 C   0  0  0  0  0  1  0  0  0  0  0  0
  189.4360  174.3890  143.0600 C   0  0  2  0  0  3  0  0  0  0  0  0
  194.1850  174.5210  140.9030 O   0  0  0  0  0  0  0  0  0  0  0  0
  194.9090  171.7970  139.6130 C   0  0  0  0  0  3  0  0  0  0  0  0
  194.4800  172.0990  140.8440 C   0  0  0  0  0  0  0  0  0  0  0  0
  195.0370  171.3570  142.0350 C   0  0  0  0  0  2  0  0  0  0  0  0
  196.1240  169.2390  142.7870 C   0  0  0  0  0  1  0  0  0  0  0  0
  196.0560  169.7830  140.3760 C   0  0  0  0  0  3  0  0  0  0  0  0
  195.3210  169.8940  141.6840 C   0  0  2  0  0  3  0  0  0  0  0  0
  195.8230  170.6600  139.3940 C   0  0  0  0  0  3  0  0  0  0  0  0
  188.2040  177.8290  141.6370 N   0  0  0  0  0  1  0  0  0  0  0  0
  187.2390  176.7430  141.6220 C   0  0  0  0  0  2  0  0  0  0  0  0
  1 27  1  0  0  0  0
  2 14  1  0  0  0  0
  2 24  1  0  0  0  0
  3 20  1  0  0  0  0
  3  9  1  0  0  0  0
  4  1  1  0  0  0  0
  5 10  1  0  0  0  0
  6 22  1  0  0  0  0
  7  3  1  0  0  0  0
  7 21  1  0  0  0  0
  8 12  1  0  0  0  0
  8 18  1  0  0  0  0
  9 13  1  0  0  0  0
  9  6  1  0  0  0  0
 10  7  1  0  0  0  0
 11  6  1  0  0  0  0
 12  4  1  0  0  0  0
 13 17  1  0  0  0  0
 15 20  1  0  0  0  0
 16 11  1  0  0  0  0
 17  2  1  0  0  0  0
 18 25  1  0  0  0  0
 19 18  1  0  0  0  0
 19  5  1  0  0  0  0
 20 16  1  0  0  0  0
 21 13  1  0  0  0  0
 22  2  1  0  0  0  0
 23 10  1  0  0  0  0
 25 27  1  0  0  0  0
 26  8  1  0  0  0  0
 27 21  1  0  0  0  0
 28 23  1  0  0  0  0
 28 15  1  0  0  0  0
 29 30  2  0  0  0  0
 30 23  1  0  0  0  0
 30 31  1  0  0  0  0
 33 34  1  0  0  0  0
 34 31  1  0  0  0  0
 34 32  1  0  0  0  0
 35 29  1  0  0  0  0
 35 33  2  0  0  0  0
 37 36  1  0  0  0  0
 37  4  1  0  0  0  0
M  END
>  <MODEL>
8

>  <REMARK>
 VINA RESULT:      -7.2      2.516      7.178
  Name = 
  2 active torsions:
  status: ('A' for Active; 'I' for Inactive)
    1  A    between atoms: C_4  and  C_37
    2  A    between atoms: C_23  and  C_30
                            x       y       z     vdW  Elec       q    Type
                         _______ _______ _______ _____ _____    ______ ____

>  <TORSDO>
F 2

$$$$
=
 OpenBabel11112417133D

 37 43  0  0  1  0  0  0  0  0999 V2000
  195.5420  174.1160  140.1870 O   0  0  0  0  0  0  0  0  0  0  0  0
  192.0090  170.4300  139.3520 C   0  0  0  0  0  0  0  0  0  0  0  0
  191.8700  174.3950  141.0790 C   0  0  1  0  0  3  0  0  0  0  0  0
  196.9310  174.3240  140.0990 C   0  0  2  0  0  3  0  0  0  0  0  0
  194.1400  173.9180  144.2950 C   0  0  0  0  0  2  0  0  0  0  0  0
  190.6220  172.3420  140.2680 C   0  0  1  0  0  3  0  0  0  0  0  0
  193.1510  174.2590  141.9050 C   0  0  1  0  0  3  0  0  0  0  0  0
  197.0980  175.3820  142.4310 C   0  0  2  0  0  3  0  0  0  0  0  0
  191.8760  173.2110  140.1180 C   0  0  2  0  0  3  0  0  0  0  0  0
  192.9420  174.3720  143.4410 C   0  0  2  0  0  3  0  0  0  0  0  0
  189.4340  173.1650  140.0570 N   0  0  0  0  0  2  0  0  0  0  0  0
  197.3130  175.5600  140.9200 C   0  0  0  0  0  2  0  0  0  0  0  0
  193.1430  172.4640  140.2540 N   0  0  2  0  0  0  0  0  0  0  0  0
  192.6910  170.4560  137.9980 C   0  0  0  0  0  1  0  0  0  0  0  0
  190.4360  175.7540  142.7320 C   0  0  0  0  0  2  0  0  0  0  0  0
  189.3080  174.2210  141.0790 C   0  0  0  0  0  2  0  0  0  0  0  0
  192.9550  171.0140  140.4170 C   0  0  0  0  0  2  0  0  0  0  0  0
  195.8260  174.6910  142.6810 N   0  0  2  0  0  0  0  0  0  0  0  0
  195.4160  174.7430  144.0830 C   0  0  0  0  0  2  0  0  0  0  0  0
  190.5750  174.4610  141.9210 C   0  0  1  0  0  3  0  0  0  0  0  0
  193.8100  172.9490  141.4580 C   0  0  1  0  0  3  0  0  0  0  0  0
  190.6840  171.2020  139.2610 C   0  0  0  0  0  2  0  0  0  0  0  0
  192.4670  175.7790  143.8580 C   0  0  1  0  0  3  0  0  0  0  0  0
  191.7090  168.9910  139.7130 C   0  0  0  0  0  1  0  0  0  0  0  0
  196.0230  173.3790  142.3770 O   0  0  0  0  0  0  0  0  0  0  0  0
  197.1240  176.7730  143.0550 C   0  0  0  0  0  1  0  0  0  0  0  0
  195.3130  173.1310  141.1800 C   0  0  2  0  0  3  0  0  0  0  0  0
  191.6610  176.4380  142.8970 O   0  0  0  0  0  0  0  0  0  0  0  0
  192.6170  176.5010  146.1960 C   0  0  0  0  0  3  0  0  0  0  0  0
  191.9150  175.8600  145.2540 C   0  0  0  0  0  0  0  0  0  0  0  0
  190.5300  175.3460  145.5710 C   0  0  0  0  0  2  0  0  0  0  0  0
  189.0030  174.6090  147.4020 C   0  0  0  0  0  1  0  0  0  0  0  0
  191.0600  175.8600  147.9630 C   0  0  0  0  0  3  0  0  0  0  0  0
  190.4450  174.8620  147.0210 C   0  0  2  0  0  3  0  0  0  0  0  0
  192.1080  176.5970  147.5780 C   0  0  0  0  0  3  0  0  0  0  0  0
  196.1520  174.4440  137.8000 N   0  0  0  0  0  1  0  0  0  0  0  0
  197.3250  174.5430  138.6510 C   0  0  0  0  0  2  0  0  0  0  0  0
  1 27  1  0  0  0  0
  2 24  1  0  0  0  0
  2 17  1  0  0  0  0
  3  7  1  0  0  0  0
  3 20  1  0  0  0  0
  4  1  1  0  0  0  0
  4 12  1  0  0  0  0
  7 10  1  0  0  0  0
  8 18  1  0  0  0  0
  8 26  1  0  0  0  0
  9 13  1  0  0  0  0
  9  6  1  0  0  0  0
  9  3  1  0  0  0  0
 10 23  1  0  0  0  0
 10  5  1  0  0  0  0
 11  6  1  0  0  0  0
 11 16  1  0  0  0  0
 12  8  1  0  0  0  0
 13 17  1  0  0  0  0
 13 21  1  0  0  0  0
 14  2  1  0  0  0  0
 15 28  1  0  0  0  0
 16 20  1  0  0  0  0
 18 19  1  0  0  0  0
 19  5  1  0  0  0  0
 20 15  1  0  0  0  0
 21  7  1  0  0  0  0
 22  2  1  0  0  0  0
 22  6  1  0  0  0  0
 23 30  1  0  0  0  0
 25 18  1  0  0  0  0
 27 21  1  0  0  0  0
 27 25  1  0  0  0  0
 28 23  1  0  0  0  0
 29 35  1  0  0  0  0
 30 31  1  0  0  0  0
 30 29  2  0  0  0  0
 31 34  1  0  0  0  0
 34 32  1  0  0  0  0
 34 33  1  0  0  0  0
 35 33  2  0  0  0  0
 36 37  1  0  0  0  0
 37  4  1  0  0  0  0
M  END
>  <MODEL>
9

>  <REMARK>
 VINA RESULT:      -7.1      3.352      6.947
  Name = 
  2 active torsions:
  status: ('A' for Active; 'I' for Inactive)
    1  A    between atoms: C_4  and  C_37
    2  A    between atoms: C_23  and  C_30
                            x       y       z     vdW  Elec       q    Type
                         _______ _______ _______ _____ _____    ______ ____

>  <TORSDO>
F 2

$$$$
