=
 OpenBabel11112417523D

 34 41  0  0  1  0  0  0  0  0999 V2000
  189.3920  174.6200  142.8990 C   0  0  0  0  0  0  0  0  0  0  0  0
  191.5950  173.4280  142.9410 C   0  0  0  0  0  2  0  0  0  0  0  0
  185.2910  179.1260  145.7200 C   0  0  2  0  0  3  0  0  0  0  0  0
  187.7180  176.3480  142.8020 C   0  0  0  0  0  0  0  0  0  0  0  0
  187.4170  178.0070  144.7350 C   0  0  1  0  0  3  0  0  0  0  0  0
  185.5670  177.0480  146.0140 O   0  0  0  0  0  0  0  0  0  0  0  0
  184.4450  177.8860  145.8620 C   0  0  0  0  0  2  0  0  0  0  0  0
  184.8980  178.8930  143.1520 C   0  0  0  0  0  2  0  0  0  0  0  0
  190.6140  174.0870  145.0690 N   0  0  2  0  0  0  0  0  0  0  0  0
  192.8570  175.5900  146.9040 C   0  0  0  0  0  2  0  0  0  0  0  0
  188.7540  177.4300  145.2130 C   0  0  0  0  0  2  0  0  0  0  0  0
  186.1940  178.3470  142.5750 C   0  0  0  0  0  2  0  0  0  0  0  0
  190.2640  175.4730  145.4680 C   0  0  1  0  0  3  0  0  0  0  0  0
  192.5270  172.9920  144.0320 C   0  0  0  0  0  2  0  0  0  0  0  0
  186.7940  177.3070  143.5100 C   0  0  1  0  0  3  0  0  0  0  0  0
  185.1590  179.8170  144.3440 C   0  0  0  0  0  2  0  0  0  0  0  0
  193.0070  174.9590  145.5110 C   0  0  1  0  0  3  0  0  0  0  0  0
  188.6790  175.6360  143.5370 C   0  0  0  0  0  0  0  0  0  0  0  0
  186.4360  178.1500  145.9090 C   0  0  2  0  0  3  0  0  0  0  0  0
  188.8760  175.9200  144.9920 C   0  0  2  0  0  3  0  0  0  0  0  0
  188.2490  175.0820  140.8760 C   0  0  0  0  0  3  0  0  0  0  0  0
  191.6040  175.1400  147.6520 C   0  0  0  0  0  2  0  0  0  0  0  0
  187.5230  176.0500  141.4880 N   0  0  0  0  0  0  0  0  0  0  0  0
  190.3190  175.6420  146.9970 C   0  0  0  0  0  2  0  0  0  0  0  0
  192.0550  173.7610  145.2490 C   0  0  1  0  0  3  0  0  0  0  0  0
  189.1620  174.3680  141.5820 N   0  0  0  0  0  0  0  0  0  0  0  0
  190.3030  173.7100  143.6720 C   0  0  1  0  0  3  0  0  0  0  0  0
  192.8900  175.9400  144.5180 O   0  0  0  0  0  0  0  0  0  0  0  0
  194.1470  176.5470  144.4520 C   0  0  0  0  0  2  0  0  0  0  0  0
  195.4580  176.3320  141.0370 C   0  0  0  0  0  2  0  0  0  0  0  0
  196.3330  176.5480  143.2770 C   0  0  0  0  0  2  0  0  0  0  0  0
  194.9860  175.8730  143.3820 C   0  0  0  0  0  3  0  0  0  0  0  0
  196.7470  176.3680  141.8360 C   0  0  0  0  0  2  0  0  0  0  0  0
  194.3410  176.0160  142.0160 C   0  0  0  0  0  2  0  0  0  0  0  0
  1 18  1  0  0  0  0
  1 27  1  0  0  0  0
  2 27  1  0  0  0  0
  2 14  1  0  0  0  0
  3 16  1  6  0  0  0
  3  7  1  0  0  0  0
  3 19  1  0  0  0  0
  4 15  1  0  0  0  0
  4 18  2  0  0  0  0
  5 11  1  1  0  0  0
  5 19  1  0  0  0  0
  7  6  1  0  0  0  0
  8 16  1  0  0  0  0
  9 25  1  0  0  0  0
  9 13  1  0  0  0  0
 10 22  1  0  0  0  0
 12  8  1  0  0  0  0
 12 15  1  0  0  0  0
 13 24  1  0  0  0  0
 14 25  1  0  0  0  0
 15  5  1  0  0  0  0
 17 10  1  0  0  0  0
 18 20  1  0  0  0  0
 19  6  1  0  0  0  0
 20 11  1  0  0  0  0
 20 13  1  0  0  0  0
 21 23  2  0  0  0  0
 21 26  1  0  0  0  0
 23  4  1  0  0  0  0
 24 22  1  0  0  0  0
 25 17  1  0  0  0  0
 26  1  2  0  0  0  0
 27  9  1  0  0  0  0
 28 17  1  0  0  0  0
 29 28  1  0  0  0  0
 30 33  1  0  0  0  0
 30 34  1  0  0  0  0
 31 32  1  0  0  0  0
 32 29  1  0  0  0  0
 33 31  1  0  0  0  0
 34 32  1  0  0  0  0
M  END
>  <MODEL>
1

>  <REMARK>
 VINA RESULT:      -9.5      0.000      0.000
  Name = 
  3 active torsions:
  status: ('A' for Active; 'I' for Inactive)
    1  A    between atoms: C_17  and  O_28
    2  A    between atoms: O_28  and  C_29
    3  A    between atoms: C_29  and  C_32
                            x       y       z     vdW  Elec       q    Type
                         _______ _______ _______ _____ _____    ______ ____

>  <TORSDO>
F 3

$$$$
=
 OpenBabel11112417523D

 34 41  0  0  1  0  0  0  0  0999 V2000
  187.8830  175.3600  140.8920 C   0  0  0  0  0  0  0  0  0  0  0  0
  189.5340  173.9030  139.6960 C   0  0  0  0  0  2  0  0  0  0  0  0
  185.9430  178.2630  146.6260 C   0  0  2  0  0  3  0  0  0  0  0  0
  186.9010  177.1580  142.1560 C   0  0  0  0  0  0  0  0  0  0  0  0
  187.4220  177.4590  144.6500 C   0  0  1  0  0  3  0  0  0  0  0  0
  185.5260  176.3800  145.7530 O   0  0  0  0  0  0  0  0  0  0  0  0
  184.7470  177.3800  146.3700 C   0  0  0  0  0  2  0  0  0  0  0  0
  185.1850  179.6080  144.5240 C   0  0  0  0  0  2  0  0  0  0  0  0
  189.1030  173.4460  142.0490 N   0  0  2  0  0  0  0  0  0  0  0  0
  191.9300  173.1200  143.6490 C   0  0  0  0  0  2  0  0  0  0  0  0
  188.5290  176.4380  144.3670 C   0  0  0  0  0  2  0  0  0  0  0  0
  186.1360  179.2130  143.4050 C   0  0  0  0  0  2  0  0  0  0  0  0
  189.2990  174.4030  143.1650 C   0  0  1  0  0  3  0  0  0  0  0  0
  190.3860  172.7380  140.1030 C   0  0  0  0  0  2  0  0  0  0  0  0
  186.4540  177.7270  143.4800 C   0  0  1  0  0  3  0  0  0  0  0  0
  185.8890  179.6170  145.8830 C   0  0  0  0  0  2  0  0  0  0  0  0
  191.6850  173.3690  142.1530 C   0  0  1  0  0  3  0  0  0  0  0  0
  187.6440  175.9670  142.1250 C   0  0  0  0  0  0  0  0  0  0  0  0
  186.6990  177.1270  145.9640 C   0  0  2  0  0  3  0  0  0  0  0  0
  188.1000  175.3310  143.4000 C   0  0  2  0  0  3  0  0  0  0  0  0
  186.7300  177.1160  139.7970 C   0  0  0  0  0  3  0  0  0  0  0  0
  190.6990  172.6160  144.3990 C   0  0  0  0  0  2  0  0  0  0  0  0
  186.4590  177.7030  140.9900 N   0  0  0  0  0  0  0  0  0  0  0  0
  189.5930  173.6660  144.4850 C   0  0  0  0  0  2  0  0  0  0  0  0
  190.3570  172.7690  141.6170 C   0  0  1  0  0  3  0  0  0  0  0  0
  187.4230  175.9500  139.7560 N   0  0  0  0  0  0  0  0  0  0  0  0
  188.5150  174.0000  140.8080 C   0  0  1  0  0  3  0  0  0  0  0  0
  191.7900  174.7340  141.8630 O   0  0  0  0  0  0  0  0  0  0  0  0
  193.1580  175.0150  141.9130 C   0  0  0  0  0  2  0  0  0  0  0  0
  192.2670  177.2610  144.6670 C   0  0  0  0  0  2  0  0  0  0  0  0
  194.1350  175.8730  144.0270 C   0  0  0  0  0  2  0  0  0  0  0  0
  193.3990  176.2490  142.7630 C   0  0  0  0  0  3  0  0  0  0  0  0
  193.6830  176.8830  145.0550 C   0  0  0  0  0  2  0  0  0  0  0  0
  192.0860  176.8630  143.2130 C   0  0  0  0  0  2  0  0  0  0  0  0
  1 18  1  0  0  0  0
  2 14  1  0  0  0  0
  2 27  1  0  0  0  0
  3 16  1  6  0  0  0
  4 15  1  0  0  0  0
  5 11  1  6  0  0  0
  5 19  1  0  0  0  0
  6 19  1  0  0  0  0
  6  7  1  0  0  0  0
  7  3  1  0  0  0  0
  8 16  1  0  0  0  0
  9 13  1  0  0  0  0
 10 22  1  0  0  0  0
 12 15  1  0  0  0  0
 12  8  1  0  0  0  0
 13 20  1  0  0  0  0
 13 24  1  0  0  0  0
 14 25  1  0  0  0  0
 15  5  1  0  0  0  0
 17 10  1  0  0  0  0
 18  4  2  0  0  0  0
 18 20  1  0  0  0  0
 19  3  1  0  0  0  0
 20 11  1  0  0  0  0
 21 23  2  0  0  0  0
 22 24  1  0  0  0  0
 23  4  1  0  0  0  0
 25  9  1  0  0  0  0
 25 17  1  0  0  0  0
 26 21  1  0  0  0  0
 26  1  2  0  0  0  0
 27  1  1  0  0  0  0
 27  9  1  0  0  0  0
 28 29  1  0  0  0  0
 28 17  1  0  0  0  0
 29 32  1  0  0  0  0
 30 33  1  0  0  0  0
 31 33  1  0  0  0  0
 32 34  1  0  0  0  0
 32 31  1  0  0  0  0
 34 30  1  0  0  0  0
M  END
>  <MODEL>
2

>  <REMARK>
 VINA RESULT:      -8.8      1.787      2.837
  Name = 
  3 active torsions:
  status: ('A' for Active; 'I' for Inactive)
    1  A    between atoms: C_17  and  O_28
    2  A    between atoms: O_28  and  C_29
    3  A    between atoms: C_29  and  C_32
                            x       y       z     vdW  Elec       q    Type
                         _______ _______ _______ _____ _____    ______ ____

>  <TORSDO>
F 3

$$$$
=
 OpenBabel11112417523D

 34 41  0  0  1  0  0  0  0  0999 V2000
  190.4240  176.3370  144.7390 C   0  0  0  0  0  0  0  0  0  0  0  0
  192.0990  174.8080  143.6740 C   0  0  0  0  0  2  0  0  0  0  0  0
  184.1050  178.5920  144.9840 C   0  0  2  0  0  3  0  0  0  0  0  0
  188.4910  177.1660  145.9090 C   0  0  0  0  0  0  0  0  0  0  0  0
  186.1470  176.9920  144.8800 C   0  0  1  0  0  3  0  0  0  0  0  0
  185.8090  179.1980  143.8820 O   0  0  0  0  0  0  0  0  0  0  0  0
  184.8200  179.8710  144.6260 C   0  0  0  0  0  2  0  0  0  0  0  0
  185.3120  178.7630  147.2890 C   0  0  0  0  0  2  0  0  0  0  0  0
  190.2960  175.6720  142.2830 N   0  0  2  0  0  0  0  0  0  0  0  0
  188.9250  173.2310  140.6040 C   0  0  0  0  0  2  0  0  0  0  0  0
  186.8400  176.0550  143.8850 C   0  0  0  0  0  2  0  0  0  0  0  0
  186.4340  177.7360  147.2550 C   0  0  0  0  0  2  0  0  0  0  0  0
  188.8460  175.4830  142.5330 C   0  0  1  0  0  3  0  0  0  0  0  0
  192.2750  174.2510  142.2920 C   0  0  0  0  0  2  0  0  0  0  0  0
  187.0820  177.7040  145.8800 C   0  0  1  0  0  3  0  0  0  0  0  0
  184.0910  178.2880  146.4990 C   0  0  0  0  0  2  0  0  0  0  0  0
  190.1180  173.1930  141.5730 C   0  0  1  0  0  3  0  0  0  0  0  0
  189.0650  176.6520  144.7360 C   0  0  0  0  0  0  0  0  0  0  0  0
  185.2020  177.9570  144.1500 C   0  0  2  0  0  3  0  0  0  0  0  0
  188.2460  176.5190  143.4910 C   0  0  2  0  0  3  0  0  0  0  0  0
  190.5730  176.9750  147.0160 C   0  0  0  0  0  3  0  0  0  0  0  0
  188.5800  174.6330  140.1070 C   0  0  0  0  0  2  0  0  0  0  0  0
  189.2600  177.3180  147.0220 N   0  0  0  0  0  0  0  0  0  0  0  0
  188.0440  175.5340  141.2190 C   0  0  0  0  0  2  0  0  0  0  0  0
  190.9430  174.5070  141.6180 C   0  0  1  0  0  3  0  0  0  0  0  0
  191.1470  176.5030  145.8800 N   0  0  0  0  0  0  0  0  0  0  0  0
  191.1330  175.9520  143.4720 C   0  0  1  0  0  3  0  0  0  0  0  0
  189.6960  172.8020  142.8490 O   0  0  0  0  0  0  0  0  0  0  0  0
  189.6790  171.4050  142.8180 C   0  0  0  0  0  2  0  0  0  0  0  0
  192.7100  169.4350  143.4170 C   0  0  0  0  0  2  0  0  0  0  0  0
  190.9070  169.4970  141.8130 C   0  0  0  0  0  2  0  0  0  0  0  0
  191.0400  170.8840  142.3950 C   0  0  0  0  0  3  0  0  0  0  0  0
  192.2210  168.8190  142.1210 C   0  0  0  0  0  2  0  0  0  0  0  0
  191.9640  170.7470  143.5900 C   0  0  0  0  0  2  0  0  0  0  0  0
  1 26  1  0  0  0  0
  3  7  1  1  0  0  0
  3 16  1  0  0  0  0
  4 23  2  0  0  0  0
  5 11  1  6  0  0  0
  5 15  1  0  0  0  0
  6 19  1  0  0  0  0
  6  7  1  0  0  0  0
  9 13  1  0  0  0  0
  9 27  1  0  0  0  0
 10 17  1  0  0  0  0
 12  8  1  0  0  0  0
 13 20  1  0  0  0  0
 14  2  1  0  0  0  0
 15  4  1  0  0  0  0
 15 12  1  0  0  0  0
 16  8  1  0  0  0  0
 17 25  1  0  0  0  0
 17 28  1  0  0  0  0
 18  1  2  0  0  0  0
 18  4  1  0  0  0  0
 19  5  1  0  0  0  0
 19  3  1  0  0  0  0
 20 11  1  0  0  0  0
 20 18  1  0  0  0  0
 21 23  1  0  0  0  0
 22 10  1  0  0  0  0
 22 24  1  0  0  0  0
 24 13  1  0  0  0  0
 25  9  1  0  0  0  0
 25 14  1  0  0  0  0
 26 21  2  0  0  0  0
 27  2  1  0  0  0  0
 27  1  1  0  0  0  0
 29 28  1  0  0  0  0
 30 34  1  0  0  0  0
 31 33  1  0  0  0  0
 31 32  1  0  0  0  0
 32 29  1  0  0  0  0
 32 34  1  0  0  0  0
 33 30  1  0  0  0  0
M  END
>  <MODEL>
3

>  <REMARK>
 VINA RESULT:      -8.5      2.344      4.937
  Name = 
  3 active torsions:
  status: ('A' for Active; 'I' for Inactive)
    1  A    between atoms: C_17  and  O_28
    2  A    between atoms: O_28  and  C_29
    3  A    between atoms: C_29  and  C_32
                            x       y       z     vdW  Elec       q    Type
                         _______ _______ _______ _____ _____    ______ ____

>  <TORSDO>
F 3

$$$$
=
 OpenBabel11112417523D

 34 41  0  0  1  0  0  0  0  0999 V2000
  192.2780  176.4170  145.8340 C   0  0  0  0  0  0  0  0  0  0  0  0
  194.5610  175.4300  146.1360 C   0  0  0  0  0  2  0  0  0  0  0  0
  186.8710  177.1920  141.9300 C   0  0  2  0  0  3  0  0  0  0  0  0
  189.9090  176.6560  145.4810 C   0  0  0  0  0  0  0  0  0  0  0  0
  188.8470  176.1010  143.2120 C   0  0  1  0  0  3  0  0  0  0  0  0
  188.6750  178.2840  142.1250 O   0  0  0  0  0  0  0  0  0  0  0  0
  187.3110  178.6310  142.0460 C   0  0  0  0  0  2  0  0  0  0  0  0
  186.2950  177.3420  144.4690 C   0  0  0  0  0  2  0  0  0  0  0  0
  193.8720  176.0420  143.8830 N   0  0  2  0  0  0  0  0  0  0  0  0
  194.4940  173.5830  141.8280 C   0  0  0  0  0  2  0  0  0  0  0  0
  190.2110  175.4650  142.9220 C   0  0  0  0  0  2  0  0  0  0  0  0
  187.4010  176.5960  145.1970 C   0  0  0  0  0  2  0  0  0  0  0  0
  192.6840  175.5130  143.1680 C   0  0  1  0  0  3  0  0  0  0  0  0
  195.6870  175.0960  145.2040 C   0  0  0  0  0  2  0  0  0  0  0  0
  188.7470  176.8730  144.5430 C   0  0  1  0  0  3  0  0  0  0  0  0
  185.9930  176.7120  143.1070 C   0  0  0  0  0  2  0  0  0  0  0  0
  194.7890  173.6890  143.3330 C   0  0  1  0  0  3  0  0  0  0  0  0
  191.1910  176.4260  144.9590 C   0  0  0  0  0  0  0  0  0  0  0  0
  188.3610  176.9180  142.0050 C   0  0  2  0  0  3  0  0  0  0  0  0
  191.3870  176.2690  143.4840 C   0  0  2  0  0  3  0  0  0  0  0  0
  190.8160  176.7910  147.6610 C   0  0  0  0  0  3  0  0  0  0  0  0
  194.2020  174.9250  141.1620 C   0  0  0  0  0  2  0  0  0  0  0  0
  189.7520  176.8370  146.8210 N   0  0  0  0  0  0  0  0  0  0  0  0
  192.8920  175.5460  141.6430 C   0  0  0  0  0  2  0  0  0  0  0  0
  195.0520  175.1360  143.8290 C   0  0  1  0  0  3  0  0  0  0  0  0
  192.0650  176.5970  147.1660 N   0  0  0  0  0  0  0  0  0  0  0  0
  193.6870  176.3520  145.3180 C   0  0  1  0  0  3  0  0  0  0  0  0
  193.7780  173.0640  144.0710 O   0  0  0  0  0  0  0  0  0  0  0  0
  193.2490  172.0900  143.2200 C   0  0  0  0  0  2  0  0  0  0  0  0
  189.9280  172.7100  144.6370 C   0  0  0  0  0  2  0  0  0  0  0  0
  190.8650  171.6730  142.6700 C   0  0  0  0  0  2  0  0  0  0  0  0
  191.9130  171.6090  143.7550 C   0  0  0  0  0  3  0  0  0  0  0  0
  189.5650  171.9160  143.3980 C   0  0  0  0  0  2  0  0  0  0  0  0
  191.4160  172.5140  144.8670 C   0  0  0  0  0  2  0  0  0  0  0  0
  1 26  1  0  0  0  0
  3 19  1  0  0  0  0
  3  7  1  1  0  0  0
  3 16  1  0  0  0  0
  4 23  2  0  0  0  0
  5 11  1  6  0  0  0
  5 15  1  0  0  0  0
  7  6  1  0  0  0  0
  8 12  1  0  0  0  0
  9 27  1  0  0  0  0
 10 17  1  0  0  0  0
 11 20  1  0  0  0  0
 13 20  1  0  0  0  0
 13  9  1  0  0  0  0
 14  2  1  0  0  0  0
 15 12  1  0  0  0  0
 15  4  1  0  0  0  0
 16  8  1  0  0  0  0
 17 25  1  0  0  0  0
 17 28  1  0  0  0  0
 18  4  1  0  0  0  0
 18  1  2  0  0  0  0
 19  6  1  0  0  0  0
 19  5  1  0  0  0  0
 20 18  1  0  0  0  0
 22 24  1  0  0  0  0
 22 10  1  0  0  0  0
 23 21  1  0  0  0  0
 24 13  1  0  0  0  0
 25  9  1  0  0  0  0
 25 14  1  0  0  0  0
 26 21  2  0  0  0  0
 27  1  1  0  0  0  0
 27  2  1  0  0  0  0
 29 32  1  0  0  0  0
 29 28  1  0  0  0  0
 30 34  1  0  0  0  0
 31 33  1  0  0  0  0
 31 32  1  0  0  0  0
 32 34  1  0  0  0  0
 33 30  1  0  0  0  0
M  END
>  <MODEL>
4

>  <REMARK>
 VINA RESULT:      -8.4      2.388      4.932
  Name = 
  3 active torsions:
  status: ('A' for Active; 'I' for Inactive)
    1  A    between atoms: C_17  and  O_28
    2  A    between atoms: O_28  and  C_29
    3  A    between atoms: C_29  and  C_32
                            x       y       z     vdW  Elec       q    Type
                         _______ _______ _______ _____ _____    ______ ____

>  <TORSDO>
F 3

$$$$
=
 OpenBabel11112417523D

 34 41  0  0  1  0  0  0  0  0999 V2000
  190.9210  172.8680  142.7960 C   0  0  0  0  0  0  0  0  0  0  0  0
  188.5990  173.6710  142.3060 C   0  0  0  0  0  2  0  0  0  0  0  0
  196.9760  174.1660  145.3880 C   0  0  2  0  0  3  0  0  0  0  0  0
  192.9340  172.2350  143.9530 C   0  0  0  0  0  0  0  0  0  0  0  0
  194.4010  173.9920  145.1120 C   0  0  1  0  0  3  0  0  0  0  0  0
  196.1450  174.4450  143.4600 O   0  0  0  0  0  0  0  0  0  0  0  0
  197.3600  173.9250  143.9490 C   0  0  0  0  0  2  0  0  0  0  0  0
  196.3800  171.6290  145.4750 C   0  0  0  0  0  2  0  0  0  0  0  0
  190.3990  175.3100  142.2920 N   0  0  2  0  0  0  0  0  0  0  0  0
  189.5380  177.9160  144.0610 C   0  0  0  0  0  2  0  0  0  0  0  0
  193.1930  174.9060  144.8790 C   0  0  0  0  0  2  0  0  0  0  0  0
  194.8620  171.5500  145.4310 C   0  0  0  0  0  2  0  0  0  0  0  0
  191.3000  175.6140  143.4320 C   0  0  1  0  0  3  0  0  0  0  0  0
  188.0010  175.0100  141.9870 C   0  0  0  0  0  2  0  0  0  0  0  0
  194.3050  172.5920  144.4730 C   0  0  1  0  0  3  0  0  0  0  0  0
  196.8580  172.8730  146.2260 C   0  0  0  0  0  2  0  0  0  0  0  0
  188.7280  176.6510  143.7380 C   0  0  1  0  0  3  0  0  0  0  0  0
  192.1000  173.2410  143.4420 C   0  0  0  0  0  0  0  0  0  0  0  0
  195.7080  174.7220  144.7690 C   0  0  2  0  0  3  0  0  0  0  0  0
  192.5110  174.6770  143.5270 C   0  0  2  0  0  3  0  0  0  0  0  0
  191.3980  170.5880  143.2310 C   0  0  0  0  0  3  0  0  0  0  0  0
  190.7460  178.1220  143.1490 C   0  0  0  0  0  2  0  0  0  0  0  0
  192.5650  170.9310  143.8320 N   0  0  0  0  0  0  0  0  0  0  0  0
  191.8240  177.0600  143.3560 C   0  0  0  0  0  2  0  0  0  0  0  0
  189.0820  175.9980  142.3750 C   0  0  1  0  0  3  0  0  0  0  0  0
  190.5950  171.5500  142.7070 N   0  0  0  0  0  0  0  0  0  0  0  0
  190.0770  173.8820  142.0760 C   0  0  1  0  0  3  0  0  0  0  0  0
  188.8200  175.7330  144.7910 O   0  0  0  0  0  0  0  0  0  0  0  0
  188.2020  176.3570  145.8780 C   0  0  0  0  0  2  0  0  0  0  0  0
  191.2670  175.2840  147.5740 C   0  0  0  0  0  2  0  0  0  0  0  0
  189.9980  177.3180  147.2950 C   0  0  0  0  0  2  0  0  0  0  0  0
  189.0400  176.1630  147.1270 C   0  0  0  0  0  3  0  0  0  0  0  0
  191.1910  176.7330  148.0130 C   0  0  0  0  0  2  0  0  0  0  0  0
  189.9030  174.9200  147.0150 C   0  0  0  0  0  2  0  0  0  0  0  0
  1 18  1  0  0  0  0
  3  7  1  6  0  0  0
  3 16  1  0  0  0  0
  4 15  1  0  0  0  0
  5 11  1  6  0  0  0
  6  7  1  0  0  0  0
  6 19  1  0  0  0  0
  8 16  1  0  0  0  0
  9 25  1  0  0  0  0
  9 13  1  0  0  0  0
 12  8  1  0  0  0  0
 13 20  1  0  0  0  0
 14  2  1  0  0  0  0
 14 25  1  0  0  0  0
 15  5  1  0  0  0  0
 15 12  1  0  0  0  0
 17 10  1  0  0  0  0
 17 28  1  0  0  0  0
 18 20  1  0  0  0  0
 18  4  2  0  0  0  0
 19  5  1  0  0  0  0
 19  3  1  0  0  0  0
 20 11  1  0  0  0  0
 21 23  2  0  0  0  0
 22 24  1  0  0  0  0
 22 10  1  0  0  0  0
 23  4  1  0  0  0  0
 24 13  1  0  0  0  0
 25 17  1  0  0  0  0
 26  1  2  0  0  0  0
 26 21  1  0  0  0  0
 27  9  1  0  0  0  0
 27  2  1  0  0  0  0
 27  1  1  0  0  0  0
 28 29  1  0  0  0  0
 29 32  1  0  0  0  0
 30 33  1  0  0  0  0
 31 33  1  0  0  0  0
 32 31  1  0  0  0  0
 34 32  1  0  0  0  0
 34 30  1  0  0  0  0
M  END
>  <MODEL>
5

>  <REMARK>
 VINA RESULT:      -8.3      2.551      7.574
  Name = 
  3 active torsions:
  status: ('A' for Active; 'I' for Inactive)
    1  A    between atoms: C_17  and  O_28
    2  A    between atoms: O_28  and  C_29
    3  A    between atoms: C_29  and  C_32
                            x       y       z     vdW  Elec       q    Type
                         _______ _______ _______ _____ _____    ______ ____

>  <TORSDO>
F 3

$$$$
=
 OpenBabel11112417523D

 34 41  0  0  1  0  0  0  0  0999 V2000
  192.6060  176.2750  145.9100 C   0  0  0  0  0  0  0  0  0  0  0  0
  194.9060  175.3080  146.1380 C   0  0  0  0  0  2  0  0  0  0  0  0
  186.9950  176.8470  142.2680 C   0  0  2  0  0  3  0  0  0  0  0  0
  190.2210  176.4930  145.6730 C   0  0  0  0  0  0  0  0  0  0  0  0
  189.0420  175.8240  143.4950 C   0  0  1  0  0  3  0  0  0  0  0  0
  188.8020  177.9500  142.3120 O   0  0  0  0  0  0  0  0  0  0  0  0
  187.4350  178.2900  142.2890 C   0  0  0  0  0  2  0  0  0  0  0  0
  186.5550  177.1230  144.8240 C   0  0  0  0  0  2  0  0  0  0  0  0
  194.0950  175.8060  143.8970 N   0  0  2  0  0  0  0  0  0  0  0  0
  194.6170  173.2480  141.9370 C   0  0  0  0  0  2  0  0  0  0  0  0
  190.3910  175.1770  143.1640 C   0  0  0  0  0  2  0  0  0  0  0  0
  187.7020  176.4160  145.5280 C   0  0  0  0  0  2  0  0  0  0  0  0
  192.8730  175.2400  143.2750 C   0  0  1  0  0  3  0  0  0  0  0  0
  195.9820  174.9290  145.1640 C   0  0  0  0  0  2  0  0  0  0  0  0
  189.0090  176.6620  144.7900 C   0  0  1  0  0  3  0  0  0  0  0  0
  186.1840  176.4250  143.5140 C   0  0  0  0  0  2  0  0  0  0  0  0
  194.9910  173.4300  143.4160 C   0  0  1  0  0  3  0  0  0  0  0  0
  191.4740  176.2390  145.0950 C   0  0  0  0  0  0  0  0  0  0  0  0
  188.4880  176.5790  142.2770 C   0  0  2  0  0  3  0  0  0  0  0  0
  191.5920  176.0090  143.6210 C   0  0  2  0  0  3  0  0  0  0  0  0
  191.2440  176.7380  147.7920 C   0  0  0  0  0  3  0  0  0  0  0  0
  194.2840  174.5550  141.2210 C   0  0  0  0  0  2  0  0  0  0  0  0
  190.1360  176.7400  147.0090 N   0  0  0  0  0  0  0  0  0  0  0  0
  192.9990  175.1970  141.7400 C   0  0  0  0  0  2  0  0  0  0  0  0
  195.2740  174.9000  143.8250 C   0  0  1  0  0  3  0  0  0  0  0  0
  192.4650  176.5210  147.2410 N   0  0  0  0  0  0  0  0  0  0  0  0
  193.9870  176.1870  145.3230 C   0  0  1  0  0  3  0  0  0  0  0  0
  194.0240  172.8400  144.2380 O   0  0  0  0  0  0  0  0  0  0  0  0
  194.3570  171.4840  144.2840 C   0  0  0  0  0  2  0  0  0  0  0  0
  195.7250  169.1030  146.7090 C   0  0  0  0  0  2  0  0  0  0  0  0
  196.4870  171.0310  145.4730 C   0  0  0  0  0  2  0  0  0  0  0  0
  194.9900  171.1550  145.6230 C   0  0  0  0  0  3  0  0  0  0  0  0
  196.9040  170.0410  146.5340 C   0  0  0  0  0  2  0  0  0  0  0  0
  194.5100  169.8090  146.1340 C   0  0  0  0  0  2  0  0  0  0  0  0
  1 26  1  0  0  0  0
  3 19  1  0  0  0  0
  3  7  1  1  0  0  0
  3 16  1  0  0  0  0
  4 23  2  0  0  0  0
  5 11  1  6  0  0  0
  5 15  1  0  0  0  0
  7  6  1  0  0  0  0
  8 12  1  0  0  0  0
  9 27  1  0  0  0  0
 10 17  1  0  0  0  0
 11 20  1  0  0  0  0
 13 20  1  0  0  0  0
 13  9  1  0  0  0  0
 14  2  1  0  0  0  0
 15 12  1  0  0  0  0
 15  4  1  0  0  0  0
 16  8  1  0  0  0  0
 17 25  1  0  0  0  0
 17 28  1  0  0  0  0
 18  4  1  0  0  0  0
 18  1  2  0  0  0  0
 19  6  1  0  0  0  0
 19  5  1  0  0  0  0
 20 18  1  0  0  0  0
 22 24  1  0  0  0  0
 22 10  1  0  0  0  0
 23 21  1  0  0  0  0
 24 13  1  0  0  0  0
 25  9  1  0  0  0  0
 25 14  1  0  0  0  0
 26 21  2  0  0  0  0
 27  1  1  0  0  0  0
 27  2  1  0  0  0  0
 28 29  1  0  0  0  0
 29 32  1  0  0  0  0
 31 32  1  0  0  0  0
 31 33  1  0  0  0  0
 32 34  1  0  0  0  0
 33 30  1  0  0  0  0
 34 30  1  0  0  0  0
M  END
>  <MODEL>
6

>  <REMARK>
 VINA RESULT:      -8.1      2.765      5.110
  Name = 
  3 active torsions:
  status: ('A' for Active; 'I' for Inactive)
    1  A    between atoms: C_17  and  O_28
    2  A    between atoms: O_28  and  C_29
    3  A    between atoms: C_29  and  C_32
                            x       y       z     vdW  Elec       q    Type
                         _______ _______ _______ _____ _____    ______ ____

>  <TORSDO>
F 3

$$$$
=
 OpenBabel11112417523D

 34 41  0  0  1  0  0  0  0  0999 V2000
  189.9320  174.7500  142.1790 C   0  0  0  0  0  0  0  0  0  0  0  0
  188.8990  176.9080  142.9220 C   0  0  0  0  0  2  0  0  0  0  0  0
  193.6370  169.3690  143.7260 C   0  0  2  0  0  3  0  0  0  0  0  0
  190.4970  172.4170  142.0010 C   0  0  0  0  0  0  0  0  0  0  0  0
  191.8380  171.2370  143.8430 C   0  0  1  0  0  3  0  0  0  0  0  0
  194.1290  171.2930  142.9910 O   0  0  0  0  0  0  0  0  0  0  0  0
  194.5060  169.9790  142.6530 C   0  0  0  0  0  2  0  0  0  0  0  0
  191.9240  168.8830  141.8210 C   0  0  0  0  0  2  0  0  0  0  0  0
  191.0020  176.2360  143.9500 N   0  0  2  0  0  0  0  0  0  0  0  0
  190.7850  176.5090  147.1960 C   0  0  0  0  0  2  0  0  0  0  0  0
  191.5330  172.5080  144.6420 C   0  0  0  0  0  2  0  0  0  0  0  0
  190.8160  169.9130  141.9770 C   0  0  0  0  0  2  0  0  0  0  0  0
  191.2340  174.9750  144.6970 C   0  0  1  0  0  3  0  0  0  0  0  0
  189.2830  177.9610  143.9190 C   0  0  0  0  0  2  0  0  0  0  0  0
  191.4000  171.2640  142.3640 C   0  0  1  0  0  3  0  0  0  0  0  0
  192.5050  168.4730  143.1760 C   0  0  0  0  0  2  0  0  0  0  0  0
  189.7420  176.8540  146.1210 C   0  0  1  0  0  3  0  0  0  0  0  0
  190.6430  173.6490  142.6580 C   0  0  0  0  0  0  0  0  0  0  0  0
  193.3040  170.8180  144.0280 C   0  0  2  0  0  3  0  0  0  0  0  0
  191.5990  173.7860  143.8000 C   0  0  2  0  0  3  0  0  0  0  0  0
  188.9440  173.3920  140.5070 C   0  0  0  0  0  3  0  0  0  0  0  0
  192.2040  176.3590  146.6520 C   0  0  0  0  0  2  0  0  0  0  0  0
  189.6530  172.3190  140.9380 N   0  0  0  0  0  0  0  0  0  0  0  0
  192.3560  175.1450  145.7380 C   0  0  0  0  0  2  0  0  0  0  0  0
  190.3510  177.2990  144.7640 C   0  0  1  0  0  3  0  0  0  0  0  0
  189.0970  174.5960  141.1160 N   0  0  0  0  0  0  0  0  0  0  0  0
  190.1780  176.1280  142.7250 C   0  0  1  0  0  3  0  0  0  0  0  0
  188.8390  175.7970  145.9620 O   0  0  0  0  0  0  0  0  0  0  0  0
  187.8210  176.0410  146.8880 C   0  0  0  0  0  2  0  0  0  0  0  0
  184.6140  177.7200  146.3180 C   0  0  0  0  0  2  0  0  0  0  0  0
  186.6050  178.0690  147.6390 C   0  0  0  0  0  2  0  0  0  0  0  0
  186.9980  177.2360  146.4430 C   0  0  0  0  0  3  0  0  0  0  0  0
  185.2890  178.7030  147.2550 C   0  0  0  0  0  2  0  0  0  0  0  0
  185.6980  176.7900  145.8000 C   0  0  0  0  0  2  0  0  0  0  0  0
  1 18  1  0  0  0  0
  1 27  1  0  0  0  0
  2 14  1  0  0  0  0
  3  7  1  6  0  0  0
  3 19  1  0  0  0  0
  4 15  1  0  0  0  0
  4 18  2  0  0  0  0
  5 19  1  0  0  0  0
  5 11  1  6  0  0  0
  6 19  1  0  0  0  0
  7  6  1  0  0  0  0
  8 12  1  0  0  0  0
  8 16  1  0  0  0  0
  9 13  1  0  0  0  0
  9 25  1  0  0  0  0
 12 15  1  0  0  0  0
 13 24  1  0  0  0  0
 14 25  1  0  0  0  0
 15  5  1  0  0  0  0
 16  3  1  0  0  0  0
 17 10  1  0  0  0  0
 18 20  1  0  0  0  0
 20 11  1  0  0  0  0
 20 13  1  0  0  0  0
 21 23  2  0  0  0  0
 21 26  1  0  0  0  0
 22 10  1  0  0  0  0
 23  4  1  0  0  0  0
 24 22  1  0  0  0  0
 25 17  1  0  0  0  0
 26  1  2  0  0  0  0
 27  2  1  0  0  0  0
 27  9  1  0  0  0  0
 28 17  1  0  0  0  0
 28 29  1  0  0  0  0
 30 33  1  0  0  0  0
 32 29  1  0  0  0  0
 32 31  1  0  0  0  0
 33 31  1  0  0  0  0
 34 30  1  0  0  0  0
 34 32  1  0  0  0  0
M  END
>  <MODEL>
7

>  <REMARK>
 VINA RESULT:      -8.0      2.627      7.651
  Name = 
  3 active torsions:
  status: ('A' for Active; 'I' for Inactive)
    1  A    between atoms: C_17  and  O_28
    2  A    between atoms: O_28  and  C_29
    3  A    between atoms: C_29  and  C_32
                            x       y       z     vdW  Elec       q    Type
                         _______ _______ _______ _____ _____    ______ ____

>  <TORSDO>
F 3

$$$$
=
 OpenBabel11112417523D

 34 41  0  0  1  0  0  0  0  0999 V2000
  193.4970  175.2510  143.4420 C   0  0  0  0  0  0  0  0  0  0  0  0
  193.6670  176.5890  145.5530 C   0  0  0  0  0  2  0  0  0  0  0  0
  189.6900  171.5750  139.3100 C   0  0  2  0  0  3  0  0  0  0  0  0
  192.8340  174.4800  141.2600 C   0  0  0  0  0  0  0  0  0  0  0  0
  190.4990  173.4960  140.8590 C   0  0  1  0  0  3  0  0  0  0  0  0
  190.8770  171.0840  140.9930 O   0  0  0  0  0  0  0  0  0  0  0  0
  190.7140  170.5400  139.7040 C   0  0  0  0  0  2  0  0  0  0  0  0
  191.6380  172.7780  138.0620 C   0  0  0  0  0  2  0  0  0  0  0  0
  192.1050  174.7220  145.5080 N   0  0  2  0  0  0  0  0  0  0  0  0
  189.2050  175.6770  146.6650 C   0  0  0  0  0  2  0  0  0  0  0  0
  190.2050  174.0700  142.2490 C   0  0  0  0  0  2  0  0  0  0  0  0
  192.0210  173.9690  138.9260 C   0  0  0  0  0  2  0  0  0  0  0  0
  190.9740  174.5640  144.5600 C   0  0  1  0  0  3  0  0  0  0  0  0
  192.9920  176.5200  146.8910 C   0  0  0  0  0  2  0  0  0  0  0  0
  191.9680  173.5940  140.3990 C   0  0  1  0  0  3  0  0  0  0  0  0
  190.1380  172.4840  138.1430 C   0  0  0  0  0  2  0  0  0  0  0  0
  190.5110  176.4780  146.5370 C   0  0  1  0  0  3  0  0  0  0  0  0
  192.5760  174.5810  142.6360 C   0  0  0  0  0  0  0  0  0  0  0  0
  189.9200  172.0800  140.7220 C   0  0  2  0  0  3  0  0  0  0  0  0
  191.3730  173.9170  143.2280 C   0  0  2  0  0  3  0  0  0  0  0  0
  194.8210  175.7330  141.5370 C   0  0  0  0  0  3  0  0  0  0  0  0
  189.3980  174.1660  146.5680 C   0  0  0  0  0  2  0  0  0  0  0  0
  193.9540  175.0560  140.7430 N   0  0  0  0  0  0  0  0  0  0  0  0
  189.8450  173.7190  145.1780 C   0  0  0  0  0  2  0  0  0  0  0  0
  191.7980  175.6190  146.6560 C   0  0  1  0  0  3  0  0  0  0  0  0
  194.5980  175.8140  142.8730 N   0  0  0  0  0  0  0  0  0  0  0  0
  193.3680  175.2410  144.9390 C   0  0  1  0  0  3  0  0  0  0  0  0
  190.5020  177.2370  145.3610 O   0  0  0  0  0  0  0  0  0  0  0  0
  189.1980  177.7260  145.2500 C   0  0  0  0  0  2  0  0  0  0  0  0
  187.1290  178.2900  142.2780 C   0  0  0  0  0  2  0  0  0  0  0  0
  189.4260  177.7430  142.7790 C   0  0  0  0  0  2  0  0  0  0  0  0
  188.5870  177.2660  143.9390 C   0  0  0  0  0  3  0  0  0  0  0  0
  188.4520  177.9150  141.6380 C   0  0  0  0  0  2  0  0  0  0  0  0
  187.2120  177.8760  143.7370 C   0  0  0  0  0  2  0  0  0  0  0  0
  1 27  1  0  0  0  0
  2 14  1  0  0  0  0
  3 16  1  6  0  0  0
  3  7  1  0  0  0  0
  3 19  1  0  0  0  0
  4 18  1  0  0  0  0
  5 11  1  1  0  0  0
  7  6  1  0  0  0  0
  8 16  1  0  0  0  0
  8 12  1  0  0  0  0
  9 25  1  0  0  0  0
 11 20  1  0  0  0  0
 12 15  1  0  0  0  0
 13 24  1  0  0  0  0
 13  9  1  0  0  0  0
 15  5  1  0  0  0  0
 15  4  1  0  0  0  0
 17 25  1  0  0  0  0
 17 10  1  0  0  0  0
 18 20  1  0  0  0  0
 18  1  2  0  0  0  0
 19  5  1  0  0  0  0
 19  6  1  0  0  0  0
 20 13  1  0  0  0  0
 21 26  2  0  0  0  0
 22 10  1  0  0  0  0
 23  4  2  0  0  0  0
 23 21  1  0  0  0  0
 24 22  1  0  0  0  0
 25 14  1  0  0  0  0
 26  1  1  0  0  0  0
 27  9  1  0  0  0  0
 27  2  1  0  0  0  0
 28 17  1  0  0  0  0
 29 28  1  0  0  0  0
 30 34  1  0  0  0  0
 31 32  1  0  0  0  0
 32 29  1  0  0  0  0
 33 30  1  0  0  0  0
 33 31  1  0  0  0  0
 34 32  1  0  0  0  0
M  END
>  <MODEL>
8

>  <REMARK>
 VINA RESULT:      -7.8      2.737      6.546
  Name = 
  3 active torsions:
  status: ('A' for Active; 'I' for Inactive)
    1  A    between atoms: C_17  and  O_28
    2  A    between atoms: O_28  and  C_29
    3  A    between atoms: C_29  and  C_32
                            x       y       z     vdW  Elec       q    Type
                         _______ _______ _______ _____ _____    ______ ____

>  <TORSDO>
F 3

$$$$
=
 OpenBabel11112417523D

 34 41  0  0  1  0  0  0  0  0999 V2000
  192.3600  175.9490  145.9050 C   0  0  0  0  0  0  0  0  0  0  0  0
  190.0160  176.2580  146.7360 C   0  0  0  0  0  2  0  0  0  0  0  0
  196.4490  174.4650  140.7910 C   0  0  2  0  0  3  0  0  0  0  0  0
  194.4040  176.1940  144.6580 C   0  0  0  0  0  0  0  0  0  0  0  0
  194.5330  175.5260  142.1840 C   0  0  1  0  0  3  0  0  0  0  0  0
  195.4910  173.2780  142.2600 O   0  0  0  0  0  0  0  0  0  0  0  0
  196.7960  173.3370  141.7320 C   0  0  0  0  0  2  0  0  0  0  0  0
  197.5730  176.0410  142.5390 C   0  0  0  0  0  2  0  0  0  0  0  0
  190.3960  174.6230  144.9720 N   0  0  2  0  0  0  0  0  0  0  0  0
  188.2260  175.0600  142.5720 C   0  0  0  0  0  2  0  0  0  0  0  0
  193.0060  175.4610  142.2990 C   0  0  0  0  0  2  0  0  0  0  0  0
  196.4370  176.7430  143.2660 C   0  0  0  0  0  2  0  0  0  0  0  0
  190.9880  174.9090  143.6420 C   0  0  1  0  0  3  0  0  0  0  0  0
  188.6940  175.6420  146.3860 C   0  0  0  0  0  2  0  0  0  0  0  0
  195.2860  175.7780  143.5070 C   0  0  1  0  0  3  0  0  0  0  0  0
  197.2220  175.7730  141.0730 C   0  0  0  0  0  2  0  0  0  0  0  0
  188.3610  175.8100  143.9070 C   0  0  1  0  0  3  0  0  0  0  0  0
  193.0910  175.7060  144.7420 C   0  0  0  0  0  0  0  0  0  0  0  0
  195.0710  174.3160  141.4070 C   0  0  2  0  0  3  0  0  0  0  0  0
  192.5220  174.8810  143.6310 C   0  0  2  0  0  3  0  0  0  0  0  0
  194.1840  177.1650  146.8040 C   0  0  0  0  0  3  0  0  0  0  0  0
  188.9730  173.7290  142.5350 C   0  0  0  0  0  2  0  0  0  0  0  0
  194.9210  176.9100  145.6940 N   0  0  0  0  0  0  0  0  0  0  0  0
  190.4890  173.9070  142.5840 C   0  0  0  0  0  2  0  0  0  0  0  0
  188.9470  174.9530  145.0610 C   0  0  1  0  0  3  0  0  0  0  0  0
  192.9230  176.6760  146.9080 N   0  0  0  0  0  0  0  0  0  0  0  0
  191.0200  175.3070  146.1260 C   0  0  1  0  0  3  0  0  0  0  0  0
  189.0800  176.9970  143.7270 O   0  0  0  0  0  0  0  0  0  0  0  0
  188.1540  177.9150  143.2250 C   0  0  0  0  0  2  0  0  0  0  0  0
  185.2750  179.2140  145.0840 C   0  0  0  0  0  2  0  0  0  0  0  0
  185.6900  178.0940  142.9860 C   0  0  0  0  0  2  0  0  0  0  0  0
  186.8180  177.7300  143.9210 C   0  0  0  0  0  3  0  0  0  0  0  0
  184.5840  178.5930  143.8850 C   0  0  0  0  0  2  0  0  0  0  0  0
  186.6910  178.6650  145.1090 C   0  0  0  0  0  2  0  0  0  0  0  0
  1 27  1  0  0  0  0
  1 26  1  0  0  0  0
  3 16  1  1  0  0  0
  3 19  1  0  0  0  0
  3  7  1  0  0  0  0
  4 18  1  0  0  0  0
  4 23  2  0  0  0  0
  5 11  1  1  0  0  0
  5 15  1  0  0  0  0
  7  6  1  0  0  0  0
  8 12  1  0  0  0  0
  9 25  1  0  0  0  0
  9 27  1  0  0  0  0
 10 17  1  0  0  0  0
 11 20  1  0  0  0  0
 12 15  1  0  0  0  0
 13  9  1  0  0  0  0
 14  2  1  0  0  0  0
 15  4  1  0  0  0  0
 16  8  1  0  0  0  0
 17 25  1  0  0  0  0
 18  1  2  0  0  0  0
 19  5  1  0  0  0  0
 19  6  1  0  0  0  0
 20 13  1  0  0  0  0
 20 18  1  0  0  0  0
 21 26  2  0  0  0  0
 22 10  1  0  0  0  0
 22 24  1  0  0  0  0
 23 21  1  0  0  0  0
 24 13  1  0  0  0  0
 25 14  1  0  0  0  0
 27  2  1  0  0  0  0
 28 17  1  0  0  0  0
 29 28  1  0  0  0  0
 29 32  1  0  0  0  0
 30 34  1  0  0  0  0
 31 33  1  0  0  0  0
 31 32  1  0  0  0  0
 32 34  1  0  0  0  0
 33 30  1  0  0  0  0
M  END
>  <MODEL>
9

>  <REMARK>
 VINA RESULT:      -7.7      1.931      8.257
  Name = 
  3 active torsions:
  status: ('A' for Active; 'I' for Inactive)
    1  A    between atoms: C_17  and  O_28
    2  A    between atoms: O_28  and  C_29
    3  A    between atoms: C_29  and  C_32
                            x       y       z     vdW  Elec       q    Type
                         _______ _______ _______ _____ _____    ______ ____

>  <TORSDO>
F 3

$$$$
