=
 OpenBabel11112416243D

 30 35  0  0  1  0  0  0  0  0999 V2000
  187.1610  176.9280  144.0120 C   0  0  2  0  0  3  0  0  0  0  0  0
  185.6660  178.2860  145.5760 C   0  0  2  0  0  3  0  0  0  0  0  0
  189.7260  175.8910  147.2720 N   0  0  0  0  0  2  0  0  0  0  0  0
  188.5860  176.4020  143.7720 C   0  0  2  0  0  3  0  0  0  0  0  0
  186.7080  177.7040  142.7810 C   0  0  0  0  0  2  0  0  0  0  0  0
  187.9990  175.2840  140.2400 O   0  0  0  0  0  1  0  0  0  0  0  0
  191.1870  175.7980  142.8520 C   0  0  1  0  0  3  0  0  0  0  0  0
  188.0700  176.1870  141.3060 C   0  0  1  0  0  3  0  0  0  0  0  0
  191.4750  175.5680  144.2900 N   0  0  2  0  0  0  0  0  0  0  0  0
  190.6660  174.9730  146.6240 C   0  0  2  0  0  3  0  0  0  0  0  0
  186.6790  176.7780  141.5670 C   0  0  2  0  0  3  0  0  0  0  0  0
  188.6170  175.4720  142.5530 C   0  0  1  0  0  3  0  0  0  0  0  0
  185.6580  179.2070  146.7990 C   0  0  0  0  0  2  0  0  0  0  0  0
  192.6240  174.6580  144.2600 C   0  0  0  0  0  2  0  0  0  0  0  0
  192.4490  175.4830  142.1280 C   0  0  0  0  0  2  0  0  0  0  0  0
  184.8140  177.1980  145.7880 O   0  0  0  0  0  1  0  0  0  0  0  0
  189.1120  176.6350  146.1860 C   0  0  1  0  0  3  0  0  0  0  0  0
  186.2870  178.5220  148.0130 C   0  0  0  0  0  2  0  0  0  0  0  0
  187.0970  177.8120  145.2760 C   0  0  1  0  0  3  0  0  0  0  0  0
  189.0540  175.6800  145.0350 C   0  0  2  0  0  3  0  0  0  0  0  0
  192.0860  175.3220  147.0520 C   0  0  0  0  0  1  0  0  0  0  0  0
  190.3910  174.9440  145.0930 C   0  0  1  0  0  3  0  0  0  0  0  0
  193.2660  174.8340  142.9330 C   0  0  0  0  0  2  0  0  0  0  0  0
  190.1990  173.9260  141.7400 O   0  0  0  0  0  0  0  0  0  0  0  0
  187.7100  178.0720  147.6940 C   0  0  0  0  0  2  0  0  0  0  0  0
  187.6990  177.1050  146.5120 C   0  0  2  0  0  3  0  0  0  0  0  0
  190.0200  174.9940  142.3080 C   0  0  0  0  0  0  0  0  0  0  0  0
  186.2050  177.5570  140.3500 C   0  0  0  0  0  2  0  0  0  0  0  0
  183.6370  177.6850  139.9000 O   0  0  0  0  0  0  0  0  0  0  0  0
  184.6750  178.4330  140.7240 S   0  0  0  0  0  3  0  0  0  0  0  0
  1  5  1  6  0  0  0
  1 19  1  0  0  0  0
  2 16  1  1  0  0  0
  2 13  1  0  0  0  0
  4  1  1  0  0  0  0
  4 20  1  0  0  0  0
  6  8  1  0  0  0  0
  7  9  1  0  0  0  0
  8 11  1  0  0  0  0
  8 12  1  0  0  0  0
  9 22  1  0  0  0  0
 10 21  1  0  0  0  0
 10  3  1  0  0  0  0
 11  5  1  0  0  0  0
 12  4  1  0  0  0  0
 13 18  1  0  0  0  0
 14  9  1  0  0  0  0
 15  7  1  0  0  0  0
 15 23  1  0  0  0  0
 17 26  1  0  0  0  0
 17  3  1  0  0  0  0
 19  2  1  0  0  0  0
 19 26  1  0  0  0  0
 20 22  1  0  0  0  0
 20 17  1  0  0  0  0
 22 10  1  0  0  0  0
 23 14  1  0  0  0  0
 24 27  2  0  0  0  0
 25 18  1  0  0  0  0
 26 25  1  0  0  0  0
 27 12  1  0  0  0  0
 27  7  1  0  0  0  0
 28 30  1  0  0  0  0
 28 11  1  0  0  0  0
 29 30  2  0  0  0  0
M  END
>  <MODEL>
1

>  <REMARK>
 VINA RESULT:      -8.6      0.000      0.000
  Name = 
  2 active torsions:
  status: ('A' for Active; 'I' for Inactive)
    1  A    between atoms: C_11  and  C_28
    2  A    between atoms: C_28  and  S_30
                            x       y       z     vdW  Elec       q    Type
                         _______ _______ _______ _____ _____    ______ ____

>  <TORSDO>
F 2

$$$$
=
 OpenBabel11112416243D

 30 35  0  0  1  0  0  0  0  0999 V2000
  188.4070  175.8320  143.1410 C   0  0  2  0  0  3  0  0  0  0  0  0
  189.9610  174.4680  144.6410 C   0  0  2  0  0  3  0  0  0  0  0  0
  186.8660  177.9190  146.5410 N   0  0  0  0  0  2  0  0  0  0  0  0
  187.0770  176.6020  143.0720 C   0  0  2  0  0  3  0  0  0  0  0  0
  188.4280  174.7840  142.0360 C   0  0  0  0  0  2  0  0  0  0  0  0
  187.0320  176.9650  139.3390 O   0  0  0  0  0  1  0  0  0  0  0  0
  184.4790  177.5820  142.5570 C   0  0  1  0  0  3  0  0  0  0  0  0
  187.0490  176.2880  140.5630 C   0  0  1  0  0  3  0  0  0  0  0  0
  184.5690  178.1040  143.9440 N   0  0  2  0  0  0  0  0  0  0  0  0
  185.9760  178.8950  145.9060 C   0  0  2  0  0  3  0  0  0  0  0  0
  188.3410  175.4670  140.6730 C   0  0  2  0  0  3  0  0  0  0  0  0
  186.9310  177.3000  141.7140 C   0  0  1  0  0  3  0  0  0  0  0  0
  190.0870  173.7840  146.0040 C   0  0  0  0  0  2  0  0  0  0  0  0
  183.6170  179.2200  143.9430 C   0  0  0  0  0  2  0  0  0  0  0  0
  183.1590  178.0330  142.0360 C   0  0  0  0  0  2  0  0  0  0  0  0
  191.0130  175.3700  144.4570 O   0  0  0  0  0  1  0  0  0  0  0  0
  187.0810  176.8920  145.5370 C   0  0  1  0  0  3  0  0  0  0  0  0
  189.8780  174.7790  147.1460 C   0  0  0  0  0  2  0  0  0  0  0  0
  188.6030  175.1780  144.5260 C   0  0  1  0  0  3  0  0  0  0  0  0
  187.0390  177.6070  144.2220 C   0  0  2  0  0  3  0  0  0  0  0  0
  184.6520  178.9310  146.6580 C   0  0  0  0  0  1  0  0  0  0  0  0
  185.8980  178.6090  144.3780 C   0  0  1  0  0  3  0  0  0  0  0  0
  182.6710  178.9650  142.8280 C   0  0  0  0  0  2  0  0  0  0  0  0
  185.4960  178.9890  140.9130 O   0  0  0  0  0  0  0  0  0  0  0  0
  188.5190  175.4620  147.0170 C   0  0  0  0  0  2  0  0  0  0  0  0
  188.4280  176.1940  145.6790 C   0  0  2  0  0  3  0  0  0  0  0  0
  185.6130  178.0170  141.6460 C   0  0  0  0  0  0  0  0  0  0  0  0
  188.3850  174.4140  139.5770 C   0  0  0  0  0  2  0  0  0  0  0  0
  188.8610  171.8980  139.0670 O   0  0  0  0  0  0  0  0  0  0  0  0
  189.0720  172.8750  140.2150 S   0  0  0  0  0  3  0  0  0  0  0  0
  1  5  1  6  0  0  0
  1 19  1  0  0  0  0
  2 16  1  1  0  0  0
  2 13  1  0  0  0  0
  4  1  1  0  0  0  0
  4 20  1  0  0  0  0
  6  8  1  0  0  0  0
  7  9  1  0  0  0  0
  8 11  1  0  0  0  0
  8 12  1  0  0  0  0
  9 22  1  0  0  0  0
 10  3  1  0  0  0  0
 10 21  1  0  0  0  0
 11  5  1  0  0  0  0
 12  4  1  0  0  0  0
 13 18  1  0  0  0  0
 14  9  1  0  0  0  0
 15  7  1  0  0  0  0
 15 23  1  0  0  0  0
 17 26  1  0  0  0  0
 17  3  1  0  0  0  0
 19  2  1  0  0  0  0
 19 26  1  0  0  0  0
 20 22  1  0  0  0  0
 20 17  1  0  0  0  0
 22 10  1  0  0  0  0
 23 14  1  0  0  0  0
 24 27  2  0  0  0  0
 25 18  1  0  0  0  0
 26 25  1  0  0  0  0
 27 12  1  0  0  0  0
 27  7  1  0  0  0  0
 28 30  1  0  0  0  0
 28 11  1  0  0  0  0
 29 30  2  0  0  0  0
M  END
>  <MODEL>
2

>  <REMARK>
 VINA RESULT:      -7.5      2.692      5.799
  Name = 
  2 active torsions:
  status: ('A' for Active; 'I' for Inactive)
    1  A    between atoms: C_11  and  C_28
    2  A    between atoms: C_28  and  S_30
                            x       y       z     vdW  Elec       q    Type
                         _______ _______ _______ _____ _____    ______ ____

>  <TORSDO>
F 2

$$$$
=
 OpenBabel11112416243D

 30 35  0  0  1  0  0  0  0  0999 V2000
  188.2870  175.5920  142.9800 C   0  0  2  0  0  3  0  0  0  0  0  0
  186.3710  177.2770  142.8420 C   0  0  2  0  0  3  0  0  0  0  0  0
  189.1600  176.8280  146.9800 N   0  0  0  0  0  2  0  0  0  0  0  0
  189.6390  175.2720  143.6390 C   0  0  2  0  0  3  0  0  0  0  0  0
  188.4500  175.5380  141.4670 C   0  0  0  0  0  2  0  0  0  0  0  0
  190.5170  172.4250  141.3610 O   0  0  0  0  0  1  0  0  0  0  0  0
  192.3360  174.7430  144.2880 C   0  0  1  0  0  3  0  0  0  0  0  0
  190.1970  173.7420  141.7040 C   0  0  1  0  0  3  0  0  0  0  0  0
  191.9740  175.3340  145.6010 N   0  0  2  0  0  0  0  0  0  0  0  0
  190.2180  175.8860  147.3530 C   0  0  2  0  0  3  0  0  0  0  0  0
  188.8700  174.1330  141.0400 C   0  0  2  0  0  3  0  0  0  0  0  0
  190.1150  173.8710  143.2340 C   0  0  1  0  0  3  0  0  0  0  0  0
  185.9140  178.6750  143.2630 C   0  0  0  0  0  2  0  0  0  0  0  0
  192.9630  174.7500  146.5140 C   0  0  0  0  0  2  0  0  0  0  0  0
  193.7600  174.3260  144.4070 C   0  0  0  0  0  2  0  0  0  0  0  0
  185.4350  176.3220  143.2500 O   0  0  0  0  0  1  0  0  0  0  0  0
  189.1140  176.7930  145.5290 C   0  0  1  0  0  3  0  0  0  0  0  0
  185.9230  178.8270  144.7840 C   0  0  0  0  0  2  0  0  0  0  0  0
  187.7580  176.9710  143.4300 C   0  0  1  0  0  3  0  0  0  0  0  0
  189.4790  175.3900  145.1540 C   0  0  2  0  0  3  0  0  0  0  0  0
  191.3460  176.6440  148.0400 C   0  0  0  0  0  1  0  0  0  0  0  0
  190.6120  175.0310  146.1130 C   0  0  1  0  0  3  0  0  0  0  0  0
  194.1140  174.3310  145.6760 C   0  0  0  0  0  2  0  0  0  0  0  0
  191.7800  172.4270  144.0700 O   0  0  0  0  0  0  0  0  0  0  0  0
  187.3120  178.5310  145.3420 C   0  0  0  0  0  2  0  0  0  0  0  0
  187.7320  177.1110  144.9700 C   0  0  2  0  0  3  0  0  0  0  0  0
  191.4530  173.5860  143.8540 C   0  0  0  0  0  0  0  0  0  0  0  0
  189.0090  174.0850  139.5270 C   0  0  0  0  0  2  0  0  0  0  0  0
  189.4330  171.8410  138.2620 O   0  0  0  0  0  0  0  0  0  0  0  0
  188.2550  172.5820  138.8780 S   0  0  0  0  0  3  0  0  0  0  0  0
  1  5  1  6  0  0  0
  1 19  1  0  0  0  0
  1  4  1  0  0  0  0
  2 16  1  1  0  0  0
  2 13  1  0  0  0  0
  2 19  1  0  0  0  0
  3 10  1  0  0  0  0
  4 20  1  0  0  0  0
  6  8  1  0  0  0  0
  7 15  1  0  0  0  0
  7  9  1  0  0  0  0
  8 12  1  0  0  0  0
  9 22  1  0  0  0  0
  9 14  1  0  0  0  0
 10 21  1  0  0  0  0
 11  5  1  0  0  0  0
 11  8  1  0  0  0  0
 12  4  1  0  0  0  0
 12 27  1  0  0  0  0
 13 18  1  0  0  0  0
 15 23  1  0  0  0  0
 17  3  1  0  0  0  0
 18 25  1  0  0  0  0
 19 26  1  0  0  0  0
 20 17  1  0  0  0  0
 20 22  1  0  0  0  0
 22 10  1  0  0  0  0
 23 14  1  0  0  0  0
 26 25  1  0  0  0  0
 26 17  1  0  0  0  0
 27 24  2  0  0  0  0
 27  7  1  0  0  0  0
 28 11  1  0  0  0  0
 29 30  2  0  0  0  0
 30 28  1  0  0  0  0
M  END
>  <MODEL>
3

>  <REMARK>
 VINA RESULT:      -7.3      2.208      3.200
  Name = 
  2 active torsions:
  status: ('A' for Active; 'I' for Inactive)
    1  A    between atoms: C_11  and  C_28
    2  A    between atoms: C_28  and  S_30
                            x       y       z     vdW  Elec       q    Type
                         _______ _______ _______ _____ _____    ______ ____

>  <TORSDO>
F 2

$$$$
=
 OpenBabel11112416243D

 30 35  0  0  1  0  0  0  0  0999 V2000
  188.6780  175.0180  141.9950 C   0  0  2  0  0  3  0  0  0  0  0  0
  188.2730  173.5510  139.9420 C   0  0  2  0  0  3  0  0  0  0  0  0
  192.4730  173.1570  142.6450 N   0  0  0  0  0  2  0  0  0  0  0  0
  189.3960  175.1170  143.3520 C   0  0  2  0  0  3  0  0  0  0  0  0
  187.1900  175.2690  142.2040 C   0  0  0  0  0  2  0  0  0  0  0  0
  187.5600  178.1640  144.5410 O   0  0  0  0  0  1  0  0  0  0  0  0
  190.1540  175.3010  146.0660 C   0  0  1  0  0  3  0  0  0  0  0  0
  187.7070  176.8460  144.0950 C   0  0  1  0  0  3  0  0  0  0  0  0
  191.3630  174.5670  145.6170 N   0  0  2  0  0  0  0  0  0  0  0  0
  192.9920  173.9370  143.7720 C   0  0  2  0  0  3  0  0  0  0  0  0
  186.9750  176.6750  142.7580 C   0  0  2  0  0  3  0  0  0  0  0  0
  189.2020  176.5110  143.9610 C   0  0  1  0  0  3  0  0  0  0  0  0
  188.4840  172.1550  139.3520 C   0  0  0  0  0  2  0  0  0  0  0  0
  192.3650  174.9230  146.6280 C   0  0  0  0  0  2  0  0  0  0  0  0
  190.3520  175.5650  147.5180 C   0  0  0  0  0  2  0  0  0  0  0  0
  188.7990  174.5210  139.0830 O   0  0  0  0  0  1  0  0  0  0  0  0
  191.0410  173.4000  142.6420 C   0  0  1  0  0  3  0  0  0  0  0  0
  189.9680  171.7910  139.3060 C   0  0  0  0  0  2  0  0  0  0  0  0
  188.9190  173.6430  141.3340 C   0  0  1  0  0  3  0  0  0  0  0  0
  190.8760  174.8020  143.1400 C   0  0  2  0  0  3  0  0  0  0  0  0
  193.5810  172.9900  144.8090 C   0  0  0  0  0  1  0  0  0  0  0  0
  191.8920  174.9180  144.2740 C   0  0  1  0  0  3  0  0  0  0  0  0
  191.6120  175.3490  147.8340 C   0  0  0  0  0  2  0  0  0  0  0  0
  190.2590  177.6650  145.7230 O   0  0  0  0  0  0  0  0  0  0  0  0
  190.5830  171.8770  140.7000 C   0  0  0  0  0  2  0  0  0  0  0  0
  190.4220  173.2910  141.2540 C   0  0  2  0  0  3  0  0  0  0  0  0
  189.8760  176.5830  145.3010 C   0  0  0  0  0  0  0  0  0  0  0  0
  185.4860  176.9230  142.9430 C   0  0  0  0  0  2  0  0  0  0  0  0
  186.0410  178.2700  140.7760 O   0  0  0  0  0  0  0  0  0  0  0  0
  184.9180  178.1970  141.8010 S   0  0  0  0  0  3  0  0  0  0  0  0
  1  5  1  1  0  0  0
  1  4  1  0  0  0  0
  2 16  1  6  0  0  0
  2 19  1  0  0  0  0
  3 10  1  0  0  0  0
  4 12  1  0  0  0  0
  5 11  1  0  0  0  0
  7 15  1  0  0  0  0
  8  6  1  0  0  0  0
  9  7  1  0  0  0  0
  9 14  1  0  0  0  0
 10 22  1  0  0  0  0
 10 21  1  0  0  0  0
 11 28  1  0  0  0  0
 11  8  1  0  0  0  0
 12  8  1  0  0  0  0
 12 27  1  0  0  0  0
 13  2  1  0  0  0  0
 14 23  1  0  0  0  0
 15 23  1  0  0  0  0
 17  3  1  0  0  0  0
 17 20  1  0  0  0  0
 18 13  1  0  0  0  0
 18 25  1  0  0  0  0
 19  1  1  0  0  0  0
 20  4  1  0  0  0  0
 20 22  1  0  0  0  0
 22  9  1  0  0  0  0
 25 26  1  0  0  0  0
 26 19  1  0  0  0  0
 26 17  1  0  0  0  0
 27 24  2  0  0  0  0
 27  7  1  0  0  0  0
 29 30  2  0  0  0  0
 30 28  1  0  0  0  0
M  END
>  <MODEL>
4

>  <REMARK>
 VINA RESULT:      -7.2      2.265      5.343
  Name = 
  2 active torsions:
  status: ('A' for Active; 'I' for Inactive)
    1  A    between atoms: C_11  and  C_28
    2  A    between atoms: C_28  and  S_30
                            x       y       z     vdW  Elec       q    Type
                         _______ _______ _______ _____ _____    ______ ____

>  <TORSDO>
F 2

$$$$
=
 OpenBabel11112416243D

 30 35  0  0  1  0  0  0  0  0999 V2000
  188.6240  174.6200  142.5420 C   0  0  2  0  0  3  0  0  0  0  0  0
  186.8860  176.4910  142.4650 C   0  0  2  0  0  3  0  0  0  0  0  0
  190.2630  176.2140  146.1560 N   0  0  0  0  0  2  0  0  0  0  0  0
  190.0290  174.2240  143.0260 C   0  0  2  0  0  3  0  0  0  0  0  0
  188.5290  174.3660  141.0430 C   0  0  0  0  0  2  0  0  0  0  0  0
  190.2360  171.0400  141.0540 O   0  0  0  0  0  1  0  0  0  0  0  0
  192.7320  173.4600  143.3270 C   0  0  1  0  0  3  0  0  0  0  0  0
  190.1070  172.4170  141.2580 C   0  0  1  0  0  3  0  0  0  0  0  0
  192.6510  174.2430  144.5860 N   0  0  2  0  0  0  0  0  0  0  0  0
  191.2710  175.2050  146.4900 C   0  0  2  0  0  3  0  0  0  0  0  0
  188.7330  172.8810  140.7550 C   0  0  2  0  0  3  0  0  0  0  0  0
  190.2930  172.7380  142.7500 C   0  0  1  0  0  3  0  0  0  0  0  0
  186.6440  177.9740  142.7540 C   0  0  0  0  0  2  0  0  0  0  0  0
  193.7150  173.6600  145.4100 C   0  0  0  0  0  2  0  0  0  0  0  0
  194.1080  172.8950  143.2850 C   0  0  0  0  0  2  0  0  0  0  0  0
  185.9420  175.7090  143.1370 O   0  0  0  0  0  1  0  0  0  0  0  0
  189.9750  176.0110  144.7470 C   0  0  1  0  0  3  0  0  0  0  0  0
  186.9190  178.3050  144.2220 C   0  0  0  0  0  2  0  0  0  0  0  0
  188.3140  176.0960  142.8730 C   0  0  1  0  0  3  0  0  0  0  0  0
  190.1340  174.5410  144.5170 C   0  0  2  0  0  3  0  0  0  0  0  0
  192.5660  175.9010  146.8880 C   0  0  0  0  0  1  0  0  0  0  0  0
  191.3700  174.1670  145.3340 C   0  0  1  0  0  3  0  0  0  0  0  0
  194.6660  173.0110  144.4730 C   0  0  0  0  0  2  0  0  0  0  0  0
  191.9240  171.2180  143.5150 O   0  0  0  0  0  0  0  0  0  0  0  0
  188.3460  177.9160  144.5980 C   0  0  0  0  0  2  0  0  0  0  0  0
  188.5570  176.4220  144.3650 C   0  0  2  0  0  3  0  0  0  0  0  0
  191.6800  172.3730  143.1940 C   0  0  0  0  0  0  0  0  0  0  0  0
  188.6150  172.6350  139.2590 C   0  0  0  0  0  2  0  0  0  0  0  0
  189.1350  174.1650  137.2090 O   0  0  0  0  0  0  0  0  0  0  0  0
  188.1940  174.1660  138.4050 S   0  0  0  0  0  3  0  0  0  0  0  0
  1  5  1  6  0  0  0
  1 19  1  0  0  0  0
  1  4  1  0  0  0  0
  2 13  1  0  0  0  0
  2 19  1  0  0  0  0
  2 16  1  1  0  0  0
  3 10  1  0  0  0  0
  4 20  1  0  0  0  0
  6  8  1  0  0  0  0
  7  9  1  0  0  0  0
  8 12  1  0  0  0  0
  9 22  1  0  0  0  0
  9 14  1  0  0  0  0
 10 21  1  0  0  0  0
 11  5  1  0  0  0  0
 11  8  1  0  0  0  0
 12  4  1  0  0  0  0
 12 27  1  0  0  0  0
 13 18  1  0  0  0  0
 15  7  1  0  0  0  0
 15 23  1  0  0  0  0
 17  3  1  0  0  0  0
 18 25  1  0  0  0  0
 19 26  1  0  0  0  0
 20 17  1  0  0  0  0
 20 22  1  0  0  0  0
 22 10  1  0  0  0  0
 23 14  1  0  0  0  0
 26 25  1  0  0  0  0
 26 17  1  0  0  0  0
 27  7  1  0  0  0  0
 27 24  2  0  0  0  0
 28 11  1  0  0  0  0
 29 30  2  0  0  0  0
 30 28  1  0  0  0  0
M  END
>  <MODEL>
5

>  <REMARK>
 VINA RESULT:      -7.0      2.370      3.540
  Name = 
  2 active torsions:
  status: ('A' for Active; 'I' for Inactive)
    1  A    between atoms: C_11  and  C_28
    2  A    between atoms: C_28  and  S_30
                            x       y       z     vdW  Elec       q    Type
                         _______ _______ _______ _____ _____    ______ ____

>  <TORSDO>
F 2

$$$$
=
 OpenBabel11112416243D

 30 35  0  0  1  0  0  0  0  0999 V2000
  190.5320  175.5290  144.6350 C   0  0  2  0  0  3  0  0  0  0  0  0
  192.2740  176.4210  146.2770 C   0  0  2  0  0  3  0  0  0  0  0  0
  193.2270  172.4680  143.3500 N   0  0  0  0  0  2  0  0  0  0  0  0
  190.3160  174.7780  143.3100 C   0  0  2  0  0  3  0  0  0  0  0  0
  189.7980  176.8630  144.5710 C   0  0  0  0  0  2  0  0  0  0  0  0
  186.6600  175.5610  143.0090 O   0  0  0  0  0  1  0  0  0  0  0  0
  189.6930  173.9250  140.6910 C   0  0  1  0  0  3  0  0  0  0  0  0
  188.0280  175.8360  143.1060 C   0  0  1  0  0  3  0  0  0  0  0  0
  190.8470  173.0100  140.8810 N   0  0  2  0  0  0  0  0  0  0  0  0
  192.3840  171.7050  142.4270 C   0  0  2  0  0  3  0  0  0  0  0  0
  188.3000  176.6230  144.3950 C   0  0  2  0  0  3  0  0  0  0  0  0
  188.8230  174.5200  143.0760 C   0  0  1  0  0  3  0  0  0  0  0  0
  193.7690  176.6640  146.4910 C   0  0  0  0  0  2  0  0  0  0  0  0
  190.5680  171.9200  139.9410 C   0  0  0  0  0  2  0  0  0  0  0  0
  189.1450  173.6150  139.3420 C   0  0  0  0  0  2  0  0  0  0  0  0
  191.7580  175.6480  147.3220 O   0  0  0  0  0  1  0  0  0  0  0  0
  192.5710  173.7570  143.4860 C   0  0  1  0  0  3  0  0  0  0  0  0
  194.5660  175.3640  146.3700 C   0  0  0  0  0  2  0  0  0  0  0  0
  192.0340  175.7390  144.9210 C   0  0  1  0  0  3  0  0  0  0  0  0
  191.1070  173.4720  143.3600 C   0  0  2  0  0  3  0  0  0  0  0  0
  193.1710  171.4040  141.1580 C   0  0  0  0  0  1  0  0  0  0  0  0
  191.0230  172.4370  142.2410 C   0  0  1  0  0  3  0  0  0  0  0  0
  189.6450  172.4720  138.9170 C   0  0  0  0  0  2  0  0  0  0  0  0
  187.6380  173.1110  141.6040 O   0  0  0  0  0  0  0  0  0  0  0  0
  194.3210  174.7140  145.0110 C   0  0  0  0  0  2  0  0  0  0  0  0
  192.8330  174.4180  144.8340 C   0  0  2  0  0  3  0  0  0  0  0  0
  188.6230  173.8180  141.7630 C   0  0  0  0  0  0  0  0  0  0  0  0
  187.5750  177.9590  144.3540 C   0  0  0  0  0  2  0  0  0  0  0  0
  186.5140  176.7120  146.3870 O   0  0  0  0  0  0  0  0  0  0  0  0
  186.3350  178.0370  145.6600 S   0  0  0  0  0  3  0  0  0  0  0  0
  1  5  1  6  0  0  0
  1 19  1  0  0  0  0
  2 13  1  0  0  0  0
  2 16  1  1  0  0  0
  3 17  1  0  0  0  0
  4 20  1  0  0  0  0
  4  1  1  0  0  0  0
  6  8  1  0  0  0  0
  7  9  1  0  0  0  0
  7 27  1  0  0  0  0
  8 11  1  0  0  0  0
  9 22  1  0  0  0  0
 10  3  1  0  0  0  0
 11  5  1  0  0  0  0
 12  8  1  0  0  0  0
 12  4  1  0  0  0  0
 14  9  1  0  0  0  0
 15  7  1  0  0  0  0
 17 26  1  0  0  0  0
 18 13  1  0  0  0  0
 19  2  1  0  0  0  0
 20 17  1  0  0  0  0
 21 10  1  0  0  0  0
 22 10  1  0  0  0  0
 22 20  1  0  0  0  0
 23 15  1  0  0  0  0
 23 14  1  0  0  0  0
 24 27  2  0  0  0  0
 25 18  1  0  0  0  0
 26 19  1  0  0  0  0
 26 25  1  0  0  0  0
 27 12  1  0  0  0  0
 28 11  1  0  0  0  0
 28 30  1  0  0  0  0
 30 29  2  0  0  0  0
M  END
>  <MODEL>
6

>  <REMARK>
 VINA RESULT:      -7.0      2.791      5.289
  Name = 
  2 active torsions:
  status: ('A' for Active; 'I' for Inactive)
    1  A    between atoms: C_11  and  C_28
    2  A    between atoms: C_28  and  S_30
                            x       y       z     vdW  Elec       q    Type
                         _______ _______ _______ _____ _____    ______ ____

>  <TORSDO>
F 2

$$$$
=
 OpenBabel11112416243D

 30 35  0  0  1  0  0  0  0  0999 V2000
  191.1480  173.8280  142.6620 C   0  0  2  0  0  3  0  0  0  0  0  0
  192.9370  172.0060  142.5570 C   0  0  2  0  0  3  0  0  0  0  0  0
  192.6940  175.2090  146.4020 N   0  0  0  0  0  2  0  0  0  0  0  0
  190.3100  174.7190  143.5940 C   0  0  2  0  0  3  0  0  0  0  0  0
  190.2110  173.0680  141.7320 C   0  0  0  0  0  2  0  0  0  0  0  0
  187.9530  175.9420  140.9450 O   0  0  0  0  0  1  0  0  0  0  0  0
  188.3080  176.0430  145.0820 C   0  0  1  0  0  3  0  0  0  0  0  0
  188.6000  175.0010  141.7520 C   0  0  1  0  0  3  0  0  0  0  0  0
  189.3870  176.2170  146.0860 N   0  0  2  0  0  0  0  0  0  0  0  0
  191.8600  176.3880  146.6460 C   0  0  2  0  0  3  0  0  0  0  0  0
  189.4250  174.0540  140.8710 C   0  0  2  0  0  3  0  0  0  0  0  0
  189.4880  175.7250  142.7780 C   0  0  1  0  0  3  0  0  0  0  0  0
  193.7510  171.0150  143.3920 C   0  0  0  0  0  2  0  0  0  0  0  0
  188.9480  177.3910  146.8490 C   0  0  0  0  0  2  0  0  0  0  0  0
  187.1130  176.7300  145.6440 C   0  0  0  0  0  2  0  0  0  0  0  0
  193.7920  172.8190  141.8060 O   0  0  0  0  0  1  0  0  0  0  0  0
  191.9680  174.4270  145.4170 C   0  0  1  0  0  3  0  0  0  0  0  0
  194.5620  171.7340  144.4710 C   0  0  0  0  0  2  0  0  0  0  0  0
  192.0350  172.8540  143.4680 C   0  0  1  0  0  3  0  0  0  0  0  0
  191.2550  175.4280  144.5630 C   0  0  2  0  0  3  0  0  0  0  0  0
  191.3870  176.3790  148.0940 C   0  0  0  0  0  1  0  0  0  0  0  0
  190.7520  176.4740  145.5560 C   0  0  1  0  0  3  0  0  0  0  0  0
  187.4810  177.4960  146.6510 C   0  0  0  0  0  2  0  0  0  0  0  0
  188.3110  177.6870  143.3450 O   0  0  0  0  0  0  0  0  0  0  0  0
  193.6440  172.5580  145.3690 C   0  0  0  0  0  2  0  0  0  0  0  0
  192.8830  173.5860  144.5340 C   0  0  2  0  0  3  0  0  0  0  0  0
  188.6470  176.5650  143.6970 C   0  0  0  0  0  0  0  0  0  0  0  0
  188.5090  173.2860  139.9310 C   0  0  0  0  0  2  0  0  0  0  0  0
  190.3470  172.8630  138.1270 O   0  0  0  0  0  0  0  0  0  0  0  0
  189.4440  172.0360  139.0300 S   0  0  0  0  0  3  0  0  0  0  0  0
  1  5  1  6  0  0  0
  1 19  1  0  0  0  0
  1  4  1  0  0  0  0
  2 16  1  1  0  0  0
  2 13  1  0  0  0  0
  2 19  1  0  0  0  0
  3 10  1  0  0  0  0
  4 20  1  0  0  0  0
  6  8  1  0  0  0  0
  7 15  1  0  0  0  0
  7  9  1  0  0  0  0
  8 12  1  0  0  0  0
  9 14  1  0  0  0  0
 10 21  1  0  0  0  0
 11  5  1  0  0  0  0
 11  8  1  0  0  0  0
 12  4  1  0  0  0  0
 12 27  1  0  0  0  0
 13 18  1  0  0  0  0
 15 23  1  0  0  0  0
 17  3  1  0  0  0  0
 18 25  1  0  0  0  0
 19 26  1  0  0  0  0
 20 17  1  0  0  0  0
 20 22  1  0  0  0  0
 22  9  1  0  0  0  0
 22 10  1  0  0  0  0
 23 14  1  0  0  0  0
 24 27  2  0  0  0  0
 26 25  1  0  0  0  0
 26 17  1  0  0  0  0
 27  7  1  0  0  0  0
 28 11  1  0  0  0  0
 29 30  2  0  0  0  0
 30 28  1  0  0  0  0
M  END
>  <MODEL>
7

>  <REMARK>
 VINA RESULT:      -6.9      2.608      6.093
  Name = 
  2 active torsions:
  status: ('A' for Active; 'I' for Inactive)
    1  A    between atoms: C_11  and  C_28
    2  A    between atoms: C_28  and  S_30
                            x       y       z     vdW  Elec       q    Type
                         _______ _______ _______ _____ _____    ______ ____

>  <TORSDO>
F 2

$$$$
=
 OpenBabel11112416243D

 30 35  0  0  1  0  0  0  0  0999 V2000
  189.2390  175.7600  144.1160 C   0  0  2  0  0  3  0  0  0  0  0  0
  189.7400  176.6640  146.4530 C   0  0  2  0  0  3  0  0  0  0  0  0
  191.8650  172.4500  144.7720 N   0  0  0  0  0  2  0  0  0  0  0  0
  189.7820  174.9260  142.9430 C   0  0  2  0  0  3  0  0  0  0  0  0
  188.8170  177.1280  143.5940 C   0  0  0  0  0  2  0  0  0  0  0  0
  187.1140  175.9080  140.4970 O   0  0  0  0  0  1  0  0  0  0  0  0
  190.7590  173.9160  140.4930 C   0  0  1  0  0  3  0  0  0  0  0  0
  188.1750  176.1040  141.3860 C   0  0  1  0  0  3  0  0  0  0  0  0
  191.4810  172.9500  141.3580 N   0  0  2  0  0  0  0  0  0  0  0  0
  191.6670  171.6720  143.5460 C   0  0  2  0  0  3  0  0  0  0  0  0
  187.7020  176.9680  142.5630 C   0  0  2  0  0  3  0  0  0  0  0  0
  188.7030  174.7430  141.8690 C   0  0  1  0  0  3  0  0  0  0  0  0
  190.8300  176.8290  147.5130 C   0  0  0  0  0  2  0  0  0  0  0  0
  191.7130  171.8110  140.4630 C   0  0  0  0  0  2  0  0  0  0  0  0
  191.0920  173.5400  139.0920 C   0  0  0  0  0  2  0  0  0  0  0  0
  188.6340  176.0050  146.9990 O   0  0  0  0  0  1  0  0  0  0  0  0
  191.3820  173.7830  144.4580 C   0  0  1  0  0  3  0  0  0  0  0  0
  191.4160  175.4770  147.9230 C   0  0  0  0  0  2  0  0  0  0  0  0
  190.2890  175.8980  145.2390 C   0  0  1  0  0  3  0  0  0  0  0  0
  190.2600  173.5800  143.4880 C   0  0  2  0  0  3  0  0  0  0  0  0
  193.0210  171.2280  143.0080 C   0  0  0  0  0  1  0  0  0  0  0  0
  190.7600  172.4710  142.5650 C   0  0  1  0  0  3  0  0  0  0  0  0
  191.6360  172.3400  139.0790 C   0  0  0  0  0  2  0  0  0  0  0  0
  188.4980  173.3030  140.0140 O   0  0  0  0  0  0  0  0  0  0  0  0
  191.9660  174.7420  146.7030 C   0  0  0  0  0  2  0  0  0  0  0  0
  190.8540  174.5270  145.6790 C   0  0  2  0  0  3  0  0  0  0  0  0
  189.2570  173.9580  140.7150 C   0  0  0  0  0  0  0  0  0  0  0  0
  187.2740  178.3390  142.0650 C   0  0  0  0  0  2  0  0  0  0  0  0
  185.0580  177.2680  142.9350 O   0  0  0  0  0  0  0  0  0  0  0  0
  185.5360  178.6280  142.4450 S   0  0  0  0  0  3  0  0  0  0  0  0
  1  5  1  6  0  0  0
  1 19  1  0  0  0  0
  2 16  1  1  0  0  0
  2 13  1  0  0  0  0
  4 20  1  0  0  0  0
  4  1  1  0  0  0  0
  6  8  1  0  0  0  0
  7 27  1  0  0  0  0
  7  9  1  0  0  0  0
  8 12  1  0  0  0  0
  8 11  1  0  0  0  0
  9 22  1  0  0  0  0
 10  3  1  0  0  0  0
 11  5  1  0  0  0  0
 12  4  1  0  0  0  0
 13 18  1  0  0  0  0
 14  9  1  0  0  0  0
 15  7  1  0  0  0  0
 17  3  1  0  0  0  0
 17 26  1  0  0  0  0
 19 26  1  0  0  0  0
 19  2  1  0  0  0  0
 20 17  1  0  0  0  0
 21 10  1  0  0  0  0
 22 20  1  0  0  0  0
 22 10  1  0  0  0  0
 23 15  1  0  0  0  0
 23 14  1  0  0  0  0
 24 27  2  0  0  0  0
 25 18  1  0  0  0  0
 26 25  1  0  0  0  0
 27 12  1  0  0  0  0
 28 30  1  0  0  0  0
 28 11  1  0  0  0  0
 30 29  2  0  0  0  0
M  END
>  <MODEL>
8

>  <REMARK>
 VINA RESULT:      -6.9      2.409      3.738
  Name = 
  2 active torsions:
  status: ('A' for Active; 'I' for Inactive)
    1  A    between atoms: C_11  and  C_28
    2  A    between atoms: C_28  and  S_30
                            x       y       z     vdW  Elec       q    Type
                         _______ _______ _______ _____ _____    ______ ____

>  <TORSDO>
F 2

$$$$
=
 OpenBabel11112416243D

 30 35  0  0  1  0  0  0  0  0999 V2000
  189.2110  175.0960  142.9250 C   0  0  2  0  0  3  0  0  0  0  0  0
  187.0450  176.4120  142.6070 C   0  0  2  0  0  3  0  0  0  0  0  0
  189.6760  176.7020  146.8610 N   0  0  0  0  0  2  0  0  0  0  0  0
  190.5670  175.0550  143.6510 C   0  0  2  0  0  3  0  0  0  0  0  0
  189.4510  174.9800  141.4260 C   0  0  0  0  0  2  0  0  0  0  0  0
  192.0210  172.2710  141.6010 O   0  0  0  0  0  1  0  0  0  0  0  0
  193.2820  175.0400  144.4290 C   0  0  1  0  0  3  0  0  0  0  0  0
  191.4650  173.5310  141.8440 C   0  0  1  0  0  3  0  0  0  0  0  0
  192.7640  175.6380  145.6850 N   0  0  2  0  0  0  0  0  0  0  0  0
  190.8610  175.9810  147.3330 C   0  0  2  0  0  3  0  0  0  0  0  0
  190.1230  173.6460  141.1090 C   0  0  2  0  0  3  0  0  0  0  0  0
  191.2930  173.7360  143.3580 C   0  0  1  0  0  3  0  0  0  0  0  0
  186.3370  177.7330  142.9170 C   0  0  0  0  0  2  0  0  0  0  0  0
  193.7950  175.2900  146.6700 C   0  0  0  0  0  2  0  0  0  0  0  0
  194.7490  174.8840  144.6250 C   0  0  0  0  0  2  0  0  0  0  0  0
  186.2670  175.3360  143.0460 O   0  0  0  0  0  1  0  0  0  0  0  0
  189.7030  176.5730  145.4150 C   0  0  1  0  0  3  0  0  0  0  0  0
  186.2500  177.9760  144.4250 C   0  0  0  0  0  2  0  0  0  0  0  0
  188.4350  176.3870  143.2620 C   0  0  1  0  0  3  0  0  0  0  0  0
  190.3200  175.2350  145.1480 C   0  0  2  0  0  3  0  0  0  0  0  0
  191.8100  176.9630  148.0070 C   0  0  0  0  0  1  0  0  0  0  0  0
  191.4520  175.1350  146.1680 C   0  0  1  0  0  3  0  0  0  0  0  0
  195.0380  175.0270  145.9020 C   0  0  0  0  0  2  0  0  0  0  0  0
  193.1390  172.6550  144.3470 O   0  0  0  0  0  0  0  0  0  0  0  0
  187.6420  177.9590  145.0490 C   0  0  0  0  0  2  0  0  0  0  0  0
  188.3150  176.6130  144.7880 C   0  0  2  0  0  3  0  0  0  0  0  0
  192.6300  173.7240  144.0430 C   0  0  0  0  0  0  0  0  0  0  0  0
  190.3380  173.5320  139.6080 C   0  0  0  0  0  2  0  0  0  0  0  0
  187.9810  172.5040  139.1600 O   0  0  0  0  0  0  0  0  0  0  0  0
  189.4370  172.1140  138.9540 S   0  0  0  0  0  3  0  0  0  0  0  0
  1  5  1  6  0  0  0
  1 19  1  0  0  0  0
  1  4  1  0  0  0  0
  2 13  1  0  0  0  0
  2 16  1  1  0  0  0
  2 19  1  0  0  0  0
  3 10  1  0  0  0  0
  4 20  1  0  0  0  0
  6  8  1  0  0  0  0
  7 15  1  0  0  0  0
  7  9  1  0  0  0  0
  8 12  1  0  0  0  0
  9 22  1  0  0  0  0
  9 14  1  0  0  0  0
 10 21  1  0  0  0  0
 11  5  1  0  0  0  0
 11  8  1  0  0  0  0
 12  4  1  0  0  0  0
 12 27  1  0  0  0  0
 13 18  1  0  0  0  0
 15 23  1  0  0  0  0
 17  3  1  0  0  0  0
 18 25  1  0  0  0  0
 19 26  1  0  0  0  0
 20 17  1  0  0  0  0
 20 22  1  0  0  0  0
 22 10  1  0  0  0  0
 23 14  1  0  0  0  0
 26 25  1  0  0  0  0
 26 17  1  0  0  0  0
 27 24  2  0  0  0  0
 27  7  1  0  0  0  0
 28 11  1  0  0  0  0
 30 29  2  0  0  0  0
 30 28  1  0  0  0  0
M  END
>  <MODEL>
9

>  <REMARK>
 VINA RESULT:      -6.8      2.448      3.718
  Name = 
  2 active torsions:
  status: ('A' for Active; 'I' for Inactive)
    1  A    between atoms: C_11  and  C_28
    2  A    between atoms: C_28  and  S_30
                            x       y       z     vdW  Elec       q    Type
                         _______ _______ _______ _____ _____    ______ ____

>  <TORSDO>
F 2

$$$$
