=
 OpenBabel11112416493D

 31 35  0  0  1  0  0  0  0  0999 V2000
  190.1650  171.6970  142.5270 C   0  0  0  0  0  0  0  0  0  0  0  0
  190.2750  173.9660  145.5300 C   0  0  2  0  0  3  0  0  0  0  0  0
  191.6400  174.5840  145.7660 C   0  0  0  0  0  0  0  0  0  0  0  0
  194.0470  174.5960  145.4260 C   0  0  0  0  0  0  0  0  0  0  0  0
  190.1070  173.4740  144.1210 C   0  0  0  0  0  0  0  0  0  0  0  0
  189.7110  172.5750  141.4470 C   0  0  0  0  0  3  0  0  0  0  0  0
  192.7910  174.0340  145.1800 C   0  0  0  0  0  3  0  0  0  0  0  0
  188.9150  176.0130  144.8180 C   0  0  2  0  0  3  0  0  0  0  0  0
  190.4060  170.4840  142.2970 O   0  0  0  0  0  0  0  0  0  0  0  0
  190.6480  176.2160  147.2780 O   0  0  0  0  0  0  0  0  0  0  0  0
  195.2570  174.0150  144.7880 C   0  0  0  0  0  1  0  0  0  0  0  0
  188.6410  175.3730  143.4590 C   0  0  0  0  0  2  0  0  0  0  0  0
  189.1200  174.9270  145.8940 C   0  0  2  0  0  3  0  0  0  0  0  0
  190.3030  172.2170  143.8530 N   0  0  0  0  0  0  0  0  0  0  0  0
  194.1650  175.7040  146.2670 C   0  0  0  0  0  3  0  0  0  0  0  0
  189.8060  174.4870  143.0350 C   0  0  2  0  0  3  0  0  0  0  0  0
  189.5200  173.8700  141.6900 C   0  0  0  0  0  3  0  0  0  0  0  0
  189.3920  175.5430  147.2670 C   0  0  0  0  0  2  0  0  0  0  0  0
  191.7730  175.6780  146.6450 C   0  0  0  0  0  0  0  0  0  0  0  0
  193.0300  176.2430  146.8780 C   0  0  0  0  0  3  0  0  0  0  0  0
  187.7960  176.8770  145.1680 N   0  0  0  0  0  2  0  0  0  0  0  0
  185.6550  176.5250  144.3260 O   0  0  0  0  0  1  0  0  0  0  0  0
  186.9370  176.9760  143.9960 C   0  0  1  0  0  3  0  0  0  0  0  0
  184.9490  178.5820  141.2850 N   0  0  0  0  0  0  0  0  0  0  0  0
  185.4490  178.9870  143.6580 C   0  0  0  0  0  2  0  0  0  0  0  0
  188.5560  178.0900  141.7670 O   0  0  0  0  0  1  0  0  0  0  0  0
  184.0190  177.8970  140.4060 C   0  0  0  0  0  1  0  0  0  0  0  0
  184.4950  178.3320  142.6520 C   0  0  0  0  0  2  0  0  0  0  0  0
  187.2800  178.5950  142.0160 C   0  0  2  0  0  3  0  0  0  0  0  0
  186.8680  178.4290  143.4910 C   0  0  2  0  0  3  0  0  0  0  0  0
  186.2520  177.9470  141.0930 C   0  0  0  0  0  2  0  0  0  0  0  0
  1 14  1  0  0  0  0
  2  5  1  6  0  0  0
  2  3  1  0  0  0  0
  2 13  1  0  0  0  0
  3 19  1  0  0  0  0
  4 15  2  0  0  0  0
  6 17  2  0  0  0  0
  6  1  1  0  0  0  0
  7  4  1  0  0  0  0
  7  3  2  0  0  0  0
  8 21  1  1  0  0  0
  8 13  1  0  0  0  0
  9  1  2  0  0  0  0
 11  4  1  0  0  0  0
 12  8  1  0  0  0  0
 13 18  1  1  0  0  0
 14  5  2  0  0  0  0
 15 20  1  0  0  0  0
 16 17  1  6  0  0  0
 16 12  1  0  0  0  0
 16  5  1  0  0  0  0
 18 10  1  0  0  0  0
 19 20  2  0  0  0  0
 19 10  1  0  0  0  0
 23 22  1  1  0  0  0
 23 21  1  0  0  0  0
 24 28  1  0  0  0  0
 27 24  1  0  0  0  0
 28 25  1  0  0  0  0
 29 26  1  1  0  0  0
 29 30  1  0  0  0  0
 30 25  1  0  0  0  0
 30 23  1  6  0  0  0
 31 24  1  0  0  0  0
 31 29  1  0  0  0  0
M  END
>  <MODEL>
1

>  <REMARK>
 VINA RESULT:      -8.3      0.000      0.000
  Name = 
  3 active torsions:
  status: ('A' for Active; 'I' for Inactive)
    1  A    between atoms: C_5  and  N_16
    2  A    between atoms: C_5  and  C_30
    3  A    between atoms: C_10  and  N_16
                            x       y       z     vdW  Elec       q    Type
                         _______ _______ _______ _____ _____    ______ ____

>  <TORSDO>
F 3

$$$$
=
 OpenBabel11112416493D

 31 35  0  0  1  0  0  0  0  0999 V2000
  194.3430  176.7800  145.0850 C   0  0  0  0  0  0  0  0  0  0  0  0
  190.8280  177.1060  143.7760 C   0  0  2  0  0  3  0  0  0  0  0  0
  190.3830  175.9160  142.9480 C   0  0  0  0  0  0  0  0  0  0  0  0
  190.9010  173.9450  141.6240 C   0  0  0  0  0  0  0  0  0  0  0  0
  191.9920  176.7790  144.6660 C   0  0  0  0  0  0  0  0  0  0  0  0
  194.1640  176.2000  146.4170 C   0  0  0  0  0  3  0  0  0  0  0  0
  191.3210  175.0230  142.4060 C   0  0  0  0  0  3  0  0  0  0  0  0
  189.3590  176.8480  145.8550 C   0  0  2  0  0  3  0  0  0  0  0  0
  195.4980  177.0430  144.6600 O   0  0  0  0  0  0  0  0  0  0  0  0
  188.0650  176.6410  143.1390 O   0  0  0  0  0  0  0  0  0  0  0  0
  191.9010  172.9970  141.0670 C   0  0  0  0  0  1  0  0  0  0  0  0
  190.6030  176.6930  146.7280 C   0  0  0  0  0  2  0  0  0  0  0  0
  189.6760  177.7070  144.6140 C   0  0  2  0  0  3  0  0  0  0  0  0
  193.1980  177.0770  144.2800 N   0  0  0  0  0  0  0  0  0  0  0  0
  189.5410  173.7550  141.3650 C   0  0  0  0  0  3  0  0  0  0  0  0
  191.7270  176.0200  145.9510 C   0  0  2  0  0  3  0  0  0  0  0  0
  192.9420  175.8690  146.8300 C   0  0  0  0  0  3  0  0  0  0  0  0
  188.4450  177.8840  143.7250 C   0  0  0  0  0  2  0  0  0  0  0  0
  189.0160  175.7400  142.6500 C   0  0  0  0  0  0  0  0  0  0  0  0
  188.6000  174.6530  141.8760 C   0  0  0  0  0  3  0  0  0  0  0  0
  188.3000  177.4600  146.6460 N   0  0  0  0  0  2  0  0  0  0  0  0
  187.6610  175.4580  147.6440 O   0  0  0  0  0  1  0  0  0  0  0  0
  187.2350  176.4770  146.7870 C   0  0  1  0  0  3  0  0  0  0  0  0
  185.0060  179.1390  145.4350 N   0  0  0  0  0  0  0  0  0  0  0  0
  184.7750  176.8870  146.3960 C   0  0  0  0  0  2  0  0  0  0  0  0
  187.1550  178.9660  148.4080 O   0  0  0  0  0  1  0  0  0  0  0  0
  185.1990  179.8380  144.1790 C   0  0  0  0  0  1  0  0  0  0  0  0
  184.9370  177.7130  145.1150 C   0  0  0  0  0  2  0  0  0  0  0  0
  186.0840  178.6480  147.5720 C   0  0  2  0  0  3  0  0  0  0  0  0
  185.9580  177.1310  147.3430 C   0  0  2  0  0  3  0  0  0  0  0  0
  186.2000  179.3870  146.2410 C   0  0  0  0  0  2  0  0  0  0  0  0
  1  6  1  0  0  0  0
  2  3  1  1  0  0  0
  2 13  1  0  0  0  0
  2  5  1  0  0  0  0
  4  7  1  0  0  0  0
  5 16  1  0  0  0  0
  6 17  2  0  0  0  0
  7  3  2  0  0  0  0
  8 21  1  1  0  0  0
  8 12  1  0  0  0  0
  9  1  2  0  0  0  0
 10 18  1  0  0  0  0
 11  4  1  0  0  0  0
 13 18  1  6  0  0  0
 13  8  1  0  0  0  0
 14  5  2  0  0  0  0
 14  1  1  0  0  0  0
 15  4  2  0  0  0  0
 15 20  1  0  0  0  0
 16 12  1  1  0  0  0
 16 17  1  0  0  0  0
 19  3  1  0  0  0  0
 19 10  1  0  0  0  0
 20 19  2  0  0  0  0
 21 23  1  0  0  0  0
 23 22  1  1  0  0  0
 24 31  1  0  0  0  0
 25 30  1  0  0  0  0
 27 24  1  0  0  0  0
 28 24  1  0  0  0  0
 28 25  1  0  0  0  0
 29 26  1  1  0  0  0
 30 23  1  6  0  0  0
 30 29  1  0  0  0  0
 31 29  1  0  0  0  0
M  END
>  <MODEL>
2

>  <REMARK>
 VINA RESULT:      -8.1      2.662      4.987
  Name = 
  3 active torsions:
  status: ('A' for Active; 'I' for Inactive)
    1  A    between atoms: C_5  and  N_16
    2  A    between atoms: C_5  and  C_30
    3  A    between atoms: C_10  and  N_16
                            x       y       z     vdW  Elec       q    Type
                         _______ _______ _______ _____ _____    ______ ____

>  <TORSDO>
F 3

$$$$
=
 OpenBabel11112416493D

 31 35  0  0  1  0  0  0  0  0999 V2000
  187.5010  177.2030  140.9580 C   0  0  0  0  0  0  0  0  0  0  0  0
  188.6460  177.7100  144.5090 C   0  0  2  0  0  3  0  0  0  0  0  0
  187.5020  177.8700  145.4910 C   0  0  0  0  0  0  0  0  0  0  0  0
  185.1720  178.3730  145.9660 C   0  0  0  0  0  0  0  0  0  0  0  0
  188.2140  177.0490  143.2310 C   0  0  0  0  0  0  0  0  0  0  0  0
  187.4630  175.7460  140.8110 C   0  0  0  0  0  3  0  0  0  0  0  0
  186.2120  178.2030  145.0490 C   0  0  0  0  0  3  0  0  0  0  0  0
  189.5830  175.4310  145.1960 C   0  0  2  0  0  3  0  0  0  0  0  0
  187.1870  177.9440  139.9900 O   0  0  0  0  0  0  0  0  0  0  0  0
  189.0300  177.4720  147.3460 O   0  0  0  0  0  0  0  0  0  0  0  0
  183.8070  178.7110  145.4850 C   0  0  0  0  0  1  0  0  0  0  0  0
  189.2690  174.8710  143.8100 C   0  0  0  0  0  2  0  0  0  0  0  0
  189.8460  176.9480  145.1160 C   0  0  2  0  0  3  0  0  0  0  0  0
  187.9250  177.7800  142.1960 N   0  0  0  0  0  0  0  0  0  0  0  0
  185.4120  178.2230  147.3330 C   0  0  0  0  0  3  0  0  0  0  0  0
  188.0340  175.5440  143.2240 C   0  0  2  0  0  3  0  0  0  0  0  0
  187.7360  174.9740  141.8610 C   0  0  0  0  0  3  0  0  0  0  0  0
  190.1690  177.5340  146.4910 C   0  0  0  0  0  2  0  0  0  0  0  0
  187.7450  177.7580  146.8760 C   0  0  0  0  0  0  0  0  0  0  0  0
  186.6980  177.9170  147.7870 C   0  0  0  0  0  3  0  0  0  0  0  0
  190.7460  174.7360  145.7330 N   0  0  0  0  0  2  0  0  0  0  0  0
  192.6250  175.4030  144.5340 O   0  0  0  0  0  1  0  0  0  0  0  0
  191.6260  174.4280  144.6150 C   0  0  1  0  0  3  0  0  0  0  0  0
  192.7420  171.8680  142.1490 N   0  0  0  0  0  0  0  0  0  0  0  0
  193.6510  172.9980  144.1350 C   0  0  0  0  0  2  0  0  0  0  0  0
  190.1310  171.8620  144.7310 O   0  0  0  0  0  1  0  0  0  0  0  0
  192.6340  171.9870  140.7070 C   0  0  0  0  0  1  0  0  0  0  0  0
  193.5200  173.0180  142.6080 C   0  0  0  0  0  2  0  0  0  0  0  0
  191.4230  171.8890  144.2050 C   0  0  2  0  0  3  0  0  0  0  0  0
  192.2640  173.0380  144.7900 C   0  0  2  0  0  3  0  0  0  0  0  0
  191.3840  171.9700  142.6810 C   0  0  0  0  0  2  0  0  0  0  0  0
  1 14  1  0  0  0  0
  2  5  1  6  0  0  0
  2 13  1  0  0  0  0
  2  3  1  0  0  0  0
  3 19  1  0  0  0  0
  4 15  2  0  0  0  0
  6  1  1  0  0  0  0
  6 17  2  0  0  0  0
  7  3  2  0  0  0  0
  7  4  1  0  0  0  0
  8 21  1  6  0  0  0
  9  1  2  0  0  0  0
 11  4  1  0  0  0  0
 12  8  1  0  0  0  0
 13  8  1  0  0  0  0
 13 18  1  1  0  0  0
 14  5  2  0  0  0  0
 15 20  1  0  0  0  0
 16 17  1  6  0  0  0
 16  5  1  0  0  0  0
 16 12  1  0  0  0  0
 18 10  1  0  0  0  0
 19 10  1  0  0  0  0
 19 20  2  0  0  0  0
 23 22  1  1  0  0  0
 23 21  1  0  0  0  0
 24 28  1  0  0  0  0
 24 31  1  0  0  0  0
 25 30  1  0  0  0  0
 27 24  1  0  0  0  0
 28 25  1  0  0  0  0
 29 26  1  1  0  0  0
 29 30  1  0  0  0  0
 30 23  1  6  0  0  0
 31 29  1  0  0  0  0
M  END
>  <MODEL>
3

>  <REMARK>
 VINA RESULT:      -7.9      2.319      6.892
  Name = 
  3 active torsions:
  status: ('A' for Active; 'I' for Inactive)
    1  A    between atoms: C_5  and  N_16
    2  A    between atoms: C_5  and  C_30
    3  A    between atoms: C_10  and  N_16
                            x       y       z     vdW  Elec       q    Type
                         _______ _______ _______ _____ _____    ______ ____

>  <TORSDO>
F 3

$$$$
=
 OpenBabel11112416493D

 31 35  0  0  1  0  0  0  0  0999 V2000
  187.5920  177.1640  141.0640 C   0  0  0  0  0  0  0  0  0  0  0  0
  188.5660  177.7150  144.6590 C   0  0  2  0  0  3  0  0  0  0  0  0
  187.3770  177.8960  145.5830 C   0  0  0  0  0  0  0  0  0  0  0  0
  185.0300  178.4200  145.9360 C   0  0  0  0  0  0  0  0  0  0  0  0
  188.1920  177.0380  143.3720 C   0  0  0  0  0  0  0  0  0  0  0  0
  187.5510  175.7060  140.9360 C   0  0  0  0  0  3  0  0  0  0  0  0
  186.1130  178.2310  145.0740 C   0  0  0  0  0  3  0  0  0  0  0  0
  189.4540  175.4400  145.4230 C   0  0  2  0  0  3  0  0  0  0  0  0
  187.3310  177.8930  140.0720 O   0  0  0  0  0  0  0  0  0  0  0  0
  188.8110  177.5150  147.5150 O   0  0  0  0  0  0  0  0  0  0  0  0
  183.6920  178.7600  145.3850 C   0  0  0  0  0  1  0  0  0  0  0  0
  189.2030  174.8620  144.0320 C   0  0  0  0  0  2  0  0  0  0  0  0
  189.7300  176.9540  145.3350 C   0  0  2  0  0  3  0  0  0  0  0  0
  187.9600  177.7570  142.3130 N   0  0  0  0  0  0  0  0  0  0  0  0
  185.2030  178.2880  147.3160 C   0  0  0  0  0  3  0  0  0  0  0  0
  188.0030  175.5340  143.3770 C   0  0  2  0  0  3  0  0  0  0  0  0
  187.7670  174.9470  142.0090 C   0  0  0  0  0  3  0  0  0  0  0  0
  189.9910  177.5580  146.7160 C   0  0  0  0  0  2  0  0  0  0  0  0
  187.5520  177.8020  146.9790 C   0  0  0  0  0  0  0  0  0  0  0  0
  186.4630  177.9810  147.8360 C   0  0  0  0  0  3  0  0  0  0  0  0
  190.5840  174.7460  146.0260 N   0  0  0  0  0  2  0  0  0  0  0  0
  192.6810  175.6300  146.5070 O   0  0  0  0  0  1  0  0  0  0  0  0
  191.7990  175.3210  145.4670 C   0  0  1  0  0  3  0  0  0  0  0  0
  195.1100  175.3680  143.7590 N   0  0  0  0  0  0  0  0  0  0  0  0
  193.7680  173.7890  145.0830 C   0  0  0  0  0  2  0  0  0  0  0  0
  191.6610  175.5060  142.5040 O   0  0  0  0  0  1  0  0  0  0  0  0
  196.1050  176.4170  143.8830 C   0  0  0  0  0  1  0  0  0  0  0  0
  194.8460  174.8780  145.1120 C   0  0  0  0  0  2  0  0  0  0  0  0
  192.7900  174.9570  143.1130 C   0  0  2  0  0  3  0  0  0  0  0  0
  192.4660  174.3400  144.4860 C   0  0  2  0  0  3  0  0  0  0  0  0
  193.8990  175.9990  143.2370 C   0  0  0  0  0  2  0  0  0  0  0  0
  1 14  1  0  0  0  0
  2  5  1  6  0  0  0
  2 13  1  0  0  0  0
  2  3  1  0  0  0  0
  3 19  1  0  0  0  0
  4 15  2  0  0  0  0
  5 16  1  0  0  0  0
  6  1  1  0  0  0  0
  6 17  2  0  0  0  0
  7  3  2  0  0  0  0
  7  4  1  0  0  0  0
  8 21  1  6  0  0  0
  9  1  2  0  0  0  0
 11  4  1  0  0  0  0
 12  8  1  0  0  0  0
 13  8  1  0  0  0  0
 13 18  1  1  0  0  0
 14  5  2  0  0  0  0
 15 20  1  0  0  0  0
 16 17  1  6  0  0  0
 16 12  1  0  0  0  0
 18 10  1  0  0  0  0
 19 10  1  0  0  0  0
 19 20  2  0  0  0  0
 23 21  1  0  0  0  0
 23 22  1  1  0  0  0
 24 27  1  0  0  0  0
 24 28  1  0  0  0  0
 25 28  1  0  0  0  0
 29 26  1  1  0  0  0
 29 31  1  0  0  0  0
 29 30  1  0  0  0  0
 30 25  1  0  0  0  0
 30 23  1  1  0  0  0
 31 24  1  0  0  0  0
M  END
>  <MODEL>
4

>  <REMARK>
 VINA RESULT:      -7.6      2.464      6.957
  Name = 
  3 active torsions:
  status: ('A' for Active; 'I' for Inactive)
    1  A    between atoms: C_5  and  N_16
    2  A    between atoms: C_5  and  C_30
    3  A    between atoms: C_10  and  N_16
                            x       y       z     vdW  Elec       q    Type
                         _______ _______ _______ _____ _____    ______ ____

>  <TORSDO>
F 3

$$$$
=
 OpenBabel11112416493D

 31 35  0  0  1  0  0  0  0  0999 V2000
  190.6300  171.3530  142.5420 C   0  0  0  0  0  0  0  0  0  0  0  0
  191.2330  173.9670  145.1840 C   0  0  2  0  0  3  0  0  0  0  0  0
  192.4210  174.8610  144.8840 C   0  0  0  0  0  0  0  0  0  0  0  0
  194.5020  175.2930  143.7060 C   0  0  0  0  0  0  0  0  0  0  0  0
  190.7140  173.2760  143.9560 C   0  0  0  0  0  0  0  0  0  0  0  0
  189.6520  171.9810  141.6510 C   0  0  0  0  0  3  0  0  0  0  0  0
  193.3990  174.4740  143.9550 C   0  0  0  0  0  3  0  0  0  0  0  0
  189.2880  175.6050  144.9000 C   0  0  2  0  0  3  0  0  0  0  0  0
  191.0460  170.1900  142.3040 O   0  0  0  0  0  0  0  0  0  0  0  0
  191.6570  176.4520  146.5640 O   0  0  0  0  0  0  0  0  0  0  0  0
  195.5240  174.8800  142.7090 C   0  0  0  0  0  1  0  0  0  0  0  0
  188.7230  174.7550  143.7640 C   0  0  0  0  0  2  0  0  0  0  0  0
  190.0840  174.7260  145.8860 C   0  0  2  0  0  3  0  0  0  0  0  0
  191.0870  172.0560  143.7020 N   0  0  0  0  0  0  0  0  0  0  0  0
  194.6450  176.5020  144.3910 C   0  0  0  0  0  3  0  0  0  0  0  0
  189.8440  174.0640  142.9980 C   0  0  2  0  0  3  0  0  0  0  0  0
  189.2680  173.2360  141.8790 C   0  0  0  0  0  3  0  0  0  0  0  0
  190.6570  175.5540  147.0380 C   0  0  0  0  0  2  0  0  0  0  0  0
  192.5920  176.0650  145.6000 C   0  0  0  0  0  0  0  0  0  0  0  0
  193.6920  176.8860  145.3380 C   0  0  0  0  0  3  0  0  0  0  0  0
  188.1890  176.2750  145.5820 N   0  0  0  0  0  2  0  0  0  0  0  0
  185.9210  176.2740  145.0610 O   0  0  0  0  0  1  0  0  0  0  0  0
  187.1890  176.6080  144.5760 C   0  0  1  0  0  3  0  0  0  0  0  0
  185.2920  178.6650  142.1160 N   0  0  0  0  0  0  0  0  0  0  0  0
  185.8820  178.7660  144.5010 C   0  0  0  0  0  2  0  0  0  0  0  0
  188.8500  177.8100  142.4250 O   0  0  0  0  0  1  0  0  0  0  0  0
  184.2840  178.1640  141.2020 C   0  0  0  0  0  1  0  0  0  0  0  0
  184.8500  178.3100  143.4640 C   0  0  0  0  0  2  0  0  0  0  0  0
  187.6310  178.3950  142.7680 C   0  0  2  0  0  3  0  0  0  0  0  0
  187.2410  178.1070  144.2300 C   0  0  2  0  0  3  0  0  0  0  0  0
  186.5270  177.9430  141.8160 C   0  0  0  0  0  2  0  0  0  0  0  0
  1 14  1  0  0  0  0
  2  5  1  6  0  0  0
  2 13  1  0  0  0  0
  3  2  1  0  0  0  0
  3 19  1  0  0  0  0
  4  7  1  0  0  0  0
  4 15  2  0  0  0  0
  6 17  2  0  0  0  0
  6  1  1  0  0  0  0
  7  3  2  0  0  0  0
  8 21  1  1  0  0  0
  8 13  1  0  0  0  0
  9  1  2  0  0  0  0
 10 18  1  0  0  0  0
 11  4  1  0  0  0  0
 12  8  1  0  0  0  0
 13 18  1  1  0  0  0
 14  5  2  0  0  0  0
 15 20  1  0  0  0  0
 16 17  1  6  0  0  0
 16 12  1  0  0  0  0
 16  5  1  0  0  0  0
 19 10  1  0  0  0  0
 20 19  2  0  0  0  0
 23 22  1  1  0  0  0
 23 21  1  0  0  0  0
 24 28  1  0  0  0  0
 27 24  1  0  0  0  0
 28 25  1  0  0  0  0
 29 26  1  6  0  0  0
 29 30  1  0  0  0  0
 30 25  1  0  0  0  0
 30 23  1  6  0  0  0
 31 24  1  0  0  0  0
 31 29  1  0  0  0  0
M  END
>  <MODEL>
5

>  <REMARK>
 VINA RESULT:      -7.6      1.086      1.119
  Name = 
  3 active torsions:
  status: ('A' for Active; 'I' for Inactive)
    1  A    between atoms: C_5  and  N_16
    2  A    between atoms: C_5  and  C_30
    3  A    between atoms: C_10  and  N_16
                            x       y       z     vdW  Elec       q    Type
                         _______ _______ _______ _____ _____    ______ ____

>  <TORSDO>
F 3

$$$$
=
 OpenBabel11112416493D

 31 35  0  0  1  0  0  0  0  0999 V2000
  193.9640  170.5960  144.9590 C   0  0  0  0  0  0  0  0  0  0  0  0
  194.6980  174.2330  145.5990 C   0  0  2  0  0  3  0  0  0  0  0  0
  195.5100  174.8850  144.4960 C   0  0  0  0  0  0  0  0  0  0  0  0
  197.0010  174.7200  142.5840 C   0  0  0  0  0  0  0  0  0  0  0  0
  194.0160  172.9760  145.1390 C   0  0  0  0  0  0  0  0  0  0  0  0
  192.6530  170.6160  144.3070 C   0  0  0  0  0  3  0  0  0  0  0  0
  196.2360  174.1080  143.5800 C   0  0  0  0  0  3  0  0  0  0  0  0
  192.4350  175.3890  145.3050 C   0  0  2  0  0  3  0  0  0  0  0  0
  194.5470  169.5010  145.1710 O   0  0  0  0  0  0  0  0  0  0  0  0
  194.9270  177.0870  145.3580 O   0  0  0  0  0  0  0  0  0  0  0  0
  197.7550  173.8880  141.6100 C   0  0  0  0  0  1  0  0  0  0  0  0
  191.7720  174.0440  145.0120 C   0  0  0  0  0  2  0  0  0  0  0  0
  193.6610  175.1980  146.2190 C   0  0  2  0  0  3  0  0  0  0  0  0
  194.5660  171.8230  145.3810 N   0  0  0  0  0  0  0  0  0  0  0  0
  197.0580  176.1130  142.5020 C   0  0  0  0  0  3  0  0  0  0  0  0
  192.7480  173.1020  144.3180 C   0  0  2  0  0  3  0  0  0  0  0  0
  192.0760  171.7850  144.0320 C   0  0  0  0  0  3  0  0  0  0  0  0
  194.3400  176.5320  146.5330 C   0  0  0  0  0  2  0  0  0  0  0  0
  195.6030  176.2900  144.4300 C   0  0  0  0  0  0  0  0  0  0  0  0
  196.3610  176.8970  143.4250 C   0  0  0  0  0  3  0  0  0  0  0  0
  191.4580  176.2690  145.9330 N   0  0  0  0  0  2  0  0  0  0  0  0
  189.2350  175.5850  145.9400 O   0  0  0  0  0  1  0  0  0  0  0  0
  190.2280  176.1830  145.1590 C   0  0  1  0  0  3  0  0  0  0  0  0
  187.9170  177.2920  142.4550 N   0  0  0  0  0  0  0  0  0  0  0  0
  188.2490  177.7190  144.8540 C   0  0  0  0  0  2  0  0  0  0  0  0
  191.5120  177.7910  143.0150 O   0  0  0  0  0  1  0  0  0  0  0  0
  187.2250  176.4150  141.5290 C   0  0  0  0  0  1  0  0  0  0  0  0
  187.5280  176.8700  143.8010 C   0  0  0  0  0  2  0  0  0  0  0  0
  190.1420  177.9150  143.2480 C   0  0  2  0  0  3  0  0  0  0  0  0
  189.7700  177.5800  144.7040 C   0  0  2  0  0  3  0  0  0  0  0  0
  189.3470  177.0480  142.2750 C   0  0  0  0  0  2  0  0  0  0  0  0
  1  9  2  0  0  0  0
  1 14  1  0  0  0  0
  2  3  1  6  0  0  0
  2 13  1  0  0  0  0
  4  7  1  0  0  0  0
  5 14  2  0  0  0  0
  5  2  1  0  0  0  0
  6  1  1  0  0  0  0
  7  3  2  0  0  0  0
  8 21  1  1  0  0  0
  8 13  1  0  0  0  0
 10 18  1  0  0  0  0
 11  4  1  0  0  0  0
 12  8  1  0  0  0  0
 13 18  1  6  0  0  0
 15  4  2  0  0  0  0
 15 20  1  0  0  0  0
 16 17  1  1  0  0  0
 16 12  1  0  0  0  0
 16  5  1  0  0  0  0
 17  6  2  0  0  0  0
 19  3  1  0  0  0  0
 19 10  1  0  0  0  0
 20 19  2  0  0  0  0
 23 21  1  0  0  0  0
 23 22  1  1  0  0  0
 24 28  1  0  0  0  0
 27 24  1  0  0  0  0
 28 25  1  0  0  0  0
 29 26  1  1  0  0  0
 29 30  1  0  0  0  0
 30 25  1  0  0  0  0
 30 23  1  6  0  0  0
 31 24  1  0  0  0  0
 31 29  1  0  0  0  0
M  END
>  <MODEL>
6

>  <REMARK>
 VINA RESULT:      -7.5      2.703      4.082
  Name = 
  3 active torsions:
  status: ('A' for Active; 'I' for Inactive)
    1  A    between atoms: C_5  and  N_16
    2  A    between atoms: C_5  and  C_30
    3  A    between atoms: C_10  and  N_16
                            x       y       z     vdW  Elec       q    Type
                         _______ _______ _______ _____ _____    ______ ____

>  <TORSDO>
F 3

$$$$
=
 OpenBabel11112416493D

 31 35  0  0  1  0  0  0  0  0999 V2000
  185.5770  177.5220  142.5480 C   0  0  0  0  0  0  0  0  0  0  0  0
  188.1740  174.8430  143.0510 C   0  0  2  0  0  3  0  0  0  0  0  0
  188.8020  174.3650  141.7560 C   0  0  0  0  0  0  0  0  0  0  0  0
  188.7540  174.1350  139.3370 C   0  0  0  0  0  0  0  0  0  0  0  0
  187.5260  176.1900  142.9080 C   0  0  0  0  0  0  0  0  0  0  0  0
  186.3290  178.7680  142.7100 C   0  0  0  0  0  3  0  0  0  0  0  0
  188.1790  174.6030  140.5210 C   0  0  0  0  0  3  0  0  0  0  0  0
  190.1380  176.0710  144.1370 C   0  0  2  0  0  3  0  0  0  0  0  0
  184.3430  177.5560  142.3030 O   0  0  0  0  0  0  0  0  0  0  0  0
  190.6060  173.3130  143.0100 O   0  0  0  0  0  0  0  0  0  0  0  0
  188.0930  174.4060  138.0330 C   0  0  0  0  0  1  0  0  0  0  0  0
  189.3490  177.3780  144.1140 C   0  0  0  0  0  2  0  0  0  0  0  0
  189.1810  174.8650  144.2240 C   0  0  2  0  0  3  0  0  0  0  0  0
  186.2440  176.2650  142.7000 N   0  0  0  0  0  0  0  0  0  0  0  0
  189.9500  173.4150  139.3760 C   0  0  0  0  0  3  0  0  0  0  0  0
  188.4100  177.4200  142.9150 C   0  0  2  0  0  3  0  0  0  0  0  0
  187.6460  178.7180  142.9060 C   0  0  0  0  0  3  0  0  0  0  0  0
  189.9480  173.5420  144.2540 C   0  0  0  0  0  2  0  0  0  0  0  0
  189.9890  173.6040  141.7900 C   0  0  0  0  0  0  0  0  0  0  0  0
  190.5660  173.1490  140.6010 C   0  0  0  0  0  3  0  0  0  0  0  0
  191.0470  176.0880  145.2760 N   0  0  0  0  0  2  0  0  0  0  0  0
  192.6360  177.4650  144.2810 O   0  0  0  0  0  1  0  0  0  0  0  0
  192.4030  176.1700  144.7520 C   0  0  1  0  0  3  0  0  0  0  0  0
  196.0310  175.3400  144.5790 N   0  0  0  0  0  0  0  0  0  0  0  0
  194.5680  176.8440  145.8610 C   0  0  0  0  0  2  0  0  0  0  0  0
  193.0860  173.4120  145.6240 O   0  0  0  0  0  1  0  0  0  0  0  0
  196.8190  175.2630  143.3630 C   0  0  0  0  0  1  0  0  0  0  0  0
  195.4570  176.6840  144.6220 C   0  0  0  0  0  2  0  0  0  0  0  0
  194.0540  174.4150  145.6760 C   0  0  2  0  0  3  0  0  0  0  0  0
  193.4320  175.8140  145.8410 C   0  0  2  0  0  3  0  0  0  0  0  0
  194.9510  174.3650  144.4410 C   0  0  0  0  0  2  0  0  0  0  0  0
  1 14  1  0  0  0  0
  1  6  1  0  0  0  0
  2  3  1  6  0  0  0
  2 13  1  0  0  0  0
  3 19  1  0  0  0  0
  4 15  2  0  0  0  0
  4  7  1  0  0  0  0
  5 16  1  0  0  0  0
  5  2  1  0  0  0  0
  6 17  2  0  0  0  0
  7  3  2  0  0  0  0
  8 13  1  0  0  0  0
  8 21  1  1  0  0  0
  9  1  2  0  0  0  0
 10 18  1  0  0  0  0
 11  4  1  0  0  0  0
 12  8  1  0  0  0  0
 13 18  1  6  0  0  0
 14  5  2  0  0  0  0
 15 20  1  0  0  0  0
 16 17  1  1  0  0  0
 16 12  1  0  0  0  0
 19 10  1  0  0  0  0
 20 19  2  0  0  0  0
 23 22  1  1  0  0  0
 23 21  1  0  0  0  0
 24 28  1  0  0  0  0
 27 24  1  0  0  0  0
 28 25  1  0  0  0  0
 29 26  1  6  0  0  0
 29 30  1  0  0  0  0
 30 23  1  6  0  0  0
 30 25  1  0  0  0  0
 31 24  1  0  0  0  0
 31 29  1  0  0  0  0
M  END
>  <MODEL>
7

>  <REMARK>
 VINA RESULT:      -7.5      2.391      7.304
  Name = 
  3 active torsions:
  status: ('A' for Active; 'I' for Inactive)
    1  A    between atoms: C_5  and  N_16
    2  A    between atoms: C_5  and  C_30
    3  A    between atoms: C_10  and  N_16
                            x       y       z     vdW  Elec       q    Type
                         _______ _______ _______ _____ _____    ______ ____

>  <TORSDO>
F 3

$$$$
=
 OpenBabel11112416493D

 31 35  0  0  1  0  0  0  0  0999 V2000
  187.1250  177.0190  140.4200 C   0  0  0  0  0  0  0  0  0  0  0  0
  189.3610  177.5350  143.4050 C   0  0  2  0  0  3  0  0  0  0  0  0
  188.6850  177.2160  144.7240 C   0  0  0  0  0  0  0  0  0  0  0  0
  186.6730  176.8770  146.0450 C   0  0  0  0  0  0  0  0  0  0  0  0
  188.6690  176.8930  142.2370 C   0  0  0  0  0  0  0  0  0  0  0  0
  187.4300  175.6520  139.9910 C   0  0  0  0  0  3  0  0  0  0  0  0
  187.2860  177.1460  144.8190 C   0  0  0  0  0  3  0  0  0  0  0  0
  191.0690  175.6370  143.2440 C   0  0  2  0  0  3  0  0  0  0  0  0
  186.2770  177.7040  139.7910 O   0  0  0  0  0  0  0  0  0  0  0  0
  190.8530  177.1690  145.8330 O   0  0  0  0  0  0  0  0  0  0  0  0
  185.1910  176.7910  146.1310 C   0  0  0  0  0  1  0  0  0  0  0  0
  190.4110  175.1390  141.9590 C   0  0  0  0  0  2  0  0  0  0  0  0
  190.8600  177.1570  143.4020 C   0  0  2  0  0  3  0  0  0  0  0  0
  187.8190  177.5840  141.5360 N   0  0  0  0  0  0  0  0  0  0  0  0
  187.4500  176.6850  147.1890 C   0  0  0  0  0  3  0  0  0  0  0  0
  188.9140  175.4210  141.9740 C   0  0  2  0  0  3  0  0  0  0  0  0
  188.2820  174.9170  140.7030 C   0  0  0  0  0  3  0  0  0  0  0  0
  191.5150  177.6830  144.6800 C   0  0  0  0  0  2  0  0  0  0  0  0
  189.4610  177.0590  145.8910 C   0  0  0  0  0  0  0  0  0  0  0  0
  188.8420  176.7780  147.1120 C   0  0  0  0  0  3  0  0  0  0  0  0
  192.4890  175.3160  143.2030 N   0  0  0  0  0  2  0  0  0  0  0  0
  191.5730  174.0780  144.9470 O   0  0  0  0  0  1  0  0  0  0  0  0
  192.7280  174.2630  144.1800 C   0  0  1  0  0  3  0  0  0  0  0  0
  195.5070  171.8490  144.7580 N   0  0  0  0  0  0  0  0  0  0  0  0
  193.0650  171.7790  144.4760 C   0  0  0  0  0  2  0  0  0  0  0  0
  194.6460  174.0190  141.9230 O   0  0  0  0  0  1  0  0  0  0  0  0
  196.5440  171.9870  145.7630 C   0  0  0  0  0  1  0  0  0  0  0  0
  194.2290  171.8770  145.4690 C   0  0  0  0  0  2  0  0  0  0  0  0
  194.5060  172.9690  142.8310 C   0  0  2  0  0  3  0  0  0  0  0  0
  193.1110  172.9460  143.4810 C   0  0  2  0  0  3  0  0  0  0  0  0
  195.5970  173.0270  143.8970 C   0  0  0  0  0  2  0  0  0  0  0  0
  1 14  1  0  0  0  0
  2  5  1  6  0  0  0
  2  3  1  0  0  0  0
  3  7  2  0  0  0  0
  3 19  1  0  0  0  0
  4 11  1  0  0  0  0
  4 15  2  0  0  0  0
  6  1  1  0  0  0  0
  6 17  2  0  0  0  0
  7  4  1  0  0  0  0
  8 21  1  6  0  0  0
  8 13  1  0  0  0  0
  9  1  2  0  0  0  0
 10 19  1  0  0  0  0
 12 16  1  0  0  0  0
 12  8  1  0  0  0  0
 13  2  1  0  0  0  0
 13 18  1  1  0  0  0
 14  5  2  0  0  0  0
 16 17  1  6  0  0  0
 16  5  1  0  0  0  0
 18 10  1  0  0  0  0
 19 20  2  0  0  0  0
 20 15  1  0  0  0  0
 21 23  1  0  0  0  0
 23 22  1  6  0  0  0
 24 28  1  0  0  0  0
 24 27  1  0  0  0  0
 25 28  1  0  0  0  0
 29 26  1  6  0  0  0
 29 30  1  0  0  0  0
 29 31  1  0  0  0  0
 30 23  1  1  0  0  0
 30 25  1  0  0  0  0
 31 24  1  0  0  0  0
M  END
>  <MODEL>
8

>  <REMARK>
 VINA RESULT:      -7.3      2.666      7.282
  Name = 
  3 active torsions:
  status: ('A' for Active; 'I' for Inactive)
    1  A    between atoms: C_5  and  N_16
    2  A    between atoms: C_5  and  C_30
    3  A    between atoms: C_10  and  N_16
                            x       y       z     vdW  Elec       q    Type
                         _______ _______ _______ _____ _____    ______ ____

>  <TORSDO>
F 3

$$$$
=
 OpenBabel11112416493D

 31 35  0  0  1  0  0  0  0  0999 V2000
  185.9340  178.5140  146.7380 C   0  0  0  0  0  0  0  0  0  0  0  0
  188.8930  178.0060  144.4660 C   0  0  2  0  0  3  0  0  0  0  0  0
  190.0640  177.3250  145.1470 C   0  0  0  0  0  0  0  0  0  0  0  0
  191.2550  176.6770  147.1640 C   0  0  0  0  0  0  0  0  0  0  0  0
  187.5980  177.7780  145.1910 C   0  0  0  0  0  0  0  0  0  0  0  0
  185.1040  177.3320  146.4940 C   0  0  0  0  0  3  0  0  0  0  0  0
  190.1590  177.2840  146.5470 C   0  0  0  0  0  3  0  0  0  0  0  0
  188.1290  176.1830  142.8410 C   0  0  2  0  0  3  0  0  0  0  0  0
  185.5600  179.3900  147.5600 O   0  0  0  0  0  0  0  0  0  0  0  0
  191.0660  176.8580  142.9770 O   0  0  0  0  0  0  0  0  0  0  0  0
  191.3380  176.6260  148.6470 C   0  0  0  0  0  1  0  0  0  0  0  0
  186.7660  176.1270  143.5260 C   0  0  0  0  0  2  0  0  0  0  0  0
  188.7470  177.5890  142.9840 C   0  0  2  0  0  3  0  0  0  0  0  0
  187.1570  178.6830  146.0150 N   0  0  0  0  0  0  0  0  0  0  0  0
  192.2720  176.1150  146.3890 C   0  0  0  0  0  3  0  0  0  0  0  0
  186.8940  176.4480  145.0100 C   0  0  2  0  0  3  0  0  0  0  0  0
  185.5410  176.3820  145.6700 C   0  0  0  0  0  3  0  0  0  0  0  0
  190.1120  177.6740  142.3000 C   0  0  0  0  0  2  0  0  0  0  0  0
  191.1130  176.7890  144.3720 C   0  0  0  0  0  0  0  0  0  0  0  0
  192.2010  176.1730  144.9950 C   0  0  0  0  0  3  0  0  0  0  0  0
  187.9660  175.8350  141.4350 N   0  0  0  0  0  2  0  0  0  0  0  0
  189.4000  174.2410  142.3390 O   0  0  0  0  0  1  0  0  0  0  0  0
  188.9040  174.7600  141.1400 C   0  0  1  0  0  3  0  0  0  0  0  0
  190.1980  172.3820  138.5810 N   0  0  0  0  0  0  0  0  0  0  0  0
  188.8580  172.2860  140.6400 C   0  0  0  0  0  2  0  0  0  0  0  0
  187.7260  175.0930  138.4320 O   0  0  0  0  0  1  0  0  0  0  0  0
  191.5650  172.3320  138.0950 C   0  0  0  0  0  1  0  0  0  0  0  0
  190.2620  172.2050  140.0310 C   0  0  0  0  0  2  0  0  0  0  0  0
  188.2690  173.8640  138.8050 C   0  0  2  0  0  3  0  0  0  0  0  0
  188.2180  173.6460  140.3290 C   0  0  2  0  0  3  0  0  0  0  0  0
  189.6980  173.7240  138.2880 C   0  0  0  0  0  2  0  0  0  0  0  0
  1  9  2  0  0  0  0
  2  3  1  1  0  0  0
  2  5  1  0  0  0  0
  3  7  1  0  0  0  0
  4 11  1  0  0  0  0
  5 14  2  0  0  0  0
  6  1  1  0  0  0  0
  7  4  2  0  0  0  0
  8 21  1  6  0  0  0
  8 13  1  0  0  0  0
  8 12  1  0  0  0  0
 10 19  1  0  0  0  0
 13 18  1  1  0  0  0
 13  2  1  0  0  0  0
 14  1  1  0  0  0  0
 15  4  1  0  0  0  0
 16 12  1  6  0  0  0
 16  5  1  0  0  0  0
 16 17  1  0  0  0  0
 17  6  2  0  0  0  0
 18 10  1  0  0  0  0
 19 20  1  0  0  0  0
 19  3  2  0  0  0  0
 20 15  2  0  0  0  0
 23 21  1  0  0  0  0
 23 22  1  1  0  0  0
 24 28  1  0  0  0  0
 27 24  1  0  0  0  0
 28 25  1  0  0  0  0
 29 26  1  1  0  0  0
 29 30  1  0  0  0  0
 30 25  1  0  0  0  0
 30 23  1  1  0  0  0
 31 24  1  0  0  0  0
 31 29  1  0  0  0  0
M  END
>  <MODEL>
9

>  <REMARK>
 VINA RESULT:      -7.2      2.831      5.956
  Name = 
  3 active torsions:
  status: ('A' for Active; 'I' for Inactive)
    1  A    between atoms: C_5  and  N_16
    2  A    between atoms: C_5  and  C_30
    3  A    between atoms: C_10  and  N_16
                            x       y       z     vdW  Elec       q    Type
                         _______ _______ _______ _____ _____    ______ ____

>  <TORSDO>
F 3

$$$$
