=
 OpenBabel11112416553D

 31 35  0  0  1  0  0  0  0  0999 V2000
  184.9910  178.0420  146.8290 C   0  0  0  0  0  0  0  0  0  0  0  0
  186.8120  177.6750  143.5510 C   0  0  0  0  0  0  0  0  0  0  0  0
  185.8460  177.8420  142.5110 C   0  0  0  0  0  0  0  0  0  0  0  0
  191.4710  176.7980  145.8420 O   0  0  0  0  0  0  0  0  0  0  0  0
  191.6300  176.7870  144.5910 C   0  0  0  0  0  0  0  0  0  0  0  0
  183.5680  178.2500  141.7210 C   0  0  0  0  0  0  0  0  0  0  0  0
  186.5220  177.7410  144.9480 C   0  0  0  0  0  0  0  0  0  0  0  0
  186.0400  177.8570  147.7280 C   0  0  0  0  0  3  0  0  0  0  0  0
  184.4840  178.0920  142.7640 C   0  0  0  0  0  3  0  0  0  0  0  0
  189.1540  177.2470  144.1320 C   0  0  0  0  0  0  0  0  0  0  0  0
  183.7080  178.2840  147.2970 O   0  0  0  0  0  1  0  0  0  0  0  0
  187.5890  177.5070  140.8540 C   0  0  0  0  0  3  0  0  0  0  0  0
  182.2320  178.4960  142.0050 O   0  0  0  0  0  1  0  0  0  0  0  0
  188.8370  177.3170  145.4490 N   0  0  0  0  0  0  0  0  0  0  0  0
  188.1580  177.4230  143.1630 C   0  0  0  0  0  0  0  0  0  0  0  0
  190.5070  176.9940  143.7210 N   0  0  0  0  0  2  0  0  0  0  0  0
  185.2330  177.9860  145.4540 C   0  0  0  0  0  3  0  0  0  0  0  0
  183.9960  178.1600  140.3970 C   0  0  0  0  0  3  0  0  0  0  0  0
  187.5750  177.5550  145.8780 C   0  0  0  0  0  0  0  0  0  0  0  0
  187.3290  177.6140  147.2530 C   0  0  0  0  0  3  0  0  0  0  0  0
  188.4960  177.3490  141.8470 N   0  0  0  0  0  0  0  0  0  0  0  0
  186.2580  177.7550  141.1570 C   0  0  0  0  0  0  0  0  0  0  0  0
  185.3390  177.9120  140.1160 C   0  0  0  0  0  3  0  0  0  0  0  0
  195.4840  176.0130  142.8130 C   0  0  1  0  0  3  0  0  0  0  0  0
  193.0520  176.4360  142.5700 C   0  0  0  0  0  2  0  0  0  0  0  0
  194.1230  177.0340  145.9970 O   0  0  0  0  0  0  0  0  0  0  0  0
  196.5580  175.2470  142.3630 O   0  0  0  0  0  1  0  0  0  0  0  0
  194.1990  175.5160  142.1700 C   0  0  0  0  0  2  0  0  0  0  0  0
  194.1280  176.5450  144.8370 C   0  0  0  0  0  0  0  0  0  0  0  0
  192.9320  176.5430  144.0270 N   0  0  0  0  0  0  0  0  0  0  0  0
  195.3850  175.9060  144.3290 C   0  0  0  0  0  2  0  0  0  0  0  0
  1 11  1  0  0  0  0
  1  8  1  0  0  0  0
  2  7  1  0  0  0  0
  3  9  1  0  0  0  0
  3  2  2  0  0  0  0
  5  4  2  0  0  0  0
  6 13  1  0  0  0  0
  6  9  2  0  0  0  0
  7 17  1  0  0  0  0
  7 19  2  0  0  0  0
 10 14  2  0  0  0  0
 12 22  2  0  0  0  0
 12 21  1  0  0  0  0
 14 19  1  0  0  0  0
 15  2  1  0  0  0  0
 15 10  1  0  0  0  0
 16 10  1  0  0  0  0
 16  5  1  0  0  0  0
 17  1  2  0  0  0  0
 18  6  1  0  0  0  0
 19 20  1  0  0  0  0
 20  8  2  0  0  0  0
 21 15  2  0  0  0  0
 22  3  1  0  0  0  0
 23 18  2  0  0  0  0
 23 22  1  0  0  0  0
 24 27  1  6  0  0  0
 24 31  1  0  0  0  0
 25 30  1  0  0  0  0
 28 25  1  0  0  0  0
 28 24  1  0  0  0  0
 29 26  2  0  0  0  0
 30  5  1  0  0  0  0
 30 29  1  0  0  0  0
 31 29  1  0  0  0  0
M  END
>  <MODEL>
1

>  <REMARK>
 VINA RESULT:     -10.2      0.000      0.000
  Name = 
  0 active torsions:
  status: ('A' for Active; 'I' for Inactive)
                            x       y       z     vdW  Elec       q    Type
                         _______ _______ _______ _____ _____    ______ ____

>  <TORSDO>
F 0

$$$$
=
 OpenBabel11112416553D

 31 35  0  0  1  0  0  0  0  0999 V2000
  185.4490  177.8950  140.9250 C   0  0  0  0  0  0  0  0  0  0  0  0
  187.2010  176.6910  144.0350 C   0  0  0  0  0  0  0  0  0  0  0  0
  186.4370  177.1490  145.1540 C   0  0  0  0  0  0  0  0  0  0  0  0
  191.0750  174.3340  141.3600 O   0  0  0  0  0  0  0  0  0  0  0  0
  191.2640  174.1440  142.5920 C   0  0  0  0  0  0  0  0  0  0  0  0
  184.5400  178.3400  146.1340 C   0  0  0  0  0  0  0  0  0  0  0  0
  186.8700  176.9400  142.6690 C   0  0  0  0  0  0  0  0  0  0  0  0
  186.2920  177.3830  139.9400 C   0  0  0  0  0  3  0  0  0  0  0  0
  185.2600  177.9090  145.0180 C   0  0  0  0  0  3  0  0  0  0  0  0
  189.1700  175.4550  143.2590 C   0  0  0  0  0  0  0  0  0  0  0  0
  184.3240  178.6220  140.5670 O   0  0  0  0  0  1  0  0  0  0  0  0
  188.0240  176.0920  146.6560 C   0  0  0  0  0  3  0  0  0  0  0  0
  183.3830  179.0880  145.9650 O   0  0  0  0  0  1  0  0  0  0  0  0
  188.8210  175.7140  141.9740 N   0  0  0  0  0  0  0  0  0  0  0  0
  188.3750  175.9340  144.3090 C   0  0  0  0  0  0  0  0  0  0  0  0
  190.3500  174.6920  143.5540 N   0  0  0  0  0  2  0  0  0  0  0  0
  185.7370  177.6730  142.2740 C   0  0  0  0  0  3  0  0  0  0  0  0
  184.9830  178.0200  147.4170 C   0  0  0  0  0  3  0  0  0  0  0  0
  187.7160  176.4290  141.6530 C   0  0  0  0  0  0  0  0  0  0  0  0
  187.4240  176.6520  140.3040 C   0  0  0  0  0  3  0  0  0  0  0  0
  188.7410  175.6630  145.5910 N   0  0  0  0  0  0  0  0  0  0  0  0
  186.8690  176.8350  146.4670 C   0  0  0  0  0  0  0  0  0  0  0  0
  186.1460  177.2690  147.5820 C   0  0  0  0  0  3  0  0  0  0  0  0
  194.6960  171.9660  144.0370 C   0  0  1  0  0  3  0  0  0  0  0  0
  192.6470  173.2900  144.4850 C   0  0  0  0  0  2  0  0  0  0  0  0
  192.8390  172.3730  140.9670 O   0  0  0  0  0  0  0  0  0  0  0  0
  196.0260  171.7640  144.4030 O   0  0  0  0  0  1  0  0  0  0  0  0
  194.1330  173.1550  144.7980 C   0  0  0  0  0  2  0  0  0  0  0  0
  193.2380  172.6440  142.1310 C   0  0  0  0  0  0  0  0  0  0  0  0
  192.4100  173.3990  143.0430 N   0  0  0  0  0  0  0  0  0  0  0  0
  194.6170  172.2200  142.5370 C   0  0  0  0  0  2  0  0  0  0  0  0
  1 17  1  0  0  0  0
  2 15  2  0  0  0  0
  2  3  1  0  0  0  0
  3 22  1  0  0  0  0
  4  5  2  0  0  0  0
  5 30  1  0  0  0  0
  5 16  1  0  0  0  0
  6 18  2  0  0  0  0
  7  2  1  0  0  0  0
  8 20  1  0  0  0  0
  8  1  2  0  0  0  0
  9  3  2  0  0  0  0
  9  6  1  0  0  0  0
 10 16  1  0  0  0  0
 10 15  1  0  0  0  0
 11  1  1  0  0  0  0
 13  6  1  0  0  0  0
 14 10  2  0  0  0  0
 15 21  1  0  0  0  0
 17  7  2  0  0  0  0
 18 23  1  0  0  0  0
 19 14  1  0  0  0  0
 19  7  1  0  0  0  0
 20 19  2  0  0  0  0
 21 12  2  0  0  0  0
 22 12  1  0  0  0  0
 22 23  2  0  0  0  0
 24 27  1  1  0  0  0
 24 28  1  0  0  0  0
 25 28  1  0  0  0  0
 26 29  2  0  0  0  0
 29 31  1  0  0  0  0
 29 30  1  0  0  0  0
 30 25  1  0  0  0  0
 31 24  1  0  0  0  0
M  END
>  <MODEL>
2

>  <REMARK>
 VINA RESULT:      -9.2      2.478      4.736
  Name = 
  0 active torsions:
  status: ('A' for Active; 'I' for Inactive)
                            x       y       z     vdW  Elec       q    Type
                         _______ _______ _______ _____ _____    ______ ____

>  <TORSDO>
F 0

$$$$
=
 OpenBabel11112416553D

 31 35  0  0  1  0  0  0  0  0999 V2000
  185.7250  177.6510  141.0440 C   0  0  0  0  0  0  0  0  0  0  0  0
  187.5320  177.2280  144.3230 C   0  0  0  0  0  0  0  0  0  0  0  0
  186.6450  177.6730  145.3530 C   0  0  0  0  0  0  0  0  0  0  0  0
  191.8980  175.3360  142.0700 O   0  0  0  0  0  0  0  0  0  0  0  0
  192.0640  175.3510  143.3200 C   0  0  0  0  0  0  0  0  0  0  0  0
  184.5140  178.5920  146.1230 C   0  0  0  0  0  0  0  0  0  0  0  0
  187.2220  177.2270  142.9290 C   0  0  0  0  0  0  0  0  0  0  0  0
  186.6940  177.1880  140.1550 C   0  0  0  0  0  3  0  0  0  0  0  0
  185.3530  178.1660  145.0910 C   0  0  0  0  0  3  0  0  0  0  0  0
  189.7310  176.3070  143.7610 C   0  0  0  0  0  0  0  0  0  0  0  0
  184.5000  178.0930  140.5680 O   0  0  0  0  0  1  0  0  0  0  0  0
  188.3340  177.1490  147.0160 C   0  0  0  0  0  3  0  0  0  0  0  0
  183.2460  179.0720  145.8310 O   0  0  0  0  0  1  0  0  0  0  0  0
  189.3980  176.3220  142.4460 N   0  0  0  0  0  0  0  0  0  0  0  0
  188.8140  176.7550  144.7200 C   0  0  0  0  0  0  0  0  0  0  0  0
  191.0210  175.8320  144.1800 N   0  0  0  0  0  2  0  0  0  0  0  0
  185.9890  177.6680  142.4150 C   0  0  0  0  0  3  0  0  0  0  0  0
  184.9520  178.5350  147.4460 C   0  0  0  0  0  3  0  0  0  0  0  0
  188.1940  176.7600  142.0090 C   0  0  0  0  0  0  0  0  0  0  0  0
  187.9250  176.7440  140.6370 C   0  0  0  0  0  3  0  0  0  0  0  0
  189.1670  176.7320  146.0330 N   0  0  0  0  0  0  0  0  0  0  0  0
  187.0690  177.6240  146.7050 C   0  0  0  0  0  0  0  0  0  0  0  0
  186.2280  178.0520  147.7360 C   0  0  0  0  0  3  0  0  0  0  0  0
  195.7780  174.0870  145.1160 C   0  0  1  0  0  3  0  0  0  0  0  0
  193.4970  175.0360  145.3390 C   0  0  0  0  0  2  0  0  0  0  0  0
  194.0180  173.7200  141.9850 O   0  0  0  0  0  0  0  0  0  0  0  0
  197.1040  174.1970  145.5320 O   0  0  0  0  0  1  0  0  0  0  0  0
  194.9660  175.2340  145.6960 C   0  0  0  0  0  2  0  0  0  0  0  0
  194.3050  174.2140  143.1080 C   0  0  0  0  0  0  0  0  0  0  0  0
  193.3090  174.9070  143.8910 N   0  0  0  0  0  0  0  0  0  0  0  0
  195.7200  174.1220  143.5940 C   0  0  0  0  0  2  0  0  0  0  0  0
  1 17  1  0  0  0  0
  2 15  2  0  0  0  0
  2  3  1  0  0  0  0
  3 22  1  0  0  0  0
  4  5  2  0  0  0  0
  5 30  1  0  0  0  0
  5 16  1  0  0  0  0
  6 18  2  0  0  0  0
  7  2  1  0  0  0  0
  8 20  1  0  0  0  0
  8  1  2  0  0  0  0
  9  3  2  0  0  0  0
  9  6  1  0  0  0  0
 10 16  1  0  0  0  0
 10 15  1  0  0  0  0
 11  1  1  0  0  0  0
 13  6  1  0  0  0  0
 14 10  2  0  0  0  0
 15 21  1  0  0  0  0
 17  7  2  0  0  0  0
 18 23  1  0  0  0  0
 19 14  1  0  0  0  0
 19  7  1  0  0  0  0
 20 19  2  0  0  0  0
 21 12  2  0  0  0  0
 22 12  1  0  0  0  0
 22 23  2  0  0  0  0
 24 27  1  6  0  0  0
 24 28  1  0  0  0  0
 25 28  1  0  0  0  0
 26 29  2  0  0  0  0
 29 31  1  0  0  0  0
 29 30  1  0  0  0  0
 30 25  1  0  0  0  0
 31 24  1  0  0  0  0
M  END
>  <MODEL>
3

>  <REMARK>
 VINA RESULT:      -9.2      1.780      4.353
  Name = 
  0 active torsions:
  status: ('A' for Active; 'I' for Inactive)
                            x       y       z     vdW  Elec       q    Type
                         _______ _______ _______ _____ _____    ______ ____

>  <TORSDO>
F 0

$$$$
=
 OpenBabel11112416553D

 31 35  0  0  1  0  0  0  0  0999 V2000
  191.2800  176.6040  147.4500 C   0  0  0  0  0  0  0  0  0  0  0  0
  188.5920  176.3360  144.8240 C   0  0  0  0  0  0  0  0  0  0  0  0
  187.4140  176.9430  145.3630 C   0  0  0  0  0  0  0  0  0  0  0  0
  191.7030  173.8260  141.3980 O   0  0  0  0  0  0  0  0  0  0  0  0
  190.5720  173.9930  140.8670 C   0  0  0  0  0  0  0  0  0  0  0  0
  186.1970  178.0930  147.1440 C   0  0  0  0  0  0  0  0  0  0  0  0
  189.8390  176.2320  145.5110 C   0  0  0  0  0  0  0  0  0  0  0  0
  192.3420  175.9820  146.7950 C   0  0  0  0  0  3  0  0  0  0  0  0
  187.3650  177.5080  146.6510 C   0  0  0  0  0  3  0  0  0  0  0  0
  189.6250  175.1870  142.9230 C   0  0  0  0  0  0  0  0  0  0  0  0
  191.4510  177.1020  148.7330 O   0  0  0  0  0  1  0  0  0  0  0  0
  186.2280  176.4410  143.3050 C   0  0  0  0  0  3  0  0  0  0  0  0
  186.1810  178.6420  148.4190 O   0  0  0  0  0  1  0  0  0  0  0  0
  190.7920  175.1080  143.6090 N   0  0  0  0  0  0  0  0  0  0  0  0
  188.5090  175.7980  143.5100 C   0  0  0  0  0  0  0  0  0  0  0  0
  189.5240  174.6500  141.5950 N   0  0  0  0  0  2  0  0  0  0  0  0
  190.0440  176.7270  146.8120 C   0  0  0  0  0  3  0  0  0  0  0  0
  185.0460  178.1250  146.3570 C   0  0  0  0  0  3  0  0  0  0  0  0
  190.9300  175.6030  144.8630 C   0  0  0  0  0  0  0  0  0  0  0  0
  192.1670  175.4830  145.5040 C   0  0  0  0  0  3  0  0  0  0  0  0
  187.3480  175.8680  142.8040 N   0  0  0  0  0  0  0  0  0  0  0  0
  186.2330  176.9870  144.5800 C   0  0  0  0  0  0  0  0  0  0  0  0
  185.0650  177.5720  145.0770 C   0  0  0  0  0  3  0  0  0  0  0  0
  189.7020  172.5180  136.9060 C   0  0  1  0  0  3  0  0  0  0  0  0
  188.9600  173.6280  138.9970 C   0  0  0  0  0  2  0  0  0  0  0  0
  192.5840  173.2940  138.9380 O   0  0  0  0  0  0  0  0  0  0  0  0
  189.3660  171.5790  135.9320 O   0  0  0  0  0  1  0  0  0  0  0  0
  188.6500  172.5140  138.0030 C   0  0  0  0  0  2  0  0  0  0  0  0
  191.3790  173.0350  138.6780 C   0  0  0  0  0  0  0  0  0  0  0  0
  190.3160  173.5040  139.5360 N   0  0  0  0  0  0  0  0  0  0  0  0
  191.0670  172.1760  137.4900 C   0  0  0  0  0  2  0  0  0  0  0  0
  1 11  1  0  0  0  0
  2  3  1  0  0  0  0
  2  7  1  0  0  0  0
  3  9  1  0  0  0  0
  5  4  2  0  0  0  0
  5 16  1  0  0  0  0
  6 13  1  0  0  0  0
  7 17  2  0  0  0  0
  8  1  2  0  0  0  0
  9  6  2  0  0  0  0
 10 15  1  0  0  0  0
 10 14  2  0  0  0  0
 12 22  1  0  0  0  0
 14 19  1  0  0  0  0
 15  2  2  0  0  0  0
 16 10  1  0  0  0  0
 17  1  1  0  0  0  0
 18  6  1  0  0  0  0
 19 20  2  0  0  0  0
 19  7  1  0  0  0  0
 20  8  1  0  0  0  0
 21 12  2  0  0  0  0
 21 15  1  0  0  0  0
 22 23  1  0  0  0  0
 22  3  2  0  0  0  0
 23 18  2  0  0  0  0
 24 27  1  6  0  0  0
 24 31  1  0  0  0  0
 24 28  1  0  0  0  0
 25 30  1  0  0  0  0
 28 25  1  0  0  0  0
 29 26  2  0  0  0  0
 29 30  1  0  0  0  0
 30  5  1  0  0  0  0
 31 29  1  0  0  0  0
M  END
>  <MODEL>
4

>  <REMARK>
 VINA RESULT:      -9.0      3.806      5.857
  Name = 
  0 active torsions:
  status: ('A' for Active; 'I' for Inactive)
                            x       y       z     vdW  Elec       q    Type
                         _______ _______ _______ _____ _____    ______ ____

>  <TORSDO>
F 0

$$$$
=
 OpenBabel11112416553D

 31 35  0  0  1  0  0  0  0  0999 V2000
  192.9180  172.6550  140.2930 C   0  0  0  0  0  0  0  0  0  0  0  0
  192.7210  174.4540  143.5980 C   0  0  0  0  0  0  0  0  0  0  0  0
  194.0100  174.3560  144.2090 C   0  0  0  0  0  0  0  0  0  0  0  0
  187.6510  175.7370  142.9910 O   0  0  0  0  0  0  0  0  0  0  0  0
  188.0580  176.2140  144.0840 C   0  0  0  0  0  0  0  0  0  0  0  0
  196.3380  173.6090  144.2370 C   0  0  0  0  0  0  0  0  0  0  0  0
  192.3800  173.8980  142.3280 C   0  0  0  0  0  0  0  0  0  0  0  0
  191.6170  172.8320  139.8260 C   0  0  0  0  0  3  0  0  0  0  0  0
  195.0930  173.6850  143.6090 C   0  0  0  0  0  3  0  0  0  0  0  0
  190.4240  175.2890  143.7690 C   0  0  0  0  0  0  0  0  0  0  0  0
  193.8420  171.9560  139.5310 O   0  0  0  0  0  1  0  0  0  0  0  0
  193.1920  175.6240  146.1110 C   0  0  0  0  0  3  0  0  0  0  0  0
  197.3850  172.9410  143.6180 O   0  0  0  0  0  1  0  0  0  0  0  0
  190.1400  174.7450  142.5590 N   0  0  0  0  0  0  0  0  0  0  0  0
  191.7090  175.1570  144.3100 C   0  0  0  0  0  0  0  0  0  0  0  0
  189.4150  176.0030  144.5020 N   0  0  0  0  0  2  0  0  0  0  0  0
  193.2930  173.1850  141.5300 C   0  0  0  0  0  3  0  0  0  0  0  0
  196.5290  174.2040  145.4830 C   0  0  0  0  0  3  0  0  0  0  0  0
  191.0610  174.0660  141.8360 C   0  0  0  0  0  0  0  0  0  0  0  0
  190.6910  173.5360  140.5960 C   0  0  0  0  0  3  0  0  0  0  0  0
  191.9750  175.7100  145.5240 N   0  0  0  0  0  0  0  0  0  0  0  0
  194.2270  174.9540  145.4760 C   0  0  0  0  0  0  0  0  0  0  0  0
  195.4740  174.8750  146.1020 C   0  0  0  0  0  3  0  0  0  0  0  0
  185.4240  178.3970  146.7130 C   0  0  1  0  0  3  0  0  0  0  0  0
  187.6460  177.4010  146.2410 C   0  0  0  0  0  2  0  0  0  0  0  0
  185.5700  177.3850  143.2500 O   0  0  0  0  0  0  0  0  0  0  0  0
  184.4360  178.5750  147.6810 O   0  0  0  0  0  1  0  0  0  0  0  0
  186.5130  177.4880  147.2580 C   0  0  0  0  0  2  0  0  0  0  0  0
  185.8590  177.3840  144.4760 C   0  0  0  0  0  0  0  0  0  0  0  0
  187.1600  176.9530  144.9330 N   0  0  0  0  0  0  0  0  0  0  0  0
  184.8040  177.7810  145.4650 C   0  0  0  0  0  2  0  0  0  0  0  0
  1 17  1  0  0  0  0
  2  3  2  0  0  0  0
  2 15  1  0  0  0  0
  3 22  1  0  0  0  0
  4  5  2  0  0  0  0
  5 16  1  0  0  0  0
  5 30  1  0  0  0  0
  6 18  1  0  0  0  0
  7  2  1  0  0  0  0
  8  1  2  0  0  0  0
  8 20  1  0  0  0  0
  9  3  1  0  0  0  0
  9  6  2  0  0  0  0
 10 15  1  0  0  0  0
 10 16  1  0  0  0  0
 11  1  1  0  0  0  0
 13  6  1  0  0  0  0
 14 10  2  0  0  0  0
 15 21  2  0  0  0  0
 17  7  2  0  0  0  0
 18 23  2  0  0  0  0
 19  7  1  0  0  0  0
 19 14  1  0  0  0  0
 20 19  2  0  0  0  0
 21 12  1  0  0  0  0
 22 23  1  0  0  0  0
 22 12  2  0  0  0  0
 24 28  1  0  0  0  0
 24 27  1  1  0  0  0
 25 28  1  0  0  0  0
 26 29  2  0  0  0  0
 29 30  1  0  0  0  0
 29 31  1  0  0  0  0
 30 25  1  0  0  0  0
 31 24  1  0  0  0  0
M  END
>  <MODEL>
5

>  <REMARK>
 VINA RESULT:      -8.0      2.667      9.492
  Name = 
  0 active torsions:
  status: ('A' for Active; 'I' for Inactive)
                            x       y       z     vdW  Elec       q    Type
                         _______ _______ _______ _____ _____    ______ ____

>  <TORSDO>
F 0

$$$$
=
 OpenBabel11112416553D

 31 35  0  0  1  0  0  0  0  0999 V2000
  195.3470  174.9460  145.0810 C   0  0  0  0  0  0  0  0  0  0  0  0
  192.0920  174.5370  143.2290 C   0  0  0  0  0  0  0  0  0  0  0  0
  192.3540  173.7090  142.0930 C   0  0  0  0  0  0  0  0  0  0  0  0
  189.3930  177.5410  146.6070 O   0  0  0  0  0  0  0  0  0  0  0  0
  188.5990  177.1150  145.7240 C   0  0  0  0  0  0  0  0  0  0  0  0
  193.8490  172.3860  140.6810 C   0  0  0  0  0  0  0  0  0  0  0  0
  193.0710  174.9320  144.1900 C   0  0  0  0  0  0  0  0  0  0  0  0
  194.9410  175.7590  146.1380 C   0  0  0  0  0  3  0  0  0  0  0  0
  193.6300  173.1920  141.8010 C   0  0  0  0  0  3  0  0  0  0  0  0
  190.4330  175.8160  144.5010 C   0  0  0  0  0  0  0  0  0  0  0  0
  196.6700  174.5410  144.9840 O   0  0  0  0  0  1  0  0  0  0  0  0
  190.0190  173.8730  141.4490 C   0  0  0  0  0  3  0  0  0  0  0  0
  195.1190  171.8910  140.4220 O   0  0  0  0  0  1  0  0  0  0  0  0
  191.3930  176.1690  145.3920 N   0  0  0  0  0  0  0  0  0  0  0  0
  190.7580  175.0000  143.4090 C   0  0  0  0  0  0  0  0  0  0  0  0
  189.0820  176.2730  144.6670 N   0  0  0  0  0  2  0  0  0  0  0  0
  194.4200  174.5380  144.1200 C   0  0  0  0  0  3  0  0  0  0  0  0
  192.7930  172.0790  139.8250 C   0  0  0  0  0  3  0  0  0  0  0  0
  192.6780  175.7590  145.2720 C   0  0  0  0  0  0  0  0  0  0  0  0
  193.6100  176.1650  146.2330 C   0  0  0  0  0  3  0  0  0  0  0  0
  189.7810  174.6570  142.5270 N   0  0  0  0  0  0  0  0  0  0  0  0
  191.2950  173.3850  141.2090 C   0  0  0  0  0  0  0  0  0  0  0  0
  191.5170  172.5790  140.0880 C   0  0  0  0  0  3  0  0  0  0  0  0
  184.4310  178.2300  145.7140 C   0  0  1  0  0  3  0  0  0  0  0  0
  186.3450  177.0590  144.6560 C   0  0  0  0  0  2  0  0  0  0  0  0
  187.2140  178.1650  148.0130 O   0  0  0  0  0  0  0  0  0  0  0  0
  183.3210  179.0410  145.4810 O   0  0  0  0  0  1  0  0  0  0  0  0
  185.2060  178.0450  144.4190 C   0  0  0  0  0  2  0  0  0  0  0  0
  186.6220  178.1490  146.9010 C   0  0  0  0  0  0  0  0  0  0  0  0
  187.2090  177.4910  145.7570 N   0  0  0  0  0  0  0  0  0  0  0  0
  185.3200  178.8790  146.7670 C   0  0  0  0  0  2  0  0  0  0  0  0
  1  8  1  0  0  0  0
  2 15  1  0  0  0  0
  2  7  1  0  0  0  0
  3  2  2  0  0  0  0
  5 30  1  0  0  0  0
  5  4  2  0  0  0  0
  6  9  2  0  0  0  0
  7 19  2  0  0  0  0
  8 20  2  0  0  0  0
  9  3  1  0  0  0  0
 10 16  1  0  0  0  0
 10 14  2  0  0  0  0
 11  1  1  0  0  0  0
 12 21  1  0  0  0  0
 13  6  1  0  0  0  0
 15 10  1  0  0  0  0
 16  5  1  0  0  0  0
 17  7  1  0  0  0  0
 17  1  2  0  0  0  0
 18 23  2  0  0  0  0
 18  6  1  0  0  0  0
 19 14  1  0  0  0  0
 19 20  1  0  0  0  0
 21 15  2  0  0  0  0
 22 12  2  0  0  0  0
 22  3  1  0  0  0  0
 23 22  1  0  0  0  0
 24 27  1  6  0  0  0
 24 31  1  0  0  0  0
 25 30  1  0  0  0  0
 28 25  1  0  0  0  0
 28 24  1  0  0  0  0
 29 26  2  0  0  0  0
 30 29  1  0  0  0  0
 31 29  1  0  0  0  0
M  END
>  <MODEL>
6

>  <REMARK>
 VINA RESULT:      -8.0      2.492      8.460
  Name = 
  0 active torsions:
  status: ('A' for Active; 'I' for Inactive)
                            x       y       z     vdW  Elec       q    Type
                         _______ _______ _______ _____ _____    ______ ____

>  <TORSDO>
F 0

$$$$
=
 OpenBabel11112416553D

 31 35  0  0  1  0  0  0  0  0999 V2000
  186.0340  178.2740  142.1810 C   0  0  0  0  0  0  0  0  0  0  0  0
  188.4110  175.4820  143.0460 C   0  0  0  0  0  0  0  0  0  0  0  0
  188.5870  175.5020  144.4650 C   0  0  0  0  0  0  0  0  0  0  0  0
  189.0050  173.9710  138.0370 O   0  0  0  0  0  0  0  0  0  0  0  0
  189.6860  173.2050  138.7720 C   0  0  0  0  0  0  0  0  0  0  0  0
  188.1450  176.4270  146.6850 C   0  0  0  0  0  0  0  0  0  0  0  0
  187.5800  176.3860  142.3170 C   0  0  0  0  0  0  0  0  0  0  0  0
  185.9620  178.1320  140.7970 C   0  0  0  0  0  3  0  0  0  0  0  0
  187.9490  176.4370  145.3020 C   0  0  0  0  0  3  0  0  0  0  0  0
  188.9890  174.4130  140.9180 C   0  0  0  0  0  0  0  0  0  0  0  0
  185.3100  179.2730  142.8160 O   0  0  0  0  0  1  0  0  0  0  0  0
  190.0940  173.6070  144.2930 C   0  0  0  0  0  3  0  0  0  0  0  0
  187.5010  177.3610  147.4820 O   0  0  0  0  0  1  0  0  0  0  0  0
  188.1900  175.2920  140.2630 N   0  0  0  0  0  0  0  0  0  0  0  0
  189.1160  174.4880  142.3110 C   0  0  0  0  0  0  0  0  0  0  0  0
  189.7080  173.4020  140.1930 N   0  0  0  0  0  2  0  0  0  0  0  0
  186.8340  177.4090  142.9310 C   0  0  0  0  0  3  0  0  0  0  0  0
  188.9890  175.4780  147.2630 C   0  0  0  0  0  3  0  0  0  0  0  0
  187.4950  176.2580  140.9080 C   0  0  0  0  0  0  0  0  0  0  0  0
  186.6910  177.1260  140.1620 C   0  0  0  0  0  3  0  0  0  0  0  0
  189.9220  173.5970  142.9500 N   0  0  0  0  0  0  0  0  0  0  0  0
  189.4390  174.5470  145.0740 C   0  0  0  0  0  0  0  0  0  0  0  0
  189.6350  174.5410  146.4580 C   0  0  0  0  0  3  0  0  0  0  0  0
  192.0870  170.0310  137.1060 C   0  0  1  0  0  3  0  0  0  0  0  0
  191.3210  171.3430  139.0670 C   0  0  0  0  0  2  0  0  0  0  0  0
  189.3160  172.1310  136.1320 O   0  0  0  0  0  0  0  0  0  0  0  0
  193.1910  169.4490  136.4850 O   0  0  0  0  0  1  0  0  0  0  0  0
  192.5440  170.8150  138.3260 C   0  0  0  0  0  2  0  0  0  0  0  0
  190.3150  171.7590  136.8040 C   0  0  0  0  0  0  0  0  0  0  0  0
  190.4650  172.1440  138.1880 N   0  0  0  0  0  0  0  0  0  0  0  0
  191.3830  170.9570  136.1230 C   0  0  0  0  0  2  0  0  0  0  0  0
  1 11  1  0  0  0  0
  1 17  1  0  0  0  0
  2  3  1  0  0  0  0
  3 22  2  0  0  0  0
  3  9  1  0  0  0  0
  4  5  2  0  0  0  0
  5 16  1  0  0  0  0
  6 18  1  0  0  0  0
  6 13  1  0  0  0  0
  7 17  2  0  0  0  0
  7  2  1  0  0  0  0
  8  1  2  0  0  0  0
  9  6  2  0  0  0  0
 10 15  1  0  0  0  0
 12 22  1  0  0  0  0
 14 19  1  0  0  0  0
 14 10  2  0  0  0  0
 15 21  1  0  0  0  0
 15  2  2  0  0  0  0
 16 10  1  0  0  0  0
 19  7  1  0  0  0  0
 20  8  1  0  0  0  0
 20 19  2  0  0  0  0
 21 12  2  0  0  0  0
 22 23  1  0  0  0  0
 23 18  2  0  0  0  0
 24 27  1  6  0  0  0
 24 28  1  0  0  0  0
 26 29  2  0  0  0  0
 28 25  1  0  0  0  0
 29 30  1  0  0  0  0
 30  5  1  0  0  0  0
 30 25  1  0  0  0  0
 31 29  1  0  0  0  0
 31 24  1  0  0  0  0
M  END
>  <MODEL>
7

>  <REMARK>
 VINA RESULT:      -8.0      4.851      6.829
  Name = 
  0 active torsions:
  status: ('A' for Active; 'I' for Inactive)
                            x       y       z     vdW  Elec       q    Type
                         _______ _______ _______ _____ _____    ______ ____

>  <TORSDO>
F 0

$$$$
=
 OpenBabel11112416553D

 31 35  0  0  1  0  0  0  0  0999 V2000
  186.3180  178.6450  143.9940 C   0  0  0  0  0  0  0  0  0  0  0  0
  189.3210  176.3800  144.2040 C   0  0  0  0  0  0  0  0  0  0  0  0
  189.9360  176.6120  145.4740 C   0  0  0  0  0  0  0  0  0  0  0  0
  188.5470  174.3340  139.4150 O   0  0  0  0  0  0  0  0  0  0  0  0
  189.5570  173.7820  139.9290 C   0  0  0  0  0  0  0  0  0  0  0  0
  190.0660  177.7410  147.6390 C   0  0  0  0  0  0  0  0  0  0  0  0
  188.1480  177.0460  143.7360 C   0  0  0  0  0  0  0  0  0  0  0  0
  185.8340  178.3140  142.7290 C   0  0  0  0  0  3  0  0  0  0  0  0
  189.4380  177.5410  146.4070 C   0  0  0  0  0  3  0  0  0  0  0  0
  189.3740  175.1410  142.0900 C   0  0  0  0  0  0  0  0  0  0  0  0
  185.6640  179.5980  144.7610 O   0  0  0  0  0  1  0  0  0  0  0  0
  191.6320  174.9590  144.9410 C   0  0  0  0  0  3  0  0  0  0  0  0
  189.5500  178.6640  148.5370 O   0  0  0  0  0  1  0  0  0  0  0  0
  188.2590  175.7970  141.6820 N   0  0  0  0  0  0  0  0  0  0  0  0
  189.9240  175.4160  143.3490 C   0  0  0  0  0  0  0  0  0  0  0  0
  189.9970  174.1650  141.2410 N   0  0  0  0  0  2  0  0  0  0  0  0
  187.4620  178.0160  144.4890 C   0  0  0  0  0  3  0  0  0  0  0  0
  191.2100  177.0140  147.9650 C   0  0  0  0  0  3  0  0  0  0  0  0
  187.6410  176.7240  142.4520 C   0  0  0  0  0  0  0  0  0  0  0  0
  186.4940  177.3550  141.9600 C   0  0  0  0  0  3  0  0  0  0  0  0
  191.0430  174.7480  143.7410 N   0  0  0  0  0  0  0  0  0  0  0  0
  191.1000  175.8840  145.8270 C   0  0  0  0  0  0  0  0  0  0  0  0
  191.7270  176.0880  147.0590 C   0  0  0  0  0  3  0  0  0  0  0  0
  191.8420  170.8160  137.7860 C   0  0  1  0  0  3  0  0  0  0  0  0
  191.5160  172.2420  139.7890 C   0  0  0  0  0  2  0  0  0  0  0  0
  188.5670  172.3290  137.6570 O   0  0  0  0  0  0  0  0  0  0  0  0
  192.7770  170.3310  136.8720 O   0  0  0  0  0  1  0  0  0  0  0  0
  192.5120  171.8130  138.7180 C   0  0  0  0  0  2  0  0  0  0  0  0
  189.7790  172.2030  137.9760 C   0  0  0  0  0  0  0  0  0  0  0  0
  190.2900  172.7830  139.1960 N   0  0  0  0  0  0  0  0  0  0  0  0
  190.7010  171.4890  137.0340 C   0  0  0  0  0  2  0  0  0  0  0  0
  1 17  1  0  0  0  0
  1 11  1  0  0  0  0
  2  3  1  0  0  0  0
  3 22  2  0  0  0  0
  3  9  1  0  0  0  0
  4  5  2  0  0  0  0
  5 16  1  0  0  0  0
  6 18  1  0  0  0  0
  6 13  1  0  0  0  0
  7  2  1  0  0  0  0
  7 17  2  0  0  0  0
  8  1  2  0  0  0  0
  9  6  2  0  0  0  0
 10 15  1  0  0  0  0
 12 22  1  0  0  0  0
 14 10  2  0  0  0  0
 14 19  1  0  0  0  0
 15 21  1  0  0  0  0
 15  2  2  0  0  0  0
 16 10  1  0  0  0  0
 19  7  1  0  0  0  0
 20 19  2  0  0  0  0
 20  8  1  0  0  0  0
 21 12  2  0  0  0  0
 22 23  1  0  0  0  0
 23 18  2  0  0  0  0
 24 27  1  6  0  0  0
 24 28  1  0  0  0  0
 26 29  2  0  0  0  0
 28 25  1  0  0  0  0
 29 30  1  0  0  0  0
 30 25  1  0  0  0  0
 30  5  1  0  0  0  0
 31 24  1  0  0  0  0
 31 29  1  0  0  0  0
M  END
>  <MODEL>
8

>  <REMARK>
 VINA RESULT:      -7.9      4.280      6.549
  Name = 
  0 active torsions:
  status: ('A' for Active; 'I' for Inactive)
                            x       y       z     vdW  Elec       q    Type
                         _______ _______ _______ _____ _____    ______ ____

>  <TORSDO>
F 0

$$$$
=
 OpenBabel11112416553D

 31 35  0  0  1  0  0  0  0  0999 V2000
  186.8930  176.7870  146.9870 C   0  0  0  0  0  0  0  0  0  0  0  0
  187.3310  176.5490  143.2530 C   0  0  0  0  0  0  0  0  0  0  0  0
  186.2140  177.2110  142.6540 C   0  0  0  0  0  0  0  0  0  0  0  0
  191.8340  173.8430  143.6060 O   0  0  0  0  0  0  0  0  0  0  0  0
  191.5750  174.0370  142.3870 C   0  0  0  0  0  0  0  0  0  0  0  0
  184.1090  178.4490  142.7870 C   0  0  0  0  0  0  0  0  0  0  0  0
  187.5390  176.4180  144.6600 C   0  0  0  0  0  0  0  0  0  0  0  0
  188.0310  176.1120  147.4240 C   0  0  0  0  0  3  0  0  0  0  0  0
  185.1860  177.8100  143.4060 C   0  0  0  0  0  3  0  0  0  0  0  0
  189.4190  175.3160  142.9020 C   0  0  0  0  0  0  0  0  0  0  0  0
  185.9990  177.3110  147.9100 O   0  0  0  0  0  1  0  0  0  0  0  0
  187.1050  176.7000  140.4550 C   0  0  0  0  0  3  0  0  0  0  0  0
  183.1120  179.0290  143.5570 O   0  0  0  0  0  1  0  0  0  0  0  0
  189.5800  175.2130  144.2450 N   0  0  0  0  0  0  0  0  0  0  0  0
  188.3010  175.9810  142.3810 C   0  0  0  0  0  0  0  0  0  0  0  0
  190.3890  174.7500  142.0070 N   0  0  0  0  0  2  0  0  0  0  0  0
  186.6530  176.9380  145.6200 C   0  0  0  0  0  3  0  0  0  0  0  0
  184.0370  178.5020  141.3950 C   0  0  0  0  0  3  0  0  0  0  0  0
  188.6910  175.7340  145.1230 C   0  0  0  0  0  0  0  0  0  0  0  0
  188.9280  175.5860  146.4930 C   0  0  0  0  0  3  0  0  0  0  0  0
  188.1580  176.0740  141.0310 N   0  0  0  0  0  0  0  0  0  0  0  0
  186.1200  177.2770  141.2410 C   0  0  0  0  0  0  0  0  0  0  0  0
  185.0410  177.9160  140.6240 C   0  0  0  0  0  3  0  0  0  0  0  0
  194.1270  172.4950  139.2690 C   0  0  1  0  0  3  0  0  0  0  0  0
  192.0650  173.6830  139.9660 C   0  0  0  0  0  2  0  0  0  0  0  0
  194.2980  173.2180  142.8020 O   0  0  0  0  0  0  0  0  0  0  0  0
  194.6560  171.5440  138.3970 O   0  0  0  0  0  1  0  0  0  0  0  0
  192.6180  172.5550  139.1010 C   0  0  0  0  0  2  0  0  0  0  0  0
  193.7620  172.9960  141.6840 C   0  0  0  0  0  0  0  0  0  0  0  0
  192.4550  173.5240  141.3690 N   0  0  0  0  0  0  0  0  0  0  0  0
  194.4790  172.1190  140.7030 C   0  0  0  0  0  2  0  0  0  0  0  0
  1  8  1  0  0  0  0
  1 11  1  0  0  0  0
  2  7  1  0  0  0  0
  3  2  1  0  0  0  0
  3  9  1  0  0  0  0
  5  4  2  0  0  0  0
  6  9  2  0  0  0  0
  6 13  1  0  0  0  0
  7 19  2  0  0  0  0
  7 17  1  0  0  0  0
 10 14  2  0  0  0  0
 12 21  2  0  0  0  0
 12 22  1  0  0  0  0
 14 19  1  0  0  0  0
 15 10  1  0  0  0  0
 15  2  2  0  0  0  0
 16  5  1  0  0  0  0
 16 10  1  0  0  0  0
 17  1  2  0  0  0  0
 18  6  1  0  0  0  0
 19 20  1  0  0  0  0
 20  8  2  0  0  0  0
 21 15  1  0  0  0  0
 22  3  2  0  0  0  0
 23 22  1  0  0  0  0
 23 18  2  0  0  0  0
 24 27  1  6  0  0  0
 24 31  1  0  0  0  0
 25 30  1  0  0  0  0
 28 24  1  0  0  0  0
 28 25  1  0  0  0  0
 29 26  2  0  0  0  0
 30 29  1  0  0  0  0
 30  5  1  0  0  0  0
 31 29  1  0  0  0  0
M  END
>  <MODEL>
9

>  <REMARK>
 VINA RESULT:      -7.9      2.587      3.044
  Name = 
  0 active torsions:
  status: ('A' for Active; 'I' for Inactive)
                            x       y       z     vdW  Elec       q    Type
                         _______ _______ _______ _____ _____    ______ ____

>  <TORSDO>
F 0

$$$$
