=
 OpenBabel11112417073D

 37 43  0  0  1  0  0  0  0  0999 V2000
  191.7840  175.6150  144.4430 C   0  0  0  0  0  2  0  0  0  0  0  0
  192.1860  172.0220  140.4910 C   0  0  0  0  0  0  0  0  0  0  0  0
  189.0390  174.6380  141.2020 C   0  0  0  0  0  0  0  0  0  0  0  0
  192.8620  175.5180  145.4310 N   0  0  0  0  0  0  0  0  0  0  0  0
  188.2150  175.5950  144.7090 O   0  0  0  0  0  0  0  0  0  0  0  0
  190.0820  173.0810  139.6880 C   0  0  0  0  0  0  0  0  0  0  0  0
  189.2510  174.9700  142.5430 C   0  0  0  0  0  0  0  0  0  0  0  0
  191.0470  175.4120  147.2270 C   0  0  2  0  0  3  0  0  0  0  0  0
  189.9620  173.6980  140.9020 C   0  0  0  0  0  0  0  0  0  0  0  0
  188.3700  175.8680  143.3520 C   0  0  0  0  0  0  0  0  0  0  0  0
  189.1730  173.4480  138.6790 C   0  0  0  0  0  3  0  0  0  0  0  0
  192.4340  174.9620  146.7270 C   0  0  0  0  0  2  0  0  0  0  0  0
  190.7280  173.4550  141.9760 C   0  0  0  0  0  0  0  0  0  0  0  0
  193.3040  172.9570  140.0640 C   0  0  0  0  0  1  0  0  0  0  0  0
  187.1550  176.1640  140.4820 C   0  0  0  0  0  2  0  0  0  0  0  0
  188.2030  174.4510  138.9490 C   0  0  0  0  0  3  0  0  0  0  0  0
  191.7740  172.3760  141.9540 C   0  0  0  0  0  2  0  0  0  0  0  0
  189.8490  174.9730  146.3540 C   0  0  1  0  0  3  0  0  0  0  0  0
  189.1170  176.1210  145.6630 C   0  0  0  0  0  2  0  0  0  0  0  0
  188.1370  175.0720  140.2220 C   0  0  0  0  0  0  0  0  0  0  0  0
  190.3070  174.2180  143.0120 N   0  0  0  0  0  0  0  0  0  0  0  0
  191.0980  172.1280  139.5390 O   0  0  0  0  0  0  0  0  0  0  0  0
  187.6610  176.8900  142.8020 C   0  0  0  0  0  0  0  0  0  0  0  0
  192.7200  170.6060  140.4690 C   0  0  0  0  0  1  0  0  0  0  0  0
  190.1810  173.8840  145.4210 N   0  0  0  0  0  2  0  0  0  0  0  0
  191.0290  176.7760  147.5280 O   0  0  0  0  0  1  0  0  0  0  0  0
  191.0280  174.2870  144.2830 C   0  0  2  0  0  3  0  0  0  0  0  0
  187.7910  177.2430  141.3460 C   0  0  0  0  0  2  0  0  0  0  0  0
  186.4390  179.0340  143.2070 C   0  0  0  0  0  3  0  0  0  0  0  0
  186.7160  177.7150  143.6000 C   0  0  0  0  0  0  0  0  0  0  0  0
  186.0470  177.1880  144.7180 C   0  0  0  0  0  3  0  0  0  0  0  0
  184.4500  177.4010  146.6250 C   0  0  0  0  0  1  0  0  0  0  0  0
  184.8850  179.2850  145.0450 C   0  0  0  0  0  3  0  0  0  0  0  0
  185.1410  177.9700  145.4390 C   0  0  0  0  0  0  0  0  0  0  0  0
  185.5320  179.8170  143.9280 C   0  0  0  0  0  3  0  0  0  0  0  0
  194.5460  176.8030  146.6260 C   0  0  0  0  0  1  0  0  0  0  0  0
  193.3830  176.8580  145.6550 C   0  0  0  0  0  2  0  0  0  0  0  0
  1  4  1  0  0  0  0
  2 17  1  0  0  0  0
  3  7  2  0  0  0  0
  4 37  1  0  0  0  0
  4 12  1  0  0  0  0
  5 19  1  0  0  0  0
  6  9  1  0  0  0  0
  7 21  1  0  0  0  0
  7 10  1  0  0  0  0
  8 26  1  6  0  0  0
  9  3  1  0  0  0  0
  9 13  2  0  0  0  0
 10  5  1  0  0  0  0
 11 16  1  0  0  0  0
 11  6  2  0  0  0  0
 12  8  1  0  0  0  0
 13 21  1  0  0  0  0
 14  2  1  0  0  0  0
 15 28  1  0  0  0  0
 16 20  2  0  0  0  0
 17 13  1  0  0  0  0
 18 19  1  6  0  0  0
 18  8  1  0  0  0  0
 20 15  1  0  0  0  0
 20  3  1  0  0  0  0
 21 27  1  0  0  0  0
 22  6  1  0  0  0  0
 22  2  1  0  0  0  0
 23 10  2  0  0  0  0
 23 30  1  0  0  0  0
 24  2  1  0  0  0  0
 25 18  1  0  0  0  0
 27  1  1  1  0  0  0
 27 25  1  0  0  0  0
 28 23  1  0  0  0  0
 29 30  2  0  0  0  0
 29 35  1  0  0  0  0
 30 31  1  0  0  0  0
 31 34  2  0  0  0  0
 33 34  1  0  0  0  0
 34 32  1  0  0  0  0
 35 33  2  0  0  0  0
 37 36  1  0  0  0  0
M  END
>  <MODEL>
1

>  <REMARK>
 VINA RESULT:      -9.1      0.000      0.000
  Name = 
  2 active torsions:
  status: ('A' for Active; 'I' for Inactive)
    1  A    between atoms: N_4  and  C_37
    2  A    between atoms: C_23  and  C_30
                            x       y       z     vdW  Elec       q    Type
                         _______ _______ _______ _____ _____    ______ ____

>  <TORSDO>
F 2

$$$$
=
 OpenBabel11112417073D

 37 43  0  0  1  0  0  0  0  0999 V2000
  191.2110  173.6390  141.0780 C   0  0  0  0  0  2  0  0  0  0  0  0
  187.4270  176.6620  143.3650 C   0  0  0  0  0  0  0  0  0  0  0  0
  190.8320  175.1040  145.1640 C   0  0  0  0  0  0  0  0  0  0  0  0
  190.8820  173.2300  139.7100 N   0  0  0  0  0  0  0  0  0  0  0  0
  192.1710  171.8240  144.0090 O   0  0  0  0  0  0  0  0  0  0  0  0
  188.9680  176.6240  145.3190 C   0  0  0  0  0  0  0  0  0  0  0  0
  191.1690  174.0770  144.2790 C   0  0  0  0  0  0  0  0  0  0  0  0
  191.3710  170.8290  140.4350 C   0  0  2  0  0  3  0  0  0  0  0  0
  189.6620  175.6110  144.7170 C   0  0  0  0  0  0  0  0  0  0  0  0
  192.3150  173.1330  144.4590 C   0  0  0  0  0  0  0  0  0  0  0  0
  189.5100  177.1740  146.4950 C   0  0  0  0  0  3  0  0  0  0  0  0
  190.5360  171.8030  139.5810 C   0  0  0  0  0  2  0  0  0  0  0  0
  189.2820  174.9620  143.6060 C   0  0  0  0  0  0  0  0  0  0  0  0
  187.9990  177.6960  142.4120 C   0  0  0  0  0  1  0  0  0  0  0  0
  192.7670  175.1730  146.7910 C   0  0  0  0  0  2  0  0  0  0  0  0
  190.7510  176.6830  146.9830 C   0  0  0  0  0  3  0  0  0  0  0  0
  187.9610  175.2550  142.9510 C   0  0  0  0  0  2  0  0  0  0  0  0
  191.2240  170.9900  141.9660 C   0  0  1  0  0  3  0  0  0  0  0  0
  192.4870  171.4760  142.6740 C   0  0  0  0  0  2  0  0  0  0  0  0
  191.4380  175.6440  146.3070 C   0  0  0  0  0  0  0  0  0  0  0  0
  190.1870  173.9990  143.3140 N   0  0  0  0  0  0  0  0  0  0  0  0
  187.7690  177.0370  144.7230 O   0  0  0  0  0  0  0  0  0  0  0  0
  193.4580  173.4830  145.1080 C   0  0  0  0  0  0  0  0  0  0  0  0
  185.9210  176.6690  143.2200 C   0  0  0  0  0  1  0  0  0  0  0  0
  190.0350  171.7660  142.3540 N   0  0  0  0  0  2  0  0  0  0  0  0
  192.7040  170.7950  140.0190 O   0  0  0  0  0  1  0  0  0  0  0  0
  190.1300  173.2130  142.0820 C   0  0  2  0  0  3  0  0  0  0  0  0
  193.6800  174.8830  145.6090 C   0  0  0  0  0  2  0  0  0  0  0  0
  195.8850  172.8830  145.1410 C   0  0  0  0  0  3  0  0  0  0  0  0
  194.5510  172.5090  145.3630 C   0  0  0  0  0  0  0  0  0  0  0  0
  194.2850  171.2270  145.8750 C   0  0  0  0  0  3  0  0  0  0  0  0
  195.0300  168.9790  146.6670 C   0  0  0  0  0  1  0  0  0  0  0  0
  196.6500  170.7150  145.8970 C   0  0  0  0  0  3  0  0  0  0  0  0
  195.3280  170.3340  146.1350 C   0  0  0  0  0  0  0  0  0  0  0  0
  196.9300  171.9910  145.4020 C   0  0  0  0  0  3  0  0  0  0  0  0
  193.0970  174.2370  139.6730 C   0  0  0  0  0  1  0  0  0  0  0  0
  192.0420  173.4980  138.8730 C   0  0  0  0  0  2  0  0  0  0  0  0
  2 22  1  0  0  0  0
  3 20  1  0  0  0  0
  4  1  1  0  0  0  0
  5 10  1  0  0  0  0
  6 11  2  0  0  0  0
  7 10  1  0  0  0  0
  7  3  2  0  0  0  0
  8 26  1  1  0  0  0
  8 18  1  0  0  0  0
  9  3  1  0  0  0  0
  9  6  1  0  0  0  0
 10 23  2  0  0  0  0
 11 16  1  0  0  0  0
 12  4  1  0  0  0  0
 12  8  1  0  0  0  0
 13  9  2  0  0  0  0
 14  2  1  0  0  0  0
 17  2  1  0  0  0  0
 17 13  1  0  0  0  0
 18 25  1  0  0  0  0
 18 19  1  6  0  0  0
 19  5  1  0  0  0  0
 20 15  1  0  0  0  0
 20 16  2  0  0  0  0
 21 13  1  0  0  0  0
 21  7  1  0  0  0  0
 22  6  1  0  0  0  0
 23 30  1  0  0  0  0
 23 28  1  0  0  0  0
 24  2  1  0  0  0  0
 27  1  1  6  0  0  0
 27 25  1  0  0  0  0
 27 21  1  0  0  0  0
 28 15  1  0  0  0  0
 29 30  2  0  0  0  0
 29 35  1  0  0  0  0
 30 31  1  0  0  0  0
 31 34  2  0  0  0  0
 33 34  1  0  0  0  0
 34 32  1  0  0  0  0
 35 33  2  0  0  0  0
 37 36  1  0  0  0  0
 37  4  1  0  0  0  0
M  END
>  <MODEL>
2

>  <REMARK>
 VINA RESULT:      -9.0      2.727      8.048
  Name = 
  2 active torsions:
  status: ('A' for Active; 'I' for Inactive)
    1  A    between atoms: N_4  and  C_37
    2  A    between atoms: C_23  and  C_30
                            x       y       z     vdW  Elec       q    Type
                         _______ _______ _______ _____ _____    ______ ____

>  <TORSDO>
F 2

$$$$
=
 OpenBabel11112417073D

 37 43  0  0  1  0  0  0  0  0999 V2000
  191.5500  173.8960  141.8380 C   0  0  0  0  0  2  0  0  0  0  0  0
  189.4550  173.3020  136.9440 C   0  0  0  0  0  0  0  0  0  0  0  0
  187.8760  175.4790  140.1100 C   0  0  0  0  0  0  0  0  0  0  0  0
  192.7310  173.0610  142.0720 N   0  0  0  0  0  0  0  0  0  0  0  0
  188.4640  174.3160  143.6020 O   0  0  0  0  0  0  0  0  0  0  0  0
  187.7890  174.9610  137.7580 C   0  0  0  0  0  0  0  0  0  0  0  0
  188.5530  174.9200  141.1970 C   0  0  0  0  0  0  0  0  0  0  0  0
  191.5740  172.2240  144.1910 C   0  0  2  0  0  3  0  0  0  0  0  0
  188.2480  174.7570  139.0300 C   0  0  0  0  0  0  0  0  0  0  0  0
  188.3400  175.3030  142.6270 C   0  0  0  0  0  0  0  0  0  0  0  0
  186.8550  175.9950  137.5620 C   0  0  0  0  0  3  0  0  0  0  0  0
  192.4900  171.9300  142.9860 C   0  0  0  0  0  2  0  0  0  0  0  0
  189.1210  173.8070  139.3970 C   0  0  0  0  0  0  0  0  0  0  0  0
  190.6860  174.1080  136.5690 C   0  0  0  0  0  1  0  0  0  0  0  0
  186.6060  177.4230  141.1110 C   0  0  0  0  0  2  0  0  0  0  0  0
  186.4580  176.7920  138.6690 C   0  0  0  0  0  3  0  0  0  0  0  0
  189.6230  172.7920  138.4100 C   0  0  0  0  0  2  0  0  0  0  0  0
  190.1120  172.5860  143.8440 C   0  0  1  0  0  3  0  0  0  0  0  0
  189.7210  174.0230  144.1820 C   0  0  0  0  0  2  0  0  0  0  0  0
  186.9820  176.5480  139.9640 C   0  0  0  0  0  0  0  0  0  0  0  0
  189.3220  173.8740  140.7340 N   0  0  0  0  0  0  0  0  0  0  0  0
  188.2780  174.1240  136.7460 O   0  0  0  0  0  0  0  0  0  0  0  0
  187.9590  176.5530  143.0020 C   0  0  0  0  0  0  0  0  0  0  0  0
  189.3760  172.1040  136.0220 C   0  0  0  0  0  1  0  0  0  0  0  0
  189.7340  172.2160  142.4710 N   0  0  0  0  0  2  0  0  0  0  0  0
  192.1640  173.1300  145.0740 O   0  0  0  0  0  1  0  0  0  0  0  0
  190.3290  173.0630  141.4200 C   0  0  2  0  0  3  0  0  0  0  0  0
  187.8160  177.6650  142.0010 C   0  0  0  0  0  2  0  0  0  0  0  0
  188.7060  177.1980  145.3000 C   0  0  0  0  0  3  0  0  0  0  0  0
  187.6580  176.8950  144.4170 C   0  0  0  0  0  0  0  0  0  0  0  0
  186.3350  176.9750  144.8870 C   0  0  0  0  0  3  0  0  0  0  0  0
  184.6670  177.3950  146.6970 C   0  0  0  0  0  1  0  0  0  0  0  0
  187.1240  177.6110  147.0840 C   0  0  0  0  0  3  0  0  0  0  0  0
  186.0710  177.3250  146.2140 C   0  0  0  0  0  0  0  0  0  0  0  0
  188.4420  177.5500  146.6270 C   0  0  0  0  0  3  0  0  0  0  0  0
  193.3260  175.3550  142.6230 C   0  0  0  0  0  1  0  0  0  0  0  0
  193.7670  173.9040  142.6480 C   0  0  0  0  0  2  0  0  0  0  0  0
  1  4  1  0  0  0  0
  2 17  1  0  0  0  0
  3  7  2  0  0  0  0
  4 37  1  0  0  0  0
  4 12  1  0  0  0  0
  5 19  1  0  0  0  0
  6  9  1  0  0  0  0
  7 10  1  0  0  0  0
  8 26  1  6  0  0  0
  9 13  2  0  0  0  0
  9  3  1  0  0  0  0
 10 23  2  0  0  0  0
 10  5  1  0  0  0  0
 11  6  2  0  0  0  0
 11 16  1  0  0  0  0
 12  8  1  0  0  0  0
 13 21  1  0  0  0  0
 14  2  1  0  0  0  0
 15 28  1  0  0  0  0
 16 20  2  0  0  0  0
 17 13  1  0  0  0  0
 18 19  1  6  0  0  0
 18  8  1  0  0  0  0
 20  3  1  0  0  0  0
 20 15  1  0  0  0  0
 21  7  1  0  0  0  0
 21 27  1  0  0  0  0
 22  2  1  0  0  0  0
 22  6  1  0  0  0  0
 23 30  1  0  0  0  0
 24  2  1  0  0  0  0
 25 18  1  0  0  0  0
 27  1  1  1  0  0  0
 27 25  1  0  0  0  0
 28 23  1  0  0  0  0
 29 35  1  0  0  0  0
 30 31  1  0  0  0  0
 30 29  2  0  0  0  0
 31 34  2  0  0  0  0
 34 32  1  0  0  0  0
 34 33  1  0  0  0  0
 35 33  2  0  0  0  0
 36 37  1  0  0  0  0
M  END
>  <MODEL>
3

>  <REMARK>
 VINA RESULT:      -8.7      2.350      3.308
  Name = 
  2 active torsions:
  status: ('A' for Active; 'I' for Inactive)
    1  A    between atoms: N_4  and  C_37
    2  A    between atoms: C_23  and  C_30
                            x       y       z     vdW  Elec       q    Type
                         _______ _______ _______ _____ _____    ______ ____

>  <TORSDO>
F 2

$$$$
=
 OpenBabel11112417073D

 37 43  0  0  1  0  0  0  0  0999 V2000
  190.7600  173.8010  140.9920 C   0  0  0  0  0  2  0  0  0  0  0  0
  187.2480  176.8850  143.6090 C   0  0  0  0  0  0  0  0  0  0  0  0
  190.7510  175.2300  145.1080 C   0  0  0  0  0  0  0  0  0  0  0  0
  190.3100  173.4140  139.6520 N   0  0  0  0  0  0  0  0  0  0  0  0
  191.9130  171.9320  143.8180 O   0  0  0  0  0  0  0  0  0  0  0  0
  188.9430  176.7910  145.4290 C   0  0  0  0  0  0  0  0  0  0  0  0
  190.9900  174.2050  144.1900 C   0  0  0  0  0  0  0  0  0  0  0  0
  190.8000  170.9950  140.3140 C   0  0  2  0  0  3  0  0  0  0  0  0
  189.5600  175.7690  144.7630 C   0  0  0  0  0  0  0  0  0  0  0  0
  192.1240  173.2330  144.2670 C   0  0  0  0  0  0  0  0  0  0  0  0
  189.5920  177.3150  146.5610 C   0  0  0  0  0  3  0  0  0  0  0  0
  189.9210  171.9980  139.5400 C   0  0  0  0  0  2  0  0  0  0  0  0
  189.0750  175.1410  143.6810 C   0  0  0  0  0  0  0  0  0  0  0  0
  187.7650  177.9160  142.6210 C   0  0  0  0  0  1  0  0  0  0  0  0
  192.8130  175.2370  146.5720 C   0  0  0  0  0  2  0  0  0  0  0  0
  190.8570  176.7910  146.9420 C   0  0  0  0  0  3  0  0  0  0  0  0
  187.7130  175.4710  143.1400 C   0  0  0  0  0  2  0  0  0  0  0  0
  190.7820  171.1420  141.8530 C   0  0  1  0  0  3  0  0  0  0  0  0
  192.1090  171.5920  142.4590 C   0  0  0  0  0  2  0  0  0  0  0  0
  191.4610  175.7430  146.2020 C   0  0  0  0  0  0  0  0  0  0  0  0
  189.9310  174.1610  143.3080 N   0  0  0  0  0  0  0  0  0  0  0  0
  187.7090  177.2370  144.9370 O   0  0  0  0  0  0  0  0  0  0  0  0
  193.3240  173.5500  144.8220 C   0  0  0  0  0  0  0  0  0  0  0  0
  185.7360  176.9290  143.5880 C   0  0  0  0  0  1  0  0  0  0  0  0
  189.6480  171.9420  142.3440 N   0  0  0  0  0  2  0  0  0  0  0  0
  192.0930  170.9350  139.7890 O   0  0  0  0  0  1  0  0  0  0  0  0
  189.7540  173.3890  142.0780 C   0  0  2  0  0  3  0  0  0  0  0  0
  193.6200  174.9390  145.3160 C   0  0  0  0  0  2  0  0  0  0  0  0
  194.1970  171.4040  145.7630 C   0  0  0  0  0  3  0  0  0  0  0  0
  194.4110  172.5480  144.9790 C   0  0  0  0  0  0  0  0  0  0  0  0
  195.6420  172.6920  144.3150 C   0  0  0  0  0  3  0  0  0  0  0  0
  197.9400  171.8970  143.7510 C   0  0  0  0  0  1  0  0  0  0  0  0
  196.4190  170.5980  145.2460 C   0  0  0  0  0  3  0  0  0  0  0  0
  196.6410  171.7250  144.4520 C   0  0  0  0  0  0  0  0  0  0  0  0
  195.1960  170.4360  145.9000 C   0  0  0  0  0  3  0  0  0  0  0  0
  190.8760  173.7050  137.3040 C   0  0  0  0  0  1  0  0  0  0  0  0
  191.4030  173.6650  138.7250 C   0  0  0  0  0  2  0  0  0  0  0  0
  2 22  1  0  0  0  0
  3 20  1  0  0  0  0
  4  1  1  0  0  0  0
  5 10  1  0  0  0  0
  6 11  2  0  0  0  0
  7 10  1  0  0  0  0
  7  3  2  0  0  0  0
  8 26  1  6  0  0  0
  8 18  1  0  0  0  0
  9  3  1  0  0  0  0
  9  6  1  0  0  0  0
 10 23  2  0  0  0  0
 11 16  1  0  0  0  0
 12  4  1  0  0  0  0
 12  8  1  0  0  0  0
 13  9  2  0  0  0  0
 14  2  1  0  0  0  0
 17  2  1  0  0  0  0
 17 13  1  0  0  0  0
 18 25  1  0  0  0  0
 18 19  1  6  0  0  0
 19  5  1  0  0  0  0
 20 15  1  0  0  0  0
 20 16  2  0  0  0  0
 21 13  1  0  0  0  0
 21  7  1  0  0  0  0
 22  6  1  0  0  0  0
 23 30  1  0  0  0  0
 23 28  1  0  0  0  0
 24  2  1  0  0  0  0
 27  1  1  6  0  0  0
 27 25  1  0  0  0  0
 27 21  1  0  0  0  0
 28 15  1  0  0  0  0
 29 35  1  0  0  0  0
 30 29  2  0  0  0  0
 31 34  2  0  0  0  0
 31 30  1  0  0  0  0
 32 34  1  0  0  0  0
 33 35  2  0  0  0  0
 34 33  1  0  0  0  0
 36 37  1  0  0  0  0
 37  4  1  0  0  0  0
M  END
>  <MODEL>
4

>  <REMARK>
 VINA RESULT:      -8.6      2.688      8.230
  Name = 
  2 active torsions:
  status: ('A' for Active; 'I' for Inactive)
    1  A    between atoms: N_4  and  C_37
    2  A    between atoms: C_23  and  C_30
                            x       y       z     vdW  Elec       q    Type
                         _______ _______ _______ _____ _____    ______ ____

>  <TORSDO>
F 2

$$$$
=
 OpenBabel11112417073D

 37 43  0  0  1  0  0  0  0  0999 V2000
  193.7060  175.0850  143.0560 C   0  0  0  0  0  2  0  0  0  0  0  0
  192.7090  172.2600  138.6150 C   0  0  0  0  0  0  0  0  0  0  0  0
  189.9500  174.2240  141.0210 C   0  0  0  0  0  0  0  0  0  0  0  0
  195.0990  174.9980  143.5010 N   0  0  0  0  0  0  0  0  0  0  0  0
  190.5770  174.4830  144.6860 O   0  0  0  0  0  0  0  0  0  0  0  0
  190.3880  173.1010  138.9340 C   0  0  0  0  0  0  0  0  0  0  0  0
  190.6700  174.3700  142.2090 C   0  0  0  0  0  0  0  0  0  0  0  0
  194.2010  174.3370  145.8000 C   0  0  2  0  0  3  0  0  0  0  0  0
  190.7340  173.4940  140.1980 C   0  0  0  0  0  0  0  0  0  0  0  0
  190.1370  174.9850  143.4640 C   0  0  0  0  0  0  0  0  0  0  0  0
  189.1190  173.4800  138.4600 C   0  0  0  0  0  3  0  0  0  0  0  0
  195.2870  174.1870  144.7170 C   0  0  0  0  0  2  0  0  0  0  0  0
  191.8910  173.2040  140.8120 C   0  0  0  0  0  0  0  0  0  0  0  0
  193.4770  173.4090  137.9870 C   0  0  0  0  0  1  0  0  0  0  0  0
  187.8280  175.5410  141.4240 C   0  0  0  0  0  2  0  0  0  0  0  0
  188.2750  174.2690  139.2870 C   0  0  0  0  0  3  0  0  0  0  0  0
  192.9110  172.3130  140.1620 C   0  0  0  0  0  2  0  0  0  0  0  0
  192.7850  173.8640  145.3960 C   0  0  1  0  0  3  0  0  0  0  0  0
  191.7510  174.9830  145.2970 C   0  0  0  0  0  2  0  0  0  0  0  0
  188.6940  174.6660  140.5830 C   0  0  0  0  0  0  0  0  0  0  0  0
  191.8780  173.7220  142.0630 N   0  0  0  0  0  0  0  0  0  0  0  0
  191.3200  172.3480  138.2080 O   0  0  0  0  0  0  0  0  0  0  0  0
  189.1910  175.9620  143.4570 C   0  0  0  0  0  0  0  0  0  0  0  0
  193.2900  170.9630  138.0960 C   0  0  0  0  0  1  0  0  0  0  0  0
  192.7830  172.9990  144.2050 N   0  0  0  0  0  2  0  0  0  0  0  0
  194.2070  175.6180  146.3580 O   0  0  0  0  0  1  0  0  0  0  0  0
  193.0520  173.6990  142.9350 C   0  0  2  0  0  3  0  0  0  0  0  0
  188.6820  176.5540  142.1720 C   0  0  0  0  0  2  0  0  0  0  0  0
  189.4170  177.1700  145.6340 C   0  0  0  0  0  3  0  0  0  0  0  0
  188.6010  176.4980  144.7110 C   0  0  0  0  0  0  0  0  0  0  0  0
  187.2240  176.3940  144.9770 C   0  0  0  0  0  3  0  0  0  0  0  0
  185.2270  176.8020  146.4190 C   0  0  0  0  0  1  0  0  0  0  0  0
  187.5090  177.5840  147.0640 C   0  0  0  0  0  3  0  0  0  0  0  0
  186.6830  176.9290  146.1490 C   0  0  0  0  0  0  0  0  0  0  0  0
  188.8760  177.7070  146.8060 C   0  0  0  0  0  3  0  0  0  0  0  0
  196.9660  176.5330  143.2240 C   0  0  0  0  0  1  0  0  0  0  0  0
  195.5650  176.3490  143.7740 C   0  0  0  0  0  2  0  0  0  0  0  0
  1  4  1  0  0  0  0
  2 17  1  0  0  0  0
  3  7  2  0  0  0  0
  4 37  1  0  0  0  0
  4 12  1  0  0  0  0
  5 19  1  0  0  0  0
  6  9  1  0  0  0  0
  7 10  1  0  0  0  0
  8 26  1  6  0  0  0
  9 13  2  0  0  0  0
  9  3  1  0  0  0  0
 10  5  1  0  0  0  0
 11  6  2  0  0  0  0
 11 16  1  0  0  0  0
 12  8  1  0  0  0  0
 13 21  1  0  0  0  0
 14  2  1  0  0  0  0
 15 28  1  0  0  0  0
 16 20  2  0  0  0  0
 17 13  1  0  0  0  0
 18 19  1  6  0  0  0
 18  8  1  0  0  0  0
 20  3  1  0  0  0  0
 20 15  1  0  0  0  0
 21  7  1  0  0  0  0
 21 27  1  0  0  0  0
 22  2  1  0  0  0  0
 22  6  1  0  0  0  0
 23 10  2  0  0  0  0
 23 30  1  0  0  0  0
 24  2  1  0  0  0  0
 25 18  1  0  0  0  0
 27  1  1  1  0  0  0
 27 25  1  0  0  0  0
 28 23  1  0  0  0  0
 29 35  1  0  0  0  0
 30 31  1  0  0  0  0
 30 29  2  0  0  0  0
 31 34  2  0  0  0  0
 34 32  1  0  0  0  0
 34 33  1  0  0  0  0
 35 33  2  0  0  0  0
 36 37  1  0  0  0  0
M  END
>  <MODEL>
5

>  <REMARK>
 VINA RESULT:      -8.5      1.955      2.519
  Name = 
  2 active torsions:
  status: ('A' for Active; 'I' for Inactive)
    1  A    between atoms: N_4  and  C_37
    2  A    between atoms: C_23  and  C_30
                            x       y       z     vdW  Elec       q    Type
                         _______ _______ _______ _____ _____    ______ ____

>  <TORSDO>
F 2

$$$$
=
 OpenBabel11112417073D

 37 43  0  0  1  0  0  0  0  0999 V2000
  191.4820  172.2170  142.3810 C   0  0  0  0  0  2  0  0  0  0  0  0
  196.1800  173.6020  144.5490 C   0  0  0  0  0  0  0  0  0  0  0  0
  192.5550  175.5970  144.9140 C   0  0  0  0  0  0  0  0  0  0  0  0
  191.5780  171.0870  141.4530 N   0  0  0  0  0  0  0  0  0  0  0  0
  190.1320  175.5180  142.0830 O   0  0  0  0  0  0  0  0  0  0  0  0
  194.8260  175.3540  145.6840 C   0  0  0  0  0  0  0  0  0  0  0  0
  191.8450  175.0850  143.8250 C   0  0  0  0  0  0  0  0  0  0  0  0
  190.3540  172.5390  139.7440 C   0  0  2  0  0  3  0  0  0  0  0  0
  193.8010  175.0810  144.8210 C   0  0  0  0  0  0  0  0  0  0  0  0
  190.4600  175.4960  143.4360 C   0  0  0  0  0  0  0  0  0  0  0  0
  194.5650  176.2420  146.7420 C   0  0  0  0  0  3  0  0  0  0  0  0
  191.4190  171.4640  140.0370 C   0  0  0  0  0  2  0  0  0  0  0  0
  193.8800  174.2760  143.7500 C   0  0  0  0  0  0  0  0  0  0  0  0
  195.9360  172.3240  145.3320 C   0  0  0  0  0  1  0  0  0  0  0  0
  190.8480  176.9820  146.1640 C   0  0  0  0  0  2  0  0  0  0  0  0
  193.2600  176.7870  146.8880 C   0  0  0  0  0  3  0  0  0  0  0  0
  195.1840  173.6470  143.3480 C   0  0  0  0  0  2  0  0  0  0  0  0
  190.6310  173.9350  140.3480 C   0  0  1  0  0  3  0  0  0  0  0  0
  189.6450  174.3580  141.4340 C   0  0  0  0  0  2  0  0  0  0  0  0
  192.2290  176.4530  145.9740 C   0  0  0  0  0  0  0  0  0  0  0  0
  192.6890  174.2660  143.1060 N   0  0  0  0  0  0  0  0  0  0  0  0
  196.0590  174.7320  145.4480 O   0  0  0  0  0  0  0  0  0  0  0  0
  189.5390  175.9170  144.3430 C   0  0  0  0  0  0  0  0  0  0  0  0
  197.5910  173.5590  144.0040 C   0  0  0  0  0  1  0  0  0  0  0  0
  192.0310  174.1170  140.7650 N   0  0  0  0  0  2  0  0  0  0  0  0
  189.0660  172.0730  140.0190 O   0  0  0  0  0  1  0  0  0  0  0  0
  192.4110  173.3730  141.9810 C   0  0  2  0  0  3  0  0  0  0  0  0
  189.8260  175.9080  145.8180 C   0  0  0  0  0  2  0  0  0  0  0  0
  187.3710  175.6090  143.1340 C   0  0  0  0  0  3  0  0  0  0  0  0
  188.1980  176.4130  143.9340 C   0  0  0  0  0  0  0  0  0  0  0  0
  187.7110  177.6560  144.3730 C   0  0  0  0  0  3  0  0  0  0  0  0
  185.9410  179.4150  144.4660 C   0  0  0  0  0  1  0  0  0  0  0  0
  185.6300  177.2880  143.1950 C   0  0  0  0  0  3  0  0  0  0  0  0
  186.4370  178.0930  144.0010 C   0  0  0  0  0  0  0  0  0  0  0  0
  186.0960  176.0450  142.7630 C   0  0  0  0  0  3  0  0  0  0  0  0
  190.8170  168.7970  141.1460 C   0  0  0  0  0  1  0  0  0  0  0  0
  190.5320  170.1370  141.7960 C   0  0  0  0  0  2  0  0  0  0  0  0
  2 14  1  0  0  0  0
  2 22  1  0  0  0  0
  3 20  1  0  0  0  0
  4 37  1  0  0  0  0
  4  1  1  0  0  0  0
  5 10  1  0  0  0  0
  6 11  2  0  0  0  0
  7  3  2  0  0  0  0
  8 26  1  1  0  0  0
  8 12  1  0  0  0  0
  8 18  1  0  0  0  0
  9  3  1  0  0  0  0
  9  6  1  0  0  0  0
 10  7  1  0  0  0  0
 10 23  2  0  0  0  0
 11 16  1  0  0  0  0
 12  4  1  0  0  0  0
 13  9  2  0  0  0  0
 17 13  1  0  0  0  0
 17  2  1  0  0  0  0
 18 25  1  0  0  0  0
 18 19  1  1  0  0  0
 19  5  1  0  0  0  0
 20 15  1  0  0  0  0
 20 16  2  0  0  0  0
 21 13  1  0  0  0  0
 21  7  1  0  0  0  0
 22  6  1  0  0  0  0
 23 28  1  0  0  0  0
 24  2  1  0  0  0  0
 25 27  1  0  0  0  0
 27  1  1  1  0  0  0
 27 21  1  0  0  0  0
 28 15  1  0  0  0  0
 29 30  1  0  0  0  0
 30 23  1  0  0  0  0
 30 31  2  0  0  0  0
 33 34  2  0  0  0  0
 34 31  1  0  0  0  0
 34 32  1  0  0  0  0
 35 29  2  0  0  0  0
 35 33  1  0  0  0  0
 36 37  1  0  0  0  0
M  END
>  <MODEL>
6

>  <REMARK>
 VINA RESULT:      -8.3      2.388      5.868
  Name = 
  2 active torsions:
  status: ('A' for Active; 'I' for Inactive)
    1  A    between atoms: N_4  and  C_37
    2  A    between atoms: C_23  and  C_30
                            x       y       z     vdW  Elec       q    Type
                         _______ _______ _______ _____ _____    ______ ____

>  <TORSDO>
F 2

$$$$
=
 OpenBabel11112417073D

 37 43  0  0  1  0  0  0  0  0999 V2000
  190.4660  173.9820  141.9790 C   0  0  0  0  0  2  0  0  0  0  0  0
  187.4810  176.8610  145.3690 C   0  0  0  0  0  0  0  0  0  0  0  0
  191.3650  175.5110  145.9590 C   0  0  0  0  0  0  0  0  0  0  0  0
  189.7300  173.5290  140.7960 N   0  0  0  0  0  0  0  0  0  0  0  0
  192.4270  172.2780  144.4400 O   0  0  0  0  0  0  0  0  0  0  0  0
  189.5760  176.9400  146.7100 C   0  0  0  0  0  0  0  0  0  0  0  0
  191.4480  174.4840  145.0160 C   0  0  0  0  0  0  0  0  0  0  0  0
  190.5570  171.1710  141.3290 C   0  0  2  0  0  3  0  0  0  0  0  0
  190.0870  175.9500  145.9180 C   0  0  0  0  0  0  0  0  0  0  0  0
  192.6400  173.6020  144.8140 C   0  0  0  0  0  0  0  0  0  0  0  0
  190.4420  177.5400  147.6420 C   0  0  0  0  0  3  0  0  0  0  0  0
  189.4370  172.0840  140.7930 C   0  0  0  0  0  2  0  0  0  0  0  0
  189.4000  175.2610  144.9950 C   0  0  0  0  0  0  0  0  0  0  0  0
  187.6540  177.9020  144.2780 C   0  0  0  0  0  1  0  0  0  0  0  0
  193.7190  175.7090  146.8630 C   0  0  0  0  0  2  0  0  0  0  0  0
  191.7990  177.1220  147.6990 C   0  0  0  0  0  3  0  0  0  0  0  0
  187.9240  175.4740  144.8080 C   0  0  0  0  0  2  0  0  0  0  0  0
  190.9100  171.3550  142.8240 C   0  0  1  0  0  3  0  0  0  0  0  0
  192.3060  171.9180  143.0770 C   0  0  0  0  0  2  0  0  0  0  0  0
  192.2810  176.1040  146.8380 C   0  0  0  0  0  0  0  0  0  0  0  0
  190.2110  174.3380  144.4260 N   0  0  0  0  0  0  0  0  0  0  0  0
  188.2270  177.2810  146.5390 O   0  0  0  0  0  0  0  0  0  0  0  0
  193.9110  174.0220  145.0510 C   0  0  0  0  0  0  0  0  0  0  0  0
  186.0120  176.7910  145.7260 C   0  0  0  0  0  1  0  0  0  0  0  0
  189.8730  172.0800  143.5770 N   0  0  0  0  0  2  0  0  0  0  0  0
  191.6800  171.1940  140.4990 O   0  0  0  0  0  1  0  0  0  0  0  0
  189.7970  173.5240  143.2840 C   0  0  2  0  0  3  0  0  0  0  0  0
  194.2100  175.4410  145.4470 C   0  0  0  0  0  2  0  0  0  0  0  0
  196.1060  173.3990  144.0270 C   0  0  0  0  0  3  0  0  0  0  0  0
  195.0780  173.1080  144.9380 C   0  0  0  0  0  0  0  0  0  0  0  0
  195.2060  171.9770  145.7630 C   0  0  0  0  0  3  0  0  0  0  0  0
  196.4400  169.9470  146.5340 C   0  0  0  0  0  1  0  0  0  0  0  0
  197.3330  171.4390  144.7420 C   0  0  0  0  0  3  0  0  0  0  0  0
  196.3240  171.1450  145.6610 C   0  0  0  0  0  0  0  0  0  0  0  0
  197.2250  172.5670  143.9260 C   0  0  0  0  0  3  0  0  0  0  0  0
  189.7670  173.4900  138.3630 C   0  0  0  0  0  1  0  0  0  0  0  0
  190.5360  173.8360  139.6240 C   0  0  0  0  0  2  0  0  0  0  0  0
  2 24  1  0  0  0  0
  2 22  1  0  0  0  0
  3 20  1  0  0  0  0
  4  1  1  0  0  0  0
  5 10  1  0  0  0  0
  6 11  2  0  0  0  0
  7  3  2  0  0  0  0
  8 26  1  6  0  0  0
  8 18  1  0  0  0  0
  9  3  1  0  0  0  0
  9  6  1  0  0  0  0
 10  7  1  0  0  0  0
 10 23  2  0  0  0  0
 11 16  1  0  0  0  0
 12  4  1  0  0  0  0
 12  8  1  0  0  0  0
 13  9  2  0  0  0  0
 14  2  1  0  0  0  0
 17 13  1  0  0  0  0
 17  2  1  0  0  0  0
 18 19  1  6  0  0  0
 18 25  1  0  0  0  0
 19  5  1  0  0  0  0
 20 15  1  0  0  0  0
 20 16  2  0  0  0  0
 21 13  1  0  0  0  0
 21  7  1  0  0  0  0
 22  6  1  0  0  0  0
 23 28  1  0  0  0  0
 27  1  1  6  0  0  0
 27 25  1  0  0  0  0
 27 21  1  0  0  0  0
 28 15  1  0  0  0  0
 29 30  1  0  0  0  0
 30 23  1  0  0  0  0
 30 31  2  0  0  0  0
 33 34  2  0  0  0  0
 34 31  1  0  0  0  0
 34 32  1  0  0  0  0
 35 29  2  0  0  0  0
 35 33  1  0  0  0  0
 36 37  1  0  0  0  0
 37  4  1  0  0  0  0
M  END
>  <MODEL>
7

>  <REMARK>
 VINA RESULT:      -8.3      2.814      8.379
  Name = 
  2 active torsions:
  status: ('A' for Active; 'I' for Inactive)
    1  A    between atoms: N_4  and  C_37
    2  A    between atoms: C_23  and  C_30
                            x       y       z     vdW  Elec       q    Type
                         _______ _______ _______ _____ _____    ______ ____

>  <TORSDO>
F 2

$$$$
=
 OpenBabel11112417073D

 37 43  0  0  1  0  0  0  0  0999 V2000
  192.7700  171.9570  141.8530 C   0  0  0  0  0  2  0  0  0  0  0  0
  197.2940  174.4030  140.3560 C   0  0  0  0  0  0  0  0  0  0  0  0
  194.5560  175.6970  143.1990 C   0  0  0  0  0  0  0  0  0  0  0  0
  192.4420  170.7860  141.0350 N   0  0  0  0  0  0  0  0  0  0  0  0
  190.9420  174.9000  142.7530 O   0  0  0  0  0  0  0  0  0  0  0  0
  196.7390  175.9620  142.2150 C   0  0  0  0  0  0  0  0  0  0  0  0
  193.4210  174.9620  142.8470 C   0  0  0  0  0  0  0  0  0  0  0  0
  190.1280  171.8160  140.6980 C   0  0  2  0  0  3  0  0  0  0  0  0
  195.4840  175.4210  142.2570 C   0  0  0  0  0  0  0  0  0  0  0  0
  192.0900  175.0640  143.5230 C   0  0  0  0  0  0  0  0  0  0  0  0
  197.0870  176.8780  143.2240 C   0  0  0  0  0  3  0  0  0  0  0  0
  191.3010  170.9940  140.1260 C   0  0  0  0  0  2  0  0  0  0  0  0
  194.9830  174.5520  141.3670 C   0  0  0  0  0  0  0  0  0  0  0  0
  197.9040  173.1790  141.0160 C   0  0  0  0  0  1  0  0  0  0  0  0
  193.9020  176.8400  145.3580 C   0  0  0  0  0  2  0  0  0  0  0  0
  196.1460  177.1750  144.2470 C   0  0  0  0  0  3  0  0  0  0  0  0
  195.7680  174.1480  140.1510 C   0  0  0  0  0  2  0  0  0  0  0  0
  190.4500  173.2880  141.0420 C   0  0  1  0  0  3  0  0  0  0  0  0
  190.3930  173.6140  142.5330 C   0  0  0  0  0  2  0  0  0  0  0  0
  194.8640  176.5690  144.2520 C   0  0  0  0  0  0  0  0  0  0  0  0
  193.7040  174.2560  141.6980 N   0  0  0  0  0  0  0  0  0  0  0  0
  197.5840  175.5670  141.1690 O   0  0  0  0  0  0  0  0  0  0  0  0
  191.9590  175.3840  144.8380 C   0  0  0  0  0  0  0  0  0  0  0  0
  197.9410  174.5790  139.0000 C   0  0  0  0  0  1  0  0  0  0  0  0
  191.6910  173.7710  140.4140 N   0  0  0  0  0  2  0  0  0  0  0  0
  189.4900  171.1410  141.7410 O   0  0  0  0  0  1  0  0  0  0  0  0
  192.9290  173.2270  141.0030 C   0  0  2  0  0  3  0  0  0  0  0  0
  193.1580  175.5650  145.7270 C   0  0  0  0  0  2  0  0  0  0  0  0
  190.2470  174.7590  146.5510 C   0  0  0  0  0  3  0  0  0  0  0  0
  190.6300  175.5760  145.4750 C   0  0  0  0  0  0  0  0  0  0  0  0
  189.7580  176.5970  145.0580 C   0  0  0  0  0  3  0  0  0  0  0  0
  187.6100  177.8580  145.2290 C   0  0  0  0  0  1  0  0  0  0  0  0
  188.1510  175.9520  146.7480 C   0  0  0  0  0  3  0  0  0  0  0  0
  188.5240  176.7800  145.6880 C   0  0  0  0  0  0  0  0  0  0  0  0
  189.0130  174.9420  147.1820 C   0  0  0  0  0  3  0  0  0  0  0  0
  192.4980  170.0590  143.3560 C   0  0  0  0  0  1  0  0  0  0  0  0
  192.1190  169.6900  141.9350 C   0  0  0  0  0  2  0  0  0  0  0  0
  2 14  1  0  0  0  0
  2 22  1  0  0  0  0
  3 20  1  0  0  0  0
  4  1  1  0  0  0  0
  4 37  1  0  0  0  0
  5 10  1  0  0  0  0
  6  9  1  0  0  0  0
  6 11  2  0  0  0  0
  7  3  2  0  0  0  0
  7 10  1  0  0  0  0
  8 18  1  0  0  0  0
  8 26  1  1  0  0  0
  9  3  1  0  0  0  0
 10 23  2  0  0  0  0
 11 16  1  0  0  0  0
 12  8  1  0  0  0  0
 12  4  1  0  0  0  0
 13 21  1  0  0  0  0
 13  9  2  0  0  0  0
 15 28  1  0  0  0  0
 16 20  2  0  0  0  0
 17  2  1  0  0  0  0
 17 13  1  0  0  0  0
 18 19  1  1  0  0  0
 19  5  1  0  0  0  0
 20 15  1  0  0  0  0
 21  7  1  0  0  0  0
 22  6  1  0  0  0  0
 23 30  1  0  0  0  0
 23 28  1  0  0  0  0
 24  2  1  0  0  0  0
 25 27  1  0  0  0  0
 25 18  1  0  0  0  0
 27 21  1  0  0  0  0
 27  1  1  1  0  0  0
 29 35  1  0  0  0  0
 30 29  2  0  0  0  0
 31 30  1  0  0  0  0
 31 34  2  0  0  0  0
 32 34  1  0  0  0  0
 33 35  2  0  0  0  0
 34 33  1  0  0  0  0
 37 36  1  0  0  0  0
M  END
>  <MODEL>
8

>  <REMARK>
 VINA RESULT:      -8.2      2.926      6.221
  Name = 
  2 active torsions:
  status: ('A' for Active; 'I' for Inactive)
    1  A    between atoms: N_4  and  C_37
    2  A    between atoms: C_23  and  C_30
                            x       y       z     vdW  Elec       q    Type
                         _______ _______ _______ _____ _____    ______ ____

>  <TORSDO>
F 2

$$$$
=
 OpenBabel11112417073D

 37 43  0  0  1  0  0  0  0  0999 V2000
  190.5140  173.9580  141.3330 C   0  0  0  0  0  2  0  0  0  0  0  0
  189.7920  175.1760  146.4990 C   0  0  0  0  0  0  0  0  0  0  0  0
  193.3460  175.3150  144.3530 C   0  0  0  0  0  0  0  0  0  0  0  0
  189.3250  173.3810  140.6990 N   0  0  0  0  0  0  0  0  0  0  0  0
  193.9140  172.8720  141.5960 O   0  0  0  0  0  0  0  0  0  0  0  0
  192.1710  175.8960  146.3750 C   0  0  0  0  0  0  0  0  0  0  0  0
  193.0470  174.4900  143.2670 C   0  0  0  0  0  0  0  0  0  0  0  0
  190.8180  171.4590  139.9190 C   0  0  2  0  0  3  0  0  0  0  0  0
  192.2750  175.2500  145.1750 C   0  0  0  0  0  0  0  0  0  0  0  0
  194.0030  174.1380  142.1710 C   0  0  0  0  0  0  0  0  0  0  0  0
  193.2630  176.6810  146.7880 C   0  0  0  0  0  3  0  0  0  0  0  0
  189.4400  171.9390  140.4170 C   0  0  0  0  0  2  0  0  0  0  0  0
  191.3420  174.4480  144.6410 C   0  0  0  0  0  0  0  0  0  0  0  0
  188.9890  176.3080  145.8840 C   0  0  0  0  0  1  0  0  0  0  0  0
  195.6120  176.2840  143.7850 C   0  0  0  0  0  2  0  0  0  0  0  0
  194.3980  176.7940  145.9400 C   0  0  0  0  0  3  0  0  0  0  0  0
  190.0840  174.1150  145.3930 C   0  0  0  0  0  2  0  0  0  0  0  0
  191.9820  171.6150  140.9250 C   0  0  1  0  0  3  0  0  0  0  0  0
  193.0450  172.6290  140.5070 C   0  0  0  0  0  2  0  0  0  0  0  0
  194.4440  176.1170  144.6950 C   0  0  0  0  0  0  0  0  0  0  0  0
  191.7940  173.9520  143.4650 N   0  0  0  0  0  0  0  0  0  0  0  0
  190.9880  175.7260  147.1060 O   0  0  0  0  0  0  0  0  0  0  0  0
  194.9960  174.9740  141.7670 C   0  0  0  0  0  0  0  0  0  0  0  0
  188.9490  174.5300  147.5770 C   0  0  0  0  0  1  0  0  0  0  0  0
  191.5260  171.8250  142.3080 N   0  0  0  0  0  2  0  0  0  0  0  0
  191.1160  171.9790  138.6570 O   0  0  0  0  0  1  0  0  0  0  0  0
  190.9510  173.1590  142.5700 C   0  0  2  0  0  3  0  0  0  0  0  0
  195.1400  176.3570  142.3400 C   0  0  0  0  0  2  0  0  0  0  0  0
  196.9940  173.6430  141.0690 C   0  0  0  0  0  3  0  0  0  0  0  0
  195.9970  174.5750  140.7430 C   0  0  0  0  0  0  0  0  0  0  0  0
  195.9410  175.0730  139.4300 C   0  0  0  0  0  3  0  0  0  0  0  0
  196.8070  175.2090  137.0920 C   0  0  0  0  0  1  0  0  0  0  0  0
  197.8690  173.7470  138.8150 C   0  0  0  0  0  3  0  0  0  0  0  0
  196.8740  174.6650  138.4730 C   0  0  0  0  0  0  0  0  0  0  0  0
  197.9280  173.2330  140.1120 C   0  0  0  0  0  3  0  0  0  0  0  0
  188.0690  173.3440  138.6160 C   0  0  0  0  0  1  0  0  0  0  0  0
  189.1080  174.0790  139.4410 C   0  0  0  0  0  2  0  0  0  0  0  0
  2 22  1  0  0  0  0
  2 24  1  0  0  0  0
  3 20  1  0  0  0  0
  3  9  1  0  0  0  0
  4  1  1  0  0  0  0
  5 10  1  0  0  0  0
  6 11  2  0  0  0  0
  6 22  1  0  0  0  0
  7 21  1  0  0  0  0
  7  3  2  0  0  0  0
  8 26  1  6  0  0  0
  8 12  1  0  0  0  0
  8 18  1  0  0  0  0
  9  6  1  0  0  0  0
 10  7  1  0  0  0  0
 12  4  1  0  0  0  0
 13  9  2  0  0  0  0
 13 17  1  0  0  0  0
 14  2  1  0  0  0  0
 15 20  1  0  0  0  0
 16 11  1  0  0  0  0
 17  2  1  0  0  0  0
 18 19  1  6  0  0  0
 18 25  1  0  0  0  0
 19  5  1  0  0  0  0
 20 16  2  0  0  0  0
 21 13  1  0  0  0  0
 23 10  2  0  0  0  0
 23 28  1  0  0  0  0
 25 27  1  0  0  0  0
 27  1  1  6  0  0  0
 27 21  1  0  0  0  0
 28 15  1  0  0  0  0
 30 29  1  0  0  0  0
 30 23  1  0  0  0  0
 31 30  2  0  0  0  0
 32 34  1  0  0  0  0
 33 35  1  0  0  0  0
 34 33  2  0  0  0  0
 34 31  1  0  0  0  0
 35 29  2  0  0  0  0
 36 37  1  0  0  0  0
 37  4  1  0  0  0  0
M  END
>  <MODEL>
9

>  <REMARK>
 VINA RESULT:      -8.0      2.541      8.714
  Name = 
  2 active torsions:
  status: ('A' for Active; 'I' for Inactive)
    1  A    between atoms: N_4  and  C_37
    2  A    between atoms: C_23  and  C_30
                            x       y       z     vdW  Elec       q    Type
                         _______ _______ _______ _____ _____    ______ ____

>  <TORSDO>
F 2

$$$$
