=
 OpenBabel11112417243D

 37 42  0  0  1  0  0  0  0  0999 V2000
  195.6770  175.9760  143.4900 C   0  0  0  0  0  0  0  0  0  0  0  0
  191.9310  176.0830  145.2680 C   0  0  0  0  0  0  0  0  0  0  0  0
  189.8350  173.4940  144.7500 C   0  0  0  0  0  2  0  0  0  0  0  0
  194.2530  176.6990  145.4780 C   0  0  0  0  0  0  0  0  0  0  0  0
  191.1460  175.5950  144.2330 C   0  0  0  0  0  0  0  0  0  0  0  0
  190.6410  171.5460  141.7210 C   0  0  0  0  0  0  0  0  0  0  0  0
  193.1620  176.2950  144.7440 C   0  0  0  0  0  0  0  0  0  0  0  0
  189.7800  174.9800  144.3960 C   0  0  2  0  0  3  0  0  0  0  0  0
  194.0510  176.9470  146.8500 C   0  0  0  0  0  3  0  0  0  0  0  0
  190.4210  171.5700  140.3060 N   0  0  0  0  0  2  0  0  0  0  0  0
  193.1570  175.9150  143.4470 C   0  0  0  0  0  0  0  0  0  0  0  0
  195.9850  174.5500  143.9130 C   0  0  0  0  0  1  0  0  0  0  0  0
  190.3370  176.0520  147.2180 C   0  0  0  0  0  2  0  0  0  0  0  0
  192.7660  176.7420  147.4220 C   0  0  0  0  0  3  0  0  0  0  0  0
  194.3990  175.9790  142.6040 C   0  0  0  0  0  2  0  0  0  0  0  0
  190.5740  172.7610  142.4790 N   0  0  0  0  0  0  0  0  0  0  0  0
  190.8690  172.7270  143.9150 C   0  0  0  0  0  2  0  0  0  0  0  0
  191.6850  176.2970  146.6250 C   0  0  0  0  0  0  0  0  0  0  0  0
  191.9260  175.4610  143.1120 N   0  0  0  0  0  0  0  0  0  0  0  0
  195.5660  176.8730  144.7600 C   0  0  0  0  0  2  0  0  0  0  0  0
  188.7460  175.7380  145.2510 C   0  0  1  0  0  3  0  0  0  0  0  0
  196.8350  176.4760  142.6550 C   0  0  0  0  0  1  0  0  0  0  0  0
  190.3410  174.0280  141.7800 C   0  0  0  0  0  2  0  0  0  0  0  0
  190.8880  170.4520  142.2990 O   0  0  0  0  0  0  0  0  0  0  0  0
  191.5780  174.9290  141.7870 C   0  0  0  0  0  2  0  0  0  0  0  0
  189.2670  176.6870  146.3400 C   0  0  0  0  0  2  0  0  0  0  0  0
  187.4260  175.8840  143.1350 C   0  0  0  0  0  3  0  0  0  0  0  0
  187.7590  176.4390  144.3760 C   0  0  0  0  0  0  0  0  0  0  0  0
  187.1700  177.6490  144.7750 C   0  0  0  0  0  3  0  0  0  0  0  0
  185.6380  179.5770  144.3640 C   0  0  0  0  0  1  0  0  0  0  0  0
  185.9270  177.7370  142.6990 C   0  0  0  0  0  3  0  0  0  0  0  0
  186.2570  178.2950  143.9380 C   0  0  0  0  0  0  0  0  0  0  0  0
  186.5120  176.5320  142.2980 C   0  0  0  0  0  3  0  0  0  0  0  0
  191.9490  170.1170  139.0620 C   0  0  0  0  0  1  0  0  0  0  0  0
  190.5080  170.3780  139.4720 C   0  0  2  0  0  3  0  0  0  0  0  0
  190.1510  169.7610  137.0410 C   0  0  0  0  0  1  0  0  0  0  0  0
  189.6060  170.5130  138.2470 C   0  0  0  0  0  2  0  0  0  0  0  0
  1 12  1  0  0  0  0
  1 20  1  0  0  0  0
  2 18  1  0  0  0  0
  4  9  2  0  0  0  0
  5  8  1  0  0  0  0
  5  2  2  0  0  0  0
  6 24  2  0  0  0  0
  6 16  1  0  0  0  0
  7  2  1  0  0  0  0
  7  4  1  0  0  0  0
  8  3  1  1  0  0  0
  8 21  1  0  0  0  0
  9 14  1  0  0  0  0
 10  6  1  0  0  0  0
 11  7  2  0  0  0  0
 15 11  1  0  0  0  0
 15  1  1  0  0  0  0
 16 17  1  0  0  0  0
 17  3  1  0  0  0  0
 18 13  1  0  0  0  0
 18 14  2  0  0  0  0
 19 11  1  0  0  0  0
 19  5  1  0  0  0  0
 20  4  1  0  0  0  0
 21 28  1  6  0  0  0
 21 26  1  0  0  0  0
 22  1  1  0  0  0  0
 23 25  1  0  0  0  0
 23 16  1  0  0  0  0
 25 19  1  0  0  0  0
 26 13  1  0  0  0  0
 27 28  1  0  0  0  0
 28 29  2  0  0  0  0
 31 32  2  0  0  0  0
 32 30  1  0  0  0  0
 32 29  1  0  0  0  0
 33 31  1  0  0  0  0
 33 27  2  0  0  0  0
 35 34  1  6  0  0  0
 35 10  1  0  0  0  0
 36 37  1  0  0  0  0
 37 35  1  0  0  0  0
M  END
>  <MODEL>
1

>  <REMARK>
 VINA RESULT:      -9.3      0.000      0.000
  Name = 
  3 active torsions:
  status: ('A' for Active; 'I' for Inactive)
    1  A    between atoms: C_4  and  N_12
    2  A    between atoms: C_4  and  C_37
    3  A    between atoms: C_23  and  C_30
                            x       y       z     vdW  Elec       q    Type
                         _______ _______ _______ _____ _____    ______ ____

>  <TORSDO>
F 3

$$$$
=
 OpenBabel11112417243D

 37 42  0  0  1  0  0  0  0  0999 V2000
  189.7170  172.3600  139.7300 C   0  0  0  0  0  0  0  0  0  0  0  0
  187.8250  175.8800  140.8420 C   0  0  0  0  0  0  0  0  0  0  0  0
  189.5130  178.0670  142.7740 C   0  0  0  0  0  2  0  0  0  0  0  0
  188.0680  174.2080  139.1220 C   0  0  0  0  0  0  0  0  0  0  0  0
  188.2260  175.9740  142.1670 C   0  0  0  0  0  0  0  0  0  0  0  0
  192.2870  176.5190  144.6510 C   0  0  0  0  0  0  0  0  0  0  0  0
  188.2100  174.6530  140.4160 C   0  0  0  0  0  0  0  0  0  0  0  0
  188.2410  177.2430  142.9810 C   0  0  2  0  0  3  0  0  0  0  0  0
  187.4420  175.0750  138.2060 C   0  0  0  0  0  3  0  0  0  0  0  0
  192.5260  175.7860  145.8580 N   0  0  0  0  0  2  0  0  0  0  0  0
  188.8630  174.0250  141.4190 C   0  0  0  0  0  0  0  0  0  0  0  0
  191.0110  173.0320  139.3030 C   0  0  0  0  0  1  0  0  0  0  0  0
  186.8010  178.1430  140.4230 C   0  0  0  0  0  2  0  0  0  0  0  0
  187.0190  176.3640  138.6320 C   0  0  0  0  0  3  0  0  0  0  0  0
  189.4600  172.6600  141.2340 C   0  0  0  0  0  2  0  0  0  0  0  0
  190.9880  176.5020  144.0450 N   0  0  0  0  0  0  0  0  0  0  0  0
  190.7810  177.2030  142.7750 C   0  0  0  0  0  2  0  0  0  0  0  0
  187.2160  176.7820  139.9690 C   0  0  0  0  0  0  0  0  0  0  0  0
  188.9010  174.8290  142.5070 N   0  0  0  0  0  0  0  0  0  0  0  0
  188.5640  172.8240  138.7900 C   0  0  0  0  0  2  0  0  0  0  0  0
  186.9750  178.1230  142.9660 C   0  0  1  0  0  3  0  0  0  0  0  0
  189.8910  170.8660  139.5670 C   0  0  0  0  0  1  0  0  0  0  0  0
  189.9320  175.6800  144.6420 C   0  0  0  0  0  2  0  0  0  0  0  0
  193.2220  177.1830  144.1250 O   0  0  0  0  0  0  0  0  0  0  0  0
  189.5710  174.4770  143.7670 C   0  0  0  0  0  2  0  0  0  0  0  0
  186.0510  178.0370  141.7430 C   0  0  0  0  0  2  0  0  0  0  0  0
  184.9050  178.4670  144.3210 C   0  0  0  0  0  3  0  0  0  0  0  0
  186.1960  177.9350  144.2260 C   0  0  0  0  0  0  0  0  0  0  0  0
  186.7440  177.2440  145.3180 C   0  0  0  0  0  3  0  0  0  0  0  0
  186.5880  176.3550  147.6450 C   0  0  0  0  0  1  0  0  0  0  0  0
  184.7140  177.6190  146.5820 C   0  0  0  0  0  3  0  0  0  0  0  0
  186.0030  177.0870  146.4920 C   0  0  0  0  0  0  0  0  0  0  0  0
  184.1650  178.3090  145.4970 C   0  0  0  0  0  3  0  0  0  0  0  0
  194.3260  177.1340  146.8270 C   0  0  0  0  0  1  0  0  0  0  0  0
  193.8300  175.7320  146.5060 C   0  0  2  0  0  3  0  0  0  0  0  0
  194.4560  173.5210  145.4390 C   0  0  0  0  0  1  0  0  0  0  0  0
  194.8330  174.9830  145.6310 C   0  0  0  0  0  2  0  0  0  0  0  0
  1 15  1  0  0  0  0
  2  5  2  0  0  0  0
  3 17  1  0  0  0  0
  4  7  1  0  0  0  0
  5 19  1  0  0  0  0
  5  8  1  0  0  0  0
  6 10  1  0  0  0  0
  7  2  1  0  0  0  0
  7 11  2  0  0  0  0
  8  3  1  6  0  0  0
  9 14  1  0  0  0  0
  9  4  2  0  0  0  0
 10 35  1  0  0  0  0
 11 19  1  0  0  0  0
 12  1  1  0  0  0  0
 13 26  1  0  0  0  0
 14 18  2  0  0  0  0
 15 11  1  0  0  0  0
 16 23  1  0  0  0  0
 16  6  1  0  0  0  0
 17 16  1  0  0  0  0
 18 13  1  0  0  0  0
 18  2  1  0  0  0  0
 19 25  1  0  0  0  0
 20  4  1  0  0  0  0
 20  1  1  0  0  0  0
 21  8  1  0  0  0  0
 21 28  1  1  0  0  0
 22  1  1  0  0  0  0
 24  6  2  0  0  0  0
 25 23  1  0  0  0  0
 26 21  1  0  0  0  0
 27 33  1  0  0  0  0
 28 27  2  0  0  0  0
 28 29  1  0  0  0  0
 29 32  2  0  0  0  0
 32 31  1  0  0  0  0
 32 30  1  0  0  0  0
 33 31  2  0  0  0  0
 35 34  1  6  0  0  0
 36 37  1  0  0  0  0
 37 35  1  0  0  0  0
M  END
>  <MODEL>
2

>  <REMARK>
 VINA RESULT:      -8.3      2.484      6.762
  Name = 
  3 active torsions:
  status: ('A' for Active; 'I' for Inactive)
    1  A    between atoms: C_4  and  N_12
    2  A    between atoms: C_4  and  C_37
    3  A    between atoms: C_23  and  C_30
                            x       y       z     vdW  Elec       q    Type
                         _______ _______ _______ _____ _____    ______ ____

>  <TORSDO>
F 3

$$$$
=
 OpenBabel11112417243D

 37 42  0  0  1  0  0  0  0  0999 V2000
  189.3480  176.1190  146.0890 C   0  0  0  0  0  0  0  0  0  0  0  0
  193.2010  174.6620  145.6020 C   0  0  0  0  0  0  0  0  0  0  0  0
  194.1760  173.7030  142.5210 C   0  0  0  0  0  2  0  0  0  0  0  0
  191.7930  176.2030  146.8090 C   0  0  0  0  0  0  0  0  0  0  0  0
  192.9630  173.6020  144.7390 C   0  0  0  0  0  0  0  0  0  0  0  0
  191.3550  172.9030  140.2800 C   0  0  0  0  0  0  0  0  0  0  0  0
  191.9850  175.1010  146.0080 C   0  0  0  0  0  0  0  0  0  0  0  0
  193.9940  172.9620  143.8460 C   0  0  2  0  0  3  0  0  0  0  0  0
  192.9410  176.8790  147.2640 C   0  0  0  0  0  3  0  0  0  0  0  0
  190.4690  171.8220  139.9680 N   0  0  0  0  0  2  0  0  0  0  0  0
  191.0280  174.3740  145.3910 C   0  0  0  0  0  0  0  0  0  0  0  0
  189.4080  177.0600  144.8970 C   0  0  0  0  0  1  0  0  0  0  0  0
  195.7130  174.8440  145.5580 C   0  0  0  0  0  2  0  0  0  0  0  0
  194.2290  176.4310  146.8600 C   0  0  0  0  0  3  0  0  0  0  0  0
  189.5680  174.6600  145.5970 C   0  0  0  0  0  2  0  0  0  0  0  0
  191.9890  172.9650  141.5640 N   0  0  0  0  0  0  0  0  0  0  0  0
  192.8400  174.1140  141.8880 C   0  0  0  0  0  2  0  0  0  0  0  0
  194.3680  175.3090  146.0110 C   0  0  0  0  0  0  0  0  0  0  0  0
  191.6070  173.4520  144.5870 N   0  0  0  0  0  0  0  0  0  0  0  0
  190.3780  176.5850  147.1620 C   0  0  0  0  0  2  0  0  0  0  0  0
  195.3450  172.5660  144.4740 C   0  0  1  0  0  3  0  0  0  0  0  0
  187.9620  176.2140  146.6880 C   0  0  0  0  0  1  0  0  0  0  0  0
  191.6710  171.9470  142.5680 C   0  0  0  0  0  2  0  0  0  0  0  0
  191.5810  173.7970  139.4190 O   0  0  0  0  0  0  0  0  0  0  0  0
  190.8590  172.5180  143.7340 C   0  0  0  0  0  2  0  0  0  0  0  0
  195.8150  173.3330  145.7180 C   0  0  0  0  0  2  0  0  0  0  0  0
  195.7920  170.2380  143.6840 C   0  0  0  0  0  3  0  0  0  0  0  0
  195.3940  171.0930  144.7180 C   0  0  0  0  0  0  0  0  0  0  0  0
  195.0370  170.5550  145.9650 C   0  0  0  0  0  3  0  0  0  0  0  0
  194.6980  168.6100  147.4920 C   0  0  0  0  0  1  0  0  0  0  0  0
  195.4770  168.3240  145.1360 C   0  0  0  0  0  3  0  0  0  0  0  0
  195.0790  169.1740  146.1720 C   0  0  0  0  0  0  0  0  0  0  0  0
  195.8330  168.8560  143.8920 C   0  0  0  0  0  3  0  0  0  0  0  0
  188.3810  172.3360  138.7980 C   0  0  0  0  0  1  0  0  0  0  0  0
  189.7660  171.7170  138.6960 C   0  0  2  0  0  3  0  0  0  0  0  0
  190.0710  170.0810  136.7860 C   0  0  0  0  0  1  0  0  0  0  0  0
  189.6830  170.2600  138.2470 C   0  0  0  0  0  2  0  0  0  0  0  0
  1 22  1  0  0  0  0
  1 20  1  0  0  0  0
  2  7  1  0  0  0  0
  2 18  1  0  0  0  0
  4 20  1  0  0  0  0
  4  9  2  0  0  0  0
  5  2  2  0  0  0  0
  6 16  1  0  0  0  0
  7  4  1  0  0  0  0
  8  3  1  6  0  0  0
  8 21  1  0  0  0  0
  8  5  1  0  0  0  0
 10  6  1  0  0  0  0
 11 15  1  0  0  0  0
 11  7  2  0  0  0  0
 12  1  1  0  0  0  0
 13 26  1  0  0  0  0
 13 18  1  0  0  0  0
 14  9  1  0  0  0  0
 15  1  1  0  0  0  0
 16 17  1  0  0  0  0
 16 23  1  0  0  0  0
 17  3  1  0  0  0  0
 18 14  2  0  0  0  0
 19  5  1  0  0  0  0
 19 11  1  0  0  0  0
 21 28  1  1  0  0  0
 21 26  1  0  0  0  0
 23 25  1  0  0  0  0
 24  6  2  0  0  0  0
 25 19  1  0  0  0  0
 27 33  2  0  0  0  0
 27 28  1  0  0  0  0
 28 29  2  0  0  0  0
 29 32  1  0  0  0  0
 31 32  2  0  0  0  0
 32 30  1  0  0  0  0
 33 31  1  0  0  0  0
 35 34  1  1  0  0  0
 35 10  1  0  0  0  0
 36 37  1  0  0  0  0
 37 35  1  0  0  0  0
M  END
>  <MODEL>
3

>  <REMARK>
 VINA RESULT:      -8.3      2.830      6.556
  Name = 
  3 active torsions:
  status: ('A' for Active; 'I' for Inactive)
    1  A    between atoms: C_4  and  N_12
    2  A    between atoms: C_4  and  C_37
    3  A    between atoms: C_23  and  C_30
                            x       y       z     vdW  Elec       q    Type
                         _______ _______ _______ _____ _____    ______ ____

>  <TORSDO>
F 3

$$$$
=
 OpenBabel11112417243D

 37 42  0  0  1  0  0  0  0  0999 V2000
  189.3500  172.5860  138.8740 C   0  0  0  0  0  0  0  0  0  0  0  0
  188.0370  175.9430  140.9240 C   0  0  0  0  0  0  0  0  0  0  0  0
  190.2470  177.6210  142.8390 C   0  0  0  0  0  2  0  0  0  0  0  0
  187.8040  174.6130  138.9270 C   0  0  0  0  0  0  0  0  0  0  0  0
  188.6770  175.7620  142.1420 C   0  0  0  0  0  0  0  0  0  0  0  0
  193.1530  175.5800  143.8430 C   0  0  0  0  0  0  0  0  0  0  0  0
  188.2180  174.7970  140.2260 C   0  0  0  0  0  0  0  0  0  0  0  0
  188.9600  176.8520  143.1440 C   0  0  2  0  0  3  0  0  0  0  0  0
  187.1090  175.6730  138.3150 C   0  0  0  0  0  3  0  0  0  0  0  0
  193.5340  174.6200  144.8360 N   0  0  0  0  0  2  0  0  0  0  0  0
  188.9780  173.9530  140.9590 C   0  0  0  0  0  0  0  0  0  0  0  0
  190.6040  173.2460  138.3250 C   0  0  0  0  0  1  0  0  0  0  0  0
  187.1760  178.3040  141.1100 C   0  0  0  0  0  2  0  0  0  0  0  0
  186.8950  176.8830  139.0310 C   0  0  0  0  0  3  0  0  0  0  0  0
  189.3990  172.6130  140.4280 C   0  0  0  0  0  2  0  0  0  0  0  0
  191.7700  175.7570  143.5090 N   0  0  0  0  0  0  0  0  0  0  0  0
  191.4050  176.6960  142.4430 C   0  0  0  0  0  2  0  0  0  0  0  0
  187.3690  177.0290  140.3560 C   0  0  0  0  0  0  0  0  0  0  0  0
  189.2890  174.5350  142.1410 N   0  0  0  0  0  0  0  0  0  0  0  0
  188.0960  173.2880  138.2710 C   0  0  0  0  0  2  0  0  0  0  0  0
  187.8030  177.7960  143.5280 C   0  0  1  0  0  3  0  0  0  0  0  0
  189.3480  171.1410  138.4240 C   0  0  0  0  0  1  0  0  0  0  0  0
  190.7650  174.9040  144.1480 C   0  0  0  0  0  2  0  0  0  0  0  0
  194.0370  176.2730  143.2680 O   0  0  0  0  0  0  0  0  0  0  0  0
  190.1390  173.9110  143.1660 C   0  0  0  0  0  2  0  0  0  0  0  0
  186.6690  177.9980  142.5130 C   0  0  0  0  0  2  0  0  0  0  0  0
  187.9770  176.5630  145.6940 C   0  0  0  0  0  3  0  0  0  0  0  0
  187.2490  177.4230  144.8640 C   0  0  0  0  0  0  0  0  0  0  0  0
  186.0060  177.9130  145.2930 C   0  0  0  0  0  3  0  0  0  0  0  0
  184.1820  178.0650  146.9900 C   0  0  0  0  0  1  0  0  0  0  0  0
  186.2300  176.6860  147.3680 C   0  0  0  0  0  3  0  0  0  0  0  0
  185.4990  177.5450  146.5420 C   0  0  0  0  0  0  0  0  0  0  0  0
  187.4690  176.1950  146.9440 C   0  0  0  0  0  3  0  0  0  0  0  0
  195.1390  172.8880  145.4820 C   0  0  0  0  0  1  0  0  0  0  0  0
  194.9220  174.3660  145.1970 C   0  0  2  0  0  3  0  0  0  0  0  0
  194.2700  176.2500  146.7600 C   0  0  0  0  0  1  0  0  0  0  0  0
  195.3300  175.2200  146.3960 C   0  0  0  0  0  2  0  0  0  0  0  0
  1 15  1  0  0  0  0
  2  5  2  0  0  0  0
  4  7  1  0  0  0  0
  5  8  1  0  0  0  0
  6 10  1  0  0  0  0
  7  2  1  0  0  0  0
  7 11  2  0  0  0  0
  8  3  1  6  0  0  0
  8 21  1  0  0  0  0
  9  4  2  0  0  0  0
  9 14  1  0  0  0  0
 10 35  1  0  0  0  0
 11 19  1  0  0  0  0
 12  1  1  0  0  0  0
 13 26  1  0  0  0  0
 14 18  2  0  0  0  0
 15 11  1  0  0  0  0
 16  6  1  0  0  0  0
 16 23  1  0  0  0  0
 17  3  1  0  0  0  0
 17 16  1  0  0  0  0
 18  2  1  0  0  0  0
 18 13  1  0  0  0  0
 19  5  1  0  0  0  0
 19 25  1  0  0  0  0
 20  1  1  0  0  0  0
 20  4  1  0  0  0  0
 21 28  1  1  0  0  0
 22  1  1  0  0  0  0
 24  6  2  0  0  0  0
 25 23  1  0  0  0  0
 26 21  1  0  0  0  0
 27 33  1  0  0  0  0
 28 29  1  0  0  0  0
 28 27  2  0  0  0  0
 29 32  2  0  0  0  0
 32 30  1  0  0  0  0
 32 31  1  0  0  0  0
 33 31  2  0  0  0  0
 35 34  1  1  0  0  0
 35 37  1  0  0  0  0
 37 36  1  0  0  0  0
M  END
>  <MODEL>
4

>  <REMARK>
 VINA RESULT:      -8.1      2.432      6.641
  Name = 
  3 active torsions:
  status: ('A' for Active; 'I' for Inactive)
    1  A    between atoms: C_4  and  N_12
    2  A    between atoms: C_4  and  C_37
    3  A    between atoms: C_23  and  C_30
                            x       y       z     vdW  Elec       q    Type
                         _______ _______ _______ _____ _____    ______ ____

>  <TORSDO>
F 3

$$$$
=
 OpenBabel11112417243D

 37 42  0  0  1  0  0  0  0  0999 V2000
  194.6860  175.9560  144.9250 C   0  0  0  0  0  0  0  0  0  0  0  0
  190.6080  175.9060  145.6800 C   0  0  0  0  0  0  0  0  0  0  0  0
  188.6610  173.8520  143.8480 C   0  0  0  0  0  2  0  0  0  0  0  0
  192.8060  176.1710  146.6350 C   0  0  0  0  0  0  0  0  0  0  0  0
  190.1110  175.8550  144.3850 C   0  0  0  0  0  0  0  0  0  0  0  0
  190.1890  172.8730  140.6350 C   0  0  0  0  0  0  0  0  0  0  0  0
  191.9370  176.1380  145.5680 C   0  0  0  0  0  0  0  0  0  0  0  0
  188.7360  175.3720  144.0020 C   0  0  2  0  0  3  0  0  0  0  0  0
  192.2570  175.9980  147.9200 C   0  0  0  0  0  3  0  0  0  0  0  0
  190.3490  173.3620  139.2990 N   0  0  0  0  0  2  0  0  0  0  0  0
  192.2650  176.1840  144.2580 C   0  0  0  0  0  0  0  0  0  0  0  0
  194.8380  174.4440  144.9140 C   0  0  0  0  0  1  0  0  0  0  0  0
  188.5560  175.4410  147.0660 C   0  0  0  0  0  2  0  0  0  0  0  0
  190.8620  175.7650  148.0650 C   0  0  0  0  0  3  0  0  0  0  0  0
  193.6860  176.3740  143.8090 C   0  0  0  0  0  2  0  0  0  0  0  0
  189.9540  173.7900  141.7120 N   0  0  0  0  0  0  0  0  0  0  0  0
  189.8600  173.2770  143.0820 C   0  0  0  0  0  2  0  0  0  0  0  0
  190.0180  175.7120  146.9300 C   0  0  0  0  0  0  0  0  0  0  0  0
  191.1550  175.9940  143.5060 N   0  0  0  0  0  0  0  0  0  0  0  0
  194.2660  176.4180  146.3530 C   0  0  0  0  0  2  0  0  0  0  0  0
  187.5310  175.9320  144.7840 C   0  0  1  0  0  3  0  0  0  0  0  0
  196.0340  176.5630  144.6060 C   0  0  0  0  0  1  0  0  0  0  0  0
  189.9430  175.2290  141.4360 C   0  0  0  0  0  2  0  0  0  0  0  0
  190.2490  171.6330  140.8620 O   0  0  0  0  0  0  0  0  0  0  0  0
  191.1560  175.9440  142.0370 C   0  0  0  0  0  2  0  0  0  0  0  0
  187.7700  176.4300  146.2160 C   0  0  0  0  0  2  0  0  0  0  0  0
  186.2730  178.0840  144.6250 C   0  0  0  0  0  3  0  0  0  0  0  0
  186.8270  176.9740  143.9780 C   0  0  0  0  0  0  0  0  0  0  0  0
  186.7030  176.8480  142.5860 C   0  0  0  0  0  3  0  0  0  0  0  0
  185.9010  177.6890  140.3760 C   0  0  0  0  0  1  0  0  0  0  0  0
  185.4800  178.9360  142.5000 C   0  0  0  0  0  3  0  0  0  0  0  0
  186.0310  177.8280  141.8490 C   0  0  0  0  0  0  0  0  0  0  0  0
  185.6010  179.0640  143.8870 C   0  0  0  0  0  3  0  0  0  0  0  0
  191.3620  173.2460  137.0720 C   0  0  0  0  0  1  0  0  0  0  0  0
  190.6250  172.4880  138.1650 C   0  0  2  0  0  3  0  0  0  0  0  0
  189.5280  171.1850  136.2900 C   0  0  0  0  0  1  0  0  0  0  0  0
  189.3310  171.8780  137.6310 C   0  0  0  0  0  2  0  0  0  0  0  0
  1 20  1  0  0  0  0
  2 18  1  0  0  0  0
  4  9  2  0  0  0  0
  5  2  2  0  0  0  0
  6 24  2  0  0  0  0
  6 16  1  0  0  0  0
  7  2  1  0  0  0  0
  7  4  1  0  0  0  0
  8  3  1  1  0  0  0
  8  5  1  0  0  0  0
  8 21  1  0  0  0  0
  9 14  1  0  0  0  0
 10  6  1  0  0  0  0
 11  7  2  0  0  0  0
 12  1  1  0  0  0  0
 15 11  1  0  0  0  0
 15  1  1  0  0  0  0
 16 17  1  0  0  0  0
 17  3  1  0  0  0  0
 18 13  1  0  0  0  0
 18 14  2  0  0  0  0
 19 11  1  0  0  0  0
 19  5  1  0  0  0  0
 20  4  1  0  0  0  0
 21 28  1  6  0  0  0
 21 26  1  0  0  0  0
 22  1  1  0  0  0  0
 23 16  1  0  0  0  0
 23 25  1  0  0  0  0
 25 19  1  0  0  0  0
 26 13  1  0  0  0  0
 28 27  1  0  0  0  0
 29 28  2  0  0  0  0
 30 32  1  0  0  0  0
 31 33  1  0  0  0  0
 32 31  2  0  0  0  0
 32 29  1  0  0  0  0
 33 27  2  0  0  0  0
 35 34  1  6  0  0  0
 35 10  1  0  0  0  0
 36 37  1  0  0  0  0
 37 35  1  0  0  0  0
M  END
>  <MODEL>
5

>  <REMARK>
 VINA RESULT:      -7.6      1.401      1.997
  Name = 
  3 active torsions:
  status: ('A' for Active; 'I' for Inactive)
    1  A    between atoms: C_4  and  N_12
    2  A    between atoms: C_4  and  C_37
    3  A    between atoms: C_23  and  C_30
                            x       y       z     vdW  Elec       q    Type
                         _______ _______ _______ _____ _____    ______ ____

>  <TORSDO>
F 3

$$$$
=
 OpenBabel11112417243D

 37 42  0  0  1  0  0  0  0  0999 V2000
  187.6510  176.3610  143.2160 C   0  0  0  0  0  0  0  0  0  0  0  0
  191.3570  175.0060  144.4940 C   0  0  0  0  0  0  0  0  0  0  0  0
  193.6210  174.0950  142.1680 C   0  0  0  0  0  2  0  0  0  0  0  0
  189.5200  176.5010  144.9450 C   0  0  0  0  0  0  0  0  0  0  0  0
  191.5540  173.9460  143.6190 C   0  0  0  0  0  0  0  0  0  0  0  0
  192.1080  173.2410  138.9130 C   0  0  0  0  0  0  0  0  0  0  0  0
  190.0760  175.4110  144.3170 C   0  0  0  0  0  0  0  0  0  0  0  0
  192.8910  173.3390  143.2790 C   0  0  2  0  0  3  0  0  0  0  0  0
  190.3300  177.2020  145.8590 C   0  0  0  0  0  3  0  0  0  0  0  0
  191.4810  172.1400  138.2460 N   0  0  0  0  0  2  0  0  0  0  0  0
  189.5110  174.6640  143.3420 C   0  0  0  0  0  0  0  0  0  0  0  0
  188.2090  177.3120  142.1710 C   0  0  0  0  0  1  0  0  0  0  0  0
  193.6230  175.2510  145.5670 C   0  0  0  0  0  2  0  0  0  0  0  0
  191.6740  176.7910  146.0700 C   0  0  0  0  0  3  0  0  0  0  0  0
  188.1040  174.9110  142.8790 C   0  0  0  0  0  2  0  0  0  0  0  0
  192.1060  173.3100  140.3450 N   0  0  0  0  0  0  0  0  0  0  0  0
  192.6940  174.4770  141.0070 C   0  0  0  0  0  2  0  0  0  0  0  0
  192.2040  175.6780  145.3750 C   0  0  0  0  0  0  0  0  0  0  0  0
  190.4110  173.7630  142.8830 N   0  0  0  0  0  0  0  0  0  0  0  0
  188.0860  176.8440  144.6320 C   0  0  0  0  0  2  0  0  0  0  0  0
  193.8330  172.9730  144.4430 C   0  0  1  0  0  3  0  0  0  0  0  0
  186.1410  176.4160  143.1380 C   0  0  0  0  0  1  0  0  0  0  0  0
  191.4020  172.2760  141.1080 C   0  0  0  0  0  2  0  0  0  0  0  0
  192.6690  174.1480  138.2370 O   0  0  0  0  0  0  0  0  0  0  0  0
  190.1430  172.8170  141.7910 C   0  0  0  0  0  2  0  0  0  0  0  0
  193.6820  173.7430  145.7630 C   0  0  0  0  0  2  0  0  0  0  0  0
  193.0040  170.6830  143.8860 C   0  0  0  0  0  3  0  0  0  0  0  0
  193.8070  171.5000  144.6900 C   0  0  0  0  0  0  0  0  0  0  0  0
  194.5660  170.9270  145.7220 C   0  0  0  0  0  3  0  0  0  0  0  0
  195.3260  168.9470  147.0390 C   0  0  0  0  0  1  0  0  0  0  0  0
  193.7180  168.7360  145.1390 C   0  0  0  0  0  3  0  0  0  0  0  0
  194.5210  169.5480  145.9440 C   0  0  0  0  0  0  0  0  0  0  0  0
  192.9590  169.3040  144.1100 C   0  0  0  0  0  3  0  0  0  0  0  0
  190.1800  172.7290  136.2560 C   0  0  0  0  0  1  0  0  0  0  0  0
  191.4180  172.0280  136.7940 C   0  0  2  0  0  3  0  0  0  0  0  0
  190.4380  169.7170  137.1350 C   0  0  0  0  0  1  0  0  0  0  0  0
  191.4450  170.5620  136.3680 C   0  0  0  0  0  2  0  0  0  0  0  0
  1 20  1  0  0  0  0
  2 18  1  0  0  0  0
  4  9  2  0  0  0  0
  5  2  2  0  0  0  0
  6 16  1  0  0  0  0
  7  2  1  0  0  0  0
  7  4  1  0  0  0  0
  8  3  1  6  0  0  0
  8  5  1  0  0  0  0
  8 21  1  0  0  0  0
  9 14  1  0  0  0  0
 10  6  1  0  0  0  0
 11  7  2  0  0  0  0
 12  1  1  0  0  0  0
 13 26  1  0  0  0  0
 15  1  1  0  0  0  0
 15 11  1  0  0  0  0
 16 17  1  0  0  0  0
 16 23  1  0  0  0  0
 17  3  1  0  0  0  0
 18 13  1  0  0  0  0
 18 14  2  0  0  0  0
 19 11  1  0  0  0  0
 19  5  1  0  0  0  0
 20  4  1  0  0  0  0
 21 28  1  1  0  0  0
 21 26  1  0  0  0  0
 22  1  1  0  0  0  0
 23 25  1  0  0  0  0
 24  6  2  0  0  0  0
 25 19  1  0  0  0  0
 27 33  2  0  0  0  0
 27 28  1  0  0  0  0
 28 29  2  0  0  0  0
 29 32  1  0  0  0  0
 31 32  2  0  0  0  0
 32 30  1  0  0  0  0
 33 31  1  0  0  0  0
 35 34  1  1  0  0  0
 35 10  1  0  0  0  0
 37 35  1  0  0  0  0
 37 36  1  0  0  0  0
M  END
>  <MODEL>
6

>  <REMARK>
 VINA RESULT:      -7.4      2.697      6.339
  Name = 
  3 active torsions:
  status: ('A' for Active; 'I' for Inactive)
    1  A    between atoms: C_4  and  N_12
    2  A    between atoms: C_4  and  C_37
    3  A    between atoms: C_23  and  C_30
                            x       y       z     vdW  Elec       q    Type
                         _______ _______ _______ _____ _____    ______ ____

>  <TORSDO>
F 3

$$$$
=
 OpenBabel11112417243D

 37 42  0  0  1  0  0  0  0  0999 V2000
  191.6340  170.8270  137.6850 C   0  0  0  0  0  0  0  0  0  0  0  0
  192.4640  170.6580  141.7460 C   0  0  0  0  0  0  0  0  0  0  0  0
  190.3280  172.1550  143.8830 C   0  0  0  0  0  2  0  0  0  0  0  0
  192.6200  169.5080  139.6330 C   0  0  0  0  0  0  0  0  0  0  0  0
  192.1360  171.9530  142.1240 C   0  0  0  0  0  0  0  0  0  0  0  0
  188.2600  174.7650  142.2920 C   0  0  0  0  0  0  0  0  0  0  0  0
  192.4340  170.6400  140.3920 C   0  0  0  0  0  0  0  0  0  0  0  0
  191.7970  172.3870  143.5270 C   0  0  2  0  0  3  0  0  0  0  0  0
  192.9020  168.3110  140.3180 C   0  0  0  0  0  3  0  0  0  0  0  0
  188.3260  176.1460  141.9210 N   0  0  0  0  0  2  0  0  0  0  0  0
  192.0610  171.8600  139.9450 C   0  0  0  0  0  0  0  0  0  0  0  0
  190.1750  170.4280  137.8300 C   0  0  0  0  0  1  0  0  0  0  0  0
  192.7430  169.4990  143.9650 C   0  0  0  0  0  2  0  0  0  0  0  0
  192.9500  168.3060  141.7390 C   0  0  0  0  0  3  0  0  0  0  0  0
  191.8840  172.1400  138.4800 C   0  0  0  0  0  2  0  0  0  0  0  0
  189.4660  174.0030  142.4400 N   0  0  0  0  0  0  0  0  0  0  0  0
  189.3760  172.5740  142.7550 C   0  0  0  0  0  2  0  0  0  0  0  0
  192.7220  169.4950  142.4720 C   0  0  0  0  0  0  0  0  0  0  0  0
  191.8540  172.6840  140.9980 N   0  0  0  0  0  0  0  0  0  0  0  0
  192.5370  169.6370  138.1340 C   0  0  0  0  0  2  0  0  0  0  0  0
  192.7420  171.9500  144.6650 C   0  0  1  0  0  3  0  0  0  0  0  0
  191.9010  171.1000  136.2210 C   0  0  0  0  0  1  0  0  0  0  0  0
  190.7530  174.6370  142.1460 C   0  0  0  0  0  2  0  0  0  0  0  0
  187.1400  174.2220  142.4960 O   0  0  0  0  0  0  0  0  0  0  0  0
  191.3990  174.0760  140.8760 C   0  0  0  0  0  2  0  0  0  0  0  0
  193.5720  170.6740  144.4630 C   0  0  0  0  0  2  0  0  0  0  0  0
  194.9980  173.0050  144.8560 C   0  0  0  0  0  3  0  0  0  0  0  0
  193.6190  173.0860  145.0780 C   0  0  0  0  0  0  0  0  0  0  0  0
  193.0820  174.2270  145.6950 C   0  0  0  0  0  3  0  0  0  0  0  0
  193.3460  176.4790  146.7370 C   0  0  0  0  0  1  0  0  0  0  0  0
  195.2970  175.1890  145.8590 C   0  0  0  0  0  3  0  0  0  0  0  0
  193.9200  175.2750  146.0830 C   0  0  0  0  0  0  0  0  0  0  0  0
  195.8360  174.0540  145.2450 C   0  0  0  0  0  3  0  0  0  0  0  0
  186.9360  177.2620  140.2420 C   0  0  0  0  0  1  0  0  0  0  0  0
  187.1390  176.9680  141.7200 C   0  0  2  0  0  3  0  0  0  0  0  0
  187.1330  178.0180  144.0260 C   0  0  0  0  0  1  0  0  0  0  0  0
  187.2390  178.2610  142.5270 C   0  0  0  0  0  2  0  0  0  0  0  0
  1 12  1  0  0  0  0
  1 20  1  0  0  0  0
  1 15  1  0  0  0  0
  2  5  2  0  0  0  0
  2 18  1  0  0  0  0
  4  9  2  0  0  0  0
  4  7  1  0  0  0  0
  5  8  1  0  0  0  0
  6 16  1  0  0  0  0
  6 24  2  0  0  0  0
  7  2  1  0  0  0  0
  8  3  1  1  0  0  0
  8 21  1  0  0  0  0
  9 14  1  0  0  0  0
 10  6  1  0  0  0  0
 11  7  2  0  0  0  0
 11 19  1  0  0  0  0
 13 26  1  0  0  0  0
 14 18  2  0  0  0  0
 15 11  1  0  0  0  0
 16 17  1  0  0  0  0
 17  3  1  0  0  0  0
 18 13  1  0  0  0  0
 19  5  1  0  0  0  0
 20  4  1  0  0  0  0
 21 28  1  6  0  0  0
 22  1  1  0  0  0  0
 23 16  1  0  0  0  0
 25 19  1  0  0  0  0
 25 23  1  0  0  0  0
 26 21  1  0  0  0  0
 27 28  2  0  0  0  0
 27 33  1  0  0  0  0
 28 29  1  0  0  0  0
 29 32  2  0  0  0  0
 31 32  1  0  0  0  0
 32 30  1  0  0  0  0
 33 31  2  0  0  0  0
 35 34  1  6  0  0  0
 35 10  1  0  0  0  0
 35 37  1  0  0  0  0
 37 36  1  0  0  0  0
M  END
>  <MODEL>
7

>  <REMARK>
 VINA RESULT:      -7.0      2.208      7.423
  Name = 
  3 active torsions:
  status: ('A' for Active; 'I' for Inactive)
    1  A    between atoms: C_4  and  N_12
    2  A    between atoms: C_4  and  C_37
    3  A    between atoms: C_23  and  C_30
                            x       y       z     vdW  Elec       q    Type
                         _______ _______ _______ _____ _____    ______ ____

>  <TORSDO>
F 3

$$$$
=
 OpenBabel11112417243D

 37 42  0  0  1  0  0  0  0  0999 V2000
  189.7780  176.7100  144.7440 C   0  0  0  0  0  0  0  0  0  0  0  0
  193.4050  174.7320  145.1110 C   0  0  0  0  0  0  0  0  0  0  0  0
  195.0760  173.9110  142.3000 C   0  0  0  0  0  2  0  0  0  0  0  0
  191.9160  176.3570  146.0890 C   0  0  0  0  0  0  0  0  0  0  0  0
  193.2890  173.8010  144.0890 C   0  0  0  0  0  0  0  0  0  0  0  0
  192.9170  173.7520  139.3120 C   0  0  0  0  0  0  0  0  0  0  0  0
  192.1880  175.3130  145.2340 C   0  0  0  0  0  0  0  0  0  0  0  0
  194.4430  173.0920  143.4260 C   0  0  2  0  0  3  0  0  0  0  0  0
  192.9650  176.8070  146.9120 C   0  0  0  0  0  3  0  0  0  0  0  0
  192.0280  172.8500  138.6430 N   0  0  0  0  0  2  0  0  0  0  0  0
  191.3590  174.7980  144.2990 C   0  0  0  0  0  0  0  0  0  0  0  0
  190.2830  177.7320  143.7400 C   0  0  0  0  0  1  0  0  0  0  0  0
  195.8320  174.5320  145.7550 C   0  0  0  0  0  2  0  0  0  0  0  0
  194.2490  176.2060  146.8100 C   0  0  0  0  0  3  0  0  0  0  0  0
  189.9460  175.2830  144.1470 C   0  0  0  0  0  2  0  0  0  0  0  0
  193.1700  173.6030  140.7150 N   0  0  0  0  0  0  0  0  0  0  0  0
  194.0310  174.5760  141.3950 C   0  0  0  0  0  2  0  0  0  0  0  0
  194.4820  175.1540  145.8920 C   0  0  0  0  0  0  0  0  0  0  0  0
  192.0230  173.8730  143.5660 N   0  0  0  0  0  0  0  0  0  0  0  0
  190.5160  176.9160  146.1010 C   0  0  0  0  0  2  0  0  0  0  0  0
  195.5060  172.4410  144.3330 C   0  0  1  0  0  3  0  0  0  0  0  0
  188.3020  176.9610  144.9640 C   0  0  0  0  0  1  0  0  0  0  0  0
  192.4620  172.5600  141.4620 C   0  0  0  0  0  2  0  0  0  0  0  0
  193.4820  174.6740  138.6610 O   0  0  0  0  0  0  0  0  0  0  0  0
  191.4330  173.1430  142.4350 C   0  0  0  0  0  2  0  0  0  0  0  0
  195.7000  173.0150  145.7440 C   0  0  0  0  0  2  0  0  0  0  0  0
  195.1310  170.2440  143.2040 C   0  0  0  0  0  3  0  0  0  0  0  0
  195.3040  170.9620  144.3930 C   0  0  0  0  0  0  0  0  0  0  0  0
  195.2740  170.2870  145.6230 C   0  0  0  0  0  3  0  0  0  0  0  0
  195.0410  168.1940  146.9640 C   0  0  0  0  0  1  0  0  0  0  0  0
  194.9020  168.1910  144.4700 C   0  0  0  0  0  3  0  0  0  0  0  0
  195.0740  168.9040  145.6600 C   0  0  0  0  0  0  0  0  0  0  0  0
  194.9310  168.8610  143.2420 C   0  0  0  0  0  3  0  0  0  0  0  0
  190.3130  173.5610  137.0470 C   0  0  0  0  0  1  0  0  0  0  0  0
  191.7010  172.9670  137.2280 C   0  0  2  0  0  3  0  0  0  0  0  0
  190.5540  171.2570  135.7520 C   0  0  0  0  0  1  0  0  0  0  0  0
  191.8090  171.6080  136.5380 C   0  0  0  0  0  2  0  0  0  0  0  0
  1 22  1  0  0  0  0
  1 20  1  0  0  0  0
  2  7  1  0  0  0  0
  2 18  1  0  0  0  0
  4 20  1  0  0  0  0
  4  9  2  0  0  0  0
  5  2  2  0  0  0  0
  6 16  1  0  0  0  0
  7  4  1  0  0  0  0
  8  3  1  6  0  0  0
  8  5  1  0  0  0  0
  8 21  1  0  0  0  0
 10  6  1  0  0  0  0
 11  7  2  0  0  0  0
 12  1  1  0  0  0  0
 13 18  1  0  0  0  0
 14  9  1  0  0  0  0
 15 11  1  0  0  0  0
 15  1  1  0  0  0  0
 16 17  1  0  0  0  0
 16 23  1  0  0  0  0
 17  3  1  0  0  0  0
 18 14  2  0  0  0  0
 19  5  1  0  0  0  0
 19 11  1  0  0  0  0
 21 28  1  1  0  0  0
 21 26  1  0  0  0  0
 23 25  1  0  0  0  0
 24  6  2  0  0  0  0
 25 19  1  0  0  0  0
 26 13  1  0  0  0  0
 27 33  2  0  0  0  0
 27 28  1  0  0  0  0
 28 29  2  0  0  0  0
 29 32  1  0  0  0  0
 31 32  2  0  0  0  0
 32 30  1  0  0  0  0
 33 31  1  0  0  0  0
 35 34  1  1  0  0  0
 35 10  1  0  0  0  0
 36 37  1  0  0  0  0
 37 35  1  0  0  0  0
M  END
>  <MODEL>
8

>  <REMARK>
 VINA RESULT:      -6.9      3.116      6.577
  Name = 
  3 active torsions:
  status: ('A' for Active; 'I' for Inactive)
    1  A    between atoms: C_4  and  N_12
    2  A    between atoms: C_4  and  C_37
    3  A    between atoms: C_23  and  C_30
                            x       y       z     vdW  Elec       q    Type
                         _______ _______ _______ _____ _____    ______ ____

>  <TORSDO>
F 3

$$$$
=
 OpenBabel11112417243D

 37 42  0  0  1  0  0  0  0  0999 V2000
  188.6490  173.1240  139.6510 C   0  0  0  0  0  0  0  0  0  0  0  0
  191.2800  172.9370  142.8520 C   0  0  0  0  0  0  0  0  0  0  0  0
  190.3250  174.2770  145.7940 C   0  0  0  0  0  2  0  0  0  0  0  0
  190.4820  171.8310  140.8640 C   0  0  0  0  0  0  0  0  0  0  0  0
  191.1130  174.2050  143.3900 C   0  0  0  0  0  0  0  0  0  0  0  0
  187.6470  176.7940  145.4510 C   0  0  0  0  0  0  0  0  0  0  0  0
  190.6240  172.9380  141.6670 C   0  0  0  0  0  0  0  0  0  0  0  0
  191.4480  174.5970  144.8070 C   0  0  2  0  0  3  0  0  0  0  0  0
  191.1010  170.6400  141.2910 C   0  0  0  0  0  3  0  0  0  0  0  0
  187.4750  178.1820  145.1480 N   0  0  0  0  0  2  0  0  0  0  0  0
  190.0350  174.1430  141.4930 C   0  0  0  0  0  0  0  0  0  0  0  0
  187.4430  172.6430  140.4400 C   0  0  0  0  0  1  0  0  0  0  0  0
  192.6080  171.7590  144.6390 C   0  0  0  0  0  2  0  0  0  0  0  0
  191.8050  170.6150  142.5260 C   0  0  0  0  0  3  0  0  0  0  0  0
  189.1850  174.4360  140.2910 C   0  0  0  0  0  2  0  0  0  0  0  0
  188.8130  176.0970  144.9920 N   0  0  0  0  0  0  0  0  0  0  0  0
  188.9400  174.6610  145.2550 C   0  0  0  0  0  2  0  0  0  0  0  0
  191.8950  171.7780  143.3270 C   0  0  0  0  0  0  0  0  0  0  0  0
  190.3080  174.9370  142.5550 N   0  0  0  0  0  0  0  0  0  0  0  0
  189.7050  171.9800  139.5810 C   0  0  0  0  0  2  0  0  0  0  0  0
  192.8310  174.1950  145.3580 C   0  0  1  0  0  3  0  0  0  0  0  0
  188.1920  173.4350  138.2420 C   0  0  0  0  0  1  0  0  0  0  0  0
  189.7880  176.8070  144.1590 C   0  0  0  0  0  2  0  0  0  0  0  0
  186.7740  176.1860  146.1290 O   0  0  0  0  0  0  0  0  0  0  0  0
  189.7910  176.3040  142.7140 C   0  0  0  0  0  2  0  0  0  0  0  0
  193.5240  172.9700  144.7430 C   0  0  0  0  0  2  0  0  0  0  0  0
  193.6240  176.3400  146.3630 C   0  0  0  0  0  3  0  0  0  0  0  0
  193.7520  175.3710  145.3610 C   0  0  0  0  0  0  0  0  0  0  0  0
  194.7330  175.5230  144.3700 C   0  0  0  0  0  3  0  0  0  0  0  0
  196.6160  176.7910  143.3310 C   0  0  0  0  0  1  0  0  0  0  0  0
  195.4490  177.6000  145.3870 C   0  0  0  0  0  3  0  0  0  0  0  0
  195.5790  176.6350  144.3840 C   0  0  0  0  0  0  0  0  0  0  0  0
  194.4710  177.4520  146.3760 C   0  0  0  0  0  3  0  0  0  0  0  0
  186.0580  178.7950  147.0480 C   0  0  0  0  0  1  0  0  0  0  0  0
  186.2980  178.9400  145.5540 C   0  0  2  0  0  3  0  0  0  0  0  0
  185.2230  178.7670  143.2660 C   0  0  0  0  0  1  0  0  0  0  0  0
  185.0730  178.4970  144.7570 C   0  0  0  0  0  2  0  0  0  0  0  0
  1 15  1  0  0  0  0
  1 12  1  0  0  0  0
  2 18  1  0  0  0  0
  2  5  2  0  0  0  0
  4  9  2  0  0  0  0
  4  7  1  0  0  0  0
  5  8  1  0  0  0  0
  6 24  2  0  0  0  0
  7  2  1  0  0  0  0
  8 21  1  0  0  0  0
  8  3  1  1  0  0  0
  9 14  1  0  0  0  0
 10  6  1  0  0  0  0
 10 35  1  0  0  0  0
 11  7  2  0  0  0  0
 11 19  1  0  0  0  0
 13 26  1  0  0  0  0
 14 18  2  0  0  0  0
 15 11  1  0  0  0  0
 16 17  1  0  0  0  0
 16  6  1  0  0  0  0
 17  3  1  0  0  0  0
 18 13  1  0  0  0  0
 19 25  1  0  0  0  0
 19  5  1  0  0  0  0
 20  1  1  0  0  0  0
 20  4  1  0  0  0  0
 21 28  1  6  0  0  0
 22  1  1  0  0  0  0
 23 16  1  0  0  0  0
 25 23  1  0  0  0  0
 26 21  1  0  0  0  0
 27 33  1  0  0  0  0
 28 27  2  0  0  0  0
 29 32  2  0  0  0  0
 29 28  1  0  0  0  0
 30 32  1  0  0  0  0
 31 33  2  0  0  0  0
 32 31  1  0  0  0  0
 35 34  1  1  0  0  0
 36 37  1  0  0  0  0
 37 35  1  0  0  0  0
M  END
>  <MODEL>
9

>  <REMARK>
 VINA RESULT:      -6.8      2.402      7.589
  Name = 
  3 active torsions:
  status: ('A' for Active; 'I' for Inactive)
    1  A    between atoms: C_4  and  N_12
    2  A    between atoms: C_4  and  C_37
    3  A    between atoms: C_23  and  C_30
                            x       y       z     vdW  Elec       q    Type
                         _______ _______ _______ _____ _____    ______ ____

>  <TORSDO>
F 3

$$$$
