=
 OpenBabel11112416513D

 31 35  0  0  1  0  0  0  0  0999 V2000
  185.8510  177.5370  146.4250 C   0  0  0  0  0  0  0  0  0  0  0  0
  187.4510  176.0220  143.3780 N   0  0  0  0  0  0  0  0  0  0  0  0
  186.8090  176.5690  142.1990 C   0  0  0  0  0  0  0  0  0  0  0  0
  185.1350  177.9860  141.1380 C   0  0  0  0  0  0  0  0  0  0  0  0
  187.2650  176.6120  144.6800 C   0  0  0  0  0  0  0  0  0  0  0  0
  186.9770  177.7740  147.2170 C   0  0  0  0  0  3  0  0  0  0  0  0
  185.6890  177.4120  142.2860 C   0  0  0  0  0  3  0  0  0  0  0  0
  189.8300  176.1040  143.5950 N   0  0  0  0  0  0  0  0  0  0  0  0
  184.5010  177.9030  146.9240 C   0  0  0  0  0  1  0  0  0  0  0  0
  188.4700  175.4780  140.8190 O   0  0  0  0  0  0  0  0  0  0  0  0
  184.0260  178.8120  141.2420 O   0  0  0  0  0  1  0  0  0  0  0  0
  189.7620  176.3880  145.0370 C   0  0  0  0  0  2  0  0  0  0  0  0
  188.6920  175.2410  143.2450 C   0  0  2  0  0  3  0  0  0  0  0  0
  185.9930  176.9540  145.1630 C   0  0  0  0  0  3  0  0  0  0  0  0
  185.7040  177.7330  139.8890 C   0  0  0  0  0  3  0  0  0  0  0  0
  188.3970  176.8500  145.4850 C   0  0  0  0  0  0  0  0  0  0  0  0
  188.2480  177.4220  146.7520 C   0  0  0  0  0  3  0  0  0  0  0  0
  188.8110  174.5750  141.8630 C   0  0  0  0  0  2  0  0  0  0  0  0
  187.3620  176.3110  140.9330 C   0  0  0  0  0  0  0  0  0  0  0  0
  186.8180  176.8980  139.7860 C   0  0  0  0  0  3  0  0  0  0  0  0
  191.0840  175.3840  143.3910 C   0  0  0  0  0  2  0  0  0  0  0  0
  190.9690  173.2880  144.7510 C   0  0  0  0  0  1  0  0  0  0  0  0
  191.5090  174.7050  144.6880 C   0  0  1  0  0  3  0  0  0  0  0  0
  195.5800  174.1030  145.7490 C   0  0  0  0  0  0  0  0  0  0  0  0
  193.7550  173.7690  144.0750 C   0  0  0  0  0  2  0  0  0  0  0  0
  193.0610  176.5510  146.3270 O   0  0  0  0  0  0  0  0  0  0  0  0
  196.9860  173.7950  146.1180 C   0  0  0  0  0  1  0  0  0  0  0  0
  194.7760  173.0840  144.9850 C   0  0  0  0  0  2  0  0  0  0  0  0
  193.6400  175.5650  145.7990 C   0  0  0  0  0  0  0  0  0  0  0  0
  192.9620  174.7240  144.8460 N   0  0  0  0  0  0  0  0  0  0  0  0
  195.0260  175.2450  146.1680 C   0  0  0  0  0  3  0  0  0  0  0  0
  1  9  1  0  0  0  0
  1  6  1  0  0  0  0
  2  5  1  0  0  0  0
  3  7  1  0  0  0  0
  3  2  1  0  0  0  0
  4 11  1  0  0  0  0
  4  7  2  0  0  0  0
  5 14  1  0  0  0  0
  5 16  2  0  0  0  0
  8 12  1  0  0  0  0
 10 19  1  0  0  0  0
 10 18  1  0  0  0  0
 12 16  1  0  0  0  0
 13 18  1  6  0  0  0
 13  2  1  0  0  0  0
 13  8  1  0  0  0  0
 14  1  2  0  0  0  0
 15  4  1  0  0  0  0
 16 17  1  0  0  0  0
 17  6  2  0  0  0  0
 19  3  2  0  0  0  0
 20 15  2  0  0  0  0
 20 19  1  0  0  0  0
 21  8  1  0  0  0  0
 21 23  1  0  0  0  0
 23 22  1  6  0  0  0
 23 30  1  0  0  0  0
 24 27  1  0  0  0  0
 24 31  2  0  0  0  0
 25 30  1  0  0  0  0
 25 28  1  0  0  0  0
 28 24  1  0  0  0  0
 29 31  1  0  0  0  0
 29 26  2  0  0  0  0
 30 29  1  0  0  0  0
M  END
>  <MODEL>
1

>  <REMARK>
 VINA RESULT:      -8.6      0.000      0.000
  Name = 
  3 active torsions:
  status: ('A' for Active; 'I' for Inactive)
    1  A    between atoms: C_5  and  C_16
    2  A    between atoms: C_5  and  N_30
    3  A    between atoms: N_10  and  C_16
                            x       y       z     vdW  Elec       q    Type
                         _______ _______ _______ _____ _____    ______ ____

>  <TORSDO>
F 3

$$$$
=
 OpenBabel11112416513D

 31 35  0  0  1  0  0  0  0  0999 V2000
  185.4960  178.2010  146.6530 C   0  0  0  0  0  0  0  0  0  0  0  0
  187.9950  175.9730  144.9430 N   0  0  0  0  0  0  0  0  0  0  0  0
  187.7860  176.0590  143.5110 C   0  0  0  0  0  0  0  0  0  0  0  0
  186.5770  176.9050  141.5730 C   0  0  0  0  0  0  0  0  0  0  0  0
  187.3960  176.9190  145.8510 C   0  0  0  0  0  0  0  0  0  0  0  0
  186.2990  178.7820  147.6390 C   0  0  0  0  0  3  0  0  0  0  0  0
  186.7120  176.7750  142.9580 C   0  0  0  0  0  3  0  0  0  0  0  0
  190.1690  176.3480  145.8640 N   0  0  0  0  0  0  0  0  0  0  0  0
  184.0620  178.5730  146.5510 C   0  0  0  0  0  1  0  0  0  0  0  0
  189.7970  174.7570  143.1650 O   0  0  0  0  0  0  0  0  0  0  0  0
  185.5060  177.6100  141.0440 O   0  0  0  0  0  1  0  0  0  0  0  0
  189.6310  177.0610  147.0330 C   0  0  0  0  0  2  0  0  0  0  0  0
  189.1990  175.3130  145.4730 C   0  0  2  0  0  3  0  0  0  0  0  0
  186.0410  177.2700  145.7650 C   0  0  0  0  0  3  0  0  0  0  0  0
  187.5240  176.3300  140.7240 C   0  0  0  0  0  3  0  0  0  0  0  0
  188.2010  177.5050  146.8490 C   0  0  0  0  0  0  0  0  0  0  0  0
  187.6480  178.4270  147.7420 C   0  0  0  0  0  3  0  0  0  0  0  0
  189.7610  174.2630  144.4970 C   0  0  0  0  0  2  0  0  0  0  0  0
  188.7240  175.4730  142.6430 C   0  0  0  0  0  0  0  0  0  0  0  0
  188.5980  175.6170  141.2570 C   0  0  0  0  0  3  0  0  0  0  0  0
  191.4100  175.7250  146.3140 C   0  0  0  0  0  2  0  0  0  0  0  0
  193.7410  176.5360  146.7240 C   0  0  0  0  0  1  0  0  0  0  0  0
  192.6040  176.4610  145.7200 C   0  0  1  0  0  3  0  0  0  0  0  0
  194.6280  175.1460  142.2220 C   0  0  0  0  0  0  0  0  0  0  0  0
  193.8710  174.6400  144.5480 C   0  0  0  0  0  2  0  0  0  0  0  0
  191.9110  177.3030  143.0160 O   0  0  0  0  0  0  0  0  0  0  0  0
  195.4190  174.6800  141.0530 C   0  0  0  0  0  1  0  0  0  0  0  0
  195.0730  174.7730  143.6110 C   0  0  0  0  0  2  0  0  0  0  0  0
  192.7870  176.4130  143.1740 C   0  0  0  0  0  0  0  0  0  0  0  0
  193.0430  175.8410  144.4710 N   0  0  0  0  0  0  0  0  0  0  0  0
  193.5830  175.9550  142.0260 C   0  0  0  0  0  3  0  0  0  0  0  0
  1  6  1  0  0  0  0
  2 13  1  0  0  0  0
  2  5  1  0  0  0  0
  3  2  1  0  0  0  0
  4  7  2  0  0  0  0
  5 16  2  0  0  0  0
  6 17  2  0  0  0  0
  7  3  1  0  0  0  0
  8 21  1  0  0  0  0
  8 12  1  0  0  0  0
  9  1  1  0  0  0  0
 10 18  1  0  0  0  0
 11  4  1  0  0  0  0
 13 18  1  6  0  0  0
 13  8  1  0  0  0  0
 14  5  1  0  0  0  0
 14  1  2  0  0  0  0
 15 20  2  0  0  0  0
 15  4  1  0  0  0  0
 16 12  1  0  0  0  0
 16 17  1  0  0  0  0
 19 10  1  0  0  0  0
 19  3  2  0  0  0  0
 20 19  1  0  0  0  0
 23 21  1  0  0  0  0
 23 22  1  1  0  0  0
 24 28  1  0  0  0  0
 26 29  2  0  0  0  0
 27 24  1  0  0  0  0
 28 25  1  0  0  0  0
 29 30  1  0  0  0  0
 30 25  1  0  0  0  0
 30 23  1  0  0  0  0
 31 24  2  0  0  0  0
 31 29  1  0  0  0  0
M  END
>  <MODEL>
2

>  <REMARK>
 VINA RESULT:      -8.4      1.734      2.548
  Name = 
  3 active torsions:
  status: ('A' for Active; 'I' for Inactive)
    1  A    between atoms: C_5  and  C_16
    2  A    between atoms: C_5  and  N_30
    3  A    between atoms: N_10  and  C_16
                            x       y       z     vdW  Elec       q    Type
                         _______ _______ _______ _____ _____    ______ ____

>  <TORSDO>
F 3

$$$$
=
 OpenBabel11112416513D

 31 35  0  0  1  0  0  0  0  0999 V2000
  185.2760  177.9120  146.3270 C   0  0  0  0  0  0  0  0  0  0  0  0
  187.3180  176.0550  143.7740 N   0  0  0  0  0  0  0  0  0  0  0  0
  186.9270  176.5070  142.4530 C   0  0  0  0  0  0  0  0  0  0  0  0
  185.5470  177.8710  140.9810 C   0  0  0  0  0  0  0  0  0  0  0  0
  186.9320  176.7740  144.9620 C   0  0  0  0  0  0  0  0  0  0  0  0
  186.2520  178.1850  147.2890 C   0  0  0  0  0  3  0  0  0  0  0  0
  185.8550  177.3930  142.2570 C   0  0  0  0  0  3  0  0  0  0  0  0
  189.6200  176.0740  144.4170 N   0  0  0  0  0  0  0  0  0  0  0  0
  183.8790  178.3710  146.5350 C   0  0  0  0  0  1  0  0  0  0  0  0
  188.7510  175.2300  141.5040 O   0  0  0  0  0  0  0  0  0  0  0  0
  184.4810  178.7410  140.8050 O   0  0  0  0  0  1  0  0  0  0  0  0
  189.3090  176.5000  145.7910 C   0  0  0  0  0  2  0  0  0  0  0  0
  188.5200  175.2220  143.9410 C   0  0  2  0  0  3  0  0  0  0  0  0
  185.6130  177.2050  145.1700 C   0  0  0  0  0  3  0  0  0  0  0  0
  186.3180  177.4790  139.8850 C   0  0  0  0  0  3  0  0  0  0  0  0
  187.9110  177.0490  145.9370 C   0  0  0  0  0  0  0  0  0  0  0  0
  187.5660  177.7470  147.0980 C   0  0  0  0  0  3  0  0  0  0  0  0
  188.8510  174.4210  142.6690 C   0  0  0  0  0  2  0  0  0  0  0  0
  187.6850  176.1080  141.3380 C   0  0  0  0  0  0  0  0  0  0  0  0
  187.3880  176.6000  140.0630 C   0  0  0  0  0  3  0  0  0  0  0  0
  190.8510  175.2950  144.5120 C   0  0  0  0  0  2  0  0  0  0  0  0
  192.0760  177.4370  144.1020 C   0  0  0  0  0  1  0  0  0  0  0  0
  191.9570  175.9750  143.7130 C   0  0  1  0  0  3  0  0  0  0  0  0
  195.8910  174.6820  144.6700 C   0  0  0  0  0  0  0  0  0  0  0  0
  193.4350  174.4740  145.0770 C   0  0  0  0  0  2  0  0  0  0  0  0
  194.1680  175.9220  141.8130 O   0  0  0  0  0  0  0  0  0  0  0  0
  197.2520  174.2650  145.0980 C   0  0  0  0  0  1  0  0  0  0  0  0
  194.7960  174.7930  145.6970 C   0  0  0  0  0  2  0  0  0  0  0  0
  194.3360  175.4340  142.9620 C   0  0  0  0  0  0  0  0  0  0  0  0
  193.2330  175.2800  143.8750 N   0  0  0  0  0  0  0  0  0  0  0  0
  195.6810  175.0310  143.3980 C   0  0  0  0  0  3  0  0  0  0  0  0
  1  9  1  0  0  0  0
  1  6  1  0  0  0  0
  2 13  1  0  0  0  0
  2  5  1  0  0  0  0
  3  2  1  0  0  0  0
  4  7  2  0  0  0  0
  5 14  1  0  0  0  0
  5 16  2  0  0  0  0
  7  3  1  0  0  0  0
  8 21  1  0  0  0  0
  8 12  1  0  0  0  0
 10 18  1  0  0  0  0
 11  4  1  0  0  0  0
 12 16  1  0  0  0  0
 13 18  1  6  0  0  0
 13  8  1  0  0  0  0
 14  1  2  0  0  0  0
 15 20  2  0  0  0  0
 15  4  1  0  0  0  0
 16 17  1  0  0  0  0
 17  6  2  0  0  0  0
 19 10  1  0  0  0  0
 19  3  2  0  0  0  0
 20 19  1  0  0  0  0
 23 30  1  0  0  0  0
 23 22  1  1  0  0  0
 23 21  1  0  0  0  0
 24 27  1  0  0  0  0
 24 28  1  0  0  0  0
 25 28  1  0  0  0  0
 26 29  2  0  0  0  0
 29 31  1  0  0  0  0
 29 30  1  0  0  0  0
 30 25  1  0  0  0  0
 31 24  2  0  0  0  0
M  END
>  <MODEL>
3

>  <REMARK>
 VINA RESULT:      -8.3      1.330      1.605
  Name = 
  3 active torsions:
  status: ('A' for Active; 'I' for Inactive)
    1  A    between atoms: C_5  and  C_16
    2  A    between atoms: C_5  and  N_30
    3  A    between atoms: N_10  and  C_16
                            x       y       z     vdW  Elec       q    Type
                         _______ _______ _______ _____ _____    ______ ____

>  <TORSDO>
F 3

$$$$
=
 OpenBabel11112416513D

 31 35  0  0  1  0  0  0  0  0999 V2000
  187.3510  176.8220  140.8850 C   0  0  0  0  0  0  0  0  0  0  0  0
  187.8310  177.4280  144.5640 N   0  0  0  0  0  0  0  0  0  0  0  0
  186.5920  177.9420  145.1130 C   0  0  0  0  0  0  0  0  0  0  0  0
  184.2860  178.6830  144.8590 C   0  0  0  0  0  0  0  0  0  0  0  0
  187.8850  176.8290  143.2540 C   0  0  0  0  0  0  0  0  0  0  0  0
  188.0100  175.5990  140.7360 C   0  0  0  0  0  3  0  0  0  0  0  0
  185.4930  178.2600  144.2970 C   0  0  0  0  0  3  0  0  0  0  0  0
  188.8880  175.5290  145.5600 N   0  0  0  0  0  0  0  0  0  0  0  0
  186.7130  177.4690  139.7100 C   0  0  0  0  0  1  0  0  0  0  0  0
  187.5270  177.7530  147.3370 O   0  0  0  0  0  0  0  0  0  0  0  0
  183.2120  178.9990  144.0390 O   0  0  0  0  0  1  0  0  0  0  0  0
  189.2930  174.9790  144.2570 C   0  0  0  0  0  2  0  0  0  0  0  0
  188.9120  176.9970  145.4650 C   0  0  2  0  0  3  0  0  0  0  0  0
  187.2920  177.4370  142.1380 C   0  0  0  0  0  3  0  0  0  0  0  0
  184.1580  178.7810  146.2460 C   0  0  0  0  0  3  0  0  0  0  0  0
  188.5520  175.5980  143.0980 C   0  0  0  0  0  0  0  0  0  0  0  0
  188.6180  174.9920  141.8390 C   0  0  0  0  0  3  0  0  0  0  0  0
  188.8530  177.7150  146.8250 C   0  0  0  0  0  2  0  0  0  0  0  0
  186.4540  178.0600  146.5070 C   0  0  0  0  0  0  0  0  0  0  0  0
  185.2400  178.4670  147.0700 C   0  0  0  0  0  3  0  0  0  0  0  0
  189.8940  175.0730  146.5150 C   0  0  0  0  0  2  0  0  0  0  0  0
  191.6660  176.1810  147.8900 C   0  0  0  0  0  1  0  0  0  0  0  0
  191.0920  176.0160  146.4950 C   0  0  1  0  0  3  0  0  0  0  0  0
  194.6360  174.9680  144.3960 C   0  0  0  0  0  0  0  0  0  0  0  0
  192.6600  174.2140  145.7270 C   0  0  0  0  0  2  0  0  0  0  0  0
  192.1150  177.4720  144.1850 O   0  0  0  0  0  0  0  0  0  0  0  0
  195.9130  174.5680  143.7490 C   0  0  0  0  0  1  0  0  0  0  0  0
  194.1870  174.2580  145.6460 C   0  0  0  0  0  2  0  0  0  0  0  0
  192.6790  176.4010  144.5330 C   0  0  0  0  0  0  0  0  0  0  0  0
  192.1130  175.5580  145.5540 N   0  0  0  0  0  0  0  0  0  0  0  0
  193.9480  176.0040  143.9070 C   0  0  0  0  0  3  0  0  0  0  0  0
  1 14  1  0  0  0  0
  2  3  1  0  0  0  0
  2 13  1  0  0  0  0
  3 19  1  0  0  0  0
  4 15  2  0  0  0  0
  5  2  1  0  0  0  0
  6  1  2  0  0  0  0
  6 17  1  0  0  0  0
  7  4  1  0  0  0  0
  7  3  2  0  0  0  0
  8 21  1  0  0  0  0
  9  1  1  0  0  0  0
 11  4  1  0  0  0  0
 12  8  1  0  0  0  0
 13  8  1  0  0  0  0
 13 18  1  1  0  0  0
 14  5  2  0  0  0  0
 15 20  1  0  0  0  0
 16  5  1  0  0  0  0
 16 12  1  0  0  0  0
 17 16  2  0  0  0  0
 18 10  1  0  0  0  0
 19 20  2  0  0  0  0
 19 10  1  0  0  0  0
 23 21  1  0  0  0  0
 23 22  1  1  0  0  0
 24 28  1  0  0  0  0
 26 29  2  0  0  0  0
 27 24  1  0  0  0  0
 28 25  1  0  0  0  0
 29 30  1  0  0  0  0
 30 25  1  0  0  0  0
 30 23  1  0  0  0  0
 31 24  2  0  0  0  0
 31 29  1  0  0  0  0
M  END
>  <MODEL>
4

>  <REMARK>
 VINA RESULT:      -8.0      1.907      4.166
  Name = 
  3 active torsions:
  status: ('A' for Active; 'I' for Inactive)
    1  A    between atoms: C_5  and  C_16
    2  A    between atoms: C_5  and  N_30
    3  A    between atoms: N_10  and  C_16
                            x       y       z     vdW  Elec       q    Type
                         _______ _______ _______ _____ _____    ______ ____

>  <TORSDO>
F 3

$$$$
=
 OpenBabel11112416513D

 31 35  0  0  1  0  0  0  0  0999 V2000
  186.2020  178.2700  146.4740 C   0  0  0  0  0  0  0  0  0  0  0  0
  189.0990  177.1490  144.3560 N   0  0  0  0  0  0  0  0  0  0  0  0
  190.2220  176.8580  145.2260 C   0  0  0  0  0  0  0  0  0  0  0  0
  191.2470  176.7580  147.4330 C   0  0  0  0  0  0  0  0  0  0  0  0
  187.7660  177.3210  144.8770 C   0  0  0  0  0  0  0  0  0  0  0  0
  185.1490  177.5960  145.8500 C   0  0  0  0  0  3  0  0  0  0  0  0
  190.1800  177.1170  146.6060 C   0  0  0  0  0  3  0  0  0  0  0  0
  188.3540  175.5220  142.7720 N   0  0  0  0  0  0  0  0  0  0  0  0
  185.9360  179.1300  147.6560 C   0  0  0  0  0  1  0  0  0  0  0  0
  191.4270  175.9630  143.3280 O   0  0  0  0  0  0  0  0  0  0  0  0
  191.1920  177.0260  148.7930 O   0  0  0  0  0  1  0  0  0  0  0  0
  186.9370  175.8540  142.9870 C   0  0  0  0  0  2  0  0  0  0  0  0
  189.1430  176.7520  142.9390 C   0  0  2  0  0  3  0  0  0  0  0  0
  187.5050  178.1370  145.9870 C   0  0  0  0  0  3  0  0  0  0  0  0
  192.3650  176.1210  146.8910 C   0  0  0  0  0  3  0  0  0  0  0  0
  186.7000  176.6460  144.2490 C   0  0  0  0  0  0  0  0  0  0  0  0
  185.3970  176.7920  144.7330 C   0  0  0  0  0  3  0  0  0  0  0  0
  190.5850  176.6490  142.4110 C   0  0  0  0  0  2  0  0  0  0  0  0
  191.3600  176.2300  144.6910 C   0  0  0  0  0  0  0  0  0  0  0  0
  192.4210  175.8540  145.5220 C   0  0  0  0  0  3  0  0  0  0  0  0
  188.4470  175.0520  141.3930 C   0  0  0  0  0  2  0  0  0  0  0  0
  188.1920  173.0400  139.9280 C   0  0  0  0  0  1  0  0  0  0  0  0
  188.3490  173.5320  141.3560 C   0  0  1  0  0  3  0  0  0  0  0  0
  191.7150  172.4800  143.7290 C   0  0  0  0  0  0  0  0  0  0  0  0
  189.2830  172.1700  143.2450 C   0  0  0  0  0  2  0  0  0  0  0  0
  191.0950  173.5000  140.3750 O   0  0  0  0  0  0  0  0  0  0  0  0
  192.8440  172.1500  144.6380 C   0  0  0  0  0  1  0  0  0  0  0  0
  190.3210  172.5840  144.2890 C   0  0  0  0  0  2  0  0  0  0  0  0
  190.8540  173.0750  141.5360 C   0  0  0  0  0  0  0  0  0  0  0  0
  189.5020  172.9090  142.0040 N   0  0  0  0  0  0  0  0  0  0  0  0
  191.9650  172.7590  142.4460 C   0  0  0  0  0  3  0  0  0  0  0  0
  1  9  1  0  0  0  0
  2  5  1  0  0  0  0
  2  3  1  0  0  0  0
  3  7  1  0  0  0  0
  4 11  1  0  0  0  0
  5 14  2  0  0  0  0
  6  1  2  0  0  0  0
  7  4  2  0  0  0  0
  8 13  1  0  0  0  0
  8 12  1  0  0  0  0
 10 19  1  0  0  0  0
 12 16  1  0  0  0  0
 13 18  1  1  0  0  0
 13  2  1  0  0  0  0
 14  1  1  0  0  0  0
 15  4  1  0  0  0  0
 16 17  2  0  0  0  0
 16  5  1  0  0  0  0
 17  6  1  0  0  0  0
 18 10  1  0  0  0  0
 19  3  2  0  0  0  0
 19 20  1  0  0  0  0
 20 15  2  0  0  0  0
 21  8  1  0  0  0  0
 23 22  1  6  0  0  0
 23 21  1  0  0  0  0
 23 30  1  0  0  0  0
 24 28  1  0  0  0  0
 24 27  1  0  0  0  0
 25 28  1  0  0  0  0
 26 29  2  0  0  0  0
 29 30  1  0  0  0  0
 29 31  1  0  0  0  0
 30 25  1  0  0  0  0
 31 24  2  0  0  0  0
M  END
>  <MODEL>
5

>  <REMARK>
 VINA RESULT:      -8.0      2.695      5.097
  Name = 
  3 active torsions:
  status: ('A' for Active; 'I' for Inactive)
    1  A    between atoms: C_5  and  C_16
    2  A    between atoms: C_5  and  N_30
    3  A    between atoms: N_10  and  C_16
                            x       y       z     vdW  Elec       q    Type
                         _______ _______ _______ _____ _____    ______ ____

>  <TORSDO>
F 3

$$$$
=
 OpenBabel11112416513D

 31 35  0  0  1  0  0  0  0  0999 V2000
  186.8490  177.1740  141.0440 C   0  0  0  0  0  0  0  0  0  0  0  0
  188.2460  177.4460  144.5230 N   0  0  0  0  0  0  0  0  0  0  0  0
  187.1890  177.8860  145.4130 C   0  0  0  0  0  0  0  0  0  0  0  0
  184.8990  178.6070  145.8190 C   0  0  0  0  0  0  0  0  0  0  0  0
  187.9640  176.9710  143.1920 C   0  0  0  0  0  0  0  0  0  0  0  0
  187.4410  175.9820  140.6200 C   0  0  0  0  0  3  0  0  0  0  0  0
  185.9220  178.2580  144.9340 C   0  0  0  0  0  3  0  0  0  0  0  0
  189.5080  175.4820  145.0390 N   0  0  0  0  0  0  0  0  0  0  0  0
  185.9390  177.9160  140.1340 C   0  0  0  0  0  1  0  0  0  0  0  0
  188.6550  177.5080  147.3010 O   0  0  0  0  0  0  0  0  0  0  0  0
  183.6550  178.9780  145.3290 O   0  0  0  0  0  1  0  0  0  0  0  0
  189.5680  175.0620  143.6300 C   0  0  0  0  0  2  0  0  0  0  0  0
  189.5180  176.9530  145.0790 C   0  0  2  0  0  3  0  0  0  0  0  0
  187.1120  177.6700  142.3240 C   0  0  0  0  0  3  0  0  0  0  0  0
  185.1260  178.5730  147.1960 C   0  0  0  0  0  3  0  0  0  0  0  0
  188.5620  175.7720  142.7580 C   0  0  0  0  0  0  0  0  0  0  0  0
  188.3040  175.2860  141.4730 C   0  0  0  0  0  3  0  0  0  0  0  0
  189.8080  177.5410  146.4710 C   0  0  0  0  0  2  0  0  0  0  0  0
  187.4090  177.8720  146.8010 C   0  0  0  0  0  0  0  0  0  0  0  0
  186.3790  178.2040  147.6870 C   0  0  0  0  0  3  0  0  0  0  0  0
  190.7200  174.9580  145.6610 C   0  0  0  0  0  2  0  0  0  0  0  0
  192.7400  175.7760  144.4330 C   0  0  0  0  0  1  0  0  0  0  0  0
  191.7540  174.6320  144.5900 C   0  0  1  0  0  3  0  0  0  0  0  0
  194.3010  171.2340  144.7600 C   0  0  0  0  0  0  0  0  0  0  0  0
  193.6090  173.4150  145.7630 C   0  0  0  0  0  2  0  0  0  0  0  0
  190.9900  171.9700  143.6790 O   0  0  0  0  0  0  0  0  0  0  0  0
  195.2690  170.1070  144.8060 C   0  0  0  0  0  1  0  0  0  0  0  0
  194.7570  172.6160  145.1450 C   0  0  0  0  0  2  0  0  0  0  0  0
  192.0960  172.1240  144.2630 C   0  0  0  0  0  0  0  0  0  0  0  0
  192.4440  173.3770  144.8820 N   0  0  0  0  0  0  0  0  0  0  0  0
  193.0650  171.0190  144.3020 C   0  0  0  0  0  3  0  0  0  0  0  0
  1 14  1  0  0  0  0
  2 13  1  0  0  0  0
  2  3  1  0  0  0  0
  3 19  1  0  0  0  0
  4 15  2  0  0  0  0
  5  2  1  0  0  0  0
  6  1  2  0  0  0  0
  6 17  1  0  0  0  0
  7  3  2  0  0  0  0
  7  4  1  0  0  0  0
  8 13  1  0  0  0  0
  8 21  1  0  0  0  0
  9  1  1  0  0  0  0
 11  4  1  0  0  0  0
 12  8  1  0  0  0  0
 13 18  1  1  0  0  0
 14  5  2  0  0  0  0
 15 20  1  0  0  0  0
 16  5  1  0  0  0  0
 16 12  1  0  0  0  0
 17 16  2  0  0  0  0
 18 10  1  0  0  0  0
 19 10  1  0  0  0  0
 19 20  2  0  0  0  0
 23 22  1  1  0  0  0
 23 30  1  0  0  0  0
 23 21  1  0  0  0  0
 24 27  1  0  0  0  0
 24 28  1  0  0  0  0
 26 29  2  0  0  0  0
 28 25  1  0  0  0  0
 29 31  1  0  0  0  0
 29 30  1  0  0  0  0
 30 25  1  0  0  0  0
 31 24  2  0  0  0  0
M  END
>  <MODEL>
6

>  <REMARK>
 VINA RESULT:      -7.9      1.984      4.442
  Name = 
  3 active torsions:
  status: ('A' for Active; 'I' for Inactive)
    1  A    between atoms: C_5  and  C_16
    2  A    between atoms: C_5  and  N_30
    3  A    between atoms: N_10  and  C_16
                            x       y       z     vdW  Elec       q    Type
                         _______ _______ _______ _____ _____    ______ ____

>  <TORSDO>
F 3

$$$$
=
 OpenBabel11112416513D

 31 35  0  0  1  0  0  0  0  0999 V2000
  185.5390  178.0550  140.8740 C   0  0  0  0  0  0  0  0  0  0  0  0
  188.0510  177.8530  143.6640 N   0  0  0  0  0  0  0  0  0  0  0  0
  187.3380  177.8000  144.9250 C   0  0  0  0  0  0  0  0  0  0  0  0
  185.2720  177.8190  146.2150 C   0  0  0  0  0  0  0  0  0  0  0  0
  187.3780  177.6440  142.4070 C   0  0  0  0  0  0  0  0  0  0  0  0
  186.1100  177.1780  139.9480 C   0  0  0  0  0  3  0  0  0  0  0  0
  185.9430  177.9480  144.9960 C   0  0  0  0  0  3  0  0  0  0  0  0
  189.6960  176.1980  143.1460 N   0  0  0  0  0  0  0  0  0  0  0  0
  184.2590  178.7390  140.5570 C   0  0  0  0  0  1  0  0  0  0  0  0
  189.4300  177.3710  146.0620 O   0  0  0  0  0  0  0  0  0  0  0  0
  183.8950  177.9730  146.2690 O   0  0  0  0  0  1  0  0  0  0  0  0
  189.3010  176.1430  141.7290 C   0  0  0  0  0  2  0  0  0  0  0  0
  189.4960  177.5750  143.6240 C   0  0  2  0  0  3  0  0  0  0  0  0
  186.1730  178.2920  142.0970 C   0  0  0  0  0  3  0  0  0  0  0  0
  185.9880  177.5250  147.3770 C   0  0  0  0  0  3  0  0  0  0  0  0
  187.9510  176.7630  141.4680 C   0  0  0  0  0  0  0  0  0  0  0  0
  187.3190  176.5390  140.2410 C   0  0  0  0  0  3  0  0  0  0  0  0
  190.1820  177.8780  144.9670 C   0  0  0  0  0  2  0  0  0  0  0  0
  188.0480  177.5200  146.1050 C   0  0  0  0  0  0  0  0  0  0  0  0
  187.3740  177.3730  147.3220 C   0  0  0  0  0  3  0  0  0  0  0  0
  191.1160  175.8600  143.1750 C   0  0  0  0  0  2  0  0  0  0  0  0
  190.8820  173.6190  144.2620 C   0  0  0  0  0  1  0  0  0  0  0  0
  191.4250  175.0290  144.4140 C   0  0  1  0  0  3  0  0  0  0  0  0
  195.4130  174.1800  145.6130 C   0  0  0  0  0  0  0  0  0  0  0  0
  193.7450  174.3310  143.7600 C   0  0  0  0  0  2  0  0  0  0  0  0
  192.7730  176.3310  146.6480 O   0  0  0  0  0  0  0  0  0  0  0  0
  196.7940  173.7890  146.0010 C   0  0  0  0  0  1  0  0  0  0  0  0
  194.7110  173.4200  144.5200 C   0  0  0  0  0  2  0  0  0  0  0  0
  193.4280  175.5460  145.9110 C   0  0  0  0  0  0  0  0  0  0  0  0
  192.8590  175.0130  144.7000 N   0  0  0  0  0  0  0  0  0  0  0  0
  194.7890  175.1440  146.2940 C   0  0  0  0  0  3  0  0  0  0  0  0
  1 14  1  0  0  0  0
  2  3  1  0  0  0  0
  3  7  2  0  0  0  0
  3 19  1  0  0  0  0
  4 11  1  0  0  0  0
  4 15  2  0  0  0  0
  5  2  1  0  0  0  0
  6 17  1  0  0  0  0
  6  1  2  0  0  0  0
  7  4  1  0  0  0  0
  8 21  1  0  0  0  0
  8 13  1  0  0  0  0
  9  1  1  0  0  0  0
 10 19  1  0  0  0  0
 12  8  1  0  0  0  0
 13  2  1  0  0  0  0
 13 18  1  1  0  0  0
 14  5  2  0  0  0  0
 16 12  1  0  0  0  0
 16  5  1  0  0  0  0
 17 16  2  0  0  0  0
 18 10  1  0  0  0  0
 19 20  2  0  0  0  0
 20 15  1  0  0  0  0
 21 23  1  0  0  0  0
 23 22  1  6  0  0  0
 23 30  1  0  0  0  0
 24 27  1  0  0  0  0
 24 31  2  0  0  0  0
 25 28  1  0  0  0  0
 25 30  1  0  0  0  0
 28 24  1  0  0  0  0
 29 31  1  0  0  0  0
 29 26  2  0  0  0  0
 30 29  1  0  0  0  0
M  END
>  <MODEL>
7

>  <REMARK>
 VINA RESULT:      -7.9      1.636      3.989
  Name = 
  3 active torsions:
  status: ('A' for Active; 'I' for Inactive)
    1  A    between atoms: C_5  and  C_16
    2  A    between atoms: C_5  and  N_30
    3  A    between atoms: N_10  and  C_16
                            x       y       z     vdW  Elec       q    Type
                         _______ _______ _______ _____ _____    ______ ____

>  <TORSDO>
F 3

$$$$
=
 OpenBabel11112416513D

 31 35  0  0  1  0  0  0  0  0999 V2000
  185.9390  178.8700  143.1410 C   0  0  0  0  0  0  0  0  0  0  0  0
  188.8030  176.4420  143.3330 N   0  0  0  0  0  0  0  0  0  0  0  0
  188.8700  175.9130  144.6820 C   0  0  0  0  0  0  0  0  0  0  0  0
  188.0770  175.8160  146.9820 C   0  0  0  0  0  0  0  0  0  0  0  0
  187.6500  177.1680  142.8650 C   0  0  0  0  0  0  0  0  0  0  0  0
  185.3950  178.5290  141.9000 C   0  0  0  0  0  3  0  0  0  0  0  0
  188.0450  176.3950  145.7110 C   0  0  0  0  0  3  0  0  0  0  0  0
  188.7250  174.9560  141.4630 N   0  0  0  0  0  0  0  0  0  0  0  0
  185.3220  179.9510  143.9510 C   0  0  0  0  0  1  0  0  0  0  0  0
  190.5610  174.3410  143.9540 O   0  0  0  0  0  0  0  0  0  0  0  0
  187.2600  176.3080  147.9890 O   0  0  0  0  0  1  0  0  0  0  0  0
  187.7750  175.8090  140.7320 C   0  0  0  0  0  2  0  0  0  0  0  0
  189.6020  175.8270  142.2610 C   0  0  2  0  0  3  0  0  0  0  0  0
  187.0660  178.1960  143.6200 C   0  0  0  0  0  3  0  0  0  0  0  0
  188.9270  174.7380  147.2360 C   0  0  0  0  0  3  0  0  0  0  0  0
  187.0990  176.8310  141.6120 C   0  0  0  0  0  0  0  0  0  0  0  0
  185.9790  177.5170  141.1330 C   0  0  0  0  0  3  0  0  0  0  0  0
  190.8580  175.1240  142.8040 C   0  0  0  0  0  2  0  0  0  0  0  0
  189.7320  174.8370  144.9560 C   0  0  0  0  0  0  0  0  0  0  0  0
  189.7510  174.2460  146.2230 C   0  0  0  0  0  3  0  0  0  0  0  0
  189.5040  174.2630  140.4410 C   0  0  0  0  0  2  0  0  0  0  0  0
  188.4550  172.6250  138.8690 C   0  0  0  0  0  1  0  0  0  0  0  0
  188.9880  172.8390  140.2740 C   0  0  1  0  0  3  0  0  0  0  0  0
  191.4150  169.3990  140.8530 C   0  0  0  0  0  0  0  0  0  0  0  0
  190.9880  171.4990  139.5690 C   0  0  0  0  0  2  0  0  0  0  0  0
  189.4180  171.5570  142.8570 O   0  0  0  0  0  0  0  0  0  0  0  0
  192.2390  168.1660  140.9630 C   0  0  0  0  0  1  0  0  0  0  0  0
  191.1320  169.9780  139.4920 C   0  0  0  0  0  2  0  0  0  0  0  0
  190.0670  171.1520  141.8570 C   0  0  0  0  0  0  0  0  0  0  0  0
  190.0200  171.8570  140.6020 N   0  0  0  0  0  0  0  0  0  0  0  0
  190.8730  169.9260  141.9540 C   0  0  0  0  0  3  0  0  0  0  0  0
  1 14  1  0  0  0  0
  1  9  1  0  0  0  0
  2  3  1  0  0  0  0
  3 19  2  0  0  0  0
  3  7  1  0  0  0  0
  4 15  1  0  0  0  0
  4 11  1  0  0  0  0
  5  2  1  0  0  0  0
  5 14  2  0  0  0  0
  6  1  2  0  0  0  0
  7  4  2  0  0  0  0
  8 13  1  0  0  0  0
 10 19  1  0  0  0  0
 12  8  1  0  0  0  0
 12 16  1  0  0  0  0
 13 18  1  1  0  0  0
 13  2  1  0  0  0  0
 16  5  1  0  0  0  0
 17 16  2  0  0  0  0
 17  6  1  0  0  0  0
 18 10  1  0  0  0  0
 19 20  1  0  0  0  0
 20 15  2  0  0  0  0
 21  8  1  0  0  0  0
 23 22  1  6  0  0  0
 23 21  1  0  0  0  0
 23 30  1  0  0  0  0
 24 27  1  0  0  0  0
 24 31  2  0  0  0  0
 25 30  1  0  0  0  0
 28 25  1  0  0  0  0
 28 24  1  0  0  0  0
 29 31  1  0  0  0  0
 29 26  2  0  0  0  0
 30 29  1  0  0  0  0
M  END
>  <MODEL>
8

>  <REMARK>
 VINA RESULT:      -7.9      3.310      5.617
  Name = 
  3 active torsions:
  status: ('A' for Active; 'I' for Inactive)
    1  A    between atoms: C_5  and  C_16
    2  A    between atoms: C_5  and  N_30
    3  A    between atoms: N_10  and  C_16
                            x       y       z     vdW  Elec       q    Type
                         _______ _______ _______ _____ _____    ______ ____

>  <TORSDO>
F 3

$$$$
=
 OpenBabel11112416513D

 31 35  0  0  1  0  0  0  0  0999 V2000
  192.0410  172.0320  142.0360 C   0  0  0  0  0  0  0  0  0  0  0  0
  192.1520  174.2820  145.0460 N   0  0  0  0  0  0  0  0  0  0  0  0
  193.3310  175.1220  144.9510 C   0  0  0  0  0  0  0  0  0  0  0  0
  195.3740  175.8200  143.8240 C   0  0  0  0  0  0  0  0  0  0  0  0
  191.6740  173.5240  143.9170 C   0  0  0  0  0  0  0  0  0  0  0  0
  190.6800  172.0860  141.7230 C   0  0  0  0  0  3  0  0  0  0  0  0
  194.2860  174.9500  143.9360 C   0  0  0  0  0  3  0  0  0  0  0  0
  190.0020  175.2670  145.3930 N   0  0  0  0  0  0  0  0  0  0  0  0
  192.9620  171.2150  141.2050 C   0  0  0  0  0  1  0  0  0  0  0  0
  192.5590  176.3780  146.8700 O   0  0  0  0  0  0  0  0  0  0  0  0
  196.3120  175.6320  142.8190 O   0  0  0  0  0  1  0  0  0  0  0  0
  189.3380  174.3110  144.4930 C   0  0  0  0  0  2  0  0  0  0  0  0
  191.1190  174.5750  146.0530 C   0  0  2  0  0  3  0  0  0  0  0  0
  192.5360  172.7440  143.1320 C   0  0  0  0  0  3  0  0  0  0  0  0
  195.5110  176.8830  144.7190 C   0  0  0  0  0  3  0  0  0  0  0  0
  190.3020  173.5720  143.5990 C   0  0  0  0  0  0  0  0  0  0  0  0
  189.8100  172.8480  142.5090 C   0  0  0  0  0  3  0  0  0  0  0  0
  191.6920  175.3240  147.2690 C   0  0  0  0  0  2  0  0  0  0  0  0
  193.4900  176.1870  145.8550 C   0  0  0  0  0  0  0  0  0  0  0  0
  194.5690  177.0680  145.7320 C   0  0  0  0  0  3  0  0  0  0  0  0
  188.9970  175.6490  146.3810 C   0  0  0  0  0  2  0  0  0  0  0  0
  189.6920  177.8340  145.3830 C   0  0  0  0  0  1  0  0  0  0  0  0
  188.6450  177.1220  146.2190 C   0  0  1  0  0  3  0  0  0  0  0  0
  184.9370  178.4920  144.6580 C   0  0  0  0  0  0  0  0  0  0  0  0
  187.1960  177.5220  144.2110 C   0  0  0  0  0  2  0  0  0  0  0  0
  186.1050  176.9360  147.6390 O   0  0  0  0  0  0  0  0  0  0  0  0
  183.6900  179.0420  144.0630 C   0  0  0  0  0  1  0  0  0  0  0  0
  186.2470  178.6920  143.9440 C   0  0  0  0  0  2  0  0  0  0  0  0
  186.1120  177.3420  146.4470 C   0  0  0  0  0  0  0  0  0  0  0  0
  187.3100  177.2910  145.6480 N   0  0  0  0  0  0  0  0  0  0  0  0
  184.8870  177.9000  145.8550 C   0  0  0  0  0  3  0  0  0  0  0  0
  1 14  1  0  0  0  0
  2 13  1  0  0  0  0
  3  2  1  0  0  0  0
  3 19  1  0  0  0  0
  4  7  1  0  0  0  0
  4 15  2  0  0  0  0
  5  2  1  0  0  0  0
  6  1  2  0  0  0  0
  6 17  1  0  0  0  0
  7  3  2  0  0  0  0
  8 13  1  0  0  0  0
  8 21  1  0  0  0  0
  9  1  1  0  0  0  0
 10 18  1  0  0  0  0
 11  4  1  0  0  0  0
 12  8  1  0  0  0  0
 13 18  1  1  0  0  0
 14  5  2  0  0  0  0
 15 20  1  0  0  0  0
 16  5  1  0  0  0  0
 16 12  1  0  0  0  0
 17 16  2  0  0  0  0
 19 10  1  0  0  0  0
 20 19  2  0  0  0  0
 23 22  1  6  0  0  0
 23 21  1  0  0  0  0
 24 31  2  0  0  0  0
 25 30  1  0  0  0  0
 27 24  1  0  0  0  0
 28 25  1  0  0  0  0
 28 24  1  0  0  0  0
 29 26  2  0  0  0  0
 30 23  1  0  0  0  0
 30 29  1  0  0  0  0
 31 29  1  0  0  0  0
M  END
>  <MODEL>
9

>  <REMARK>
 VINA RESULT:      -7.9      2.760      8.268
  Name = 
  3 active torsions:
  status: ('A' for Active; 'I' for Inactive)
    1  A    between atoms: C_5  and  C_16
    2  A    between atoms: C_5  and  N_30
    3  A    between atoms: N_10  and  C_16
                            x       y       z     vdW  Elec       q    Type
                         _______ _______ _______ _____ _____    ______ ____

>  <TORSDO>
F 3

$$$$
