=
 OpenBabel11112417393D

 28 32  0  0  1  0  0  0  0  0999 V2000
  188.7950  175.8420  145.7700 C   0  0  0  0  0  0  0  0  0  0  0  0
  191.9230  173.3250  144.5080 O   0  0  0  0  0  1  0  0  0  0  0  0
  195.0500  175.6680  145.7660 O   0  0  0  0  0  0  0  0  0  0  0  0
  187.6050  177.8670  144.2430 C   0  0  0  0  0  3  0  0  0  0  0  0
  194.0490  175.9130  143.6560 N   0  0  0  0  0  0  0  0  0  0  0  0
  189.4290  174.7950  146.6340 C   0  0  0  0  0  2  0  0  0  0  0  0
  189.6990  173.1180  144.0800 O   0  0  0  0  0  1  0  0  0  0  0  0
  190.9250  173.5100  143.5460 C   0  0  0  0  0  0  0  0  0  0  0  0
  192.4710  173.0960  141.6620 C   0  0  0  0  0  0  0  0  0  0  0  0
  190.8470  174.9860  143.1210 C   0  0  2  0  0  3  0  0  0  0  0  0
  191.6500  176.9060  148.5780 O   0  0  0  0  0  1  0  0  0  0  0  0
  191.9250  176.7730  144.3550 C   0  0  2  0  0  3  0  0  0  0  0  0
  192.8620  174.4350  141.7360 O   0  0  0  0  0  0  0  0  0  0  0  0
  191.2190  172.6380  142.3310 C   0  0  0  0  0  2  0  0  0  0  0  0
  191.1150  176.3080  147.4390 C   0  0  1  0  0  3  0  0  0  0  0  0
  189.4760  176.3730  144.6550 C   0  0  0  0  0  0  0  0  0  0  0  0
  194.0520  175.9860  145.0650 C   0  0  0  0  0  0  0  0  0  0  0  0
  193.2160  172.2300  140.9970 C   0  0  0  0  0  2  0  0  0  0  0  0
  192.2160  175.5990  146.6650 C   0  0  0  0  0  2  0  0  0  0  0  0
  188.8690  177.3850  143.8980 C   0  0  0  0  0  3  0  0  0  0  0  0
  187.5320  176.3350  146.1140 C   0  0  0  0  0  3  0  0  0  0  0  0
  186.9370  177.3420  145.3530 C   0  0  0  0  0  3  0  0  0  0  0  0
  190.0540  175.3780  147.8240 N   0  0  0  0  0  2  0  0  0  0  0  0
  192.8130  176.4740  143.1310 C   0  0  2  0  0  3  0  0  0  0  0  0
  192.8010  176.5410  145.6190 C   0  0  2  0  0  3  0  0  0  0  0  0
  192.0340  175.4700  142.2780 C   0  0  2  0  0  3  0  0  0  0  0  0
  195.2610  175.7790  142.8640 C   0  0  0  0  0  1  0  0  0  0  0  0
  190.7680  175.8810  144.2670 N   0  0  0  0  0  0  0  0  0  0  0  0
  1 21  1  0  0  0  0
  1  6  1  0  0  0  0
  4 22  1  0  0  0  0
  5 17  1  0  0  0  0
  6 23  1  0  0  0  0
  8  7  1  0  0  0  0
  8  2  1  0  0  0  0
  9 13  1  0  0  0  0
  9 14  1  0  0  0  0
 10  8  1  1  0  0  0
 10 28  1  0  0  0  0
 12 28  1  1  0  0  0
 12 25  1  0  0  0  0
 14  8  1  0  0  0  0
 15 23  1  0  0  0  0
 15 11  1  1  0  0  0
 16  1  2  0  0  0  0
 17 25  1  0  0  0  0
 17  3  2  0  0  0  0
 18  9  2  0  0  0  0
 19 15  1  0  0  0  0
 20  4  2  0  0  0  0
 20 16  1  0  0  0  0
 22 21  2  0  0  0  0
 24  5  1  1  0  0  0
 24 12  1  0  0  0  0
 25 19  1  1  0  0  0
 26 13  1  1  0  0  0
 26 10  1  0  0  0  0
 26 24  1  0  0  0  0
 27  5  1  0  0  0  0
 28 16  1  0  0  0  0
M  END
>  <MODEL>
1

>  <REMARK>
 VINA RESULT:      -7.8      0.000      0.000
  Name = 
  0 active torsions:
  status: ('A' for Active; 'I' for Inactive)
                            x       y       z     vdW  Elec       q    Type
                         _______ _______ _______ _____ _____    ______ ____

>  <TORSDO>
F 0

$$$$
=
 OpenBabel11112417393D

 28 32  0  0  1  0  0  0  0  0999 V2000
  192.8780  174.6520  145.4280 C   0  0  0  0  0  0  0  0  0  0  0  0
  188.6890  174.9600  145.1580 O   0  0  0  0  0  1  0  0  0  0  0  0
  188.3910  174.7600  141.0690 O   0  0  0  0  0  0  0  0  0  0  0  0
  194.6820  176.7950  145.4100 C   0  0  0  0  0  3  0  0  0  0  0  0
  188.7230  176.7790  142.2200 N   0  0  0  0  0  0  0  0  0  0  0  0
  191.9500  173.4740  145.4030 C   0  0  0  0  0  2  0  0  0  0  0  0
  189.9970  175.2180  147.0000 O   0  0  0  0  0  1  0  0  0  0  0  0
  189.2680  175.8940  146.0230 C   0  0  0  0  0  0  0  0  0  0  0  0
  187.4380  177.5250  145.7110 C   0  0  0  0  0  0  0  0  0  0  0  0
  190.2050  176.8400  145.2530 C   0  0  2  0  0  3  0  0  0  0  0  0
  192.3010  172.5280  141.9170 O   0  0  0  0  0  1  0  0  0  0  0  0
  190.9600  176.3970  142.9910 C   0  0  2  0  0  3  0  0  0  0  0  0
  188.0790  177.9700  144.5540 O   0  0  0  0  0  0  0  0  0  0  0  0
  188.1740  176.6990  146.7120 C   0  0  0  0  0  2  0  0  0  0  0  0
  191.9880  173.3440  143.0030 C   0  0  1  0  0  3  0  0  0  0  0  0
  192.4770  175.9020  144.9140 C   0  0  0  0  0  0  0  0  0  0  0  0
  189.1250  175.5010  141.7750 C   0  0  0  0  0  0  0  0  0  0  0  0
  186.1690  177.8350  145.9200 C   0  0  0  0  0  2  0  0  0  0  0  0
  190.5500  173.8240  142.8870 C   0  0  0  0  0  2  0  0  0  0  0  0
  193.3890  176.9680  144.9130 C   0  0  0  0  0  3  0  0  0  0  0  0
  194.1770  174.4840  145.9190 C   0  0  0  0  0  3  0  0  0  0  0  0
  195.0760  175.5520  145.9130 C   0  0  0  0  0  3  0  0  0  0  0  0
  192.2030  172.6090  144.2480 N   0  0  0  0  0  2  0  0  0  0  0  0
  189.8300  177.4430  142.8920 C   0  0  2  0  0  3  0  0  0  0  0  0
  190.5090  175.1630  142.1590 C   0  0  2  0  0  3  0  0  0  0  0  0
  189.4880  177.8340  144.3310 C   0  0  2  0  0  3  0  0  0  0  0  0
  187.5880  177.4950  141.6610 C   0  0  0  0  0  1  0  0  0  0  0  0
  191.1480  176.1120  144.4140 N   0  0  0  0  0  0  0  0  0  0  0  0
  1 21  1  0  0  0  0
  2  8  1  0  0  0  0
  3 17  2  0  0  0  0
  4 22  1  0  0  0  0
  6  1  1  0  0  0  0
  8 14  1  0  0  0  0
  8  7  1  0  0  0  0
  9 18  2  0  0  0  0
  9 14  1  0  0  0  0
 10 28  1  6  0  0  0
 10  8  1  0  0  0  0
 12 28  1  1  0  0  0
 13  9  1  0  0  0  0
 15 11  1  6  0  0  0
 15 23  1  0  0  0  0
 16  1  2  0  0  0  0
 17 25  1  0  0  0  0
 17  5  1  0  0  0  0
 19 15  1  0  0  0  0
 20 16  1  0  0  0  0
 20  4  2  0  0  0  0
 22 21  2  0  0  0  0
 23  6  1  0  0  0  0
 24  5  1  1  0  0  0
 24 12  1  0  0  0  0
 24 26  1  0  0  0  0
 25 19  1  1  0  0  0
 25 12  1  0  0  0  0
 26 13  1  6  0  0  0
 26 10  1  0  0  0  0
 27  5  1  0  0  0  0
 28 16  1  0  0  0  0
M  END
>  <MODEL>
2

>  <REMARK>
 VINA RESULT:      -7.7      2.073      5.723
  Name = 
  0 active torsions:
  status: ('A' for Active; 'I' for Inactive)
                            x       y       z     vdW  Elec       q    Type
                         _______ _______ _______ _____ _____    ______ ____

>  <TORSDO>
F 0

$$$$
=
 OpenBabel11112417393D

 28 32  0  0  1  0  0  0  0  0999 V2000
  188.2440  177.4820  143.9800 C   0  0  0  0  0  0  0  0  0  0  0  0
  192.2120  176.2470  143.3130 O   0  0  0  0  0  1  0  0  0  0  0  0
  191.3750  172.5560  141.7250 O   0  0  0  0  0  0  0  0  0  0  0  0
  186.7670  177.0520  146.3210 C   0  0  0  0  0  3  0  0  0  0  0  0
  191.6040  172.9230  144.0330 N   0  0  0  0  0  0  0  0  0  0  0  0
  188.9850  177.6990  142.6960 C   0  0  0  0  0  2  0  0  0  0  0  0
  191.4880  178.0940  144.4250 O   0  0  0  0  0  1  0  0  0  0  0  0
  192.0010  176.8070  144.5770 C   0  0  0  0  0  0  0  0  0  0  0  0
  193.8590  175.5400  145.6020 C   0  0  0  0  0  0  0  0  0  0  0  0
  191.0090  175.9560  145.3900 C   0  0  2  0  0  3  0  0  0  0  0  0
  187.6020  174.9660  140.7510 O   0  0  0  0  0  1  0  0  0  0  0  0
  189.6280  174.2300  144.3940 C   0  0  2  0  0  3  0  0  0  0  0  0
  192.9870  174.4620  145.7650 O   0  0  0  0  0  0  0  0  0  0  0  0
  193.3270  176.9050  145.3210 C   0  0  0  0  0  2  0  0  0  0  0  0
  188.2890  175.5820  141.7950 C   0  0  1  0  0  3  0  0  0  0  0  0
  188.6360  176.4710  144.8820 C   0  0  0  0  0  0  0  0  0  0  0  0
  190.9500  173.0750  142.7920 C   0  0  0  0  0  0  0  0  0  0  0  0
  195.1640  175.3490  145.6960 C   0  0  0  0  0  2  0  0  0  0  0  0
  189.6890  174.9990  141.9040 C   0  0  0  0  0  2  0  0  0  0  0  0
  187.8900  176.2670  146.0510 C   0  0  0  0  0  3  0  0  0  0  0  0
  187.1150  178.2600  144.2540 C   0  0  0  0  0  3  0  0  0  0  0  0
  186.3790  178.0490  145.4210 C   0  0  0  0  0  3  0  0  0  0  0  0
  188.3310  177.0260  141.5710 N   0  0  0  0  0  2  0  0  0  0  0  0
  190.8040  173.5180  145.0930 C   0  0  2  0  0  3  0  0  0  0  0  0
  189.6900  173.8370  142.8910 C   0  0  2  0  0  3  0  0  0  0  0  0
  191.5640  174.6050  145.8560 C   0  0  2  0  0  3  0  0  0  0  0  0
  192.6240  171.9150  144.2770 C   0  0  0  0  0  1  0  0  0  0  0  0
  189.7970  175.6630  144.6370 N   0  0  0  0  0  0  0  0  0  0  0  0
  1 21  2  0  0  0  0
  1 16  1  0  0  0  0
  2  8  1  0  0  0  0
  3 17  2  0  0  0  0
  5 27  1  0  0  0  0
  6  1  1  0  0  0  0
  7  8  1  0  0  0  0
  8 14  1  0  0  0  0
  9 18  2  0  0  0  0
  9 13  1  0  0  0  0
 10  8  1  6  0  0  0
 10 26  1  0  0  0  0
 12 28  1  6  0  0  0
 12 24  1  0  0  0  0
 14  9  1  0  0  0  0
 15 11  1  6  0  0  0
 15 19  1  0  0  0  0
 16 20  2  0  0  0  0
 17 25  1  0  0  0  0
 17  5  1  0  0  0  0
 20  4  1  0  0  0  0
 21 22  1  0  0  0  0
 22  4  2  0  0  0  0
 23 15  1  0  0  0  0
 23  6  1  0  0  0  0
 24  5  1  6  0  0  0
 24 26  1  0  0  0  0
 25 19  1  6  0  0  0
 25 12  1  0  0  0  0
 26 13  1  6  0  0  0
 28 16  1  0  0  0  0
 28 10  1  0  0  0  0
M  END
>  <MODEL>
3

>  <REMARK>
 VINA RESULT:      -7.7      2.037      4.557
  Name = 
  0 active torsions:
  status: ('A' for Active; 'I' for Inactive)
                            x       y       z     vdW  Elec       q    Type
                         _______ _______ _______ _____ _____    ______ ____

>  <TORSDO>
F 0

$$$$
=
 OpenBabel11112417393D

 28 32  0  0  1  0  0  0  0  0999 V2000
  188.8130  175.5430  146.4450 C   0  0  0  0  0  0  0  0  0  0  0  0
  191.5830  172.9630  144.6060 O   0  0  0  0  0  1  0  0  0  0  0  0
  194.7270  175.5950  144.4030 O   0  0  0  0  0  0  0  0  0  0  0  0
  187.0230  177.2390  145.1170 C   0  0  0  0  0  3  0  0  0  0  0  0
  193.0860  175.4450  142.7300 N   0  0  0  0  0  0  0  0  0  0  0  0
  189.7810  174.6790  147.1960 C   0  0  0  0  0  2  0  0  0  0  0  0
  189.3680  172.6080  144.9720 O   0  0  0  0  0  1  0  0  0  0  0  0
  190.3180  172.9480  144.0110 C   0  0  0  0  0  0  0  0  0  0  0  0
  191.2110  172.2790  141.8050 C   0  0  0  0  0  0  0  0  0  0  0  0
  189.9770  174.3280  143.4240 C   0  0  2  0  0  3  0  0  0  0  0  0
  192.3100  177.1650  147.9640 O   0  0  0  0  0  1  0  0  0  0  0  0
  191.2300  176.3350  143.9560 C   0  0  2  0  0  3  0  0  0  0  0  0
  191.4840  173.6240  141.5480 O   0  0  0  0  0  0  0  0  0  0  0  0
  190.2850  171.8960  142.9100 C   0  0  0  0  0  2  0  0  0  0  0  0
  191.4940  176.3650  147.1670 C   0  0  1  0  0  3  0  0  0  0  0  0
  189.0520  175.9030  145.1030 C   0  0  0  0  0  0  0  0  0  0  0  0
  193.5340  175.7550  144.0320 C   0  0  0  0  0  0  0  0  0  0  0  0
  191.7780  171.3400  141.0670 C   0  0  0  0  0  2  0  0  0  0  0  0
  192.3480  175.5760  146.1870 C   0  0  0  0  0  2  0  0  0  0  0  0
  188.1480  176.7510  144.4480 C   0  0  0  0  0  3  0  0  0  0  0  0
  187.6880  176.0410  147.1100 C   0  0  0  0  0  3  0  0  0  0  0  0
  186.7940  176.8840  146.4490 C   0  0  0  0  0  3  0  0  0  0  0  0
  190.7000  175.4770  148.0130 N   0  0  0  0  0  2  0  0  0  0  0  0
  191.7030  175.8650  142.5650 C   0  0  2  0  0  3  0  0  0  0  0  0
  192.4820  176.3490  144.8790 C   0  0  2  0  0  3  0  0  0  0  0  0
  190.7840  174.7050  142.1750 C   0  0  2  0  0  3  0  0  0  0  0  0
  193.9890  175.2240  141.6110 C   0  0  0  0  0  1  0  0  0  0  0  0
  190.1910  175.4000  144.3870 N   0  0  0  0  0  0  0  0  0  0  0  0
  1 21  1  0  0  0  0
  1  6  1  0  0  0  0
  4 22  1  0  0  0  0
  5 17  1  0  0  0  0
  6 23  1  0  0  0  0
  8  2  1  0  0  0  0
  8  7  1  0  0  0  0
  9 14  1  0  0  0  0
 10  8  1  1  0  0  0
 10 28  1  0  0  0  0
 12 28  1  1  0  0  0
 12 25  1  0  0  0  0
 13  9  1  0  0  0  0
 14  8  1  0  0  0  0
 15 11  1  1  0  0  0
 15 23  1  0  0  0  0
 16  1  2  0  0  0  0
 17  3  2  0  0  0  0
 17 25  1  0  0  0  0
 18  9  2  0  0  0  0
 19 15  1  0  0  0  0
 20 16  1  0  0  0  0
 20  4  2  0  0  0  0
 22 21  2  0  0  0  0
 24  5  1  1  0  0  0
 24 12  1  0  0  0  0
 25 19  1  1  0  0  0
 26 13  1  1  0  0  0
 26 24  1  0  0  0  0
 26 10  1  0  0  0  0
 27  5  1  0  0  0  0
 28 16  1  0  0  0  0
M  END
>  <MODEL>
4

>  <REMARK>
 VINA RESULT:      -7.5      1.063      1.146
  Name = 
  0 active torsions:
  status: ('A' for Active; 'I' for Inactive)
                            x       y       z     vdW  Elec       q    Type
                         _______ _______ _______ _____ _____    ______ ____

>  <TORSDO>
F 0

$$$$
=
 OpenBabel11112417393D

 28 32  0  0  1  0  0  0  0  0999 V2000
  188.9890  176.9090  144.4880 C   0  0  0  0  0  0  0  0  0  0  0  0
  192.8820  176.0110  143.1660 O   0  0  0  0  0  1  0  0  0  0  0  0
  191.9820  172.5710  141.1150 O   0  0  0  0  0  0  0  0  0  0  0  0
  187.8340  176.0410  146.8880 C   0  0  0  0  0  3  0  0  0  0  0  0
  192.4860  172.5870  143.4090 N   0  0  0  0  0  0  0  0  0  0  0  0
  189.5550  177.3630  143.1770 C   0  0  0  0  0  2  0  0  0  0  0  0
  192.2390  177.6200  144.6380 O   0  0  0  0  0  1  0  0  0  0  0  0
  192.8120  176.3550  144.5190 C   0  0  0  0  0  0  0  0  0  0  0  0
  194.8280  175.0470  145.0990 C   0  0  0  0  0  0  0  0  0  0  0  0
  191.9610  175.3360  145.2960 C   0  0  2  0  0  3  0  0  0  0  0  0
  188.0340  174.8930  140.9960 O   0  0  0  0  0  1  0  0  0  0  0  0
  190.5270  173.7120  144.2070 C   0  0  2  0  0  3  0  0  0  0  0  0
  194.0210  173.9110  145.1890 O   0  0  0  0  0  0  0  0  0  0  0  0
  194.2170  176.4080  145.1060 C   0  0  0  0  0  2  0  0  0  0  0  0
  188.8250  175.3770  142.0370 C   0  0  1  0  0  3  0  0  0  0  0  0
  189.5270  175.7930  145.1630 C   0  0  0  0  0  0  0  0  0  0  0  0
  191.6770  172.8940  142.2940 C   0  0  0  0  0  0  0  0  0  0  0  0
  196.1400  174.9160  145.0060 C   0  0  0  0  0  2  0  0  0  0  0  0
  190.2480  174.8610  141.8830 C   0  0  0  0  0  2  0  0  0  0  0  0
  188.9410  175.3700  146.3640 C   0  0  0  0  0  3  0  0  0  0  0  0
  187.8760  177.5720  145.0150 C   0  0  0  0  0  3  0  0  0  0  0  0
  187.3010  177.1420  146.2120 C   0  0  0  0  0  3  0  0  0  0  0  0
  188.7880  176.8380  142.0440 N   0  0  0  0  0  2  0  0  0  0  0  0
  191.8060  172.9650  144.6380 C   0  0  2  0  0  3  0  0  0  0  0  0
  190.4130  173.5620  142.6630 C   0  0  2  0  0  3  0  0  0  0  0  0
  192.6170  173.9600  145.4700 C   0  0  2  0  0  3  0  0  0  0  0  0
  193.5630  171.6100  143.3640 C   0  0  0  0  0  1  0  0  0  0  0  0
  190.6750  175.0970  144.6550 N   0  0  0  0  0  0  0  0  0  0  0  0
  1 21  2  0  0  0  0
  1 16  1  0  0  0  0
  2  8  1  0  0  0  0
  3 17  2  0  0  0  0
  6  1  1  0  0  0  0
  8  7  1  0  0  0  0
  8 14  1  0  0  0  0
  9 14  1  0  0  0  0
  9 13  1  0  0  0  0
 10  8  1  6  0  0  0
 10 26  1  0  0  0  0
 12 24  1  0  0  0  0
 12 28  1  6  0  0  0
 15 11  1  6  0  0  0
 15 23  1  0  0  0  0
 16 20  2  0  0  0  0
 17 25  1  0  0  0  0
 17  5  1  0  0  0  0
 18  9  2  0  0  0  0
 19 15  1  0  0  0  0
 20  4  1  0  0  0  0
 21 22  1  0  0  0  0
 22  4  2  0  0  0  0
 23  6  1  0  0  0  0
 24  5  1  6  0  0  0
 24 26  1  0  0  0  0
 25 19  1  6  0  0  0
 25 12  1  0  0  0  0
 26 13  1  6  0  0  0
 27  5  1  0  0  0  0
 28 16  1  0  0  0  0
 28 10  1  0  0  0  0
M  END
>  <MODEL>
5

>  <REMARK>
 VINA RESULT:      -7.4      1.931      4.372
  Name = 
  0 active torsions:
  status: ('A' for Active; 'I' for Inactive)
                            x       y       z     vdW  Elec       q    Type
                         _______ _______ _______ _____ _____    ______ ____

>  <TORSDO>
F 0

$$$$
=
 OpenBabel11112417393D

 28 32  0  0  1  0  0  0  0  0999 V2000
  190.8410  174.6280  142.7410 C   0  0  0  0  0  0  0  0  0  0  0  0
  189.1510  178.3420  143.7710 O   0  0  0  0  0  1  0  0  0  0  0  0
  189.9600  178.2130  147.7930 O   0  0  0  0  0  0  0  0  0  0  0  0
  189.4980  172.1700  142.7100 C   0  0  0  0  0  3  0  0  0  0  0  0
  188.0120  177.2930  146.8600 N   0  0  0  0  0  0  0  0  0  0  0  0
  191.6070  175.9150  142.7810 C   0  0  0  0  0  2  0  0  0  0  0  0
  189.0380  177.2570  141.7760 O   0  0  0  0  0  1  0  0  0  0  0  0
  188.3380  177.5640  142.9410 C   0  0  0  0  0  0  0  0  0  0  0  0
  186.2560  178.6100  143.7660 C   0  0  0  0  0  0  0  0  0  0  0  0
  187.9300  176.2600  143.6480 C   0  0  2  0  0  3  0  0  0  0  0  0
  193.2220  175.5350  146.0090 O   0  0  0  0  0  1  0  0  0  0  0  0
  189.0020  175.4640  145.6710 C   0  0  2  0  0  3  0  0  0  0  0  0
  186.2750  177.7180  144.8400 O   0  0  0  0  0  0  0  0  0  0  0  0
  187.0930  178.3550  142.5580 C   0  0  0  0  0  2  0  0  0  0  0  0
  192.1680  175.6480  145.1030 C   0  0  1  0  0  3  0  0  0  0  0  0
  189.6420  174.4740  143.4680 C   0  0  0  0  0  0  0  0  0  0  0  0
  189.4070  177.3440  147.0670 C   0  0  0  0  0  0  0  0  0  0  0  0
  185.4920  179.6880  143.8200 C   0  0  0  0  0  2  0  0  0  0  0  0
  191.2480  176.7820  145.5260 C   0  0  0  0  0  2  0  0  0  0  0  0
  188.9780  173.2390  143.4420 C   0  0  0  0  0  3  0  0  0  0  0  0
  191.3590  173.5500  142.0150 C   0  0  0  0  0  3  0  0  0  0  0  0
  190.6890  172.3260  141.9970 C   0  0  0  0  0  3  0  0  0  0  0  0
  192.6980  175.8680  143.7580 N   0  0  0  0  0  2  0  0  0  0  0  0
  187.6650  176.1060  146.0940 C   0  0  2  0  0  3  0  0  0  0  0  0
  190.1300  176.2390  146.4100 C   0  0  2  0  0  3  0  0  0  0  0  0
  186.9290  176.4450  144.7960 C   0  0  2  0  0  3  0  0  0  0  0  0
  187.0570  178.0090  147.6920 C   0  0  0  0  0  1  0  0  0  0  0  0
  189.0770  175.5630  144.2130 N   0  0  0  0  0  0  0  0  0  0  0  0
  1  6  1  0  0  0  0
  1 16  1  0  0  0  0
  4 20  1  0  0  0  0
  5 17  1  0  0  0  0
  5 27  1  0  0  0  0
  6 23  1  0  0  0  0
  7  8  1  0  0  0  0
  8  2  1  0  0  0  0
  9 18  2  0  0  0  0
  9 13  1  0  0  0  0
 10  8  1  1  0  0  0
 10 28  1  0  0  0  0
 10 26  1  0  0  0  0
 12 28  1  6  0  0  0
 12 24  1  0  0  0  0
 12 25  1  0  0  0  0
 14  8  1  0  0  0  0
 14  9  1  0  0  0  0
 15 19  1  0  0  0  0
 15 11  1  1  0  0  0
 16 28  1  0  0  0  0
 17  3  2  0  0  0  0
 20 16  2  0  0  0  0
 21  1  2  0  0  0  0
 22 21  1  0  0  0  0
 22  4  2  0  0  0  0
 23 15  1  0  0  0  0
 24  5  1  6  0  0  0
 25 19  1  6  0  0  0
 25 17  1  0  0  0  0
 26 13  1  1  0  0  0
 26 24  1  0  0  0  0
M  END
>  <MODEL>
6

>  <REMARK>
 VINA RESULT:      -7.4      2.322      5.768
  Name = 
  0 active torsions:
  status: ('A' for Active; 'I' for Inactive)
                            x       y       z     vdW  Elec       q    Type
                         _______ _______ _______ _____ _____    ______ ____

>  <TORSDO>
F 0

$$$$
=
 OpenBabel11112417393D

 28 32  0  0  1  0  0  0  0  0999 V2000
  187.0050  178.2170  144.2660 C   0  0  0  0  0  0  0  0  0  0  0  0
  190.7190  177.0910  142.6400 O   0  0  0  0  0  1  0  0  0  0  0  0
  189.3240  174.2890  139.9830 O   0  0  0  0  0  0  0  0  0  0  0  0
  185.7670  177.0450  146.4890 C   0  0  0  0  0  3  0  0  0  0  0  0
  189.8520  173.7730  142.2120 N   0  0  0  0  0  0  0  0  0  0  0  0
  187.6130  178.8470  143.0500 C   0  0  0  0  0  2  0  0  0  0  0  0
  190.3240  178.4400  144.4260 O   0  0  0  0  0  1  0  0  0  0  0  0
  190.7130  177.1600  144.0360 C   0  0  0  0  0  0  0  0  0  0  0  0
  192.5330  175.5030  144.2650 C   0  0  0  0  0  0  0  0  0  0  0  0
  189.7370  176.1280  144.6280 C   0  0  2  0  0  3  0  0  0  0  0  0
  185.7380  177.0970  140.4830 O   0  0  0  0  0  1  0  0  0  0  0  0
  188.0780  174.9660  143.2950 C   0  0  2  0  0  3  0  0  0  0  0  0
  191.5770  174.4910  144.1590 O   0  0  0  0  0  0  0  0  0  0  0  0
  192.1180  176.9040  144.5660 C   0  0  0  0  0  2  0  0  0  0  0  0
  186.6000  177.2490  141.5680 C   0  0  1  0  0  3  0  0  0  0  0  0
  187.3890  176.9260  144.6840 C   0  0  0  0  0  0  0  0  0  0  0  0
  189.0800  174.4060  141.2140 C   0  0  0  0  0  0  0  0  0  0  0  0
  193.8130  175.2180  144.0960 C   0  0  0  0  0  2  0  0  0  0  0  0
  187.9350  176.5890  141.2580 C   0  0  0  0  0  2  0  0  0  0  0  0
  186.7630  176.3510  145.7990 C   0  0  0  0  0  3  0  0  0  0  0  0
  186.0010  178.9030  144.9580 C   0  0  0  0  0  3  0  0  0  0  0  0
  185.3860  178.3220  146.0680 C   0  0  0  0  0  3  0  0  0  0  0  0
  186.7680  178.6710  141.8660 N   0  0  0  0  0  2  0  0  0  0  0  0
  189.2450  173.9830  143.5180 C   0  0  2  0  0  3  0  0  0  0  0  0
  187.9270  175.1480  141.7570 C   0  0  2  0  0  3  0  0  0  0  0  0
  190.1970  174.6710  144.4990 C   0  0  2  0  0  3  0  0  0  0  0  0
  190.7810  172.6900  141.9320 C   0  0  0  0  0  1  0  0  0  0  0  0
  188.4230  176.1990  144.0030 N   0  0  0  0  0  0  0  0  0  0  0  0
  1 16  2  0  0  0  0
  1 21  1  0  0  0  0
  2  8  1  0  0  0  0
  3 17  2  0  0  0  0
  6  1  1  0  0  0  0
  8  7  1  0  0  0  0
  8 14  1  0  0  0  0
  8 10  1  0  0  0  0
  9 14  1  0  0  0  0
 10 28  1  6  0  0  0
 12 24  1  0  0  0  0
 12 28  1  1  0  0  0
 13  9  1  0  0  0  0
 15 11  1  6  0  0  0
 15 23  1  0  0  0  0
 16 20  1  0  0  0  0
 17 25  1  0  0  0  0
 17  5  1  0  0  0  0
 18  9  2  0  0  0  0
 19 15  1  0  0  0  0
 20  4  2  0  0  0  0
 21 22  2  0  0  0  0
 22  4  1  0  0  0  0
 23  6  1  0  0  0  0
 24  5  1  6  0  0  0
 24 26  1  0  0  0  0
 25 19  1  1  0  0  0
 25 12  1  0  0  0  0
 26 13  1  6  0  0  0
 26 10  1  0  0  0  0
 27  5  1  0  0  0  0
 28 16  1  0  0  0  0
M  END
>  <MODEL>
7

>  <REMARK>
 VINA RESULT:      -7.3      2.715      5.107
  Name = 
  0 active torsions:
  status: ('A' for Active; 'I' for Inactive)
                            x       y       z     vdW  Elec       q    Type
                         _______ _______ _______ _____ _____    ______ ____

>  <TORSDO>
F 0

$$$$
=
 OpenBabel11112417393D

 28 32  0  0  1  0  0  0  0  0999 V2000
  187.2910  176.7650  143.4930 C   0  0  0  0  0  0  0  0  0  0  0  0
  189.8610  173.9770  145.3180 O   0  0  0  0  0  1  0  0  0  0  0  0
  191.2480  176.4010  148.3260 O   0  0  0  0  0  0  0  0  0  0  0  0
  187.9920  178.5400  141.4420 C   0  0  0  0  0  3  0  0  0  0  0  0
  192.2440  176.3170  146.2010 N   0  0  0  0  0  0  0  0  0  0  0  0
  186.8840  175.8600  144.6150 C   0  0  0  0  0  2  0  0  0  0  0  0
  188.7390  173.7690  143.3510 O   0  0  0  0  0  1  0  0  0  0  0  0
  189.9820  174.0280  143.9260 C   0  0  0  0  0  0  0  0  0  0  0  0
  192.3300  173.2550  143.9630 C   0  0  0  0  0  0  0  0  0  0  0  0
  190.4740  175.4130  143.4730 C   0  0  2  0  0  3  0  0  0  0  0  0
  187.1410  178.1990  147.3770 O   0  0  0  0  0  1  0  0  0  0  0  0
  190.4920  177.3490  144.9340 C   0  0  2  0  0  3  0  0  0  0  0  0
  192.7230  174.5740  144.1980 O   0  0  0  0  0  0  0  0  0  0  0  0
  190.9580  172.9550  143.4590 C   0  0  0  0  0  2  0  0  0  0  0  0
  187.5740  177.4340  146.2960 C   0  0  1  0  0  3  0  0  0  0  0  0
  188.6480  177.0800  143.2690 C   0  0  0  0  0  0  0  0  0  0  0  0
  191.1910  176.6270  147.0870 C   0  0  0  0  0  0  0  0  0  0  0  0
  193.1780  172.2660  144.1900 C   0  0  0  0  0  2  0  0  0  0  0  0
  188.7540  176.5710  146.7150 C   0  0  0  0  0  2  0  0  0  0  0  0
  188.9860  177.9680  142.2380 C   0  0  0  0  0  3  0  0  0  0  0  0
  186.3010  177.3480  142.6950 C   0  0  0  0  0  3  0  0  0  0  0  0
  186.6490  178.2300  141.6710 C   0  0  0  0  0  3  0  0  0  0  0  0
  186.4690  176.6160  145.7990 N   0  0  0  0  0  2  0  0  0  0  0  0
  191.9400  176.8200  144.8700 C   0  0  2  0  0  3  0  0  0  0  0  0
  190.0590  177.3050  146.4270 C   0  0  2  0  0  3  0  0  0  0  0  0
  191.9390  175.7110  143.8160 C   0  0  2  0  0  3  0  0  0  0  0  0
  193.5950  176.0150  146.6470 C   0  0  0  0  0  1  0  0  0  0  0  0
  189.6900  176.4900  144.0620 N   0  0  0  0  0  0  0  0  0  0  0  0
  1  6  1  0  0  0  0
  4 22  2  0  0  0  0
  4 20  1  0  0  0  0
  5 27  1  0  0  0  0
  5 17  1  0  0  0  0
  6 23  1  0  0  0  0
  7  8  1  0  0  0  0
  8  2  1  0  0  0  0
  9 18  2  0  0  0  0
  9 13  1  0  0  0  0
 10 26  1  0  0  0  0
 10  8  1  1  0  0  0
 10 28  1  0  0  0  0
 12 28  1  6  0  0  0
 12 25  1  0  0  0  0
 14  8  1  0  0  0  0
 14  9  1  0  0  0  0
 15 19  1  0  0  0  0
 15 11  1  1  0  0  0
 16  1  1  0  0  0  0
 16 28  1  0  0  0  0
 17  3  2  0  0  0  0
 20 16  2  0  0  0  0
 21  1  2  0  0  0  0
 22 21  1  0  0  0  0
 23 15  1  0  0  0  0
 24 12  1  0  0  0  0
 24  5  1  1  0  0  0
 25 19  1  6  0  0  0
 25 17  1  0  0  0  0
 26 13  1  1  0  0  0
 26 24  1  0  0  0  0
M  END
>  <MODEL>
8

>  <REMARK>
 VINA RESULT:      -7.2      1.964      2.964
  Name = 
  0 active torsions:
  status: ('A' for Active; 'I' for Inactive)
                            x       y       z     vdW  Elec       q    Type
                         _______ _______ _______ _____ _____    ______ ____

>  <TORSDO>
F 0

$$$$
=
 OpenBabel11112417393D

 28 32  0  0  1  0  0  0  0  0999 V2000
  194.3870  174.5930  144.8150 C   0  0  0  0  0  0  0  0  0  0  0  0
  190.3090  174.7700  145.8410 O   0  0  0  0  0  1  0  0  0  0  0  0
  188.9400  172.0280  143.1100 O   0  0  0  0  0  0  0  0  0  0  0  0
  195.6650  176.1880  142.9000 C   0  0  0  0  0  3  0  0  0  0  0  0
  189.1790  174.3100  142.6080 N   0  0  0  0  0  0  0  0  0  0  0  0
  193.7350  173.6920  145.8200 C   0  0  0  0  0  2  0  0  0  0  0  0
  191.9970  176.1040  146.5760 O   0  0  0  0  0  1  0  0  0  0  0  0
  190.9110  176.0240  145.7060 C   0  0  0  0  0  0  0  0  0  0  0  0
  188.7850  177.1350  145.1100 C   0  0  0  0  0  0  0  0  0  0  0  0
  191.3980  176.2420  144.2630 C   0  0  2  0  0  3  0  0  0  0  0  0
  193.2890  170.7390  143.7580 O   0  0  0  0  0  1  0  0  0  0  0  0
  191.5710  174.4450  142.6440 C   0  0  2  0  0  3  0  0  0  0  0  0
  188.9840  176.7280  143.7890 O   0  0  0  0  0  0  0  0  0  0  0  0
  189.9140  177.1130  146.0840 C   0  0  0  0  0  2  0  0  0  0  0  0
  193.1350  172.0670  144.1530 C   0  0  1  0  0  3  0  0  0  0  0  0
  193.6250  175.2430  143.8220 C   0  0  0  0  0  0  0  0  0  0  0  0
  189.6820  173.0300  142.9250 C   0  0  0  0  0  0  0  0  0  0  0  0
  187.5880  177.5410  145.4990 C   0  0  0  0  0  2  0  0  0  0  0  0
  191.6560  172.4020  144.2630 C   0  0  0  0  0  2  0  0  0  0  0  0
  194.2760  176.0410  142.8700 C   0  0  0  0  0  3  0  0  0  0  0  0
  195.7780  174.7400  144.8340 C   0  0  0  0  0  3  0  0  0  0  0  0
  196.4150  175.5370  143.8820 C   0  0  0  0  0  3  0  0  0  0  0  0
  193.8230  172.2840  145.4250 N   0  0  0  0  0  2  0  0  0  0  0  0
  190.2770  175.2190  142.3200 C   0  0  2  0  0  3  0  0  0  0  0  0
  191.1560  172.9750  142.9410 C   0  0  2  0  0  3  0  0  0  0  0  0
  190.2750  176.4440  143.2370 C   0  0  2  0  0  3  0  0  0  0  0  0
  187.8160  174.5380  142.1530 C   0  0  0  0  0  1  0  0  0  0  0  0
  192.1950  175.1220  143.7810 N   0  0  0  0  0  0  0  0  0  0  0  0
  1 21  1  0  0  0  0
  1  6  1  0  0  0  0
  4 22  1  0  0  0  0
  5 17  1  0  0  0  0
  8  2  1  0  0  0  0
  8 14  1  0  0  0  0
  8  7  1  0  0  0  0
  9 18  2  0  0  0  0
  9 14  1  0  0  0  0
 10 28  1  6  0  0  0
 10  8  1  0  0  0  0
 12 25  1  0  0  0  0
 12 28  1  1  0  0  0
 13  9  1  0  0  0  0
 15 11  1  1  0  0  0
 15 19  1  0  0  0  0
 15 23  1  0  0  0  0
 16  1  2  0  0  0  0
 17 25  1  0  0  0  0
 17  3  2  0  0  0  0
 20  4  2  0  0  0  0
 20 16  1  0  0  0  0
 22 21  2  0  0  0  0
 23  6  1  0  0  0  0
 24  5  1  1  0  0  0
 24 12  1  0  0  0  0
 24 26  1  0  0  0  0
 25 19  1  1  0  0  0
 26 13  1  1  0  0  0
 26 10  1  0  0  0  0
 27  5  1  0  0  0  0
 28 16  1  0  0  0  0
M  END
>  <MODEL>
9

>  <REMARK>
 VINA RESULT:      -7.1      2.045      5.766
  Name = 
  0 active torsions:
  status: ('A' for Active; 'I' for Inactive)
                            x       y       z     vdW  Elec       q    Type
                         _______ _______ _______ _____ _____    ______ ____

>  <TORSDO>
F 0

$$$$
