=
 OpenBabel11112416513D

 31 35  0  0  1  0  0  0  0  0999 V2000
  185.7630  177.9310  147.0610 C   0  0  0  0  0  0  0  0  0  0  0  0
  188.2040  175.4250  145.5700 C   0  0  2  0  0  3  0  0  0  0  0  0
  188.1960  175.6590  144.0660 C   0  0  0  0  0  0  0  0  0  0  0  0
  187.1510  176.5640  142.0640 C   0  0  0  0  0  0  0  0  0  0  0  0
  187.6680  176.6000  146.3570 C   0  0  0  0  0  0  0  0  0  0  0  0
  186.6190  178.8210  147.7130 C   0  0  0  0  0  3  0  0  0  0  0  0
  187.1710  176.3940  143.4510 C   0  0  0  0  0  3  0  0  0  0  0  0
  190.5340  176.2130  146.1430 C   0  0  2  0  0  3  0  0  0  0  0  0
  184.2960  178.1640  147.0800 C   0  0  0  0  0  1  0  0  0  0  0  0
  190.1990  174.2880  143.8340 O   0  0  0  0  0  0  0  0  0  0  0  0
  186.1390  177.3050  141.4700 O   0  0  0  0  0  1  0  0  0  0  0  0
  190.0030  177.2300  147.1560 C   0  0  0  0  0  2  0  0  0  0  0  0
  189.5950  175.0010  146.0830 C   0  0  2  0  0  3  0  0  0  0  0  0
  186.2850  176.8250  146.3880 C   0  0  0  0  0  3  0  0  0  0  0  0
  188.1470  175.9840  141.2750 C   0  0  0  0  0  3  0  0  0  0  0  0
  188.5320  177.4980  147.0210 C   0  0  0  0  0  0  0  0  0  0  0  0
  187.9980  178.5980  147.7010 C   0  0  0  0  0  3  0  0  0  0  0  0
  190.1520  173.8820  145.2000 C   0  0  0  0  0  2  0  0  0  0  0  0
  189.1810  175.0530  143.2580 C   0  0  0  0  0  0  0  0  0  0  0  0
  189.1580  175.2290  141.8720 C   0  0  0  0  0  3  0  0  0  0  0  0
  191.8750  175.7940  146.5360 N   0  0  0  0  0  2  0  0  0  0  0  0
  194.1160  176.7480  146.5390 C   0  0  0  0  0  1  0  0  0  0  0  0
  192.8430  176.5380  145.7400 C   0  0  1  0  0  3  0  0  0  0  0  0
  194.6590  175.0860  142.3610 C   0  0  0  0  0  0  0  0  0  0  0  0
  193.7660  174.6290  144.5350 O   0  0  0  0  0  0  0  0  0  0  0  0
  191.9750  177.2970  143.0370 O   0  0  0  0  0  0  0  0  0  0  0  0
  195.4850  174.5030  141.2720 C   0  0  0  0  0  1  0  0  0  0  0  0
  194.9700  174.7730  143.8080 C   0  0  0  0  0  2  0  0  0  0  0  0
  192.8430  176.3980  143.1950 C   0  0  0  0  0  0  0  0  0  0  0  0
  193.1350  175.8400  144.4890 N   0  0  0  0  0  0  0  0  0  0  0  0
  193.6420  175.9030  142.0720 C   0  0  0  0  0  3  0  0  0  0  0  0
  1  9  1  0  0  0  0
  1  6  1  0  0  0  0
  2  3  1  6  0  0  0
  2 13  1  0  0  0  0
  2  5  1  0  0  0  0
  4  7  2  0  0  0  0
  5 14  1  0  0  0  0
  5 16  2  0  0  0  0
  7  3  1  0  0  0  0
  8 21  1  1  0  0  0
  8 12  1  0  0  0  0
 10 18  1  0  0  0  0
 11  4  1  0  0  0  0
 13 18  1  6  0  0  0
 13  8  1  0  0  0  0
 14  1  2  0  0  0  0
 15 20  2  0  0  0  0
 15  4  1  0  0  0  0
 16 12  1  0  0  0  0
 16 17  1  0  0  0  0
 17  6  2  0  0  0  0
 19 10  1  0  0  0  0
 19  3  2  0  0  0  0
 20 19  1  0  0  0  0
 23 21  1  0  0  0  0
 23 22  1  1  0  0  0
 24 28  1  0  0  0  0
 26 29  2  0  0  0  0
 27 24  1  0  0  0  0
 28 25  1  0  0  0  0
 29 30  1  0  0  0  0
 30 25  1  0  0  0  0
 30 23  1  0  0  0  0
 31 24  2  0  0  0  0
 31 29  1  0  0  0  0
M  END
>  <MODEL>
1

>  <REMARK>
 VINA RESULT:      -7.8      0.000      0.000
  Name = 
  3 active torsions:
  status: ('A' for Active; 'I' for Inactive)
    1  A    between atoms: C_5  and  N_16
    2  A    between atoms: C_5  and  N_30
    3  A    between atoms: C_10  and  N_16
                            x       y       z     vdW  Elec       q    Type
                         _______ _______ _______ _____ _____    ______ ____

>  <TORSDO>
F 3

$$$$
=
 OpenBabel11112416513D

 31 35  0  0  1  0  0  0  0  0999 V2000
  194.4860  175.6830  145.1440 C   0  0  0  0  0  0  0  0  0  0  0  0
  191.3700  176.6460  143.1890 C   0  0  2  0  0  3  0  0  0  0  0  0
  190.8750  175.3760  142.5140 C   0  0  0  0  0  0  0  0  0  0  0  0
  191.2520  173.1030  141.7310 C   0  0  0  0  0  0  0  0  0  0  0  0
  192.2980  176.3790  144.3520 C   0  0  0  0  0  0  0  0  0  0  0  0
  194.0400  175.7680  146.4650 C   0  0  0  0  0  3  0  0  0  0  0  0
  191.7030  174.2490  142.3920 C   0  0  0  0  0  3  0  0  0  0  0  0
  189.5180  177.0240  144.8650 C   0  0  2  0  0  3  0  0  0  0  0  0
  195.8820  175.2630  144.8570 C   0  0  0  0  0  1  0  0  0  0  0  0
  188.7590  176.4670  141.9910 O   0  0  0  0  0  0  0  0  0  0  0  0
  192.0760  171.9910  141.6300 O   0  0  0  0  0  1  0  0  0  0  0  0
  190.5010  177.0280  146.0370 C   0  0  0  0  0  2  0  0  0  0  0  0
  190.2080  177.5710  143.6080 C   0  0  2  0  0  3  0  0  0  0  0  0
  193.6190  175.9900  144.0930 C   0  0  0  0  0  3  0  0  0  0  0  0
  189.9750  173.0790  141.1680 C   0  0  0  0  0  3  0  0  0  0  0  0
  191.8510  176.4690  145.6890 C   0  0  0  0  0  0  0  0  0  0  0  0
  192.7310  176.1700  146.7350 C   0  0  0  0  0  3  0  0  0  0  0  0
  189.2320  177.7350  142.4390 C   0  0  0  0  0  2  0  0  0  0  0  0
  189.5970  175.3520  141.9160 C   0  0  0  0  0  0  0  0  0  0  0  0
  189.1510  174.2030  141.2590 C   0  0  0  0  0  3  0  0  0  0  0  0
  188.3610  177.8460  145.2030 N   0  0  0  0  0  2  0  0  0  0  0  0
  186.9700  177.1140  147.0650 C   0  0  0  0  0  1  0  0  0  0  0  0
  187.2640  176.9640  145.5830 C   0  0  1  0  0  3  0  0  0  0  0  0
  184.6750  178.0730  142.6010 C   0  0  0  0  0  0  0  0  0  0  0  0
  185.6030  176.3060  143.9230 O   0  0  0  0  0  0  0  0  0  0  0  0
  185.4930  179.2960  145.8240 O   0  0  0  0  0  0  0  0  0  0  0  0
  183.8620  178.3440  141.3880 C   0  0  0  0  0  1  0  0  0  0  0  0
  185.6230  176.8940  142.6380 C   0  0  0  0  0  2  0  0  0  0  0  0
  185.3830  178.5160  144.8420 C   0  0  0  0  0  0  0  0  0  0  0  0
  186.0670  177.2510  144.7930 N   0  0  0  0  0  0  0  0  0  0  0  0
  184.5880  178.8760  143.6660 C   0  0  0  0  0  3  0  0  0  0  0  0
  1  6  1  0  0  0  0
  2  3  1  1  0  0  0
  2 13  1  0  0  0  0
  2  5  1  0  0  0  0
  4  7  2  0  0  0  0
  5 16  2  0  0  0  0
  6 17  2  0  0  0  0
  7  3  1  0  0  0  0
  8 21  1  1  0  0  0
  8 12  1  0  0  0  0
  9  1  1  0  0  0  0
 10 18  1  0  0  0  0
 11  4  1  0  0  0  0
 13 18  1  6  0  0  0
 13  8  1  0  0  0  0
 14  5  1  0  0  0  0
 14  1  2  0  0  0  0
 15 20  2  0  0  0  0
 15  4  1  0  0  0  0
 16 12  1  0  0  0  0
 16 17  1  0  0  0  0
 19 10  1  0  0  0  0
 19  3  2  0  0  0  0
 20 19  1  0  0  0  0
 21 23  1  0  0  0  0
 23 22  1  1  0  0  0
 24 28  1  0  0  0  0
 24 31  2  0  0  0  0
 25 30  1  0  0  0  0
 27 24  1  0  0  0  0
 28 25  1  0  0  0  0
 29 26  2  0  0  0  0
 30 29  1  0  0  0  0
 30 23  1  0  0  0  0
 31 29  1  0  0  0  0
M  END
>  <MODEL>
2

>  <REMARK>
 VINA RESULT:      -7.7      2.614      6.777
  Name = 
  3 active torsions:
  status: ('A' for Active; 'I' for Inactive)
    1  A    between atoms: C_5  and  N_16
    2  A    between atoms: C_5  and  N_30
    3  A    between atoms: C_10  and  N_16
                            x       y       z     vdW  Elec       q    Type
                         _______ _______ _______ _____ _____    ______ ____

>  <TORSDO>
F 3

$$$$
=
 OpenBabel11112416513D

 31 35  0  0  1  0  0  0  0  0999 V2000
  185.7900  177.5360  146.2570 C   0  0  0  0  0  0  0  0  0  0  0  0
  187.3150  175.5540  143.3920 C   0  0  2  0  0  3  0  0  0  0  0  0
  186.9440  176.2900  142.1130 C   0  0  0  0  0  0  0  0  0  0  0  0
  185.5600  177.8890  140.9090 C   0  0  0  0  0  0  0  0  0  0  0  0
  187.2020  176.4160  144.6280 C   0  0  0  0  0  0  0  0  0  0  0  0
  186.9200  178.0940  146.8590 C   0  0  0  0  0  3  0  0  0  0  0  0
  185.9220  177.2520  142.0990 C   0  0  0  0  0  3  0  0  0  0  0  0
  189.8080  175.9550  143.4430 C   0  0  2  0  0  3  0  0  0  0  0  0
  184.4380  177.8350  146.7930 C   0  0  0  0  0  1  0  0  0  0  0  0
  188.5680  174.9650  140.8680 O   0  0  0  0  0  0  0  0  0  0  0  0
  184.5570  178.8480  140.9140 O   0  0  0  0  0  1  0  0  0  0  0  0
  189.7360  176.5910  144.8330 C   0  0  0  0  0  2  0  0  0  0  0  0
  188.7080  174.8960  143.2990 C   0  0  2  0  0  3  0  0  0  0  0  0
  185.9320  176.6990  145.1480 C   0  0  0  0  0  3  0  0  0  0  0  0
  186.2040  177.5570  139.7160 C   0  0  0  0  0  3  0  0  0  0  0  0
  188.3430  176.9770  145.2430 C   0  0  0  0  0  0  0  0  0  0  0  0
  188.1910  177.8060  146.3590 C   0  0  0  0  0  3  0  0  0  0  0  0
  188.8240  174.1170  141.9850 C   0  0  0  0  0  2  0  0  0  0  0  0
  187.5680  175.9400  140.8970 C   0  0  0  0  0  0  0  0  0  0  0  0
  187.2050  176.5840  139.7110 C   0  0  0  0  0  3  0  0  0  0  0  0
  191.1210  175.3470  143.2580 N   0  0  0  0  0  2  0  0  0  0  0  0
  192.1700  174.1880  145.1280 C   0  0  0  0  0  1  0  0  0  0  0  0
  191.8920  175.5330  144.4820 C   0  0  1  0  0  3  0  0  0  0  0  0
  195.7980  176.4500  143.6270 C   0  0  0  0  0  0  0  0  0  0  0  0
  193.5140  176.4510  142.9090 O   0  0  0  0  0  0  0  0  0  0  0  0
  193.6650  176.8380  146.4290 O   0  0  0  0  0  0  0  0  0  0  0  0
  197.1910  176.6380  143.1480 C   0  0  0  0  0  1  0  0  0  0  0  0
  194.7610  175.8090  142.7310 C   0  0  0  0  0  2  0  0  0  0  0  0
  194.0480  176.6620  145.2420 C   0  0  0  0  0  0  0  0  0  0  0  0
  193.1450  176.2360  144.2060 N   0  0  0  0  0  0  0  0  0  0  0  0
  195.4500  176.8330  144.8600 C   0  0  0  0  0  3  0  0  0  0  0  0
  1  9  1  0  0  0  0
  1  6  1  0  0  0  0
  2  3  1  6  0  0  0
  2  5  1  0  0  0  0
  4 11  1  0  0  0  0
  4  7  2  0  0  0  0
  5 14  1  0  0  0  0
  5 16  2  0  0  0  0
  7  3  1  0  0  0  0
  8 21  1  1  0  0  0
  8 12  1  0  0  0  0
 10 19  1  0  0  0  0
 10 18  1  0  0  0  0
 12 16  1  0  0  0  0
 13 18  1  6  0  0  0
 13  2  1  0  0  0  0
 13  8  1  0  0  0  0
 14  1  2  0  0  0  0
 15  4  1  0  0  0  0
 16 17  1  0  0  0  0
 17  6  2  0  0  0  0
 19  3  2  0  0  0  0
 20 15  2  0  0  0  0
 20 19  1  0  0  0  0
 21 23  1  0  0  0  0
 23 22  1  6  0  0  0
 24 31  2  0  0  0  0
 25 30  1  0  0  0  0
 27 24  1  0  0  0  0
 28 25  1  0  0  0  0
 28 24  1  0  0  0  0
 29 26  2  0  0  0  0
 30 23  1  0  0  0  0
 30 29  1  0  0  0  0
 31 29  1  0  0  0  0
M  END
>  <MODEL>
3

>  <REMARK>
 VINA RESULT:      -7.6      1.747      2.525
  Name = 
  3 active torsions:
  status: ('A' for Active; 'I' for Inactive)
    1  A    between atoms: C_5  and  N_16
    2  A    between atoms: C_5  and  N_30
    3  A    between atoms: C_10  and  N_16
                            x       y       z     vdW  Elec       q    Type
                         _______ _______ _______ _____ _____    ______ ____

>  <TORSDO>
F 3

$$$$
=
 OpenBabel11112416513D

 31 35  0  0  1  0  0  0  0  0999 V2000
  196.2210  175.2240  144.0370 C   0  0  0  0  0  0  0  0  0  0  0  0
  192.7070  176.3890  143.1680 C   0  0  2  0  0  3  0  0  0  0  0  0
  192.0860  175.2890  142.3190 C   0  0  0  0  0  0  0  0  0  0  0  0
  192.3030  173.3180  140.9090 C   0  0  0  0  0  0  0  0  0  0  0  0
  193.8940  175.9170  143.9760 C   0  0  0  0  0  0  0  0  0  0  0  0
  196.1070  174.9440  145.4010 C   0  0  0  0  0  3  0  0  0  0  0  0
  192.8800  174.2970  141.7230 C   0  0  0  0  0  3  0  0  0  0  0  0
  191.3090  176.1920  145.2630 C   0  0  2  0  0  3  0  0  0  0  0  0
  197.5130  175.0000  143.3390 C   0  0  0  0  0  1  0  0  0  0  0  0
  189.8870  176.3040  142.5960 O   0  0  0  0  0  0  0  0  0  0  0  0
  193.0980  172.3340  140.3380 O   0  0  0  0  0  1  0  0  0  0  0  0
  192.5470  175.9850  146.1380 C   0  0  0  0  0  2  0  0  0  0  0  0
  191.6640  177.0860  144.0670 C   0  0  2  0  0  3  0  0  0  0  0  0
  195.1200  175.7100  143.3300 C   0  0  0  0  0  3  0  0  0  0  0  0
  190.9280  173.3320  140.6680 C   0  0  0  0  0  3  0  0  0  0  0  0
  193.7830  175.6390  145.3570 C   0  0  0  0  0  0  0  0  0  0  0  0
  194.8940  175.1610  146.0590 C   0  0  0  0  0  3  0  0  0  0  0  0
  190.4320  177.4550  143.2370 C   0  0  0  0  0  2  0  0  0  0  0  0
  190.7020  175.3120  142.0450 C   0  0  0  0  0  0  0  0  0  0  0  0
  190.1310  174.3290  141.2330 C   0  0  0  0  0  3  0  0  0  0  0  0
  190.2540  176.8100  146.0580 N   0  0  0  0  0  2  0  0  0  0  0  0
  188.9140  175.0490  147.0750 C   0  0  0  0  0  1  0  0  0  0  0  0
  189.0410  176.0160  145.9120 C   0  0  1  0  0  3  0  0  0  0  0  0
  185.3100  177.6530  146.3860 C   0  0  0  0  0  0  0  0  0  0  0  0
  187.6630  177.8230  146.7960 O   0  0  0  0  0  0  0  0  0  0  0  0
  187.0980  176.1670  143.7130 O   0  0  0  0  0  0  0  0  0  0  0  0
  183.9950  178.2220  146.7780 C   0  0  0  0  0  1  0  0  0  0  0  0
  186.4220  177.5260  147.4050 C   0  0  0  0  0  2  0  0  0  0  0  0
  186.8560  176.7330  144.8120 C   0  0  0  0  0  0  0  0  0  0  0  0
  187.8610  176.8760  145.8320 N   0  0  0  0  0  0  0  0  0  0  0  0
  185.5190  177.2350  145.1340 C   0  0  0  0  0  3  0  0  0  0  0  0
  1  6  1  0  0  0  0
  2  3  1  1  0  0  0
  2  5  1  0  0  0  0
  2 13  1  0  0  0  0
  4  7  1  0  0  0  0
  5 16  2  0  0  0  0
  6 17  2  0  0  0  0
  7  3  2  0  0  0  0
  8 21  1  1  0  0  0
  8 12  1  0  0  0  0
  9  1  1  0  0  0  0
 10 18  1  0  0  0  0
 11  4  1  0  0  0  0
 13 18  1  6  0  0  0
 13  8  1  0  0  0  0
 14  5  1  0  0  0  0
 14  1  2  0  0  0  0
 15  4  2  0  0  0  0
 15 20  1  0  0  0  0
 16 17  1  0  0  0  0
 16 12  1  0  0  0  0
 19  3  1  0  0  0  0
 19 10  1  0  0  0  0
 20 19  2  0  0  0  0
 23 21  1  0  0  0  0
 23 22  1  1  0  0  0
 24 27  1  0  0  0  0
 24 28  1  0  0  0  0
 25 28  1  0  0  0  0
 26 29  2  0  0  0  0
 29 31  1  0  0  0  0
 29 30  1  0  0  0  0
 30 23  1  0  0  0  0
 30 25  1  0  0  0  0
 31 24  2  0  0  0  0
M  END
>  <MODEL>
4

>  <REMARK>
 VINA RESULT:      -7.4      2.234      7.145
  Name = 
  3 active torsions:
  status: ('A' for Active; 'I' for Inactive)
    1  A    between atoms: C_5  and  N_16
    2  A    between atoms: C_5  and  N_30
    3  A    between atoms: C_10  and  N_16
                            x       y       z     vdW  Elec       q    Type
                         _______ _______ _______ _____ _____    ______ ____

>  <TORSDO>
F 3

$$$$
=
 OpenBabel11112416513D

 31 35  0  0  1  0  0  0  0  0999 V2000
  186.3860  177.7150  147.0830 C   0  0  0  0  0  0  0  0  0  0  0  0
  189.3860  177.5820  144.7500 C   0  0  2  0  0  3  0  0  0  0  0  0
  190.4200  176.6950  145.4290 C   0  0  0  0  0  0  0  0  0  0  0  0
  191.3050  175.6040  147.4150 C   0  0  0  0  0  0  0  0  0  0  0  0
  187.9870  177.3820  145.2870 C   0  0  0  0  0  0  0  0  0  0  0  0
  185.4410  176.9590  146.3860 C   0  0  0  0  0  3  0  0  0  0  0  0
  190.3250  176.3830  146.7940 C   0  0  0  0  0  3  0  0  0  0  0  0
  188.7500  176.1240  142.7890 C   0  0  2  0  0  3  0  0  0  0  0  0
  186.0450  178.2910  148.4090 C   0  0  0  0  0  1  0  0  0  0  0  0
  191.6880  176.5680  143.3500 O   0  0  0  0  0  0  0  0  0  0  0  0
  191.1910  175.2910  148.7620 O   0  0  0  0  0  1  0  0  0  0  0  0
  187.2700  176.1450  143.1790 C   0  0  0  0  0  2  0  0  0  0  0  0
  189.4170  177.4380  143.2150 C   0  0  2  0  0  3  0  0  0  0  0  0
  187.6520  177.9270  146.5340 C   0  0  0  0  0  3  0  0  0  0  0  0
  192.4000  175.1440  146.6820 C   0  0  0  0  0  3  0  0  0  0  0  0
  187.0280  176.6220  144.5830 C   0  0  0  0  0  0  0  0  0  0  0  0
  185.7580  176.4240  145.1360 C   0  0  0  0  0  3  0  0  0  0  0  0
  190.8610  177.5410  142.7160 C   0  0  0  0  0  2  0  0  0  0  0  0
  191.5450  176.2500  144.7030 C   0  0  0  0  0  0  0  0  0  0  0  0
  192.5200  175.4690  145.3290 C   0  0  0  0  0  3  0  0  0  0  0  0
  188.8650  175.9440  141.3460 N   0  0  0  0  0  2  0  0  0  0  0  0
  188.2020  174.4440  139.5440 C   0  0  0  0  0  1  0  0  0  0  0  0
  188.5190  174.5650  141.0230 C   0  0  1  0  0  3  0  0  0  0  0  0
  191.3710  171.6180  141.0140 C   0  0  0  0  0  0  0  0  0  0  0  0
  190.8810  173.9610  141.0150 O   0  0  0  0  0  0  0  0  0  0  0  0
  188.3470  172.2040  142.7640 O   0  0  0  0  0  0  0  0  0  0  0  0
  192.4690  170.6370  140.8130 C   0  0  0  0  0  1  0  0  0  0  0  0
  191.3310  172.8950  140.2030 C   0  0  0  0  0  2  0  0  0  0  0  0
  189.3830  172.4110  142.0780 C   0  0  0  0  0  0  0  0  0  0  0  0
  189.6030  173.6560  141.3890 N   0  0  0  0  0  0  0  0  0  0  0  0
  190.4020  171.3750  141.9010 C   0  0  0  0  0  3  0  0  0  0  0  0
  1  9  1  0  0  0  0
  2  5  1  1  0  0  0
  2  3  1  0  0  0  0
  3  7  1  0  0  0  0
  4 11  1  0  0  0  0
  5 14  2  0  0  0  0
  6  1  2  0  0  0  0
  7  4  2  0  0  0  0
  8 21  1  6  0  0  0
  8 12  1  0  0  0  0
  8 13  1  0  0  0  0
 10 19  1  0  0  0  0
 12 16  1  0  0  0  0
 13 18  1  1  0  0  0
 13  2  1  0  0  0  0
 14  1  1  0  0  0  0
 15  4  1  0  0  0  0
 16 17  2  0  0  0  0
 16  5  1  0  0  0  0
 17  6  1  0  0  0  0
 18 10  1  0  0  0  0
 19 20  1  0  0  0  0
 19  3  2  0  0  0  0
 20 15  2  0  0  0  0
 23 22  1  6  0  0  0
 23 21  1  0  0  0  0
 23 30  1  0  0  0  0
 24 31  2  0  0  0  0
 25 30  1  0  0  0  0
 27 24  1  0  0  0  0
 28 24  1  0  0  0  0
 28 25  1  0  0  0  0
 29 26  2  0  0  0  0
 30 29  1  0  0  0  0
 31 29  1  0  0  0  0
M  END
>  <MODEL>
5

>  <REMARK>
 VINA RESULT:      -7.3      2.681      4.967
  Name = 
  3 active torsions:
  status: ('A' for Active; 'I' for Inactive)
    1  A    between atoms: C_5  and  N_16
    2  A    between atoms: C_5  and  N_30
    3  A    between atoms: C_10  and  N_16
                            x       y       z     vdW  Elec       q    Type
                         _______ _______ _______ _____ _____    ______ ____

>  <TORSDO>
F 3

$$$$
=
 OpenBabel11112416513D

 31 35  0  0  1  0  0  0  0  0999 V2000
  192.1690  171.8220  142.3010 C   0  0  0  0  0  0  0  0  0  0  0  0
  191.0950  173.7500  145.3980 C   0  0  2  0  0  3  0  0  0  0  0  0
  192.2340  174.7050  145.7270 C   0  0  0  0  0  0  0  0  0  0  0  0
  194.5600  175.3870  145.5170 C   0  0  0  0  0  0  0  0  0  0  0  0
  191.1340  173.2480  143.9730 C   0  0  0  0  0  0  0  0  0  0  0  0
  191.3250  172.3500  141.3220 C   0  0  0  0  0  3  0  0  0  0  0  0
  193.5110  174.5300  145.1720 C   0  0  0  0  0  3  0  0  0  0  0  0
  189.3150  175.3920  144.6820 C   0  0  2  0  0  3  0  0  0  0  0  0
  193.1720  170.7880  141.9380 C   0  0  0  0  0  1  0  0  0  0  0  0
  190.7860  175.9120  147.2730 O   0  0  0  0  0  0  0  0  0  0  0  0
  195.8140  175.2120  144.9490 O   0  0  0  0  0  1  0  0  0  0  0  0
  189.1520  174.7110  143.3210 C   0  0  0  0  0  2  0  0  0  0  0  0
  189.7170  174.3530  145.7370 C   0  0  2  0  0  3  0  0  0  0  0  0
  192.0710  172.2680  143.6210 C   0  0  0  0  0  3  0  0  0  0  0  0
  194.3470  176.4170  146.4350 C   0  0  0  0  0  3  0  0  0  0  0  0
  190.2780  173.7760  142.9810 C   0  0  0  0  0  0  0  0  0  0  0  0
  190.3770  173.3160  141.6640 C   0  0  0  0  0  3  0  0  0  0  0  0
  189.7460  174.9450  147.1490 C   0  0  0  0  0  2  0  0  0  0  0  0
  192.0360  175.7290  146.6760 C   0  0  0  0  0  0  0  0  0  0  0  0
  193.0880  176.5850  147.0150 C   0  0  0  0  0  3  0  0  0  0  0  0
  188.0570  176.0300  145.0550 N   0  0  0  0  0  2  0  0  0  0  0  0
  189.6480  177.8020  144.5400 C   0  0  0  0  0  1  0  0  0  0  0  0
  188.2290  177.4750  144.9690 C   0  0  1  0  0  3  0  0  0  0  0  0
  185.0350  178.1100  142.4770 C   0  0  0  0  0  0  0  0  0  0  0  0
  186.1380  178.6500  144.5320 O   0  0  0  0  0  0  0  0  0  0  0  0
  188.5400  177.8040  142.0660 O   0  0  0  0  0  0  0  0  0  0  0  0
  183.7510  178.2650  141.7440 C   0  0  0  0  0  1  0  0  0  0  0  0
  185.0410  177.9490  143.9820 C   0  0  0  0  0  2  0  0  0  0  0  0
  187.4190  177.9900  142.6090 C   0  0  0  0  0  0  0  0  0  0  0  0
  187.2660  178.0600  144.0380 N   0  0  0  0  0  0  0  0  0  0  0  0
  186.1940  178.0970  141.8130 C   0  0  0  0  0  3  0  0  0  0  0  0
  1 14  1  0  0  0  0
  2  5  1  6  0  0  0
  2  3  1  0  0  0  0
  2 13  1  0  0  0  0
  3 19  1  0  0  0  0
  4 15  2  0  0  0  0
  6 17  1  0  0  0  0
  6  1  2  0  0  0  0
  7  4  1  0  0  0  0
  7  3  2  0  0  0  0
  8 21  1  1  0  0  0
  8 13  1  0  0  0  0
  9  1  1  0  0  0  0
 11  4  1  0  0  0  0
 12  8  1  0  0  0  0
 13 18  1  1  0  0  0
 14  5  2  0  0  0  0
 15 20  1  0  0  0  0
 16 12  1  0  0  0  0
 16  5  1  0  0  0  0
 17 16  2  0  0  0  0
 18 10  1  0  0  0  0
 19 20  2  0  0  0  0
 19 10  1  0  0  0  0
 23 22  1  6  0  0  0
 23 21  1  0  0  0  0
 24 28  1  0  0  0  0
 26 29  2  0  0  0  0
 27 24  1  0  0  0  0
 28 25  1  0  0  0  0
 29 30  1  0  0  0  0
 30 25  1  0  0  0  0
 30 23  1  0  0  0  0
 31 24  2  0  0  0  0
 31 29  1  0  0  0  0
M  END
>  <MODEL>
6

>  <REMARK>
 VINA RESULT:      -7.3      2.654      7.270
  Name = 
  3 active torsions:
  status: ('A' for Active; 'I' for Inactive)
    1  A    between atoms: C_5  and  N_16
    2  A    between atoms: C_5  and  N_30
    3  A    between atoms: C_10  and  N_16
                            x       y       z     vdW  Elec       q    Type
                         _______ _______ _______ _____ _____    ______ ____

>  <TORSDO>
F 3

$$$$
=
 OpenBabel11112416513D

 31 35  0  0  1  0  0  0  0  0999 V2000
  193.2980  170.6710  144.2800 C   0  0  0  0  0  0  0  0  0  0  0  0
  193.9250  174.1750  145.6190 C   0  0  2  0  0  3  0  0  0  0  0  0
  194.9050  174.8340  144.6590 C   0  0  0  0  0  0  0  0  0  0  0  0
  196.5780  174.6840  142.8990 C   0  0  0  0  0  0  0  0  0  0  0  0
  193.2140  172.9840  145.0180 C   0  0  0  0  0  0  0  0  0  0  0  0
  191.9840  170.7670  143.8170 C   0  0  0  0  0  3  0  0  0  0  0  0
  195.6490  174.0720  143.7440 C   0  0  0  0  0  3  0  0  0  0  0  0
  191.8490  175.5380  145.1600 C   0  0  2  0  0  3  0  0  0  0  0  0
  194.0470  169.3970  144.1320 C   0  0  0  0  0  1  0  0  0  0  0  0
  194.4450  177.0060  145.6660 O   0  0  0  0  0  0  0  0  0  0  0  0
  197.2950  173.9210  141.9890 O   0  0  0  0  0  1  0  0  0  0  0  0
  191.0370  174.2900  144.8100 C   0  0  0  0  0  2  0  0  0  0  0  0
  192.9180  175.1860  146.2040 C   0  0  2  0  0  3  0  0  0  0  0  0
  193.9090  171.7740  144.8800 C   0  0  0  0  0  3  0  0  0  0  0  0
  196.7860  176.0630  142.9710 C   0  0  0  0  0  3  0  0  0  0  0  0
  191.8840  173.0760  144.5530 C   0  0  0  0  0  0  0  0  0  0  0  0
  191.2780  171.9620  143.9630 C   0  0  0  0  0  3  0  0  0  0  0  0
  193.6630  176.4250  146.7070 C   0  0  0  0  0  2  0  0  0  0  0  0
  195.1440  176.2210  144.7460 C   0  0  0  0  0  0  0  0  0  0  0  0
  196.0720  176.8280  143.8950 C   0  0  0  0  0  3  0  0  0  0  0  0
  190.9540  176.5660  145.6810 N   0  0  0  0  0  2  0  0  0  0  0  0
  191.7960  177.4550  143.5750 C   0  0  0  0  0  1  0  0  0  0  0  0
  190.7030  177.5380  144.6240 C   0  0  1  0  0  3  0  0  0  0  0  0
  187.1740  177.9880  142.5840 C   0  0  0  0  0  0  0  0  0  0  0  0
  189.3230  176.9410  142.7050 O   0  0  0  0  0  0  0  0  0  0  0  0
  188.0930  177.5400  145.9750 O   0  0  0  0  0  0  0  0  0  0  0  0
  186.0220  178.2290  141.6770 C   0  0  0  0  0  1  0  0  0  0  0  0
  188.5830  177.9400  142.0340 C   0  0  0  0  0  2  0  0  0  0  0  0
  188.1560  177.5430  144.7180 C   0  0  0  0  0  0  0  0  0  0  0  0
  189.3920  177.3190  144.0160 N   0  0  0  0  0  0  0  0  0  0  0  0
  186.9770  177.8260  143.8960 C   0  0  0  0  0  3  0  0  0  0  0  0
  1 14  1  0  0  0  0
  2  3  1  6  0  0  0
  2 13  1  0  0  0  0
  3 19  1  0  0  0  0
  4 15  2  0  0  0  0
  4  7  1  0  0  0  0
  5  2  1  0  0  0  0
  6 17  1  0  0  0  0
  6  1  2  0  0  0  0
  7  3  2  0  0  0  0
  8 21  1  1  0  0  0
  8 13  1  0  0  0  0
  9  1  1  0  0  0  0
 10 18  1  0  0  0  0
 11  4  1  0  0  0  0
 12  8  1  0  0  0  0
 13 18  1  6  0  0  0
 14  5  2  0  0  0  0
 15 20  1  0  0  0  0
 16 12  1  0  0  0  0
 16  5  1  0  0  0  0
 17 16  2  0  0  0  0
 19 10  1  0  0  0  0
 20 19  2  0  0  0  0
 23 22  1  6  0  0  0
 23 21  1  0  0  0  0
 24 31  2  0  0  0  0
 25 30  1  0  0  0  0
 27 24  1  0  0  0  0
 28 24  1  0  0  0  0
 28 25  1  0  0  0  0
 29 26  2  0  0  0  0
 30 23  1  0  0  0  0
 30 29  1  0  0  0  0
 31 29  1  0  0  0  0
M  END
>  <MODEL>
7

>  <REMARK>
 VINA RESULT:      -7.2      2.650      7.346
  Name = 
  3 active torsions:
  status: ('A' for Active; 'I' for Inactive)
    1  A    between atoms: C_5  and  N_16
    2  A    between atoms: C_5  and  N_30
    3  A    between atoms: C_10  and  N_16
                            x       y       z     vdW  Elec       q    Type
                         _______ _______ _______ _____ _____    ______ ____

>  <TORSDO>
F 3

$$$$
=
 OpenBabel11112416513D

 31 35  0  0  1  0  0  0  0  0999 V2000
  187.2020  177.1160  140.9970 C   0  0  0  0  0  0  0  0  0  0  0  0
  188.5080  177.6430  144.5290 C   0  0  2  0  0  3  0  0  0  0  0  0
  187.2870  177.8460  145.4150 C   0  0  0  0  0  0  0  0  0  0  0  0
  184.9290  178.3780  145.6890 C   0  0  0  0  0  0  0  0  0  0  0  0
  188.1840  176.9730  143.2140 C   0  0  0  0  0  0  0  0  0  0  0  0
  187.4630  175.7600  140.7880 C   0  0  0  0  0  3  0  0  0  0  0  0
  186.0330  178.1500  144.8630 C   0  0  0  0  0  3  0  0  0  0  0  0
  189.3180  175.4040  145.3730 C   0  0  2  0  0  3  0  0  0  0  0  0
  186.5360  177.9160  139.9370 C   0  0  0  0  0  1  0  0  0  0  0  0
  188.6680  177.5510  147.4020 O   0  0  0  0  0  0  0  0  0  0  0  0
  183.6910  178.6640  145.1290 O   0  0  0  0  0  1  0  0  0  0  0  0
  189.2520  174.7880  143.9740 C   0  0  0  0  0  2  0  0  0  0  0  0
  189.6420  176.9000  145.2660 C   0  0  2  0  0  3  0  0  0  0  0  0
  187.5630  177.7190  142.2030 C   0  0  0  0  0  3  0  0  0  0  0  0
  185.0720  178.3220  147.0760 C   0  0  0  0  0  3  0  0  0  0  0  0
  188.4520  175.6030  142.9980 C   0  0  0  0  0  0  0  0  0  0  0  0
  188.0960  175.0100  141.7820 C   0  0  0  0  0  3  0  0  0  0  0  0
  189.8720  177.5410  146.6380 C   0  0  0  0  0  2  0  0  0  0  0  0
  187.4280  177.8200  146.8180 C   0  0  0  0  0  0  0  0  0  0  0  0
  186.3190  178.0460  147.6390 C   0  0  0  0  0  3  0  0  0  0  0  0
  190.3430  174.7210  146.1540 N   0  0  0  0  0  2  0  0  0  0  0  0
  192.5820  175.3400  146.8880 C   0  0  0  0  0  1  0  0  0  0  0  0
  191.6510  175.1790  145.7000 C   0  0  1  0  0  3  0  0  0  0  0  0
  194.1230  172.6070  143.6770 C   0  0  0  0  0  0  0  0  0  0  0  0
  192.1200  172.9060  144.9540 O   0  0  0  0  0  0  0  0  0  0  0  0
  192.7930  175.8350  143.0730 O   0  0  0  0  0  0  0  0  0  0  0  0
  195.0440  171.5720  143.1410 C   0  0  0  0  0  1  0  0  0  0  0  0
  193.4410  172.4060  145.0130 C   0  0  0  0  0  2  0  0  0  0  0  0
  192.9420  174.6820  143.5600 C   0  0  0  0  0  0  0  0  0  0  0  0
  192.2200  174.2490  144.7270 N   0  0  0  0  0  0  0  0  0  0  0  0
  193.9000  173.7320  142.9910 C   0  0  0  0  0  3  0  0  0  0  0  0
  1 14  1  0  0  0  0
  2  5  1  6  0  0  0
  2 13  1  0  0  0  0
  2  3  1  0  0  0  0
  3 19  1  0  0  0  0
  4 15  2  0  0  0  0
  6  1  2  0  0  0  0
  6 17  1  0  0  0  0
  7  3  2  0  0  0  0
  7  4  1  0  0  0  0
  8 21  1  1  0  0  0
  9  1  1  0  0  0  0
 11  4  1  0  0  0  0
 12  8  1  0  0  0  0
 13  8  1  0  0  0  0
 13 18  1  1  0  0  0
 14  5  2  0  0  0  0
 15 20  1  0  0  0  0
 16  5  1  0  0  0  0
 16 12  1  0  0  0  0
 17 16  2  0  0  0  0
 18 10  1  0  0  0  0
 19 10  1  0  0  0  0
 19 20  2  0  0  0  0
 23 21  1  0  0  0  0
 23 22  1  1  0  0  0
 24 28  1  0  0  0  0
 25 28  1  0  0  0  0
 26 29  2  0  0  0  0
 27 24  1  0  0  0  0
 29 30  1  0  0  0  0
 30 25  1  0  0  0  0
 30 23  1  0  0  0  0
 31 29  1  0  0  0  0
 31 24  2  0  0  0  0
M  END
>  <MODEL>
8

>  <REMARK>
 VINA RESULT:      -7.2      2.072      4.258
  Name = 
  3 active torsions:
  status: ('A' for Active; 'I' for Inactive)
    1  A    between atoms: C_5  and  N_16
    2  A    between atoms: C_5  and  N_30
    3  A    between atoms: C_10  and  N_16
                            x       y       z     vdW  Elec       q    Type
                         _______ _______ _______ _____ _____    ______ ____

>  <TORSDO>
F 3

$$$$
=
 OpenBabel11112416513D

 31 35  0  0  1  0  0  0  0  0999 V2000
  186.3830  178.2790  147.1190 C   0  0  0  0  0  0  0  0  0  0  0  0
  189.0770  177.5490  144.5370 C   0  0  2  0  0  3  0  0  0  0  0  0
  190.1270  176.6980  145.2380 C   0  0  0  0  0  0  0  0  0  0  0  0
  191.1680  175.8600  147.2700 C   0  0  0  0  0  0  0  0  0  0  0  0
  187.7410  177.5460  145.2430 C   0  0  0  0  0  0  0  0  0  0  0  0
  185.3180  177.5010  146.6580 C   0  0  0  0  0  3  0  0  0  0  0  0
  190.1720  176.6090  146.6380 C   0  0  0  0  0  3  0  0  0  0  0  0
  188.1280  175.8600  142.9160 C   0  0  2  0  0  3  0  0  0  0  0  0
  186.2350  179.0770  148.3630 C   0  0  0  0  0  1  0  0  0  0  0  0
  191.1330  176.1510  143.0860 O   0  0  0  0  0  0  0  0  0  0  0  0
  191.1920  175.7680  148.6550 O   0  0  0  0  0  1  0  0  0  0  0  0
  186.7080  176.0590  143.4510 C   0  0  0  0  0  2  0  0  0  0  0  0
  188.9200  177.1670  143.0500 C   0  0  2  0  0  3  0  0  0  0  0  0
  187.5880  178.3020  146.4140 C   0  0  0  0  0  3  0  0  0  0  0  0
  192.1400  175.2060  146.5100 C   0  0  0  0  0  3  0  0  0  0  0  0
  186.6610  176.7650  144.7760 C   0  0  0  0  0  0  0  0  0  0  0  0
  185.4550  176.7560  145.4850 C   0  0  0  0  0  3  0  0  0  0  0  0
  190.3000  177.0770  142.3920 C   0  0  0  0  0  2  0  0  0  0  0  0
  191.1300  176.0580  144.4800 C   0  0  0  0  0  0  0  0  0  0  0  0
  192.1210  175.3080  145.1180 C   0  0  0  0  0  3  0  0  0  0  0  0
  188.0630  175.4510  141.5170 N   0  0  0  0  0  2  0  0  0  0  0  0
  187.8160  173.0430  141.7930 C   0  0  0  0  0  1  0  0  0  0  0  0
  188.7450  174.1700  141.3790 C   0  0  1  0  0  3  0  0  0  0  0  0
  189.5150  172.6300  137.6560 C   0  0  0  0  0  0  0  0  0  0  0  0
  188.3670  174.2680  138.9720 O   0  0  0  0  0  0  0  0  0  0  0  0
  191.4560  173.4450  140.5060 O   0  0  0  0  0  0  0  0  0  0  0  0
  189.5740  172.0290  136.2990 C   0  0  0  0  0  1  0  0  0  0  0  0
  188.1910  173.0720  138.2400 C   0  0  0  0  0  2  0  0  0  0  0  0
  190.4980  173.4180  139.6880 C   0  0  0  0  0  0  0  0  0  0  0  0
  189.2090  173.9720  140.0070 N   0  0  0  0  0  0  0  0  0  0  0  0
  190.6290  172.7720  138.3810 C   0  0  0  0  0  3  0  0  0  0  0  0
  1  9  1  0  0  0  0
  2  3  1  1  0  0  0
  2  5  1  0  0  0  0
  3  7  1  0  0  0  0
  4 11  1  0  0  0  0
  5 14  1  0  0  0  0
  6  1  1  0  0  0  0
  7  4  2  0  0  0  0
  8 21  1  6  0  0  0
  8 13  1  0  0  0  0
  8 12  1  0  0  0  0
 10 19  1  0  0  0  0
 12 16  1  0  0  0  0
 13 18  1  1  0  0  0
 13  2  1  0  0  0  0
 14  1  2  0  0  0  0
 15  4  1  0  0  0  0
 16  5  2  0  0  0  0
 16 17  1  0  0  0  0
 17  6  2  0  0  0  0
 18 10  1  0  0  0  0
 19 20  1  0  0  0  0
 19  3  2  0  0  0  0
 20 15  2  0  0  0  0
 23 21  1  0  0  0  0
 23 22  1  6  0  0  0
 24 28  1  0  0  0  0
 24 31  2  0  0  0  0
 25 30  1  0  0  0  0
 27 24  1  0  0  0  0
 28 25  1  0  0  0  0
 29 30  1  0  0  0  0
 29 26  2  0  0  0  0
 30 23  1  0  0  0  0
 31 29  1  0  0  0  0
M  END
>  <MODEL>
9

>  <REMARK>
 VINA RESULT:      -7.1      3.075      5.336
  Name = 
  3 active torsions:
  status: ('A' for Active; 'I' for Inactive)
    1  A    between atoms: C_5  and  N_16
    2  A    between atoms: C_5  and  N_30
    3  A    between atoms: C_10  and  N_16
                            x       y       z     vdW  Elec       q    Type
                         _______ _______ _______ _____ _____    ______ ____

>  <TORSDO>
F 3

$$$$
