=
 OpenBabel11112416343D

 32 38  0  0  1  0  0  0  0  0999 V2000
  185.0890  177.5380  146.8770 C   0  0  1  0  0  3  0  0  0  0  0  0
  189.7650  176.0000  144.9290 C   0  0  0  0  0  0  0  0  0  0  0  0
  188.7830  174.6060  140.4240 O   0  0  0  0  0  0  0  0  0  0  0  0
  189.6990  173.5430  140.4750 C   0  0  0  0  0  2  0  0  0  0  0  0
  192.1740  175.9120  145.7740 C   0  0  0  0  0  0  0  0  0  0  0  0
  193.5270  175.4210  145.5430 C   0  0  0  0  0  0  0  0  0  0  0  0
  188.0030  177.3750  146.1200 C   0  0  1  0  0  3  0  0  0  0  0  0
  187.3700  176.1630  144.0490 C   0  0  0  0  0  2  0  0  0  0  0  0
  195.2030  174.4610  144.5260 C   0  0  0  0  0  0  0  0  0  0  0  0
  185.5060  176.9780  145.5170 C   0  0  2  0  0  3  0  0  0  0  0  0
  188.1870  174.6710  141.6950 C   0  0  0  0  0  2  0  0  0  0  0  0
  188.8050  175.6980  143.9300 C   0  0  0  0  0  0  0  0  0  0  0  0
  189.2000  175.0460  142.7530 C   0  0  0  0  0  0  0  0  0  0  0  0
  191.5010  174.9310  143.5520 C   0  0  0  0  0  0  0  0  0  0  0  0
  195.6200  174.9590  145.7500 C   0  0  0  0  0  3  0  0  0  0  0  0
  186.2010  177.4720  147.9460 C   0  0  0  0  0  2  0  0  0  0  0  0
  186.9570  176.4550  145.4820 C   0  0  2  0  0  3  0  0  0  0  0  0
  194.5780  175.5550  146.3770 N   0  0  0  0  0  2  0  0  0  0  0  0
  187.5930  177.9260  147.4880 C   0  0  0  0  0  2  0  0  0  0  0  0
  185.3870  178.4840  145.7200 C   0  0  1  0  0  3  0  0  0  0  0  0
  190.9290  173.9680  141.2770 C   0  0  0  0  0  2  0  0  0  0  0  0
  190.5330  174.6420  142.5730 C   0  0  0  0  0  0  0  0  0  0  0  0
  192.9350  174.4950  143.2740 C   0  0  0  0  0  2  0  0  0  0  0  0
  189.3120  176.6120  146.2370 C   0  0  0  0  0  2  0  0  0  0  0  0
  191.9340  176.5740  146.8190 O   0  0  0  0  0  0  0  0  0  0  0  0
  196.0530  173.7520  143.5320 C   0  0  0  0  0  1  0  0  0  0  0  0
  191.1230  175.6190  144.7460 C   0  0  0  0  0  0  0  0  0  0  0  0
  193.8680  174.7590  144.4080 C   0  0  0  0  0  0  0  0  0  0  0  0
  184.0820  178.9650  145.1180 C   0  0  0  0  0  2  0  0  0  0  0  0
  184.2970  179.4090  143.6820 C   0  0  1  0  0  3  0  0  0  0  0  0
  185.6400  179.7310  143.4810 O   0  0  0  0  0  1  0  0  0  0  0  0
  183.9060  178.2850  142.7480 C   0  0  0  0  0  1  0  0  0  0  0  0
  1 16  1  1  0  0  0
  2 24  1  0  0  0  0
  3  4  1  0  0  0  0
  3 11  1  0  0  0  0
  4 21  1  0  0  0  0
  5 25  2  0  0  0  0
  6  5  1  0  0  0  0
  6 18  1  0  0  0  0
  7 24  1  1  0  0  0
  7 19  1  0  0  0  0
  8 17  1  0  0  0  0
  9 15  2  0  0  0  0
 10 20  1  0  0  0  0
 10  1  1  0  0  0  0
 11 13  1  0  0  0  0
 12  8  1  0  0  0  0
 12  2  2  0  0  0  0
 13 12  1  0  0  0  0
 14 27  2  0  0  0  0
 15 18  1  0  0  0  0
 17 10  1  0  0  0  0
 17  7  1  0  0  0  0
 19 16  1  0  0  0  0
 20  1  1  0  0  0  0
 21 22  1  0  0  0  0
 22 13  2  0  0  0  0
 22 14  1  0  0  0  0
 23 14  1  0  0  0  0
 23 28  1  0  0  0  0
 26  9  1  0  0  0  0
 27  2  1  0  0  0  0
 27  5  1  0  0  0  0
 28  9  1  0  0  0  0
 28  6  2  0  0  0  0
 29 20  1  0  0  0  0
 30 29  1  0  0  0  0
 31 30  1  0  0  0  0
 32 30  1  0  0  0  0
M  END
>  <MODEL>
1

>  <REMARK>
 VINA RESULT:      -9.2      0.000      0.000
  Name = 
  2 active torsions:
  status: ('A' for Active; 'I' for Inactive)
    1  A    between atoms: C_20  and  C_29
    2  A    between atoms: C_29  and  C_30
                            x       y       z     vdW  Elec       q    Type
                         _______ _______ _______ _____ _____    ______ ____

>  <TORSDO>
F 2

$$$$
=
 OpenBabel11112416343D

 32 38  0  0  1  0  0  0  0  0999 V2000
  185.3780  179.2180  143.4060 C   0  0  1  0  0  3  0  0  0  0  0  0
  189.1800  175.5470  143.0850 C   0  0  0  0  0  0  0  0  0  0  0  0
  191.2250  175.5580  147.4460 O   0  0  0  0  0  0  0  0  0  0  0  0
  192.5120  175.3510  146.9240 C   0  0  0  0  0  2  0  0  0  0  0  0
  190.0190  173.9130  141.3080 C   0  0  0  0  0  0  0  0  0  0  0  0
  191.0670  172.9820  140.9100 C   0  0  0  0  0  0  0  0  0  0  0  0
  186.9310  176.6900  142.8630 C   0  0  1  0  0  3  0  0  0  0  0  0
  188.2920  177.1220  144.8930 C   0  0  0  0  0  2  0  0  0  0  0  0
  192.8720  171.7630  141.0470 C   0  0  0  0  0  0  0  0  0  0  0  0
  186.4110  178.7110  144.4130 C   0  0  2  0  0  3  0  0  0  0  0  0
  190.5720  176.4230  146.5500 C   0  0  0  0  0  2  0  0  0  0  0  0
  189.3210  176.1480  144.3620 C   0  0  0  0  0  0  0  0  0  0  0  0
  190.3740  175.7630  145.2040 C   0  0  0  0  0  0  0  0  0  0  0  0
  191.2040  174.2150  143.5130 C   0  0  0  0  0  0  0  0  0  0  0  0
  192.2750  171.5800  139.8100 C   0  0  0  0  0  3  0  0  0  0  0  0
  185.6000  178.6960  141.9700 C   0  0  0  0  0  2  0  0  0  0  0  0
  187.4730  177.7800  143.7940 C   0  0  2  0  0  3  0  0  0  0  0  0
  191.1550  172.3370  139.7300 N   0  0  0  0  0  0  0  0  0  0  0  0
  185.9070  177.1980  141.8450 C   0  0  0  0  0  2  0  0  0  0  0  0
  184.9980  178.1380  144.4120 C   0  0  1  0  0  3  0  0  0  0  0  0
  192.4290  174.4090  145.7230 C   0  0  0  0  0  2  0  0  0  0  0  0
  191.3240  174.8210  144.7760 C   0  0  0  0  0  0  0  0  0  0  0  0
  192.2510  173.1760  143.1280 C   0  0  0  0  0  3  0  0  0  0  0  0
  188.1010  176.0410  142.1440 C   0  0  0  0  0  2  0  0  0  0  0  0
  189.0570  174.1250  140.5220 O   0  0  0  0  0  0  0  0  0  0  0  0
  194.1110  171.0970  141.5290 C   0  0  0  0  0  1  0  0  0  0  0  0
  190.1220  174.5730  142.6500 C   0  0  0  0  0  0  0  0  0  0  0  0
  192.0950  172.6600  141.7370 C   0  0  0  0  0  0  0  0  0  0  0  0
  184.2070  178.7650  145.5430 C   0  0  0  0  0  2  0  0  0  0  0  0
  184.4130  177.9800  146.8270 C   0  0  1  0  0  3  0  0  0  0  0  0
  184.8350  176.6840  146.5280 O   0  0  0  0  0  1  0  0  0  0  0  0
  185.4650  178.6670  147.6700 C   0  0  0  0  0  1  0  0  0  0  0  0
  1 16  1  6  0  0  0
  1 20  1  0  0  0  0
  1 10  1  0  0  0  0
  2 12  1  0  0  0  0
  4  3  1  0  0  0  0
  5 27  1  0  0  0  0
  6  5  1  0  0  0  0
  6 28  1  0  0  0  0
  7 19  1  6  0  0  0
  7 17  1  0  0  0  0
  9 26  1  0  0  0  0
  9 28  1  0  0  0  0
 11  3  1  0  0  0  0
 12  8  1  0  0  0  0
 12 13  2  0  0  0  0
 13 11  1  0  0  0  0
 14 22  2  0  0  0  0
 15  9  2  0  0  0  0
 17 10  1  0  0  0  0
 17  8  1  0  0  0  0
 18 15  1  0  0  0  0
 18  6  2  0  0  0  0
 19 16  1  0  0  0  0
 20 10  1  0  0  0  0
 20 29  1  0  0  0  0
 21  4  1  0  0  0  0
 22 13  1  0  0  0  0
 22 21  1  0  0  0  0
 23 14  1  0  0  0  0
 24  7  1  0  0  0  0
 24  2  1  0  0  0  0
 25  5  2  0  0  0  0
 27  2  2  0  0  0  0
 27 14  1  0  0  0  0
 28 23  2  0  0  0  0
 29 30  1  0  0  0  0
 30 32  1  0  0  0  0
 31 30  1  0  0  0  0
M  END
>  <MODEL>
2

>  <REMARK>
 VINA RESULT:      -8.8      2.265      4.597
  Name = 
  2 active torsions:
  status: ('A' for Active; 'I' for Inactive)
    1  A    between atoms: C_20  and  C_29
    2  A    between atoms: C_29  and  C_30
                            x       y       z     vdW  Elec       q    Type
                         _______ _______ _______ _____ _____    ______ ____

>  <TORSDO>
F 2

$$$$
=
 OpenBabel11112416343D

 32 38  0  0  1  0  0  0  0  0999 V2000
  185.6740  177.2670  146.3220 C   0  0  1  0  0  3  0  0  0  0  0  0
  190.3350  175.7150  144.3490 C   0  0  0  0  0  0  0  0  0  0  0  0
  189.3070  174.2160  139.8880 O   0  0  0  0  0  0  0  0  0  0  0  0
  190.2300  173.1610  139.9510 C   0  0  0  0  0  2  0  0  0  0  0  0
  192.7560  175.6610  145.1660 C   0  0  0  0  0  0  0  0  0  0  0  0
  194.1090  175.1740  144.9280 C   0  0  0  0  0  0  0  0  0  0  0  0
  188.5800  177.1050  145.5320 C   0  0  1  0  0  3  0  0  0  0  0  0
  187.9290  175.8440  143.4960 C   0  0  0  0  0  2  0  0  0  0  0  0
  195.7780  174.2020  143.9110 C   0  0  0  0  0  0  0  0  0  0  0  0
  186.0780  176.6790  144.9700 C   0  0  2  0  0  3  0  0  0  0  0  0
  188.7260  174.3050  141.1660 C   0  0  0  0  0  2  0  0  0  0  0  0
  189.3650  175.3850  143.3690 C   0  0  0  0  0  0  0  0  0  0  0  0
  189.7490  174.7100  142.2020 C   0  0  0  0  0  0  0  0  0  0  0  0
  192.0610  174.6270  142.9740 C   0  0  0  0  0  0  0  0  0  0  0  0
  196.2070  174.7290  145.1180 C   0  0  0  0  0  3  0  0  0  0  0  0
  186.8010  177.2320  147.3780 C   0  0  0  0  0  2  0  0  0  0  0  0
  187.5320  176.1650  144.9280 C   0  0  2  0  0  3  0  0  0  0  0  0
  195.1690  175.3320  145.7460 N   0  0  0  0  0  2  0  0  0  0  0  0
  188.1830  177.6840  146.8920 C   0  0  0  0  0  2  0  0  0  0  0  0
  185.9520  178.1890  145.1410 C   0  0  1  0  0  3  0  0  0  0  0  0
  191.4670  173.6110  140.7280 C   0  0  0  0  0  2  0  0  0  0  0  0
  191.0830  174.3110  142.0140 C   0  0  0  0  0  0  0  0  0  0  0  0
  193.4950  174.1940  142.6870 C   0  0  0  0  0  2  0  0  0  0  0  0
  189.8950  176.3540  145.6490 C   0  0  0  0  0  2  0  0  0  0  0  0
  192.5240  176.3440  146.1990 O   0  0  0  0  0  0  0  0  0  0  0  0
  196.6200  173.4770  142.9230 C   0  0  0  0  0  1  0  0  0  0  0  0
  191.6940  175.3390  144.1580 C   0  0  0  0  0  0  0  0  0  0  0  0
  194.4400  174.4880  143.8030 C   0  0  0  0  0  0  0  0  0  0  0  0
  184.6360  178.6480  144.5460 C   0  0  0  0  0  2  0  0  0  0  0  0
  184.4970  178.1390  143.1220 C   0  0  1  0  0  3  0  0  0  0  0  0
  183.2300  178.4520  142.6280 O   0  0  0  0  0  1  0  0  0  0  0  0
  185.5490  178.7920  142.2520 C   0  0  0  0  0  1  0  0  0  0  0  0
  1 16  1  1  0  0  0
  2 24  1  0  0  0  0
  3  4  1  0  0  0  0
  3 11  1  0  0  0  0
  4 21  1  0  0  0  0
  5 25  2  0  0  0  0
  6  5  1  0  0  0  0
  6 18  1  0  0  0  0
  7 24  1  1  0  0  0
  7 19  1  0  0  0  0
  8 17  1  0  0  0  0
  9 15  2  0  0  0  0
 10 20  1  0  0  0  0
 10  1  1  0  0  0  0
 11 13  1  0  0  0  0
 12  8  1  0  0  0  0
 12  2  2  0  0  0  0
 13 12  1  0  0  0  0
 14 27  2  0  0  0  0
 15 18  1  0  0  0  0
 17 10  1  0  0  0  0
 17  7  1  0  0  0  0
 19 16  1  0  0  0  0
 20  1  1  0  0  0  0
 21 22  1  0  0  0  0
 22 13  2  0  0  0  0
 22 14  1  0  0  0  0
 23 14  1  0  0  0  0
 23 28  1  0  0  0  0
 26  9  1  0  0  0  0
 27  2  1  0  0  0  0
 27  5  1  0  0  0  0
 28  9  1  0  0  0  0
 28  6  2  0  0  0  0
 29 20  1  0  0  0  0
 30 29  1  0  0  0  0
 31 30  1  0  0  0  0
 32 30  1  0  0  0  0
M  END
>  <MODEL>
3

>  <REMARK>
 VINA RESULT:      -8.6      1.005      1.045
  Name = 
  2 active torsions:
  status: ('A' for Active; 'I' for Inactive)
    1  A    between atoms: C_20  and  C_29
    2  A    between atoms: C_29  and  C_30
                            x       y       z     vdW  Elec       q    Type
                         _______ _______ _______ _____ _____    ______ ____

>  <TORSDO>
F 2

$$$$
=
 OpenBabel11112416343D

 32 38  0  0  1  0  0  0  0  0999 V2000
  195.4050  174.9990  144.8830 C   0  0  1  0  0  3  0  0  0  0  0  0
  190.2490  176.1960  144.9620 C   0  0  0  0  0  0  0  0  0  0  0  0
  188.5370  174.3860  140.8390 O   0  0  0  0  0  0  0  0  0  0  0  0
  187.6560  175.4610  140.6480 C   0  0  0  0  0  2  0  0  0  0  0  0
  188.6500  177.3550  146.5840 C   0  0  0  0  0  0  0  0  0  0  0  0
  187.3260  177.9310  146.7840 C   0  0  0  0  0  0  0  0  0  0  0  0
  192.5330  175.4000  145.7100 C   0  0  1  0  0  3  0  0  0  0  0  0
  191.8260  174.9630  143.3720 C   0  0  0  0  0  2  0  0  0  0  0  0
  185.2590  178.4890  146.3610 C   0  0  0  0  0  0  0  0  0  0  0  0
  194.2700  174.7370  143.8930 C   0  0  2  0  0  3  0  0  0  0  0  0
  189.7140  174.9350  141.3790 C   0  0  0  0  0  2  0  0  0  0  0  0
  190.4950  175.6060  143.6960 C   0  0  0  0  0  0  0  0  0  0  0  0
  189.4630  175.5160  142.7520 C   0  0  0  0  0  0  0  0  0  0  0  0
  187.9280  176.6410  144.2770 C   0  0  0  0  0  0  0  0  0  0  0  0
  185.6130  178.9260  147.6270 C   0  0  0  0  0  3  0  0  0  0  0  0
  195.0190  175.9520  146.0350 C   0  0  0  0  0  2  0  0  0  0  0  0
  192.9620  175.4770  144.2420 C   0  0  2  0  0  3  0  0  0  0  0  0
  186.8960  178.5770  147.8860 N   0  0  0  0  0  2  0  0  0  0  0  0
  193.6650  175.6770  146.7020 C   0  0  0  0  0  2  0  0  0  0  0  0
  194.6700  173.6650  144.9010 C   0  0  1  0  0  3  0  0  0  0  0  0
  187.0950  175.9080  141.9970 C   0  0  0  0  0  2  0  0  0  0  0  0
  188.1930  176.0500  143.0290 C   0  0  0  0  0  0  0  0  0  0  0  0
  186.5180  177.1680  144.5210 C   0  0  0  0  0  2  0  0  0  0  0  0
  191.3940  176.3800  145.9350 C   0  0  0  0  0  2  0  0  0  0  0  0
  189.4850  177.3980  147.5270 O   0  0  0  0  0  0  0  0  0  0  0  0
  183.9320  178.6620  145.7120 C   0  0  0  0  0  1  0  0  0  0  0  0
  188.9600  176.7180  145.2630 C   0  0  0  0  0  0  0  0  0  0  0  0
  186.3600  177.8600  145.8330 C   0  0  0  0  0  0  0  0  0  0  0  0
  195.5160  172.6190  144.2030 C   0  0  0  0  0  2  0  0  0  0  0  0
  195.8870  171.5100  145.1720 C   0  0  1  0  0  3  0  0  0  0  0  0
  196.7690  172.0000  146.1380 O   0  0  0  0  0  1  0  0  0  0  0  0
  194.6350  170.9990  145.8510 C   0  0  0  0  0  1  0  0  0  0  0  0
  1 20  1  0  0  0  0
  1 16  1  1  0  0  0
  2 27  1  0  0  0  0
  2 24  1  0  0  0  0
  3 11  1  0  0  0  0
  4  3  1  0  0  0  0
  4 21  1  0  0  0  0
  5  6  1  0  0  0  0
  5 25  2  0  0  0  0
  6 18  1  0  0  0  0
  7 24  1  6  0  0  0
  7 19  1  0  0  0  0
  8 12  1  0  0  0  0
  8 17  1  0  0  0  0
  9 15  2  0  0  0  0
 10 17  1  0  0  0  0
 10  1  1  0  0  0  0
 10 20  1  0  0  0  0
 11 13  1  0  0  0  0
 12  2  2  0  0  0  0
 13 22  2  0  0  0  0
 13 12  1  0  0  0  0
 14 23  1  0  0  0  0
 14 27  2  0  0  0  0
 15 18  1  0  0  0  0
 16 19  1  0  0  0  0
 17  7  1  0  0  0  0
 21 22  1  0  0  0  0
 22 14  1  0  0  0  0
 23 28  1  0  0  0  0
 26  9  1  0  0  0  0
 27  5  1  0  0  0  0
 28  9  1  0  0  0  0
 28  6  2  0  0  0  0
 29 20  1  0  0  0  0
 29 30  1  0  0  0  0
 30 32  1  0  0  0  0
 30 31  1  0  0  0  0
M  END
>  <MODEL>
4

>  <REMARK>
 VINA RESULT:      -8.6      2.330      7.906
  Name = 
  2 active torsions:
  status: ('A' for Active; 'I' for Inactive)
    1  A    between atoms: C_20  and  C_29
    2  A    between atoms: C_29  and  C_30
                            x       y       z     vdW  Elec       q    Type
                         _______ _______ _______ _____ _____    ______ ____

>  <TORSDO>
F 2

$$$$
=
 OpenBabel11112416343D

 32 38  0  0  1  0  0  0  0  0999 V2000
  186.2560  178.5950  143.2260 C   0  0  1  0  0  3  0  0  0  0  0  0
  189.7590  174.6720  143.8280 C   0  0  0  0  0  0  0  0  0  0  0  0
  192.8620  176.3320  147.1170 O   0  0  0  0  0  0  0  0  0  0  0  0
  193.9650  175.7370  146.4840 C   0  0  0  0  0  2  0  0  0  0  0  0
  190.0720  172.3190  142.8810 C   0  0  0  0  0  0  0  0  0  0  0  0
  190.9590  171.1710  142.7450 C   0  0  0  0  0  0  0  0  0  0  0  0
  187.5570  175.9000  143.5970 C   0  0  1  0  0  3  0  0  0  0  0  0
  189.4060  176.9930  144.8400 C   0  0  0  0  0  2  0  0  0  0  0  0
  192.7100  169.8990  143.0350 C   0  0  0  0  0  0  0  0  0  0  0  0
  187.5020  178.4500  144.0990 C   0  0  2  0  0  3  0  0  0  0  0  0
  192.0200  176.7910  146.0880 C   0  0  0  0  0  2  0  0  0  0  0  0
  190.2400  175.7500  144.6130 C   0  0  0  0  0  0  0  0  0  0  0  0
  191.4650  175.6370  145.2840 C   0  0  0  0  0  0  0  0  0  0  0  0
  191.7940  173.3990  144.3720 C   0  0  0  0  0  0  0  0  0  0  0  0
  191.8090  169.2720  142.1900 C   0  0  0  0  0  3  0  0  0  0  0  0
  186.0870  177.4640  142.1880 C   0  0  0  0  0  2  0  0  0  0  0  0
  188.3460  177.2010  143.7700 C   0  0  2  0  0  3  0  0  0  0  0  0
  190.7240  170.0630  142.0130 N   0  0  0  0  0  0  0  0  0  0  0  0
  186.3160  176.0410  142.7110 C   0  0  0  0  0  2  0  0  0  0  0  0
  186.1250  178.1400  144.6740 C   0  0  1  0  0  3  0  0  0  0  0  0
  193.5530  174.3810  145.9110 C   0  0  0  0  0  2  0  0  0  0  0  0
  192.2500  174.4800  145.1470 C   0  0  0  0  0  0  0  0  0  0  0  0
  192.6810  172.1620  144.2980 C   0  0  0  0  0  3  0  0  0  0  0  0
  188.4860  174.8410  143.0270 C   0  0  0  0  0  2  0  0  0  0  0  0
  188.9450  172.2910  142.3180 O   0  0  0  0  0  0  0  0  0  0  0  0
  194.0160  169.3510  143.4870 C   0  0  0  0  0  1  0  0  0  0  0  0
  190.5340  173.4840  143.7020 C   0  0  0  0  0  0  0  0  0  0  0  0
  192.1580  171.1090  143.3790 C   0  0  0  0  0  0  0  0  0  0  0  0
  185.6680  179.3080  145.5250 C   0  0  0  0  0  2  0  0  0  0  0  0
  185.0920  178.8090  146.8390 C   0  0  1  0  0  3  0  0  0  0  0  0
  184.0660  177.8960  146.5900 O   0  0  0  0  0  1  0  0  0  0  0  0
  186.1840  178.1300  147.6380 C   0  0  0  0  0  1  0  0  0  0  0  0
  1 16  1  6  0  0  0
  1 10  1  0  0  0  0
  1 20  1  0  0  0  0
  2 12  1  0  0  0  0
  4  3  1  0  0  0  0
  5 27  1  0  0  0  0
  6  5  1  0  0  0  0
  6 28  1  0  0  0  0
  7 19  1  6  0  0  0
  7 17  1  0  0  0  0
  9 28  1  0  0  0  0
  9 26  1  0  0  0  0
 10 20  1  0  0  0  0
 11  3  1  0  0  0  0
 12  8  1  0  0  0  0
 12 13  2  0  0  0  0
 13 11  1  0  0  0  0
 14 22  2  0  0  0  0
 15  9  2  0  0  0  0
 16 19  1  0  0  0  0
 17 10  1  0  0  0  0
 17  8  1  0  0  0  0
 18 15  1  0  0  0  0
 18  6  2  0  0  0  0
 20 29  1  0  0  0  0
 21  4  1  0  0  0  0
 22 13  1  0  0  0  0
 22 21  1  0  0  0  0
 23 14  1  0  0  0  0
 24  7  1  0  0  0  0
 24  2  1  0  0  0  0
 25  5  2  0  0  0  0
 27  2  2  0  0  0  0
 27 14  1  0  0  0  0
 28 23  2  0  0  0  0
 29 30  1  0  0  0  0
 30 32  1  0  0  0  0
 31 30  1  0  0  0  0
M  END
>  <MODEL>
5

>  <REMARK>
 VINA RESULT:      -8.4      2.701      4.716
  Name = 
  2 active torsions:
  status: ('A' for Active; 'I' for Inactive)
    1  A    between atoms: C_20  and  C_29
    2  A    between atoms: C_29  and  C_30
                            x       y       z     vdW  Elec       q    Type
                         _______ _______ _______ _____ _____    ______ ____

>  <TORSDO>
F 2

$$$$
=
 OpenBabel11112416343D

 32 38  0  0  1  0  0  0  0  0999 V2000
  190.0130  171.8780  139.3160 C   0  0  1  0  0  3  0  0  0  0  0  0
  188.5500  175.2930  143.0870 C   0  0  0  0  0  0  0  0  0  0  0  0
  192.1560  175.1700  146.2770 O   0  0  0  0  0  0  0  0  0  0  0  0
  191.2880  175.2910  147.3740 C   0  0  0  0  0  2  0  0  0  0  0  0
  186.5720  176.8610  143.4870 C   0  0  0  0  0  0  0  0  0  0  0  0
  185.8740  177.7210  144.4340 C   0  0  0  0  0  0  0  0  0  0  0  0
  188.9970  174.2970  140.8020 C   0  0  1  0  0  3  0  0  0  0  0  0
  190.5700  173.7880  142.6530 C   0  0  0  0  0  2  0  0  0  0  0  0
  185.4680  178.8220  146.2750 C   0  0  0  0  0  0  0  0  0  0  0  0
  190.6760  172.3210  140.6200 C   0  0  2  0  0  3  0  0  0  0  0  0
  191.5000  174.3450  145.3470 C   0  0  0  0  0  2  0  0  0  0  0  0
  189.7480  174.6910  143.5470 C   0  0  0  0  0  0  0  0  0  0  0  0
  190.2500  175.0100  144.8160 C   0  0  0  0  0  0  0  0  0  0  0  0
  188.3590  176.4930  145.2260 C   0  0  0  0  0  0  0  0  0  0  0  0
  184.4460  179.0370  145.3640 C   0  0  0  0  0  3  0  0  0  0  0  0
  188.5610  172.3770  139.1540 C   0  0  0  0  0  2  0  0  0  0  0  0
  189.7620  173.1790  141.5180 C   0  0  2  0  0  3  0  0  0  0  0  0
  184.7020  178.3540  144.2230 N   0  0  0  0  0  0  0  0  0  0  0  0
  188.3210  173.8510  139.5030 C   0  0  0  0  0  2  0  0  0  0  0  0
  191.0600  172.9840  139.3020 C   0  0  1  0  0  3  0  0  0  0  0  0
  190.1380  176.2310  147.0130 C   0  0  0  0  0  2  0  0  0  0  0  0
  189.5500  175.8870  145.6620 C   0  0  0  0  0  0  0  0  0  0  0  0
  187.6710  177.4610  146.1830 C   0  0  0  0  0  3  0  0  0  0  0  0
  187.9620  174.8660  141.7580 C   0  0  0  0  0  2  0  0  0  0  0  0
  186.0940  176.7090  142.3310 O   0  0  0  0  0  0  0  0  0  0  0  0
  185.5660  179.4080  147.6380 C   0  0  0  0  0  1  0  0  0  0  0  0
  187.8450  176.2020  143.9250 C   0  0  0  0  0  0  0  0  0  0  0  0
  186.3690  177.9800  145.6710 C   0  0  0  0  0  0  0  0  0  0  0  0
  192.3830  172.4150  138.8270 C   0  0  0  0  0  2  0  0  0  0  0  0
  192.6760  172.8780  137.4110 C   0  0  1  0  0  3  0  0  0  0  0  0
  192.2660  171.9050  136.4990 O   0  0  0  0  0  1  0  0  0  0  0  0
  191.9280  174.1660  137.1410 C   0  0  0  0  0  1  0  0  0  0  0  0
  1 16  1  1  0  0  0
  1 10  1  0  0  0  0
  2 12  2  0  0  0  0
  2 27  1  0  0  0  0
  3  4  1  0  0  0  0
  5 27  1  0  0  0  0
  5  6  1  0  0  0  0
  6 28  1  0  0  0  0
  7 19  1  6  0  0  0
  7 17  1  0  0  0  0
  7 24  1  0  0  0  0
  8 12  1  0  0  0  0
  9 26  1  0  0  0  0
 10 17  1  0  0  0  0
 11  3  1  0  0  0  0
 12 13  1  0  0  0  0
 13 11  1  0  0  0  0
 13 22  2  0  0  0  0
 14 22  1  0  0  0  0
 14 23  1  0  0  0  0
 15  9  2  0  0  0  0
 16 19  1  0  0  0  0
 17  8  1  0  0  0  0
 18  6  2  0  0  0  0
 18 15  1  0  0  0  0
 20  1  1  0  0  0  0
 20 10  1  0  0  0  0
 21  4  1  0  0  0  0
 22 21  1  0  0  0  0
 24  2  1  0  0  0  0
 25  5  2  0  0  0  0
 27 14  2  0  0  0  0
 28 23  2  0  0  0  0
 28  9  1  0  0  0  0
 29 20  1  0  0  0  0
 30 29  1  0  0  0  0
 31 30  1  0  0  0  0
 32 30  1  0  0  0  0
M  END
>  <MODEL>
6

>  <REMARK>
 VINA RESULT:      -8.4      2.797      8.247
  Name = 
  2 active torsions:
  status: ('A' for Active; 'I' for Inactive)
    1  A    between atoms: C_20  and  C_29
    2  A    between atoms: C_29  and  C_30
                            x       y       z     vdW  Elec       q    Type
                         _______ _______ _______ _____ _____    ______ ____

>  <TORSDO>
F 2

$$$$
=
 OpenBabel11112416343D

 32 38  0  0  1  0  0  0  0  0999 V2000
  186.1260  178.9600  144.0290 C   0  0  1  0  0  3  0  0  0  0  0  0
  188.3970  174.8990  141.5040 C   0  0  0  0  0  0  0  0  0  0  0  0
  190.4260  172.2940  145.0110 O   0  0  0  0  0  0  0  0  0  0  0  0
  191.5470  171.9750  144.2270 C   0  0  0  0  0  2  0  0  0  0  0  0
  188.5680  174.0970  139.0840 C   0  0  0  0  0  0  0  0  0  0  0  0
  189.2150  173.1860  138.1470 C   0  0  0  0  0  0  0  0  0  0  0  0
  186.6840  176.6300  142.1980 C   0  0  1  0  0  3  0  0  0  0  0  0
  188.1610  175.6520  143.9360 C   0  0  0  0  0  2  0  0  0  0  0  0
  190.4840  171.5630  137.4260 C   0  0  0  0  0  0  0  0  0  0  0  0
  186.9420  177.7650  144.5230 C   0  0  2  0  0  3  0  0  0  0  0  0
  190.0950  173.6240  144.6990 C   0  0  0  0  0  2  0  0  0  0  0  0
  188.7720  174.7720  142.8660 C   0  0  0  0  0  0  0  0  0  0  0  0
  189.6440  173.7500  143.2610 C   0  0  0  0  0  0  0  0  0  0  0  0
  189.8390  172.9820  140.9540 C   0  0  0  0  0  0  0  0  0  0  0  0
  189.8300  172.1570  136.3590 C   0  0  0  0  0  3  0  0  0  0  0  0
  186.1160  179.1160  142.4930 C   0  0  0  0  0  2  0  0  0  0  0  0
  187.5960  176.9520  143.3870 C   0  0  2  0  0  3  0  0  0  0  0  0
  189.0420  173.1630  136.8100 N   0  0  0  0  0  0  0  0  0  0  0  0
  185.8770  177.8290  141.6940 C   0  0  0  0  0  2  0  0  0  0  0  0
  185.4180  177.7080  144.5350 C   0  0  1  0  0  3  0  0  0  0  0  0
  191.1100  171.7620  142.7770 C   0  0  0  0  0  2  0  0  0  0  0  0
  190.1950  172.8740  142.3100 C   0  0  0  0  0  0  0  0  0  0  0  0
  190.4480  171.9760  139.9840 C   0  0  0  0  0  3  0  0  0  0  0  0
  187.5360  176.0670  141.0730 C   0  0  0  0  0  2  0  0  0  0  0  0
  187.7210  174.9230  138.6490 O   0  0  0  0  0  0  0  0  0  0  0  0
  191.4250  170.4140  137.3490 C   0  0  0  0  0  1  0  0  0  0  0  0
  188.9290  174.0020  140.5360 C   0  0  0  0  0  0  0  0  0  0  0  0
  190.0860  172.2300  138.5590 C   0  0  0  0  0  0  0  0  0  0  0  0
  184.9250  177.9500  145.9480 C   0  0  0  0  0  2  0  0  0  0  0  0
  186.0930  178.2550  146.8690 C   0  0  1  0  0  3  0  0  0  0  0  0
  185.8310  179.4140  147.6000 O   0  0  0  0  0  1  0  0  0  0  0  0
  186.2940  177.0970  147.8220 C   0  0  0  0  0  1  0  0  0  0  0  0
  1 16  1  6  0  0  0
  1 10  1  0  0  0  0
  1 20  1  0  0  0  0
  2 12  1  0  0  0  0
  4  3  1  0  0  0  0
  5 27  1  0  0  0  0
  6 28  1  0  0  0  0
  6  5  1  0  0  0  0
  7 24  1  6  0  0  0
  7 17  1  0  0  0  0
  9 28  1  0  0  0  0
 10 20  1  0  0  0  0
 11  3  1  0  0  0  0
 12 13  2  0  0  0  0
 12  8  1  0  0  0  0
 13 11  1  0  0  0  0
 14 22  2  0  0  0  0
 15 18  1  0  0  0  0
 15  9  2  0  0  0  0
 17  8  1  0  0  0  0
 17 10  1  0  0  0  0
 18  6  2  0  0  0  0
 19  7  1  0  0  0  0
 19 16  1  0  0  0  0
 20 29  1  0  0  0  0
 21  4  1  0  0  0  0
 22 21  1  0  0  0  0
 22 13  1  0  0  0  0
 23 14  1  0  0  0  0
 24  2  1  0  0  0  0
 25  5  2  0  0  0  0
 26  9  1  0  0  0  0
 27 14  1  0  0  0  0
 27  2  2  0  0  0  0
 28 23  2  0  0  0  0
 29 30  1  0  0  0  0
 30 31  1  0  0  0  0
 30 32  1  0  0  0  0
M  END
>  <MODEL>
7

>  <REMARK>
 VINA RESULT:      -8.3      3.282      5.732
  Name = 
  2 active torsions:
  status: ('A' for Active; 'I' for Inactive)
    1  A    between atoms: C_20  and  C_29
    2  A    between atoms: C_29  and  C_30
                            x       y       z     vdW  Elec       q    Type
                         _______ _______ _______ _____ _____    ______ ____

>  <TORSDO>
F 2

$$$$
=
 OpenBabel11112416343D

 32 38  0  0  1  0  0  0  0  0999 V2000
  186.1340  179.0150  143.7990 C   0  0  1  0  0  3  0  0  0  0  0  0
  189.0580  174.8360  142.3810 C   0  0  0  0  0  0  0  0  0  0  0  0
  192.1250  174.2220  146.0440 O   0  0  0  0  0  0  0  0  0  0  0  0
  193.1810  173.8570  145.1950 C   0  0  0  0  0  2  0  0  0  0  0  0
  189.1280  173.2220  140.4010 C   0  0  0  0  0  0  0  0  0  0  0  0
  189.8680  172.1710  139.7140 C   0  0  0  0  0  0  0  0  0  0  0  0
  187.0510  176.3240  142.7940 C   0  0  1  0  0  3  0  0  0  0  0  0
  188.9390  176.3960  144.4030 C   0  0  0  0  0  2  0  0  0  0  0  0
  191.4180  170.6820  139.3340 C   0  0  0  0  0  0  0  0  0  0  0  0
  187.2910  178.2860  144.4830 C   0  0  2  0  0  3  0  0  0  0  0  0
  191.4180  175.2390  145.3770 C   0  0  0  0  0  2  0  0  0  0  0  0
  189.6200  175.3150  143.5910 C   0  0  0  0  0  0  0  0  0  0  0  0
  190.7740  174.7150  144.1140 C   0  0  0  0  0  0  0  0  0  0  0  0
  190.8720  173.1810  142.2210 C   0  0  0  0  0  0  0  0  0  0  0  0
  190.5020  170.6810  138.2950 C   0  0  0  0  0  3  0  0  0  0  0  0
  185.8900  178.5690  142.3410 C   0  0  0  0  0  2  0  0  0  0  0  0
  187.9880  177.2480  143.5790 C   0  0  2  0  0  3  0  0  0  0  0  0
  189.5410  171.6050  138.5340 N   0  0  0  0  0  0  0  0  0  0  0  0
  185.9000  177.0540  142.0980 C   0  0  0  0  0  2  0  0  0  0  0  0
  185.8500  177.9380  144.8390 C   0  0  1  0  0  3  0  0  0  0  0  0
  192.6380  173.0260  144.0330 C   0  0  0  0  0  2  0  0  0  0  0  0
  191.4110  173.6700  143.4230 C   0  0  0  0  0  0  0  0  0  0  0  0
  191.5960  172.0230  141.5440 C   0  0  0  0  0  3  0  0  0  0  0  0
  187.8720  175.5550  141.7730 C   0  0  0  0  0  2  0  0  0  0  0  0
  188.0460  173.6340  139.9030 O   0  0  0  0  0  0  0  0  0  0  0  0
  192.6100  169.8010  139.4520 C   0  0  0  0  0  1  0  0  0  0  0  0
  189.6800  173.7610  141.6850 C   0  0  0  0  0  0  0  0  0  0  0  0
  191.0050  171.6370  140.2290 C   0  0  0  0  0  0  0  0  0  0  0  0
  185.4920  178.5970  146.1560 C   0  0  0  0  0  2  0  0  0  0  0  0
  186.5110  178.2330  147.2210 C   0  0  1  0  0  3  0  0  0  0  0  0
  186.3840  179.0920  148.3140 O   0  0  0  0  0  1  0  0  0  0  0  0
  186.2730  176.8090  147.6740 C   0  0  0  0  0  1  0  0  0  0  0  0
  1 16  1  6  0  0  0
  1 10  1  0  0  0  0
  1 20  1  0  0  0  0
  2 12  1  0  0  0  0
  4  3  1  0  0  0  0
  5 27  1  0  0  0  0
  6 28  1  0  0  0  0
  6  5  1  0  0  0  0
  7 24  1  6  0  0  0
  7 17  1  0  0  0  0
  9 26  1  0  0  0  0
  9 28  1  0  0  0  0
 10 20  1  0  0  0  0
 11  3  1  0  0  0  0
 12 13  2  0  0  0  0
 12  8  1  0  0  0  0
 13 11  1  0  0  0  0
 14 22  2  0  0  0  0
 15 18  1  0  0  0  0
 15  9  2  0  0  0  0
 17  8  1  0  0  0  0
 17 10  1  0  0  0  0
 18  6  2  0  0  0  0
 19 16  1  0  0  0  0
 19  7  1  0  0  0  0
 20 29  1  0  0  0  0
 21  4  1  0  0  0  0
 22 21  1  0  0  0  0
 22 13  1  0  0  0  0
 23 14  1  0  0  0  0
 24  2  1  0  0  0  0
 25  5  2  0  0  0  0
 27 14  1  0  0  0  0
 27  2  2  0  0  0  0
 28 23  2  0  0  0  0
 29 30  1  0  0  0  0
 30 32  1  0  0  0  0
 30 31  1  0  0  0  0
M  END
>  <MODEL>
8

>  <REMARK>
 VINA RESULT:      -7.9      2.709      5.246
  Name = 
  2 active torsions:
  status: ('A' for Active; 'I' for Inactive)
    1  A    between atoms: C_20  and  C_29
    2  A    between atoms: C_29  and  C_30
                            x       y       z     vdW  Elec       q    Type
                         _______ _______ _______ _____ _____    ______ ____

>  <TORSDO>
F 2

$$$$
=
 OpenBabel11112416343D

 32 38  0  0  1  0  0  0  0  0999 V2000
  191.6260  171.8490  139.9260 C   0  0  1  0  0  3  0  0  0  0  0  0
  189.2850  175.1970  143.2940 C   0  0  0  0  0  0  0  0  0  0  0  0
  192.5440  175.8620  146.7780 O   0  0  0  0  0  0  0  0  0  0  0  0
  191.5670  175.9040  147.7850 C   0  0  0  0  0  2  0  0  0  0  0  0
  187.0550  176.4390  143.4060 C   0  0  0  0  0  0  0  0  0  0  0  0
  186.1420  177.2280  144.2240 C   0  0  0  0  0  0  0  0  0  0  0  0
  190.1010  174.1520  141.1360 C   0  0  1  0  0  3  0  0  0  0  0  0
  191.5510  174.0220  143.1460 C   0  0  0  0  0  2  0  0  0  0  0  0
  185.3930  178.3550  145.9360 C   0  0  0  0  0  0  0  0  0  0  0  0
  192.0830  172.4730  141.2450 C   0  0  2  0  0  3  0  0  0  0  0  0
  192.1190  174.8860  145.8600 C   0  0  0  0  0  2  0  0  0  0  0  0
  190.5150  174.8290  143.8980 C   0  0  0  0  0  0  0  0  0  0  0  0
  190.8360  175.3020  145.1770 C   0  0  0  0  0  0  0  0  0  0  0  0
  188.7030  176.4760  145.3140 C   0  0  0  0  0  0  0  0  0  0  0  0
  184.4410  178.3440  144.9290 C   0  0  0  0  0  3  0  0  0  0  0  0
  190.1350  172.0920  139.6050 C   0  0  0  0  0  2  0  0  0  0  0  0
  190.9620  173.2210  141.9960 C   0  0  2  0  0  3  0  0  0  0  0  0
  184.9100  177.6440  143.8680 N   0  0  0  0  0  0  0  0  0  0  0  0
  189.6320  173.5240  139.8220 C   0  0  0  0  0  2  0  0  0  0  0  0
  192.4810  173.1100  139.9190 C   0  0  1  0  0  3  0  0  0  0  0  0
  190.3230  176.6180  147.2590 C   0  0  0  0  0  2  0  0  0  0  0  0
  189.9280  176.1010  145.8920 C   0  0  0  0  0  0  0  0  0  0  0  0
  187.7820  177.3730  146.1340 C   0  0  0  0  0  3  0  0  0  0  0  0
  188.9030  174.6000  141.9560 C   0  0  0  0  0  2  0  0  0  0  0  0
  186.7200  176.1400  142.2290 O   0  0  0  0  0  0  0  0  0  0  0  0
  185.2660  179.0300  147.2550 C   0  0  0  0  0  1  0  0  0  0  0  0
  188.3690  176.0260  143.9990 C   0  0  0  0  0  0  0  0  0  0  0  0
  186.4690  177.6380  145.4760 C   0  0  0  0  0  0  0  0  0  0  0  0
  193.9160  172.7390  139.6010 C   0  0  0  0  0  2  0  0  0  0  0  0
  194.8660  173.7820  140.1630 C   0  0  1  0  0  3  0  0  0  0  0  0
  196.0640  173.7670  139.4480 O   0  0  0  0  0  1  0  0  0  0  0  0
  194.2310  175.1510  140.0480 C   0  0  0  0  0  1  0  0  0  0  0  0
  1 16  1  1  0  0  0
  1 10  1  0  0  0  0
  2 12  2  0  0  0  0
  2 27  1  0  0  0  0
  3  4  1  0  0  0  0
  5 27  1  0  0  0  0
  5  6  1  0  0  0  0
  6 28  1  0  0  0  0
  7 19  1  6  0  0  0
  7 24  1  0  0  0  0
  7 17  1  0  0  0  0
  8 12  1  0  0  0  0
  9 26  1  0  0  0  0
 10 17  1  0  0  0  0
 11  3  1  0  0  0  0
 12 13  1  0  0  0  0
 13 11  1  0  0  0  0
 13 22  2  0  0  0  0
 14 22  1  0  0  0  0
 14 23  1  0  0  0  0
 15  9  2  0  0  0  0
 16 19  1  0  0  0  0
 17  8  1  0  0  0  0
 18  6  2  0  0  0  0
 18 15  1  0  0  0  0
 20  1  1  0  0  0  0
 20 10  1  0  0  0  0
 21  4  1  0  0  0  0
 22 21  1  0  0  0  0
 24  2  1  0  0  0  0
 25  5  2  0  0  0  0
 27 14  2  0  0  0  0
 28  9  1  0  0  0  0
 28 23  2  0  0  0  0
 29 20  1  0  0  0  0
 29 30  1  0  0  0  0
 31 30  1  0  0  0  0
 32 30  1  0  0  0  0
M  END
>  <MODEL>
9

>  <REMARK>
 VINA RESULT:      -7.8      2.790      8.384
  Name = 
  2 active torsions:
  status: ('A' for Active; 'I' for Inactive)
    1  A    between atoms: C_20  and  C_29
    2  A    between atoms: C_29  and  C_30
                            x       y       z     vdW  Elec       q    Type
                         _______ _______ _______ _____ _____    ______ ____

>  <TORSDO>
F 2

$$$$
