=
 OpenBabel11112417143D

 37 43  0  0  1  0  0  0  0  0999 V2000
  193.7930  174.7680  144.0490 O   0  0  0  0  0  0  0  0  0  0  0  0
  191.1370  171.1270  141.4820 C   0  0  0  0  0  0  0  0  0  0  0  0
  190.3580  175.2590  142.5400 C   0  0  1  0  0  3  0  0  0  0  0  0
  194.9720  174.9180  144.8040 C   0  0  2  0  0  3  0  0  0  0  0  0
  190.2100  174.9890  146.4900 C   0  0  0  0  0  2  0  0  0  0  0  0
  189.5690  173.1250  141.3690 C   0  0  1  0  0  3  0  0  0  0  0  0
  190.8790  175.1530  143.9730 C   0  0  1  0  0  3  0  0  0  0  0  0
  193.8060  176.1300  146.7320 C   0  0  2  0  0  3  0  0  0  0  0  0
  190.7700  173.9570  141.8510 C   0  0  2  0  0  3  0  0  0  0  0  0
  189.8110  175.4230  145.0680 C   0  0  2  0  0  3  0  0  0  0  0  0
  188.6710  173.9430  140.4420 C   0  0  0  0  0  2  0  0  0  0  0  0
  194.8840  176.1990  145.6400 C   0  0  0  0  0  2  0  0  0  0  0  0
  191.6890  173.2130  142.7390 N   0  0  2  0  0  0  0  0  0  0  0  0
  192.4330  171.1040  140.6940 C   0  0  0  0  0  1  0  0  0  0  0  0
  188.4570  176.9550  142.9060 C   0  0  0  0  0  2  0  0  0  0  0  0
  188.3470  175.3400  140.9950 C   0  0  0  0  0  2  0  0  0  0  0  0
  191.3750  171.7800  142.8510 C   0  0  0  0  0  2  0  0  0  0  0  0
  192.5880  175.5260  146.1890 N   0  0  2  0  0  0  0  0  0  0  0  0
  191.4310  175.7250  147.0570 C   0  0  0  0  0  2  0  0  0  0  0  0
  188.8440  175.5520  142.4250 C   0  0  1  0  0  3  0  0  0  0  0  0
  191.5560  173.7830  144.0770 C   0  0  1  0  0  3  0  0  0  0  0  0
  190.0670  171.8670  140.6670 C   0  0  0  0  0  2  0  0  0  0  0  0
  189.3400  176.8930  145.0580 C   0  0  1  0  0  3  0  0  0  0  0  0
  190.6800  169.7010  141.7000 C   0  0  0  0  0  1  0  0  0  0  0  0
  192.8100  174.1850  146.1170 O   0  0  0  0  0  0  0  0  0  0  0  0
  193.5570  177.4290  147.1850 O   0  0  0  0  0  1  0  0  0  0  0  0
  192.9390  173.8740  144.7440 C   0  0  2  0  0  3  0  0  0  0  0  0
  189.4000  177.5240  143.7900 O   0  0  0  0  0  0  0  0  0  0  0  0
  186.9190  176.4000  145.4690 C   0  0  0  0  0  3  0  0  0  0  0  0
  188.0550  177.1480  145.7980 C   0  0  0  0  0  0  0  0  0  0  0  0
  187.9840  178.0990  146.8280 C   0  0  0  0  0  3  0  0  0  0  0  0
  186.7140  179.3160  148.5980 C   0  0  0  0  0  1  0  0  0  0  0  0
  185.6500  177.5610  147.1750 C   0  0  0  0  0  3  0  0  0  0  0  0
  186.7840  178.3060  147.5120 C   0  0  0  0  0  0  0  0  0  0  0  0
  185.7180  176.6070  146.1550 C   0  0  0  0  0  3  0  0  0  0  0  0
  196.3790  176.3930  143.4790 N   0  0  0  0  0  1  0  0  0  0  0  0
  196.1650  175.0110  143.8720 C   0  0  0  0  0  2  0  0  0  0  0  0
  1 27  1  0  0  0  0
  1  4  1  0  0  0  0
  2 24  1  0  0  0  0
  2 17  1  0  0  0  0
  3  7  1  0  0  0  0
  4 12  1  0  0  0  0
  5 19  1  0  0  0  0
  6  9  1  0  0  0  0
  7 21  1  0  0  0  0
  7 10  1  0  0  0  0
  8 26  1  0  0  0  0
  9  3  1  0  0  0  0
  9 13  1  0  0  0  0
 10  5  1  0  0  0  0
 11 16  1  0  0  0  0
 11  6  1  0  0  0  0
 12  8  1  0  0  0  0
 13 17  1  0  0  0  0
 13 21  1  0  0  0  0
 14  2  1  0  0  0  0
 15 28  1  0  0  0  0
 16 20  1  0  0  0  0
 18  8  1  0  0  0  0
 18 19  1  0  0  0  0
 20  3  1  0  0  0  0
 20 15  1  0  0  0  0
 21 27  1  0  0  0  0
 22  6  1  0  0  0  0
 22  2  1  0  0  0  0
 23 10  1  0  0  0  0
 23 30  1  0  0  0  0
 25 18  1  0  0  0  0
 27 25  1  0  0  0  0
 28 23  1  0  0  0  0
 29 30  2  0  0  0  0
 29 35  1  0  0  0  0
 30 31  1  0  0  0  0
 31 34  2  0  0  0  0
 33 34  1  0  0  0  0
 34 32  1  0  0  0  0
 35 33  2  0  0  0  0
 36 37  1  0  0  0  0
 37  4  1  0  0  0  0
M  END
>  <MODEL>
1

>  <REMARK>
 VINA RESULT:      -8.9      0.000      0.000
  Name = 
  2 active torsions:
  status: ('A' for Active; 'I' for Inactive)
    1  A    between atoms: C_4  and  C_37
    2  A    between atoms: C_23  and  C_30
                            x       y       z     vdW  Elec       q    Type
                         _______ _______ _______ _____ _____    ______ ____

>  <TORSDO>
F 2

$$$$
=
 OpenBabel11112417143D

 37 43  0  0  1  0  0  0  0  0999 V2000
  191.4310  172.6500  143.0810 O   0  0  0  0  0  0  0  0  0  0  0  0
  195.0620  175.9630  144.7340 C   0  0  0  0  0  0  0  0  0  0  0  0
  190.9140  175.2540  145.7760 C   0  0  1  0  0  3  0  0  0  0  0  0
  191.2270  171.6770  142.0830 C   0  0  2  0  0  3  0  0  0  0  0  0
  189.1240  176.2610  142.3880 C   0  0  0  0  0  2  0  0  0  0  0  0
  193.0680  176.5700  146.1910 C   0  0  1  0  0  3  0  0  0  0  0  0
  190.4160  175.1050  144.3380 C   0  0  1  0  0  3  0  0  0  0  0  0
  188.9640  172.6270  141.3580 C   0  0  2  0  0  3  0  0  0  0  0  0
  192.4410  175.2580  145.6880 C   0  0  2  0  0  3  0  0  0  0  0  0
  189.3750  176.1730  143.9040 C   0  0  2  0  0  3  0  0  0  0  0  0
  192.6280  176.8780  147.6200 C   0  0  0  0  0  2  0  0  0  0  0  0
  189.7250  171.4180  141.9220 C   0  0  0  0  0  2  0  0  0  0  0  0
  192.8440  174.8950  144.3130 N   0  0  2  0  0  0  0  0  0  0  0  0
  195.8020  174.6530  144.9270 C   0  0  0  0  0  1  0  0  0  0  0  0
  188.8460  176.3720  146.8260 C   0  0  0  0  0  2  0  0  0  0  0  0
  191.1130  176.7310  147.8300 C   0  0  0  0  0  2  0  0  0  0  0  0
  193.8960  175.7600  143.7560 C   0  0  0  0  0  2  0  0  0  0  0  0
  189.4290  173.8540  142.0090 N   0  0  2  0  0  0  0  0  0  0  0  0
  188.5390  174.9850  141.7690 C   0  0  0  0  0  2  0  0  0  0  0  0
  190.3470  176.4790  146.5310 C   0  0  1  0  0  3  0  0  0  0  0  0
  191.6700  175.0520  143.4600 C   0  0  1  0  0  3  0  0  0  0  0  0
  194.5870  176.4780  146.1000 C   0  0  0  0  0  2  0  0  0  0  0  0
  188.0440  176.0200  144.6700 C   0  0  1  0  0  3  0  0  0  0  0  0
  196.0190  176.9740  144.1420 C   0  0  0  0  0  1  0  0  0  0  0  0
  190.6320  174.1640  141.4520 O   0  0  0  0  0  0  0  0  0  0  0  0
  187.5990  172.4310  141.5850 O   0  0  0  0  0  1  0  0  0  0  0  0
  191.6090  173.9020  142.4410 C   0  0  2  0  0  3  0  0  0  0  0  0
  188.1710  175.4730  145.9710 O   0  0  0  0  0  0  0  0  0  0  0  0
  187.3680  178.1960  143.6290 C   0  0  0  0  0  3  0  0  0  0  0  0
  187.1390  177.2210  144.6060 C   0  0  0  0  0  0  0  0  0  0  0  0
  186.0570  177.3640  145.4880 C   0  0  0  0  0  3  0  0  0  0  0  0
  184.0790  178.6290  146.3370 C   0  0  0  0  0  1  0  0  0  0  0  0
  185.4570  179.4540  144.4240 C   0  0  0  0  0  3  0  0  0  0  0  0
  185.2200  178.4810  145.3980 C   0  0  0  0  0  0  0  0  0  0  0  0
  186.5300  179.3120  143.5390 C   0  0  0  0  0  3  0  0  0  0  0  0
  192.3630  170.4690  143.8600 N   0  0  0  0  0  1  0  0  0  0  0  0
  191.9160  170.3860  142.4800 C   0  0  0  0  0  2  0  0  0  0  0  0
  2 14  1  0  0  0  0
  2 22  1  0  0  0  0
  3 20  1  0  0  0  0
  4 37  1  0  0  0  0
  4  1  1  0  0  0  0
  5 10  1  0  0  0  0
  6 11  1  0  0  0  0
  7  3  1  0  0  0  0
  8 26  1  0  0  0  0
  8 12  1  0  0  0  0
  8 18  1  0  0  0  0
  9  3  1  0  0  0  0
  9  6  1  0  0  0  0
 10  7  1  0  0  0  0
 10 23  1  0  0  0  0
 11 16  1  0  0  0  0
 12  4  1  0  0  0  0
 13  9  1  0  0  0  0
 17 13  1  0  0  0  0
 17  2  1  0  0  0  0
 19 18  1  0  0  0  0
 19  5  1  0  0  0  0
 20 15  1  0  0  0  0
 20 16  1  0  0  0  0
 21 13  1  0  0  0  0
 21  7  1  0  0  0  0
 22  6  1  0  0  0  0
 23 28  1  0  0  0  0
 24  2  1  0  0  0  0
 25 18  1  0  0  0  0
 25 27  1  0  0  0  0
 27  1  1  0  0  0  0
 27 21  1  0  0  0  0
 28 15  1  0  0  0  0
 29 30  1  0  0  0  0
 30 23  1  0  0  0  0
 30 31  2  0  0  0  0
 33 34  2  0  0  0  0
 34 31  1  0  0  0  0
 34 32  1  0  0  0  0
 35 29  2  0  0  0  0
 35 33  1  0  0  0  0
 37 36  1  0  0  0  0
M  END
>  <MODEL>
2

>  <REMARK>
 VINA RESULT:      -8.8      2.098      5.399
  Name = 
  2 active torsions:
  status: ('A' for Active; 'I' for Inactive)
    1  A    between atoms: C_4  and  C_37
    2  A    between atoms: C_23  and  C_30
                            x       y       z     vdW  Elec       q    Type
                         _______ _______ _______ _____ _____    ______ ____

>  <TORSDO>
F 2

$$$$
=
 OpenBabel11112417143D

 37 43  0  0  1  0  0  0  0  0999 V2000
  191.3980  172.6020  142.4300 O   0  0  0  0  0  0  0  0  0  0  0  0
  195.3140  175.8350  143.4810 C   0  0  0  0  0  0  0  0  0  0  0  0
  191.5580  174.8980  145.4330 C   0  0  1  0  0  3  0  0  0  0  0  0
  190.9550  171.7320  141.4160 C   0  0  2  0  0  3  0  0  0  0  0  0
  188.9790  176.1950  142.7200 C   0  0  0  0  0  2  0  0  0  0  0  0
  193.7440  176.2290  145.4410 C   0  0  1  0  0  3  0  0  0  0  0  0
  190.7200  174.8840  144.1560 C   0  0  1  0  0  3  0  0  0  0  0  0
  188.5790  172.6830  141.3790 C   0  0  2  0  0  3  0  0  0  0  0  0
  193.0150  174.9570  144.9720 C   0  0  2  0  0  3  0  0  0  0  0  0
  189.5990  175.9590  144.1090 C   0  0  2  0  0  3  0  0  0  0  0  0
  193.6720  176.3750  146.9600 C   0  0  0  0  0  2  0  0  0  0  0  0
  189.4610  171.4460  141.6040 C   0  0  0  0  0  2  0  0  0  0  0  0
  193.0650  174.7500  143.5090 N   0  0  2  0  0  0  0  0  0  0  0  0
  196.0840  174.5350  143.3440 C   0  0  0  0  0  1  0  0  0  0  0  0
  189.8140  175.8400  147.0750 C   0  0  0  0  0  2  0  0  0  0  0  0
  192.2570  176.1610  147.5210 C   0  0  0  0  0  2  0  0  0  0  0  0
  193.9430  175.6990  142.8050 C   0  0  0  0  0  2  0  0  0  0  0  0
  189.1880  173.8500  142.0220 N   0  0  2  0  0  0  0  0  0  0  0  0
  188.2620  174.9730  142.1320 C   0  0  0  0  0  2  0  0  0  0  0  0
  191.1930  176.0220  146.4320 C   0  0  1  0  0  3  0  0  0  0  0  0
  191.7150  174.9590  142.9950 C   0  0  1  0  0  3  0  0  0  0  0  0
  195.1930  176.1920  144.9690 C   0  0  0  0  0  2  0  0  0  0  0  0
  188.5010  175.6890  145.1600 C   0  0  1  0  0  3  0  0  0  0  0  0
  196.0910  176.9300  142.7820 C   0  0  0  0  0  1  0  0  0  0  0  0
  190.2130  174.2510  141.2220 O   0  0  0  0  0  0  0  0  0  0  0  0
  187.3140  172.4240  141.9140 O   0  0  0  0  0  1  0  0  0  0  0  0
  191.4060  173.9180  141.9050 C   0  0  2  0  0  3  0  0  0  0  0  0
  188.9500  175.0140  146.3220 O   0  0  0  0  0  0  0  0  0  0  0  0
  187.2900  177.1680  146.7780 C   0  0  0  0  0  3  0  0  0  0  0  0
  187.6040  176.8620  145.4500 C   0  0  0  0  0  0  0  0  0  0  0  0
  187.1030  177.6680  144.4160 C   0  0  0  0  0  3  0  0  0  0  0  0
  185.7540  179.6080  143.6130 C   0  0  0  0  0  1  0  0  0  0  0  0
  185.9690  179.0590  146.0400 C   0  0  0  0  0  3  0  0  0  0  0  0
  186.2850  178.7610  144.7120 C   0  0  0  0  0  0  0  0  0  0  0  0
  186.4730  178.2630  147.0740 C   0  0  0  0  0  3  0  0  0  0  0  0
  190.8010  169.3130  141.6030 N   0  0  0  0  0  1  0  0  0  0  0  0
  191.7260  170.4280  141.4900 C   0  0  0  0  0  2  0  0  0  0  0  0
  2 22  1  0  0  0  0
  3 20  1  0  0  0  0
  4 37  1  0  0  0  0
  4 12  1  0  0  0  0
  4  1  1  0  0  0  0
  5 10  1  0  0  0  0
  6 11  1  0  0  0  0
  7  3  1  0  0  0  0
  8 12  1  0  0  0  0
  8 26  1  0  0  0  0
  8 18  1  0  0  0  0
  9  3  1  0  0  0  0
  9  6  1  0  0  0  0
 10  7  1  0  0  0  0
 10 23  1  0  0  0  0
 11 16  1  0  0  0  0
 13  9  1  0  0  0  0
 14  2  1  0  0  0  0
 17  2  1  0  0  0  0
 17 13  1  0  0  0  0
 18 19  1  0  0  0  0
 19  5  1  0  0  0  0
 20 15  1  0  0  0  0
 20 16  1  0  0  0  0
 21 13  1  0  0  0  0
 21  7  1  0  0  0  0
 22  6  1  0  0  0  0
 23 30  1  0  0  0  0
 23 28  1  0  0  0  0
 24  2  1  0  0  0  0
 25 27  1  0  0  0  0
 25 18  1  0  0  0  0
 27  1  1  0  0  0  0
 27 21  1  0  0  0  0
 28 15  1  0  0  0  0
 29 35  1  0  0  0  0
 30 29  2  0  0  0  0
 31 34  2  0  0  0  0
 31 30  1  0  0  0  0
 32 34  1  0  0  0  0
 33 35  2  0  0  0  0
 34 33  1  0  0  0  0
 37 36  1  0  0  0  0
M  END
>  <MODEL>
3

>  <REMARK>
 VINA RESULT:      -8.4      2.134      5.447
  Name = 
  2 active torsions:
  status: ('A' for Active; 'I' for Inactive)
    1  A    between atoms: C_4  and  C_37
    2  A    between atoms: C_23  and  C_30
                            x       y       z     vdW  Elec       q    Type
                         _______ _______ _______ _____ _____    ______ ____

>  <TORSDO>
F 2

$$$$
=
 OpenBabel11112417143D

 37 43  0  0  1  0  0  0  0  0999 V2000
  190.7960  173.2420  141.6770 O   0  0  0  0  0  0  0  0  0  0  0  0
  189.5110  175.5250  146.1520 C   0  0  0  0  0  0  0  0  0  0  0  0
  193.2510  174.2400  144.3760 C   0  0  1  0  0  3  0  0  0  0  0  0
  190.1920  172.6550  140.5490 C   0  0  2  0  0  3  0  0  0  0  0  0
  192.6990  170.3190  144.2610 C   0  0  0  0  0  2  0  0  0  0  0  0
  192.0410  175.3560  146.3360 C   0  0  1  0  0  3  0  0  0  0  0  0
  192.7270  172.8980  143.8660 C   0  0  1  0  0  3  0  0  0  0  0  0
  191.6380  170.5450  140.6400 C   0  0  2  0  0  3  0  0  0  0  0  0
  192.0180  175.0200  144.8340 C   0  0  2  0  0  3  0  0  0  0  0  0
  193.4260  171.6570  144.4860 C   0  0  2  0  0  3  0  0  0  0  0  0
  193.3100  176.1220  146.7080 C   0  0  0  0  0  2  0  0  0  0  0  0
  191.2130  171.7740  139.8220 C   0  0  0  0  0  2  0  0  0  0  0  0
  190.8030  174.2930  144.4070 N   0  0  2  0  0  0  0  0  0  0  0  0
  188.8590  176.4870  145.1770 C   0  0  0  0  0  1  0  0  0  0  0  0
  195.6660  173.5600  144.9550 C   0  0  0  0  0  2  0  0  0  0  0  0
  194.5870  175.4870  146.1380 C   0  0  0  0  0  2  0  0  0  0  0  0
  189.7780  174.1840  145.4570 C   0  0  0  0  0  2  0  0  0  0  0  0
  191.8650  170.9320  142.0340 N   0  0  2  0  0  0  0  0  0  0  0  0
  192.5760  169.9050  142.7890 C   0  0  0  0  0  2  0  0  0  0  0  0
  194.3410  174.1340  145.4700 C   0  0  1  0  0  3  0  0  0  0  0  0
  191.2100  172.9330  144.0660 C   0  0  1  0  0  3  0  0  0  0  0  0
  190.7980  176.1600  146.6990 C   0  0  0  0  0  2  0  0  0  0  0  0
  194.9040  171.5550  144.0520 C   0  0  1  0  0  3  0  0  0  0  0  0
  188.5590  175.2910  147.3060 C   0  0  0  0  0  1  0  0  0  0  0  0
  190.6390  171.0760  142.6080 O   0  0  0  0  0  0  0  0  0  0  0  0
  192.8030  170.0220  140.0730 O   0  0  0  0  0  1  0  0  0  0  0  0
  190.4540  172.4630  142.8110 C   0  0  2  0  0  3  0  0  0  0  0  0
  195.5250  172.7990  143.7740 O   0  0  0  0  0  0  0  0  0  0  0  0
  197.0840  170.4260  144.5450 C   0  0  0  0  0  3  0  0  0  0  0  0
  195.7460  170.6350  144.8940 C   0  0  0  0  0  0  0  0  0  0  0  0
  195.2200  170.0080  146.0340 C   0  0  0  0  0  3  0  0  0  0  0  0
  195.4640  168.5060  148.0130 C   0  0  0  0  0  1  0  0  0  0  0  0
  197.3610  168.9590  146.4530 C   0  0  0  0  0  3  0  0  0  0  0  0
  196.0260  169.1700  146.8090 C   0  0  0  0  0  0  0  0  0  0  0  0
  197.8910  169.5880  145.3220 C   0  0  0  0  0  3  0  0  0  0  0  0
  188.5660  174.4260  140.1870 N   0  0  0  0  0  1  0  0  0  0  0  0
  189.7080  173.7400  139.6060 C   0  0  0  0  0  2  0  0  0  0  0  0
  1 27  1  0  0  0  0
  2 22  1  0  0  0  0
  2 24  1  0  0  0  0
  3  9  1  0  0  0  0
  3 20  1  0  0  0  0
  4  1  1  0  0  0  0
  5 10  1  0  0  0  0
  6 22  1  0  0  0  0
  6 11  1  0  0  0  0
  7 21  1  0  0  0  0
  7  3  1  0  0  0  0
  7 10  1  0  0  0  0
  8 18  1  0  0  0  0
  9  6  1  0  0  0  0
 12  4  1  0  0  0  0
 12  8  1  0  0  0  0
 13  9  1  0  0  0  0
 13 17  1  0  0  0  0
 14  2  1  0  0  0  0
 15 20  1  0  0  0  0
 16 11  1  0  0  0  0
 17  2  1  0  0  0  0
 18 25  1  0  0  0  0
 18 19  1  0  0  0  0
 19  5  1  0  0  0  0
 20 16  1  0  0  0  0
 21 13  1  0  0  0  0
 23 10  1  0  0  0  0
 23 30  1  0  0  0  0
 25 27  1  0  0  0  0
 26  8  1  0  0  0  0
 27 21  1  0  0  0  0
 28 23  1  0  0  0  0
 28 15  1  0  0  0  0
 29 30  2  0  0  0  0
 29 35  1  0  0  0  0
 30 31  1  0  0  0  0
 31 34  2  0  0  0  0
 33 34  1  0  0  0  0
 34 32  1  0  0  0  0
 35 33  2  0  0  0  0
 37 36  1  0  0  0  0
 37  4  1  0  0  0  0
M  END
>  <MODEL>
4

>  <REMARK>
 VINA RESULT:      -8.2      3.248      8.136
  Name = 
  2 active torsions:
  status: ('A' for Active; 'I' for Inactive)
    1  A    between atoms: C_4  and  C_37
    2  A    between atoms: C_23  and  C_30
                            x       y       z     vdW  Elec       q    Type
                         _______ _______ _______ _____ _____    ______ ____

>  <TORSDO>
F 2

$$$$
=
 OpenBabel11112417143D

 37 43  0  0  1  0  0  0  0  0999 V2000
  188.6380  174.6360  139.6950 O   0  0  0  0  0  0  0  0  0  0  0  0
  186.7640  177.0660  143.8750 C   0  0  0  0  0  0  0  0  0  0  0  0
  190.7470  176.0530  142.4980 C   0  0  1  0  0  3  0  0  0  0  0  0
  188.1910  173.9190  138.5690 C   0  0  2  0  0  3  0  0  0  0  0  0
  190.5840  172.0960  142.6290 C   0  0  0  0  0  2  0  0  0  0  0  0
  189.2730  177.1670  144.2690 C   0  0  1  0  0  3  0  0  0  0  0  0
  190.3990  174.6340  142.0480 C   0  0  1  0  0  3  0  0  0  0  0  0
  189.8190  171.9770  138.9280 C   0  0  2  0  0  3  0  0  0  0  0  0
  189.4100  176.7320  142.7990 C   0  0  2  0  0  3  0  0  0  0  0  0
  191.1580  173.5130  142.8110 C   0  0  2  0  0  3  0  0  0  0  0  0
  190.4260  178.0790  144.6820 C   0  0  0  0  0  2  0  0  0  0  0  0
  189.3510  173.1010  137.9910 C   0  0  0  0  0  2  0  0  0  0  0  0
  188.3120  175.8590  142.3320 N   0  0  2  0  0  0  0  0  0  0  0  0
  186.1080  177.8910  142.7830 C   0  0  0  0  0  1  0  0  0  0  0  0
  193.1570  175.6600  143.3140 C   0  0  0  0  0  2  0  0  0  0  0  0
  191.8030  177.5410  144.2630 C   0  0  0  0  0  2  0  0  0  0  0  0
  187.2160  175.7160  143.3030 C   0  0  0  0  0  2  0  0  0  0  0  0
  189.8880  172.4750  140.3040 N   0  0  2  0  0  0  0  0  0  0  0  0
  190.6280  171.5770  141.1860 C   0  0  0  0  0  2  0  0  0  0  0  0
  191.7440  176.1290  143.6790 C   0  0  1  0  0  3  0  0  0  0  0  0
  188.8740  174.5280  142.1250 C   0  0  1  0  0  3  0  0  0  0  0  0
  187.9320  177.8620  144.4730 C   0  0  0  0  0  2  0  0  0  0  0  0
  192.6710  173.5330  142.5030 C   0  0  1  0  0  3  0  0  0  0  0  0
  185.7430  176.8130  144.9640 C   0  0  0  0  0  1  0  0  0  0  0  0
  188.6100  172.5310  140.7680 O   0  0  0  0  0  0  0  0  0  0  0  0
  191.0730  171.5380  138.4950 O   0  0  0  0  0  1  0  0  0  0  0  0
  188.2760  173.9030  140.8530 C   0  0  2  0  0  3  0  0  0  0  0  0
  193.1910  174.8120  142.1840 O   0  0  0  0  0  0  0  0  0  0  0  0
  193.2440  172.8470  144.8420 C   0  0  0  0  0  3  0  0  0  0  0  0
  193.5210  172.7600  143.4740 C   0  0  0  0  0  0  0  0  0  0  0  0
  194.5660  171.9350  143.0290 C   0  0  0  0  0  3  0  0  0  0  0  0
  196.4390  170.3460  143.4730 C   0  0  0  0  0  1  0  0  0  0  0  0
  195.0550  171.3090  145.3160 C   0  0  0  0  0  3  0  0  0  0  0  0
  195.3320  171.2150  143.9490 C   0  0  0  0  0  0  0  0  0  0  0  0
  194.0100  172.1240  145.7630 C   0  0  0  0  0  3  0  0  0  0  0  0
  188.6060  174.9090  136.3880 N   0  0  0  0  0  1  0  0  0  0  0  0
  187.6880  174.8850  137.5140 C   0  0  0  0  0  2  0  0  0  0  0  0
  1 27  1  0  0  0  0
  2 22  1  0  0  0  0
  2 24  1  0  0  0  0
  3  9  1  0  0  0  0
  3 20  1  0  0  0  0
  4  1  1  0  0  0  0
  5 10  1  0  0  0  0
  6 22  1  0  0  0  0
  6 11  1  0  0  0  0
  7 21  1  0  0  0  0
  7  3  1  0  0  0  0
  7 10  1  0  0  0  0
  8 18  1  0  0  0  0
  9  6  1  0  0  0  0
 12  4  1  0  0  0  0
 12  8  1  0  0  0  0
 13  9  1  0  0  0  0
 13 17  1  0  0  0  0
 14  2  1  0  0  0  0
 15 20  1  0  0  0  0
 16 11  1  0  0  0  0
 17  2  1  0  0  0  0
 18 25  1  0  0  0  0
 18 19  1  0  0  0  0
 19  5  1  0  0  0  0
 20 16  1  0  0  0  0
 21 13  1  0  0  0  0
 23 10  1  0  0  0  0
 23 30  1  0  0  0  0
 25 27  1  0  0  0  0
 26  8  1  0  0  0  0
 27 21  1  0  0  0  0
 28 23  1  0  0  0  0
 28 15  1  0  0  0  0
 29 35  1  0  0  0  0
 30 29  2  0  0  0  0
 31 30  1  0  0  0  0
 31 34  2  0  0  0  0
 32 34  1  0  0  0  0
 33 35  2  0  0  0  0
 34 33  1  0  0  0  0
 36 37  1  0  0  0  0
 37  4  1  0  0  0  0
M  END
>  <MODEL>
5

>  <REMARK>
 VINA RESULT:      -7.9      2.977      7.707
  Name = 
  2 active torsions:
  status: ('A' for Active; 'I' for Inactive)
    1  A    between atoms: C_4  and  C_37
    2  A    between atoms: C_23  and  C_30
                            x       y       z     vdW  Elec       q    Type
                         _______ _______ _______ _____ _____    ______ ____

>  <TORSDO>
F 2

$$$$
=
 OpenBabel11112417143D

 37 43  0  0  1  0  0  0  0  0999 V2000
  191.3360  176.2200  146.0520 O   0  0  0  0  0  0  0  0  0  0  0  0
  187.1530  177.3490  143.2030 C   0  0  0  0  0  0  0  0  0  0  0  0
  190.0240  174.1010  143.2070 C   0  0  1  0  0  3  0  0  0  0  0  0
  192.1480  176.7850  147.0560 C   0  0  2  0  0  3  0  0  0  0  0  0
  193.3280  176.0410  142.2000 C   0  0  0  0  0  2  0  0  0  0  0  0
  187.9140  175.1410  142.1990 C   0  0  1  0  0  3  0  0  0  0  0  0
  191.2570  174.9850  143.3860 C   0  0  1  0  0  3  0  0  0  0  0  0
  194.3370  176.2690  145.8360 C   0  0  2  0  0  3  0  0  0  0  0  0
  188.8200  175.0160  143.4370 C   0  0  2  0  0  3  0  0  0  0  0  0
  192.2700  174.9220  142.2100 C   0  0  2  0  0  3  0  0  0  0  0  0
  187.4410  173.7690  141.7230 C   0  0  0  0  0  2  0  0  0  0  0  0
  193.4910  176.0500  147.0990 C   0  0  0  0  0  2  0  0  0  0  0  0
  189.2970  176.3150  143.9570 N   0  0  2  0  0  0  0  0  0  0  0  0
  186.5420  177.4090  144.5910 C   0  0  0  0  0  1  0  0  0  0  0  0
  191.0340  172.2600  141.7180 C   0  0  0  0  0  2  0  0  0  0  0  0
  188.5770  172.7390  141.6270 C   0  0  0  0  0  2  0  0  0  0  0  0
  188.6790  177.4790  143.3030 C   0  0  0  0  0  2  0  0  0  0  0  0
  193.4870  176.1700  144.6470 N   0  0  2  0  0  0  0  0  0  0  0  0
  194.2620  176.0400  143.4160 C   0  0  0  0  0  2  0  0  0  0  0  0
  189.9620  173.3460  141.8580 C   0  0  1  0  0  3  0  0  0  0  0  0
  190.7300  176.3900  143.6910 C   0  0  1  0  0  3  0  0  0  0  0  0
  186.7270  176.0410  142.5230 C   0  0  0  0  0  2  0  0  0  0  0  0
  192.9420  173.5360  142.1050 C   0  0  1  0  0  3  0  0  0  0  0  0
  186.6200  178.5110  142.3930 C   0  0  0  0  0  1  0  0  0  0  0  0
  192.7910  177.3360  144.5620 O   0  0  0  0  0  0  0  0  0  0  0  0
  195.3440  175.3000  145.8080 O   0  0  0  0  0  1  0  0  0  0  0  0
  191.4510  177.0260  144.8920 C   0  0  2  0  0  3  0  0  0  0  0  0
  192.1450  172.4580  142.5670 O   0  0  0  0  0  0  0  0  0  0  0  0
  194.6890  172.3590  140.7510 C   0  0  0  0  0  3  0  0  0  0  0  0
  193.6230  173.2640  140.7920 C   0  0  0  0  0  0  0  0  0  0  0  0
  193.1910  173.8790  139.6070 C   0  0  0  0  0  3  0  0  0  0  0  0
  193.3700  174.2540  137.1450 C   0  0  0  0  0  1  0  0  0  0  0  0
  194.8980  172.6980  138.3620 C   0  0  0  0  0  3  0  0  0  0  0  0
  193.8290  173.5980  138.3960 C   0  0  0  0  0  0  0  0  0  0  0  0
  195.3270  172.0770  139.5390 C   0  0  0  0  0  3  0  0  0  0  0  0
  191.5660  177.9010  149.1350 N   0  0  0  0  0  1  0  0  0  0  0  0
  191.4620  176.6510  148.4020 C   0  0  0  0  0  2  0  0  0  0  0  0
  1  4  1  0  0  0  0
  2 17  1  0  0  0  0
  2 14  1  0  0  0  0
  3  7  1  0  0  0  0
  3  9  1  0  0  0  0
  4 12  1  0  0  0  0
  4 37  1  0  0  0  0
  5 10  1  0  0  0  0
  5 19  1  0  0  0  0
  6 22  1  0  0  0  0
  6  9  1  0  0  0  0
  7 21  1  0  0  0  0
  8 12  1  0  0  0  0
  9 13  1  0  0  0  0
 10  7  1  0  0  0  0
 11  6  1  0  0  0  0
 15 20  1  0  0  0  0
 15 28  1  0  0  0  0
 16 11  1  0  0  0  0
 16 20  1  0  0  0  0
 17 13  1  0  0  0  0
 18  8  1  0  0  0  0
 19 18  1  0  0  0  0
 20  3  1  0  0  0  0
 21 13  1  0  0  0  0
 21 27  1  0  0  0  0
 22  2  1  0  0  0  0
 23 10  1  0  0  0  0
 23 28  1  0  0  0  0
 24  2  1  0  0  0  0
 25 18  1  0  0  0  0
 25 27  1  0  0  0  0
 26  8  1  0  0  0  0
 27  1  1  0  0  0  0
 29 30  1  0  0  0  0
 30 23  1  0  0  0  0
 31 30  2  0  0  0  0
 32 34  1  0  0  0  0
 33 34  2  0  0  0  0
 33 35  1  0  0  0  0
 34 31  1  0  0  0  0
 35 29  2  0  0  0  0
 37 36  1  0  0  0  0
M  END
>  <MODEL>
6

>  <REMARK>
 VINA RESULT:      -7.5      2.365      6.731
  Name = 
  2 active torsions:
  status: ('A' for Active; 'I' for Inactive)
    1  A    between atoms: C_4  and  C_37
    2  A    between atoms: C_23  and  C_30
                            x       y       z     vdW  Elec       q    Type
                         _______ _______ _______ _____ _____    ______ ____

>  <TORSDO>
F 2

$$$$
=
 OpenBabel11112417143D

 37 43  0  0  1  0  0  0  0  0999 V2000
  191.2350  175.5910  145.4250 O   0  0  0  0  0  0  0  0  0  0  0  0
  187.5430  176.6840  141.9510 C   0  0  0  0  0  0  0  0  0  0  0  0
  190.7950  173.8220  142.1100 C   0  0  1  0  0  3  0  0  0  0  0  0
  191.7540  176.0750  146.6410 C   0  0  2  0  0  3  0  0  0  0  0  0
  193.9190  176.2580  142.0800 C   0  0  0  0  0  2  0  0  0  0  0  0
  188.7860  174.7660  140.8370 C   0  0  1  0  0  3  0  0  0  0  0  0
  191.8340  174.7990  142.6590 C   0  0  1  0  0  3  0  0  0  0  0  0
  194.1850  176.0120  145.8430 C   0  0  2  0  0  3  0  0  0  0  0  0
  189.4520  174.5470  142.2070 C   0  0  2  0  0  3  0  0  0  0  0  0
  193.0490  175.0400  141.7200 C   0  0  2  0  0  3  0  0  0  0  0  0
  188.6110  173.4440  140.0930 C   0  0  0  0  0  2  0  0  0  0  0  0
  193.1570  175.4990  146.8620 C   0  0  0  0  0  2  0  0  0  0  0  0
  189.6330  175.7910  142.9850 N   0  0  2  0  0  0  0  0  0  0  0  0
  186.6810  176.4510  143.1770 C   0  0  0  0  0  1  0  0  0  0  0  0
  192.3190  172.3690  140.6280 C   0  0  0  0  0  2  0  0  0  0  0  0
  189.8800  172.5770  140.0960 C   0  0  0  0  0  2  0  0  0  0  0  0
  188.9890  176.9680  142.3810 C   0  0  0  0  0  2  0  0  0  0  0  0
  193.5960  176.0100  144.5010 N   0  0  2  0  0  0  0  0  0  0  0  0
  194.5980  176.1670  143.4520 C   0  0  0  0  0  2  0  0  0  0  0  0
  191.0950  173.2910  140.6880 C   0  0  1  0  0  3  0  0  0  0  0  0
  191.0650  176.0680  143.0340 C   0  0  1  0  0  3  0  0  0  0  0  0
  187.4430  175.4620  141.0270 C   0  0  0  0  0  2  0  0  0  0  0  0
  193.9180  173.7730  141.5700 C   0  0  1  0  0  3  0  0  0  0  0  0
  187.0120  177.8940  141.2120 C   0  0  0  0  0  1  0  0  0  0  0  0
  192.7690  177.0890  144.4320 O   0  0  0  0  0  0  0  0  0  0  0  0
  195.3060  175.1800  145.8940 O   0  0  0  0  0  1  0  0  0  0  0  0
  191.4490  176.5800  144.4330 C   0  0  2  0  0  3  0  0  0  0  0  0
  193.2110  172.5520  141.7080 O   0  0  0  0  0  0  0  0  0  0  0  0
  196.0820  173.1100  140.4980 C   0  0  0  0  0  3  0  0  0  0  0  0
  194.8660  173.7940  140.4020 C   0  0  0  0  0  0  0  0  0  0  0  0
  194.5380  174.4620  139.2120 C   0  0  0  0  0  3  0  0  0  0  0  0
  195.0790  175.1660  136.8790 C   0  0  0  0  0  1  0  0  0  0  0  0
  196.6450  173.7740  138.2380 C   0  0  0  0  0  3  0  0  0  0  0  0
  195.4280  174.4540  138.1340 C   0  0  0  0  0  0  0  0  0  0  0  0
  196.9720  173.1010  139.4190 C   0  0  0  0  0  3  0  0  0  0  0  0
  189.7050  174.9280  147.2690 N   0  0  0  0  0  1  0  0  0  0  0  0
  190.8540  175.6510  147.7860 C   0  0  0  0  0  2  0  0  0  0  0  0
  1  4  1  0  0  0  0
  2 17  1  0  0  0  0
  2 14  1  0  0  0  0
  3  9  1  0  0  0  0
  3  7  1  0  0  0  0
  4 12  1  0  0  0  0
  4 37  1  0  0  0  0
  5 19  1  0  0  0  0
  6 22  1  0  0  0  0
  6  9  1  0  0  0  0
  7 21  1  0  0  0  0
  8 26  1  0  0  0  0
  8 12  1  0  0  0  0
  9 13  1  0  0  0  0
 10  5  1  0  0  0  0
 10  7  1  0  0  0  0
 11 16  1  0  0  0  0
 11  6  1  0  0  0  0
 13 21  1  0  0  0  0
 15 20  1  0  0  0  0
 15 28  1  0  0  0  0
 16 20  1  0  0  0  0
 17 13  1  0  0  0  0
 18  8  1  0  0  0  0
 19 18  1  0  0  0  0
 20  3  1  0  0  0  0
 21 27  1  0  0  0  0
 22  2  1  0  0  0  0
 23 28  1  0  0  0  0
 23 10  1  0  0  0  0
 24  2  1  0  0  0  0
 25 27  1  0  0  0  0
 25 18  1  0  0  0  0
 27  1  1  0  0  0  0
 30 29  1  0  0  0  0
 30 23  1  0  0  0  0
 31 30  2  0  0  0  0
 32 34  1  0  0  0  0
 33 35  1  0  0  0  0
 34 33  2  0  0  0  0
 34 31  1  0  0  0  0
 35 29  2  0  0  0  0
 36 37  1  0  0  0  0
M  END
>  <MODEL>
7

>  <REMARK>
 VINA RESULT:      -7.5      2.737      6.970
  Name = 
  2 active torsions:
  status: ('A' for Active; 'I' for Inactive)
    1  A    between atoms: C_4  and  C_37
    2  A    between atoms: C_23  and  C_30
                            x       y       z     vdW  Elec       q    Type
                         _______ _______ _______ _____ _____    ______ ____

>  <TORSDO>
F 2

$$$$
=
 OpenBabel11112417143D

 37 43  0  0  1  0  0  0  0  0999 V2000
  188.7420  175.4110  143.2790 O   0  0  0  0  0  0  0  0  0  0  0  0
  189.5020  172.6910  138.9300 C   0  0  0  0  0  0  0  0  0  0  0  0
  191.1220  172.4890  142.9460 C   0  0  1  0  0  3  0  0  0  0  0  0
  188.0680  176.5610  143.7330 C   0  0  2  0  0  3  0  0  0  0  0  0
  193.0470  175.9470  143.1340 C   0  0  0  0  0  2  0  0  0  0  0  0
  191.0460  171.5230  140.5770 C   0  0  1  0  0  3  0  0  0  0  0  0
  191.3130  173.9960  143.1110 C   0  0  1  0  0  3  0  0  0  0  0  0
  190.1160  177.5130  144.9360 C   0  0  2  0  0  3  0  0  0  0  0  0
  190.3010  172.3130  141.6670 C   0  0  2  0  0  3  0  0  0  0  0  0
  192.7880  174.4390  143.3130 C   0  0  2  0  0  3  0  0  0  0  0  0
  191.4970  170.1590  141.0980 C   0  0  0  0  0  2  0  0  0  0  0  0
  188.6700  177.0120  145.0680 C   0  0  0  0  0  2  0  0  0  0  0  0
  189.8220  173.6370  141.2180 N   0  0  2  0  0  0  0  0  0  0  0  0
  187.9940  172.5700  139.0480 C   0  0  0  0  0  1  0  0  0  0  0  0
  193.1480  171.6540  144.2970 C   0  0  0  0  0  2  0  0  0  0  0  0
  192.1880  170.2360  142.4690 C   0  0  0  0  0  2  0  0  0  0  0  0
  189.9950  173.8730  139.7760 C   0  0  0  0  0  2  0  0  0  0  0  0
  190.8730  176.6190  144.0570 N   0  0  2  0  0  0  0  0  0  0  0  0
  192.3130  176.8380  144.1450 C   0  0  0  0  0  2  0  0  0  0  0  0
  192.4340  171.6690  142.9400 C   0  0  1  0  0  3  0  0  0  0  0  0
  190.6170  174.6450  141.9120 C   0  0  1  0  0  3  0  0  0  0  0  0
  190.1480  171.3650  139.3560 C   0  0  0  0  0  2  0  0  0  0  0  0
  193.3580  173.9430  144.6590 C   0  0  1  0  0  3  0  0  0  0  0  0
  189.8510  172.9550  137.4810 C   0  0  0  0  0  1  0  0  0  0  0  0
  190.4990  176.9100  142.7810 O   0  0  0  0  0  0  0  0  0  0  0  0
  190.6840  177.5540  146.2120 O   0  0  0  0  0  1  0  0  0  0  0  0
  189.7170  175.8190  142.3350 C   0  0  2  0  0  3  0  0  0  0  0  0
  192.7870  172.7350  145.1310 O   0  0  0  0  0  0  0  0  0  0  0  0
  195.4590  173.8710  146.0200 C   0  0  0  0  0  3  0  0  0  0  0  0
  194.8580  173.9830  144.7620 C   0  0  0  0  0  0  0  0  0  0  0  0
  195.6630  174.1020  143.6180 C   0  0  0  0  0  3  0  0  0  0  0  0
  197.9020  174.2520  142.5240 C   0  0  0  0  0  1  0  0  0  0  0  0
  197.6500  174.0150  144.9980 C   0  0  0  0  0  3  0  0  0  0  0  0
  197.0550  174.1220  143.7370 C   0  0  0  0  0  0  0  0  0  0  0  0
  196.8520  173.8880  146.1390 C   0  0  0  0  0  3  0  0  0  0  0  0
  185.8190  176.8330  142.8520 N   0  0  0  0  0  1  0  0  0  0  0  0
  186.5970  176.2470  143.9290 C   0  0  0  0  0  2  0  0  0  0  0  0
  1  4  1  0  0  0  0
  2 14  1  0  0  0  0
  2 22  1  0  0  0  0
  2 17  1  0  0  0  0
  3  7  1  0  0  0  0
  4 37  1  0  0  0  0
  4 12  1  0  0  0  0
  5 10  1  0  0  0  0
  5 19  1  0  0  0  0
  6 11  1  0  0  0  0
  6  9  1  0  0  0  0
  7 10  1  0  0  0  0
  8 12  1  0  0  0  0
  8 26  1  0  0  0  0
  9  3  1  0  0  0  0
 10 23  1  0  0  0  0
 11 16  1  0  0  0  0
 13  9  1  0  0  0  0
 13 21  1  0  0  0  0
 15 28  1  0  0  0  0
 16 20  1  0  0  0  0
 17 13  1  0  0  0  0
 18 19  1  0  0  0  0
 18  8  1  0  0  0  0
 20  3  1  0  0  0  0
 20 15  1  0  0  0  0
 21 27  1  0  0  0  0
 21  7  1  0  0  0  0
 22  6  1  0  0  0  0
 23 30  1  0  0  0  0
 23 28  1  0  0  0  0
 24  2  1  0  0  0  0
 25 18  1  0  0  0  0
 27 25  1  0  0  0  0
 27  1  1  0  0  0  0
 29 35  1  0  0  0  0
 30 29  2  0  0  0  0
 31 34  2  0  0  0  0
 31 30  1  0  0  0  0
 32 34  1  0  0  0  0
 33 35  2  0  0  0  0
 34 33  1  0  0  0  0
 36 37  1  0  0  0  0
M  END
>  <MODEL>
8

>  <REMARK>
 VINA RESULT:      -7.3      2.234      6.593
  Name = 
  2 active torsions:
  status: ('A' for Active; 'I' for Inactive)
    1  A    between atoms: C_4  and  C_37
    2  A    between atoms: C_23  and  C_30
                            x       y       z     vdW  Elec       q    Type
                         _______ _______ _______ _____ _____    ______ ____

>  <TORSDO>
F 2

$$$$
=
 OpenBabel11112417143D

 37 43  0  0  1  0  0  0  0  0999 V2000
  189.7340  174.4840  141.6890 O   0  0  0  0  0  0  0  0  0  0  0  0
  189.3870  175.2540  146.8060 C   0  0  0  0  0  0  0  0  0  0  0  0
  192.6520  175.3030  143.9540 C   0  0  1  0  0  3  0  0  0  0  0  0
  188.9420  174.0750  140.6000 C   0  0  2  0  0  3  0  0  0  0  0  0
  192.6870  171.5090  142.8160 C   0  0  0  0  0  2  0  0  0  0  0  0
  191.8660  175.6080  146.3710 C   0  0  1  0  0  3  0  0  0  0  0  0
  192.2170  174.0470  143.2010 C   0  0  1  0  0  3  0  0  0  0  0  0
  190.6590  172.3800  139.7470 C   0  0  2  0  0  3  0  0  0  0  0  0
  191.4860  175.6550  144.8800 C   0  0  2  0  0  3  0  0  0  0  0  0
  193.2380  172.8770  143.2590 C   0  0  2  0  0  3  0  0  0  0  0  0
  193.0570  176.5180  146.6640 C   0  0  0  0  0  2  0  0  0  0  0  0
  189.8480  173.6480  139.4410 C   0  0  0  0  0  2  0  0  0  0  0  0
  190.3260  174.8060  144.5360 N   0  0  2  0  0  0  0  0  0  0  0  0
  188.3560  176.2590  146.3240 C   0  0  0  0  0  1  0  0  0  0  0  0
  195.2060  175.0510  143.7630 C   0  0  0  0  0  2  0  0  0  0  0  0
  194.2120  176.3410  145.6660 C   0  0  0  0  0  2  0  0  0  0  0  0
  189.6530  174.2180  145.7060 C   0  0  0  0  0  2  0  0  0  0  0  0
  191.1960  172.4520  141.1080 N   0  0  2  0  0  0  0  0  0  0  0  0
  192.2330  171.4540  141.3510 C   0  0  0  0  0  2  0  0  0  0  0  0
  194.0000  175.1740  144.7010 C   0  0  1  0  0  3  0  0  0  0  0  0
  190.8240  173.6960  143.7300 C   0  0  1  0  0  3  0  0  0  0  0  0
  190.6620  176.0020  147.2180 C   0  0  0  0  0  2  0  0  0  0  0  0
  194.5400  173.2130  142.5000 C   0  0  1  0  0  3  0  0  0  0  0  0
  188.8310  174.5390  148.0190 C   0  0  0  0  0  1  0  0  0  0  0  0
  190.1660  172.1760  141.9530 O   0  0  0  0  0  0  0  0  0  0  0  0
  191.6920  172.2820  138.8100 O   0  0  0  0  0  1  0  0  0  0  0  0
  189.8360  173.3950  142.5910 C   0  0  2  0  0  3  0  0  0  0  0  0
  194.8660  174.5920  142.4710 O   0  0  0  0  0  0  0  0  0  0  0  0
  196.6410  172.0280  141.8290 C   0  0  0  0  0  3  0  0  0  0  0  0
  195.7080  172.3230  142.8280 C   0  0  0  0  0  0  0  0  0  0  0  0
  195.8900  171.8090  144.1210 C   0  0  0  0  0  3  0  0  0  0  0  0
  197.1780  170.4530  145.7740 C   0  0  0  0  0  1  0  0  0  0  0  0
  197.9180  170.7000  143.4020 C   0  0  0  0  0  3  0  0  0  0  0  0
  196.9920  170.9970  144.4050 C   0  0  0  0  0  0  0  0  0  0  0  0
  197.7440  171.2170  142.1140 C   0  0  0  0  0  3  0  0  0  0  0  0
  187.7820  176.1030  141.2710 N   0  0  0  0  0  1  0  0  0  0  0  0
  188.0620  175.2240  140.1480 C   0  0  0  0  0  2  0  0  0  0  0  0
  1 27  1  0  0  0  0
  2 22  1  0  0  0  0
  2 24  1  0  0  0  0
  3 20  1  0  0  0  0
  3  9  1  0  0  0  0
  4  1  1  0  0  0  0
  5 10  1  0  0  0  0
  6 11  1  0  0  0  0
  6 22  1  0  0  0  0
  7 10  1  0  0  0  0
  7 21  1  0  0  0  0
  7  3  1  0  0  0  0
  8 18  1  0  0  0  0
  9  6  1  0  0  0  0
 12  8  1  0  0  0  0
 12  4  1  0  0  0  0
 13  9  1  0  0  0  0
 13 17  1  0  0  0  0
 14  2  1  0  0  0  0
 15 20  1  0  0  0  0
 16 11  1  0  0  0  0
 17  2  1  0  0  0  0
 18 19  1  0  0  0  0
 18 25  1  0  0  0  0
 19  5  1  0  0  0  0
 20 16  1  0  0  0  0
 21 13  1  0  0  0  0
 23 30  1  0  0  0  0
 23 10  1  0  0  0  0
 25 27  1  0  0  0  0
 26  8  1  0  0  0  0
 27 21  1  0  0  0  0
 28 23  1  0  0  0  0
 28 15  1  0  0  0  0
 29 35  2  0  0  0  0
 29 30  1  0  0  0  0
 30 31  2  0  0  0  0
 31 34  1  0  0  0  0
 33 34  2  0  0  0  0
 34 32  1  0  0  0  0
 35 33  1  0  0  0  0
 37  4  1  0  0  0  0
 37 36  1  0  0  0  0
M  END
>  <MODEL>
9

>  <REMARK>
 VINA RESULT:      -7.3      2.710      8.024
  Name = 
  2 active torsions:
  status: ('A' for Active; 'I' for Inactive)
    1  A    between atoms: C_4  and  C_37
    2  A    between atoms: C_23  and  C_30
                            x       y       z     vdW  Elec       q    Type
                         _______ _______ _______ _____ _____    ______ ____

>  <TORSDO>
F 2

$$$$
