=
 OpenBabel11112416573D

 31 35  0  0  1  0  0  0  0  0999 V2000
  184.9350  178.0170  146.8580 C   0  0  0  0  0  0  0  0  0  0  0  0
  186.7200  177.6060  143.5640 C   0  0  0  0  0  0  0  0  0  0  0  0
  185.7430  177.8130  142.5340 C   0  0  0  0  0  0  0  0  0  0  0  0
  183.4670  178.3040  141.7870 C   0  0  0  0  0  0  0  0  0  0  0  0
  186.4430  177.6760  144.9640 C   0  0  0  0  0  0  0  0  0  0  0  0
  185.9820  177.7930  147.7490 C   0  0  0  0  0  3  0  0  0  0  0  0
  184.3960  178.1080  142.8110 C   0  0  0  0  0  3  0  0  0  0  0  0
  189.0540  177.1010  144.1330 C   0  0  0  0  0  0  0  0  0  0  0  0
  183.6930  178.2920  147.3250 F   0  0  0  0  0  0  0  0  0  0  0  0
  187.4420  177.4300  140.8230 C   0  0  0  0  0  3  0  0  0  0  0  0
  182.1450  178.5950  142.0960 O   0  0  0  0  0  1  0  0  0  0  0  0
  188.7450  177.1760  145.4510 N   0  0  0  0  0  0  0  0  0  0  0  0
  188.0570  177.3120  143.1670 C   0  0  0  0  0  0  0  0  0  0  0  0
  190.3980  176.8020  143.7330 N   0  0  0  0  0  2  0  0  0  0  0  0
  185.1660  177.9580  145.4820 C   0  0  0  0  0  3  0  0  0  0  0  0
  183.8650  178.2080  140.4550 C   0  0  0  0  0  3  0  0  0  0  0  0
  187.4960  177.4510  145.8880 C   0  0  0  0  0  0  0  0  0  0  0  0
  187.2590  177.5110  147.2650 C   0  0  0  0  0  3  0  0  0  0  0  0
  188.3950  177.2280  141.8110 C   0  0  0  0  0  3  0  0  0  0  0  0
  186.1280  177.7190  141.1690 C   0  0  0  0  0  0  0  0  0  0  0  0
  185.1940  177.9160  140.1480 C   0  0  0  0  0  3  0  0  0  0  0  0
  192.6390  177.5430  144.3690 C   0  0  0  0  0  1  0  0  0  0  0  0
  191.4840  176.6060  144.6840 C   0  0  2  0  0  3  0  0  0  0  0  0
  192.8060  172.5130  144.6360 C   0  0  0  0  0  0  0  0  0  0  0  0
  191.6050  174.3370  143.5930 C   0  0  0  0  0  3  0  0  0  0  0  0
  193.0530  175.4720  146.7690 F   0  0  0  0  0  0  0  0  0  0  0  0
  193.2330  171.1930  144.6230 O   0  0  0  0  0  1  0  0  0  0  0  0
  192.0360  173.0080  143.5800 C   0  0  0  0  0  3  0  0  0  0  0  0
  192.7150  174.6780  145.7230 C   0  0  0  0  0  0  0  0  0  0  0  0
  191.9400  175.1800  144.6650 C   0  0  0  0  0  0  0  0  0  0  0  0
  193.1440  173.3470  145.7050 C   0  0  0  0  0  3  0  0  0  0  0  0
  1  9  1  0  0  0  0
  1  6  1  0  0  0  0
  2  5  1  0  0  0  0
  3  7  1  0  0  0  0
  3  2  2  0  0  0  0
  4 11  1  0  0  0  0
  4  7  2  0  0  0  0
  5 15  1  0  0  0  0
  5 17  2  0  0  0  0
  8 12  2  0  0  0  0
 10 20  2  0  0  0  0
 10 19  1  0  0  0  0
 12 17  1  0  0  0  0
 13  2  1  0  0  0  0
 13  8  1  0  0  0  0
 14  8  1  0  0  0  0
 14 23  1  0  0  0  0
 15  1  2  0  0  0  0
 16  4  1  0  0  0  0
 17 18  1  0  0  0  0
 18  6  2  0  0  0  0
 19 13  2  0  0  0  0
 20  3  1  0  0  0  0
 21 16  2  0  0  0  0
 21 20  1  0  0  0  0
 23 22  1  6  0  0  0
 24 31  1  0  0  0  0
 25 30  2  0  0  0  0
 27 24  1  0  0  0  0
 28 25  1  0  0  0  0
 28 24  2  0  0  0  0
 29 26  1  0  0  0  0
 30 23  1  0  0  0  0
 30 29  1  0  0  0  0
 31 29  2  0  0  0  0
M  END
>  <MODEL>
1

>  <REMARK>
 VINA RESULT:      -9.2      0.000      0.000
  Name = 
  2 active torsions:
  status: ('A' for Active; 'I' for Inactive)
    1  A    between atoms: C_5  and  N_16
    2  A    between atoms: C_5  and  C_30
                            x       y       z     vdW  Elec       q    Type
                         _______ _______ _______ _____ _____    ______ ____

>  <TORSDO>
F 2

$$$$
=
 OpenBabel11112416573D

 31 35  0  0  1  0  0  0  0  0999 V2000
  184.2660  178.4610  146.1440 C   0  0  0  0  0  0  0  0  0  0  0  0
  186.8820  177.2550  143.7140 C   0  0  0  0  0  0  0  0  0  0  0  0
  186.3450  177.4450  142.3970 C   0  0  0  0  0  0  0  0  0  0  0  0
  184.5700  178.1610  140.8740 C   0  0  0  0  0  0  0  0  0  0  0  0
  186.1960  177.5900  144.9220 C   0  0  0  0  0  0  0  0  0  0  0  0
  184.9100  178.2220  147.3570 C   0  0  0  0  0  3  0  0  0  0  0  0
  185.0680  177.9880  142.1670 C   0  0  0  0  0  3  0  0  0  0  0  0
  188.7650  176.4880  145.0910 C   0  0  0  0  0  0  0  0  0  0  0  0
  183.0230  178.9980  146.1300 F   0  0  0  0  0  0  0  0  0  0  0  0
  188.3850  176.5330  141.4150 C   0  0  0  0  0  3  0  0  0  0  0  0
  183.3050  178.7000  140.6840 O   0  0  0  0  0  1  0  0  0  0  0  0
  188.0760  176.8200  146.2110 N   0  0  0  0  0  0  0  0  0  0  0  0
  188.1890  176.6960  143.8270 C   0  0  0  0  0  0  0  0  0  0  0  0
  190.0770  175.9230  145.2050 N   0  0  0  0  0  2  0  0  0  0  0  0
  184.9050  178.1480  144.9420 C   0  0  0  0  0  3  0  0  0  0  0  0
  185.3430  177.7920  139.7750 C   0  0  0  0  0  3  0  0  0  0  0  0
  186.8340  177.3550  146.1660 C   0  0  0  0  0  0  0  0  0  0  0  0
  186.1900  177.6700  147.3670 C   0  0  0  0  0  3  0  0  0  0  0  0
  188.9150  176.3450  142.6830 C   0  0  0  0  0  3  0  0  0  0  0  0
  187.1150  177.0750  141.2620 C   0  0  0  0  0  0  0  0  0  0  0  0
  186.6130  177.2500  139.9690 C   0  0  0  0  0  3  0  0  0  0  0  0
  190.5640  176.9300  147.3790 C   0  0  0  0  0  1  0  0  0  0  0  0
  190.7430  175.7140  146.4840 C   0  0  2  0  0  3  0  0  0  0  0  0
  194.9160  174.8700  145.8730 C   0  0  0  0  0  0  0  0  0  0  0  0
  193.1750  176.3480  146.6740 C   0  0  0  0  0  3  0  0  0  0  0  0
  191.6650  173.3110  145.2720 F   0  0  0  0  0  0  0  0  0  0  0  0
  196.2620  174.5960  145.6750 O   0  0  0  0  0  1  0  0  0  0  0  0
  194.5300  176.0710  146.4750 C   0  0  0  0  0  3  0  0  0  0  0  0
  192.5900  174.2200  145.6690 C   0  0  0  0  0  0  0  0  0  0  0  0
  192.1970  175.4250  146.2710 C   0  0  0  0  0  0  0  0  0  0  0  0
  193.9480  173.9470  145.4710 C   0  0  0  0  0  3  0  0  0  0  0  0
  1  6  1  0  0  0  0
  2 13  1  0  0  0  0
  2  5  1  0  0  0  0
  3  2  2  0  0  0  0
  4  7  2  0  0  0  0
  5 15  1  0  0  0  0
  5 17  2  0  0  0  0
  6 18  2  0  0  0  0
  7  3  1  0  0  0  0
  8 14  1  0  0  0  0
  8 12  2  0  0  0  0
  9  1  1  0  0  0  0
 10 19  1  0  0  0  0
 11  4  1  0  0  0  0
 13  8  1  0  0  0  0
 14 23  1  0  0  0  0
 15  1  2  0  0  0  0
 16 21  2  0  0  0  0
 16  4  1  0  0  0  0
 17 12  1  0  0  0  0
 17 18  1  0  0  0  0
 19 13  2  0  0  0  0
 20 10  2  0  0  0  0
 20  3  1  0  0  0  0
 21 20  1  0  0  0  0
 23 22  1  1  0  0  0
 24 28  1  0  0  0  0
 26 29  1  0  0  0  0
 27 24  1  0  0  0  0
 28 25  2  0  0  0  0
 29 30  2  0  0  0  0
 30 23  1  0  0  0  0
 30 25  1  0  0  0  0
 31 29  1  0  0  0  0
 31 24  2  0  0  0  0
M  END
>  <MODEL>
2

>  <REMARK>
 VINA RESULT:      -9.2      1.632      2.092
  Name = 
  2 active torsions:
  status: ('A' for Active; 'I' for Inactive)
    1  A    between atoms: C_5  and  N_16
    2  A    between atoms: C_5  and  C_30
                            x       y       z     vdW  Elec       q    Type
                         _______ _______ _______ _____ _____    ______ ____

>  <TORSDO>
F 2

$$$$
=
 OpenBabel11112416573D

 31 35  0  0  1  0  0  0  0  0999 V2000
  185.4100  177.9970  140.9970 C   0  0  0  0  0  0  0  0  0  0  0  0
  187.2600  176.8680  144.0800 C   0  0  0  0  0  0  0  0  0  0  0  0
  186.4750  177.2800  145.2090 C   0  0  0  0  0  0  0  0  0  0  0  0
  184.5150  178.3600  146.1950 C   0  0  0  0  0  0  0  0  0  0  0  0
  186.9010  177.1080  142.7180 C   0  0  0  0  0  0  0  0  0  0  0  0
  186.2690  177.5410  139.9980 C   0  0  0  0  0  3  0  0  0  0  0  0
  185.2580  177.9720  145.0780 C   0  0  0  0  0  3  0  0  0  0  0  0
  189.2860  175.7470  143.2650 C   0  0  0  0  0  0  0  0  0  0  0  0
  184.2700  178.6490  140.6650 F   0  0  0  0  0  0  0  0  0  0  0  0
  188.1220  176.3100  146.7280 C   0  0  0  0  0  3  0  0  0  0  0  0
  183.3160  179.0410  146.0290 O   0  0  0  0  0  1  0  0  0  0  0  0
  188.9060  175.9970  141.9870 N   0  0  0  0  0  0  0  0  0  0  0  0
  188.4790  176.1730  144.3320 C   0  0  0  0  0  0  0  0  0  0  0  0
  190.5130  175.0500  143.5190 N   0  0  0  0  0  2  0  0  0  0  0  0
  185.7260  177.7810  142.3400 C   0  0  0  0  0  3  0  0  0  0  0  0
  184.9760  178.0640  147.4760 C   0  0  0  0  0  3  0  0  0  0  0  0
  187.7620  176.6510  141.6870 C   0  0  0  0  0  0  0  0  0  0  0  0
  187.4410  176.8700  140.3430 C   0  0  0  0  0  3  0  0  0  0  0  0
  188.8880  175.9070  145.6440 C   0  0  0  0  0  3  0  0  0  0  0  0
  186.9280  176.9900  146.5240 C   0  0  0  0  0  0  0  0  0  0  0  0
  186.1810  177.3810  147.6390 C   0  0  0  0  0  3  0  0  0  0  0  0
  191.4250  173.0330  142.4820 C   0  0  0  0  0  1  0  0  0  0  0  0
  191.3780  174.5530  142.4570 C   0  0  2  0  0  3  0  0  0  0  0  0
  195.3350  176.1920  142.8450 C   0  0  0  0  0  0  0  0  0  0  0  0
  193.2440  175.5090  143.8550 C   0  0  0  0  0  3  0  0  0  0  0  0
  193.1170  174.9150  140.2350 F   0  0  0  0  0  0  0  0  0  0  0  0
  196.6120  176.7210  142.9680 O   0  0  0  0  0  1  0  0  0  0  0  0
  194.5300  176.0410  143.9780 C   0  0  0  0  0  3  0  0  0  0  0  0
  193.5670  175.2790  141.4620 C   0  0  0  0  0  0  0  0  0  0  0  0
  192.7540  175.1260  142.5960 C   0  0  0  0  0  0  0  0  0  0  0  0
  194.8540  175.8120  141.5900 C   0  0  0  0  0  3  0  0  0  0  0  0
  1 15  1  0  0  0  0
  2 13  2  0  0  0  0
  2  3  1  0  0  0  0
  3 20  1  0  0  0  0
  4 16  2  0  0  0  0
  5  2  1  0  0  0  0
  6 18  1  0  0  0  0
  6  1  2  0  0  0  0
  7  3  2  0  0  0  0
  7  4  1  0  0  0  0
  8 14  1  0  0  0  0
  8 13  1  0  0  0  0
  9  1  1  0  0  0  0
 11  4  1  0  0  0  0
 12  8  2  0  0  0  0
 13 19  1  0  0  0  0
 15  5  2  0  0  0  0
 16 21  1  0  0  0  0
 17 12  1  0  0  0  0
 17  5  1  0  0  0  0
 18 17  2  0  0  0  0
 19 10  2  0  0  0  0
 20 10  1  0  0  0  0
 20 21  2  0  0  0  0
 23 22  1  1  0  0  0
 23 30  1  0  0  0  0
 23 14  1  0  0  0  0
 24 27  1  0  0  0  0
 24 28  1  0  0  0  0
 25 28  2  0  0  0  0
 26 29  1  0  0  0  0
 29 31  1  0  0  0  0
 29 30  2  0  0  0  0
 30 25  1  0  0  0  0
 31 24  2  0  0  0  0
M  END
>  <MODEL>
3

>  <REMARK>
 VINA RESULT:      -9.0      2.708      4.762
  Name = 
  2 active torsions:
  status: ('A' for Active; 'I' for Inactive)
    1  A    between atoms: C_5  and  N_16
    2  A    between atoms: C_5  and  C_30
                            x       y       z     vdW  Elec       q    Type
                         _______ _______ _______ _____ _____    ______ ____

>  <TORSDO>
F 2

$$$$
=
 OpenBabel11112416573D

 31 35  0  0  1  0  0  0  0  0999 V2000
  188.5490  174.5100  140.5400 C   0  0  0  0  0  0  0  0  0  0  0  0
  187.8230  176.4420  143.6940 C   0  0  0  0  0  0  0  0  0  0  0  0
  186.6710  177.2540  143.4270 C   0  0  0  0  0  0  0  0  0  0  0  0
  184.8900  178.0550  141.9540 C   0  0  0  0  0  0  0  0  0  0  0  0
  188.4220  175.5550  142.7470 C   0  0  0  0  0  0  0  0  0  0  0  0
  189.6690  173.7810  140.9360 C   0  0  0  0  0  3  0  0  0  0  0  0
  186.0110  177.2540  142.1850 C   0  0  0  0  0  3  0  0  0  0  0  0
  189.5410  175.7510  145.3060 C   0  0  0  0  0  0  0  0  0  0  0  0
  188.0560  174.3690  139.2870 F   0  0  0  0  0  0  0  0  0  0  0  0
  186.7590  178.1530  145.6940 C   0  0  0  0  0  3  0  0  0  0  0  0
  184.2620  178.0290  140.7160 O   0  0  0  0  0  1  0  0  0  0  0  0
  190.0770  174.9240  144.3750 N   0  0  0  0  0  0  0  0  0  0  0  0
  188.4120  176.5230  144.9900 C   0  0  0  0  0  0  0  0  0  0  0  0
  190.1340  175.8350  146.6080 N   0  0  0  0  0  2  0  0  0  0  0  0
  187.9360  175.3860  141.4380 C   0  0  0  0  0  3  0  0  0  0  0  0
  184.4020  178.8790  142.9660 C   0  0  0  0  0  3  0  0  0  0  0  0
  189.5630  174.8040  143.1300 C   0  0  0  0  0  0  0  0  0  0  0  0
  190.1740  173.9280  142.2270 C   0  0  0  0  0  3  0  0  0  0  0  0
  187.8740  177.3730  145.9630 C   0  0  0  0  0  3  0  0  0  0  0  0
  186.1570  178.1030  144.4440 C   0  0  0  0  0  0  0  0  0  0  0  0
  185.0350  178.9030  144.2080 C   0  0  0  0  0  3  0  0  0  0  0  0
  191.5320  175.1780  148.5030 C   0  0  0  0  0  1  0  0  0  0  0  0
  191.2850  175.0370  147.0100 C   0  0  2  0  0  3  0  0  0  0  0  0
  194.7730  176.2000  144.7770 C   0  0  0  0  0  0  0  0  0  0  0  0
  192.9810  176.7620  146.3040 C   0  0  0  0  0  3  0  0  0  0  0  0
  192.7180  173.2300  145.3440 F   0  0  0  0  0  0  0  0  0  0  0  0
  195.8980  176.5720  144.0560 O   0  0  0  0  0  1  0  0  0  0  0  0
  194.1140  177.1370  145.5780 C   0  0  0  0  0  3  0  0  0  0  0  0
  193.1640  174.5080  145.4280 C   0  0  0  0  0  0  0  0  0  0  0  0
  192.4980  175.4460  146.2330 C   0  0  0  0  0  0  0  0  0  0  0  0
  194.2980  174.8880  144.7030 C   0  0  0  0  0  3  0  0  0  0  0  0
  1  6  2  0  0  0  0
  1 15  1  0  0  0  0
  2 13  1  0  0  0  0
  3  2  2  0  0  0  0
  3 20  1  0  0  0  0
  4  7  2  0  0  0  0
  4 16  1  0  0  0  0
  5 17  1  0  0  0  0
  5  2  1  0  0  0  0
  6 18  1  0  0  0  0
  7  3  1  0  0  0  0
  8 14  1  0  0  0  0
  9  1  1  0  0  0  0
 10 19  1  0  0  0  0
 11  4  1  0  0  0  0
 12  8  2  0  0  0  0
 13  8  1  0  0  0  0
 13 19  2  0  0  0  0
 14 23  1  0  0  0  0
 15  5  2  0  0  0  0
 16 21  2  0  0  0  0
 17 12  1  0  0  0  0
 18 17  2  0  0  0  0
 20 10  2  0  0  0  0
 21 20  1  0  0  0  0
 23 22  1  1  0  0  0
 24 28  1  0  0  0  0
 26 29  1  0  0  0  0
 27 24  1  0  0  0  0
 28 25  2  0  0  0  0
 29 30  2  0  0  0  0
 30 25  1  0  0  0  0
 30 23  1  0  0  0  0
 31 24  2  0  0  0  0
 31 29  1  0  0  0  0
M  END
>  <MODEL>
4

>  <REMARK>
 VINA RESULT:      -8.5      2.680      4.439
  Name = 
  2 active torsions:
  status: ('A' for Active; 'I' for Inactive)
    1  A    between atoms: C_5  and  N_16
    2  A    between atoms: C_5  and  C_30
                            x       y       z     vdW  Elec       q    Type
                         _______ _______ _______ _____ _____    ______ ____

>  <TORSDO>
F 2

$$$$
=
 OpenBabel11112416573D

 31 35  0  0  1  0  0  0  0  0999 V2000
  190.8190  177.1280  147.7010 C   0  0  0  0  0  0  0  0  0  0  0  0
  188.4930  176.4610  144.8120 C   0  0  0  0  0  0  0  0  0  0  0  0
  187.2810  177.1820  145.0790 C   0  0  0  0  0  0  0  0  0  0  0  0
  185.9090  178.6540  146.4690 C   0  0  0  0  0  0  0  0  0  0  0  0
  189.6340  176.4530  145.6720 C   0  0  0  0  0  0  0  0  0  0  0  0
  191.9310  176.3800  147.3160 C   0  0  0  0  0  3  0  0  0  0  0  0
  187.1000  177.9620  146.2360 C   0  0  0  0  0  3  0  0  0  0  0  0
  189.7260  174.9760  143.2950 C   0  0  0  0  0  0  0  0  0  0  0  0
  190.8380  177.8210  148.8640 F   0  0  0  0  0  0  0  0  0  0  0  0
  186.3160  176.3680  142.9910 C   0  0  0  0  0  3  0  0  0  0  0  0
  185.7640  179.4160  147.6210 O   0  0  0  0  0  1  0  0  0  0  0  0
  190.7850  174.9960  144.1430 N   0  0  0  0  0  0  0  0  0  0  0  0
  188.5650  175.7010  143.6080 C   0  0  0  0  0  0  0  0  0  0  0  0
  189.7980  174.2100  142.0860 N   0  0  0  0  0  2  0  0  0  0  0  0
  189.6860  177.1610  146.8870 C   0  0  0  0  0  3  0  0  0  0  0  0
  184.8670  178.5800  145.5480 C   0  0  0  0  0  3  0  0  0  0  0  0
  190.7750  175.6980  145.2980 C   0  0  0  0  0  0  0  0  0  0  0  0
  191.9080  175.6680  146.1170 C   0  0  0  0  0  3  0  0  0  0  0  0
  187.4820  175.6660  142.7220 C   0  0  0  0  0  3  0  0  0  0  0  0
  186.2060  177.1190  144.1540 C   0  0  0  0  0  0  0  0  0  0  0  0
  185.0160  177.8130  144.3920 C   0  0  0  0  0  3  0  0  0  0  0  0
  192.0670  174.4130  141.2000 C   0  0  0  0  0  1  0  0  0  0  0  0
  190.9850  173.4640  141.6880 C   0  0  2  0  0  3  0  0  0  0  0  0
  190.0050  170.5940  138.6380 C   0  0  0  0  0  0  0  0  0  0  0  0
  189.6690  172.7640  139.6560 C   0  0  0  0  0  3  0  0  0  0  0  0
  192.2350  170.9150  141.5170 F   0  0  0  0  0  0  0  0  0  0  0  0
  189.6910  169.6660  137.6550 O   0  0  0  0  0  1  0  0  0  0  0  0
  189.3530  171.8290  138.6660 C   0  0  0  0  0  3  0  0  0  0  0  0
  191.2930  171.2250  140.5920 C   0  0  0  0  0  0  0  0  0  0  0  0
  190.6390  172.4670  140.6250 C   0  0  0  0  0  0  0  0  0  0  0  0
  190.9730  170.2920  139.5990 C   0  0  0  0  0  3  0  0  0  0  0  0
  1  9  1  0  0  0  0
  2  3  1  0  0  0  0
  2  5  1  0  0  0  0
  3  7  1  0  0  0  0
  4 11  1  0  0  0  0
  5 15  1  0  0  0  0
  6  1  1  0  0  0  0
  7  4  2  0  0  0  0
  8 13  1  0  0  0  0
  8 12  2  0  0  0  0
 10 20  1  0  0  0  0
 12 17  1  0  0  0  0
 13  2  2  0  0  0  0
 14  8  1  0  0  0  0
 15  1  2  0  0  0  0
 16  4  1  0  0  0  0
 17  5  2  0  0  0  0
 17 18  1  0  0  0  0
 18  6  2  0  0  0  0
 19 10  2  0  0  0  0
 19 13  1  0  0  0  0
 20 21  1  0  0  0  0
 20  3  2  0  0  0  0
 21 16  2  0  0  0  0
 23 22  1  6  0  0  0
 23 14  1  0  0  0  0
 24 28  2  0  0  0  0
 24 31  1  0  0  0  0
 25 30  2  0  0  0  0
 27 24  1  0  0  0  0
 28 25  1  0  0  0  0
 29 30  1  0  0  0  0
 29 26  1  0  0  0  0
 30 23  1  0  0  0  0
 31 29  2  0  0  0  0
M  END
>  <MODEL>
5

>  <REMARK>
 VINA RESULT:      -8.3      3.494      5.000
  Name = 
  2 active torsions:
  status: ('A' for Active; 'I' for Inactive)
    1  A    between atoms: C_5  and  N_16
    2  A    between atoms: C_5  and  C_30
                            x       y       z     vdW  Elec       q    Type
                         _______ _______ _______ _____ _____    ______ ____

>  <TORSDO>
F 2

$$$$
=
 OpenBabel11112416573D

 31 35  0  0  1  0  0  0  0  0999 V2000
  191.3920  170.9420  142.7940 C   0  0  0  0  0  0  0  0  0  0  0  0
  192.1220  174.2980  144.3460 C   0  0  0  0  0  0  0  0  0  0  0  0
  193.4410  174.2180  144.9060 C   0  0  0  0  0  0  0  0  0  0  0  0
  195.5100  173.0070  145.3870 C   0  0  0  0  0  0  0  0  0  0  0  0
  191.4690  173.2260  143.6620 C   0  0  0  0  0  0  0  0  0  0  0  0
  190.1070  171.1590  142.3000 C   0  0  0  0  0  3  0  0  0  0  0  0
  194.2290  173.0560  144.8330 C   0  0  0  0  0  3  0  0  0  0  0  0
  190.1200  175.6620  143.9500 C   0  0  0  0  0  0  0  0  0  0  0  0
  191.9910  169.7390  142.6200 F   0  0  0  0  0  0  0  0  0  0  0  0
  193.2720  176.5280  145.6750 C   0  0  0  0  0  3  0  0  0  0  0  0
  196.2620  171.8430  145.2970 O   0  0  0  0  0  1  0  0  0  0  0  0
  189.5390  174.6170  143.3100 N   0  0  0  0  0  0  0  0  0  0  0  0
  191.4130  175.5280  144.4790 C   0  0  0  0  0  0  0  0  0  0  0  0
  189.4060  176.8980  144.0860 N   0  0  0  0  0  2  0  0  0  0  0  0
  192.0620  171.9650  143.4660 C   0  0  0  0  0  3  0  0  0  0  0  0
  196.0350  174.1260  146.0310 C   0  0  0  0  0  3  0  0  0  0  0  0
  190.1610  173.4270  143.1530 C   0  0  0  0  0  0  0  0  0  0  0  0
  189.4940  172.3980  142.4800 C   0  0  0  0  0  3  0  0  0  0  0  0
  191.9950  176.6160  145.1380 C   0  0  0  0  0  3  0  0  0  0  0  0
  193.9950  175.3470  145.5670 C   0  0  0  0  0  0  0  0  0  0  0  0
  195.2770  175.2940  146.1200 C   0  0  0  0  0  3  0  0  0  0  0  0
  188.1250  178.1580  142.4290 C   0  0  0  0  0  1  0  0  0  0  0  0
  188.0760  177.1120  143.5310 C   0  0  2  0  0  3  0  0  0  0  0  0
  185.3410  178.2890  146.6350 C   0  0  0  0  0  0  0  0  0  0  0  0
  186.3160  178.6630  144.4520 C   0  0  0  0  0  3  0  0  0  0  0  0
  187.7990  175.6670  145.9660 F   0  0  0  0  0  0  0  0  0  0  0  0
  184.4590  178.6660  147.6380 O   0  0  0  0  0  1  0  0  0  0  0  0
  185.4290  179.0430  145.4620 C   0  0  0  0  0  3  0  0  0  0  0  0
  187.0310  176.7710  145.7900 C   0  0  0  0  0  0  0  0  0  0  0  0
  187.1240  177.5260  144.6100 C   0  0  0  0  0  0  0  0  0  0  0  0
  186.1410  177.1550  146.7980 C   0  0  0  0  0  3  0  0  0  0  0  0
  1 15  1  0  0  0  0
  2 13  2  0  0  0  0
  2  3  1  0  0  0  0
  3 20  1  0  0  0  0
  4 16  2  0  0  0  0
  5  2  1  0  0  0  0
  6 18  1  0  0  0  0
  6  1  2  0  0  0  0
  7  3  2  0  0  0  0
  7  4  1  0  0  0  0
  8 14  1  0  0  0  0
  8 13  1  0  0  0  0
  9  1  1  0  0  0  0
 11  4  1  0  0  0  0
 12  8  2  0  0  0  0
 13 19  1  0  0  0  0
 15  5  2  0  0  0  0
 16 21  1  0  0  0  0
 17 12  1  0  0  0  0
 17  5  1  0  0  0  0
 18 17  2  0  0  0  0
 19 10  2  0  0  0  0
 20 10  1  0  0  0  0
 20 21  2  0  0  0  0
 23 22  1  6  0  0  0
 23 14  1  0  0  0  0
 23 30  1  0  0  0  0
 24 31  1  0  0  0  0
 24 27  1  0  0  0  0
 25 30  2  0  0  0  0
 25 28  1  0  0  0  0
 28 24  2  0  0  0  0
 29 26  1  0  0  0  0
 29 31  2  0  0  0  0
 30 29  1  0  0  0  0
M  END
>  <MODEL>
6

>  <REMARK>
 VINA RESULT:      -8.2      2.533      8.748
  Name = 
  2 active torsions:
  status: ('A' for Active; 'I' for Inactive)
    1  A    between atoms: C_5  and  N_16
    2  A    between atoms: C_5  and  C_30
                            x       y       z     vdW  Elec       q    Type
                         _______ _______ _______ _____ _____    ______ ____

>  <TORSDO>
F 2

$$$$
=
 OpenBabel11112416573D

 31 35  0  0  1  0  0  0  0  0999 V2000
  195.3590  176.2130  143.9760 C   0  0  0  0  0  0  0  0  0  0  0  0
  192.0200  175.0010  142.7170 C   0  0  0  0  0  0  0  0  0  0  0  0
  192.2610  174.3530  141.4600 C   0  0  0  0  0  0  0  0  0  0  0  0
  193.7470  173.6090  139.6660 C   0  0  0  0  0  0  0  0  0  0  0  0
  193.0360  175.6010  143.5230 C   0  0  0  0  0  0  0  0  0  0  0  0
  194.9820  176.8100  145.1770 C   0  0  0  0  0  3  0  0  0  0  0  0
  193.5430  174.2460  140.8920 C   0  0  0  0  0  3  0  0  0  0  0  0
  190.3850  175.6730  144.4200 C   0  0  0  0  0  0  0  0  0  0  0  0
  196.6600  176.2120  143.5990 F   0  0  0  0  0  0  0  0  0  0  0  0
  189.8810  173.8590  141.2400 C   0  0  0  0  0  3  0  0  0  0  0  0
  195.0270  173.5200  139.1350 O   0  0  0  0  0  1  0  0  0  0  0  0
  191.3810  176.2300  145.1520 N   0  0  0  0  0  0  0  0  0  0  0  0
  190.6780  175.0520  143.1960 C   0  0  0  0  0  0  0  0  0  0  0  0
  189.0350  175.7260  144.9010 N   0  0  0  0  0  2  0  0  0  0  0  0
  194.3950  175.6170  143.1610 C   0  0  0  0  0  3  0  0  0  0  0  0
  192.6680  173.0630  138.9760 C   0  0  0  0  0  3  0  0  0  0  0  0
  192.6720  176.2140  144.7500 C   0  0  0  0  0  0  0  0  0  0  0  0
  193.6410  176.8100  145.5630 C   0  0  0  0  0  3  0  0  0  0  0  0
  189.6360  174.4840  142.4540 C   0  0  0  0  0  3  0  0  0  0  0  0
  191.1740  173.7900  140.7380 C   0  0  0  0  0  0  0  0  0  0  0  0
  191.3830  173.1540  139.5120 C   0  0  0  0  0  3  0  0  0  0  0  0
  188.6090  175.2640  147.2630 C   0  0  0  0  0  1  0  0  0  0  0  0
  188.6690  176.3260  146.1770 C   0  0  2  0  0  3  0  0  0  0  0  0
  184.9050  178.3770  145.8340 C   0  0  0  0  0  0  0  0  0  0  0  0
  186.3100  176.7540  146.9510 C   0  0  0  0  0  3  0  0  0  0  0  0
  188.1650  178.2900  144.1820 F   0  0  0  0  0  0  0  0  0  0  0  0
  183.6910  179.0400  145.7220 O   0  0  0  0  0  1  0  0  0  0  0  0
  185.0880  177.4220  146.8380 C   0  0  0  0  0  3  0  0  0  0  0  0
  187.1680  177.9980  145.0550 C   0  0  0  0  0  0  0  0  0  0  0  0
  187.3570  177.0360  146.0600 C   0  0  0  0  0  0  0  0  0  0  0  0
  185.9430  178.6640  144.9450 C   0  0  0  0  0  3  0  0  0  0  0  0
  1  6  1  0  0  0  0
  2 13  1  0  0  0  0
  2  5  1  0  0  0  0
  3  2  2  0  0  0  0
  4  7  2  0  0  0  0
  5 17  2  0  0  0  0
  6 18  2  0  0  0  0
  7  3  1  0  0  0  0
  8 14  1  0  0  0  0
  8 12  2  0  0  0  0
  9  1  1  0  0  0  0
 10 19  1  0  0  0  0
 11  4  1  0  0  0  0
 13  8  1  0  0  0  0
 14 23  1  0  0  0  0
 15  5  1  0  0  0  0
 15  1  2  0  0  0  0
 16 21  2  0  0  0  0
 16  4  1  0  0  0  0
 17 12  1  0  0  0  0
 17 18  1  0  0  0  0
 19 13  2  0  0  0  0
 20 10  2  0  0  0  0
 20  3  1  0  0  0  0
 21 20  1  0  0  0  0
 23 22  1  1  0  0  0
 24 28  1  0  0  0  0
 26 29  1  0  0  0  0
 27 24  1  0  0  0  0
 28 25  2  0  0  0  0
 29 30  2  0  0  0  0
 30 23  1  0  0  0  0
 30 25  1  0  0  0  0
 31 29  1  0  0  0  0
 31 24  2  0  0  0  0
M  END
>  <MODEL>
7

>  <REMARK>
 VINA RESULT:      -8.1      3.027      8.052
  Name = 
  2 active torsions:
  status: ('A' for Active; 'I' for Inactive)
    1  A    between atoms: C_5  and  N_16
    2  A    between atoms: C_5  and  C_30
                            x       y       z     vdW  Elec       q    Type
                         _______ _______ _______ _____ _____    ______ ____

>  <TORSDO>
F 2

$$$$
=
 OpenBabel11112416573D

 31 35  0  0  1  0  0  0  0  0999 V2000
  191.4870  176.5520  147.4770 C   0  0  0  0  0  0  0  0  0  0  0  0
  188.9310  176.1120  144.7430 C   0  0  0  0  0  0  0  0  0  0  0  0
  187.7080  176.6900  145.2210 C   0  0  0  0  0  0  0  0  0  0  0  0
  186.3880  177.8390  146.9300 C   0  0  0  0  0  0  0  0  0  0  0  0
  190.1510  176.0750  145.4860 C   0  0  0  0  0  0  0  0  0  0  0  0
  192.6010  175.9570  146.8880 C   0  0  0  0  0  3  0  0  0  0  0  0
  187.5920  177.2840  146.4910 C   0  0  0  0  0  3  0  0  0  0  0  0
  190.1010  174.9580  142.9200 C   0  0  0  0  0  0  0  0  0  0  0  0
  191.5770  177.0750  148.7230 F   0  0  0  0  0  0  0  0  0  0  0  0
  186.5930  176.1020  143.1310 C   0  0  0  0  0  3  0  0  0  0  0  0
  186.3100  178.4180  148.1900 O   0  0  0  0  0  1  0  0  0  0  0  0
  191.2360  174.9440  143.6620 N   0  0  0  0  0  0  0  0  0  0  0  0
  188.9320  175.5370  143.4380 C   0  0  0  0  0  0  0  0  0  0  0  0
  190.1010  174.3760  141.6090 N   0  0  0  0  0  2  0  0  0  0  0  0
  190.2770  176.6080  146.7820 C   0  0  0  0  0  3  0  0  0  0  0  0
  185.2660  177.8120  146.1050 C   0  0  0  0  0  3  0  0  0  0  0  0
  191.2960  175.4740  144.9040 C   0  0  0  0  0  0  0  0  0  0  0  0
  192.5050  175.4190  145.6050 C   0  0  0  0  0  3  0  0  0  0  0  0
  187.7700  175.5400  142.6580 C   0  0  0  0  0  3  0  0  0  0  0  0
  186.5510  176.6720  144.3970 C   0  0  0  0  0  0  0  0  0  0  0  0
  185.3480  177.2290  144.8410 C   0  0  0  0  0  3  0  0  0  0  0  0
  191.1310  173.7260  139.4900 C   0  0  0  0  0  1  0  0  0  0  0  0
  191.2880  173.7900  141.0000 C   0  0  2  0  0  3  0  0  0  0  0  0
  192.0270  169.8740  142.6170 C   0  0  0  0  0  0  0  0  0  0  0  0
  190.5730  171.4160  141.4490 C   0  0  0  0  0  3  0  0  0  0  0  0
  193.7080  173.1080  142.3300 F   0  0  0  0  0  0  0  0  0  0  0  0
  192.2690  168.6120  143.1390 O   0  0  0  0  0  1  0  0  0  0  0  0
  190.8160  170.1450  141.9750 C   0  0  0  0  0  3  0  0  0  0  0  0
  192.7560  172.1490  142.2080 C   0  0  0  0  0  0  0  0  0  0  0  0
  191.5410  172.4260  141.5630 C   0  0  0  0  0  0  0  0  0  0  0  0
  192.9950  170.8750  142.7330 C   0  0  0  0  0  3  0  0  0  0  0  0
  1  9  1  0  0  0  0
  2  3  1  0  0  0  0
  2  5  1  0  0  0  0
  3  7  1  0  0  0  0
  4 11  1  0  0  0  0
  5 15  1  0  0  0  0
  6  1  1  0  0  0  0
  7  4  2  0  0  0  0
  8 13  1  0  0  0  0
  8 12  2  0  0  0  0
 10 20  1  0  0  0  0
 12 17  1  0  0  0  0
 13  2  2  0  0  0  0
 14  8  1  0  0  0  0
 15  1  2  0  0  0  0
 16  4  1  0  0  0  0
 17  5  2  0  0  0  0
 17 18  1  0  0  0  0
 18  6  2  0  0  0  0
 19 10  2  0  0  0  0
 19 13  1  0  0  0  0
 20 21  1  0  0  0  0
 20  3  2  0  0  0  0
 21 16  2  0  0  0  0
 23 22  1  6  0  0  0
 23 30  1  0  0  0  0
 23 14  1  0  0  0  0
 24 31  1  0  0  0  0
 24 27  1  0  0  0  0
 25 30  2  0  0  0  0
 25 28  1  0  0  0  0
 28 24  2  0  0  0  0
 29 26  1  0  0  0  0
 29 31  2  0  0  0  0
 30 29  1  0  0  0  0
M  END
>  <MODEL>
8

>  <REMARK>
 VINA RESULT:      -8.1      2.941      4.742
  Name = 
  2 active torsions:
  status: ('A' for Active; 'I' for Inactive)
    1  A    between atoms: C_5  and  N_16
    2  A    between atoms: C_5  and  C_30
                            x       y       z     vdW  Elec       q    Type
                         _______ _______ _______ _____ _____    ______ ____

>  <TORSDO>
F 2

$$$$
=
 OpenBabel11112416573D

 31 35  0  0  1  0  0  0  0  0999 V2000
  194.8820  174.9660  145.9500 C   0  0  0  0  0  0  0  0  0  0  0  0
  191.6680  173.8140  144.3550 C   0  0  0  0  0  0  0  0  0  0  0  0
  191.9390  172.5440  143.7450 C   0  0  0  0  0  0  0  0  0  0  0  0
  193.4400  170.6950  143.1880 C   0  0  0  0  0  0  0  0  0  0  0  0
  192.6330  174.5890  145.0680 C   0  0  0  0  0  0  0  0  0  0  0  0
  194.4800  176.1860  146.4920 C   0  0  0  0  0  3  0  0  0  0  0  0
  193.2050  171.9320  143.7920 C   0  0  0  0  0  3  0  0  0  0  0  0
  190.0260  175.5780  144.8220 C   0  0  0  0  0  0  0  0  0  0  0  0
  196.1600  174.5440  146.1050 F   0  0  0  0  0  0  0  0  0  0  0  0
  189.6280  172.4030  142.9720 C   0  0  0  0  0  3  0  0  0  0  0  0
  194.7020  170.1190  143.2540 O   0  0  0  0  0  1  0  0  0  0  0  0
  190.9750  176.2800  145.4890 N   0  0  0  0  0  0  0  0  0  0  0  0
  190.3470  174.3400  144.2440 C   0  0  0  0  0  0  0  0  0  0  0  0
  188.6980  176.1070  144.7080 N   0  0  0  0  0  2  0  0  0  0  0  0
  193.9670  174.1800  145.2470 C   0  0  0  0  0  3  0  0  0  0  0  0
  192.4090  170.0380  142.5200 C   0  0  0  0  0  3  0  0  0  0  0  0
  192.2430  175.8330  145.6280 C   0  0  0  0  0  0  0  0  0  0  0  0
  193.1640  176.6170  146.3310 C   0  0  0  0  0  3  0  0  0  0  0  0
  189.3550  173.6310  143.5580 C   0  0  0  0  0  3  0  0  0  0  0  0
  190.9030  171.8570  143.0570 C   0  0  0  0  0  0  0  0  0  0  0  0
  191.1430  170.6190  142.4550 C   0  0  0  0  0  3  0  0  0  0  0  0
  188.2640  177.2440  146.8280 C   0  0  0  0  0  1  0  0  0  0  0  0
  188.2920  177.3690  145.3130 C   0  0  2  0  0  3  0  0  0  0  0  0
  184.4480  178.5780  143.8080 C   0  0  0  0  0  0  0  0  0  0  0  0
  185.8200  177.7480  145.6210 C   0  0  0  0  0  3  0  0  0  0  0  0
  187.9010  178.2760  142.6450 F   0  0  0  0  0  0  0  0  0  0  0  0
  183.2100  178.9680  143.3200 O   0  0  0  0  0  1  0  0  0  0  0  0
  184.5720  178.1410  145.1300 C   0  0  0  0  0  3  0  0  0  0  0  0
  186.8220  178.2280  143.4660 C   0  0  0  0  0  0  0  0  0  0  0  0
  186.9520  177.7870  144.7930 C   0  0  0  0  0  0  0  0  0  0  0  0
  185.5710  178.6210  142.9780 C   0  0  0  0  0  3  0  0  0  0  0  0
  1  9  1  0  0  0  0
  1  6  1  0  0  0  0
  2  5  1  0  0  0  0
  3  7  1  0  0  0  0
  3  2  2  0  0  0  0
  4 11  1  0  0  0  0
  4  7  2  0  0  0  0
  5 15  1  0  0  0  0
  5 17  2  0  0  0  0
  8 12  2  0  0  0  0
 10 20  2  0  0  0  0
 10 19  1  0  0  0  0
 12 17  1  0  0  0  0
 13  2  1  0  0  0  0
 13  8  1  0  0  0  0
 14  8  1  0  0  0  0
 14 23  1  0  0  0  0
 15  1  2  0  0  0  0
 16  4  1  0  0  0  0
 17 18  1  0  0  0  0
 18  6  2  0  0  0  0
 19 13  2  0  0  0  0
 20  3  1  0  0  0  0
 21 16  2  0  0  0  0
 21 20  1  0  0  0  0
 23 22  1  1  0  0  0
 24 28  1  0  0  0  0
 26 29  1  0  0  0  0
 27 24  1  0  0  0  0
 28 25  2  0  0  0  0
 29 30  2  0  0  0  0
 30 23  1  0  0  0  0
 30 25  1  0  0  0  0
 31 29  1  0  0  0  0
 31 24  2  0  0  0  0
M  END
>  <MODEL>
9

>  <REMARK>
 VINA RESULT:      -7.8      2.085      8.461
  Name = 
  2 active torsions:
  status: ('A' for Active; 'I' for Inactive)
    1  A    between atoms: C_5  and  N_16
    2  A    between atoms: C_5  and  C_30
                            x       y       z     vdW  Elec       q    Type
                         _______ _______ _______ _____ _____    ______ ____

>  <TORSDO>
F 2

$$$$
