=
 OpenBabel11112417273D

 37 44  0  0  1  0  0  0  0  0999 V2000
  193.2170  172.2640  143.3970 C   0  0  0  0  0  0  0  0  0  0  0  0
  190.7900  174.2630  141.3300 C   0  0  1  0  0  3  0  0  0  0  0  0
  189.8330  177.2230  142.4350 O   0  0  0  0  0  0  0  0  0  0  0  0
  192.7480  172.5640  141.1470 C   0  0  2  0  0  3  0  0  0  0  0  0
  190.4860  174.9400  142.6610 C   0  0  2  0  0  3  0  0  0  0  0  0
  192.2930  173.9950  141.4280 C   0  0  2  0  0  3  0  0  0  0  0  0
  189.3240  175.9330  142.6360 C   0  0  2  0  0  3  0  0  0  0  0  0
  191.9760  172.0250  139.9530 C   0  0  0  0  0  2  0  0  0  0  0  0
  192.7030  174.4840  142.8150 C   0  0  2  0  0  3  0  0  0  0  0  0
  194.7270  172.4560  143.2080 C   0  0  0  0  0  1  0  0  0  0  0  0
  188.5840  173.4070  140.6470 N   0  0  0  0  0  2  0  0  0  0  0  0
  190.4720  171.9360  140.2300 C   0  0  0  0  0  2  0  0  0  0  0  0
  192.5640  173.4570  143.7890 O   0  0  0  0  0  0  0  0  0  0  0  0
  189.6170  177.2070  144.8280 O   0  0  0  0  0  0  0  0  0  0  0  0
  189.9340  177.9390  143.6610 C   0  0  1  0  0  3  0  0  0  0  0  0
  189.8970  173.0190  141.1610 C   0  0  1  0  0  3  0  0  0  0  0  0
  191.7420  175.5620  143.0850 N   0  0  2  0  0  0  0  0  0  0  0  0
  192.5900  171.7090  142.2570 O   0  0  0  0  0  0  0  0  0  0  0  0
  188.1980  175.6040  141.6450 C   0  0  1  0  0  3  0  0  0  0  0  0
  193.0510  171.2730  144.5290 C   0  0  0  0  0  1  0  0  0  0  0  0
  190.9940  177.4210  144.6020 C   0  0  2  0  0  3  0  0  0  0  0  0
  191.6640  176.0250  144.4870 C   0  0  2  0  0  3  0  0  0  0  0  0
  187.8310  174.1200  141.6730 C   0  0  0  0  0  2  0  0  0  0  0  0
  186.4040  176.4120  143.1850 C   0  0  0  0  0  3  0  0  0  0  0  0
  186.9900  176.4480  141.9160 C   0  0  0  0  0  0  0  0  0  0  0  0
  186.4360  177.2650  140.9180 C   0  0  0  0  0  3  0  0  0  0  0  0
  184.7710  178.8240  140.2270 F   0  0  0  0  0  0  0  0  0  0  0  0
  184.7210  177.9980  142.4630 C   0  0  0  0  0  3  0  0  0  0  0  0
  185.3040  178.0370  141.1930 C   0  0  0  0  0  0  0  0  0  0  0  0
  185.2720  177.1860  143.4590 C   0  0  0  0  0  3  0  0  0  0  0  0
  193.0670  176.1860  145.1210 C   0  0  1  0  0  3  0  0  0  0  0  0
  193.0940  176.2200  146.6140 N   0  0  0  0  0  0  0  0  0  0  0  0
  193.4800  175.0090  145.8800 C   0  0  2  0  0  3  0  0  0  0  0  0
  195.2880  174.8810  145.8530 S   0  0  0  0  0  0  0  0  0  0  0  0
  195.4240  176.1630  144.5770 C   0  0  0  0  0  1  0  0  0  0  0  0
  191.5160  176.9100  148.3270 C   0  0  0  0  0  1  0  0  0  0  0  0
  191.8250  175.8870  147.2550 C   0  0  0  0  0  2  0  0  0  0  0  0
  1 13  1  0  0  0  0
  1 20  1  0  0  0  0
  2  6  1  0  0  0  0
  2  5  1  0  0  0  0
  3  7  1  0  0  0  0
  3 15  1  0  0  0  0
  4  6  1  0  0  0  0
  4 18  1  0  0  0  0
  5 17  1  0  0  0  0
  6  9  1  0  0  0  0
  7  5  1  0  0  0  0
  8 12  1  0  0  0  0
  8  4  1  0  0  0  0
  9 17  1  0  0  0  0
  9 13  1  0  0  0  0
 10  1  1  0  0  0  0
 11 16  1  0  0  0  0
 11 23  1  0  0  0  0
 12 16  1  0  0  0  0
 15 21  1  0  0  0  0
 15 14  1  0  0  0  0
 16  2  1  0  0  0  0
 17 22  1  0  0  0  0
 18  1  1  0  0  0  0
 19 23  1  0  0  0  0
 19 25  1  0  0  0  0
 19  7  1  0  0  0  0
 21 14  1  0  0  0  0
 22 21  1  0  0  0  0
 22 31  1  0  0  0  0
 24 30  1  0  0  0  0
 25 24  2  0  0  0  0
 26 29  2  0  0  0  0
 26 25  1  0  0  0  0
 27 29  1  0  0  0  0
 28 30  2  0  0  0  0
 29 28  1  0  0  0  0
 31 33  1  0  0  0  0
 31 32  1  0  0  0  0
 32 37  1  0  0  0  0
 33 32  1  0  0  0  0
 34 33  1  0  0  0  0
 35 34  1  0  0  0  0
 37 36  1  0  0  0  0
M  END
>  <MODEL>
1

>  <REMARK>
 VINA RESULT:      -7.9      0.000      0.000
  Name = 
  4 active torsions:
  status: ('A' for Active; 'I' for Inactive)
    1  A    between atoms: C_1  and  C_27
    2  A    between atoms: N_4  and  C_37
    3  A    between atoms: S_8  and  C_12
    4  A    between atoms: C_23  and  C_30
                            x       y       z     vdW  Elec       q    Type
                         _______ _______ _______ _____ _____    ______ ____

>  <TORSDO>
F 4

$$$$
=
 OpenBabel11112417273D

 37 44  0  0  1  0  0  0  0  0999 V2000
  193.1680  174.6190  145.0460 C   0  0  0  0  0  0  0  0  0  0  0  0
  189.4860  175.3870  145.1240 C   0  0  1  0  0  3  0  0  0  0  0  0
  187.6250  174.4780  142.5530 O   0  0  0  0  0  0  0  0  0  0  0  0
  191.4990  174.7730  146.6470 C   0  0  2  0  0  3  0  0  0  0  0  0
  189.6100  175.2750  143.6090 C   0  0  2  0  0  3  0  0  0  0  0  0
  190.4650  174.3200  145.6180 C   0  0  2  0  0  3  0  0  0  0  0  0
  188.3520  175.6450  142.8240 C   0  0  2  0  0  3  0  0  0  0  0  0
  190.8250  175.6850  147.6590 C   0  0  0  0  0  2  0  0  0  0  0  0
  191.1000  173.7360  144.3590 C   0  0  2  0  0  3  0  0  0  0  0  0
  193.6840  173.2730  145.5710 C   0  0  0  0  0  1  0  0  0  0  0  0
  188.5950  177.6630  145.4220 N   0  0  0  0  0  2  0  0  0  0  0  0
  190.2920  176.9680  147.0150 C   0  0  0  0  0  2  0  0  0  0  0  0
  192.2570  174.4690  143.9740 O   0  0  0  0  0  0  0  0  0  0  0  0
  188.8420  174.7210  140.4950 O   0  0  0  0  0  0  0  0  0  0  0  0
  187.8660  174.0100  141.2300 C   0  0  1  0  0  3  0  0  0  0  0  0
  189.7890  176.8320  145.5670 C   0  0  1  0  0  3  0  0  0  0  0  0
  190.0460  173.9010  143.3480 N   0  0  2  0  0  0  0  0  0  0  0  0
  192.6070  175.4240  146.0640 O   0  0  0  0  0  0  0  0  0  0  0  0
  187.4710  176.7290  143.4620 C   0  0  1  0  0  3  0  0  0  0  0  0
  194.3750  175.3570  144.5050 C   0  0  0  0  0  1  0  0  0  0  0  0
  189.2560  173.4700  141.0020 C   0  0  2  0  0  3  0  0  0  0  0  0
  190.4650  173.7310  141.9400 C   0  0  2  0  0  3  0  0  0  0  0  0
  188.3050  177.8890  144.0100 C   0  0  0  0  0  2  0  0  0  0  0  0
  186.8360  177.4560  141.1580 C   0  0  0  0  0  3  0  0  0  0  0  0
  186.4530  177.2300  142.4840 C   0  0  0  0  0  0  0  0  0  0  0  0
  185.1300  177.4820  142.8780 C   0  0  0  0  0  3  0  0  0  0  0  0
  182.9240  178.2000  142.3320 F   0  0  0  0  0  0  0  0  0  0  0  0
  184.5870  178.1810  140.6240 C   0  0  0  0  0  3  0  0  0  0  0  0
  184.2000  177.9570  141.9490 C   0  0  0  0  0  0  0  0  0  0  0  0
  185.9040  177.9300  140.2290 C   0  0  0  0  0  3  0  0  0  0  0  0
  191.4000  172.5100  141.7600 C   0  0  1  0  0  3  0  0  0  0  0  0
  192.1340  172.4530  140.4610 N   0  0  0  0  0  0  0  0  0  0  0  0
  192.8090  172.8850  141.6900 C   0  0  2  0  0  3  0  0  0  0  0  0
  193.8250  171.5240  142.3210 S   0  0  0  0  0  0  0  0  0  0  0  0
  192.3610  170.5850  142.8370 C   0  0  0  0  0  1  0  0  0  0  0  0
  191.7760  173.2710  138.2020 C   0  0  0  0  0  1  0  0  0  0  0  0
  192.0230  173.6580  139.6450 C   0  0  0  0  0  2  0  0  0  0  0  0
  1 10  1  0  0  0  0
  1 18  1  0  0  0  0
  2 16  1  0  0  0  0
  2  6  1  0  0  0  0
  3  7  1  0  0  0  0
  4  8  1  0  0  0  0
  5  2  1  0  0  0  0
  6  4  1  0  0  0  0
  7 19  1  0  0  0  0
  7  5  1  0  0  0  0
  9  6  1  0  0  0  0
 11 16  1  0  0  0  0
 12  8  1  0  0  0  0
 13  9  1  0  0  0  0
 13  1  1  0  0  0  0
 14 21  1  0  0  0  0
 14 15  1  0  0  0  0
 15  3  1  0  0  0  0
 16 12  1  0  0  0  0
 17  5  1  0  0  0  0
 17  9  1  0  0  0  0
 18  4  1  0  0  0  0
 19 23  1  0  0  0  0
 20  1  1  0  0  0  0
 21 15  1  0  0  0  0
 21 22  1  0  0  0  0
 22 17  1  0  0  0  0
 23 11  1  0  0  0  0
 24 25  1  0  0  0  0
 25 26  2  0  0  0  0
 25 19  1  0  0  0  0
 28 29  2  0  0  0  0
 29 27  1  0  0  0  0
 29 26  1  0  0  0  0
 30 28  1  0  0  0  0
 30 24  2  0  0  0  0
 31 22  1  0  0  0  0
 32 33  1  0  0  0  0
 32 31  1  0  0  0  0
 33 31  1  0  0  0  0
 33 34  1  0  0  0  0
 34 35  1  0  0  0  0
 36 37  1  0  0  0  0
 37 32  1  0  0  0  0
M  END
>  <MODEL>
2

>  <REMARK>
 VINA RESULT:      -7.8      2.108      4.917
  Name = 
  4 active torsions:
  status: ('A' for Active; 'I' for Inactive)
    1  A    between atoms: C_1  and  C_27
    2  A    between atoms: N_4  and  C_37
    3  A    between atoms: S_8  and  C_12
    4  A    between atoms: C_23  and  C_30
                            x       y       z     vdW  Elec       q    Type
                         _______ _______ _______ _____ _____    ______ ____

>  <TORSDO>
F 4

$$$$
=
 OpenBabel11112417273D

 37 44  0  0  1  0  0  0  0  0999 V2000
  193.9390  173.6670  142.6220 C   0  0  0  0  0  0  0  0  0  0  0  0
  191.0770  175.0170  144.6570 C   0  0  1  0  0  3  0  0  0  0  0  0
  188.0310  174.8810  143.3890 O   0  0  0  0  0  0  0  0  0  0  0  0
  193.3760  173.8250  144.8650 C   0  0  2  0  0  3  0  0  0  0  0  0
  190.4000  175.1440  143.2970 C   0  0  2  0  0  3  0  0  0  0  0  0
  191.8950  173.7330  144.5040 C   0  0  2  0  0  3  0  0  0  0  0  0
  189.0430  175.8470  143.3080 C   0  0  2  0  0  3  0  0  0  0  0  0
  193.5270  174.6530  146.1310 C   0  0  0  0  0  2  0  0  0  0  0  0
  191.6640  173.2720  143.0670 C   0  0  2  0  0  3  0  0  0  0  0  0
  194.3210  172.1850  142.7210 C   0  0  0  0  0  1  0  0  0  0  0  0
  191.0060  177.3270  145.5080 N   0  0  0  0  0  2  0  0  0  0  0  0
  193.0570  176.0970  145.9360 C   0  0  0  0  0  2  0  0  0  0  0  0
  192.6090  173.8550  142.1780 O   0  0  0  0  0  0  0  0  0  0  0  0
  188.0800  175.2610  141.0180 O   0  0  0  0  0  0  0  0  0  0  0  0
  187.4670  174.6100  142.1110 C   0  0  1  0  0  3  0  0  0  0  0  0
  191.8840  176.2940  144.9590 C   0  0  1  0  0  3  0  0  0  0  0  0
  190.3180  173.7800  142.7670 N   0  0  2  0  0  0  0  0  0  0  0  0
  194.1620  174.3710  143.8280 O   0  0  0  0  0  0  0  0  0  0  0  0
  188.8760  176.9390  144.3740 C   0  0  1  0  0  3  0  0  0  0  0  0
  194.8490  174.2730  141.5740 C   0  0  0  0  0  1  0  0  0  0  0  0
  188.3900  173.8910  141.1590 C   0  0  2  0  0  3  0  0  0  0  0  0
  189.9280  173.7830  141.3410 C   0  0  2  0  0  3  0  0  0  0  0  0
  190.1120  177.8330  144.4710 C   0  0  0  0  0  2  0  0  0  0  0  0
  187.3820  178.1680  142.7920 C   0  0  0  0  0  3  0  0  0  0  0  0
  187.6540  177.7610  144.1030 C   0  0  0  0  0  0  0  0  0  0  0  0
  186.7850  178.1360  145.1400 C   0  0  0  0  0  3  0  0  0  0  0  0
  184.8190  179.2710  145.8670 F   0  0  0  0  0  0  0  0  0  0  0  0
  185.3880  179.3140  143.5520 C   0  0  0  0  0  3  0  0  0  0  0  0
  185.6550  178.9110  144.8630 C   0  0  0  0  0  0  0  0  0  0  0  0
  186.2510  178.9420  142.5170 C   0  0  0  0  0  3  0  0  0  0  0  0
  190.3380  172.4710  140.6280 C   0  0  1  0  0  3  0  0  0  0  0  0
  190.2110  172.4850  139.1410 N   0  0  0  0  0  0  0  0  0  0  0  0
  191.5200  172.6320  139.7870 C   0  0  2  0  0  3  0  0  0  0  0  0
  192.4110  171.0570  139.6930 S   0  0  0  0  0  0  0  0  0  0  0  0
  191.2360  170.2520  140.8170 C   0  0  0  0  0  1  0  0  0  0  0  0
  188.8860  173.6490  137.4700 C   0  0  0  0  0  1  0  0  0  0  0  0
  189.9220  173.7950  138.5650 C   0  0  0  0  0  2  0  0  0  0  0  0
  1 10  1  0  0  0  0
  1 18  1  0  0  0  0
  2 16  1  0  0  0  0
  4  8  1  0  0  0  0
  5  7  1  0  0  0  0
  5  2  1  0  0  0  0
  6  2  1  0  0  0  0
  6  4  1  0  0  0  0
  7  3  1  0  0  0  0
  7 19  1  0  0  0  0
  9  6  1  0  0  0  0
 12  8  1  0  0  0  0
 13  1  1  0  0  0  0
 13  9  1  0  0  0  0
 14 21  1  0  0  0  0
 14 15  1  0  0  0  0
 15  3  1  0  0  0  0
 16 11  1  0  0  0  0
 16 12  1  0  0  0  0
 17  9  1  0  0  0  0
 17  5  1  0  0  0  0
 18  4  1  0  0  0  0
 19 23  1  0  0  0  0
 20  1  1  0  0  0  0
 21 22  1  0  0  0  0
 21 15  1  0  0  0  0
 22 17  1  0  0  0  0
 23 11  1  0  0  0  0
 24 25  1  0  0  0  0
 25 19  1  0  0  0  0
 25 26  2  0  0  0  0
 28 29  2  0  0  0  0
 29 26  1  0  0  0  0
 29 27  1  0  0  0  0
 30 24  2  0  0  0  0
 30 28  1  0  0  0  0
 31 22  1  0  0  0  0
 32 33  1  0  0  0  0
 32 31  1  0  0  0  0
 33 31  1  0  0  0  0
 34 33  1  0  0  0  0
 34 35  1  0  0  0  0
 36 37  1  0  0  0  0
 37 32  1  0  0  0  0
M  END
>  <MODEL>
3

>  <REMARK>
 VINA RESULT:      -7.7      2.395      5.188
  Name = 
  4 active torsions:
  status: ('A' for Active; 'I' for Inactive)
    1  A    between atoms: C_1  and  C_27
    2  A    between atoms: N_4  and  C_37
    3  A    between atoms: S_8  and  C_12
    4  A    between atoms: C_23  and  C_30
                            x       y       z     vdW  Elec       q    Type
                         _______ _______ _______ _____ _____    ______ ____

>  <TORSDO>
F 4

$$$$
=
 OpenBabel11112417273D

 37 44  0  0  1  0  0  0  0  0999 V2000
  194.1020  173.9510  142.6400 C   0  0  0  0  0  0  0  0  0  0  0  0
  191.1340  175.1610  144.6110 C   0  0  1  0  0  3  0  0  0  0  0  0
  188.1230  174.8370  143.2970 O   0  0  0  0  0  0  0  0  0  0  0  0
  193.4940  174.1040  144.8710 C   0  0  2  0  0  3  0  0  0  0  0  0
  190.4740  175.2320  143.2380 C   0  0  2  0  0  3  0  0  0  0  0  0
  192.0260  173.9240  144.4880 C   0  0  2  0  0  3  0  0  0  0  0  0
  189.0800  175.8570  143.2180 C   0  0  2  0  0  3  0  0  0  0  0  0
  193.5760  174.9550  146.1290 C   0  0  0  0  0  2  0  0  0  0  0  0
  191.8450  173.4330  143.0540 C   0  0  2  0  0  3  0  0  0  0  0  0
  194.5650  172.4940  142.7650 C   0  0  0  0  0  1  0  0  0  0  0  0
  190.9180  177.4730  145.4300 N   0  0  0  0  0  2  0  0  0  0  0  0
  193.0280  176.3680  145.9070 C   0  0  0  0  0  2  0  0  0  0  0  0
  192.7710  174.0570  142.1720 O   0  0  0  0  0  0  0  0  0  0  0  0
  188.1900  175.1890  140.9210 O   0  0  0  0  0  0  0  0  0  0  0  0
  187.5960  174.5180  142.0130 C   0  0  1  0  0  3  0  0  0  0  0  0
  191.8630  176.4860  144.9090 C   0  0  1  0  0  3  0  0  0  0  0  0
  190.4780  173.8600  142.7260 N   0  0  2  0  0  0  0  0  0  0  0  0
  194.2650  174.6810  143.8400 O   0  0  0  0  0  0  0  0  0  0  0  0
  188.8330  176.9510  144.2670 C   0  0  1  0  0  3  0  0  0  0  0  0
  194.9930  174.5940  141.5990 C   0  0  0  0  0  1  0  0  0  0  0  0
  188.5750  173.8410  141.0860 C   0  0  2  0  0  3  0  0  0  0  0  0
  190.1130  173.8230  141.2930 C   0  0  2  0  0  3  0  0  0  0  0  0
  190.0150  177.9150  144.3720 C   0  0  0  0  0  2  0  0  0  0  0  0
  186.7600  178.1240  145.0240 C   0  0  0  0  0  3  0  0  0  0  0  0
  187.5710  177.6990  143.9660 C   0  0  0  0  0  0  0  0  0  0  0  0
  187.1860  177.9730  142.6440 C   0  0  0  0  0  3  0  0  0  0  0  0
  185.6300  178.9280  141.1110 F   0  0  0  0  0  0  0  0  0  0  0  0
  185.1930  179.0880  143.4490 C   0  0  0  0  0  3  0  0  0  0  0  0
  185.9990  178.6660  142.3880 C   0  0  0  0  0  0  0  0  0  0  0  0
  185.5740  178.8170  144.7670 C   0  0  0  0  0  3  0  0  0  0  0  0
  190.6080  172.5270  140.6050 C   0  0  1  0  0  3  0  0  0  0  0  0
  190.4910  172.5100  139.1170 N   0  0  0  0  0  0  0  0  0  0  0  0
  191.7840  172.7490  139.7690 C   0  0  2  0  0  3  0  0  0  0  0  0
  192.7710  171.2300  139.7070 S   0  0  0  0  0  0  0  0  0  0  0  0
  191.6650  170.3870  140.8710 C   0  0  0  0  0  1  0  0  0  0  0  0
  189.1290  173.5610  137.4020 C   0  0  0  0  0  1  0  0  0  0  0  0
  190.1260  173.7910  138.5180 C   0  0  0  0  0  2  0  0  0  0  0  0
  1 10  1  0  0  0  0
  1 18  1  0  0  0  0
  2 16  1  0  0  0  0
  4  8  1  0  0  0  0
  5  2  1  0  0  0  0
  6  2  1  0  0  0  0
  6  4  1  0  0  0  0
  7  5  1  0  0  0  0
  7  3  1  0  0  0  0
  7 19  1  0  0  0  0
  9  6  1  0  0  0  0
 12  8  1  0  0  0  0
 13  1  1  0  0  0  0
 13  9  1  0  0  0  0
 14 21  1  0  0  0  0
 14 15  1  0  0  0  0
 15  3  1  0  0  0  0
 16 11  1  0  0  0  0
 16 12  1  0  0  0  0
 17  9  1  0  0  0  0
 17  5  1  0  0  0  0
 18  4  1  0  0  0  0
 19 23  1  0  0  0  0
 20  1  1  0  0  0  0
 21 22  1  0  0  0  0
 21 15  1  0  0  0  0
 22 17  1  0  0  0  0
 23 11  1  0  0  0  0
 25 19  1  0  0  0  0
 25 24  2  0  0  0  0
 26 25  1  0  0  0  0
 27 29  1  0  0  0  0
 28 30  2  0  0  0  0
 29 26  2  0  0  0  0
 29 28  1  0  0  0  0
 30 24  1  0  0  0  0
 31 22  1  0  0  0  0
 32 33  1  0  0  0  0
 32 31  1  0  0  0  0
 33 31  1  0  0  0  0
 34 33  1  0  0  0  0
 34 35  1  0  0  0  0
 36 37  1  0  0  0  0
 37 32  1  0  0  0  0
M  END
>  <MODEL>
4

>  <REMARK>
 VINA RESULT:      -7.5      2.164      5.027
  Name = 
  4 active torsions:
  status: ('A' for Active; 'I' for Inactive)
    1  A    between atoms: C_1  and  C_27
    2  A    between atoms: N_4  and  C_37
    3  A    between atoms: S_8  and  C_12
    4  A    between atoms: C_23  and  C_30
                            x       y       z     vdW  Elec       q    Type
                         _______ _______ _______ _____ _____    ______ ____

>  <TORSDO>
F 4

$$$$
=
 OpenBabel11112417273D

 37 44  0  0  1  0  0  0  0  0999 V2000
  192.5260  172.1330  142.1080 C   0  0  0  0  0  0  0  0  0  0  0  0
  189.8050  174.6120  141.3290 C   0  0  1  0  0  3  0  0  0  0  0  0
  190.0230  177.6520  142.5980 O   0  0  0  0  0  0  0  0  0  0  0  0
  191.1100  172.5970  140.3330 C   0  0  2  0  0  3  0  0  0  0  0  0
  190.2910  175.2810  142.6090 C   0  0  2  0  0  3  0  0  0  0  0  0
  191.1020  174.0750  140.7200 C   0  0  2  0  0  3  0  0  0  0  0  0
  189.4510  176.4670  143.0820 C   0  0  2  0  0  3  0  0  0  0  0  0
  189.7840  172.2510  139.6740 C   0  0  0  0  0  2  0  0  0  0  0  0
  192.1980  174.4290  141.7210 C   0  0  2  0  0  3  0  0  0  0  0  0
  193.7740  172.0570  141.2190 C   0  0  0  0  0  1  0  0  0  0  0  0
  187.4270  174.1930  141.8130 N   0  0  0  0  0  2  0  0  0  0  0  0
  188.6010  172.4230  140.6320 C   0  0  0  0  0  2  0  0  0  0  0  0
  192.3580  173.4080  142.6980 O   0  0  0  0  0  0  0  0  0  0  0  0
  190.9660  177.5840  144.8070 O   0  0  0  0  0  0  0  0  0  0  0  0
  190.8160  178.2900  143.5920 C   0  0  1  0  0  3  0  0  0  0  0  0
  188.7350  173.5550  141.6660 C   0  0  1  0  0  3  0  0  0  0  0  0
  191.6860  175.6510  142.3570 N   0  0  2  0  0  0  0  0  0  0  0  0
  191.3480  171.7420  141.4290 O   0  0  0  0  0  0  0  0  0  0  0  0
  187.9530  176.3840  142.7590 C   0  0  1  0  0  3  0  0  0  0  0  0
  192.7440  171.1450  143.2350 C   0  0  0  0  0  1  0  0  0  0  0  0
  192.0850  177.5550  143.9470 C   0  0  2  0  0  3  0  0  0  0  0  0
  192.3640  176.0670  143.6040 C   0  0  2  0  0  3  0  0  0  0  0  0
  187.3880  174.9900  143.0340 C   0  0  0  0  0  2  0  0  0  0  0  0
  186.5250  178.4330  142.8210 C   0  0  0  0  0  3  0  0  0  0  0  0
  187.1870  177.4210  143.5230 C   0  0  0  0  0  0  0  0  0  0  0  0
  187.1310  177.3970  144.9250 C   0  0  0  0  0  3  0  0  0  0  0  0
  186.3650  178.3540  146.9690 F   0  0  0  0  0  0  0  0  0  0  0  0
  185.7560  179.3900  144.9100 C   0  0  0  0  0  3  0  0  0  0  0  0
  186.4170  178.3800  145.6150 C   0  0  0  0  0  0  0  0  0  0  0  0
  185.8100  179.4160  143.5130 C   0  0  0  0  0  3  0  0  0  0  0  0
  193.9030  175.9490  143.4910 C   0  0  1  0  0  3  0  0  0  0  0  0
  194.6470  176.0430  144.7830 N   0  0  0  0  0  0  0  0  0  0  0  0
  194.4240  174.7460  144.1330 C   0  0  2  0  0  3  0  0  0  0  0  0
  195.9460  174.2290  143.2970 S   0  0  0  0  0  0  0  0  0  0  0  0
  196.5590  175.9350  143.2200 C   0  0  0  0  0  1  0  0  0  0  0  0
  194.1910  177.1660  146.8880 C   0  0  0  0  0  1  0  0  0  0  0  0
  193.8050  176.0210  145.9750 C   0  0  0  0  0  2  0  0  0  0  0  0
  1 13  1  0  0  0  0
  1 20  1  0  0  0  0
  2 16  1  0  0  0  0
  2  5  1  0  0  0  0
  3  7  1  0  0  0  0
  3 15  1  0  0  0  0
  4  6  1  0  0  0  0
  4 18  1  0  0  0  0
  5  7  1  0  0  0  0
  6  2  1  0  0  0  0
  6  9  1  0  0  0  0
  8  4  1  0  0  0  0
  8 12  1  0  0  0  0
  9 17  1  0  0  0  0
  9 13  1  0  0  0  0
 10  1  1  0  0  0  0
 11 23  1  0  0  0  0
 12 16  1  0  0  0  0
 15 21  1  0  0  0  0
 15 14  1  0  0  0  0
 16 11  1  0  0  0  0
 17  5  1  0  0  0  0
 17 22  1  0  0  0  0
 18  1  1  0  0  0  0
 19 23  1  0  0  0  0
 19  7  1  0  0  0  0
 19 25  1  0  0  0  0
 21 14  1  0  0  0  0
 22 21  1  0  0  0  0
 24 30  2  0  0  0  0
 24 25  1  0  0  0  0
 25 26  2  0  0  0  0
 26 29  1  0  0  0  0
 28 29  2  0  0  0  0
 29 27  1  0  0  0  0
 30 28  1  0  0  0  0
 31 22  1  0  0  0  0
 31 33  1  0  0  0  0
 31 32  1  0  0  0  0
 32 37  1  0  0  0  0
 33 32  1  0  0  0  0
 34 33  1  0  0  0  0
 35 34  1  0  0  0  0
 37 36  1  0  0  0  0
M  END
>  <MODEL>
5

>  <REMARK>
 VINA RESULT:      -7.4      1.916      2.282
  Name = 
  4 active torsions:
  status: ('A' for Active; 'I' for Inactive)
    1  A    between atoms: C_1  and  C_27
    2  A    between atoms: N_4  and  C_37
    3  A    between atoms: S_8  and  C_12
    4  A    between atoms: C_23  and  C_30
                            x       y       z     vdW  Elec       q    Type
                         _______ _______ _______ _____ _____    ______ ____

>  <TORSDO>
F 4

$$$$
=
 OpenBabel11112417273D

 37 44  0  0  1  0  0  0  0  0999 V2000
  193.8600  172.2320  141.8100 C   0  0  0  0  0  0  0  0  0  0  0  0
  190.6880  174.0760  140.9810 C   0  0  1  0  0  3  0  0  0  0  0  0
  190.1460  177.0100  142.3960 O   0  0  0  0  0  0  0  0  0  0  0  0
  192.4630  172.4660  139.9760 C   0  0  2  0  0  3  0  0  0  0  0  0
  190.9470  174.7640  142.3170 C   0  0  2  0  0  3  0  0  0  0  0  0
  192.1010  173.8800  140.4280 C   0  0  2  0  0  3  0  0  0  0  0  0
  189.8370  175.7010  142.7910 C   0  0  2  0  0  3  0  0  0  0  0  0
  191.2840  171.8700  139.2250 C   0  0  0  0  0  2  0  0  0  0  0  0
  193.0380  174.4140  141.5080 C   0  0  2  0  0  3  0  0  0  0  0  0
  195.1350  172.4890  140.9960 C   0  0  0  0  0  1  0  0  0  0  0  0
  188.4470  173.1070  141.3030 N   0  0  0  0  0  2  0  0  0  0  0  0
  190.0480  171.7170  140.1160 C   0  0  0  0  0  2  0  0  0  0  0  0
  193.3790  173.4010  142.4460 O   0  0  0  0  0  0  0  0  0  0  0  0
  190.9730  177.0300  144.6520 O   0  0  0  0  0  0  0  0  0  0  0  0
  190.7250  177.7530  143.4630 C   0  0  1  0  0  3  0  0  0  0  0  0
  189.8710  172.7890  141.2060 C   0  0  1  0  0  3  0  0  0  0  0  0
  192.2310  175.4510  142.1650 N   0  0  2  0  0  0  0  0  0  0  0  0
  192.8360  171.6260  141.0460 O   0  0  0  0  0  0  0  0  0  0  0  0
  188.4140  175.3020  142.3760 C   0  0  1  0  0  3  0  0  0  0  0  0
  194.2430  171.2550  142.9030 C   0  0  0  0  0  1  0  0  0  0  0  0
  192.1090  177.3020  143.8600 C   0  0  2  0  0  3  0  0  0  0  0  0
  192.7350  175.9370  143.4680 C   0  0  2  0  0  3  0  0  0  0  0  0
  188.1690  173.8040  142.5540 C   0  0  0  0  0  2  0  0  0  0  0  0
  187.5810  176.3010  144.5090 C   0  0  0  0  0  3  0  0  0  0  0  0
  187.3970  176.0950  143.1380 C   0  0  0  0  0  0  0  0  0  0  0  0
  186.2630  176.6240  142.5020 C   0  0  0  0  0  3  0  0  0  0  0  0
  184.2300  177.8630  142.6200 F   0  0  0  0  0  0  0  0  0  0  0  0
  185.5120  177.5570  144.6060 C   0  0  0  0  0  3  0  0  0  0  0  0
  185.3230  177.3530  143.2370 C   0  0  0  0  0  0  0  0  0  0  0  0
  186.6410  177.0320  145.2420 C   0  0  0  0  0  3  0  0  0  0  0  0
  194.2650  176.1740  143.4420 C   0  0  1  0  0  3  0  0  0  0  0  0
  194.9120  176.3110  144.7810 N   0  0  0  0  0  0  0  0  0  0  0  0
  195.0170  175.0630  144.0170 C   0  0  2  0  0  3  0  0  0  0  0  0
  196.6510  174.9770  143.2380 S   0  0  0  0  0  0  0  0  0  0  0  0
  196.7900  176.7840  143.1820 C   0  0  0  0  0  1  0  0  0  0  0  0
  194.1150  177.1110  146.9320 C   0  0  0  0  0  1  0  0  0  0  0  0
  194.0470  175.9920  145.9130 C   0  0  0  0  0  2  0  0  0  0  0  0
  1 13  1  0  0  0  0
  1 20  1  0  0  0  0
  2 16  1  0  0  0  0
  2  5  1  0  0  0  0
  3  7  1  0  0  0  0
  3 15  1  0  0  0  0
  4  6  1  0  0  0  0
  4 18  1  0  0  0  0
  5  7  1  0  0  0  0
  6  2  1  0  0  0  0
  6  9  1  0  0  0  0
  8  4  1  0  0  0  0
  8 12  1  0  0  0  0
  9 17  1  0  0  0  0
  9 13  1  0  0  0  0
 10  1  1  0  0  0  0
 11 23  1  0  0  0  0
 12 16  1  0  0  0  0
 15 21  1  0  0  0  0
 15 14  1  0  0  0  0
 16 11  1  0  0  0  0
 17  5  1  0  0  0  0
 17 22  1  0  0  0  0
 18  1  1  0  0  0  0
 19 23  1  0  0  0  0
 19  7  1  0  0  0  0
 19 25  1  0  0  0  0
 21 14  1  0  0  0  0
 22 21  1  0  0  0  0
 24 30  1  0  0  0  0
 25 24  2  0  0  0  0
 26 25  1  0  0  0  0
 26 29  2  0  0  0  0
 27 29  1  0  0  0  0
 28 30  2  0  0  0  0
 29 28  1  0  0  0  0
 31 22  1  0  0  0  0
 31 33  1  0  0  0  0
 31 32  1  0  0  0  0
 32 37  1  0  0  0  0
 33 32  1  0  0  0  0
 34 33  1  0  0  0  0
 35 34  1  0  0  0  0
 37 36  1  0  0  0  0
M  END
>  <MODEL>
6

>  <REMARK>
 VINA RESULT:      -7.3      1.474      1.707
  Name = 
  4 active torsions:
  status: ('A' for Active; 'I' for Inactive)
    1  A    between atoms: C_1  and  C_27
    2  A    between atoms: N_4  and  C_37
    3  A    between atoms: S_8  and  C_12
    4  A    between atoms: C_23  and  C_30
                            x       y       z     vdW  Elec       q    Type
                         _______ _______ _______ _____ _____    ______ ____

>  <TORSDO>
F 4

$$$$
=
 OpenBabel11112417273D

 37 44  0  0  1  0  0  0  0  0999 V2000
  194.6340  175.1680  142.4820 C   0  0  0  0  0  0  0  0  0  0  0  0
  191.6960  175.1380  144.8330 C   0  0  1  0  0  3  0  0  0  0  0  0
  188.6800  174.6270  143.5910 O   0  0  0  0  0  0  0  0  0  0  0  0
  194.2200  174.5380  144.6740 C   0  0  2  0  0  3  0  0  0  0  0  0
  190.9090  175.4770  143.5730 C   0  0  2  0  0  3  0  0  0  0  0  0
  192.7780  174.1920  144.3060 C   0  0  2  0  0  3  0  0  0  0  0  0
  189.4300  175.7930  143.7950 C   0  0  2  0  0  3  0  0  0  0  0  0
  194.2670  174.9810  146.1270 C   0  0  0  0  0  2  0  0  0  0  0  0
  192.5530  174.1180  142.7980 C   0  0  2  0  0  3  0  0  0  0  0  0
  195.3570  173.8600  142.1390 C   0  0  0  0  0  1  0  0  0  0  0  0
  191.1530  177.0180  146.3270 N   0  0  0  0  0  2  0  0  0  0  0  0
  193.4600  176.2600  146.3680 C   0  0  0  0  0  2  0  0  0  0  0  0
  193.2670  175.1430  142.1170 O   0  0  0  0  0  0  0  0  0  0  0  0
  188.4620  175.6670  141.4370 O   0  0  0  0  0  0  0  0  0  0  0  0
  188.1010  174.6010  142.2920 C   0  0  1  0  0  3  0  0  0  0  0  0
  192.2040  176.4330  145.4960 C   0  0  1  0  0  3  0  0  0  0  0  0
  191.1080  174.3450  142.6660 N   0  0  2  0  0  0  0  0  0  0  0  0
  194.7770  175.5310  143.8420 O   0  0  0  0  0  0  0  0  0  0  0  0
  189.0930  176.4600  145.1360 C   0  0  1  0  0  3  0  0  0  0  0  0
  195.2960  176.2510  141.6560 C   0  0  0  0  0  1  0  0  0  0  0  0
  189.0920  174.4330  141.1680 C   0  0  2  0  0  3  0  0  0  0  0  0
  190.6220  174.6580  141.3040 C   0  0  2  0  0  3  0  0  0  0  0  0
  190.0900  177.5640  145.4890 C   0  0  0  0  0  2  0  0  0  0  0  0
  186.7680  176.5130  146.0510 C   0  0  0  0  0  3  0  0  0  0  0  0
  187.6960  177.0000  145.1230 C   0  0  0  0  0  0  0  0  0  0  0  0
  187.3010  177.9750  144.1940 C   0  0  0  0  0  3  0  0  0  0  0  0
  185.6130  179.3990  143.2980 F   0  0  0  0  0  0  0  0  0  0  0  0
  185.0670  177.9680  145.1260 C   0  0  0  0  0  3  0  0  0  0  0  0
  185.9900  178.4570  144.1970 C   0  0  0  0  0  0  0  0  0  0  0  0
  185.4570  176.9970  146.0530 C   0  0  0  0  0  3  0  0  0  0  0  0
  191.2720  173.7450  140.2360 C   0  0  1  0  0  3  0  0  0  0  0  0
  191.0230  172.2830  140.4080 N   0  0  0  0  0  0  0  0  0  0  0  0
  190.2870  173.0610  139.4050 C   0  0  2  0  0  3  0  0  0  0  0  0
  190.9960  172.7450  137.7670 S   0  0  0  0  0  0  0  0  0  0  0  0
  189.7760  173.8180  136.9610 C   0  0  0  0  0  1  0  0  0  0  0  0
  190.5240  170.7620  142.2350 C   0  0  0  0  0  1  0  0  0  0  0  0
  190.0350  171.9480  141.4290 C   0  0  0  0  0  2  0  0  0  0  0  0
  1 18  1  0  0  0  0
  2 16  1  0  0  0  0
  3  7  1  0  0  0  0
  4  8  1  0  0  0  0
  5  7  1  0  0  0  0
  5  2  1  0  0  0  0
  6  4  1  0  0  0  0
  6  2  1  0  0  0  0
  7 19  1  0  0  0  0
  8 12  1  0  0  0  0
  9  6  1  0  0  0  0
 10  1  1  0  0  0  0
 13  1  1  0  0  0  0
 13  9  1  0  0  0  0
 14 15  1  0  0  0  0
 15  3  1  0  0  0  0
 16 11  1  0  0  0  0
 16 12  1  0  0  0  0
 17  9  1  0  0  0  0
 17  5  1  0  0  0  0
 18  4  1  0  0  0  0
 19 23  1  0  0  0  0
 20  1  1  0  0  0  0
 21 22  1  0  0  0  0
 21 14  1  0  0  0  0
 21 15  1  0  0  0  0
 22 17  1  0  0  0  0
 23 11  1  0  0  0  0
 24 30  1  0  0  0  0
 25 19  1  0  0  0  0
 25 24  2  0  0  0  0
 26 29  2  0  0  0  0
 26 25  1  0  0  0  0
 27 29  1  0  0  0  0
 28 30  2  0  0  0  0
 29 28  1  0  0  0  0
 31 32  1  0  0  0  0
 31 22  1  0  0  0  0
 32 37  1  0  0  0  0
 33 31  1  0  0  0  0
 33 32  1  0  0  0  0
 34 33  1  0  0  0  0
 35 34  1  0  0  0  0
 37 36  1  0  0  0  0
M  END
>  <MODEL>
7

>  <REMARK>
 VINA RESULT:      -7.2      2.552      5.148
  Name = 
  4 active torsions:
  status: ('A' for Active; 'I' for Inactive)
    1  A    between atoms: C_1  and  C_27
    2  A    between atoms: N_4  and  C_37
    3  A    between atoms: S_8  and  C_12
    4  A    between atoms: C_23  and  C_30
                            x       y       z     vdW  Elec       q    Type
                         _______ _______ _______ _____ _____    ______ ____

>  <TORSDO>
F 4

$$$$
=
 OpenBabel11112417273D

 37 44  0  0  1  0  0  0  0  0999 V2000
  194.8830  173.3540  143.7690 C   0  0  0  0  0  0  0  0  0  0  0  0
  191.9160  175.4190  144.8130 C   0  0  1  0  0  3  0  0  0  0  0  0
  188.9150  174.5170  143.7740 O   0  0  0  0  0  0  0  0  0  0  0  0
  194.2500  174.6060  145.6140 C   0  0  2  0  0  3  0  0  0  0  0  0
  191.2750  174.8040  143.5750 C   0  0  2  0  0  3  0  0  0  0  0  0
  192.7840  174.2750  145.3420 C   0  0  2  0  0  3  0  0  0  0  0  0
  189.8930  175.3520  143.2170 C   0  0  2  0  0  3  0  0  0  0  0  0
  194.3340  175.9690  146.2830 C   0  0  0  0  0  2  0  0  0  0  0  0
  192.6110  173.1370  144.3390 C   0  0  2  0  0  3  0  0  0  0  0  0
  195.3150  172.1480  144.6130 C   0  0  0  0  0  1  0  0  0  0  0  0
  191.7370  177.8340  144.3670 N   0  0  0  0  0  2  0  0  0  0  0  0
  193.8180  177.0890  145.3750 C   0  0  0  0  0  2  0  0  0  0  0  0
  193.5600  173.2280  143.2830 O   0  0  0  0  0  0  0  0  0  0  0  0
  189.0190  173.6380  141.5400 O   0  0  0  0  0  0  0  0  0  0  0  0
  188.3980  173.6070  142.8090 C   0  0  1  0  0  3  0  0  0  0  0  0
  192.6670  176.7070  144.4270 C   0  0  1  0  0  3  0  0  0  0  0  0
  191.2570  173.3590  143.8140 N   0  0  2  0  0  0  0  0  0  0  0  0
  195.0450  174.5830  144.4500 O   0  0  0  0  0  0  0  0  0  0  0  0
  189.6550  176.8250  143.5760 C   0  0  1  0  0  3  0  0  0  0  0  0
  195.8000  173.3820  142.5650 C   0  0  0  0  0  1  0  0  0  0  0  0
  189.3740  172.5470  142.3630 C   0  0  2  0  0  3  0  0  0  0  0  0
  190.9090  172.6170  142.5830 C   0  0  2  0  0  3  0  0  0  0  0  0
  190.8560  177.7000  143.2120 C   0  0  0  0  0  2  0  0  0  0  0  0
  188.1950  177.0610  141.5620 C   0  0  0  0  0  3  0  0  0  0  0  0
  188.4130  177.3380  142.9160 C   0  0  0  0  0  0  0  0  0  0  0  0
  187.4710  178.0960  143.6290 C   0  0  0  0  0  3  0  0  0  0  0  0
  185.4160  179.3030  143.6800 F   0  0  0  0  0  0  0  0  0  0  0  0
  186.1100  178.2900  141.6360 C   0  0  0  0  0  3  0  0  0  0  0  0
  186.3230  178.5710  142.9890 C   0  0  0  0  0  0  0  0  0  0  0  0
  187.0460  177.5350  140.9230 C   0  0  0  0  0  3  0  0  0  0  0  0
  191.3860  171.1450  142.6420 C   0  0  1  0  0  3  0  0  0  0  0  0
  191.3450  170.4080  141.3440 N   0  0  0  0  0  0  0  0  0  0  0  0
  192.6110  170.9200  141.8800 C   0  0  2  0  0  3  0  0  0  0  0  0
  193.5390  169.5520  142.6250 S   0  0  0  0  0  0  0  0  0  0  0  0
  194.9710  169.8570  141.5540 C   0  0  0  0  0  1  0  0  0  0  0  0
  190.4650  170.3840  139.0800 C   0  0  0  0  0  1  0  0  0  0  0  0
  191.0620  171.2400  140.1790 C   0  0  0  0  0  2  0  0  0  0  0  0
  1 18  1  0  0  0  0
  1 10  1  0  0  0  0
  2  6  1  0  0  0  0
  4  8  1  0  0  0  0
  5 17  1  0  0  0  0
  5  2  1  0  0  0  0
  6  4  1  0  0  0  0
  7  5  1  0  0  0  0
  7 19  1  0  0  0  0
  7  3  1  0  0  0  0
  9  6  1  0  0  0  0
 11 16  1  0  0  0  0
 12  8  1  0  0  0  0
 13  1  1  0  0  0  0
 13  9  1  0  0  0  0
 14 21  1  0  0  0  0
 14 15  1  0  0  0  0
 15  3  1  0  0  0  0
 16  2  1  0  0  0  0
 16 12  1  0  0  0  0
 17  9  1  0  0  0  0
 18  4  1  0  0  0  0
 20  1  1  0  0  0  0
 21 22  1  0  0  0  0
 21 15  1  0  0  0  0
 22 31  1  0  0  0  0
 22 17  1  0  0  0  0
 23 19  1  0  0  0  0
 23 11  1  0  0  0  0
 24 25  1  0  0  0  0
 25 19  1  0  0  0  0
 25 26  2  0  0  0  0
 28 29  2  0  0  0  0
 29 26  1  0  0  0  0
 29 27  1  0  0  0  0
 30 24  2  0  0  0  0
 30 28  1  0  0  0  0
 32 33  1  0  0  0  0
 32 31  1  0  0  0  0
 33 34  1  0  0  0  0
 33 31  1  0  0  0  0
 35 34  1  0  0  0  0
 36 37  1  0  0  0  0
 37 32  1  0  0  0  0
M  END
>  <MODEL>
8

>  <REMARK>
 VINA RESULT:      -7.0      2.239      4.988
  Name = 
  4 active torsions:
  status: ('A' for Active; 'I' for Inactive)
    1  A    between atoms: C_1  and  C_27
    2  A    between atoms: N_4  and  C_37
    3  A    between atoms: S_8  and  C_12
    4  A    between atoms: C_23  and  C_30
                            x       y       z     vdW  Elec       q    Type
                         _______ _______ _______ _____ _____    ______ ____

>  <TORSDO>
F 4

$$$$
=
 OpenBabel11112417273D

 37 44  0  0  1  0  0  0  0  0999 V2000
  195.4470  173.4930  142.4020 C   0  0  0  0  0  0  0  0  0  0  0  0
  192.9040  174.2260  145.0760 C   0  0  1  0  0  3  0  0  0  0  0  0
  189.7100  173.7370  144.3990 O   0  0  0  0  0  0  0  0  0  0  0  0
  195.3340  173.3800  144.7140 C   0  0  2  0  0  3  0  0  0  0  0  0
  191.9560  174.3600  143.8900 C   0  0  2  0  0  3  0  0  0  0  0  0
  193.8360  173.0960  144.6320 C   0  0  2  0  0  3  0  0  0  0  0  0
  190.5490  174.8480  144.2340 C   0  0  2  0  0  3  0  0  0  0  0  0
  195.6280  174.1150  146.0130 C   0  0  0  0  0  2  0  0  0  0  0  0
  193.3810  172.7250  143.2220 C   0  0  2  0  0  3  0  0  0  0  0  0
  196.0320  172.0810  142.2640 C   0  0  0  0  0  1  0  0  0  0  0  0
  192.7040  176.4210  146.1740 N   0  0  0  0  0  2  0  0  0  0  0  0
  194.9430  175.4830  146.0700 C   0  0  0  0  0  2  0  0  0  0  0  0
  194.0420  173.5140  142.2400 O   0  0  0  0  0  0  0  0  0  0  0  0
  189.2280  174.3130  142.1170 O   0  0  0  0  0  0  0  0  0  0  0  0
  188.9390  173.4900  143.2280 C   0  0  1  0  0  3  0  0  0  0  0  0
  193.5810  175.5810  145.3590 C   0  0  1  0  0  3  0  0  0  0  0  0
  191.9480  173.0480  143.2390 N   0  0  2  0  0  0  0  0  0  0  0  0
  195.8160  174.1210  143.6140 O   0  0  0  0  0  0  0  0  0  0  0  0
  190.4580  175.8110  145.4260 C   0  0  1  0  0  3  0  0  0  0  0  0
  196.0390  174.3120  141.2740 C   0  0  0  0  0  1  0  0  0  0  0  0
  189.7370  172.9980  142.0460 C   0  0  2  0  0  3  0  0  0  0  0  0
  191.2810  173.1080  141.9210 C   0  0  2  0  0  3  0  0  0  0  0  0
  191.5610  176.8700  145.3860 C   0  0  0  0  0  2  0  0  0  0  0  0
  188.2900  176.2330  146.5940 C   0  0  0  0  0  3  0  0  0  0  0  0
  189.1090  176.4600  145.4830 C   0  0  0  0  0  0  0  0  0  0  0  0
  188.6530  177.2810  144.4400 C   0  0  0  0  0  3  0  0  0  0  0  0
  186.9500  178.6600  143.5030 F   0  0  0  0  0  0  0  0  0  0  0  0
  186.5720  177.6390  145.6240 C   0  0  0  0  0  3  0  0  0  0  0  0
  187.3870  177.8680  144.5120 C   0  0  0  0  0  0  0  0  0  0  0  0
  187.0240  176.8220  146.6650 C   0  0  0  0  0  3  0  0  0  0  0  0
  191.7070  171.9350  141.0050 C   0  0  1  0  0  3  0  0  0  0  0  0
  191.3370  172.0830  139.5650 N   0  0  0  0  0  0  0  0  0  0  0  0
  192.7110  172.3260  140.0210 C   0  0  2  0  0  3  0  0  0  0  0  0
  193.7380  170.8910  139.6070 S   0  0  0  0  0  0  0  0  0  0  0  0
  192.2890  169.9130  139.1250 C   0  0  0  0  0  1  0  0  0  0  0  0
  189.6970  173.2380  138.1970 C   0  0  0  0  0  1  0  0  0  0  0  0
  190.8200  173.3980  139.2000 C   0  0  0  0  0  2  0  0  0  0  0  0
  1 18  1  0  0  0  0
  2 16  1  0  0  0  0
  4  8  1  0  0  0  0
  5  7  1  0  0  0  0
  5  2  1  0  0  0  0
  6  4  1  0  0  0  0
  6  2  1  0  0  0  0
  7  3  1  0  0  0  0
  7 19  1  0  0  0  0
  8 12  1  0  0  0  0
  9 17  1  0  0  0  0
  9  6  1  0  0  0  0
 10  1  1  0  0  0  0
 13  1  1  0  0  0  0
 13  9  1  0  0  0  0
 14 15  1  0  0  0  0
 15  3  1  0  0  0  0
 16 12  1  0  0  0  0
 16 11  1  0  0  0  0
 17  5  1  0  0  0  0
 18  4  1  0  0  0  0
 19 25  1  0  0  0  0
 20  1  1  0  0  0  0
 21 14  1  0  0  0  0
 21 15  1  0  0  0  0
 22 21  1  0  0  0  0
 22 17  1  0  0  0  0
 23 19  1  0  0  0  0
 23 11  1  0  0  0  0
 24 30  1  0  0  0  0
 25 24  2  0  0  0  0
 26 29  2  0  0  0  0
 26 25  1  0  0  0  0
 27 29  1  0  0  0  0
 28 30  2  0  0  0  0
 29 28  1  0  0  0  0
 31 22  1  0  0  0  0
 32 33  1  0  0  0  0
 32 31  1  0  0  0  0
 33 31  1  0  0  0  0
 34 33  1  0  0  0  0
 35 34  1  0  0  0  0
 36 37  1  0  0  0  0
 37 32  1  0  0  0  0
M  END
>  <MODEL>
9

>  <REMARK>
 VINA RESULT:      -7.0      2.551      5.410
  Name = 
  4 active torsions:
  status: ('A' for Active; 'I' for Inactive)
    1  A    between atoms: C_1  and  C_27
    2  A    between atoms: N_4  and  C_37
    3  A    between atoms: S_8  and  C_12
    4  A    between atoms: C_23  and  C_30
                            x       y       z     vdW  Elec       q    Type
                         _______ _______ _______ _____ _____    ______ ____

>  <TORSDO>
F 4

$$$$
