=
 OpenBabel11112416523D

 31 36  0  0  1  0  0  0  0  0999 V2000
  185.4170  178.2790  147.3800 C   0  0  0  0  0  0  0  0  0  0  0  0
  187.8080  175.7330  145.8950 C   0  0  2  0  0  3  0  0  0  0  0  0
  187.7950  175.9520  144.3520 C   0  0  1  0  0  3  0  0  0  0  0  0
  187.4140  177.4330  142.3720 C   0  0  1  0  0  3  0  0  0  0  0  0
  187.2890  176.9010  146.6900 C   0  0  0  0  0  0  0  0  0  0  0  0
  186.2940  179.1510  148.0310 C   0  0  0  0  0  3  0  0  0  0  0  0
  187.6190  177.4020  143.8860 C   0  0  0  0  0  2  0  0  0  0  0  0
  190.1510  176.4260  146.4680 C   0  0  2  0  0  3  0  0  0  0  0  0
  184.0840  178.5230  147.3950 F   0  0  0  0  0  0  0  0  0  0  0  0
  189.2930  173.9620  144.1840 C   0  0  0  0  0  2  0  0  0  0  0  0
  187.2900  178.7540  141.9460 O   0  0  0  0  0  1  0  0  0  0  0  0
  189.6510  177.5000  147.4420 C   0  0  0  0  0  2  0  0  0  0  0  0
  189.1650  175.2440  146.4400 C   0  0  2  0  0  3  0  0  0  0  0  0
  185.9130  177.1600  146.7090 C   0  0  0  0  0  3  0  0  0  0  0  0
  188.5900  176.7710  141.6490 C   0  0  0  0  0  2  0  0  0  0  0  0
  188.1760  177.7860  147.3410 C   0  0  0  0  0  0  0  0  0  0  0  0
  187.6690  178.8990  148.0170 C   0  0  0  0  0  3  0  0  0  0  0  0
  189.6920  174.0180  145.6630 C   0  0  0  0  0  2  0  0  0  0  0  0
  189.0190  175.3550  143.6490 C   0  0  1  0  0  3  0  0  0  0  0  0
  188.7930  175.3400  142.1440 C   0  0  0  0  0  2  0  0  0  0  0  0
  192.4290  177.0880  146.5990 O   0  0  0  0  0  0  0  0  0  0  0  0
  192.4700  175.9930  145.7180 C   0  0  2  0  0  3  0  0  0  0  0  0
  191.5590  176.0210  146.8870 C   0  0  2  0  0  3  0  0  0  0  0  0
  195.5540  175.7220  143.8640 C   0  0  1  0  0  3  0  0  0  0  0  0
  194.9430  176.1540  146.0080 C   0  0  0  0  0  2  0  0  0  0  0  0
  192.9130  173.1920  144.8020 N   0  0  0  0  0  1  0  0  0  0  0  0
  195.9780  176.3360  142.5460 C   0  0  0  0  0  1  0  0  0  0  0  0
  195.1160  176.7380  144.7360 O   0  0  0  0  0  0  0  0  0  0  0  0
  194.0300  174.1070  144.9570 C   0  0  2  0  0  3  0  0  0  0  0  0
  193.7450  175.1980  146.0010 C   0  0  2  0  0  3  0  0  0  0  0  0
  194.4310  174.7140  143.6170 C   0  0  0  0  0  2  0  0  0  0  0  0
  1  9  1  0  0  0  0
  1  6  1  0  0  0  0
  2 13  1  0  0  0  0
  2  5  1  1  0  0  0
  3  7  1  1  0  0  0
  3  2  1  0  0  0  0
  4 11  1  6  0  0  0
  4  7  1  0  0  0  0
  5 14  1  0  0  0  0
  5 16  2  0  0  0  0
  8 23  1  0  0  0  0
  8 12  1  1  0  0  0
 10 18  1  0  0  0  0
 13 18  1  6  0  0  0
 13  8  1  0  0  0  0
 14  1  2  0  0  0  0
 15 20  1  0  0  0  0
 15  4  1  0  0  0  0
 16 12  1  0  0  0  0
 16 17  1  0  0  0  0
 17  6  2  0  0  0  0
 19 20  1  6  0  0  0
 19 10  1  0  0  0  0
 19  3  1  0  0  0  0
 22 30  1  0  0  0  0
 22 21  1  1  0  0  0
 22 23  1  0  0  0  0
 23 21  1  1  0  0  0
 24 27  1  6  0  0  0
 24 28  1  0  0  0  0
 28 25  1  0  0  0  0
 29 26  1  6  0  0  0
 29 30  1  0  0  0  0
 30 25  1  6  0  0  0
 31 24  1  0  0  0  0
 31 29  1  0  0  0  0
M  END
>  <MODEL>
1

>  <REMARK>
 VINA RESULT:      -8.1      0.000      0.000
  Name = 
  2 active torsions:
  status: ('A' for Active; 'I' for Inactive)
    1  A    between atoms: C_5  and  C_30
    2  A    between atoms: C_10  and  C_16
                            x       y       z     vdW  Elec       q    Type
                         _______ _______ _______ _____ _____    ______ ____

>  <TORSDO>
F 2

$$$$
=
 OpenBabel11112416523D

 31 36  0  0  1  0  0  0  0  0999 V2000
  185.6380  177.5510  142.4220 C   0  0  0  0  0  0  0  0  0  0  0  0
  188.1250  175.1320  143.9620 C   0  0  2  0  0  3  0  0  0  0  0  0
  188.5490  174.1450  142.8330 C   0  0  1  0  0  3  0  0  0  0  0  0
  188.8420  173.6200  140.4040 C   0  0  1  0  0  3  0  0  0  0  0  0
  187.5080  176.4120  143.4650 C   0  0  0  0  0  0  0  0  0  0  0  0
  186.3740  178.7380  142.3910 C   0  0  0  0  0  3  0  0  0  0  0  0
  188.6260  174.7400  141.4220 C   0  0  0  0  0  2  0  0  0  0  0  0
  190.2740  176.3640  144.3670 C   0  0  2  0  0  3  0  0  0  0  0  0
  184.3760  177.5230  141.9290 F   0  0  0  0  0  0  0  0  0  0  0  0
  189.8680  172.9260  144.5670 C   0  0  0  0  0  2  0  0  0  0  0  0
  188.9470  174.1650  139.1260 O   0  0  0  0  0  1  0  0  0  0  0  0
  189.6180  177.7150  144.0560 C   0  0  0  0  0  2  0  0  0  0  0  0
  189.2390  175.4110  144.9910 C   0  0  2  0  0  3  0  0  0  0  0  0
  186.2040  176.3910  142.9540 C   0  0  0  0  0  3  0  0  0  0  0  0
  190.1110  172.8280  140.7270 C   0  0  0  0  0  2  0  0  0  0  0  0
  188.2550  177.6100  143.4270 C   0  0  0  0  0  0  0  0  0  0  0  0
  187.6760  178.7670  142.8980 C   0  0  0  0  0  3  0  0  0  0  0  0
  189.8540  174.1070  145.5440 C   0  0  0  0  0  2  0  0  0  0  0  0
  189.8650  173.4180  143.1320 C   0  0  1  0  0  3  0  0  0  0  0  0
  190.0550  172.2710  142.1490 C   0  0  0  0  0  2  0  0  0  0  0  0
  192.3600  177.4780  144.5940 O   0  0  0  0  0  0  0  0  0  0  0  0
  192.7220  176.1190  144.6340 C   0  0  2  0  0  3  0  0  0  0  0  0
  191.4770  176.6140  145.2680 C   0  0  2  0  0  3  0  0  0  0  0  0
  196.2620  175.6010  144.1610 C   0  0  1  0  0  3  0  0  0  0  0  0
  194.9400  177.0030  145.3610 C   0  0  0  0  0  2  0  0  0  0  0  0
  193.5680  173.4950  145.7630 N   0  0  0  0  0  1  0  0  0  0  0  0
  197.0830  175.4470  142.8980 C   0  0  0  0  0  1  0  0  0  0  0  0
  195.5100  176.7900  144.0890 O   0  0  0  0  0  0  0  0  0  0  0  0
  194.5270  174.5740  145.5960 C   0  0  2  0  0  3  0  0  0  0  0  0
  193.8570  175.9550  145.6450 C   0  0  2  0  0  3  0  0  0  0  0  0
  195.3340  174.3950  144.3140 C   0  0  0  0  0  2  0  0  0  0  0  0
  1 14  1  0  0  0  0
  2  5  1  6  0  0  0
  2 13  1  0  0  0  0
  3  7  1  6  0  0  0
  3 19  1  0  0  0  0
  3  2  1  0  0  0  0
  4 11  1  6  0  0  0
  4 15  1  0  0  0  0
  4  7  1  0  0  0  0
  6  1  2  0  0  0  0
  6 17  1  0  0  0  0
  8 12  1  1  0  0  0
  8 13  1  0  0  0  0
  8 23  1  0  0  0  0
  9  1  1  0  0  0  0
 10 18  1  0  0  0  0
 13 18  1  6  0  0  0
 14  5  2  0  0  0  0
 15 20  1  0  0  0  0
 16  5  1  0  0  0  0
 16 12  1  0  0  0  0
 17 16  2  0  0  0  0
 19 20  1  6  0  0  0
 19 10  1  0  0  0  0
 22 21  1  6  0  0  0
 22 23  1  0  0  0  0
 22 30  1  0  0  0  0
 23 21  1  6  0  0  0
 24 27  1  6  0  0  0
 24 31  1  0  0  0  0
 28 24  1  0  0  0  0
 28 25  1  0  0  0  0
 29 30  1  0  0  0  0
 29 26  1  6  0  0  0
 30 25  1  6  0  0  0
 31 29  1  0  0  0  0
M  END
>  <MODEL>
2

>  <REMARK>
 VINA RESULT:      -8.0      2.630      3.128
  Name = 
  2 active torsions:
  status: ('A' for Active; 'I' for Inactive)
    1  A    between atoms: C_5  and  C_30
    2  A    between atoms: C_10  and  C_16
                            x       y       z     vdW  Elec       q    Type
                         _______ _______ _______ _____ _____    ______ ____

>  <TORSDO>
F 2

$$$$
=
 OpenBabel11112416523D

 31 36  0  0  1  0  0  0  0  0999 V2000
  196.7940  170.7960  145.7510 C   0  0  0  0  0  0  0  0  0  0  0  0
  195.7490  174.4380  145.5250 C   0  0  2  0  0  3  0  0  0  0  0  0
  196.1600  174.9350  144.1060 C   0  0  1  0  0  3  0  0  0  0  0  0
  196.6910  174.4610  141.7070 C   0  0  1  0  0  3  0  0  0  0  0  0
  195.6660  172.9410  145.6550 C   0  0  0  0  0  0  0  0  0  0  0  0
  195.5600  170.1420  145.7460 C   0  0  0  0  0  3  0  0  0  0  0  0
  196.0610  173.8980  142.9810 C   0  0  0  0  0  2  0  0  0  0  0  0
  193.2460  174.5310  145.3690 C   0  0  2  0  0  3  0  0  0  0  0  0
  197.9410  170.0760  145.7970 F   0  0  0  0  0  0  0  0  0  0  0  0
  195.3870  177.2010  144.8140 C   0  0  0  0  0  2  0  0  0  0  0  0
  196.5690  173.5300  140.6770 O   0  0  0  0  0  1  0  0  0  0  0  0
  193.1180  173.0380  145.6980 C   0  0  0  0  0  2  0  0  0  0  0  0
  194.4800  175.1190  146.0760 C   0  0  2  0  0  3  0  0  0  0  0  0
  196.8470  172.1910  145.7020 C   0  0  0  0  0  3  0  0  0  0  0  0
  196.0130  175.7700  141.2970 C   0  0  0  0  0  2  0  0  0  0  0  0
  194.4180  172.2800  145.6420 C   0  0  0  0  0  0  0  0  0  0  0  0
  194.3760  170.8840  145.6980 C   0  0  0  0  0  3  0  0  0  0  0  0
  194.5660  176.6580  145.9900 C   0  0  0  0  0  2  0  0  0  0  0  0
  195.4140  176.2020  143.6730 C   0  0  1  0  0  3  0  0  0  0  0  0
  196.0730  176.7900  142.4330 C   0  0  0  0  0  2  0  0  0  0  0  0
  190.8730  174.4600  145.2590 O   0  0  0  0  0  0  0  0  0  0  0  0
  191.1860  175.6420  144.5640 C   0  0  2  0  0  3  0  0  0  0  0  0
  191.9450  175.2180  145.7650 C   0  0  2  0  0  3  0  0  0  0  0  0
  188.3160  176.7770  142.6950 C   0  0  1  0  0  3  0  0  0  0  0  0
  188.7340  176.0420  144.8020 C   0  0  0  0  0  2  0  0  0  0  0  0
  191.4380  178.5330  143.8890 N   0  0  0  0  0  1  0  0  0  0  0  0
  187.8060  176.3880  141.3230 C   0  0  0  0  0  1  0  0  0  0  0  0
  188.4750  175.6190  143.4810 O   0  0  0  0  0  0  0  0  0  0  0  0
  190.1340  177.8960  143.9470 C   0  0  2  0  0  3  0  0  0  0  0  0
  190.1220  176.6880  144.8960 C   0  0  2  0  0  3  0  0  0  0  0  0
  189.6500  177.5110  142.5530 C   0  0  0  0  0  2  0  0  0  0  0  0
  1  9  1  0  0  0  0
  2  5  1  6  0  0  0
  2 13  1  0  0  0  0
  3  7  1  6  0  0  0
  3  2  1  0  0  0  0
  4 11  1  6  0  0  0
  4  7  1  0  0  0  0
  5 14  1  0  0  0  0
  6  1  1  0  0  0  0
  8 12  1  1  0  0  0
  8 23  1  0  0  0  0
  8 13  1  0  0  0  0
 10 18  1  0  0  0  0
 13 18  1  6  0  0  0
 14  1  2  0  0  0  0
 15  4  1  0  0  0  0
 15 20  1  0  0  0  0
 16  5  2  0  0  0  0
 16 17  1  0  0  0  0
 16 12  1  0  0  0  0
 17  6  2  0  0  0  0
 19 20  1  6  0  0  0
 19  3  1  0  0  0  0
 19 10  1  0  0  0  0
 22 30  1  0  0  0  0
 22 21  1  1  0  0  0
 22 23  1  0  0  0  0
 23 21  1  6  0  0  0
 24 27  1  6  0  0  0
 24 28  1  0  0  0  0
 28 25  1  0  0  0  0
 29 26  1  6  0  0  0
 29 30  1  0  0  0  0
 30 25  1  6  0  0  0
 31 24  1  0  0  0  0
 31 29  1  0  0  0  0
M  END
>  <MODEL>
3

>  <REMARK>
 VINA RESULT:      -7.6      3.967      8.274
  Name = 
  2 active torsions:
  status: ('A' for Active; 'I' for Inactive)
    1  A    between atoms: C_5  and  C_30
    2  A    between atoms: C_10  and  C_16
                            x       y       z     vdW  Elec       q    Type
                         _______ _______ _______ _____ _____    ______ ____

>  <TORSDO>
F 2

$$$$
=
 OpenBabel11112416523D

 31 36  0  0  1  0  0  0  0  0999 V2000
  186.0470  178.1250  146.9370 C   0  0  0  0  0  0  0  0  0  0  0  0
  189.1220  177.8660  144.7260 C   0  0  2  0  0  3  0  0  0  0  0  0
  190.2670  177.2960  145.6170 C   0  0  1  0  0  3  0  0  0  0  0  0
  191.0210  175.9830  147.6090 C   0  0  1  0  0  3  0  0  0  0  0  0
  187.7380  177.6290  145.2720 C   0  0  0  0  0  0  0  0  0  0  0  0
  185.2320  177.1190  146.4140 C   0  0  0  0  0  3  0  0  0  0  0  0
  189.8390  176.2860  146.6880 C   0  0  0  0  0  2  0  0  0  0  0  0
  188.7730  175.9780  143.1110 C   0  0  2  0  0  3  0  0  0  0  0  0
  185.6260  178.8540  147.9990 F   0  0  0  0  0  0  0  0  0  0  0  0
  191.7790  177.6160  143.6570 C   0  0  0  0  0  2  0  0  0  0  0  0
  190.6400  175.0380  148.5600 O   0  0  0  0  0  1  0  0  0  0  0  0
  187.2970  175.8430  143.5070 C   0  0  0  0  0  2  0  0  0  0  0  0
  189.2200  177.4440  143.2470 C   0  0  2  0  0  3  0  0  0  0  0  0
  187.2970  178.3780  146.3700 C   0  0  0  0  0  3  0  0  0  0  0  0
  192.2120  175.4500  146.8080 C   0  0  0  0  0  2  0  0  0  0  0  0
  186.9190  176.6060  144.7480 C   0  0  0  0  0  0  0  0  0  0  0  0
  185.6650  176.3660  145.3190 C   0  0  0  0  0  3  0  0  0  0  0  0
  190.6200  177.7200  142.6590 C   0  0  0  0  0  2  0  0  0  0  0  0
  191.4180  176.6920  144.8040 C   0  0  1  0  0  3  0  0  0  0  0  0
  192.6120  176.4370  145.7120 C   0  0  0  0  0  2  0  0  0  0  0  0
  188.2540  174.2030  141.6180 O   0  0  0  0  0  0  0  0  0  0  0  0
  189.6540  174.1320  141.7190 C   0  0  2  0  0  3  0  0  0  0  0  0
  188.9390  175.4300  141.6990 C   0  0  2  0  0  3  0  0  0  0  0  0
  191.1510  171.0780  140.5100 C   0  0  1  0  0  3  0  0  0  0  0  0
  189.5120  172.4980  139.8370 C   0  0  0  0  0  2  0  0  0  0  0  0
  192.4850  174.5880  140.9060 N   0  0  0  0  0  1  0  0  0  0  0  0
  191.4490  169.7710  141.2150 C   0  0  0  0  0  1  0  0  0  0  0  0
  189.7910  171.4050  140.6840 O   0  0  0  0  0  0  0  0  0  0  0  0
  191.7240  173.4800  140.3540 C   0  0  2  0  0  3  0  0  0  0  0  0
  190.2140  173.7630  140.3440 C   0  0  2  0  0  3  0  0  0  0  0  0
  192.0400  172.1800  141.0860 C   0  0  0  0  0  2  0  0  0  0  0  0
  1  9  1  0  0  0  0
  2  5  1  1  0  0  0
  2  3  1  0  0  0  0
  3  7  1  1  0  0  0
  4 11  1  1  0  0  0
  5 14  1  0  0  0  0
  6  1  1  0  0  0  0
  7  4  1  0  0  0  0
  8 13  1  0  0  0  0
  8 12  1  6  0  0  0
 12 16  1  0  0  0  0
 13 18  1  1  0  0  0
 13  2  1  0  0  0  0
 14  1  2  0  0  0  0
 15  4  1  0  0  0  0
 16  5  2  0  0  0  0
 16 17  1  0  0  0  0
 17  6  2  0  0  0  0
 18 10  1  0  0  0  0
 19 10  1  6  0  0  0
 19  3  1  0  0  0  0
 19 20  1  0  0  0  0
 20 15  1  0  0  0  0
 22 21  1  6  0  0  0
 23 21  1  1  0  0  0
 23 22  1  0  0  0  0
 23  8  1  0  0  0  0
 24 28  1  0  0  0  0
 24 31  1  0  0  0  0
 24 27  1  1  0  0  0
 25 28  1  0  0  0  0
 29 26  1  1  0  0  0
 29 31  1  0  0  0  0
 30 25  1  1  0  0  0
 30 29  1  0  0  0  0
 30 22  1  0  0  0  0
M  END
>  <MODEL>
4

>  <REMARK>
 VINA RESULT:      -7.5      2.928      5.252
  Name = 
  2 active torsions:
  status: ('A' for Active; 'I' for Inactive)
    1  A    between atoms: C_5  and  C_30
    2  A    between atoms: C_10  and  C_16
                            x       y       z     vdW  Elec       q    Type
                         _______ _______ _______ _____ _____    ______ ____

>  <TORSDO>
F 2

$$$$
=
 OpenBabel11112416523D

 31 36  0  0  1  0  0  0  0  0999 V2000
  187.7840  175.6500  142.0970 C   0  0  0  0  0  0  0  0  0  0  0  0
  191.2510  176.2670  143.5160 C   0  0  2  0  0  3  0  0  0  0  0  0
  191.1140  176.2250  145.0680 C   0  0  1  0  0  3  0  0  0  0  0  0
  189.9070  175.4620  147.1220 C   0  0  1  0  0  3  0  0  0  0  0  0
  190.1120  175.6160  142.7770 C   0  0  0  0  0  0  0  0  0  0  0  0
  187.9240  174.3750  141.5440 C   0  0  0  0  0  3  0  0  0  0  0  0
  190.0770  175.2400  145.6190 C   0  0  0  0  0  2  0  0  0  0  0  0
  192.6490  174.2270  143.0930 C   0  0  2  0  0  3  0  0  0  0  0  0
  186.5890  176.2860  142.0400 F   0  0  0  0  0  0  0  0  0  0  0  0
  193.5260  176.8600  145.1710 C   0  0  0  0  0  2  0  0  0  0  0  0
  188.9900  174.5420  147.6280 O   0  0  0  0  0  1  0  0  0  0  0  0
  191.5830  173.6230  142.1700 C   0  0  0  0  0  2  0  0  0  0  0  0
  192.6140  175.7630  143.0000 C   0  0  2  0  0  3  0  0  0  0  0  0
  188.8740  176.2670  142.7150 C   0  0  0  0  0  3  0  0  0  0  0  0
  191.2430  175.3040  147.8510 C   0  0  0  0  0  2  0  0  0  0  0  0
  190.2510  174.3240  142.2250 C   0  0  0  0  0  0  0  0  0  0  0  0
  189.1560  173.7180  141.6020 C   0  0  0  0  0  3  0  0  0  0  0  0
  193.7940  176.4520  143.7180 C   0  0  0  0  0  2  0  0  0  0  0  0
  192.4480  175.9860  145.7830 C   0  0  1  0  0  3  0  0  0  0  0  0
  192.2900  176.2560  147.2730 C   0  0  0  0  0  2  0  0  0  0  0  0
  193.9030  172.2330  142.7760 O   0  0  0  0  0  0  0  0  0  0  0  0
  194.5770  172.8650  143.8370 C   0  0  2  0  0  3  0  0  0  0  0  0
  194.0000  173.6350  142.7100 C   0  0  2  0  0  3  0  0  0  0  0  0
  196.8490  170.6840  145.5980 C   0  0  1  0  0  3  0  0  0  0  0  0
  196.3230  171.1280  143.4350 C   0  0  0  0  0  2  0  0  0  0  0  0
  196.6820  174.4380  145.2400 N   0  0  0  0  0  1  0  0  0  0  0  0
  196.6210  169.7430  146.7630 C   0  0  0  0  0  1  0  0  0  0  0  0
  195.9340  170.3860  144.5690 O   0  0  0  0  0  0  0  0  0  0  0  0
  196.9110  173.0500  144.8790 C   0  0  2  0  0  3  0  0  0  0  0  0
  196.0760  172.6240  143.6620 C   0  0  2  0  0  3  0  0  0  0  0  0
  196.6690  172.1270  146.0680 C   0  0  0  0  0  2  0  0  0  0  0  0
  1 14  1  0  0  0  0
  2  5  1  6  0  0  0
  2  3  1  0  0  0  0
  3  7  1  6  0  0  0
  3 19  1  0  0  0  0
  4 11  1  1  0  0  0
  4 15  1  0  0  0  0
  6 17  1  0  0  0  0
  6  1  2  0  0  0  0
  7  4  1  0  0  0  0
  8 12  1  6  0  0  0
  9  1  1  0  0  0  0
 12 16  1  0  0  0  0
 13  8  1  0  0  0  0
 13  2  1  0  0  0  0
 13 18  1  1  0  0  0
 14  5  2  0  0  0  0
 16  5  1  0  0  0  0
 17 16  2  0  0  0  0
 18 10  1  0  0  0  0
 19 10  1  6  0  0  0
 19 20  1  0  0  0  0
 20 15  1  0  0  0  0
 22 21  1  6  0  0  0
 23 21  1  6  0  0  0
 23  8  1  0  0  0  0
 23 22  1  0  0  0  0
 24 31  1  0  0  0  0
 24 27  1  1  0  0  0
 25 28  1  0  0  0  0
 28 24  1  0  0  0  0
 29 26  1  1  0  0  0
 29 31  1  0  0  0  0
 30 25  1  1  0  0  0
 30 22  1  0  0  0  0
 30 29  1  0  0  0  0
M  END
>  <MODEL>
5

>  <REMARK>
 VINA RESULT:      -7.5      3.208      5.693
  Name = 
  2 active torsions:
  status: ('A' for Active; 'I' for Inactive)
    1  A    between atoms: C_5  and  C_30
    2  A    between atoms: C_10  and  C_16
                            x       y       z     vdW  Elec       q    Type
                         _______ _______ _______ _____ _____    ______ ____

>  <TORSDO>
F 2

$$$$
=
 OpenBabel11112416523D

 31 36  0  0  1  0  0  0  0  0999 V2000
  188.0830  176.2320  146.7780 C   0  0  0  0  0  0  0  0  0  0  0  0
  190.8440  174.0060  145.4250 C   0  0  2  0  0  3  0  0  0  0  0  0
  190.4490  173.6420  143.9620 C   0  0  1  0  0  3  0  0  0  0  0  0
  189.2040  174.1620  141.8540 C   0  0  1  0  0  3  0  0  0  0  0  0
  190.1310  175.2130  145.9750 C   0  0  0  0  0  0  0  0  0  0  0  0
  188.7260  177.4690  146.8610 C   0  0  0  0  0  3  0  0  0  0  0  0
  189.7070  174.7330  143.1810 C   0  0  0  0  0  2  0  0  0  0  0  0
  192.8800  175.4210  145.0450 C   0  0  2  0  0  3  0  0  0  0  0  0
  186.7770  176.1230  147.1240 F   0  0  0  0  0  0  0  0  0  0  0  0
  192.4640  172.1690  143.9190 C   0  0  0  0  0  2  0  0  0  0  0  0
  188.5600  175.1640  141.1300 O   0  0  0  0  0  1  0  0  0  0  0  0
  192.2540  176.6130  145.7800 C   0  0  0  0  0  2  0  0  0  0  0  0
  192.3660  174.1030  145.6500 C   0  0  2  0  0  3  0  0  0  0  0  0
  188.7820  175.1080  146.3340 C   0  0  0  0  0  3  0  0  0  0  0  0
  190.3650  173.6010  141.0290 C   0  0  0  0  0  2  0  0  0  0  0  0
  190.7800  176.4650  146.0510 C   0  0  0  0  0  0  0  0  0  0  0  0
  190.0730  177.5820  146.5050 C   0  0  0  0  0  3  0  0  0  0  0  0
  193.1080  172.8530  145.1300 C   0  0  0  0  0  2  0  0  0  0  0  0
  191.6360  173.1580  143.1210 C   0  0  1  0  0  3  0  0  0  0  0  0
  191.1320  172.5440  141.8230 C   0  0  0  0  0  2  0  0  0  0  0  0
  194.7560  176.7800  144.5130 O   0  0  0  0  0  0  0  0  0  0  0  0
  194.9860  175.6150  143.7590 C   0  0  2  0  0  3  0  0  0  0  0  0
  194.3960  175.5610  145.1180 C   0  0  2  0  0  3  0  0  0  0  0  0
  197.3860  175.4260  141.0710 C   0  0  1  0  0  3  0  0  0  0  0  0
  197.2280  176.4750  143.0780 C   0  0  0  0  0  2  0  0  0  0  0  0
  196.1460  172.8780  143.5660 N   0  0  0  0  0  1  0  0  0  0  0  0
  197.2150  175.5780  139.5740 C   0  0  0  0  0  1  0  0  0  0  0  0
  196.8520  176.5560  141.7210 O   0  0  0  0  0  0  0  0  0  0  0  0
  196.8660  174.0270  143.0450 C   0  0  2  0  0  3  0  0  0  0  0  0
  196.4870  175.3250  143.7720 C   0  0  2  0  0  3  0  0  0  0  0  0
  196.6710  174.1580  141.5370 C   0  0  0  0  0  2  0  0  0  0  0  0
  1  6  1  0  0  0  0
  1  9  1  0  0  0  0
  2 13  1  0  0  0  0
  2  5  1  6  0  0  0
  3  7  1  6  0  0  0
  3  2  1  0  0  0  0
  4 11  1  6  0  0  0
  4  7  1  0  0  0  0
  5 16  2  0  0  0  0
  5 14  1  0  0  0  0
  8 23  1  0  0  0  0
  8 13  1  0  0  0  0
  8 12  1  1  0  0  0
 10 18  1  0  0  0  0
 12 16  1  0  0  0  0
 13 18  1  6  0  0  0
 14  1  2  0  0  0  0
 15 20  1  0  0  0  0
 15  4  1  0  0  0  0
 16 17  1  0  0  0  0
 17  6  2  0  0  0  0
 19 20  1  6  0  0  0
 19 10  1  0  0  0  0
 19  3  1  0  0  0  0
 22 30  1  0  0  0  0
 22 21  1  1  0  0  0
 22 23  1  0  0  0  0
 23 21  1  6  0  0  0
 24 27  1  6  0  0  0
 24 31  1  0  0  0  0
 24 28  1  0  0  0  0
 28 25  1  0  0  0  0
 29 26  1  1  0  0  0
 29 30  1  0  0  0  0
 30 25  1  6  0  0  0
 31 29  1  0  0  0  0
M  END
>  <MODEL>
6

>  <REMARK>
 VINA RESULT:      -7.5      2.116      3.452
  Name = 
  2 active torsions:
  status: ('A' for Active; 'I' for Inactive)
    1  A    between atoms: C_5  and  C_30
    2  A    between atoms: C_10  and  C_16
                            x       y       z     vdW  Elec       q    Type
                         _______ _______ _______ _____ _____    ______ ____

>  <TORSDO>
F 2

$$$$
=
 OpenBabel11112416523D

 31 36  0  0  1  0  0  0  0  0999 V2000
  188.0780  176.3850  146.4420 C   0  0  0  0  0  0  0  0  0  0  0  0
  191.2670  174.4410  145.7670 C   0  0  2  0  0  3  0  0  0  0  0  0
  190.8620  173.1960  144.9220 C   0  0  1  0  0  3  0  0  0  0  0  0
  189.2900  172.0620  143.3390 C   0  0  1  0  0  3  0  0  0  0  0  0
  190.2500  175.5510  145.7590 C   0  0  0  0  0  0  0  0  0  0  0  0
  188.2620  177.5230  145.6530 C   0  0  0  0  0  3  0  0  0  0  0  0
  189.7100  173.4070  143.9330 C   0  0  0  0  0  2  0  0  0  0  0  0
  192.6400  175.7320  144.1100 C   0  0  2  0  0  3  0  0  0  0  0  0
  186.9350  176.2340  147.1550 F   0  0  0  0  0  0  0  0  0  0  0  0
  193.2430  172.4620  145.0940 C   0  0  0  0  0  2  0  0  0  0  0  0
  188.2660  172.2600  142.4150 O   0  0  0  0  0  1  0  0  0  0  0  0
  191.7270  176.9590  144.2310 C   0  0  0  0  0  2  0  0  0  0  0  0
  192.6790  174.9740  145.4490 C   0  0  2  0  0  3  0  0  0  0  0  0
  189.0660  175.4010  146.4920 C   0  0  0  0  0  3  0  0  0  0  0  0
  190.4740  171.3780  142.6510 C   0  0  0  0  0  2  0  0  0  0  0  0
  190.4340  176.6970  144.9550 C   0  0  0  0  0  0  0  0  0  0  0  0
  189.4410  177.6800  144.9180 C   0  0  0  0  0  3  0  0  0  0  0  0
  193.7420  173.8560  145.4950 C   0  0  0  0  0  2  0  0  0  0  0  0
  192.0430  172.5680  144.1720 C   0  0  1  0  0  3  0  0  0  0  0  0
  191.6400  171.2060  143.6240 C   0  0  0  0  0  2  0  0  0  0  0  0
  193.9080  176.6350  142.3150 O   0  0  0  0  0  0  0  0  0  0  0  0
  194.5040  175.3780  142.5210 C   0  0  2  0  0  3  0  0  0  0  0  0
  194.0140  176.2040  143.6500 C   0  0  2  0  0  3  0  0  0  0  0  0
  196.6240  174.4010  139.7690 C   0  0  1  0  0  3  0  0  0  0  0  0
  196.2700  176.2740  141.0020 C   0  0  0  0  0  2  0  0  0  0  0  0
  196.5000  173.3440  143.3920 N   0  0  0  0  0  1  0  0  0  0  0  0
  196.3020  173.6890  138.4710 C   0  0  0  0  0  1  0  0  0  0  0  0
  195.7900  175.5280  139.9050 O   0  0  0  0  0  0  0  0  0  0  0  0
  196.7510  174.1800  142.2300 C   0  0  2  0  0  3  0  0  0  0  0  0
  196.0120  175.5240  142.3140 C   0  0  2  0  0  3  0  0  0  0  0  0
  196.4130  173.4400  140.9400 C   0  0  0  0  0  2  0  0  0  0  0  0
  1 14  1  0  0  0  0
  1  9  1  0  0  0  0
  2  5  1  6  0  0  0
  3  7  1  6  0  0  0
  3  2  1  0  0  0  0
  4 11  1  6  0  0  0
  4  7  1  0  0  0  0
  5 14  2  0  0  0  0
  6  1  2  0  0  0  0
  8 12  1  1  0  0  0
  8 13  1  0  0  0  0
 10 18  1  0  0  0  0
 12 16  1  0  0  0  0
 13 18  1  6  0  0  0
 13  2  1  0  0  0  0
 15  4  1  0  0  0  0
 15 20  1  0  0  0  0
 16  5  1  0  0  0  0
 17 16  2  0  0  0  0
 17  6  1  0  0  0  0
 19 20  1  1  0  0  0
 19  3  1  0  0  0  0
 19 10  1  0  0  0  0
 22 21  1  6  0  0  0
 22 23  1  0  0  0  0
 23 21  1  6  0  0  0
 23  8  1  0  0  0  0
 24 27  1  6  0  0  0
 24 28  1  0  0  0  0
 24 31  1  0  0  0  0
 28 25  1  0  0  0  0
 29 30  1  0  0  0  0
 29 26  1  1  0  0  0
 30 25  1  6  0  0  0
 30 22  1  0  0  0  0
 31 29  1  0  0  0  0
M  END
>  <MODEL>
7

>  <REMARK>
 VINA RESULT:      -7.4      2.707      4.320
  Name = 
  2 active torsions:
  status: ('A' for Active; 'I' for Inactive)
    1  A    between atoms: C_5  and  C_30
    2  A    between atoms: C_10  and  C_16
                            x       y       z     vdW  Elec       q    Type
                         _______ _______ _______ _____ _____    ______ ____

>  <TORSDO>
F 2

$$$$
=
 OpenBabel11112416523D

 31 36  0  0  1  0  0  0  0  0999 V2000
  187.8080  177.4180  141.9920 C   0  0  0  0  0  0  0  0  0  0  0  0
  191.2370  176.7820  143.4910 C   0  0  2  0  0  3  0  0  0  0  0  0
  191.0310  176.6200  145.0280 C   0  0  1  0  0  3  0  0  0  0  0  0
  189.5670  176.0540  146.9760 C   0  0  1  0  0  3  0  0  0  0  0  0
  189.9840  176.5960  142.6770 C   0  0  0  0  0  0  0  0  0  0  0  0
  187.5730  176.2290  141.2990 C   0  0  0  0  0  3  0  0  0  0  0  0
  189.7210  175.9500  145.4580 C   0  0  0  0  0  2  0  0  0  0  0  0
  191.9600  174.4660  142.8480 C   0  0  2  0  0  3  0  0  0  0  0  0
  186.8680  178.3940  142.0010 F   0  0  0  0  0  0  0  0  0  0  0  0
  193.5160  176.4650  145.2160 C   0  0  0  0  0  2  0  0  0  0  0  0
  188.3930  175.4140  147.3690 O   0  0  0  0  0  1  0  0  0  0  0  0
  190.7980  174.3230  141.8570 C   0  0  0  0  0  2  0  0  0  0  0  0
  192.4000  175.9390  142.9300 C   0  0  2  0  0  3  0  0  0  0  0  0
  189.0090  177.6000  142.6820 C   0  0  0  0  0  3  0  0  0  0  0  0
  190.7610  175.4150  147.6900 C   0  0  0  0  0  2  0  0  0  0  0  0
  189.7440  175.3900  141.9830 C   0  0  0  0  0  0  0  0  0  0  0  0
  188.5420  175.2210  141.2900 C   0  0  0  0  0  3  0  0  0  0  0  0
  193.7050  176.1510  143.7270 C   0  0  0  0  0  2  0  0  0  0  0  0
  192.1990  175.9060  145.7190 C   0  0  1  0  0  3  0  0  0  0  0  0
  192.0710  176.0530  147.2290 C   0  0  0  0  0  2  0  0  0  0  0  0
  192.5850  172.2140  142.4230 O   0  0  0  0  0  0  0  0  0  0  0  0
  193.4250  172.5780  143.4900 C   0  0  2  0  0  3  0  0  0  0  0  0
  193.0790  173.5310  142.4080 C   0  0  2  0  0  3  0  0  0  0  0  0
  195.1470  169.9950  145.3310 C   0  0  1  0  0  3  0  0  0  0  0  0
  194.6120  170.4070  143.1630 C   0  0  0  0  0  2  0  0  0  0  0  0
  195.9650  173.6180  144.6500 N   0  0  0  0  0  1  0  0  0  0  0  0
  194.7560  169.2400  146.5840 C   0  0  0  0  0  1  0  0  0  0  0  0
  194.1170  169.8840  144.3760 O   0  0  0  0  0  0  0  0  0  0  0  0
  195.7900  172.1970  144.4020 C   0  0  2  0  0  3  0  0  0  0  0  0
  194.7900  171.9270  143.2670 C   0  0  2  0  0  3  0  0  0  0  0  0
  195.3910  171.4640  145.6790 C   0  0  0  0  0  2  0  0  0  0  0  0
  1  9  1  0  0  0  0
  1 14  1  0  0  0  0
  2  5  1  6  0  0  0
  2  3  1  0  0  0  0
  3  7  1  6  0  0  0
  3 19  1  0  0  0  0
  4 11  1  1  0  0  0
  4 15  1  0  0  0  0
  5 14  2  0  0  0  0
  6  1  2  0  0  0  0
  7  4  1  0  0  0  0
  8 12  1  6  0  0  0
  8 13  1  0  0  0  0
 12 16  1  0  0  0  0
 13  2  1  0  0  0  0
 13 18  1  1  0  0  0
 16  5  1  0  0  0  0
 17  6  1  0  0  0  0
 17 16  2  0  0  0  0
 18 10  1  0  0  0  0
 19 10  1  6  0  0  0
 19 20  1  0  0  0  0
 20 15  1  0  0  0  0
 22 21  1  6  0  0  0
 23 21  1  6  0  0  0
 23  8  1  0  0  0  0
 23 22  1  0  0  0  0
 24 31  1  0  0  0  0
 24 27  1  1  0  0  0
 25 28  1  0  0  0  0
 28 24  1  0  0  0  0
 29 26  1  1  0  0  0
 29 31  1  0  0  0  0
 30 25  1  1  0  0  0
 30 22  1  0  0  0  0
 30 29  1  0  0  0  0
M  END
>  <MODEL>
8

>  <REMARK>
 VINA RESULT:      -7.3      3.046      5.519
  Name = 
  2 active torsions:
  status: ('A' for Active; 'I' for Inactive)
    1  A    between atoms: C_5  and  C_30
    2  A    between atoms: C_10  and  C_16
                            x       y       z     vdW  Elec       q    Type
                         _______ _______ _______ _____ _____    ______ ____

>  <TORSDO>
F 2

$$$$
=
 OpenBabel11112416523D

 31 36  0  0  1  0  0  0  0  0999 V2000
  185.2580  179.2510  143.7620 C   0  0  0  0  0  0  0  0  0  0  0  0
  188.7170  177.6910  143.6470 C   0  0  2  0  0  3  0  0  0  0  0  0
  188.9880  177.0990  145.0630 C   0  0  1  0  0  3  0  0  0  0  0  0
  188.1440  176.1830  147.2330 C   0  0  1  0  0  3  0  0  0  0  0  0
  187.2630  177.9500  143.3530 C   0  0  0  0  0  0  0  0  0  0  0  0
  184.5230  178.3790  142.9550 C   0  0  0  0  0  3  0  0  0  0  0  0
  187.7660  176.5280  145.7920 C   0  0  0  0  0  2  0  0  0  0  0  0
  188.5930  175.6050  142.2580 C   0  0  2  0  0  3  0  0  0  0  0  0
  184.6450  180.3040  144.3550 F   0  0  0  0  0  0  0  0  0  0  0  0
  191.2790  176.5310  144.2470 C   0  0  0  0  0  2  0  0  0  0  0  0
  187.0420  175.6320  147.8840 O   0  0  0  0  0  1  0  0  0  0  0  0
  187.1760  175.9440  141.7810 C   0  0  0  0  0  2  0  0  0  0  0  0
  189.3870  176.9010  142.5050 C   0  0  2  0  0  3  0  0  0  0  0  0
  186.6230  179.0350  143.9630 C   0  0  0  0  0  3  0  0  0  0  0  0
  189.3070  175.1890  147.2680 C   0  0  0  0  0  2  0  0  0  0  0  0
  186.5190  177.0630  142.5440 C   0  0  0  0  0  0  0  0  0  0  0  0
  185.1550  177.2930  142.3430 C   0  0  0  0  0  3  0  0  0  0  0  0
  190.8890  176.6650  142.7700 C   0  0  0  0  0  2  0  0  0  0  0  0
  190.1010  176.0450  145.0700 C   0  0  1  0  0  3  0  0  0  0  0  0
  190.5120  175.7380  146.5040 C   0  0  0  0  0  2  0  0  0  0  0  0
  188.6090  173.4400  141.2790 O   0  0  0  0  0  0  0  0  0  0  0  0
  189.8820  173.5290  141.8690 C   0  0  2  0  0  3  0  0  0  0  0  0
  189.2410  174.6970  141.2200 C   0  0  2  0  0  3  0  0  0  0  0  0
  192.1710  170.8050  142.4730 C   0  0  1  0  0  3  0  0  0  0  0  0
  190.5970  171.3320  140.9240 C   0  0  0  0  0  2  0  0  0  0  0  0
  192.7040  174.4210  141.5290 N   0  0  0  0  0  1  0  0  0  0  0  0
  192.4590  170.0090  143.7290 C   0  0  0  0  0  1  0  0  0  0  0  0
  190.7880  170.7740  142.2050 O   0  0  0  0  0  0  0  0  0  0  0  0
  192.3470  173.0200  141.3860 C   0  0  2  0  0  3  0  0  0  0  0  0
  190.8870  172.8380  140.9470 C   0  0  2  0  0  3  0  0  0  0  0  0
  192.6430  172.2460  142.6660 C   0  0  0  0  0  2  0  0  0  0  0  0
  1 14  1  0  0  0  0
  1  9  1  0  0  0  0
  2  5  1  6  0  0  0
  2  3  1  0  0  0  0
  3 19  1  0  0  0  0
  3  7  1  6  0  0  0
  4 15  1  0  0  0  0
  4 11  1  6  0  0  0
  5 14  2  0  0  0  0
  6  1  2  0  0  0  0
  7  4  1  0  0  0  0
  8 12  1  6  0  0  0
  8 13  1  0  0  0  0
 12 16  1  0  0  0  0
 13 18  1  1  0  0  0
 13  2  1  0  0  0  0
 16  5  1  0  0  0  0
 17 16  2  0  0  0  0
 17  6  1  0  0  0  0
 18 10  1  0  0  0  0
 19 10  1  6  0  0  0
 19 20  1  0  0  0  0
 20 15  1  0  0  0  0
 22 21  1  6  0  0  0
 23 21  1  6  0  0  0
 23 22  1  0  0  0  0
 23  8  1  0  0  0  0
 24 31  1  0  0  0  0
 24 27  1  1  0  0  0
 25 28  1  0  0  0  0
 28 24  1  0  0  0  0
 29 26  1  1  0  0  0
 29 31  1  0  0  0  0
 30 25  1  1  0  0  0
 30 29  1  0  0  0  0
 30 22  1  0  0  0  0
M  END
>  <MODEL>
9

>  <REMARK>
 VINA RESULT:      -7.2      3.167      5.158
  Name = 
  2 active torsions:
  status: ('A' for Active; 'I' for Inactive)
    1  A    between atoms: C_5  and  C_30
    2  A    between atoms: C_10  and  C_16
                            x       y       z     vdW  Elec       q    Type
                         _______ _______ _______ _____ _____    ______ ____

>  <TORSDO>
F 2

$$$$
