=
 OpenBabel11112417043D

 31 35  0  0  1  0  0  0  0  0999 V2000
  191.9230  172.7330  141.9610 C   0  0  1  0  0  3  0  0  0  0  0  0
  191.3480  174.0930  145.4390 C   0  0  2  0  0  3  0  0  0  0  0  0
  192.4140  175.1790  145.6460 C   0  0  0  0  0  0  0  0  0  0  0  0
  194.5440  176.1970  145.0350 C   0  0  0  0  0  0  0  0  0  0  0  0
  191.0480  173.7340  144.0370 N   0  0  2  0  0  0  0  0  0  0  0  0
  191.4980  173.9680  141.1860 C   0  0  0  0  0  2  0  0  0  0  0  0
  193.5310  175.2680  144.7990 C   0  0  0  0  0  3  0  0  0  0  0  0
  189.3330  175.6150  145.4150 C   0  0  2  0  0  3  0  0  0  0  0  0
  193.0670  172.1910  141.3790 O   0  0  0  0  0  1  0  0  0  0  0  0
  191.1930  176.0330  147.7270 C   0  0  0  0  0  2  0  0  0  0  0  0
  195.7060  176.2780  144.1130 C   0  0  0  0  0  1  0  0  0  0  0  0
  189.1970  175.3300  143.9190 C   0  0  0  0  0  2  0  0  0  0  0  0
  190.0310  174.4530  146.1420 C   0  0  2  0  0  3  0  0  0  0  0  0
  192.2250  173.1310  143.3980 C   0  0  0  0  0  2  0  0  0  0  0  0
  194.4690  177.0430  146.1400 C   0  0  0  0  0  3  0  0  0  0  0  0
  190.5310  174.9070  143.3040 C   0  0  2  0  0  3  0  0  0  0  0  0
  190.2610  174.5650  141.8390 C   0  0  0  0  0  2  0  0  0  0  0  0
  190.3170  174.7880  147.6050 C   0  0  0  0  0  2  0  0  0  0  0  0
  192.3640  176.0230  146.7850 C   0  0  0  0  0  0  0  0  0  0  0  0
  193.3810  176.9570  147.0100 C   0  0  0  0  0  3  0  0  0  0  0  0
  188.5790  177.9070  146.9320 O   0  0  0  0  0  0  0  0  0  0  0  0
  187.7010  177.0220  146.7380 C   0  0  0  0  0  0  0  0  0  0  0  0
  188.0160  175.8450  145.9920 N   0  0  0  0  0  2  0  0  0  0  0  0
  184.5500  178.4970  145.4970 C   0  0  1  0  0  3  0  0  0  0  0  0
  185.2700  176.5390  146.3760 C   0  0  0  0  0  2  0  0  0  0  0  0
  186.9730  179.4200  148.3350 C   0  0  0  0  0  1  0  0  0  0  0  0
  184.1470  179.2100  144.2230 C   0  0  0  0  0  1  0  0  0  0  0  0
  185.1480  177.2650  145.1750 O   0  0  0  0  0  0  0  0  0  0  0  0
  185.9170  178.6460  147.5630 C   0  0  2  0  0  3  0  0  0  0  0  0
  186.3150  177.1840  147.2970 C   0  0  2  0  0  3  0  0  0  0  0  0
  185.5360  179.3700  146.2750 C   0  0  0  0  0  2  0  0  0  0  0  0
  1  9  1  6  0  0  0
  1 14  1  0  0  0  0
  2  3  1  6  0  0  0
  2 13  1  0  0  0  0
  3 19  1  0  0  0  0
  4 15  2  0  0  0  0
  5 14  1  6  0  0  0
  5  2  1  0  0  0  0
  6 17  1  0  0  0  0
  6  1  1  0  0  0  0
  7  4  1  0  0  0  0
  7  3  2  0  0  0  0
  8 23  1  1  0  0  0
  8 13  1  0  0  0  0
 11  4  1  0  0  0  0
 12  8  1  0  0  0  0
 13 18  1  1  0  0  0
 15 20  1  0  0  0  0
 16 17  1  6  0  0  0
 16 12  1  0  0  0  0
 16  5  1  0  0  0  0
 18 10  1  0  0  0  0
 19 20  2  0  0  0  0
 19 10  1  0  0  0  0
 22 21  2  0  0  0  0
 23 22  1  0  0  0  0
 24 27  1  6  0  0  0
 24 31  1  0  0  0  0
 25 30  1  0  0  0  0
 28 24  1  0  0  0  0
 28 25  1  0  0  0  0
 29 26  1  6  0  0  0
 30 22  1  6  0  0  0
 30 29  1  0  0  0  0
 31 29  1  0  0  0  0
M  END
>  <MODEL>
1

>  <REMARK>
 VINA RESULT:      -8.9      0.000      0.000
  Name = 
  2 active torsions:
  status: ('A' for Active; 'I' for Inactive)
    1  A    between atoms: C_5  and  C_30
    2  A    between atoms: C_10  and  N_16
                            x       y       z     vdW  Elec       q    Type
                         _______ _______ _______ _____ _____    ______ ____

>  <TORSDO>
F 2

$$$$
=
 OpenBabel11112417043D

 31 35  0  0  1  0  0  0  0  0999 V2000
  194.3110  177.0400  145.3260 C   0  0  1  0  0  3  0  0  0  0  0  0
  190.9870  177.0110  143.5300 C   0  0  2  0  0  3  0  0  0  0  0  0
  190.9100  175.6550  142.8120 C   0  0  0  0  0  0  0  0  0  0  0  0
  192.0080  173.6750  141.9070 C   0  0  0  0  0  0  0  0  0  0  0  0
  191.9390  177.0980  144.6560 N   0  0  2  0  0  0  0  0  0  0  0  0
  193.9930  175.9740  146.3600 C   0  0  0  0  0  2  0  0  0  0  0  0
  192.0570  174.8650  142.6330 C   0  0  0  0  0  3  0  0  0  0  0  0
  189.1410  176.6000  145.2030 C   0  0  2  0  0  3  0  0  0  0  0  0
  195.6030  176.8460  144.8410 O   0  0  0  0  0  1  0  0  0  0  0  0
  188.4140  175.9950  142.3580 C   0  0  0  0  0  2  0  0  0  0  0  0
  193.2340  172.8520  141.7460 C   0  0  0  0  0  1  0  0  0  0  0  0
  190.2110  176.5270  146.2920 C   0  0  0  0  0  2  0  0  0  0  0  0
  189.6060  177.4690  144.0220 C   0  0  2  0  0  3  0  0  0  0  0  0
  193.3180  176.9280  144.1790 C   0  0  0  0  0  2  0  0  0  0  0  0
  190.8090  173.2620  141.3280 C   0  0  0  0  0  3  0  0  0  0  0  0
  191.5730  176.1370  145.7160 C   0  0  2  0  0  3  0  0  0  0  0  0
  192.5760  176.1810  146.8690 C   0  0  0  0  0  2  0  0  0  0  0  0
  188.6170  177.4240  142.8580 C   0  0  0  0  0  2  0  0  0  0  0  0
  189.7030  175.2420  142.1910 C   0  0  0  0  0  0  0  0  0  0  0  0
  189.6620  174.0420  141.4720 C   0  0  0  0  0  3  0  0  0  0  0  0
  187.7380  175.5200  147.4380 O   0  0  0  0  0  0  0  0  0  0  0  0
  187.2580  176.5500  146.8900 C   0  0  0  0  0  0  0  0  0  0  0  0
  187.9080  177.1370  145.7620 N   0  0  0  0  0  2  0  0  0  0  0  0
  184.7590  178.8940  145.5110 C   0  0  1  0  0  3  0  0  0  0  0  0
  184.8050  176.8510  146.4860 C   0  0  0  0  0  2  0  0  0  0  0  0
  187.3160  179.1250  148.3720 C   0  0  0  0  0  1  0  0  0  0  0  0
  184.6190  179.6390  144.1990 C   0  0  0  0  0  1  0  0  0  0  0  0
  184.9360  177.5220  145.2540 O   0  0  0  0  0  0  0  0  0  0  0  0
  186.0770  178.6940  147.6040 C   0  0  2  0  0  3  0  0  0  0  0  0
  185.9900  177.1700  147.4070 C   0  0  2  0  0  3  0  0  0  0  0  0
  185.9620  179.4420  146.2790 C   0  0  0  0  0  2  0  0  0  0  0  0
  1  9  1  6  0  0  0
  1  6  1  0  0  0  0
  2  3  1  1  0  0  0
  2 13  1  0  0  0  0
  2  5  1  0  0  0  0
  4  7  2  0  0  0  0
  5 14  1  6  0  0  0
  5 16  1  0  0  0  0
  6 17  1  0  0  0  0
  7  3  1  0  0  0  0
  8 23  1  1  0  0  0
  8 12  1  0  0  0  0
 10 18  1  0  0  0  0
 11  4  1  0  0  0  0
 13 18  1  6  0  0  0
 13  8  1  0  0  0  0
 14  1  1  0  0  0  0
 15 20  2  0  0  0  0
 15  4  1  0  0  0  0
 16 12  1  1  0  0  0
 16 17  1  0  0  0  0
 19 10  1  0  0  0  0
 19  3  2  0  0  0  0
 20 19  1  0  0  0  0
 22 21  2  0  0  0  0
 23 22  1  0  0  0  0
 24 27  1  6  0  0  0
 24 31  1  0  0  0  0
 25 30  1  0  0  0  0
 28 24  1  0  0  0  0
 28 25  1  0  0  0  0
 29 26  1  6  0  0  0
 30 22  1  6  0  0  0
 30 29  1  0  0  0  0
 31 29  1  0  0  0  0
M  END
>  <MODEL>
2

>  <REMARK>
 VINA RESULT:      -8.7      1.806      3.991
  Name = 
  2 active torsions:
  status: ('A' for Active; 'I' for Inactive)
    1  A    between atoms: C_5  and  C_30
    2  A    between atoms: C_10  and  N_16
                            x       y       z     vdW  Elec       q    Type
                         _______ _______ _______ _____ _____    ______ ____

>  <TORSDO>
F 2

$$$$
=
 OpenBabel11112417043D

 31 35  0  0  1  0  0  0  0  0999 V2000
  184.9980  177.7240  147.2350 C   0  0  1  0  0  3  0  0  0  0  0  0
  187.5540  175.7520  145.2720 C   0  0  2  0  0  3  0  0  0  0  0  0
  187.5180  176.3210  143.8460 C   0  0  0  0  0  0  0  0  0  0  0  0
  186.3690  177.5720  142.0960 C   0  0  0  0  0  0  0  0  0  0  0  0
  187.0120  176.6250  146.3350 N   0  0  2  0  0  0  0  0  0  0  0  0
  185.7260  179.0570  147.2370 C   0  0  0  0  0  2  0  0  0  0  0  0
  186.4500  177.1240  143.4150 C   0  0  0  0  0  3  0  0  0  0  0  0
  189.8700  176.5520  145.8830 C   0  0  2  0  0  3  0  0  0  0  0  0
  183.6410  177.9370  146.9960 O   0  0  0  0  0  1  0  0  0  0  0  0
  189.6930  175.1040  143.2650 C   0  0  0  0  0  2  0  0  0  0  0  0
  185.2360  178.4330  141.6710 C   0  0  0  0  0  1  0  0  0  0  0  0
  189.2190  177.5550  146.8360 C   0  0  0  0  0  2  0  0  0  0  0  0
  188.9730  175.3210  145.6720 C   0  0  2  0  0  3  0  0  0  0  0  0
  185.5750  176.8480  146.1330 C   0  0  0  0  0  2  0  0  0  0  0  0
  187.3500  177.2040  141.1750 C   0  0  0  0  0  3  0  0  0  0  0  0
  187.7850  177.8800  146.4150 C   0  0  2  0  0  3  0  0  0  0  0  0
  187.2070  178.8140  147.4780 C   0  0  0  0  0  2  0  0  0  0  0  0
  189.5340  174.3850  144.6030 C   0  0  0  0  0  2  0  0  0  0  0  0
  188.4920  175.9260  142.8930 C   0  0  0  0  0  0  0  0  0  0  0  0
  188.4070  176.3860  141.5740 C   0  0  0  0  0  3  0  0  0  0  0  0
  192.3730  176.9050  144.5660 O   0  0  0  0  0  0  0  0  0  0  0  0
  192.3840  176.3560  145.7010 C   0  0  0  0  0  0  0  0  0  0  0  0
  191.1640  176.1420  146.4110 N   0  0  0  0  0  2  0  0  0  0  0  0
  195.8890  176.1570  144.5520 C   0  0  1  0  0  3  0  0  0  0  0  0
  194.7250  177.0260  146.2890 C   0  0  0  0  0  2  0  0  0  0  0  0
  193.2580  173.5220  145.5080 C   0  0  0  0  0  1  0  0  0  0  0  0
  196.5940  176.4750  143.2500 C   0  0  0  0  0  1  0  0  0  0  0  0
  195.1470  177.2770  144.9690 O   0  0  0  0  0  0  0  0  0  0  0  0
  194.2720  174.6420  145.6710 C   0  0  2  0  0  3  0  0  0  0  0  0
  193.6780  175.9050  146.3200 C   0  0  2  0  0  3  0  0  0  0  0  0
  194.9600  174.9600  144.3460 C   0  0  0  0  0  2  0  0  0  0  0  0
  1  9  1  6  0  0  0
  1  6  1  0  0  0  0
  2  3  1  6  0  0  0
  2 13  1  0  0  0  0
  2  5  1  0  0  0  0
  4  7  2  0  0  0  0
  5 14  1  6  0  0  0
  5 16  1  0  0  0  0
  6 17  1  0  0  0  0
  7  3  1  0  0  0  0
  8 23  1  1  0  0  0
  8 12  1  0  0  0  0
 10 18  1  0  0  0  0
 11  4  1  0  0  0  0
 13 18  1  6  0  0  0
 13  8  1  0  0  0  0
 14  1  1  0  0  0  0
 15 20  2  0  0  0  0
 15  4  1  0  0  0  0
 16 12  1  1  0  0  0
 16 17  1  0  0  0  0
 19 10  1  0  0  0  0
 19  3  2  0  0  0  0
 20 19  1  0  0  0  0
 21 22  2  0  0  0  0
 22 23  1  0  0  0  0
 24 27  1  6  0  0  0
 24 28  1  0  0  0  0
 25 30  1  0  0  0  0
 28 25  1  0  0  0  0
 29 26  1  6  0  0  0
 29 30  1  0  0  0  0
 30 22  1  6  0  0  0
 31 24  1  0  0  0  0
 31 29  1  0  0  0  0
M  END
>  <MODEL>
3

>  <REMARK>
 VINA RESULT:      -8.7      2.311      7.875
  Name = 
  2 active torsions:
  status: ('A' for Active; 'I' for Inactive)
    1  A    between atoms: C_5  and  C_30
    2  A    between atoms: C_10  and  N_16
                            x       y       z     vdW  Elec       q    Type
                         _______ _______ _______ _____ _____    ______ ____

>  <TORSDO>
F 2

$$$$
=
 OpenBabel11112417043D

 31 35  0  0  1  0  0  0  0  0999 V2000
  187.3790  177.5890  140.8680 C   0  0  1  0  0  3  0  0  0  0  0  0
  190.0090  177.2430  143.5590 C   0  0  2  0  0  3  0  0  0  0  0  0
  189.2570  176.8130  144.8280 C   0  0  0  0  0  0  0  0  0  0  0  0
  187.1840  176.6290  146.0990 C   0  0  0  0  0  0  0  0  0  0  0  0
  189.3150  177.0010  142.2770 N   0  0  2  0  0  0  0  0  0  0  0  0
  187.0290  176.1170  140.7350 C   0  0  0  0  0  2  0  0  0  0  0  0
  187.8610  176.9380  144.9190 C   0  0  0  0  0  3  0  0  0  0  0  0
  191.2930  175.0990  143.1970 C   0  0  2  0  0  3  0  0  0  0  0  0
  186.2110  178.3480  140.8370 O   0  0  0  0  0  1  0  0  0  0  0  0
  191.4630  176.2110  145.9760 C   0  0  0  0  0  2  0  0  0  0  0  0
  185.7050  176.7570  146.1620 C   0  0  0  0  0  1  0  0  0  0  0  0
  190.4080  174.8330  141.9800 C   0  0  0  0  0  2  0  0  0  0  0  0
  191.4040  176.6060  143.4860 C   0  0  2  0  0  3  0  0  0  0  0  0
  188.0910  177.8090  142.1950 C   0  0  0  0  0  2  0  0  0  0  0  0
  187.8970  176.2080  147.2210 C   0  0  0  0  0  3  0  0  0  0  0  0
  189.0660  175.5570  142.0900 C   0  0  2  0  0  3  0  0  0  0  0  0
  188.3060  175.2940  140.7900 C   0  0  0  0  0  2  0  0  0  0  0  0
  192.1520  176.8820  144.7890 C   0  0  0  0  0  2  0  0  0  0  0  0
  189.9750  176.4140  145.9840 C   0  0  0  0  0  0  0  0  0  0  0  0
  189.2870  176.0990  147.1610 C   0  0  0  0  0  3  0  0  0  0  0  0
  192.4720  173.0100  144.7380 O   0  0  0  0  0  0  0  0  0  0  0  0
  193.1460  173.4820  143.7820 C   0  0  0  0  0  0  0  0  0  0  0  0
  192.6170  174.5350  142.9750 N   0  0  0  0  0  2  0  0  0  0  0  0
  195.2030  170.6990  145.0730 C   0  0  1  0  0  3  0  0  0  0  0  0
  194.4690  171.4740  143.0760 C   0  0  0  0  0  2  0  0  0  0  0  0
  195.5250  174.5260  145.2230 C   0  0  0  0  0  1  0  0  0  0  0  0
  195.0040  169.6450  146.1430 C   0  0  0  0  0  1  0  0  0  0  0  0
  194.1180  170.6680  144.1780 O   0  0  0  0  0  0  0  0  0  0  0  0
  195.5200  173.1220  144.6420 C   0  0  2  0  0  3  0  0  0  0  0  0
  194.5220  172.9540  143.4820 C   0  0  2  0  0  3  0  0  0  0  0  0
  195.3010  172.0760  145.7310 C   0  0  0  0  0  2  0  0  0  0  0  0
  1  9  1  1  0  0  0
  1 14  1  0  0  0  0
  2  3  1  1  0  0  0
  3  7  2  0  0  0  0
  3 19  1  0  0  0  0
  4 11  1  0  0  0  0
  4 15  2  0  0  0  0
  5 14  1  1  0  0  0
  5  2  1  0  0  0  0
  6 17  1  0  0  0  0
  6  1  1  0  0  0  0
  7  4  1  0  0  0  0
  8 23  1  6  0  0  0
  8 13  1  0  0  0  0
 10 19  1  0  0  0  0
 12 16  1  0  0  0  0
 12  8  1  0  0  0  0
 13  2  1  0  0  0  0
 13 18  1  1  0  0  0
 16 17  1  6  0  0  0
 16  5  1  0  0  0  0
 18 10  1  0  0  0  0
 19 20  2  0  0  0  0
 20 15  1  0  0  0  0
 22 21  2  0  0  0  0
 23 22  1  0  0  0  0
 24 31  1  0  0  0  0
 24 27  1  1  0  0  0
 25 30  1  0  0  0  0
 25 28  1  0  0  0  0
 28 24  1  0  0  0  0
 29 26  1  1  0  0  0
 29 31  1  0  0  0  0
 30 22  1  1  0  0  0
 30 29  1  0  0  0  0
M  END
>  <MODEL>
4

>  <REMARK>
 VINA RESULT:      -8.1      2.707      7.639
  Name = 
  2 active torsions:
  status: ('A' for Active; 'I' for Inactive)
    1  A    between atoms: C_5  and  C_30
    2  A    between atoms: C_10  and  N_16
                            x       y       z     vdW  Elec       q    Type
                         _______ _______ _______ _____ _____    ______ ____

>  <TORSDO>
F 2

$$$$
=
 OpenBabel11112417043D

 31 35  0  0  1  0  0  0  0  0999 V2000
  188.2210  176.1140  141.5180 C   0  0  1  0  0  3  0  0  0  0  0  0
  191.4610  176.3750  143.4440 C   0  0  2  0  0  3  0  0  0  0  0  0
  191.0610  176.5170  144.9200 C   0  0  0  0  0  0  0  0  0  0  0  0
  189.4000  177.0680  146.6180 C   0  0  0  0  0  0  0  0  0  0  0  0
  190.4390  175.7980  142.5460 N   0  0  2  0  0  0  0  0  0  0  0  0
  187.7910  174.7490  142.0260 C   0  0  0  0  0  2  0  0  0  0  0  0
  189.7470  176.8540  145.2840 C   0  0  0  0  0  3  0  0  0  0  0  0
  192.5160  174.0860  143.6110 C   0  0  2  0  0  3  0  0  0  0  0  0
  187.1180  176.9650  141.4830 O   0  0  0  0  0  1  0  0  0  0  0  0
  193.4690  176.0600  145.6560 C   0  0  0  0  0  2  0  0  0  0  0  0
  187.9990  177.4080  146.9760 C   0  0  0  0  0  1  0  0  0  0  0  0
  191.3260  173.5350  142.8250 C   0  0  0  0  0  2  0  0  0  0  0  0
  192.7590  175.5700  143.2860 C   0  0  2  0  0  3  0  0  0  0  0  0
  189.2710  176.6840  142.4600 C   0  0  0  0  0  2  0  0  0  0  0  0
  190.3710  176.9710  147.6150 C   0  0  0  0  0  3  0  0  0  0  0  0
  190.0930  174.4270  142.9710 C   0  0  2  0  0  3  0  0  0  0  0  0
  189.0020  173.8330  142.0800 C   0  0  0  0  0  2  0  0  0  0  0  0
  193.8400  176.1780  144.1780 C   0  0  0  0  0  2  0  0  0  0  0  0
  192.0470  176.4530  145.9380 C   0  0  0  0  0  0  0  0  0  0  0  0
  191.6880  176.6620  147.2740 C   0  0  0  0  0  3  0  0  0  0  0  0
  193.9340  172.4590  145.4730 O   0  0  0  0  0  0  0  0  0  0  0  0
  194.3680  172.5040  144.2900 C   0  0  0  0  0  0  0  0  0  0  0  0
  193.7080  173.3070  143.3090 N   0  0  0  0  0  2  0  0  0  0  0  0
  196.4290  169.8960  145.9000 C   0  0  1  0  0  3  0  0  0  0  0  0
  195.3280  170.2160  143.9470 C   0  0  0  0  0  2  0  0  0  0  0  0
  197.0880  173.5440  144.8800 C   0  0  0  0  0  1  0  0  0  0  0  0
  196.3910  169.1990  147.2440 C   0  0  0  0  0  1  0  0  0  0  0  0
  195.1710  169.7850  145.2790 O   0  0  0  0  0  0  0  0  0  0  0  0
  196.8370  172.0520  144.7390 C   0  0  2  0  0  3  0  0  0  0  0  0
  195.5920  171.7270  143.8930 C   0  0  2  0  0  3  0  0  0  0  0  0
  196.7850  171.3690  146.1030 C   0  0  0  0  0  2  0  0  0  0  0  0
  1  9  1  1  0  0  0
  1  6  1  0  0  0  0
  1 14  1  0  0  0  0
  2  3  1  1  0  0  0
  3  7  2  0  0  0  0
  3 19  1  0  0  0  0
  4 11  1  0  0  0  0
  4 15  2  0  0  0  0
  5 14  1  1  0  0  0
  5 16  1  0  0  0  0
  5  2  1  0  0  0  0
  6 17  1  0  0  0  0
  7  4  1  0  0  0  0
  8 23  1  6  0  0  0
 10 19  1  0  0  0  0
 12 16  1  0  0  0  0
 12  8  1  0  0  0  0
 13  2  1  0  0  0  0
 13  8  1  0  0  0  0
 13 18  1  1  0  0  0
 16 17  1  6  0  0  0
 18 10  1  0  0  0  0
 19 20  2  0  0  0  0
 20 15  1  0  0  0  0
 22 21  2  0  0  0  0
 23 22  1  0  0  0  0
 24 31  1  0  0  0  0
 24 27  1  1  0  0  0
 25 28  1  0  0  0  0
 28 24  1  0  0  0  0
 29 26  1  1  0  0  0
 29 31  1  0  0  0  0
 30 25  1  0  0  0  0
 30 22  1  1  0  0  0
 30 29  1  0  0  0  0
M  END
>  <MODEL>
5

>  <REMARK>
 VINA RESULT:      -8.1      3.083      7.936
  Name = 
  2 active torsions:
  status: ('A' for Active; 'I' for Inactive)
    1  A    between atoms: C_5  and  C_30
    2  A    between atoms: C_10  and  N_16
                            x       y       z     vdW  Elec       q    Type
                         _______ _______ _______ _____ _____    ______ ____

>  <TORSDO>
F 2

$$$$
=
 OpenBabel11112417043D

 31 35  0  0  1  0  0  0  0  0999 V2000
  186.4770  177.7950  147.9980 C   0  0  1  0  0  3  0  0  0  0  0  0
  188.2560  175.4690  145.6110 C   0  0  2  0  0  3  0  0  0  0  0  0
  188.1840  176.1460  144.2350 C   0  0  0  0  0  0  0  0  0  0  0  0
  187.1600  177.7600  142.7210 C   0  0  0  0  0  0  0  0  0  0  0  0
  188.0600  176.3510  146.7810 N   0  0  2  0  0  0  0  0  0  0  0  0
  187.4900  178.9270  147.9730 C   0  0  0  0  0  2  0  0  0  0  0  0
  187.2890  177.2000  143.9920 C   0  0  0  0  0  3  0  0  0  0  0  0
  190.7490  175.6780  145.9490 C   0  0  2  0  0  3  0  0  0  0  0  0
  185.1880  178.3250  147.9540 O   0  0  0  0  0  1  0  0  0  0  0  0
  189.9330  174.5250  143.3060 C   0  0  0  0  0  2  0  0  0  0  0  0
  186.2160  178.8850  142.4970 C   0  0  0  0  0  1  0  0  0  0  0  0
  190.4650  176.7200  147.0310 C   0  0  0  0  0  2  0  0  0  0  0  0
  189.5720  174.7000  145.7950 C   0  0  2  0  0  3  0  0  0  0  0  0
  186.7000  176.9050  146.7850 C   0  0  0  0  0  2  0  0  0  0  0  0
  187.9130  177.2590  141.6600 C   0  0  0  0  0  3  0  0  0  0  0  0
  189.1070  177.3910  146.8240 C   0  0  2  0  0  3  0  0  0  0  0  0
  188.8910  178.3410  148.0020 C   0  0  0  0  0  2  0  0  0  0  0  0
  189.7710  173.7520  144.6140 C   0  0  0  0  0  2  0  0  0  0  0  0
  188.9210  175.6220  143.1410 C   0  0  0  0  0  0  0  0  0  0  0  0
  188.7910  176.1960  141.8710 C   0  0  0  0  0  3  0  0  0  0  0  0
  193.0970  175.5770  144.3350 O   0  0  0  0  0  0  0  0  0  0  0  0
  193.1120  174.9440  145.4260 C   0  0  0  0  0  0  0  0  0  0  0  0
  191.9650  174.9470  146.2780 N   0  0  0  0  0  2  0  0  0  0  0  0
  196.4280  174.3020  143.9310 C   0  0  1  0  0  3  0  0  0  0  0  0
  195.5720  175.0650  145.8840 C   0  0  0  0  0  2  0  0  0  0  0  0
  193.3980  172.0720  144.7190 C   0  0  0  0  0  1  0  0  0  0  0  0
  197.0960  174.7010  142.6310 C   0  0  0  0  0  1  0  0  0  0  0  0
  195.9490  175.4540  144.5830 O   0  0  0  0  0  0  0  0  0  0  0  0
  194.6200  172.9430  144.9540 C   0  0  2  0  0  3  0  0  0  0  0  0
  194.3290  174.1660  145.8430 C   0  0  2  0  0  3  0  0  0  0  0  0
  195.2700  173.3490  143.6330 C   0  0  0  0  0  2  0  0  0  0  0  0
  1  9  1  6  0  0  0
  2  3  1  6  0  0  0
  2 13  1  0  0  0  0
  2  5  1  0  0  0  0
  4  7  2  0  0  0  0
  5 14  1  6  0  0  0
  5 16  1  0  0  0  0
  6  1  1  0  0  0  0
  6 17  1  0  0  0  0
  7  3  1  0  0  0  0
  8 23  1  1  0  0  0
  8 12  1  0  0  0  0
 10 18  1  0  0  0  0
 11  4  1  0  0  0  0
 13 18  1  6  0  0  0
 13  8  1  0  0  0  0
 14  1  1  0  0  0  0
 15 20  2  0  0  0  0
 15  4  1  0  0  0  0
 16 12  1  1  0  0  0
 16 17  1  0  0  0  0
 19 10  1  0  0  0  0
 19  3  2  0  0  0  0
 20 19  1  0  0  0  0
 21 22  2  0  0  0  0
 22 23  1  0  0  0  0
 24 27  1  6  0  0  0
 24 28  1  0  0  0  0
 28 25  1  0  0  0  0
 29 26  1  6  0  0  0
 29 30  1  0  0  0  0
 30 22  1  6  0  0  0
 30 25  1  0  0  0  0
 31 24  1  0  0  0  0
 31 29  1  0  0  0  0
M  END
>  <MODEL>
6

>  <REMARK>
 VINA RESULT:      -8.0      2.303      8.034
  Name = 
  2 active torsions:
  status: ('A' for Active; 'I' for Inactive)
    1  A    between atoms: C_5  and  C_30
    2  A    between atoms: C_10  and  N_16
                            x       y       z     vdW  Elec       q    Type
                         _______ _______ _______ _____ _____    ______ ____

>  <TORSDO>
F 2

$$$$
=
 OpenBabel11112417043D

 31 35  0  0  1  0  0  0  0  0999 V2000
  187.3560  177.5660  140.6980 C   0  0  1  0  0  3  0  0  0  0  0  0
  189.6940  177.5610  143.6670 C   0  0  2  0  0  3  0  0  0  0  0  0
  188.8240  177.2130  144.8850 C   0  0  0  0  0  0  0  0  0  0  0  0
  186.6350  177.0590  145.9460 C   0  0  0  0  0  0  0  0  0  0  0  0
  189.1480  177.1810  142.3470 N   0  0  2  0  0  0  0  0  0  0  0  0
  187.0670  176.0760  140.6640 C   0  0  0  0  0  2  0  0  0  0  0  0
  187.4240  177.2900  144.8190 C   0  0  0  0  0  3  0  0  0  0  0  0
  191.0730  175.4460  143.6360 C   0  0  2  0  0  3  0  0  0  0  0  0
  186.1760  178.2730  140.4770 O   0  0  0  0  0  1  0  0  0  0  0  0
  190.9130  176.8010  146.3050 C   0  0  0  0  0  2  0  0  0  0  0  0
  185.1540  177.1330  145.8440 C   0  0  0  0  0  1  0  0  0  0  0  0
  190.3310  175.0390  142.3620 C   0  0  0  0  0  2  0  0  0  0  0  0
  191.1070  176.9750  143.7960 C   0  0  2  0  0  3  0  0  0  0  0  0
  187.9160  177.9300  142.0660 C   0  0  0  0  0  2  0  0  0  0  0  0
  187.2360  176.7650  147.1690 C   0  0  0  0  0  3  0  0  0  0  0  0
  188.9640  175.7170  142.2670 C   0  0  2  0  0  3  0  0  0  0  0  0
  188.3550  175.3120  140.9250 C   0  0  0  0  0  2  0  0  0  0  0  0
  191.7040  177.3930  145.1390 C   0  0  0  0  0  2  0  0  0  0  0  0
  189.4270  176.9450  146.1410 C   0  0  0  0  0  0  0  0  0  0  0  0
  188.6270  176.7060  147.2630 C   0  0  0  0  0  3  0  0  0  0  0  0
  191.9610  173.1070  145.0020 O   0  0  0  0  0  0  0  0  0  0  0  0
  192.8070  173.7330  144.3080 C   0  0  0  0  0  0  0  0  0  0  0  0
  192.4300  174.9170  143.6040 N   0  0  0  0  0  2  0  0  0  0  0  0
  196.0740  175.3640  143.7480 C   0  0  1  0  0  3  0  0  0  0  0  0
  195.1170  173.9630  145.2490 C   0  0  0  0  0  2  0  0  0  0  0  0
  193.9660  172.8800  141.7080 C   0  0  0  0  0  1  0  0  0  0  0  0
  196.5120  176.7900  143.4880 C   0  0  0  0  0  1  0  0  0  0  0  0
  195.2830  175.3210  144.9110 O   0  0  0  0  0  0  0  0  0  0  0  0
  194.8540  173.4120  142.8200 C   0  0  2  0  0  3  0  0  0  0  0  0
  194.2290  173.2530  144.2180 C   0  0  2  0  0  3  0  0  0  0  0  0
  195.2710  174.8550  142.5500 C   0  0  0  0  0  2  0  0  0  0  0  0
  1  9  1  1  0  0  0
  1 14  1  0  0  0  0
  2 13  1  0  0  0  0
  2  3  1  1  0  0  0
  3 19  1  0  0  0  0
  4 15  2  0  0  0  0
  5 14  1  1  0  0  0
  5  2  1  0  0  0  0
  6  1  1  0  0  0  0
  6 17  1  0  0  0  0
  7  3  2  0  0  0  0
  7  4  1  0  0  0  0
  8 23  1  6  0  0  0
  8 13  1  0  0  0  0
 11  4  1  0  0  0  0
 12  8  1  0  0  0  0
 13 18  1  1  0  0  0
 15 20  1  0  0  0  0
 16 17  1  6  0  0  0
 16  5  1  0  0  0  0
 16 12  1  0  0  0  0
 18 10  1  0  0  0  0
 19 10  1  0  0  0  0
 19 20  2  0  0  0  0
 22 21  2  0  0  0  0
 23 22  1  0  0  0  0
 24 27  1  6  0  0  0
 24 28  1  0  0  0  0
 28 25  1  0  0  0  0
 29 26  1  6  0  0  0
 29 30  1  0  0  0  0
 30 22  1  6  0  0  0
 30 25  1  0  0  0  0
 31 29  1  0  0  0  0
 31 24  1  0  0  0  0
M  END
>  <MODEL>
7

>  <REMARK>
 VINA RESULT:      -7.9      2.543      7.437
  Name = 
  2 active torsions:
  status: ('A' for Active; 'I' for Inactive)
    1  A    between atoms: C_5  and  C_30
    2  A    between atoms: C_10  and  N_16
                            x       y       z     vdW  Elec       q    Type
                         _______ _______ _______ _____ _____    ______ ____

>  <TORSDO>
F 2

$$$$
=
 OpenBabel11112417043D

 31 35  0  0  1  0  0  0  0  0999 V2000
  185.0910  177.5620  146.8450 C   0  0  1  0  0  3  0  0  0  0  0  0
  187.2800  175.8050  144.3160 C   0  0  2  0  0  3  0  0  0  0  0  0
  186.9780  176.4710  142.9650 C   0  0  0  0  0  0  0  0  0  0  0  0
  185.5140  177.8080  141.5470 C   0  0  0  0  0  0  0  0  0  0  0  0
  186.9260  176.5850  145.5200 N   0  0  2  0  0  0  0  0  0  0  0  0
  185.7870  178.9110  146.8150 C   0  0  0  0  0  2  0  0  0  0  0  0
  185.8370  177.2720  142.7930 C   0  0  0  0  0  3  0  0  0  0  0  0
  189.6560  176.6250  144.5600 C   0  0  2  0  0  3  0  0  0  0  0  0
  183.7100  177.7530  146.8700 O   0  0  0  0  0  1  0  0  0  0  0  0
  189.0300  175.3590  141.9160 C   0  0  0  0  0  2  0  0  0  0  0  0
  184.3090  178.6650  141.3960 C   0  0  0  0  0  1  0  0  0  0  0  0
  189.1720  177.5400  145.6850 C   0  0  0  0  0  2  0  0  0  0  0  0
  188.7540  175.3870  144.4230 C   0  0  2  0  0  3  0  0  0  0  0  0
  185.4720  176.7810  145.5960 C   0  0  0  0  0  2  0  0  0  0  0  0
  186.3170  177.5330  140.4400 C   0  0  0  0  0  3  0  0  0  0  0  0
  187.6810  177.8540  145.5540 C   0  0  2  0  0  3  0  0  0  0  0  0
  187.2910  178.6940  146.7690 C   0  0  0  0  0  2  0  0  0  0  0  0
  189.1270  174.5440  143.2050 C   0  0  0  0  0  2  0  0  0  0  0  0
  187.7700  176.1710  141.8270 C   0  0  0  0  0  0  0  0  0  0  0  0
  187.4410  176.7200  140.5830 C   0  0  0  0  0  3  0  0  0  0  0  0
  191.9420  177.5400  143.1230 O   0  0  0  0  0  0  0  0  0  0  0  0
  192.1330  176.7190  144.0620 C   0  0  0  0  0  0  0  0  0  0  0  0
  191.0300  176.2160  144.8170 N   0  0  0  0  0  2  0  0  0  0  0  0
  193.6980  173.4170  144.6030 C   0  0  1  0  0  3  0  0  0  0  0  0
  194.0380  175.2630  143.3360 C   0  0  0  0  0  2  0  0  0  0  0  0
  193.0070  176.4300  146.8870 C   0  0  0  0  0  1  0  0  0  0  0  0
  193.1850  171.9920  144.6030 C   0  0  0  0  0  1  0  0  0  0  0  0
  193.3300  174.0460  143.3990 O   0  0  0  0  0  0  0  0  0  0  0  0
  193.6420  175.5980  145.7850 C   0  0  2  0  0  3  0  0  0  0  0  0
  193.5210  176.2470  144.3950 C   0  0  2  0  0  3  0  0  0  0  0  0
  193.1000  174.1710  145.7910 C   0  0  0  0  0  2  0  0  0  0  0  0
  1  9  1  6  0  0  0
  2  3  1  6  0  0  0
  2 13  1  0  0  0  0
  2  5  1  0  0  0  0
  4  7  2  0  0  0  0
  5 16  1  0  0  0  0
  5 14  1  6  0  0  0
  6  1  1  0  0  0  0
  7  3  1  0  0  0  0
  8 23  1  1  0  0  0
  8 12  1  0  0  0  0
 10 18  1  0  0  0  0
 11  4  1  0  0  0  0
 13 18  1  6  0  0  0
 13  8  1  0  0  0  0
 14  1  1  0  0  0  0
 15 20  2  0  0  0  0
 15  4  1  0  0  0  0
 16 12  1  1  0  0  0
 16 17  1  0  0  0  0
 17  6  1  0  0  0  0
 19 10  1  0  0  0  0
 19  3  2  0  0  0  0
 20 19  1  0  0  0  0
 21 22  2  0  0  0  0
 22 23  1  0  0  0  0
 24 27  1  6  0  0  0
 24 31  1  0  0  0  0
 25 28  1  0  0  0  0
 25 30  1  0  0  0  0
 28 24  1  0  0  0  0
 29 31  1  0  0  0  0
 29 26  1  1  0  0  0
 30 22  1  6  0  0  0
 30 29  1  0  0  0  0
M  END
>  <MODEL>
8

>  <REMARK>
 VINA RESULT:      -7.8      2.303      7.824
  Name = 
  2 active torsions:
  status: ('A' for Active; 'I' for Inactive)
    1  A    between atoms: C_5  and  C_30
    2  A    between atoms: C_10  and  N_16
                            x       y       z     vdW  Elec       q    Type
                         _______ _______ _______ _____ _____    ______ ____

>  <TORSDO>
F 2

$$$$
=
 OpenBabel11112417043D

 31 35  0  0  1  0  0  0  0  0999 V2000
  194.4730  177.2320  145.0870 C   0  0  1  0  0  3  0  0  0  0  0  0
  191.4930  175.0850  144.2020 C   0  0  2  0  0  3  0  0  0  0  0  0
  191.9810  173.6310  144.2940 C   0  0  0  0  0  0  0  0  0  0  0  0
  193.8010  172.0090  144.3230 C   0  0  0  0  0  0  0  0  0  0  0  0
  192.2950  176.0880  144.9330 N   0  0  2  0  0  0  0  0  0  0  0  0
  194.5670  176.8550  146.5560 C   0  0  0  0  0  2  0  0  0  0  0  0
  193.3530  173.3300  144.3270 C   0  0  0  0  0  3  0  0  0  0  0  0
  189.9030  175.0190  146.1630 C   0  0  2  0  0  3  0  0  0  0  0  0
  195.7530  177.2760  144.5370 O   0  0  0  0  0  1  0  0  0  0  0  0
  189.5710  172.7760  144.2020 C   0  0  0  0  0  2  0  0  0  0  0  0
  195.2580  171.7190  144.3750 C   0  0  0  0  0  1  0  0  0  0  0  0
  190.8790  175.9200  146.9210 C   0  0  0  0  0  2  0  0  0  0  0  0
  190.0280  175.2170  144.6430 C   0  0  2  0  0  3  0  0  0  0  0  0
  193.6440  176.1840  144.3600 C   0  0  0  0  0  2  0  0  0  0  0  0
  192.8830  170.9620  144.2640 C   0  0  0  0  0  3  0  0  0  0  0  0
  192.3020  175.7890  146.3790 C   0  0  2  0  0  3  0  0  0  0  0  0
  193.1670  176.7910  147.1440 C   0  0  0  0  0  2  0  0  0  0  0  0
  189.1760  174.2140  143.8670 C   0  0  0  0  0  2  0  0  0  0  0  0
  191.0570  172.5590  144.2010 C   0  0  0  0  0  0  0  0  0  0  0  0
  191.5170  171.2380  144.2060 C   0  0  0  0  0  3  0  0  0  0  0  0
  188.5940  177.5420  145.9430 O   0  0  0  0  0  0  0  0  0  0  0  0
  187.9400  176.5870  146.4460 C   0  0  0  0  0  0  0  0  0  0  0  0
  188.5400  175.2990  146.5930 N   0  0  0  0  0  2  0  0  0  0  0  0
  185.0590  178.5560  145.2370 C   0  0  1  0  0  3  0  0  0  0  0  0
  185.5220  176.4160  145.8150 C   0  0  0  0  0  2  0  0  0  0  0  0
  187.2700  178.7460  148.3760 C   0  0  0  0  0  1  0  0  0  0  0  0
  184.8400  179.5080  144.0790 C   0  0  0  0  0  1  0  0  0  0  0  0
  185.5780  177.3410  144.7530 O   0  0  0  0  0  0  0  0  0  0  0  0
  186.2300  178.2210  147.3990 C   0  0  2  0  0  3  0  0  0  0  0  0
  186.5260  176.7910  146.9140 C   0  0  2  0  0  3  0  0  0  0  0  0
  186.0360  179.1840  146.2310 C   0  0  0  0  0  2  0  0  0  0  0  0
  1  9  1  6  0  0  0
  1  6  1  0  0  0  0
  2  3  1  1  0  0  0
  2 13  1  0  0  0  0
  2  5  1  0  0  0  0
  3  7  1  0  0  0  0
  4  7  2  0  0  0  0
  4 11  1  0  0  0  0
  5 14  1  6  0  0  0
  5 16  1  0  0  0  0
  6 17  1  0  0  0  0
  8 23  1  1  0  0  0
  8 12  1  0  0  0  0
 13 18  1  6  0  0  0
 13  8  1  0  0  0  0
 14  1  1  0  0  0  0
 15  4  1  0  0  0  0
 16 12  1  1  0  0  0
 16 17  1  0  0  0  0
 18 10  1  0  0  0  0
 19 10  1  0  0  0  0
 19 20  1  0  0  0  0
 19  3  2  0  0  0  0
 20 15  2  0  0  0  0
 21 22  2  0  0  0  0
 22 23  1  0  0  0  0
 24 27  1  6  0  0  0
 24 31  1  0  0  0  0
 25 30  1  0  0  0  0
 28 24  1  0  0  0  0
 28 25  1  0  0  0  0
 29 26  1  1  0  0  0
 30 22  1  6  0  0  0
 30 29  1  0  0  0  0
 31 29  1  0  0  0  0
M  END
>  <MODEL>
9

>  <REMARK>
 VINA RESULT:      -7.8      1.829      3.691
  Name = 
  2 active torsions:
  status: ('A' for Active; 'I' for Inactive)
    1  A    between atoms: C_5  and  C_30
    2  A    between atoms: C_10  and  N_16
                            x       y       z     vdW  Elec       q    Type
                         _______ _______ _______ _____ _____    ______ ____

>  <TORSDO>
F 2

$$$$
