=
 OpenBabel11112417403D

 28 32  0  0  1  0  0  0  0  0999 V2000
  191.8090  174.1660  143.3540 C   0  0  0  0  0  0  0  0  0  0  0  0
  189.1560  178.2560  142.0800 F   0  0  0  0  0  0  0  0  0  0  0  0
  191.9190  176.1310  147.4930 O   0  0  0  0  0  0  0  0  0  0  0  0
  190.0040  172.3810  144.5330 C   0  0  0  0  0  3  0  0  0  0  0  0
  189.8020  176.9130  146.6490 C   0  0  2  0  0  3  0  0  0  0  0  0
  192.7130  175.0850  142.8180 O   0  0  0  0  0  0  0  0  0  0  0  0
  188.0890  176.6080  140.9840 F   0  0  0  0  0  0  0  0  0  0  0  0
  188.2030  177.2540  142.2000 C   0  0  0  0  0  0  0  0  0  0  0  0
  186.9360  178.4200  143.9670 C   0  0  1  0  0  3  0  0  0  0  0  0
  188.5970  176.2220  143.2800 C   0  0  2  0  0  3  0  0  0  0  0  0
  193.9360  174.7190  145.7860 C   0  0  0  0  0  1  0  0  0  0  0  0
  190.6380  177.0650  144.3360 C   0  0  1  0  0  3  0  0  0  0  0  0
  187.0200  177.3400  144.8640 O   0  0  0  0  0  0  0  0  0  0  0  0
  186.8700  177.9000  142.5390 C   0  0  0  0  0  2  0  0  0  0  0  0
  194.0570  175.8010  144.7270 C   0  0  2  0  0  3  0  0  0  0  0  0
  190.4980  174.5840  143.6230 C   0  0  0  0  0  0  0  0  0  0  0  0
  191.2130  176.4950  146.5160 C   0  0  0  0  0  0  0  0  0  0  0  0
  185.6890  179.2260  144.2670 C   0  0  0  0  0  1  0  0  0  0  0  0
  193.1030  176.9880  144.9430 C   0  0  0  0  0  2  0  0  0  0  0  0
  189.6030  173.6840  144.2290 C   0  0  0  0  0  3  0  0  0  0  0  0
  192.2100  172.8580  143.6620 C   0  0  0  0  0  3  0  0  0  0  0  0
  191.3060  171.9670  144.2470 C   0  0  0  0  0  3  0  0  0  0  0  0
  194.0390  175.2240  143.3090 C   0  0  0  0  0  2  0  0  0  0  0  0
  189.4590  177.4320  145.2550 C   0  0  1  0  0  3  0  0  0  0  0  0
  191.7170  176.5850  145.1930 N   0  0  0  0  0  0  0  0  0  0  0  0
  188.2600  176.6760  144.7060 C   0  0  2  0  0  3  0  0  0  0  0  0
  189.7010  177.9580  147.5670 O   0  0  0  0  0  1  0  0  0  0  0  0
  190.1100  176.0190  143.3230 C   0  0  1  0  0  3  0  0  0  0  0  0
  1 16  2  0  0  0  0
  1 21  1  0  0  0  0
  2  8  1  0  0  0  0
  5 27  1  1  0  0  0
  6 23  1  0  0  0  0
  6  1  1  0  0  0  0
  7  8  1  0  0  0  0
  8 14  1  0  0  0  0
  9 18  1  1  0  0  0
  9 13  1  0  0  0  0
 10  8  1  6  0  0  0
 10 28  1  0  0  0  0
 10 26  1  0  0  0  0
 12 25  1  1  0  0  0
 12 24  1  0  0  0  0
 14  9  1  0  0  0  0
 15 19  1  0  0  0  0
 15 11  1  1  0  0  0
 16 20  1  0  0  0  0
 17  5  1  0  0  0  0
 17  3  2  0  0  0  0
 19 25  1  0  0  0  0
 20  4  2  0  0  0  0
 21 22  2  0  0  0  0
 22  4  1  0  0  0  0
 23 15  1  0  0  0  0
 24  5  1  0  0  0  0
 25 17  1  0  0  0  0
 26 13  1  0  0  0  0
 26 24  1  0  0  0  0
 28 16  1  0  0  0  0
 28 12  1  0  0  0  0
M  END
>  <MODEL>
1

>  <REMARK>
 VINA RESULT:      -8.4      0.000      0.000
  Name = 
  0 active torsions:
  status: ('A' for Active; 'I' for Inactive)
                            x       y       z     vdW  Elec       q    Type
                         _______ _______ _______ _____ _____    ______ ____

>  <TORSDO>
F 0

$$$$
=
 OpenBabel11112417403D

 28 32  0  0  1  0  0  0  0  0999 V2000
  190.7190  174.8160  142.3860 C   0  0  0  0  0  0  0  0  0  0  0  0
  187.8640  178.9480  141.9880 F   0  0  0  0  0  0  0  0  0  0  0  0
  189.9060  175.2840  146.8720 O   0  0  0  0  0  0  0  0  0  0  0  0
  188.9600  172.6450  142.5550 C   0  0  0  0  0  3  0  0  0  0  0  0
  187.8850  176.1900  145.9230 C   0  0  2  0  0  3  0  0  0  0  0  0
  191.5870  175.9080  142.3590 O   0  0  0  0  0  0  0  0  0  0  0  0
  187.1930  177.7090  140.2370 F   0  0  0  0  0  0  0  0  0  0  0  0
  187.0260  177.9160  141.5920 C   0  0  0  0  0  0  0  0  0  0  0  0
  185.3550  178.3530  143.3550 C   0  0  1  0  0  3  0  0  0  0  0  0
  187.3490  176.6040  142.3420 C   0  0  2  0  0  3  0  0  0  0  0  0
  192.3290  174.6350  145.2340 C   0  0  0  0  0  1  0  0  0  0  0  0
  189.0740  177.1520  143.9910 C   0  0  1  0  0  3  0  0  0  0  0  0
  185.4110  177.0410  143.8580 O   0  0  0  0  0  0  0  0  0  0  0  0
  185.5900  178.3390  141.8510 C   0  0  0  0  0  2  0  0  0  0  0  0
  192.5010  176.0140  144.6220 C   0  0  2  0  0  3  0  0  0  0  0  0
  189.3420  175.0490  142.5110 C   0  0  0  0  0  0  0  0  0  0  0  0
  189.3370  175.9160  145.9430 C   0  0  0  0  0  0  0  0  0  0  0  0
  183.9910  178.9450  143.6440 C   0  0  0  0  0  1  0  0  0  0  0  0
  191.3940  177.0070  145.0130 C   0  0  0  0  0  2  0  0  0  0  0  0
  188.4680  173.9520  142.6110 C   0  0  0  0  0  3  0  0  0  0  0  0
  191.2100  173.5030  142.3330 C   0  0  0  0  0  3  0  0  0  0  0  0
  190.3300  172.4210  142.4130 C   0  0  0  0  0  3  0  0  0  0  0  0
  192.7880  175.9450  143.1190 C   0  0  0  0  0  2  0  0  0  0  0  0
  187.7230  177.1260  144.7290 C   0  0  1  0  0  3  0  0  0  0  0  0
  190.0410  176.4710  144.8450 N   0  0  0  0  0  0  0  0  0  0  0  0
  186.7280  176.5350  143.7430 C   0  0  2  0  0  3  0  0  0  0  0  0
  187.5120  176.8600  147.0880 O   0  0  0  0  0  1  0  0  0  0  0  0
  188.8470  176.4790  142.6140 C   0  0  1  0  0  3  0  0  0  0  0  0
  1 16  1  0  0  0  0
  4 20  1  0  0  0  0
  5 17  1  0  0  0  0
  5 27  1  1  0  0  0
  6  1  1  0  0  0  0
  6 23  1  0  0  0  0
  7  8  1  0  0  0  0
  8 14  1  0  0  0  0
  8  2  1  0  0  0  0
  9 18  1  6  0  0  0
  9 13  1  0  0  0  0
 10  8  1  1  0  0  0
 10 28  1  0  0  0  0
 10 26  1  0  0  0  0
 12 24  1  0  0  0  0
 12 25  1  1  0  0  0
 14  9  1  0  0  0  0
 15 19  1  0  0  0  0
 15 11  1  6  0  0  0
 16 20  2  0  0  0  0
 16 28  1  0  0  0  0
 17  3  2  0  0  0  0
 21  1  2  0  0  0  0
 21 22  1  0  0  0  0
 22  4  2  0  0  0  0
 23 15  1  0  0  0  0
 24  5  1  0  0  0  0
 25 19  1  0  0  0  0
 25 17  1  0  0  0  0
 26 13  1  0  0  0  0
 26 24  1  0  0  0  0
 28 12  1  0  0  0  0
M  END
>  <MODEL>
2

>  <REMARK>
 VINA RESULT:      -8.2      1.588      1.805
  Name = 
  0 active torsions:
  status: ('A' for Active; 'I' for Inactive)
                            x       y       z     vdW  Elec       q    Type
                         _______ _______ _______ _____ _____    ______ ____

>  <TORSDO>
F 0

$$$$
=
 OpenBabel11112417403D

 28 32  0  0  1  0  0  0  0  0999 V2000
  189.1580  176.9910  145.2480 C   0  0  0  0  0  0  0  0  0  0  0  0
  194.1280  176.6650  144.4870 F   0  0  0  0  0  0  0  0  0  0  0  0
  189.0170  173.1690  142.7230 O   0  0  0  0  0  0  0  0  0  0  0  0
  188.5660  175.2910  147.3910 C   0  0  0  0  0  3  0  0  0  0  0  0
  191.1590  172.9490  143.8050 C   0  0  2  0  0  3  0  0  0  0  0  0
  189.4520  177.7930  144.1440 O   0  0  0  0  0  0  0  0  0  0  0  0
  193.9940  177.3160  146.6350 F   0  0  0  0  0  0  0  0  0  0  0  0
  193.9520  176.2240  145.7900 C   0  0  0  0  0  0  0  0  0  0  0  0
  194.9230  173.9960  145.3580 C   0  0  1  0  0  3  0  0  0  0  0  0
  192.5960  175.5050  145.9680 C   0  0  2  0  0  3  0  0  0  0  0  0
  187.3950  175.6870  142.8120 C   0  0  0  0  0  1  0  0  0  0  0  0
  191.5800  175.3760  143.7450 C   0  0  1  0  0  3  0  0  0  0  0  0
  193.7860  173.3120  145.8240 O   0  0  0  0  0  0  0  0  0  0  0  0
  195.1010  175.2910  146.1380 C   0  0  0  0  0  2  0  0  0  0  0  0
  188.4670  176.6050  142.2500 C   0  0  2  0  0  3  0  0  0  0  0  0
  190.1550  176.1490  145.7590 C   0  0  0  0  0  0  0  0  0  0  0  0
  190.0520  173.7130  143.1930 C   0  0  0  0  0  0  0  0  0  0  0  0
  196.1460  173.1240  145.5470 C   0  0  0  0  0  1  0  0  0  0  0  0
  189.8130  175.9050  141.9990 C   0  0  0  0  0  2  0  0  0  0  0  0
  189.8440  175.2870  146.8250 C   0  0  0  0  0  3  0  0  0  0  0  0
  187.8750  176.9910  145.8160 C   0  0  0  0  0  3  0  0  0  0  0  0
  187.5830  176.1440  146.8880 C   0  0  0  0  0  3  0  0  0  0  0  0
  188.5710  177.9160  143.0360 C   0  0  0  0  0  2  0  0  0  0  0  0
  192.2300  174.0110  144.0340 C   0  0  1  0  0  3  0  0  0  0  0  0
  190.2800  175.1110  143.1390 N   0  0  0  0  0  0  0  0  0  0  0  0
  192.6170  174.0440  145.5040 C   0  0  2  0  0  3  0  0  0  0  0  0
  191.6370  171.9990  142.9020 O   0  0  0  0  0  1  0  0  0  0  0  0
  191.5170  176.1380  145.0920 C   0  0  1  0  0  3  0  0  0  0  0  0
  1 16  2  0  0  0  0
  1 21  1  0  0  0  0
  2  8  1  0  0  0  0
  3 17  2  0  0  0  0
  5 27  1  6  0  0  0
  5 24  1  0  0  0  0
  6  1  1  0  0  0  0
  8 14  1  0  0  0  0
  8  7  1  0  0  0  0
  9 18  1  1  0  0  0
  9 13  1  0  0  0  0
  9 14  1  0  0  0  0
 10  8  1  6  0  0  0
 12 25  1  1  0  0  0
 12 24  1  0  0  0  0
 12 28  1  0  0  0  0
 15 11  1  1  0  0  0
 15 23  1  0  0  0  0
 16 20  1  0  0  0  0
 17  5  1  0  0  0  0
 19 15  1  0  0  0  0
 19 25  1  0  0  0  0
 20  4  2  0  0  0  0
 21 22  2  0  0  0  0
 22  4  1  0  0  0  0
 23  6  1  0  0  0  0
 24 26  1  0  0  0  0
 25 17  1  0  0  0  0
 26 13  1  0  0  0  0
 26 10  1  0  0  0  0
 28 16  1  0  0  0  0
 28 10  1  0  0  0  0
M  END
>  <MODEL>
3

>  <REMARK>
 VINA RESULT:      -8.1      2.539      6.175
  Name = 
  0 active torsions:
  status: ('A' for Active; 'I' for Inactive)
                            x       y       z     vdW  Elec       q    Type
                         _______ _______ _______ _____ _____    ______ ____

>  <TORSDO>
F 0

$$$$
=
 OpenBabel11112417403D

 28 32  0  0  1  0  0  0  0  0999 V2000
  190.2580  175.5360  144.2200 C   0  0  0  0  0  0  0  0  0  0  0  0
  185.5840  176.0880  146.0210 F   0  0  0  0  0  0  0  0  0  0  0  0
  188.1910  175.8260  140.1400 O   0  0  0  0  0  0  0  0  0  0  0  0
  191.1970  178.1080  143.6400 C   0  0  0  0  0  3  0  0  0  0  0  0
  186.7620  177.2100  141.4990 C   0  0  2  0  0  3  0  0  0  0  0  0
  189.7610  174.2540  144.4590 O   0  0  0  0  0  0  0  0  0  0  0  0
  186.8110  177.3470  147.4240 F   0  0  0  0  0  0  0  0  0  0  0  0
  186.1690  177.3340  146.2000 C   0  0  0  0  0  0  0  0  0  0  0  0
  184.5120  178.5140  144.8030 C   0  0  1  0  0  3  0  0  0  0  0  0
  187.1990  177.6430  145.0910 C   0  0  2  0  0  3  0  0  0  0  0  0
  190.3420  174.0810  141.2850 C   0  0  0  0  0  1  0  0  0  0  0  0
  187.0740  175.7940  143.4910 C   0  0  1  0  0  3  0  0  0  0  0  0
  185.4890  179.0680  143.9560 O   0  0  0  0  0  0  0  0  0  0  0  0
  185.0680  178.3810  146.2130 C   0  0  0  0  0  2  0  0  0  0  0  0
  189.4470  173.3000  142.2320 C   0  0  2  0  0  3  0  0  0  0  0  0
  189.3820  176.6280  144.3030 C   0  0  0  0  0  0  0  0  0  0  0  0
  187.6650  176.0650  141.2590 C   0  0  0  0  0  0  0  0  0  0  0  0
  183.2960  179.4160  144.8250 C   0  0  0  0  0  1  0  0  0  0  0  0
  187.9860  173.7800  142.2410 C   0  0  0  0  0  2  0  0  0  0  0  0
  189.8600  177.9140  143.9950 C   0  0  0  0  0  3  0  0  0  0  0  0
  191.5990  175.7330  143.8620 C   0  0  0  0  0  3  0  0  0  0  0  0
  192.0680  177.0180  143.5770 C   0  0  0  0  0  3  0  0  0  0  0  0
  190.0730  173.1480  143.6210 C   0  0  0  0  0  2  0  0  0  0  0  0
  186.2490  176.9590  142.9140 C   0  0  1  0  0  3  0  0  0  0  0  0
  187.8490  175.2310  142.3910 N   0  0  0  0  0  0  0  0  0  0  0  0
  186.5610  178.1580  143.7950 C   0  0  2  0  0  3  0  0  0  0  0  0
  185.6920  177.1660  140.6060 O   0  0  0  0  0  1  0  0  0  0  0  0
  187.9270  176.3750  144.6460 C   0  0  1  0  0  3  0  0  0  0  0  0
  1 16  1  0  0  0  0
  1  6  1  0  0  0  0
  2  8  1  0  0  0  0
  3 17  2  0  0  0  0
  4 20  1  0  0  0  0
  5 27  1  6  0  0  0
  5 24  1  0  0  0  0
  8 14  1  0  0  0  0
  8  7  1  0  0  0  0
  9 18  1  1  0  0  0
  9 14  1  0  0  0  0
 10  8  1  1  0  0  0
 12 25  1  6  0  0  0
 12 28  1  0  0  0  0
 13  9  1  0  0  0  0
 15 11  1  6  0  0  0
 15 19  1  0  0  0  0
 15 23  1  0  0  0  0
 16 28  1  0  0  0  0
 17  5  1  0  0  0  0
 17 25  1  0  0  0  0
 19 25  1  0  0  0  0
 20 16  2  0  0  0  0
 21  1  2  0  0  0  0
 22  4  2  0  0  0  0
 22 21  1  0  0  0  0
 23  6  1  0  0  0  0
 24 12  1  0  0  0  0
 24 26  1  0  0  0  0
 26 13  1  0  0  0  0
 26 10  1  0  0  0  0
 28 10  1  0  0  0  0
M  END
>  <MODEL>
4

>  <REMARK>
 VINA RESULT:      -8.0      2.769      4.855
  Name = 
  0 active torsions:
  status: ('A' for Active; 'I' for Inactive)
                            x       y       z     vdW  Elec       q    Type
                         _______ _______ _______ _____ _____    ______ ____

>  <TORSDO>
F 0

$$$$
=
 OpenBabel11112417403D

 28 32  0  0  1  0  0  0  0  0999 V2000
  190.3170  176.3210  145.0740 C   0  0  0  0  0  0  0  0  0  0  0  0
  185.3740  176.7720  144.2120 F   0  0  0  0  0  0  0  0  0  0  0  0
  190.2680  173.8630  141.2070 O   0  0  0  0  0  0  0  0  0  0  0  0
  191.5790  178.2730  143.5150 C   0  0  0  0  0  3  0  0  0  0  0  0
  188.4810  175.4270  140.8020 C   0  0  2  0  0  3  0  0  0  0  0  0
  189.6850  175.3140  145.8050 O   0  0  0  0  0  0  0  0  0  0  0  0
  185.9400  178.8210  144.9420 F   0  0  0  0  0  0  0  0  0  0  0  0
  185.8990  177.9980  143.8330 C   0  0  0  0  0  0  0  0  0  0  0  0
  185.1010  177.8260  141.5040 C   0  0  1  0  0  3  0  0  0  0  0  0
  187.3280  177.8530  143.2640 C   0  0  2  0  0  3  0  0  0  0  0  0
  191.5830  173.5440  143.8810 C   0  0  0  0  0  1  0  0  0  0  0  0
  187.7970  175.4520  143.1690 C   0  0  1  0  0  3  0  0  0  0  0  0
  186.3830  178.0120  140.9570 O   0  0  0  0  0  0  0  0  0  0  0  0
  184.9740  178.6170  142.7980 C   0  0  0  0  0  2  0  0  0  0  0  0
  190.3160  173.2480  144.6650 C   0  0  2  0  0  3  0  0  0  0  0  0
  189.5660  177.0620  144.1500 C   0  0  0  0  0  0  0  0  0  0  0  0
  189.3220  174.5620  141.6560 C   0  0  0  0  0  0  0  0  0  0  0  0
  184.0590  178.3080  140.5170 C   0  0  0  0  0  1  0  0  0  0  0  0
  189.0330  173.3310  143.8210 C   0  0  0  0  0  2  0  0  0  0  0  0
  190.2120  178.0290  143.3610 C   0  0  0  0  0  3  0  0  0  0  0  0
  191.6900  176.5660  145.2250 C   0  0  0  0  0  3  0  0  0  0  0  0
  192.3170  177.5430  144.4490 C   0  0  0  0  0  3  0  0  0  0  0  0
  190.2600  174.0260  145.9820 C   0  0  0  0  0  2  0  0  0  0  0  0
  187.3850  175.8970  141.7540 C   0  0  1  0  0  3  0  0  0  0  0  0
  188.9380  174.5540  143.0210 N   0  0  0  0  0  0  0  0  0  0  0  0
  187.3570  177.4170  141.7950 C   0  0  2  0  0  3  0  0  0  0  0  0
  187.9090  174.6700  139.7790 O   0  0  0  0  0  1  0  0  0  0  0  0
  188.0940  176.7390  143.9770 C   0  0  1  0  0  3  0  0  0  0  0  0
  1 21  1  0  0  0  0
  1  6  1  0  0  0  0
  3 17  2  0  0  0  0
  4 22  1  0  0  0  0
  5 27  1  6  0  0  0
  5 17  1  0  0  0  0
  5 24  1  0  0  0  0
  6 23  1  0  0  0  0
  8  2  1  0  0  0  0
  8  7  1  0  0  0  0
  9 18  1  6  0  0  0
  9 14  1  0  0  0  0
 10  8  1  1  0  0  0
 10 28  1  0  0  0  0
 12 25  1  6  0  0  0
 12 28  1  0  0  0  0
 13  9  1  0  0  0  0
 13 26  1  0  0  0  0
 14  8  1  0  0  0  0
 15 11  1  6  0  0  0
 15 23  1  0  0  0  0
 16  1  2  0  0  0  0
 17 25  1  0  0  0  0
 19 15  1  0  0  0  0
 20  4  2  0  0  0  0
 20 16  1  0  0  0  0
 22 21  2  0  0  0  0
 24 26  1  0  0  0  0
 24 12  1  0  0  0  0
 25 19  1  0  0  0  0
 26 10  1  0  0  0  0
 28 16  1  0  0  0  0
M  END
>  <MODEL>
5

>  <REMARK>
 VINA RESULT:      -7.8      2.495      4.580
  Name = 
  0 active torsions:
  status: ('A' for Active; 'I' for Inactive)
                            x       y       z     vdW  Elec       q    Type
                         _______ _______ _______ _____ _____    ______ ____

>  <TORSDO>
F 0

$$$$
=
 OpenBabel11112417403D

 28 32  0  0  1  0  0  0  0  0999 V2000
  190.7200  177.2470  144.6800 C   0  0  0  0  0  0  0  0  0  0  0  0
  195.2000  175.7220  142.9500 F   0  0  0  0  0  0  0  0  0  0  0  0
  189.5380  172.8640  144.0530 O   0  0  0  0  0  0  0  0  0  0  0  0
  190.6580  176.6070  147.4040 C   0  0  0  0  0  3  0  0  0  0  0  0
  191.8800  172.6560  144.5820 C   0  0  2  0  0  3  0  0  0  0  0  0
  190.7360  177.5110  143.3090 O   0  0  0  0  0  0  0  0  0  0  0  0
  195.7600  177.1350  144.6060 F   0  0  0  0  0  0  0  0  0  0  0  0
  195.3840  175.8370  144.3200 C   0  0  0  0  0  0  0  0  0  0  0  0
  196.0050  173.4670  144.6170 C   0  0  1  0  0  3  0  0  0  0  0  0
  194.0890  175.5070  145.0960 C   0  0  2  0  0  3  0  0  0  0  0  0
  188.2180  175.4940  143.4920 C   0  0  0  0  0  1  0  0  0  0  0  0
  192.4530  174.7600  143.4350 C   0  0  1  0  0  3  0  0  0  0  0  0
  195.0060  173.2330  145.5800 O   0  0  0  0  0  0  0  0  0  0  0  0
  196.5070  174.8990  144.7320 C   0  0  0  0  0  2  0  0  0  0  0  0
  189.1440  175.9170  142.3640 C   0  0  2  0  0  3  0  0  0  0  0  0
  191.7550  176.4800  145.2340 C   0  0  0  0  0  0  0  0  0  0  0  0
  190.7040  173.3350  143.9960 C   0  0  0  0  0  0  0  0  0  0  0  0
  197.1560  172.5110  144.8460 C   0  0  0  0  0  1  0  0  0  0  0  0
  190.2960  174.9310  142.1060 C   0  0  0  0  0  2  0  0  0  0  0  0
  191.7070  176.1510  146.6000 C   0  0  0  0  0  3  0  0  0  0  0  0
  189.6670  177.7010  145.4880 C   0  0  0  0  0  3  0  0  0  0  0  0
  189.6400  177.3840  146.8480 C   0  0  0  0  0  3  0  0  0  0  0  0
  189.5790  177.3800  142.4950 C   0  0  0  0  0  2  0  0  0  0  0  0
  193.0510  173.5030  144.0920 C   0  0  1  0  0  3  0  0  0  0  0  0
  191.0150  174.5430  143.3220 N   0  0  0  0  0  0  0  0  0  0  0  0
  193.8560  174.0030  145.2800 C   0  0  2  0  0  3  0  0  0  0  0  0
  191.9920  171.3670  144.0600 O   0  0  0  0  0  1  0  0  0  0  0  0
  192.8530  175.9640  144.3240 C   0  0  1  0  0  3  0  0  0  0  0  0
  1 16  2  0  0  0  0
  1 21  1  0  0  0  0
  2  8  1  0  0  0  0
  5 27  1  6  0  0  0
  6  1  1  0  0  0  0
  8  7  1  0  0  0  0
  8 14  1  0  0  0  0
  9 14  1  0  0  0  0
  9 18  1  1  0  0  0
  9 13  1  0  0  0  0
 10  8  1  6  0  0  0
 10 26  1  0  0  0  0
 12 25  1  1  0  0  0
 12 24  1  0  0  0  0
 12 28  1  0  0  0  0
 15 23  1  0  0  0  0
 15 11  1  1  0  0  0
 16 20  1  0  0  0  0
 17  3  2  0  0  0  0
 17  5  1  0  0  0  0
 19 15  1  0  0  0  0
 19 25  1  0  0  0  0
 20  4  2  0  0  0  0
 21 22  2  0  0  0  0
 22  4  1  0  0  0  0
 23  6  1  0  0  0  0
 24  5  1  0  0  0  0
 24 26  1  0  0  0  0
 25 17  1  0  0  0  0
 26 13  1  0  0  0  0
 28 10  1  0  0  0  0
 28 16  1  0  0  0  0
M  END
>  <MODEL>
6

>  <REMARK>
 VINA RESULT:      -7.5      2.880      6.452
  Name = 
  0 active torsions:
  status: ('A' for Active; 'I' for Inactive)
                            x       y       z     vdW  Elec       q    Type
                         _______ _______ _______ _____ _____    ______ ____

>  <TORSDO>
F 0

$$$$
=
 OpenBabel11112417403D

 28 32  0  0  1  0  0  0  0  0999 V2000
  196.1580  174.6220  145.0910 C   0  0  0  0  0  0  0  0  0  0  0  0
  191.9990  175.0330  147.9050 F   0  0  0  0  0  0  0  0  0  0  0  0
  193.6180  171.6980  142.6410 O   0  0  0  0  0  0  0  0  0  0  0  0
  195.8180  176.3430  142.9100 C   0  0  0  0  0  3  0  0  0  0  0  0
  191.9400  173.2250  143.4540 C   0  0  2  0  0  3  0  0  0  0  0  0
  196.2950  173.7240  146.1500 O   0  0  0  0  0  0  0  0  0  0  0  0
  192.7530  177.1490  147.8190 F   0  0  0  0  0  0  0  0  0  0  0  0
  192.0150  176.1940  147.1470 C   0  0  0  0  0  0  0  0  0  0  0  0
  189.8350  175.7430  146.0810 C   0  0  1  0  0  3  0  0  0  0  0  0
  192.6480  175.9570  145.7580 C   0  0  2  0  0  3  0  0  0  0  0  0
  196.4440  171.6980  143.6370 C   0  0  0  0  0  1  0  0  0  0  0  0
  193.1020  173.5570  145.6010 C   0  0  1  0  0  3  0  0  0  0  0  0
  190.3520  175.8390  144.7760 O   0  0  0  0  0  0  0  0  0  0  0  0
  190.5850  176.6910  147.0040 C   0  0  0  0  0  2  0  0  0  0  0  0
  196.1110  171.5220  145.1090 C   0  0  2  0  0  3  0  0  0  0  0  0
  194.9210  175.2510  144.8920 C   0  0  0  0  0  0  0  0  0  0  0  0
  193.2020  172.4620  143.5520 C   0  0  0  0  0  0  0  0  0  0  0  0
  188.3670  176.1120  146.0670 C   0  0  0  0  0  1  0  0  0  0  0  0
  194.6020  171.5170  145.4050 C   0  0  0  0  0  2  0  0  0  0  0  0
  194.7560  176.1020  143.7850 C   0  0  0  0  0  3  0  0  0  0  0  0
  197.2230  174.8630  144.2100 C   0  0  0  0  0  3  0  0  0  0  0  0
  197.0520  175.7260  143.1240 C   0  0  0  0  0  3  0  0  0  0  0  0
  196.9290  172.4600  146.0000 C   0  0  0  0  0  2  0  0  0  0  0  0
  191.7870  173.8270  144.8470 C   0  0  1  0  0  3  0  0  0  0  0  0
  193.8810  172.6310  144.7860 N   0  0  0  0  0  0  0  0  0  0  0  0
  191.6770  175.3400  144.7440 C   0  0  2  0  0  3  0  0  0  0  0  0
  190.8780  172.3540  143.2090 O   0  0  0  0  0  1  0  0  0  0  0  0
  193.7770  174.9310  145.8350 C   0  0  1  0  0  3  0  0  0  0  0  0
  1  6  1  0  0  0  0
  3 17  2  0  0  0  0
  4 22  2  0  0  0  0
  4 20  1  0  0  0  0
  5 27  1  1  0  0  0
  5 17  1  0  0  0  0
  5 24  1  0  0  0  0
  8  7  1  0  0  0  0
  8  2  1  0  0  0  0
  9 18  1  6  0  0  0
  9 14  1  0  0  0  0
 10 28  1  0  0  0  0
 10  8  1  1  0  0  0
 12 25  1  6  0  0  0
 12 28  1  0  0  0  0
 13  9  1  0  0  0  0
 14  8  1  0  0  0  0
 15 11  1  6  0  0  0
 15 19  1  0  0  0  0
 15 23  1  0  0  0  0
 16  1  1  0  0  0  0
 16 28  1  0  0  0  0
 17 25  1  0  0  0  0
 20 16  2  0  0  0  0
 21  1  2  0  0  0  0
 22 21  1  0  0  0  0
 23  6  1  0  0  0  0
 24 12  1  0  0  0  0
 25 19  1  0  0  0  0
 26 13  1  0  0  0  0
 26 24  1  0  0  0  0
 26 10  1  0  0  0  0
M  END
>  <MODEL>
7

>  <REMARK>
 VINA RESULT:      -7.5      3.227      5.516
  Name = 
  0 active torsions:
  status: ('A' for Active; 'I' for Inactive)
                            x       y       z     vdW  Elec       q    Type
                         _______ _______ _______ _____ _____    ______ ____

>  <TORSDO>
F 0

$$$$
=
 OpenBabel11112417403D

 28 32  0  0  1  0  0  0  0  0999 V2000
  192.5460  173.8600  144.1480 C   0  0  0  0  0  0  0  0  0  0  0  0
  188.4610  175.1650  146.7910 F   0  0  0  0  0  0  0  0  0  0  0  0
  189.6770  174.0050  140.5770 O   0  0  0  0  0  0  0  0  0  0  0  0
  193.5910  176.2250  143.0760 C   0  0  0  0  0  3  0  0  0  0  0  0
  188.7270  175.6830  142.0220 C   0  0  2  0  0  3  0  0  0  0  0  0
  191.9870  172.6790  144.6380 O   0  0  0  0  0  0  0  0  0  0  0  0
  190.0850  176.3910  147.7470 F   0  0  0  0  0  0  0  0  0  0  0  0
  189.1930  176.3390  146.6930 C   0  0  0  0  0  0  0  0  0  0  0  0
  187.3980  177.5740  145.5340 C   0  0  1  0  0  3  0  0  0  0  0  0
  189.9810  176.4070  145.3660 C   0  0  2  0  0  3  0  0  0  0  0  0
  191.8390  172.1260  141.4580 C   0  0  0  0  0  1  0  0  0  0  0  0
  189.3230  174.4400  144.0640 C   0  0  1  0  0  3  0  0  0  0  0  0
  188.2160  177.9160  144.4420 O   0  0  0  0  0  0  0  0  0  0  0  0
  188.2330  177.5120  146.8040 C   0  0  0  0  0  2  0  0  0  0  0  0
  191.0990  171.5590  142.6580 C   0  0  2  0  0  3  0  0  0  0  0  0
  191.8250  175.0560  144.2750 C   0  0  0  0  0  0  0  0  0  0  0  0
  189.4360  174.4160  141.7420 C   0  0  0  0  0  0  0  0  0  0  0  0
  186.3130  178.6180  145.6950 C   0  0  0  0  0  1  0  0  0  0  0  0
  189.7310  172.2160  142.9090 C   0  0  0  0  0  2  0  0  0  0  0  0
  192.3510  176.2350  143.7200 C   0  0  0  0  0  3  0  0  0  0  0  0
  193.7900  173.8520  143.4990 C   0  0  0  0  0  3  0  0  0  0  0  0
  194.3120  175.0350  142.9680 C   0  0  0  0  0  3  0  0  0  0  0  0
  191.9950  171.4670  143.8960 C   0  0  0  0  0  2  0  0  0  0  0  0
  188.5140  175.6370  143.5320 C   0  0  1  0  0  3  0  0  0  0  0  0
  189.7770  173.6810  142.9050 N   0  0  0  0  0  0  0  0  0  0  0  0
  189.1300  176.8680  144.1760 C   0  0  2  0  0  3  0  0  0  0  0  0
  187.4880  175.6850  141.3810 O   0  0  0  0  0  1  0  0  0  0  0  0
  190.4620  175.0210  144.9390 C   0  0  1  0  0  3  0  0  0  0  0  0
  1 16  1  0  0  0  0
  1  6  1  0  0  0  0
  3 17  2  0  0  0  0
  4 20  1  0  0  0  0
  5 27  1  6  0  0  0
  5 24  1  0  0  0  0
  8  2  1  0  0  0  0
  8 14  1  0  0  0  0
  8  7  1  0  0  0  0
  9 18  1  1  0  0  0
  9 14  1  0  0  0  0
 10  8  1  1  0  0  0
 12 25  1  6  0  0  0
 12 28  1  0  0  0  0
 13  9  1  0  0  0  0
 15 11  1  6  0  0  0
 15 19  1  0  0  0  0
 15 23  1  0  0  0  0
 16 28  1  0  0  0  0
 17  5  1  0  0  0  0
 17 25  1  0  0  0  0
 20 16  2  0  0  0  0
 21  1  2  0  0  0  0
 22  4  2  0  0  0  0
 22 21  1  0  0  0  0
 23  6  1  0  0  0  0
 24 12  1  0  0  0  0
 24 26  1  0  0  0  0
 25 19  1  0  0  0  0
 26 13  1  0  0  0  0
 26 10  1  0  0  0  0
 28 10  1  0  0  0  0
M  END
>  <MODEL>
8

>  <REMARK>
 VINA RESULT:      -7.4      2.517      4.373
  Name = 
  0 active torsions:
  status: ('A' for Active; 'I' for Inactive)
                            x       y       z     vdW  Elec       q    Type
                         _______ _______ _______ _____ _____    ______ ____

>  <TORSDO>
F 0

$$$$
=
 OpenBabel11112417403D

 28 32  0  0  1  0  0  0  0  0999 V2000
  194.3460  174.0430  145.3970 C   0  0  0  0  0  0  0  0  0  0  0  0
  189.7370  174.9490  147.2210 F   0  0  0  0  0  0  0  0  0  0  0  0
  192.1110  173.3310  141.4590 O   0  0  0  0  0  0  0  0  0  0  0  0
  195.2030  176.4150  144.1840 C   0  0  0  0  0  3  0  0  0  0  0  0
  190.7060  174.9810  142.5150 C   0  0  2  0  0  3  0  0  0  0  0  0
  193.8880  172.8480  145.9530 O   0  0  0  0  0  0  0  0  0  0  0  0
  190.9900  176.5190  148.2300 F   0  0  0  0  0  0  0  0  0  0  0  0
  190.3000  176.2090  147.0750 C   0  0  0  0  0  0  0  0  0  0  0  0
  188.5620  177.0030  145.5120 C   0  0  1  0  0  3  0  0  0  0  0  0
  191.2770  176.2580  145.8790 C   0  0  2  0  0  3  0  0  0  0  0  0
  194.3440  171.9350  142.8880 C   0  0  0  0  0  1  0  0  0  0  0  0
  191.1300  174.0810  144.7690 C   0  0  1  0  0  3  0  0  0  0  0  0
  189.4910  177.3520  144.5160 O   0  0  0  0  0  0  0  0  0  0  0  0
  189.1770  177.2160  146.8880 C   0  0  0  0  0  2  0  0  0  0  0  0
  193.5060  171.3890  144.0310 C   0  0  2  0  0  3  0  0  0  0  0  0
  193.4490  175.1130  145.2570 C   0  0  0  0  0  0  0  0  0  0  0  0
  191.6250  173.8220  142.5120 C   0  0  0  0  0  0  0  0  0  0  0  0
  187.3280  177.8690  145.3740 C   0  0  0  0  0  1  0  0  0  0  0  0
  192.0360  171.8400  143.9910 C   0  0  0  0  0  2  0  0  0  0  0  0
  193.8850  176.2940  144.6330 C   0  0  0  0  0  3  0  0  0  0  0  0
  195.6670  174.1660  144.9430 C   0  0  0  0  0  3  0  0  0  0  0  0
  196.0940  175.3520  144.3410 C   0  0  0  0  0  3  0  0  0  0  0  0
  194.1910  171.5800  145.3880 C   0  0  0  0  0  2  0  0  0  0  0  0
  190.2570  175.0660  143.9700 C   0  0  1  0  0  3  0  0  0  0  0  0
  191.8730  173.2830  143.8000 N   0  0  0  0  0  0  0  0  0  0  0  0
  190.5770  176.4430  144.5280 C   0  0  2  0  0  3  0  0  0  0  0  0
  189.6020  174.7120  141.7060 O   0  0  0  0  0  1  0  0  0  0  0  0
  192.0150  174.9300  145.7150 C   0  0  1  0  0  3  0  0  0  0  0  0
  1  6  1  0  0  0  0
  3 17  2  0  0  0  0
  4 22  2  0  0  0  0
  4 20  1  0  0  0  0
  5 27  1  6  0  0  0
  5 24  1  0  0  0  0
  8  2  1  0  0  0  0
  8  7  1  0  0  0  0
  9 18  1  1  0  0  0
  9 14  1  0  0  0  0
 10  8  1  1  0  0  0
 12 25  1  6  0  0  0
 12 28  1  0  0  0  0
 13 26  1  0  0  0  0
 13  9  1  0  0  0  0
 14  8  1  0  0  0  0
 15 11  1  6  0  0  0
 15 23  1  0  0  0  0
 16  1  1  0  0  0  0
 16 28  1  0  0  0  0
 17  5  1  0  0  0  0
 17 25  1  0  0  0  0
 19 15  1  0  0  0  0
 20 16  2  0  0  0  0
 21  1  2  0  0  0  0
 22 21  1  0  0  0  0
 23  6  1  0  0  0  0
 24 26  1  0  0  0  0
 24 12  1  0  0  0  0
 25 19  1  0  0  0  0
 26 10  1  0  0  0  0
 28 10  1  0  0  0  0
M  END
>  <MODEL>
9

>  <REMARK>
 VINA RESULT:      -7.3      2.564      4.650
  Name = 
  0 active torsions:
  status: ('A' for Active; 'I' for Inactive)
                            x       y       z     vdW  Elec       q    Type
                         _______ _______ _______ _____ _____    ______ ____

>  <TORSDO>
F 0

$$$$
