=
 OpenBabel11112417403D

 28 32  0  0  1  0  0  0  0  0999 V2000
  189.4980  176.5710  145.2180 C   0  0  0  0  0  0  0  0  0  0  0  0
  194.5210  176.0470  144.1970 O   0  0  0  0  0  1  0  0  0  0  0  0
  189.2190  172.6640  142.8770 O   0  0  0  0  0  0  0  0  0  0  0  0
  189.0330  174.9370  147.4430 C   0  0  0  0  0  3  0  0  0  0  0  0
  191.4320  172.5760  143.7790 C   0  0  0  0  0  0  0  0  0  0  0  0
  189.7220  177.3380  144.0750 O   0  0  0  0  0  0  0  0  0  0  0  0
  194.3880  177.0030  146.3590 C   0  0  0  0  0  1  0  0  0  0  0  0
  194.3320  175.7250  145.5450 C   0  0  1  0  0  0  0  0  0  0  0  0
  195.3780  173.4980  145.2830 C   0  0  1  0  0  3  0  0  0  0  0  0
  192.9540  175.0420  145.7810 C   0  0  2  0  0  3  0  0  0  0  0  0
  187.8100  175.2060  143.0640 F   0  0  0  0  0  0  0  0  0  0  0  0
  191.8510  174.9170  143.6450 C   0  0  1  0  0  3  0  0  0  0  0  0
  194.0850  172.8170  145.6970 C   0  0  0  0  0  2  0  0  0  0  0  0
  195.4690  174.8270  146.0010 C   0  0  0  0  0  2  0  0  0  0  0  0
  188.6240  176.0460  142.3250 C   0  0  2  0  0  3  0  0  0  0  0  0
  190.5280  175.7480  145.7000 C   0  0  0  0  0  0  0  0  0  0  0  0
  190.2770  173.2400  143.2460 C   0  0  0  0  0  0  0  0  0  0  0  0
  196.5530  172.6290  145.6760 C   0  0  0  0  0  1  0  0  0  0  0  0
  189.9640  175.3860  141.9890 C   0  0  0  0  0  2  0  0  0  0  0  0
  190.2780  174.9220  146.8110 C   0  0  0  0  0  3  0  0  0  0  0  0
  188.2480  176.5800  145.8530 C   0  0  0  0  0  3  0  0  0  0  0  0
  188.0190  175.7690  146.9660 C   0  0  0  0  0  3  0  0  0  0  0  0
  188.7810  177.4050  143.0120 C   0  0  0  0  0  2  0  0  0  0  0  0
  192.5230  173.5660  143.9890 C   0  0  1  0  0  3  0  0  0  0  0  0
  190.5090  174.6300  143.1160 N   0  0  0  0  0  0  0  0  0  0  0  0
  192.8900  173.6190  145.4010 N   0  0  2  0  0  0  0  0  0  0  0  0
  191.5220  171.3380  143.9960 O   0  0  0  0  0  0  0  0  0  0  0  0
  191.8560  175.7180  144.9640 C   0  0  1  0  0  3  0  0  0  0  0  0
  1 16  2  0  0  0  0
  1 21  1  0  0  0  0
  2  8  1  0  0  0  0
  3 17  2  0  0  0  0
  5 24  1  0  0  0  0
  5 27  2  0  0  0  0
  6  1  1  0  0  0  0
  8 10  1  0  0  0  0
  8 14  1  0  0  0  0
  8  7  1  1  0  0  0
  9 18  1  1  0  0  0
  9 13  1  0  0  0  0
  9 14  1  0  0  0  0
 12 24  1  0  0  0  0
 12 28  1  0  0  0  0
 15 23  1  0  0  0  0
 15 11  1  0  0  0  0
 16 20  1  0  0  0  0
 17  5  1  0  0  0  0
 19 15  1  0  0  0  0
 19 25  1  0  0  0  0
 20  4  2  0  0  0  0
 21 22  2  0  0  0  0
 22  4  1  0  0  0  0
 23  6  1  0  0  0  0
 24 26  1  0  0  0  0
 25 17  1  0  0  0  0
 25 12  1  0  0  0  0
 26 13  1  0  0  0  0
 26 10  1  0  0  0  0
 28 16  1  0  0  0  0
 28 10  1  0  0  0  0
M  END
>  <MODEL>
1

>  <REMARK>
 VINA RESULT:      -8.2      0.000      0.000
  Name = 
  0 active torsions:
  status: ('A' for Active; 'I' for Inactive)
                            x       y       z     vdW  Elec       q    Type
                         _______ _______ _______ _____ _____    ______ ____

>  <TORSDO>
F 0

$$$$
=
 OpenBabel11112417403D

 28 32  0  0  1  0  0  0  0  0999 V2000
  191.6030  173.9080  143.0470 C   0  0  0  0  0  0  0  0  0  0  0  0
  188.8920  178.1540  141.9640 O   0  0  0  0  0  1  0  0  0  0  0  0
  192.4670  176.1630  146.9190 O   0  0  0  0  0  0  0  0  0  0  0  0
  189.9180  172.3610  144.6600 C   0  0  0  0  0  3  0  0  0  0  0  0
  190.3490  177.0530  146.2570 C   0  0  0  0  0  0  0  0  0  0  0  0
  192.4610  174.7080  142.2910 O   0  0  0  0  0  0  0  0  0  0  0  0
  187.6850  176.3470  141.0220 C   0  0  0  0  0  1  0  0  0  0  0  0
  187.9790  177.1420  142.2790 C   0  0  1  0  0  0  0  0  0  0  0  0
  186.9170  178.4950  144.0600 C   0  0  1  0  0  3  0  0  0  0  0  0
  188.5450  176.1780  143.3600 C   0  0  2  0  0  3  0  0  0  0  0  0
  193.9000  174.5520  144.9610 F   0  0  0  0  0  0  0  0  0  0  0  0
  190.7570  176.9540  143.9120 C   0  0  1  0  0  3  0  0  0  0  0  0
  187.3020  177.4620  145.1050 C   0  0  0  0  0  2  0  0  0  0  0  0
  186.6810  177.7800  142.7460 C   0  0  0  0  0  2  0  0  0  0  0  0
  194.1010  175.4540  143.9310 C   0  0  2  0  0  3  0  0  0  0  0  0
  190.3770  174.4380  143.4760 C   0  0  0  0  0  0  0  0  0  0  0  0
  191.6540  176.5060  146.0200 C   0  0  0  0  0  0  0  0  0  0  0  0
  185.6460  179.1960  144.4890 C   0  0  0  0  0  1  0  0  0  0  0  0
  193.2920  176.7380  144.1370 C   0  0  0  0  0  2  0  0  0  0  0  0
  189.5450  173.6570  144.2980 C   0  0  0  0  0  3  0  0  0  0  0  0
  191.9770  172.6090  143.4180 C   0  0  0  0  0  3  0  0  0  0  0  0
  191.1340  171.8360  144.2180 C   0  0  0  0  0  3  0  0  0  0  0  0
  193.8510  174.8010  142.5700 C   0  0  0  0  0  2  0  0  0  0  0  0
  189.7310  177.4460  144.9610 C   0  0  1  0  0  3  0  0  0  0  0  0
  191.9430  176.4710  144.6350 N   0  0  0  0  0  0  0  0  0  0  0  0
  188.5000  176.6930  144.7410 N   0  0  2  0  0  0  0  0  0  0  0  0
  189.8240  177.2150  147.3910 O   0  0  0  0  0  0  0  0  0  0  0  0
  190.0180  175.8670  143.1040 C   0  0  1  0  0  3  0  0  0  0  0  0
  1 21  2  0  0  0  0
  1 16  1  0  0  0  0
  2  8  1  0  0  0  0
  5 27  2  0  0  0  0
  6 23  1  0  0  0  0
  6  1  1  0  0  0  0
  8  7  1  6  0  0  0
  8 14  1  0  0  0  0
  8 10  1  0  0  0  0
  9 18  1  1  0  0  0
  9 13  1  0  0  0  0
 10 26  1  0  0  0  0
 12 25  1  0  0  0  0
 12 24  1  0  0  0  0
 14  9  1  0  0  0  0
 15 19  1  0  0  0  0
 15 11  1  0  0  0  0
 16 20  2  0  0  0  0
 17  5  1  0  0  0  0
 17  3  2  0  0  0  0
 19 25  1  0  0  0  0
 20  4  1  0  0  0  0
 21 22  1  0  0  0  0
 22  4  2  0  0  0  0
 23 15  1  0  0  0  0
 24  5  1  0  0  0  0
 25 17  1  0  0  0  0
 26 24  1  0  0  0  0
 26 13  1  0  0  0  0
 28 10  1  0  0  0  0
 28 16  1  0  0  0  0
 28 12  1  0  0  0  0
M  END
>  <MODEL>
2

>  <REMARK>
 VINA RESULT:      -8.0      2.622      6.228
  Name = 
  0 active torsions:
  status: ('A' for Active; 'I' for Inactive)
                            x       y       z     vdW  Elec       q    Type
                         _______ _______ _______ _____ _____    ______ ____

>  <TORSDO>
F 0

$$$$
=
 OpenBabel11112417403D

 28 32  0  0  1  0  0  0  0  0999 V2000
  191.1610  174.0140  142.8170 C   0  0  0  0  0  0  0  0  0  0  0  0
  187.9730  177.9730  143.6550 O   0  0  0  0  0  1  0  0  0  0  0  0
  193.2430  175.6720  146.5240 O   0  0  0  0  0  0  0  0  0  0  0  0
  190.2930  172.0000  144.5570 C   0  0  0  0  0  3  0  0  0  0  0  0
  190.9760  176.3660  146.8430 C   0  0  0  0  0  0  0  0  0  0  0  0
  191.6260  175.0400  141.9940 O   0  0  0  0  0  0  0  0  0  0  0  0
  186.6230  176.2070  142.8400 C   0  0  0  0  0  1  0  0  0  0  0  0
  187.3070  176.8080  144.0520 C   0  0  1  0  0  0  0  0  0  0  0  0
  186.8900  177.6800  146.3300 C   0  0  1  0  0  3  0  0  0  0  0  0
  188.2940  175.7600  144.6410 C   0  0  2  0  0  3  0  0  0  0  0  0
  193.9550  174.6290  143.9000 F   0  0  0  0  0  0  0  0  0  0  0  0
  190.4970  176.7240  144.5370 C   0  0  1  0  0  3  0  0  0  0  0  0
  187.7000  176.5470  146.9360 C   0  0  0  0  0  2  0  0  0  0  0  0
  186.2340  177.1750  145.0630 C   0  0  0  0  0  2  0  0  0  0  0  0
  193.7030  175.7120  143.0770 C   0  0  2  0  0  3  0  0  0  0  0  0
  190.1480  174.2920  143.7480 C   0  0  0  0  0  0  0  0  0  0  0  0
  192.1350  176.0500  146.0580 C   0  0  0  0  0  0  0  0  0  0  0  0
  185.8240  178.1190  147.3110 C   0  0  0  0  0  1  0  0  0  0  0  0
  192.9450  176.8200  143.8140 C   0  0  0  0  0  2  0  0  0  0  0  0
  189.7290  173.2760  144.6250 C   0  0  0  0  0  3  0  0  0  0  0  0
  191.7290  172.7330  142.7560 C   0  0  0  0  0  3  0  0  0  0  0  0
  191.2920  171.7280  143.6200 C   0  0  0  0  0  3  0  0  0  0  0  0
  193.0130  175.2720  141.7840 C   0  0  0  0  0  2  0  0  0  0  0  0
  189.9000  176.8860  145.9560 C   0  0  1  0  0  3  0  0  0  0  0  0
  191.8950  176.2910  144.6840 N   0  0  0  0  0  0  0  0  0  0  0  0
  188.7270  176.0210  146.0270 N   0  0  2  0  0  0  0  0  0  0  0  0
  190.8970  176.2590  148.0950 O   0  0  0  0  0  0  0  0  0  0  0  0
  189.5850  175.7000  143.8300 C   0  0  1  0  0  3  0  0  0  0  0  0
  1 16  1  0  0  0  0
  2  8  1  0  0  0  0
  4 20  1  0  0  0  0
  5 27  2  0  0  0  0
  6  1  1  0  0  0  0
  8  7  1  6  0  0  0
  8 10  1  0  0  0  0
  8 14  1  0  0  0  0
  9 13  1  0  0  0  0
  9 18  1  1  0  0  0
 10 26  1  0  0  0  0
 12 25  1  0  0  0  0
 12 24  1  0  0  0  0
 14  9  1  0  0  0  0
 15 19  1  0  0  0  0
 15 11  1  0  0  0  0
 16 28  1  0  0  0  0
 16 20  2  0  0  0  0
 17  3  2  0  0  0  0
 17  5  1  0  0  0  0
 19 25  1  0  0  0  0
 21  1  2  0  0  0  0
 21 22  1  0  0  0  0
 22  4  2  0  0  0  0
 23  6  1  0  0  0  0
 23 15  1  0  0  0  0
 24 26  1  0  0  0  0
 24  5  1  0  0  0  0
 25 17  1  0  0  0  0
 26 13  1  0  0  0  0
 28 12  1  0  0  0  0
 28 10  1  0  0  0  0
M  END
>  <MODEL>
3

>  <REMARK>
 VINA RESULT:      -7.9      2.685      6.005
  Name = 
  0 active torsions:
  status: ('A' for Active; 'I' for Inactive)
                            x       y       z     vdW  Elec       q    Type
                         _______ _______ _______ _____ _____    ______ ____

>  <TORSDO>
F 0

$$$$
=
 OpenBabel11112417403D

 28 32  0  0  1  0  0  0  0  0999 V2000
  190.7620  175.7040  144.6590 C   0  0  0  0  0  0  0  0  0  0  0  0
  185.7930  176.3530  145.8530 O   0  0  0  0  0  1  0  0  0  0  0  0
  189.0460  174.8660  140.5150 O   0  0  0  0  0  0  0  0  0  0  0  0
  191.5610  178.1350  143.5220 C   0  0  0  0  0  3  0  0  0  0  0  0
  187.4060  176.3170  141.4760 C   0  0  0  0  0  0  0  0  0  0  0  0
  190.3450  174.4760  145.1720 O   0  0  0  0  0  0  0  0  0  0  0  0
  186.9900  177.9300  147.1530 C   0  0  0  0  0  1  0  0  0  0  0  0
  186.3800  177.6220  145.7990 C   0  0  1  0  0  0  0  0  0  0  0  0
  184.7400  178.4400  144.1350 C   0  0  1  0  0  3  0  0  0  0  0  0
  187.4970  177.6880  144.7190 C   0  0  2  0  0  3  0  0  0  0  0  0
  191.0650  173.7730  142.3060 F   0  0  0  0  0  0  0  0  0  0  0  0
  187.6320  175.5090  143.7060 C   0  0  1  0  0  3  0  0  0  0  0  0
  185.8510  178.6880  143.1300 C   0  0  0  0  0  2  0  0  0  0  0  0
  185.2980  178.6530  145.5270 C   0  0  0  0  0  2  0  0  0  0  0  0
  190.2990  173.0460  143.2010 C   0  0  2  0  0  3  0  0  0  0  0  0
  189.8070  176.7040  144.4180 C   0  0  0  0  0  0  0  0  0  0  0  0
  188.4090  175.2920  141.5150 C   0  0  0  0  0  0  0  0  0  0  0  0
  183.6100  179.4150  143.8890 C   0  0  0  0  0  1  0  0  0  0  0  0
  188.8050  173.3400  143.0370 C   0  0  0  0  0  2  0  0  0  0  0  0
  190.2180  177.9150  143.8350 C   0  0  0  0  0  3  0  0  0  0  0  0
  192.1090  175.9260  144.3380 C   0  0  0  0  0  3  0  0  0  0  0  0
  192.5070  177.1410  143.7770 C   0  0  0  0  0  3  0  0  0  0  0  0
  190.7950  173.2390  144.6350 C   0  0  0  0  0  2  0  0  0  0  0  0
  186.7940  176.4670  142.8250 C   0  0  1  0  0  3  0  0  0  0  0  0
  188.5390  174.7620  142.8210 N   0  0  0  0  0  0  0  0  0  0  0  0
  187.0170  177.8170  143.3310 N   0  0  2  0  0  0  0  0  0  0  0  0
  187.0660  176.9610  140.4490 O   0  0  0  0  0  0  0  0  0  0  0  0
  188.3460  176.4200  144.7260 C   0  0  1  0  0  3  0  0  0  0  0  0
  1  6  1  0  0  0  0
  3 17  2  0  0  0  0
  4 22  2  0  0  0  0
  4 20  1  0  0  0  0
  5 17  1  0  0  0  0
  5 24  1  0  0  0  0
  8  2  1  0  0  0  0
  8  7  1  1  0  0  0
  9 18  1  6  0  0  0
  9 14  1  0  0  0  0
 10 28  1  0  0  0  0
 10  8  1  0  0  0  0
 11 15  1  0  0  0  0
 12 28  1  0  0  0  0
 13 26  1  0  0  0  0
 13  9  1  0  0  0  0
 14  8  1  0  0  0  0
 15 23  1  0  0  0  0
 16  1  1  0  0  0  0
 16 28  1  0  0  0  0
 17 25  1  0  0  0  0
 19 15  1  0  0  0  0
 20 16  2  0  0  0  0
 21  1  2  0  0  0  0
 22 21  1  0  0  0  0
 23  6  1  0  0  0  0
 24 26  1  0  0  0  0
 24 12  1  0  0  0  0
 25 19  1  0  0  0  0
 25 12  1  0  0  0  0
 26 10  1  0  0  0  0
 27  5  2  0  0  0  0
M  END
>  <MODEL>
4

>  <REMARK>
 VINA RESULT:      -7.9      2.885      6.680
  Name = 
  0 active torsions:
  status: ('A' for Active; 'I' for Inactive)
                            x       y       z     vdW  Elec       q    Type
                         _______ _______ _______ _____ _____    ______ ____

>  <TORSDO>
F 0

$$$$
=
 OpenBabel11112417403D

 28 32  0  0  1  0  0  0  0  0999 V2000
  188.4420  177.2270  144.5820 C   0  0  0  0  0  0  0  0  0  0  0  0
  193.1900  176.1850  142.8740 O   0  0  0  0  0  1  0  0  0  0  0  0
  187.4420  173.3530  142.3880 O   0  0  0  0  0  0  0  0  0  0  0  0
  188.1370  175.6660  146.8850 C   0  0  0  0  0  3  0  0  0  0  0  0
  189.7410  173.0450  142.9710 C   0  0  0  0  0  0  0  0  0  0  0  0
  188.5760  177.9590  143.4020 O   0  0  0  0  0  0  0  0  0  0  0  0
  193.4630  177.1660  145.0120 C   0  0  0  0  0  1  0  0  0  0  0  0
  193.1630  175.8940  144.2420 C   0  0  1  0  0  0  0  0  0  0  0  0
  193.9330  173.5700  143.8830 C   0  0  1  0  0  3  0  0  0  0  0  0
  191.7720  175.3570  144.6850 C   0  0  2  0  0  3  0  0  0  0  0  0
  186.3350  176.0260  142.7170 F   0  0  0  0  0  0  0  0  0  0  0  0
  190.3690  175.3310  142.7290 C   0  0  1  0  0  3  0  0  0  0  0  0
  192.6510  173.0280  144.4900 C   0  0  0  0  0  2  0  0  0  0  0  0
  194.2580  174.8880  144.5530 C   0  0  0  0  0  2  0  0  0  0  0  0
  187.1160  176.7740  141.8530 C   0  0  2  0  0  3  0  0  0  0  0  0
  189.4420  176.3070  144.9310 C   0  0  0  0  0  0  0  0  0  0  0  0
  188.5940  173.8200  142.5910 C   0  0  0  0  0  0  0  0  0  0  0  0
  195.0590  172.5880  144.1260 C   0  0  0  0  0  1  0  0  0  0  0  0
  188.3220  175.9780  141.3450 C   0  0  0  0  0  2  0  0  0  0  0  0
  189.2720  175.5180  146.0830 C   0  0  0  0  0  3  0  0  0  0  0  0
  187.3020  177.3680  145.3860 C   0  0  0  0  0  3  0  0  0  0  0  0
  187.1530  176.5930  146.5370 C   0  0  0  0  0  3  0  0  0  0  0  0
  187.5040  178.1140  142.4810 C   0  0  0  0  0  2  0  0  0  0  0  0
  190.9440  173.9200  143.0030 C   0  0  1  0  0  3  0  0  0  0  0  0
  188.9430  175.1790  142.4000 N   0  0  0  0  0  0  0  0  0  0  0  0
  191.5120  173.9450  144.3480 N   0  0  2  0  0  0  0  0  0  0  0  0
  189.7370  171.8070  143.2000 O   0  0  0  0  0  0  0  0  0  0  0  0
  190.6420  176.1360  144.0160 C   0  0  1  0  0  3  0  0  0  0  0  0
  1 16  2  0  0  0  0
  1 21  1  0  0  0  0
  2  8  1  0  0  0  0
  3 17  2  0  0  0  0
  5 24  1  0  0  0  0
  5 27  2  0  0  0  0
  6  1  1  0  0  0  0
  8 14  1  0  0  0  0
  8 10  1  0  0  0  0
  8  7  1  1  0  0  0
  9 18  1  1  0  0  0
  9 13  1  0  0  0  0
  9 14  1  0  0  0  0
 12 24  1  0  0  0  0
 12 28  1  0  0  0  0
 15 23  1  0  0  0  0
 15 11  1  0  0  0  0
 16 20  1  0  0  0  0
 17  5  1  0  0  0  0
 19 15  1  0  0  0  0
 19 25  1  0  0  0  0
 20  4  2  0  0  0  0
 21 22  2  0  0  0  0
 22  4  1  0  0  0  0
 23  6  1  0  0  0  0
 24 26  1  0  0  0  0
 25 17  1  0  0  0  0
 25 12  1  0  0  0  0
 26 13  1  0  0  0  0
 26 10  1  0  0  0  0
 28 10  1  0  0  0  0
 28 16  1  0  0  0  0
M  END
>  <MODEL>
5

>  <REMARK>
 VINA RESULT:      -7.7      1.426      1.730
  Name = 
  0 active torsions:
  status: ('A' for Active; 'I' for Inactive)
                            x       y       z     vdW  Elec       q    Type
                         _______ _______ _______ _____ _____    ______ ____

>  <TORSDO>
F 0

$$$$
=
 OpenBabel11112417403D

 28 32  0  0  1  0  0  0  0  0999 V2000
  191.7540  174.5060  144.0940 C   0  0  0  0  0  0  0  0  0  0  0  0
  187.2090  176.1190  145.9070 O   0  0  0  0  0  1  0  0  0  0  0  0
  189.2950  173.6770  140.3400 O   0  0  0  0  0  0  0  0  0  0  0  0
  192.7550  176.6620  142.6150 C   0  0  0  0  0  3  0  0  0  0  0  0
  188.0880  175.4650  141.3720 C   0  0  0  0  0  0  0  0  0  0  0  0
  191.2260  173.4140  144.7830 O   0  0  0  0  0  0  0  0  0  0  0  0
  188.8380  177.5500  146.8570 C   0  0  0  0  0  1  0  0  0  0  0  0
  187.9810  177.2550  145.6420 C   0  0  1  0  0  0  0  0  0  0  0  0
  186.2590  178.2240  144.1520 C   0  0  1  0  0  3  0  0  0  0  0  0
  188.9120  177.0390  144.4140 C   0  0  2  0  0  3  0  0  0  0  0  0
  191.3610  172.3800  141.9310 F   0  0  0  0  0  0  0  0  0  0  0  0
  188.5240  174.8000  143.6180 C   0  0  1  0  0  3  0  0  0  0  0  0
  187.2240  178.1940  142.9800 C   0  0  0  0  0  2  0  0  0  0  0  0
  187.0550  178.4390  145.4220 C   0  0  0  0  0  2  0  0  0  0  0  0
  190.6360  171.8700  142.9930 C   0  0  2  0  0  3  0  0  0  0  0  0
  190.9500  175.6380  143.8910 C   0  0  0  0  0  0  0  0  0  0  0  0
  188.9020  174.2830  141.3720 C   0  0  0  0  0  0  0  0  0  0  0  0
  185.2800  179.3640  143.9700 C   0  0  0  0  0  1  0  0  0  0  0  0
  189.2030  172.4130  143.0130 C   0  0  0  0  0  2  0  0  0  0  0  0
  191.4590  176.7100  143.1350 C   0  0  0  0  0  3  0  0  0  0  0  0
  193.0520  174.4590  143.5660 C   0  0  0  0  0  3  0  0  0  0  0  0
  193.5520  175.5370  142.8330 C   0  0  0  0  0  3  0  0  0  0  0  0
  191.3750  172.0800  144.3160 C   0  0  0  0  0  2  0  0  0  0  0  0
  187.7280  175.8230  142.7710 C   0  0  1  0  0  3  0  0  0  0  0  0
  189.1460  173.8390  142.6940 N   0  0  0  0  0  0  0  0  0  0  0  0
  188.2470  177.1460  143.1020 N   0  0  2  0  0  0  0  0  0  0  0  0
  187.7020  176.0810  140.3430 O   0  0  0  0  0  0  0  0  0  0  0  0
  189.5300  175.6440  144.4290 C   0  0  1  0  0  3  0  0  0  0  0  0
  1  6  1  0  0  0  0
  3 17  2  0  0  0  0
  4 22  2  0  0  0  0
  4 20  1  0  0  0  0
  5 17  1  0  0  0  0
  5 24  1  0  0  0  0
  8  2  1  0  0  0  0
  8  7  1  1  0  0  0
  9 18  1  6  0  0  0
  9 14  1  0  0  0  0
 10 28  1  0  0  0  0
 10  8  1  0  0  0  0
 11 15  1  0  0  0  0
 12 28  1  0  0  0  0
 13 26  1  0  0  0  0
 13  9  1  0  0  0  0
 14  8  1  0  0  0  0
 15 19  1  0  0  0  0
 15 23  1  0  0  0  0
 16  1  1  0  0  0  0
 16 28  1  0  0  0  0
 17 25  1  0  0  0  0
 20 16  2  0  0  0  0
 21  1  2  0  0  0  0
 22 21  1  0  0  0  0
 23  6  1  0  0  0  0
 24 26  1  0  0  0  0
 24 12  1  0  0  0  0
 25 19  1  0  0  0  0
 25 12  1  0  0  0  0
 26 10  1  0  0  0  0
 27  5  2  0  0  0  0
M  END
>  <MODEL>
6

>  <REMARK>
 VINA RESULT:      -7.3      2.662      6.101
  Name = 
  0 active torsions:
  status: ('A' for Active; 'I' for Inactive)
                            x       y       z     vdW  Elec       q    Type
                         _______ _______ _______ _____ _____    ______ ____

>  <TORSDO>
F 0

$$$$
=
 OpenBabel11112417403D

 28 32  0  0  1  0  0  0  0  0999 V2000
  187.0980  176.7650  143.8170 C   0  0  0  0  0  0  0  0  0  0  0  0
  189.3430  172.2540  144.8920 O   0  0  0  0  0  1  0  0  0  0  0  0
  189.7230  178.2190  147.2550 O   0  0  0  0  0  0  0  0  0  0  0  0
  188.9400  178.1310  142.2110 C   0  0  0  0  0  3  0  0  0  0  0  0
  190.9640  176.3620  146.3980 C   0  0  0  0  0  0  0  0  0  0  0  0
  186.2080  176.1060  144.6640 O   0  0  0  0  0  0  0  0  0  0  0  0
  189.0580  172.3000  142.5420 C   0  0  0  0  0  1  0  0  0  0  0  0
  189.9180  172.7380  143.7110 C   0  0  1  0  0  0  0  0  0  0  0  0
  192.2100  172.6160  144.6380 C   0  0  1  0  0  3  0  0  0  0  0  0
  190.0070  174.2910  143.7140 C   0  0  2  0  0  3  0  0  0  0  0  0
  186.9880  178.5380  146.3070 F   0  0  0  0  0  0  0  0  0  0  0  0
  189.0680  175.0500  145.7970 C   0  0  1  0  0  3  0  0  0  0  0  0
  192.3810  174.1160  144.4700 C   0  0  0  0  0  2  0  0  0  0  0  0
  191.2930  172.1140  143.5420 C   0  0  0  0  0  2  0  0  0  0  0  0
  186.3900  177.3680  146.7400 C   0  0  2  0  0  3  0  0  0  0  0  0
  188.3710  176.2150  143.6010 C   0  0  0  0  0  0  0  0  0  0  0  0
  189.7630  177.0820  146.7140 C   0  0  0  0  0  0  0  0  0  0  0  0
  193.5570  171.9380  144.5190 C   0  0  0  0  0  1  0  0  0  0  0  0
  187.4240  176.3580  147.2490 C   0  0  0  0  0  2  0  0  0  0  0  0
  189.2920  176.9160  142.8040 C   0  0  0  0  0  3  0  0  0  0  0  0
  186.7500  177.9880  143.2250 C   0  0  0  0  0  3  0  0  0  0  0  0
  187.6680  178.6660  142.4200 C   0  0  0  0  0  3  0  0  0  0  0  0
  185.4670  176.7910  145.6650 C   0  0  0  0  0  2  0  0  0  0  0  0
  190.6130  175.0110  145.8800 C   0  0  1  0  0  3  0  0  0  0  0  0
  188.6160  176.3110  146.4040 N   0  0  0  0  0  0  0  0  0  0  0  0
  191.1100  174.8510  144.5170 N   0  0  2  0  0  0  0  0  0  0  0  0
  192.1350  176.7910  146.5740 O   0  0  0  0  0  0  0  0  0  0  0  0
  188.7410  174.9150  144.2950 C   0  0  1  0  0  3  0  0  0  0  0  0
  1  6  1  0  0  0  0
  4 22  2  0  0  0  0
  4 20  1  0  0  0  0
  5 27  2  0  0  0  0
  5 17  1  0  0  0  0
  6 23  1  0  0  0  0
  8  7  1  6  0  0  0
  8 10  1  0  0  0  0
  8  2  1  0  0  0  0
  9 18  1  6  0  0  0
 10 28  1  0  0  0  0
 10 26  1  0  0  0  0
 11 15  1  0  0  0  0
 12 24  1  0  0  0  0
 12 25  1  0  0  0  0
 13 26  1  0  0  0  0
 13  9  1  0  0  0  0
 14  8  1  0  0  0  0
 14  9  1  0  0  0  0
 15 19  1  0  0  0  0
 16  1  1  0  0  0  0
 16 28  1  0  0  0  0
 17  3  2  0  0  0  0
 20 16  2  0  0  0  0
 21  1  2  0  0  0  0
 22 21  1  0  0  0  0
 23 15  1  0  0  0  0
 24  5  1  0  0  0  0
 25 17  1  0  0  0  0
 25 19  1  0  0  0  0
 26 24  1  0  0  0  0
 28 12  1  0  0  0  0
M  END
>  <MODEL>
7

>  <REMARK>
 VINA RESULT:      -7.2      2.234      4.758
  Name = 
  0 active torsions:
  status: ('A' for Active; 'I' for Inactive)
                            x       y       z     vdW  Elec       q    Type
                         _______ _______ _______ _____ _____    ______ ____

>  <TORSDO>
F 0

$$$$
=
 OpenBabel11112417403D

 28 32  0  0  1  0  0  0  0  0999 V2000
  194.1920  173.8950  145.0180 C   0  0  0  0  0  0  0  0  0  0  0  0
  189.6680  174.9060  147.2660 O   0  0  0  0  0  1  0  0  0  0  0  0
  191.5150  172.6550  141.5370 O   0  0  0  0  0  0  0  0  0  0  0  0
  194.7320  176.1360  143.4290 C   0  0  0  0  0  3  0  0  0  0  0  0
  190.1780  174.2820  142.6710 C   0  0  0  0  0  0  0  0  0  0  0  0
  193.8920  172.7560  145.7650 O   0  0  0  0  0  0  0  0  0  0  0  0
  191.1680  176.5680  148.0370 C   0  0  0  0  0  1  0  0  0  0  0  0
  190.2450  176.1310  146.9160 C   0  0  1  0  0  0  0  0  0  0  0  0
  188.2660  176.8210  145.6000 C   0  0  1  0  0  3  0  0  0  0  0  0
  191.0700  176.0190  145.6020 C   0  0  2  0  0  3  0  0  0  0  0  0
  193.8880  171.6890  142.9210 F   0  0  0  0  0  0  0  0  0  0  0  0
  190.9220  173.7310  144.8660 C   0  0  1  0  0  3  0  0  0  0  0  0
  189.1050  176.8990  144.3360 C   0  0  0  0  0  2  0  0  0  0  0  0
  189.1460  177.1710  146.7810 C   0  0  0  0  0  2  0  0  0  0  0  0
  193.3490  171.1070  144.0550 C   0  0  2  0  0  3  0  0  0  0  0  0
  193.2230  174.9020  144.8880 C   0  0  0  0  0  0  0  0  0  0  0  0
  191.1440  173.2230  142.5980 C   0  0  0  0  0  0  0  0  0  0  0  0
  187.1250  177.8120  145.5080 C   0  0  0  0  0  1  0  0  0  0  0  0
  191.8640  171.4490  144.2150 C   0  0  0  0  0  2  0  0  0  0  0  0
  193.5000  176.0170  144.0760 C   0  0  0  0  0  3  0  0  0  0  0  0
  195.4250  174.0160  144.3620 C   0  0  0  0  0  3  0  0  0  0  0  0
  195.6960  175.1370  143.5740 C   0  0  0  0  0  3  0  0  0  0  0  0
  194.1790  171.4460  145.2950 C   0  0  0  0  0  2  0  0  0  0  0  0
  189.9120  174.6160  144.0970 C   0  0  1  0  0  3  0  0  0  0  0  0
  191.5770  172.8460  143.8920 N   0  0  0  0  0  0  0  0  0  0  0  0
  190.2720  176.0060  144.3630 N   0  0  2  0  0  0  0  0  0  0  0  0
  189.6110  174.8160  141.6810 O   0  0  0  0  0  0  0  0  0  0  0  0
  191.8750  174.7230  145.5660 C   0  0  1  0  0  3  0  0  0  0  0  0
  1  6  1  0  0  0  0
  3 17  2  0  0  0  0
  4 22  2  0  0  0  0
  4 20  1  0  0  0  0
  5 24  1  0  0  0  0
  8  2  1  0  0  0  0
  8  7  1  1  0  0  0
  9 18  1  6  0  0  0
  9 14  1  0  0  0  0
 10  8  1  0  0  0  0
 11 15  1  0  0  0  0
 12 28  1  0  0  0  0
 13 26  1  0  0  0  0
 13  9  1  0  0  0  0
 14  8  1  0  0  0  0
 15 19  1  0  0  0  0
 15 23  1  0  0  0  0
 16  1  1  0  0  0  0
 16 28  1  0  0  0  0
 17  5  1  0  0  0  0
 17 25  1  0  0  0  0
 20 16  2  0  0  0  0
 21  1  2  0  0  0  0
 22 21  1  0  0  0  0
 23  6  1  0  0  0  0
 24 26  1  0  0  0  0
 24 12  1  0  0  0  0
 25 19  1  0  0  0  0
 25 12  1  0  0  0  0
 26 10  1  0  0  0  0
 27  5  2  0  0  0  0
 28 10  1  0  0  0  0
M  END
>  <MODEL>
8

>  <REMARK>
 VINA RESULT:      -7.2      2.291      5.596
  Name = 
  0 active torsions:
  status: ('A' for Active; 'I' for Inactive)
                            x       y       z     vdW  Elec       q    Type
                         _______ _______ _______ _____ _____    ______ ____

>  <TORSDO>
F 0

$$$$
=
 OpenBabel11112417403D

 28 32  0  0  1  0  0  0  0  0999 V2000
  192.1800  173.8600  142.3090 C   0  0  0  0  0  0  0  0  0  0  0  0
  188.9700  177.6460  143.6910 O   0  0  0  0  0  1  0  0  0  0  0  0
  194.1030  174.8220  146.3340 O   0  0  0  0  0  0  0  0  0  0  0  0
  191.2310  171.5820  143.6310 C   0  0  0  0  0  3  0  0  0  0  0  0
  191.8270  175.4740  146.6720 C   0  0  0  0  0  0  0  0  0  0  0  0
  192.6840  175.0080  141.6980 O   0  0  0  0  0  0  0  0  0  0  0  0
  187.6520  176.0630  142.5220 C   0  0  0  0  0  1  0  0  0  0  0  0
  188.2850  176.4360  143.8490 C   0  0  1  0  0  0  0  0  0  0  0  0
  187.7720  176.9020  146.2250 C   0  0  1  0  0  3  0  0  0  0  0  0
  189.2410  175.2910  144.2870 C   0  0  2  0  0  3  0  0  0  0  0  0
  194.9260  174.2460  143.6000 F   0  0  0  0  0  0  0  0  0  0  0  0
  191.4500  176.2350  144.4460 C   0  0  1  0  0  3  0  0  0  0  0  0
  188.5510  175.6710  146.6570 C   0  0  0  0  0  2  0  0  0  0  0  0
  187.1700  176.6320  144.8620 C   0  0  0  0  0  2  0  0  0  0  0  0
  194.7130  175.4590  142.9690 C   0  0  2  0  0  3  0  0  0  0  0  0
  191.1280  173.9810  143.2300 C   0  0  0  0  0  0  0  0  0  0  0  0
  193.0180  175.2880  145.8940 C   0  0  0  0  0  0  0  0  0  0  0  0
  186.6660  177.1730  147.2210 C   0  0  0  0  0  1  0  0  0  0  0  0
  193.9280  176.4290  143.8560 C   0  0  0  0  0  2  0  0  0  0  0  0
  190.6680  172.8320  143.8980 C   0  0  0  0  0  3  0  0  0  0  0  0
  192.7460  172.6040  142.0480 C   0  0  0  0  0  3  0  0  0  0  0  0
  192.2680  171.4670  142.7040 C   0  0  0  0  0  3  0  0  0  0  0  0
  194.0790  175.2590  141.5910 C   0  0  0  0  0  2  0  0  0  0  0  0
  190.7930  176.1530  145.8450 C   0  0  1  0  0  3  0  0  0  0  0  0
  192.8390  175.7680  144.5740 N   0  0  0  0  0  0  0  0  0  0  0  0
  189.6150  175.3010  145.7140 N   0  0  2  0  0  0  0  0  0  0  0  0
  191.6930  175.1520  147.8820 O   0  0  0  0  0  0  0  0  0  0  0  0
  190.5670  175.3600  143.5330 C   0  0  1  0  0  3  0  0  0  0  0  0
  1 16  1  0  0  0  0
  2  8  1  0  0  0  0
  4 20  1  0  0  0  0
  5 27  2  0  0  0  0
  6  1  1  0  0  0  0
  8  7  1  6  0  0  0
  8 10  1  0  0  0  0
  8 14  1  0  0  0  0
  9 13  1  0  0  0  0
  9 18  1  1  0  0  0
 10 26  1  0  0  0  0
 12 25  1  0  0  0  0
 12 24  1  0  0  0  0
 14  9  1  0  0  0  0
 15 11  1  0  0  0  0
 15 19  1  0  0  0  0
 16 28  1  0  0  0  0
 16 20  2  0  0  0  0
 17  3  2  0  0  0  0
 17  5  1  0  0  0  0
 19 25  1  0  0  0  0
 21  1  2  0  0  0  0
 21 22  1  0  0  0  0
 22  4  2  0  0  0  0
 23  6  1  0  0  0  0
 23 15  1  0  0  0  0
 24  5  1  0  0  0  0
 25 17  1  0  0  0  0
 26 24  1  0  0  0  0
 26 13  1  0  0  0  0
 28 10  1  0  0  0  0
 28 12  1  0  0  0  0
M  END
>  <MODEL>
9

>  <REMARK>
 VINA RESULT:      -7.1      2.530      5.821
  Name = 
  0 active torsions:
  status: ('A' for Active; 'I' for Inactive)
                            x       y       z     vdW  Elec       q    Type
                         _______ _______ _______ _____ _____    ______ ____

>  <TORSDO>
F 0

$$$$
