=
 OpenBabel11112416343D

 32 37  0  0  1  0  0  0  0  0999 V2000
  192.1210  174.8370  143.8720 C   0  0  0  0  0  2  0  0  0  0  0  0
  187.3950  177.0640  143.4310 C   0  0  0  0  0  0  0  0  0  0  0  0
  186.2710  178.2490  147.9900 C   0  0  0  0  0  3  0  0  0  0  0  0
  184.9900  178.6200  147.5900 C   0  0  0  0  0  3  0  0  0  0  0  0
  185.7080  177.4750  141.5870 C   0  0  0  0  0  0  0  0  0  0  0  0
  184.4020  177.8590  141.3010 C   0  0  0  0  0  0  0  0  0  0  0  0
  189.7540  176.2780  142.9260 C   0  0  1  0  0  3  0  0  0  0  0  0
  189.1110  176.9240  145.2260 C   0  0  0  0  0  2  0  0  0  0  0  0
  182.3850  178.5890  141.6410 C   0  0  0  0  0  0  0  0  0  0  0  0
  191.2820  175.6680  144.8590 C   0  0  2  0  0  3  0  0  0  0  0  0
  187.1850  177.7760  147.0480 C   0  0  0  0  0  3  0  0  0  0  0  0
  187.7330  177.1850  144.7650 N   0  0  0  0  0  0  0  0  0  0  0  0
  186.8360  177.6640  145.6860 C   0  0  0  0  0  0  0  0  0  0  0  0
  185.1710  177.9580  143.9430 C   0  0  0  0  0  0  0  0  0  0  0  0
  182.5530  178.3830  140.3140 N   0  0  0  0  0  0  0  0  0  0  0  0
  191.2890  174.2320  142.7470 C   0  0  0  0  0  2  0  0  0  0  0  0
  189.8270  175.8730  144.3920 C   0  0  2  0  0  3  0  0  0  0  0  0
  183.7910  177.9370  140.1030 N   0  0  0  0  0  0  0  0  0  0  0  0
  190.5330  175.3310  141.9990 C   0  0  0  0  0  2  0  0  0  0  0  0
  184.6240  178.5190  146.2480 C   0  0  0  0  0  3  0  0  0  0  0  0
  185.5360  178.0430  145.2880 C   0  0  0  0  0  0  0  0  0  0  0  0
  183.9050  178.3290  143.5720 N   0  0  0  0  0  0  0  0  0  0  0  0
  188.2970  176.2740  142.5090 C   0  0  0  0  0  2  0  0  0  0  0  0
  186.7440  177.0940  140.2070 Cl  0  0  0  0  0  0  0  0  0  0  0  0
  181.1430  179.1170  142.2680 C   0  0  0  0  0  1  0  0  0  0  0  0
  186.1140  177.4890  142.9690 C   0  0  0  0  0  0  0  0  0  0  0  0
  183.5540  178.2580  142.2720 C   0  0  0  0  0  0  0  0  0  0  0  0
  191.9170  176.8960  145.0780 O   0  0  0  0  0  0  0  0  0  0  0  0
  193.2320  176.7020  144.6460 C   0  0  0  0  0  2  0  0  0  0  0  0
  194.1700  176.9520  145.7740 C   0  0  0  0  0  0  0  0  0  0  0  0
  194.1820  176.0980  146.8700 O   0  0  0  0  0  1  0  0  0  0  0  0
  194.9200  177.9610  145.7560 O   0  0  0  0  0  0  0  0  0  0  0  0
  1 10  1  0  0  0  0
  2 12  1  0  0  0  0
  4  3  1  0  0  0  0
  5 26  1  0  0  0  0
  6  5  2  0  0  0  0
  6 27  1  0  0  0  0
  7 19  1  6  0  0  0
  7 17  1  0  0  0  0
  9 25  1  0  0  0  0
  9 27  2  0  0  0  0
 10 28  1  6  0  0  0
 11  3  2  0  0  0  0
 12  8  1  0  0  0  0
 12 13  1  0  0  0  0
 13 11  1  0  0  0  0
 14 21  1  0  0  0  0
 15  9  1  0  0  0  0
 16  1  1  0  0  0  0
 17 10  1  0  0  0  0
 17  8  1  1  0  0  0
 18 15  2  0  0  0  0
 18  6  1  0  0  0  0
 19 16  1  0  0  0  0
 20  4  2  0  0  0  0
 21 13  2  0  0  0  0
 21 20  1  0  0  0  0
 22 14  2  0  0  0  0
 23  7  1  0  0  0  0
 23  2  1  0  0  0  0
 24  5  1  0  0  0  0
 26  2  2  0  0  0  0
 26 14  1  0  0  0  0
 27 22  1  0  0  0  0
 29 28  1  0  0  0  0
 29 30  1  0  0  0  0
 30 31  1  0  0  0  0
 32 30  2  0  0  0  0
M  END
>  <MODEL>
1

>  <REMARK>
 VINA RESULT:      -8.9      0.000      0.000
  Name = 
  3 active torsions:
  status: ('A' for Active; 'I' for Inactive)
    1  A    between atoms: C_10  and  O_20
    2  A    between atoms: O_20  and  C_29
    3  A    between atoms: C_29  and  C_30
                            x       y       z     vdW  Elec       q    Type
                         _______ _______ _______ _____ _____    ______ ____

>  <TORSDO>
F 3

$$$$
=
 OpenBabel11112416343D

 32 37  0  0  1  0  0  0  0  0999 V2000
  184.7350  177.9710  146.2820 C   0  0  0  0  0  2  0  0  0  0  0  0
  189.4480  176.2120  144.8050 C   0  0  0  0  0  0  0  0  0  0  0  0
  188.6230  174.2930  140.4360 C   0  0  0  0  0  3  0  0  0  0  0  0
  189.9210  173.7910  140.3990 C   0  0  0  0  0  3  0  0  0  0  0  0
  191.7610  176.0370  145.8240 C   0  0  0  0  0  0  0  0  0  0  0  0
  193.0280  175.4800  145.6880 C   0  0  0  0  0  0  0  0  0  0  0  0
  187.6120  177.5780  145.8990 C   0  0  1  0  0  3  0  0  0  0  0  0
  187.2740  176.5860  143.6580 C   0  0  0  0  0  2  0  0  0  0  0  0
  194.6720  174.3820  144.7870 C   0  0  0  0  0  0  0  0  0  0  0  0
  185.2700  177.4870  144.9230 C   0  0  2  0  0  3  0  0  0  0  0  0
  188.1910  175.0250  141.5430 C   0  0  0  0  0  3  0  0  0  0  0  0
  188.6160  175.9760  143.7280 N   0  0  0  0  0  0  0  0  0  0  0  0
  189.0490  175.2680  142.6360 C   0  0  0  0  0  0  0  0  0  0  0  0
  191.2380  174.9990  143.6500 C   0  0  0  0  0  0  0  0  0  0  0  0
  195.0950  174.9140  145.9570 N   0  0  0  0  0  0  0  0  0  0  0  0
  185.5780  177.4900  147.4590 C   0  0  0  0  0  2  0  0  0  0  0  0
  186.6420  176.7920  145.0250 C   0  0  2  0  0  3  0  0  0  0  0  0
  194.0880  175.5890  146.5110 N   0  0  0  0  0  0  0  0  0  0  0  0
  187.0320  177.9270  147.2800 C   0  0  0  0  0  2  0  0  0  0  0  0
  190.7870  174.0220  141.4680 C   0  0  0  0  0  3  0  0  0  0  0  0
  190.3630  174.7570  142.5890 C   0  0  0  0  0  0  0  0  0  0  0  0
  192.5120  174.4960  143.5920 N   0  0  0  0  0  0  0  0  0  0  0  0
  188.8570  176.7370  146.0940 C   0  0  0  0  0  2  0  0  0  0  0  0
  191.5000  177.0860  147.2220 Cl  0  0  0  0  0  0  0  0  0  0  0  0
  195.5200  173.5850  143.8610 C   0  0  0  0  0  1  0  0  0  0  0  0
  190.8030  175.7670  144.7820 C   0  0  0  0  0  0  0  0  0  0  0  0
  193.3610  174.7380  144.6110 C   0  0  0  0  0  0  0  0  0  0  0  0
  185.3200  178.5710  144.0390 O   0  0  0  0  0  0  0  0  0  0  0  0
  184.0300  178.6660  143.5130 C   0  0  0  0  0  2  0  0  0  0  0  0
  184.0490  178.2910  142.0730 C   0  0  0  0  0  0  0  0  0  0  0  0
  185.2490  178.2850  141.3730 O   0  0  0  0  0  0  0  0  0  0  0  0
  182.9740  178.0230  141.4770 O   0  0  0  0  0  1  0  0  0  0  0  0
  1 16  1  0  0  0  0
  2 23  1  0  0  0  0
  3 11  1  0  0  0  0
  4  3  2  0  0  0  0
  4 20  1  0  0  0  0
  5 24  1  0  0  0  0
  6  5  2  0  0  0  0
  6 18  1  0  0  0  0
  7 23  1  1  0  0  0
  7 19  1  0  0  0  0
  8 12  1  0  0  0  0
  9 15  1  0  0  0  0
 10 28  1  6  0  0  0
 10 17  1  0  0  0  0
 10  1  1  0  0  0  0
 11 13  2  0  0  0  0
 12  2  1  0  0  0  0
 13 12  1  0  0  0  0
 14 26  1  0  0  0  0
 15 18  2  0  0  0  0
 17  8  1  6  0  0  0
 17  7  1  0  0  0  0
 19 16  1  0  0  0  0
 20 21  2  0  0  0  0
 21 13  1  0  0  0  0
 21 14  1  0  0  0  0
 22 14  2  0  0  0  0
 22 27  1  0  0  0  0
 25  9  1  0  0  0  0
 26  2  2  0  0  0  0
 26  5  1  0  0  0  0
 27  9  2  0  0  0  0
 27  6  1  0  0  0  0
 29 28  1  0  0  0  0
 30 29  1  0  0  0  0
 31 30  2  0  0  0  0
 32 30  1  0  0  0  0
M  END
>  <MODEL>
2

>  <REMARK>
 VINA RESULT:      -8.5      3.840      8.740
  Name = 
  3 active torsions:
  status: ('A' for Active; 'I' for Inactive)
    1  A    between atoms: C_10  and  O_20
    2  A    between atoms: O_20  and  C_29
    3  A    between atoms: C_29  and  C_30
                            x       y       z     vdW  Elec       q    Type
                         _______ _______ _______ _____ _____    ______ ____

>  <TORSDO>
F 3

$$$$
=
 OpenBabel11112416343D

 32 37  0  0  1  0  0  0  0  0999 V2000
  184.6700  178.7920  143.6280 C   0  0  0  0  0  2  0  0  0  0  0  0
  188.7700  175.5380  143.3290 C   0  0  0  0  0  0  0  0  0  0  0  0
  190.9260  176.0320  147.6360 C   0  0  0  0  0  3  0  0  0  0  0  0
  191.9920  175.2460  147.2060 C   0  0  0  0  0  3  0  0  0  0  0  0
  189.8260  174.0480  141.5730 C   0  0  0  0  0  0  0  0  0  0  0  0
  190.9430  173.2880  141.2440 C   0  0  0  0  0  0  0  0  0  0  0  0
  186.4850  176.5850  142.9860 C   0  0  1  0  0  3  0  0  0  0  0  0
  187.6390  176.7740  145.1660 C   0  0  0  0  0  2  0  0  0  0  0  0
  192.8650  172.3050  141.4820 C   0  0  0  0  0  0  0  0  0  0  0  0
  185.6310  178.2500  144.7020 C   0  0  2  0  0  3  0  0  0  0  0  0
  189.8600  176.2920  146.7740 C   0  0  0  0  0  3  0  0  0  0  0  0
  188.7940  176.0390  144.6160 N   0  0  0  0  0  0  0  0  0  0  0  0
  189.8380  175.7700  145.4640 C   0  0  0  0  0  0  0  0  0  0  0  0
  190.9150  174.4280  143.7510 C   0  0  0  0  0  0  0  0  0  0  0  0
  192.3710  172.0000  140.2600 N   0  0  0  0  0  0  0  0  0  0  0  0
  185.2370  178.6890  142.2160 C   0  0  0  0  0  2  0  0  0  0  0  0
  186.8650  177.5430  144.1070 C   0  0  2  0  0  3  0  0  0  0  0  0
  191.1910  172.6020  140.1120 N   0  0  0  0  0  0  0  0  0  0  0  0
  185.6120  177.2400  141.9030 C   0  0  0  0  0  2  0  0  0  0  0  0
  191.9890  174.7180  145.9150 C   0  0  0  0  0  3  0  0  0  0  0  0
  190.9210  174.9720  145.0370 C   0  0  0  0  0  0  0  0  0  0  0  0
  191.9730  173.6560  143.3490 N   0  0  0  0  0  0  0  0  0  0  0  0
  187.7620  176.0840  142.3420 C   0  0  0  0  0  2  0  0  0  0  0  0
  188.5110  174.0800  140.3920 Cl  0  0  0  0  0  0  0  0  0  0  0  0
  194.1520  171.7950  142.0290 C   0  0  0  0  0  1  0  0  0  0  0  0
  189.8110  174.6780  142.8690 C   0  0  0  0  0  0  0  0  0  0  0  0
  191.9640  173.1220  142.1110 C   0  0  0  0  0  0  0  0  0  0  0  0
  184.9260  177.3950  145.5570 O   0  0  0  0  0  0  0  0  0  0  0  0
  184.4310  178.2250  146.5660 C   0  0  0  0  0  2  0  0  0  0  0  0
  185.4930  178.4630  147.5820 C   0  0  0  0  0  0  0  0  0  0  0  0
  185.9600  179.7510  147.8100 O   0  0  0  0  0  0  0  0  0  0  0  0
  186.0000  177.4930  148.2010 O   0  0  0  0  0  1  0  0  0  0  0  0
  1 10  1  0  0  0  0
  2 12  1  0  0  0  0
  4  3  1  0  0  0  0
  5 26  1  0  0  0  0
  6  5  2  0  0  0  0
  6 27  1  0  0  0  0
  7 19  1  6  0  0  0
  7 17  1  0  0  0  0
  9 25  1  0  0  0  0
  9 27  2  0  0  0  0
 10 28  1  1  0  0  0
 11  3  2  0  0  0  0
 12  8  1  0  0  0  0
 12 13  1  0  0  0  0
 13 11  1  0  0  0  0
 14 21  1  0  0  0  0
 15  9  1  0  0  0  0
 16  1  1  0  0  0  0
 17 10  1  0  0  0  0
 17  8  1  1  0  0  0
 18 15  2  0  0  0  0
 18  6  1  0  0  0  0
 19 16  1  0  0  0  0
 20  4  2  0  0  0  0
 21 13  2  0  0  0  0
 21 20  1  0  0  0  0
 22 14  2  0  0  0  0
 23  7  1  0  0  0  0
 23  2  1  0  0  0  0
 24  5  1  0  0  0  0
 26  2  2  0  0  0  0
 26 14  1  0  0  0  0
 27 22  1  0  0  0  0
 28 29  1  0  0  0  0
 29 30  1  0  0  0  0
 30 31  2  0  0  0  0
 30 32  1  0  0  0  0
M  END
>  <MODEL>
3

>  <REMARK>
 VINA RESULT:      -8.2      3.639      7.443
  Name = 
  3 active torsions:
  status: ('A' for Active; 'I' for Inactive)
    1  A    between atoms: C_10  and  O_20
    2  A    between atoms: O_20  and  C_29
    3  A    between atoms: C_29  and  C_30
                            x       y       z     vdW  Elec       q    Type
                         _______ _______ _______ _____ _____    ______ ____

>  <TORSDO>
F 3

$$$$
=
 OpenBabel11112416343D

 32 37  0  0  1  0  0  0  0  0999 V2000
  194.9230  175.1610  146.0690 C   0  0  0  0  0  2  0  0  0  0  0  0
  190.0300  176.0270  144.3970 C   0  0  0  0  0  0  0  0  0  0  0  0
  189.8660  173.7310  140.1370 C   0  0  0  0  0  3  0  0  0  0  0  0
  188.6030  174.2620  139.8860 C   0  0  0  0  0  3  0  0  0  0  0  0
  188.0160  177.3530  145.1740 C   0  0  0  0  0  0  0  0  0  0  0  0
  186.7620  177.8360  144.8170 C   0  0  0  0  0  0  0  0  0  0  0  0
  192.0430  175.6630  145.8980 C   0  0  1  0  0  3  0  0  0  0  0  0
  191.8760  174.5060  143.7170 C   0  0  0  0  0  2  0  0  0  0  0  0
  184.9760  178.1450  143.6200 C   0  0  0  0  0  0  0  0  0  0  0  0
  194.1000  174.5280  144.9340 C   0  0  2  0  0  3  0  0  0  0  0  0
  190.5260  174.0380  141.3270 C   0  0  0  0  0  3  0  0  0  0  0  0
  190.5970  175.1940  143.4530 N   0  0  0  0  0  0  0  0  0  0  0  0
  189.9380  174.8830  142.2900 C   0  0  0  0  0  0  0  0  0  0  0  0
  188.0450  176.2410  142.9750 C   0  0  0  0  0  0  0  0  0  0  0  0
  184.8230  178.7870  144.8010 N   0  0  0  0  0  0  0  0  0  0  0  0
  194.3820  176.5160  146.5130 C   0  0  0  0  0  2  0  0  0  0  0  0
  192.8000  175.2990  144.6270 C   0  0  2  0  0  3  0  0  0  0  0  0
  185.9170  178.5990  145.5380 N   0  0  0  0  0  0  0  0  0  0  0  0
  192.9170  176.3860  146.9340 C   0  0  0  0  0  2  0  0  0  0  0  0
  188.0020  175.0990  140.8260 C   0  0  0  0  0  3  0  0  0  0  0  0
  188.6570  175.4160  142.0290 C   0  0  0  0  0  0  0  0  0  0  0  0
  186.8020  176.7520  142.7080 N   0  0  0  0  0  0  0  0  0  0  0  0
  190.8920  176.5700  145.5150 C   0  0  0  0  0  2  0  0  0  0  0  0
  188.5710  177.7180  146.8120 Cl  0  0  0  0  0  0  0  0  0  0  0  0
  183.9520  178.0960  142.5410 C   0  0  0  0  0  1  0  0  0  0  0  0
  188.7140  176.5440  144.2070 C   0  0  0  0  0  0  0  0  0  0  0  0
  186.2040  177.5400  143.6240 C   0  0  0  0  0  0  0  0  0  0  0  0
  193.8280  173.1930  145.2550 O   0  0  0  0  0  0  0  0  0  0  0  0
  194.8800  172.4670  144.6930 C   0  0  0  0  0  2  0  0  0  0  0  0
  195.3960  171.4850  145.6860 C   0  0  0  0  0  0  0  0  0  0  0  0
  196.7130  171.5650  146.1220 O   0  0  0  0  0  1  0  0  0  0  0  0
  194.6540  170.5560  146.0960 O   0  0  0  0  0  0  0  0  0  0  0  0
  1 16  1  0  0  0  0
  2 23  1  0  0  0  0
  3 11  1  0  0  0  0
  4  3  2  0  0  0  0
  4 20  1  0  0  0  0
  5 24  1  0  0  0  0
  6  5  2  0  0  0  0
  6 18  1  0  0  0  0
  7 23  1  6  0  0  0
  7 19  1  0  0  0  0
  9 27  2  0  0  0  0
  9 15  1  0  0  0  0
 10 28  1  1  0  0  0
 10  1  1  0  0  0  0
 11 13  2  0  0  0  0
 12  8  1  0  0  0  0
 12  2  1  0  0  0  0
 13 12  1  0  0  0  0
 14 26  1  0  0  0  0
 15 18  2  0  0  0  0
 16 19  1  0  0  0  0
 17  8  1  6  0  0  0
 17 10  1  0  0  0  0
 17  7  1  0  0  0  0
 20 21  2  0  0  0  0
 21 13  1  0  0  0  0
 21 14  1  0  0  0  0
 22 14  2  0  0  0  0
 22 27  1  0  0  0  0
 25  9  1  0  0  0  0
 26  2  2  0  0  0  0
 26  5  1  0  0  0  0
 27  6  1  0  0  0  0
 29 28  1  0  0  0  0
 29 30  1  0  0  0  0
 30 32  2  0  0  0  0
 30 31  1  0  0  0  0
M  END
>  <MODEL>
4

>  <REMARK>
 VINA RESULT:      -8.1      2.684      5.216
  Name = 
  3 active torsions:
  status: ('A' for Active; 'I' for Inactive)
    1  A    between atoms: C_10  and  O_20
    2  A    between atoms: O_20  and  C_29
    3  A    between atoms: C_29  and  C_30
                            x       y       z     vdW  Elec       q    Type
                         _______ _______ _______ _____ _____    ______ ____

>  <TORSDO>
F 3

$$$$
=
 OpenBabel11112416343D

 32 37  0  0  1  0  0  0  0  0999 V2000
  185.7540  178.4670  141.7150 C   0  0  0  0  0  2  0  0  0  0  0  0
  189.4770  175.4280  143.8090 C   0  0  0  0  0  0  0  0  0  0  0  0
  190.4340  177.5650  148.0470 C   0  0  0  0  0  3  0  0  0  0  0  0
  191.5020  176.6960  148.2580 C   0  0  0  0  0  3  0  0  0  0  0  0
  190.8290  173.4060  143.1030 C   0  0  0  0  0  0  0  0  0  0  0  0
  191.9220  172.6010  143.4070 C   0  0  0  0  0  0  0  0  0  0  0  0
  187.4710  176.2200  142.4740 C   0  0  1  0  0  3  0  0  0  0  0  0
  188.0100  177.2460  144.6590 C   0  0  0  0  0  2  0  0  0  0  0  0
  193.6150  171.8220  144.5230 C   0  0  0  0  0  0  0  0  0  0  0  0
  186.3390  178.3940  143.1370 C   0  0  2  0  0  3  0  0  0  0  0  0
  189.6660  177.4560  146.8880 C   0  0  0  0  0  3  0  0  0  0  0  0
  189.2000  176.3810  144.7700 N   0  0  0  0  0  0  0  0  0  0  0  0
  189.9500  176.4750  145.9150 C   0  0  0  0  0  0  0  0  0  0  0  0
  191.3230  174.6060  145.1970 C   0  0  0  0  0  0  0  0  0  0  0  0
  193.4410  171.0650  143.4140 N   0  0  0  0  0  0  0  0  0  0  0  0
  186.6670  177.8480  140.6630 C   0  0  0  0  0  2  0  0  0  0  0  0
  187.6200  177.5400  143.2200 C   0  0  2  0  0  3  0  0  0  0  0  0
  192.4020  171.5410  142.7280 N   0  0  0  0  0  0  0  0  0  0  0  0
  186.9820  176.3960  141.0270 C   0  0  0  0  0  2  0  0  0  0  0  0
  191.7990  175.7180  147.3090 C   0  0  0  0  0  3  0  0  0  0  0  0
  191.0320  175.5980  146.1370 C   0  0  0  0  0  0  0  0  0  0  0  0
  192.3780  173.7610  145.4250 N   0  0  0  0  0  0  0  0  0  0  0  0
  188.8240  175.5380  142.4500 C   0  0  0  0  0  2  0  0  0  0  0  0
  189.8880  172.9600  141.6740 Cl  0  0  0  0  0  0  0  0  0  0  0  0
  194.6570  171.5840  145.5590 C   0  0  0  0  0  1  0  0  0  0  0  0
  190.5230  174.4800  144.0130 C   0  0  0  0  0  0  0  0  0  0  0  0
  192.6540  172.7970  144.5240 C   0  0  0  0  0  0  0  0  0  0  0  0
  185.3570  177.9130  144.0110 O   0  0  0  0  0  0  0  0  0  0  0  0
  184.9030  179.0430  144.6960 C   0  0  0  0  0  2  0  0  0  0  0  0
  184.8570  178.7560  146.1560 C   0  0  0  0  0  0  0  0  0  0  0  0
  185.7450  179.3890  147.0170 O   0  0  0  0  0  1  0  0  0  0  0  0
  184.0460  177.9060  146.6050 O   0  0  0  0  0  0  0  0  0  0  0  0
  1 10  1  0  0  0  0
  2 26  2  0  0  0  0
  2 12  1  0  0  0  0
  3  4  1  0  0  0  0
  5  6  2  0  0  0  0
  5 26  1  0  0  0  0
  6 27  1  0  0  0  0
  7 19  1  6  0  0  0
  7 17  1  0  0  0  0
  8 12  1  0  0  0  0
  9 27  2  0  0  0  0
  9 25  1  0  0  0  0
 10 17  1  0  0  0  0
 10 28  1  1  0  0  0
 11  3  2  0  0  0  0
 12 13  1  0  0  0  0
 13 21  2  0  0  0  0
 13 11  1  0  0  0  0
 14 22  2  0  0  0  0
 14 21  1  0  0  0  0
 15  9  1  0  0  0  0
 16 19  1  0  0  0  0
 16  1  1  0  0  0  0
 17  8  1  1  0  0  0
 18  6  1  0  0  0  0
 18 15  2  0  0  0  0
 20  4  2  0  0  0  0
 21 20  1  0  0  0  0
 23  7  1  0  0  0  0
 23  2  1  0  0  0  0
 24  5  1  0  0  0  0
 26 14  1  0  0  0  0
 27 22  1  0  0  0  0
 28 29  1  0  0  0  0
 29 30  1  0  0  0  0
 30 32  2  0  0  0  0
 30 31  1  0  0  0  0
M  END
>  <MODEL>
5

>  <REMARK>
 VINA RESULT:      -8.0      3.926      7.816
  Name = 
  3 active torsions:
  status: ('A' for Active; 'I' for Inactive)
    1  A    between atoms: C_10  and  O_20
    2  A    between atoms: O_20  and  C_29
    3  A    between atoms: C_29  and  C_30
                            x       y       z     vdW  Elec       q    Type
                         _______ _______ _______ _____ _____    ______ ____

>  <TORSDO>
F 3

$$$$
=
 OpenBabel11112416343D

 32 37  0  0  1  0  0  0  0  0999 V2000
  190.3390  172.3620  139.3540 C   0  0  0  0  0  2  0  0  0  0  0  0
  188.8010  175.5600  143.2130 C   0  0  0  0  0  0  0  0  0  0  0  0
  192.3070  175.1100  146.5220 C   0  0  0  0  0  3  0  0  0  0  0  0
  191.5720  175.8760  147.4230 C   0  0  0  0  0  3  0  0  0  0  0  0
  186.7860  177.0070  143.7250 C   0  0  0  0  0  0  0  0  0  0  0  0
  186.1320  177.7470  144.7050 C   0  0  0  0  0  0  0  0  0  0  0  0
  189.1550  174.5350  140.9200 C   0  0  1  0  0  3  0  0  0  0  0  0
  190.9100  174.3680  142.6550 C   0  0  0  0  0  2  0  0  0  0  0  0
  185.7840  178.7100  146.6200 C   0  0  0  0  0  0  0  0  0  0  0  0
  191.0770  172.9090  140.5880 C   0  0  2  0  0  3  0  0  0  0  0  0
  191.7960  174.8490  145.2500 C   0  0  0  0  0  3  0  0  0  0  0  0
  190.0350  175.0800  143.6060 N   0  0  0  0  0  0  0  0  0  0  0  0
  190.5390  175.3500  144.8530 C   0  0  0  0  0  0  0  0  0  0  0  0
  188.5610  176.6490  145.3960 C   0  0  0  0  0  0  0  0  0  0  0  0
  184.7520  179.0010  145.7940 N   0  0  0  0  0  0  0  0  0  0  0  0
  188.8210  172.4350  139.4870 C   0  0  0  0  0  2  0  0  0  0  0  0
  190.1370  173.5910  141.6020 C   0  0  2  0  0  3  0  0  0  0  0  0
  184.9640  178.4120  144.6180 N   0  0  0  0  0  0  0  0  0  0  0  0
  188.3850  173.8740  139.7650 C   0  0  0  0  0  2  0  0  0  0  0  0
  190.3270  176.3820  147.0500 C   0  0  0  0  0  3  0  0  0  0  0  0
  189.8010  176.1270  145.7710 C   0  0  0  0  0  0  0  0  0  0  0  0
  187.8550  177.4010  146.2980 N   0  0  0  0  0  0  0  0  0  0  0  0
  188.1600  175.0100  141.9580 C   0  0  0  0  0  2  0  0  0  0  0  0
  186.0370  176.9720  142.1250 Cl  0  0  0  0  0  0  0  0  0  0  0  0
  185.9250  179.2130  148.0140 C   0  0  0  0  0  1  0  0  0  0  0  0
  188.0420  176.3990  144.0820 C   0  0  0  0  0  0  0  0  0  0  0  0
  186.6630  177.9160  145.9340 C   0  0  0  0  0  0  0  0  0  0  0  0
  192.0830  173.7870  140.1670 O   0  0  0  0  0  0  0  0  0  0  0  0
  192.3150  173.4520  138.8310 C   0  0  0  0  0  2  0  0  0  0  0  0
  193.0860  174.5410  138.1710 C   0  0  0  0  0  0  0  0  0  0  0  0
  194.2140  175.0660  138.7890 O   0  0  0  0  0  1  0  0  0  0  0  0
  192.6920  175.0160  137.0760 O   0  0  0  0  0  0  0  0  0  0  0  0
  1 16  1  0  0  0  0
  1 10  1  0  0  0  0
  2 12  1  0  0  0  0
  2 26  2  0  0  0  0
  3  4  1  0  0  0  0
  5 26  1  0  0  0  0
  5  6  2  0  0  0  0
  6 27  1  0  0  0  0
  7 19  1  6  0  0  0
  7 17  1  0  0  0  0
  7 23  1  0  0  0  0
  8 12  1  0  0  0  0
  9 25  1  0  0  0  0
 10 28  1  6  0  0  0
 10 17  1  0  0  0  0
 11  3  2  0  0  0  0
 12 13  1  0  0  0  0
 13 11  1  0  0  0  0
 13 21  2  0  0  0  0
 14 21  1  0  0  0  0
 14 22  2  0  0  0  0
 15  9  1  0  0  0  0
 16 19  1  0  0  0  0
 17  8  1  1  0  0  0
 18  6  1  0  0  0  0
 18 15  2  0  0  0  0
 20  4  2  0  0  0  0
 21 20  1  0  0  0  0
 23  2  1  0  0  0  0
 24  5  1  0  0  0  0
 26 14  1  0  0  0  0
 27 22  1  0  0  0  0
 27  9  2  0  0  0  0
 29 28  1  0  0  0  0
 30 31  1  0  0  0  0
 30 29  1  0  0  0  0
 32 30  2  0  0  0  0
M  END
>  <MODEL>
6

>  <REMARK>
 VINA RESULT:      -7.7      3.161      5.290
  Name = 
  3 active torsions:
  status: ('A' for Active; 'I' for Inactive)
    1  A    between atoms: C_10  and  O_20
    2  A    between atoms: O_20  and  C_29
    3  A    between atoms: C_29  and  C_30
                            x       y       z     vdW  Elec       q    Type
                         _______ _______ _______ _____ _____    ______ ____

>  <TORSDO>
F 3

$$$$
=
 OpenBabel11112416343D

 32 37  0  0  1  0  0  0  0  0999 V2000
  185.5800  177.7880  145.0360 C   0  0  0  0  0  2  0  0  0  0  0  0
  189.6790  174.7580  143.8120 C   0  0  0  0  0  0  0  0  0  0  0  0
  188.5120  172.9730  139.4640 C   0  0  0  0  0  3  0  0  0  0  0  0
  189.6230  172.1350  139.4970 C   0  0  0  0  0  3  0  0  0  0  0  0
  191.8190  173.9980  144.9340 C   0  0  0  0  0  0  0  0  0  0  0  0
  192.8900  173.1130  144.8680 C   0  0  0  0  0  0  0  0  0  0  0  0
  188.2500  176.6120  144.7880 C   0  0  1  0  0  3  0  0  0  0  0  0
  187.7310  175.6670  142.5620 C   0  0  0  0  0  2  0  0  0  0  0  0
  194.2000  171.5760  144.0690 C   0  0  0  0  0  0  0  0  0  0  0  0
  186.0070  177.1260  143.7140 C   0  0  2  0  0  3  0  0  0  0  0  0
  188.2580  173.8360  140.5310 C   0  0  0  0  0  3  0  0  0  0  0  0
  188.8520  174.7170  142.7060 N   0  0  0  0  0  0  0  0  0  0  0  0
  189.1120  173.8770  141.6530 C   0  0  0  0  0  0  0  0  0  0  0  0
  191.1080  173.0610  142.7690 C   0  0  0  0  0  0  0  0  0  0  0  0
  194.7130  172.0160  145.2420 N   0  0  0  0  0  0  0  0  0  0  0  0
  186.2170  177.1400  146.2600 C   0  0  0  0  0  2  0  0  0  0  0  0
  187.1330  176.0880  143.8950 C   0  0  2  0  0  3  0  0  0  0  0  0
  193.9110  172.9600  145.7340 N   0  0  0  0  0  0  0  0  0  0  0  0
  187.7410  177.1580  146.1320 C   0  0  0  0  0  2  0  0  0  0  0  0
  190.4810  172.1610  140.5960 C   0  0  0  0  0  3  0  0  0  0  0  0
  190.2370  173.0260  141.6780 C   0  0  0  0  0  0  0  0  0  0  0  0
  192.1960  172.2280  142.7800 N   0  0  0  0  0  0  0  0  0  0  0  0
  189.2100  175.4720  145.0600 C   0  0  0  0  0  2  0  0  0  0  0  0
  191.8080  175.1310  146.2910 Cl  0  0  0  0  0  0  0  0  0  0  0  0
  194.8290  170.5430  143.2020 C   0  0  0  0  0  1  0  0  0  0  0  0
  190.8610  173.9600  143.8590 C   0  0  0  0  0  0  0  0  0  0  0  0
  193.0440  172.2680  143.8270 C   0  0  0  0  0  0  0  0  0  0  0  0
  186.3830  178.1210  142.8050 O   0  0  0  0  0  0  0  0  0  0  0  0
  185.1790  178.6610  142.3450 C   0  0  0  0  0  2  0  0  0  0  0  0
  184.9850  178.3010  140.9140 C   0  0  0  0  0  0  0  0  0  0  0  0
  183.7090  178.3080  140.3630 O   0  0  0  0  0  1  0  0  0  0  0  0
  185.9680  177.9460  140.2150 O   0  0  0  0  0  0  0  0  0  0  0  0
  1 16  1  0  0  0  0
  2 26  2  0  0  0  0
  2 23  1  0  0  0  0
  3  4  2  0  0  0  0
  3 11  1  0  0  0  0
  4 20  1  0  0  0  0
  5 24  1  0  0  0  0
  6  5  2  0  0  0  0
  6 18  1  0  0  0  0
  7 23  1  1  0  0  0
  7 19  1  0  0  0  0
  8 12  1  0  0  0  0
  9 15  1  0  0  0  0
 10 28  1  6  0  0  0
 10 17  1  0  0  0  0
 10  1  1  0  0  0  0
 11 13  2  0  0  0  0
 12  2  1  0  0  0  0
 13 21  1  0  0  0  0
 13 12  1  0  0  0  0
 14 22  2  0  0  0  0
 14 26  1  0  0  0  0
 15 18  2  0  0  0  0
 17  8  1  6  0  0  0
 17  7  1  0  0  0  0
 19 16  1  0  0  0  0
 20 21  2  0  0  0  0
 21 14  1  0  0  0  0
 22 27  1  0  0  0  0
 25  9  1  0  0  0  0
 26  5  1  0  0  0  0
 27  9  2  0  0  0  0
 27  6  1  0  0  0  0
 29 28  1  0  0  0  0
 30 29  1  0  0  0  0
 31 30  1  0  0  0  0
 32 30  2  0  0  0  0
M  END
>  <MODEL>
7

>  <REMARK>
 VINA RESULT:      -7.6      4.251      9.000
  Name = 
  3 active torsions:
  status: ('A' for Active; 'I' for Inactive)
    1  A    between atoms: C_10  and  O_20
    2  A    between atoms: O_20  and  C_29
    3  A    between atoms: C_29  and  C_30
                            x       y       z     vdW  Elec       q    Type
                         _______ _______ _______ _____ _____    ______ ____

>  <TORSDO>
F 3

$$$$
=
 OpenBabel11112416343D

 32 37  0  0  1  0  0  0  0  0999 V2000
  193.5390  172.6280  141.2710 C   0  0  0  0  0  2  0  0  0  0  0  0
  189.8370  175.6990  143.3590 C   0  0  0  0  0  0  0  0  0  0  0  0
  191.6130  176.8050  147.7260 C   0  0  0  0  0  3  0  0  0  0  0  0
  190.4140  177.4240  148.0690 C   0  0  0  0  0  3  0  0  0  0  0  0
  187.5280  176.5140  142.7120 C   0  0  0  0  0  0  0  0  0  0  0  0
  186.3730  177.1450  143.1630 C   0  0  0  0  0  0  0  0  0  0  0  0
  191.3500  174.5270  141.6930 C   0  0  1  0  0  3  0  0  0  0  0  0
  192.1920  175.1460  143.9350 C   0  0  0  0  0  2  0  0  0  0  0  0
  185.0400  178.2090  144.5080 C   0  0  0  0  0  0  0  0  0  0  0  0
  193.5410  173.5400  142.5110 C   0  0  2  0  0  3  0  0  0  0  0  0
  191.7620  176.2280  146.4640 C   0  0  0  0  0  3  0  0  0  0  0  0
  190.8610  175.6790  144.2860 N   0  0  0  0  0  0  0  0  0  0  0  0
  190.7150  176.2590  145.5200 C   0  0  0  0  0  0  0  0  0  0  0  0
  188.4580  176.9510  144.9520 C   0  0  0  0  0  0  0  0  0  0  0  0
  184.4190  178.0520  143.3160 N   0  0  0  0  0  0  0  0  0  0  0  0
  192.1340  172.2500  140.8130 C   0  0  0  0  0  2  0  0  0  0  0  0
  192.1330  174.0320  142.9020 C   0  0  2  0  0  3  0  0  0  0  0  0
  185.2350  177.4010  142.4880 N   0  0  0  0  0  0  0  0  0  0  0  0
  191.3110  173.5090  140.5410 C   0  0  0  0  0  2  0  0  0  0  0  0
  189.3660  177.4680  147.1500 C   0  0  0  0  0  3  0  0  0  0  0  0
  189.5040  176.8910  145.8750 C   0  0  0  0  0  0  0  0  0  0  0  0
  187.2870  177.5670  145.3110 N   0  0  0  0  0  0  0  0  0  0  0  0
  189.9290  174.8120  142.1370 C   0  0  0  0  0  2  0  0  0  0  0  0
  187.5570  176.0310  141.0120 Cl  0  0  0  0  0  0  0  0  0  0  0  0
  184.4600  178.9170  145.6820 C   0  0  0  0  0  1  0  0  0  0  0  0
  188.6150  176.3750  143.6470 C   0  0  0  0  0  0  0  0  0  0  0  0
  186.2800  177.6350  144.4170 C   0  0  0  0  0  0  0  0  0  0  0  0
  194.4050  174.6170  142.2850 O   0  0  0  0  0  0  0  0  0  0  0  0
  195.5990  174.2570  142.9150 C   0  0  0  0  0  2  0  0  0  0  0  0
  196.0180  175.3400  143.8470 C   0  0  0  0  0  0  0  0  0  0  0  0
  195.5350  175.3600  145.1500 O   0  0  0  0  0  1  0  0  0  0  0  0
  196.7710  176.2620  143.4420 O   0  0  0  0  0  0  0  0  0  0  0  0
  1 10  1  0  0  0  0
  2 26  2  0  0  0  0
  2 12  1  0  0  0  0
  3  4  1  0  0  0  0
  5  6  2  0  0  0  0
  5 26  1  0  0  0  0
  6 27  1  0  0  0  0
  7 19  1  6  0  0  0
  7 23  1  0  0  0  0
  7 17  1  0  0  0  0
  8 12  1  0  0  0  0
  9 25  1  0  0  0  0
 10 28  1  6  0  0  0
 10 17  1  0  0  0  0
 11  3  2  0  0  0  0
 12 13  1  0  0  0  0
 13 21  2  0  0  0  0
 13 11  1  0  0  0  0
 14 22  2  0  0  0  0
 14 21  1  0  0  0  0
 15  9  1  0  0  0  0
 16  1  1  0  0  0  0
 17  8  1  1  0  0  0
 18  6  1  0  0  0  0
 18 15  2  0  0  0  0
 19 16  1  0  0  0  0
 20  4  2  0  0  0  0
 21 20  1  0  0  0  0
 23  2  1  0  0  0  0
 24  5  1  0  0  0  0
 26 14  1  0  0  0  0
 27  9  2  0  0  0  0
 27 22  1  0  0  0  0
 28 29  1  0  0  0  0
 29 30  1  0  0  0  0
 30 31  1  0  0  0  0
 32 30  2  0  0  0  0
M  END
>  <MODEL>
8

>  <REMARK>
 VINA RESULT:      -7.6      2.136      3.659
  Name = 
  3 active torsions:
  status: ('A' for Active; 'I' for Inactive)
    1  A    between atoms: C_10  and  O_20
    2  A    between atoms: O_20  and  C_29
    3  A    between atoms: C_29  and  C_30
                            x       y       z     vdW  Elec       q    Type
                         _______ _______ _______ _____ _____    ______ ____

>  <TORSDO>
F 3

$$$$
=
 OpenBabel11112416343D

 32 37  0  0  1  0  0  0  0  0999 V2000
  186.0060  178.8670  143.5000 C   0  0  0  0  0  2  0  0  0  0  0  0
  189.3310  174.8520  142.9480 C   0  0  0  0  0  0  0  0  0  0  0  0
  192.4280  175.4310  146.6250 C   0  0  0  0  0  3  0  0  0  0  0  0
  193.2250  174.4020  146.1310 C   0  0  0  0  0  3  0  0  0  0  0  0
  189.7120  172.9800  141.2850 C   0  0  0  0  0  0  0  0  0  0  0  0
  190.5860  171.9790  140.8740 C   0  0  0  0  0  0  0  0  0  0  0  0
  187.2370  176.2830  142.8850 C   0  0  1  0  0  3  0  0  0  0  0  0
  188.8540  176.5040  144.7440 C   0  0  0  0  0  2  0  0  0  0  0  0
  192.3190  170.6700  140.8940 C   0  0  0  0  0  0  0  0  0  0  0  0
  187.0720  178.2810  144.4420 C   0  0  2  0  0  3  0  0  0  0  0  0
  191.2590  175.7900  145.9530 C   0  0  0  0  0  3  0  0  0  0  0  0
  189.7200  175.4920  144.1080 N   0  0  0  0  0  0  0  0  0  0  0  0
  190.8630  175.1270  144.7730 C   0  0  0  0  0  0  0  0  0  0  0  0
  191.2980  173.3990  143.1230 C   0  0  0  0  0  0  0  0  0  0  0  0
  191.5260  170.3230  139.8540 N   0  0  0  0  0  0  0  0  0  0  0  0
  186.2250  178.4820  142.0410 C   0  0  0  0  0  2  0  0  0  0  0  0
  188.0090  177.2760  143.7440 C   0  0  2  0  0  3  0  0  0  0  0  0
  190.4610  171.1240  139.8400 N   0  0  0  0  0  0  0  0  0  0  0  0
  186.2720  176.9610  141.8980 C   0  0  0  0  0  2  0  0  0  0  0  0
  192.8520  173.7320  144.9660 C   0  0  0  0  0  3  0  0  0  0  0  0
  191.6760  174.0840  144.2800 C   0  0  0  0  0  0  0  0  0  0  0  0
  192.0970  172.3890  142.6550 N   0  0  0  0  0  0  0  0  0  0  0  0
  188.2400  175.4630  142.0980 C   0  0  0  0  0  2  0  0  0  0  0  0
  188.1960  173.1280  140.3870 Cl  0  0  0  0  0  0  0  0  0  0  0  0
  193.5890  169.9860  141.2590 C   0  0  0  0  0  1  0  0  0  0  0  0
  190.0870  173.7540  142.4400 C   0  0  0  0  0  0  0  0  0  0  0  0
  191.7280  171.7200  141.5440 C   0  0  0  0  0  0  0  0  0  0  0  0
  186.4370  177.6940  145.5420 O   0  0  0  0  0  0  0  0  0  0  0  0
  185.6650  178.7170  146.0990 C   0  0  0  0  0  2  0  0  0  0  0  0
  185.9890  178.8560  147.5460 C   0  0  0  0  0  0  0  0  0  0  0  0
  185.9400  177.7450  148.3780 O   0  0  0  0  0  1  0  0  0  0  0  0
  186.2640  179.9860  148.0230 O   0  0  0  0  0  0  0  0  0  0  0  0
  1 10  1  0  0  0  0
  2 12  1  0  0  0  0
  4  3  1  0  0  0  0
  5 26  1  0  0  0  0
  6  5  2  0  0  0  0
  6 27  1  0  0  0  0
  7 19  1  6  0  0  0
  7 17  1  0  0  0  0
  9 25  1  0  0  0  0
  9 27  2  0  0  0  0
 10 28  1  1  0  0  0
 11  3  2  0  0  0  0
 12  8  1  0  0  0  0
 12 13  1  0  0  0  0
 13 11  1  0  0  0  0
 14 21  1  0  0  0  0
 15  9  1  0  0  0  0
 16  1  1  0  0  0  0
 17 10  1  0  0  0  0
 17  8  1  1  0  0  0
 18 15  2  0  0  0  0
 18  6  1  0  0  0  0
 19 16  1  0  0  0  0
 20  4  2  0  0  0  0
 21 13  2  0  0  0  0
 21 20  1  0  0  0  0
 22 14  2  0  0  0  0
 23  7  1  0  0  0  0
 23  2  1  0  0  0  0
 24  5  1  0  0  0  0
 26  2  2  0  0  0  0
 26 14  1  0  0  0  0
 27 22  1  0  0  0  0
 28 29  1  0  0  0  0
 29 30  1  0  0  0  0
 30 32  2  0  0  0  0
 30 31  1  0  0  0  0
M  END
>  <MODEL>
9

>  <REMARK>
 VINA RESULT:      -7.6      3.761      7.691
  Name = 
  3 active torsions:
  status: ('A' for Active; 'I' for Inactive)
    1  A    between atoms: C_10  and  O_20
    2  A    between atoms: O_20  and  C_29
    3  A    between atoms: C_29  and  C_30
                            x       y       z     vdW  Elec       q    Type
                         _______ _______ _______ _____ _____    ______ ____

>  <TORSDO>
F 3

$$$$
