=
 OpenBabel11112416343D

 32 38  0  0  1  0  0  0  0  0999 V2000
  185.5200  179.1390  144.0580 C   0  0  1  0  0  3  0  0  0  0  0  0
  189.1670  175.4210  143.2820 C   0  0  0  0  0  0  0  0  0  0  0  0
  192.3490  176.2750  146.8500 C   0  0  0  0  0  3  0  0  0  0  0  0
  193.1860  175.1460  146.4020 C   0  0  0  0  0  3  0  0  0  0  0  0
  189.6770  173.8410  141.4340 C   0  0  1  0  0  3  0  0  0  0  0  0
  190.9310  173.4810  140.7100 C   0  0  0  0  0  0  0  0  0  0  0  0
  186.9390  176.5860  143.3060 C   0  0  1  0  0  3  0  0  0  0  0  0
  188.4800  176.9100  145.2130 C   0  0  0  0  0  2  0  0  0  0  0  0
  192.9500  172.8850  140.3880 C   0  0  0  0  0  0  0  0  0  0  0  0
  186.6300  178.5790  144.9480 C   0  0  2  0  0  3  0  0  0  0  0  0
  191.1140  176.4500  146.3690 C   0  0  0  0  0  3  0  0  0  0  0  0
  189.4690  176.0410  144.5600 N   0  0  0  0  0  0  0  0  0  0  0  0
  190.4830  175.4400  145.4370 C   0  0  1  0  0  3  0  0  0  0  0  0
  191.2620  174.1320  143.4730 C   0  0  0  0  0  0  0  0  0  0  0  0
  192.3100  172.9390  139.1640 C   0  0  0  0  0  3  0  0  0  0  0  0
  185.5860  178.6490  142.5960 C   0  0  0  0  0  2  0  0  0  0  0  0
  187.6000  177.6340  144.2080 C   0  0  2  0  0  3  0  0  0  0  0  0
  191.0250  173.3160  139.3740 N   0  0  0  0  0  0  0  0  0  0  0  0
  185.8310  177.1460  142.4100 C   0  0  0  0  0  2  0  0  0  0  0  0
  185.2070  178.0440  145.0720 C   0  0  1  0  0  3  0  0  0  0  0  0
  192.8110  174.3830  145.3730 C   0  0  0  0  0  3  0  0  0  0  0  0
  191.5270  174.6430  144.6860 C   0  0  0  0  0  0  0  0  0  0  0  0
  192.2720  173.2330  142.7940 C   0  0  0  0  0  2  0  0  0  0  0  0
  188.0040  175.9180  142.4550 C   0  0  0  0  0  2  0  0  0  0  0  0
  188.8390  172.5940  141.6550 C   0  0  0  0  0  1  0  0  0  0  0  0
  194.3660  172.4870  140.6140 C   0  0  0  0  0  1  0  0  0  0  0  0
  189.9960  174.4920  142.7650 C   0  0  0  0  0  0  0  0  0  0  0  0
  192.0820  173.2340  141.3490 N   0  0  0  0  0  0  0  0  0  0  0  0
  184.5480  178.6630  146.2890 C   0  0  0  0  0  2  0  0  0  0  0  0
  185.5040  178.6780  147.4300 C   0  0  0  0  0  0  0  0  0  0  0  0
  185.8890  177.4570  148.0520 N   0  0  0  0  0  1  0  0  0  0  0  0
  185.9470  179.7710  147.8670 O   0  0  0  0  0  0  0  0  0  0  0  0
  1 16  1  6  0  0  0
  1 10  1  0  0  0  0
  1 20  1  0  0  0  0
  2 12  1  0  0  0  0
  4  3  1  0  0  0  0
  5 25  1  1  0  0  0
  5 27  1  0  0  0  0
  6 28  1  0  0  0  0
  6  5  1  0  0  0  0
  7 19  1  6  0  0  0
  7 17  1  0  0  0  0
  9 26  1  0  0  0  0
  9 28  1  0  0  0  0
 10 20  1  0  0  0  0
 11  3  2  0  0  0  0
 12  8  1  0  0  0  0
 12 13  1  0  0  0  0
 13 11  1  0  0  0  0
 14 22  2  0  0  0  0
 15 18  1  0  0  0  0
 15  9  2  0  0  0  0
 17 10  1  0  0  0  0
 17  8  1  0  0  0  0
 18  6  2  0  0  0  0
 19 16  1  0  0  0  0
 20 29  1  0  0  0  0
 21  4  2  0  0  0  0
 22 21  1  0  0  0  0
 22 13  1  0  0  0  0
 23 14  1  0  0  0  0
 24  2  1  0  0  0  0
 24  7  1  0  0  0  0
 27  2  2  0  0  0  0
 27 14  1  0  0  0  0
 28 23  1  0  0  0  0
 29 30  1  0  0  0  0
 30 32  2  0  0  0  0
 30 31  1  0  0  0  0
M  END
>  <MODEL>
1

>  <REMARK>
 VINA RESULT:      -8.9      0.000      0.000
  Name = 
  2 active torsions:
  status: ('A' for Active; 'I' for Inactive)
    1  A    between atoms: C_20  and  C_29
    2  A    between atoms: C_29  and  C_30
                            x       y       z     vdW  Elec       q    Type
                         _______ _______ _______ _____ _____    ______ ____

>  <TORSDO>
F 2

$$$$
=
 OpenBabel11112416343D

 32 38  0  0  1  0  0  0  0  0999 V2000
  195.3110  176.0210  145.4960 C   0  0  1  0  0  3  0  0  0  0  0  0
  190.1820  175.8780  144.3180 C   0  0  0  0  0  0  0  0  0  0  0  0
  190.1270  173.6130  140.0240 C   0  0  0  0  0  3  0  0  0  0  0  0
  188.6560  173.7090  139.9670 C   0  0  0  0  0  3  0  0  0  0  0  0
  188.1540  176.9870  145.2310 C   0  0  1  0  0  3  0  0  0  0  0  0
  187.0160  177.7200  144.6020 C   0  0  0  0  0  0  0  0  0  0  0  0
  192.3020  175.9200  145.6680 C   0  0  1  0  0  3  0  0  0  0  0  0
  192.2490  174.6260  143.5620 C   0  0  0  0  0  2  0  0  0  0  0  0
  185.3890  178.1370  143.2930 C   0  0  0  0  0  0  0  0  0  0  0  0
  194.5050  175.2000  144.4900 C   0  0  2  0  0  3  0  0  0  0  0  0
  190.7930  173.8870  141.1500 C   0  0  0  0  0  3  0  0  0  0  0  0
  190.8560  175.0400  143.3440 N   0  0  0  0  0  0  0  0  0  0  0  0
  190.0640  174.1980  142.4380 C   0  0  1  0  0  3  0  0  0  0  0  0
  188.0860  175.5690  143.0530 C   0  0  0  0  0  0  0  0  0  0  0  0
  185.4520  179.1380  144.2440 C   0  0  0  0  0  3  0  0  0  0  0  0
  194.5000  177.1440  146.1770 C   0  0  0  0  0  2  0  0  0  0  0  0
  193.0380  175.6580  144.3510 C   0  0  2  0  0  3  0  0  0  0  0  0
  186.4860  178.8660  145.0760 N   0  0  0  0  0  0  0  0  0  0  0  0
  193.1060  176.7460  146.6760 C   0  0  0  0  0  2  0  0  0  0  0  0
  194.8510  174.6120  145.8530 C   0  0  1  0  0  3  0  0  0  0  0  0
  187.9680  174.2530  140.9740 C   0  0  0  0  0  3  0  0  0  0  0  0
  188.6750  174.7380  142.1780 C   0  0  0  0  0  0  0  0  0  0  0  0
  186.6500  175.9980  142.8400 C   0  0  0  0  0  2  0  0  0  0  0  0
  190.9810  176.6070  145.3730 C   0  0  0  0  0  2  0  0  0  0  0  0
  187.6400  176.1300  146.3740 C   0  0  0  0  0  1  0  0  0  0  0  0
  184.3810  178.0320  142.2030 C   0  0  0  0  0  1  0  0  0  0  0  0
  188.8590  176.1170  144.2090 C   0  0  0  0  0  0  0  0  0  0  0  0
  186.3760  177.2580  143.5190 N   0  0  0  0  0  0  0  0  0  0  0  0
  196.0140  173.6520  145.6990 C   0  0  0  0  0  2  0  0  0  0  0  0
  195.5130  172.3120  145.2840 C   0  0  0  0  0  0  0  0  0  0  0  0
  194.2360  171.8640  145.7200 N   0  0  0  0  0  1  0  0  0  0  0  0
  196.2340  171.5620  144.5760 O   0  0  0  0  0  0  0  0  0  0  0  0
  1 20  1  0  0  0  0
  1 16  1  1  0  0  0
  2 24  1  0  0  0  0
  3 11  2  0  0  0  0
  4  3  1  0  0  0  0
  4 21  2  0  0  0  0
  5 25  1  1  0  0  0
  6 18  2  0  0  0  0
  6  5  1  0  0  0  0
  7 24  1  6  0  0  0
  7 19  1  0  0  0  0
  8 17  1  0  0  0  0
  9 28  1  0  0  0  0
  9 15  2  0  0  0  0
 10  1  1  0  0  0  0
 10 20  1  0  0  0  0
 11 13  1  0  0  0  0
 12  8  1  0  0  0  0
 12  2  1  0  0  0  0
 13 12  1  0  0  0  0
 14 27  1  0  0  0  0
 15 18  1  0  0  0  0
 16 19  1  0  0  0  0
 17 10  1  0  0  0  0
 17  7  1  0  0  0  0
 21 22  1  0  0  0  0
 22 13  1  0  0  0  0
 22 14  2  0  0  0  0
 23 14  1  0  0  0  0
 23 28  1  0  0  0  0
 26  9  1  0  0  0  0
 27  2  2  0  0  0  0
 27  5  1  0  0  0  0
 28  6  1  0  0  0  0
 29 20  1  0  0  0  0
 30 29  1  0  0  0  0
 30 31  1  0  0  0  0
 32 30  2  0  0  0  0
M  END
>  <MODEL>
2

>  <REMARK>
 VINA RESULT:      -8.7      3.097      7.962
  Name = 
  2 active torsions:
  status: ('A' for Active; 'I' for Inactive)
    1  A    between atoms: C_20  and  C_29
    2  A    between atoms: C_29  and  C_30
                            x       y       z     vdW  Elec       q    Type
                         _______ _______ _______ _____ _____    ______ ____

>  <TORSDO>
F 2

$$$$
=
 OpenBabel11112416343D

 32 38  0  0  1  0  0  0  0  0999 V2000
  185.5240  177.2600  146.3640 C   0  0  1  0  0  3  0  0  0  0  0  0
  190.0880  175.8450  144.1540 C   0  0  0  0  0  0  0  0  0  0  0  0
  188.6620  173.5000  140.1490 C   0  0  0  0  0  3  0  0  0  0  0  0
  190.0660  173.2530  139.7680 C   0  0  0  0  0  3  0  0  0  0  0  0
  192.4520  175.7980  144.9190 C   0  0  1  0  0  3  0  0  0  0  0  0
  193.5250  174.7620  144.8680 C   0  0  0  0  0  0  0  0  0  0  0  0
  188.4060  177.1580  145.4850 C   0  0  1  0  0  3  0  0  0  0  0  0
  187.6960  176.1040  143.3630 C   0  0  0  0  0  2  0  0  0  0  0  0
  194.8370  173.2820  144.0780 C   0  0  0  0  0  0  0  0  0  0  0  0
  185.8870  176.7890  144.9560 C   0  0  2  0  0  3  0  0  0  0  0  0
  188.3550  174.3540  141.1300 C   0  0  0  0  0  3  0  0  0  0  0  0
  189.0480  175.5580  143.1830 N   0  0  0  0  0  0  0  0  0  0  0  0
  189.4190  175.1840  141.8110 C   0  0  1  0  0  3  0  0  0  0  0  0
  191.7160  174.7510  142.6560 C   0  0  0  0  0  0  0  0  0  0  0  0
  195.2010  173.5350  145.3870 C   0  0  0  0  0  3  0  0  0  0  0  0
  186.6770  177.1340  147.3810 C   0  0  0  0  0  2  0  0  0  0  0  0
  187.3380  176.2770  144.8290 C   0  0  2  0  0  3  0  0  0  0  0  0
  194.3660  174.4790  145.8850 N   0  0  0  0  0  0  0  0  0  0  0  0
  188.0460  177.6270  146.8970 C   0  0  0  0  0  2  0  0  0  0  0  0
  185.7730  178.2800  145.2580 C   0  0  1  0  0  3  0  0  0  0  0  0
  191.0690  173.7260  140.5110 C   0  0  0  0  0  3  0  0  0  0  0  0
  190.7820  174.5350  141.7150 C   0  0  0  0  0  0  0  0  0  0  0  0
  193.1120  174.1960  142.4780 C   0  0  0  0  0  2  0  0  0  0  0  0
  189.7250  176.4060  145.5100 C   0  0  0  0  0  2  0  0  0  0  0  0
  193.0500  177.1660  144.6390 C   0  0  0  0  0  1  0  0  0  0  0  0
  195.5110  172.3310  143.1540 C   0  0  0  0  0  1  0  0  0  0  0  0
  191.3660  175.4920  143.9070 C   0  0  0  0  0  0  0  0  0  0  0  0
  193.7820  174.0480  143.7640 N   0  0  0  0  0  0  0  0  0  0  0  0
  184.4440  178.7910  144.7390 C   0  0  0  0  0  2  0  0  0  0  0  0
  184.4010  178.6770  143.2560 C   0  0  0  0  0  0  0  0  0  0  0  0
  185.5370  179.0410  142.4810 N   0  0  0  0  0  1  0  0  0  0  0  0
  183.3490  178.2910  142.6830 O   0  0  0  0  0  0  0  0  0  0  0  0
  1 16  1  1  0  0  0
  2 24  1  0  0  0  0
  3 11  2  0  0  0  0
  4  3  1  0  0  0  0
  4 21  2  0  0  0  0
  5 25  1  6  0  0  0
  6  5  1  0  0  0  0
  6 18  2  0  0  0  0
  7 24  1  1  0  0  0
  7 19  1  0  0  0  0
  8 17  1  0  0  0  0
  9 15  2  0  0  0  0
 10 20  1  0  0  0  0
 10  1  1  0  0  0  0
 11 13  1  0  0  0  0
 12  8  1  0  0  0  0
 12  2  1  0  0  0  0
 13 12  1  0  0  0  0
 14 27  1  0  0  0  0
 15 18  1  0  0  0  0
 17 10  1  0  0  0  0
 17  7  1  0  0  0  0
 19 16  1  0  0  0  0
 20  1  1  0  0  0  0
 21 22  1  0  0  0  0
 22 13  1  0  0  0  0
 22 14  2  0  0  0  0
 23 14  1  0  0  0  0
 23 28  1  0  0  0  0
 26  9  1  0  0  0  0
 27  2  2  0  0  0  0
 27  5  1  0  0  0  0
 28  9  1  0  0  0  0
 28  6  1  0  0  0  0
 29 20  1  0  0  0  0
 30 29  1  0  0  0  0
 31 30  1  0  0  0  0
 32 30  2  0  0  0  0
M  END
>  <MODEL>
3

>  <REMARK>
 VINA RESULT:      -8.5      2.305      4.475
  Name = 
  2 active torsions:
  status: ('A' for Active; 'I' for Inactive)
    1  A    between atoms: C_20  and  C_29
    2  A    between atoms: C_29  and  C_30
                            x       y       z     vdW  Elec       q    Type
                         _______ _______ _______ _____ _____    ______ ____

>  <TORSDO>
F 2

$$$$
=
 OpenBabel11112416343D

 32 38  0  0  1  0  0  0  0  0999 V2000
  191.2370  172.9490  144.1910 C   0  0  1  0  0  3  0  0  0  0  0  0
  187.4810  176.5840  143.5600 C   0  0  0  0  0  0  0  0  0  0  0  0
  185.9090  177.3050  148.0970 C   0  0  0  0  0  3  0  0  0  0  0  0
  184.9380  178.3100  147.6240 C   0  0  0  0  0  3  0  0  0  0  0  0
  186.2720  177.5160  141.6000 C   0  0  1  0  0  3  0  0  0  0  0  0
  184.8290  177.7550  141.3050 C   0  0  0  0  0  0  0  0  0  0  0  0
  189.5790  175.2530  143.1740 C   0  0  1  0  0  3  0  0  0  0  0  0
  188.8830  175.7450  145.4950 C   0  0  0  0  0  2  0  0  0  0  0  0
  182.8250  178.4320  141.5530 C   0  0  0  0  0  0  0  0  0  0  0  0
  190.5340  173.8890  145.1710 C   0  0  2  0  0  3  0  0  0  0  0  0
  186.8740  176.8470  147.2930 C   0  0  0  0  0  3  0  0  0  0  0  0
  187.7010  176.4560  144.9890 N   0  0  0  0  0  0  0  0  0  0  0  0
  187.0800  177.4190  145.9080 C   0  0  1  0  0  3  0  0  0  0  0  0
  185.5840  178.0880  144.0400 C   0  0  0  0  0  0  0  0  0  0  0  0
  182.9540  177.9080  140.2800 C   0  0  0  0  0  3  0  0  0  0  0  0
  190.6100  172.9360  142.7810 C   0  0  0  0  0  2  0  0  0  0  0  0
  189.3340  174.6400  144.5560 C   0  0  2  0  0  3  0  0  0  0  0  0
  184.2310  177.4820  140.1250 N   0  0  0  0  0  0  0  0  0  0  0  0
  190.2780  174.3110  142.1900 C   0  0  0  0  0  2  0  0  0  0  0  0
  191.8850  174.2740  144.5760 C   0  0  1  0  0  3  0  0  0  0  0  0
  184.8780  178.6480  146.3340 C   0  0  0  0  0  3  0  0  0  0  0  0
  185.8110  178.0360  145.3630 C   0  0  0  0  0  0  0  0  0  0  0  0
  184.3720  178.8200  143.5090 C   0  0  0  0  0  2  0  0  0  0  0  0
  188.2550  175.7180  142.5930 C   0  0  0  0  0  2  0  0  0  0  0  0
  187.1010  178.6660  141.0560 C   0  0  0  0  0  1  0  0  0  0  0  0
  181.5910  179.0360  142.1250 C   0  0  0  0  0  1  0  0  0  0  0  0
  186.4960  177.3780  143.0920 C   0  0  0  0  0  0  0  0  0  0  0  0
  184.0000  178.3240  142.1900 N   0  0  0  0  0  0  0  0  0  0  0  0
  192.9700  174.0200  145.6040 C   0  0  0  0  0  2  0  0  0  0  0  0
  193.5370  175.3140  146.0720 C   0  0  0  0  0  0  0  0  0  0  0  0
  194.9470  175.4910  146.1390 N   0  0  0  0  0  1  0  0  0  0  0  0
  192.7700  176.2410  146.4410 O   0  0  0  0  0  0  0  0  0  0  0  0
  1 16  1  6  0  0  0
  1 20  1  0  0  0  0
  1 10  1  0  0  0  0
  2 12  1  0  0  0  0
  4  3  1  0  0  0  0
  5 25  1  1  0  0  0
  5 27  1  0  0  0  0
  6  5  1  0  0  0  0
  6 28  1  0  0  0  0
  7 19  1  6  0  0  0
  7 17  1  0  0  0  0
  9 26  1  0  0  0  0
  9 28  1  0  0  0  0
 11  3  2  0  0  0  0
 12  8  1  0  0  0  0
 12 13  1  0  0  0  0
 13 11  1  0  0  0  0
 14 22  2  0  0  0  0
 15  9  2  0  0  0  0
 17 10  1  0  0  0  0
 17  8  1  0  0  0  0
 18 15  1  0  0  0  0
 18  6  2  0  0  0  0
 19 16  1  0  0  0  0
 20 10  1  0  0  0  0
 20 29  1  0  0  0  0
 21  4  2  0  0  0  0
 22 13  1  0  0  0  0
 22 21  1  0  0  0  0
 23 14  1  0  0  0  0
 24  7  1  0  0  0  0
 24  2  1  0  0  0  0
 27  2  2  0  0  0  0
 27 14  1  0  0  0  0
 28 23  1  0  0  0  0
 29 30  1  0  0  0  0
 30 31  1  0  0  0  0
 30 32  2  0  0  0  0
M  END
>  <MODEL>
4

>  <REMARK>
 VINA RESULT:      -8.3      2.840      7.472
  Name = 
  2 active torsions:
  status: ('A' for Active; 'I' for Inactive)
    1  A    between atoms: C_20  and  C_29
    2  A    between atoms: C_29  and  C_30
                            x       y       z     vdW  Elec       q    Type
                         _______ _______ _______ _____ _____    ______ ____

>  <TORSDO>
F 2

$$$$
=
 OpenBabel11112416343D

 32 38  0  0  1  0  0  0  0  0999 V2000
  190.2460  171.2350  139.4260 C   0  0  1  0  0  3  0  0  0  0  0  0
  188.3780  175.2890  142.2180 C   0  0  0  0  0  0  0  0  0  0  0  0
  189.6930  174.1660  146.7560 C   0  0  0  0  0  3  0  0  0  0  0  0
  189.0800  175.4080  147.2640 C   0  0  0  0  0  3  0  0  0  0  0  0
  186.8070  177.1550  141.7420 C   0  0  1  0  0  3  0  0  0  0  0  0
  185.6250  177.7090  142.4650 C   0  0  0  0  0  0  0  0  0  0  0  0
  189.3160  173.9690  140.2950 C   0  0  1  0  0  3  0  0  0  0  0  0
  190.1210  173.4880  142.5840 C   0  0  0  0  0  2  0  0  0  0  0  0
  184.4430  178.4950  144.0520 C   0  0  0  0  0  0  0  0  0  0  0  0
  190.5440  171.7420  140.8370 C   0  0  2  0  0  3  0  0  0  0  0  0
  189.8700  173.9710  145.4450 C   0  0  0  0  0  3  0  0  0  0  0  0
  189.2150  174.5150  143.1170 N   0  0  0  0  0  0  0  0  0  0  0  0
  189.5550  175.0560  144.4390 C   0  0  1  0  0  3  0  0  0  0  0  0
  187.7080  176.6900  144.1360 C   0  0  0  0  0  0  0  0  0  0  0  0
  183.7100  178.5710  142.8830 C   0  0  0  0  0  3  0  0  0  0  0  0
  189.0480  171.9360  138.7510 C   0  0  0  0  0  2  0  0  0  0  0  0
  189.5850  172.8540  141.3110 C   0  0  2  0  0  3  0  0  0  0  0  0
  184.4670  178.0730  141.8760 N   0  0  0  0  0  0  0  0  0  0  0  0
  189.0130  173.4640  138.8820 C   0  0  0  0  0  2  0  0  0  0  0  0
  191.4450  172.1450  139.6740 C   0  0  1  0  0  3  0  0  0  0  0  0
  188.5150  176.2830  146.4280 C   0  0  0  0  0  3  0  0  0  0  0  0
  188.5260  176.0290  144.9710 C   0  0  0  0  0  0  0  0  0  0  0  0
  186.7730  177.7510  144.6740 C   0  0  0  0  0  2  0  0  0  0  0  0
  188.1700  174.8320  140.7930 C   0  0  0  0  0  2  0  0  0  0  0  0
  187.6160  178.2900  141.1400 C   0  0  0  0  0  1  0  0  0  0  0  0
  183.9960  178.9610  145.3930 C   0  0  0  0  0  1  0  0  0  0  0  0
  187.6760  176.3430  142.6820 C   0  0  0  0  0  0  0  0  0  0  0  0
  185.6370  177.9460  143.7840 N   0  0  0  0  0  0  0  0  0  0  0  0
  192.7080  171.3080  139.7120 C   0  0  0  0  0  2  0  0  0  0  0  0
  193.5140  171.6620  140.9130 C   0  0  0  0  0  0  0  0  0  0  0  0
  193.9200  173.0090  141.1250 N   0  0  0  0  0  1  0  0  0  0  0  0
  193.8660  170.7660  141.7220 O   0  0  0  0  0  0  0  0  0  0  0  0
  1 16  1  6  0  0  0
  1 20  1  0  0  0  0
  1 10  1  0  0  0  0
  2 27  2  0  0  0  0
  2 12  1  0  0  0  0
  3  4  1  0  0  0  0
  5 25  1  1  0  0  0
  5  6  1  0  0  0  0
  5 27  1  0  0  0  0
  6 28  1  0  0  0  0
  7 19  1  6  0  0  0
  7 24  1  0  0  0  0
  7 17  1  0  0  0  0
  8 12  1  0  0  0  0
  9 26  1  0  0  0  0
 10 17  1  0  0  0  0
 11  3  2  0  0  0  0
 12 13  1  0  0  0  0
 13 22  1  0  0  0  0
 13 11  1  0  0  0  0
 14 23  1  0  0  0  0
 14 22  2  0  0  0  0
 15  9  2  0  0  0  0
 16 19  1  0  0  0  0
 17  8  1  0  0  0  0
 18  6  2  0  0  0  0
 18 15  1  0  0  0  0
 20 29  1  0  0  0  0
 20 10  1  0  0  0  0
 21  4  2  0  0  0  0
 22 21  1  0  0  0  0
 24  2  1  0  0  0  0
 27 14  1  0  0  0  0
 28  9  1  0  0  0  0
 28 23  1  0  0  0  0
 29 30  1  0  0  0  0
 30 31  1  0  0  0  0
 30 32  2  0  0  0  0
M  END
>  <MODEL>
5

>  <REMARK>
 VINA RESULT:      -8.1      3.146      7.762
  Name = 
  2 active torsions:
  status: ('A' for Active; 'I' for Inactive)
    1  A    between atoms: C_20  and  C_29
    2  A    between atoms: C_29  and  C_30
                            x       y       z     vdW  Elec       q    Type
                         _______ _______ _______ _____ _____    ______ ____

>  <TORSDO>
F 2

$$$$
=
 OpenBabel11112416343D

 32 38  0  0  1  0  0  0  0  0999 V2000
  186.7560  178.2900  144.6690 C   0  0  1  0  0  3  0  0  0  0  0  0
  189.3300  174.5460  142.0100 C   0  0  0  0  0  0  0  0  0  0  0  0
  192.9460  173.3730  145.0320 C   0  0  0  0  0  3  0  0  0  0  0  0
  193.4460  172.3670  144.0770 C   0  0  0  0  0  3  0  0  0  0  0  0
  189.2760  173.7250  139.6650 C   0  0  1  0  0  3  0  0  0  0  0  0
  190.3350  173.4440  138.6530 C   0  0  0  0  0  0  0  0  0  0  0  0
  187.4540  176.0030  142.8320 C   0  0  1  0  0  3  0  0  0  0  0  0
  189.2000  175.2850  144.4290 C   0  0  0  0  0  2  0  0  0  0  0  0
  192.1160  172.6550  137.7930 C   0  0  0  0  0  0  0  0  0  0  0  0
  187.7800  177.2390  145.0970 C   0  0  2  0  0  3  0  0  0  0  0  0
  191.7470  173.9420  144.8680 C   0  0  0  0  0  3  0  0  0  0  0  0
  189.8890  174.5640  143.3500 N   0  0  0  0  0  0  0  0  0  0  0  0
  190.8110  173.4990  143.7670 C   0  0  1  0  0  3  0  0  0  0  0  0
  191.0700  172.9190  141.3640 C   0  0  0  0  0  0  0  0  0  0  0  0
  191.3950  173.2890  136.7990 C   0  0  0  0  0  3  0  0  0  0  0  0
  186.5660  178.3920  143.1410 C   0  0  0  0  0  2  0  0  0  0  0  0
  188.4250  176.4860  143.9130 C   0  0  2  0  0  3  0  0  0  0  0  0
  190.2610  173.7860  137.3490 N   0  0  0  0  0  0  0  0  0  0  0  0
  186.4300  177.0560  142.3990 C   0  0  0  0  0  2  0  0  0  0  0  0
  186.2900  176.9700  145.2720 C   0  0  1  0  0  3  0  0  0  0  0  0
  192.8060  172.1360  142.9280 C   0  0  0  0  0  3  0  0  0  0  0  0
  191.5610  172.8710  142.6130 C   0  0  0  0  0  0  0  0  0  0  0  0
  191.7700  172.1780  140.2470 C   0  0  0  0  0  2  0  0  0  0  0  0
  188.2450  175.5260  141.6280 C   0  0  0  0  0  2  0  0  0  0  0  0
  188.1910  172.6660  139.5780 C   0  0  0  0  0  1  0  0  0  0  0  0
  193.4130  171.9470  137.6120 C   0  0  0  0  0  1  0  0  0  0  0  0
  189.8640  173.7490  141.0620 C   0  0  0  0  0  0  0  0  0  0  0  0
  191.4500  172.7640  138.9510 N   0  0  0  0  0  0  0  0  0  0  0  0
  185.9140  177.1880  146.7240 C   0  0  0  0  0  2  0  0  0  0  0  0
  185.1580  178.4630  146.8660 C   0  0  0  0  0  0  0  0  0  0  0  0
  183.9520  178.6600  146.1380 N   0  0  0  0  0  1  0  0  0  0  0  0
  185.6020  179.3800  147.6040 O   0  0  0  0  0  0  0  0  0  0  0  0
  1 16  1  6  0  0  0
  1 10  1  0  0  0  0
  1 20  1  0  0  0  0
  2 12  1  0  0  0  0
  4  3  1  0  0  0  0
  5 25  1  1  0  0  0
  5 27  1  0  0  0  0
  6 28  1  0  0  0  0
  6  5  1  0  0  0  0
  7 24  1  6  0  0  0
  7 17  1  0  0  0  0
  9 28  1  0  0  0  0
 10 20  1  0  0  0  0
 11  3  2  0  0  0  0
 12 13  1  0  0  0  0
 12  8  1  0  0  0  0
 13 11  1  0  0  0  0
 14 22  2  0  0  0  0
 15 18  1  0  0  0  0
 15  9  2  0  0  0  0
 17  8  1  0  0  0  0
 17 10  1  0  0  0  0
 18  6  2  0  0  0  0
 19  7  1  0  0  0  0
 19 16  1  0  0  0  0
 20 29  1  0  0  0  0
 21  4  2  0  0  0  0
 22 21  1  0  0  0  0
 22 13  1  0  0  0  0
 23 14  1  0  0  0  0
 24  2  1  0  0  0  0
 26  9  1  0  0  0  0
 27 14  1  0  0  0  0
 27  2  2  0  0  0  0
 28 23  1  0  0  0  0
 29 30  1  0  0  0  0
 30 32  2  0  0  0  0
 31 30  1  0  0  0  0
M  END
>  <MODEL>
6

>  <REMARK>
 VINA RESULT:      -8.0      1.553      2.252
  Name = 
  2 active torsions:
  status: ('A' for Active; 'I' for Inactive)
    1  A    between atoms: C_20  and  C_29
    2  A    between atoms: C_29  and  C_30
                            x       y       z     vdW  Elec       q    Type
                         _______ _______ _______ _____ _____    ______ ____

>  <TORSDO>
F 2

$$$$
=
 OpenBabel11112416343D

 32 38  0  0  1  0  0  0  0  0999 V2000
  189.8670  171.9070  139.3720 C   0  0  1  0  0  3  0  0  0  0  0  0
  188.7500  175.6890  142.8610 C   0  0  0  0  0  0  0  0  0  0  0  0
  191.8670  174.7770  146.4710 C   0  0  0  0  0  3  0  0  0  0  0  0
  191.3520  175.9280  147.2350 C   0  0  0  0  0  3  0  0  0  0  0  0
  186.8980  177.3250  143.1230 C   0  0  1  0  0  3  0  0  0  0  0  0
  186.0340  177.7200  144.2740 C   0  0  0  0  0  0  0  0  0  0  0  0
  189.0180  174.4970  140.6640 C   0  0  1  0  0  3  0  0  0  0  0  0
  190.7080  174.1400  142.4340 C   0  0  0  0  0  2  0  0  0  0  0  0
  185.4810  178.3500  146.2310 C   0  0  0  0  0  0  0  0  0  0  0  0
  190.6280  172.4570  140.5790 C   0  0  2  0  0  3  0  0  0  0  0  0
  191.5400  174.6010  145.1870 C   0  0  0  0  0  3  0  0  0  0  0  0
  189.9620  175.0390  143.3250 N   0  0  0  0  0  0  0  0  0  0  0  0
  190.7220  175.6280  144.4360 C   0  0  1  0  0  3  0  0  0  0  0  0
  188.7150  176.9980  144.9520 C   0  0  0  0  0  0  0  0  0  0  0  0
  184.3450  178.3200  145.4440 C   0  0  0  0  0  3  0  0  0  0  0  0
  188.4230  172.4380  139.2510 C   0  0  0  0  0  2  0  0  0  0  0  0
  189.8000  173.4330  141.4410 C   0  0  2  0  0  3  0  0  0  0  0  0
  184.7020  177.9230  144.1990 N   0  0  0  0  0  0  0  0  0  0  0  0
  188.2510  173.9480  139.4580 C   0  0  0  0  0  2  0  0  0  0  0  0
  190.9430  172.9700  139.1780 C   0  0  1  0  0  3  0  0  0  0  0  0
  190.4000  176.7150  146.7280 C   0  0  0  0  0  3  0  0  0  0  0  0
  189.8710  176.4580  145.3710 C   0  0  0  0  0  0  0  0  0  0  0  0
  187.9410  177.9280  145.8620 C   0  0  0  0  0  2  0  0  0  0  0  0
  188.0600  175.2010  141.6080 C   0  0  0  0  0  2  0  0  0  0  0  0
  187.2570  178.5550  142.3080 C   0  0  0  0  0  1  0  0  0  0  0  0
  185.5400  178.7590  147.6610 C   0  0  0  0  0  1  0  0  0  0  0  0
  188.1600  176.6420  143.6110 C   0  0  0  0  0  0  0  0  0  0  0  0
  186.5320  177.9640  145.4930 N   0  0  0  0  0  0  0  0  0  0  0  0
  192.2140  172.3110  138.6820 C   0  0  0  0  0  2  0  0  0  0  0  0
  192.0000  171.7610  137.3150 C   0  0  0  0  0  0  0  0  0  0  0  0
  191.5760  172.6190  136.2620 N   0  0  0  0  0  1  0  0  0  0  0  0
  192.1600  170.5320  137.0980 O   0  0  0  0  0  0  0  0  0  0  0  0
  1 16  1  1  0  0  0
  1 10  1  0  0  0  0
  2 12  1  0  0  0  0
  2 27  2  0  0  0  0
  3  4  1  0  0  0  0
  5 25  1  1  0  0  0
  5 27  1  0  0  0  0
  5  6  1  0  0  0  0
  6 28  1  0  0  0  0
  7 19  1  6  0  0  0
  7 17  1  0  0  0  0
  7 24  1  0  0  0  0
  8 12  1  0  0  0  0
  9 26  1  0  0  0  0
 10 17  1  0  0  0  0
 11  3  2  0  0  0  0
 12 13  1  0  0  0  0
 13 11  1  0  0  0  0
 13 22  1  0  0  0  0
 14 22  2  0  0  0  0
 14 23  1  0  0  0  0
 15  9  2  0  0  0  0
 16 19  1  0  0  0  0
 17  8  1  0  0  0  0
 18  6  2  0  0  0  0
 18 15  1  0  0  0  0
 20  1  1  0  0  0  0
 20 10  1  0  0  0  0
 21  4  2  0  0  0  0
 22 21  1  0  0  0  0
 24  2  1  0  0  0  0
 27 14  1  0  0  0  0
 28 23  1  0  0  0  0
 28  9  1  0  0  0  0
 29 20  1  0  0  0  0
 30 29  1  0  0  0  0
 31 30  1  0  0  0  0
 32 30  2  0  0  0  0
M  END
>  <MODEL>
7

>  <REMARK>
 VINA RESULT:      -7.9      3.179      7.894
  Name = 
  2 active torsions:
  status: ('A' for Active; 'I' for Inactive)
    1  A    between atoms: C_20  and  C_29
    2  A    between atoms: C_29  and  C_30
                            x       y       z     vdW  Elec       q    Type
                         _______ _______ _______ _____ _____    ______ ____

>  <TORSDO>
F 2

$$$$
=
 OpenBabel11112416343D

 32 38  0  0  1  0  0  0  0  0999 V2000
  186.8990  176.9740  146.1390 C   0  0  1  0  0  3  0  0  0  0  0  0
  191.6960  175.6940  144.3860 C   0  0  0  0  0  0  0  0  0  0  0  0
  190.7290  173.1990  140.3330 C   0  0  0  0  0  3  0  0  0  0  0  0
  192.1690  173.0010  140.0860 C   0  0  0  0  0  3  0  0  0  0  0  0
  193.9810  175.7600  145.3590 C   0  0  1  0  0  3  0  0  0  0  0  0
  195.0920  174.7670  145.4330 C   0  0  0  0  0  0  0  0  0  0  0  0
  189.8510  176.9680  145.5240 C   0  0  1  0  0  3  0  0  0  0  0  0
  189.3770  175.8370  143.3770 C   0  0  0  0  0  2  0  0  0  0  0  0
  196.5260  173.3240  144.8030 C   0  0  0  0  0  0  0  0  0  0  0  0
  187.4060  176.4850  144.7830 C   0  0  2  0  0  3  0  0  0  0  0  0
  190.3010  174.0630  141.2600 C   0  0  0  0  0  3  0  0  0  0  0  0
  190.7600  175.3420  143.3330 N   0  0  0  0  0  0  0  0  0  0  0  0
  191.2670  174.9520  142.0110 C   0  0  1  0  0  3  0  0  0  0  0  0
  193.4920  174.6320  143.0690 C   0  0  0  0  0  0  0  0  0  0  0  0
  196.7610  173.6220  146.1320 C   0  0  0  0  0  3  0  0  0  0  0  0
  187.9600  176.9190  147.2590 C   0  0  0  0  0  2  0  0  0  0  0  0
  188.8810  176.0300  144.8000 C   0  0  2  0  0  3  0  0  0  0  0  0
  195.8490  174.5430  146.5280 N   0  0  0  0  0  0  0  0  0  0  0  0
  189.3480  177.4550  146.8860 C   0  0  0  0  0  2  0  0  0  0  0  0
  187.2080  177.9760  145.0330 C   0  0  1  0  0  3  0  0  0  0  0  0
  193.0820  173.5320  140.9030 C   0  0  0  0  0  3  0  0  0  0  0  0
  192.6570  174.3560  142.0550 C   0  0  0  0  0  0  0  0  0  0  0  0
  194.9190  174.1300  143.0320 C   0  0  0  0  0  2  0  0  0  0  0  0
  191.1900  176.2710  145.6880 C   0  0  0  0  0  2  0  0  0  0  0  0
  194.5480  177.1440  145.0980 C   0  0  0  0  0  1  0  0  0  0  0  0
  197.3170  172.3800  143.9690 C   0  0  0  0  0  1  0  0  0  0  0  0
  193.0030  175.3870  144.2630 C   0  0  0  0  0  0  0  0  0  0  0  0
  195.4750  174.0390  144.3760 N   0  0  0  0  0  0  0  0  0  0  0  0
  185.9130  178.4210  144.3840 C   0  0  0  0  0  2  0  0  0  0  0  0
  185.9980  178.2420  142.9080 C   0  0  0  0  0  0  0  0  0  0  0  0
  184.9580  177.5660  142.2120 N   0  0  0  0  0  1  0  0  0  0  0  0
  187.0050  178.6600  142.2810 O   0  0  0  0  0  0  0  0  0  0  0  0
  1 16  1  1  0  0  0
  2 24  1  0  0  0  0
  3 11  2  0  0  0  0
  4  3  1  0  0  0  0
  4 21  2  0  0  0  0
  5 25  1  6  0  0  0
  5  6  1  0  0  0  0
  6 18  2  0  0  0  0
  7 24  1  1  0  0  0
  7 19  1  0  0  0  0
  8 17  1  0  0  0  0
  9 15  2  0  0  0  0
 10 17  1  0  0  0  0
 10 20  1  0  0  0  0
 10  1  1  0  0  0  0
 11 13  1  0  0  0  0
 12  8  1  0  0  0  0
 12  2  1  0  0  0  0
 13 22  1  0  0  0  0
 13 12  1  0  0  0  0
 14 27  1  0  0  0  0
 15 18  1  0  0  0  0
 17  7  1  0  0  0  0
 19 16  1  0  0  0  0
 20  1  1  0  0  0  0
 21 22  1  0  0  0  0
 22 14  2  0  0  0  0
 23 14  1  0  0  0  0
 23 28  1  0  0  0  0
 26  9  1  0  0  0  0
 27  2  2  0  0  0  0
 27  5  1  0  0  0  0
 28  9  1  0  0  0  0
 28  6  1  0  0  0  0
 29 20  1  0  0  0  0
 30 29  1  0  0  0  0
 31 30  1  0  0  0  0
 32 30  2  0  0  0  0
M  END
>  <MODEL>
8

>  <REMARK>
 VINA RESULT:      -7.8      2.707      4.986
  Name = 
  2 active torsions:
  status: ('A' for Active; 'I' for Inactive)
    1  A    between atoms: C_20  and  C_29
    2  A    between atoms: C_29  and  C_30
                            x       y       z     vdW  Elec       q    Type
                         _______ _______ _______ _____ _____    ______ ____

>  <TORSDO>
F 2

$$$$
=
 OpenBabel11112416343D

 32 38  0  0  1  0  0  0  0  0999 V2000
  191.8130  171.1780  140.6880 C   0  0  1  0  0  3  0  0  0  0  0  0
  189.6110  175.3630  143.0030 C   0  0  0  0  0  0  0  0  0  0  0  0
  191.6460  175.3470  147.4120 C   0  0  0  0  0  3  0  0  0  0  0  0
  190.8890  176.5560  147.7890 C   0  0  0  0  0  3  0  0  0  0  0  0
  187.6900  176.8420  142.4620 C   0  0  1  0  0  3  0  0  0  0  0  0
  186.5250  177.3400  143.2510 C   0  0  0  0  0  0  0  0  0  0  0  0
  190.5270  173.8550  141.2120 C   0  0  1  0  0  3  0  0  0  0  0  0
  191.6760  173.9510  143.4000 C   0  0  0  0  0  2  0  0  0  0  0  0
  185.4250  178.2290  144.8430 C   0  0  0  0  0  0  0  0  0  0  0  0
  192.1850  171.9860  141.9310 C   0  0  2  0  0  3  0  0  0  0  0  0
  191.6940  174.9320  146.1420 C   0  0  0  0  0  3  0  0  0  0  0  0
  190.6750  174.9120  143.8820 N   0  0  0  0  0  0  0  0  0  0  0  0
  191.0720  175.7420  145.0270 C   0  0  1  0  0  3  0  0  0  0  0  0
  188.9420  176.9890  144.7350 C   0  0  0  0  0  0  0  0  0  0  0  0
  184.5530  177.9670  143.8030 C   0  0  0  0  0  3  0  0  0  0  0  0
  190.4360  171.5460  140.0940 C   0  0  0  0  0  2  0  0  0  0  0  0
  191.1100  173.0100  142.3490 C   0  0  2  0  0  3  0  0  0  0  0  0
  185.2580  177.4050  142.7910 N   0  0  0  0  0  0  0  0  0  0  0  0
  190.1480  173.0470  139.9680 C   0  0  0  0  0  2  0  0  0  0  0  0
  192.8530  172.2880  140.5940 C   0  0  1  0  0  3  0  0  0  0  0  0
  190.0820  177.1570  146.9130 C   0  0  0  0  0  3  0  0  0  0  0  0
  189.9600  176.6330  145.5350 C   0  0  0  0  0  0  0  0  0  0  0  0
  187.9080  177.9800  145.2210 C   0  0  0  0  0  2  0  0  0  0  0  0
  189.3160  174.6140  141.7240 C   0  0  0  0  0  2  0  0  0  0  0  0
  188.2060  177.9500  141.5600 C   0  0  0  0  0  1  0  0  0  0  0  0
  185.0690  178.8710  146.1370 C   0  0  0  0  0  1  0  0  0  0  0  0
  188.7960  176.3680  143.3830 C   0  0  0  0  0  0  0  0  0  0  0  0
  186.6550  177.8260  144.4930 N   0  0  0  0  0  0  0  0  0  0  0  0
  194.2390  171.6760  140.5810 C   0  0  0  0  0  2  0  0  0  0  0  0
  195.1100  172.3740  141.5650 C   0  0  0  0  0  0  0  0  0  0  0  0
  195.3410  173.7730  141.4460 N   0  0  0  0  0  1  0  0  0  0  0  0
  195.6710  171.7220  142.4840 O   0  0  0  0  0  0  0  0  0  0  0  0
  1 16  1  6  0  0  0
  1 10  1  0  0  0  0
  2 27  2  0  0  0  0
  2 12  1  0  0  0  0
  3  4  1  0  0  0  0
  5 25  1  1  0  0  0
  5  6  1  0  0  0  0
  5 27  1  0  0  0  0
  6 28  1  0  0  0  0
  7 19  1  6  0  0  0
  7 24  1  0  0  0  0
  7 17  1  0  0  0  0
  8 12  1  0  0  0  0
  9 26  1  0  0  0  0
 10 17  1  0  0  0  0
 11  3  2  0  0  0  0
 12 13  1  0  0  0  0
 13 22  1  0  0  0  0
 13 11  1  0  0  0  0
 14 23  1  0  0  0  0
 14 22  2  0  0  0  0
 15  9  2  0  0  0  0
 17  8  1  0  0  0  0
 18  6  2  0  0  0  0
 18 15  1  0  0  0  0
 19 16  1  0  0  0  0
 20  1  1  0  0  0  0
 20 10  1  0  0  0  0
 21  4  2  0  0  0  0
 22 21  1  0  0  0  0
 24  2  1  0  0  0  0
 27 14  1  0  0  0  0
 28  9  1  0  0  0  0
 28 23  1  0  0  0  0
 29 20  1  0  0  0  0
 29 30  1  0  0  0  0
 30 32  2  0  0  0  0
 31 30  1  0  0  0  0
M  END
>  <MODEL>
9

>  <REMARK>
 VINA RESULT:      -7.7      2.940      7.668
  Name = 
  2 active torsions:
  status: ('A' for Active; 'I' for Inactive)
    1  A    between atoms: C_20  and  C_29
    2  A    between atoms: C_29  and  C_30
                            x       y       z     vdW  Elec       q    Type
                         _______ _______ _______ _____ _____    ______ ____

>  <TORSDO>
F 2

$$$$
