=
 OpenBabel11112416303D

 32 37  0  0  1  0  0  0  0  0999 V2000
  183.8300  177.7730  142.7960 O   0  0  0  0  0  0  0  0  0  0  0  0
  188.8480  176.7940  142.9480 N   0  0  1  0  0  0  0  0  0  0  0  0
  189.6610  173.0780  139.7840 C   0  0  0  0  0  3  0  0  0  0  0  0
  190.9740  172.9860  140.2520 C   0  0  0  0  0  3  0  0  0  0  0  0
  190.4140  176.9740  144.9360 C   0  0  0  0  0  0  0  0  0  0  0  0
  191.8980  176.9210  145.2390 C   0  0  1  0  0  3  0  0  0  0  0  0
  186.8490  178.1870  142.8200 C   0  0  1  0  0  3  0  0  0  0  0  0
  187.3190  176.4960  141.0300 C   0  0  0  0  0  2  0  0  0  0  0  0
  193.8260  175.6290  144.9560 C   0  0  2  0  0  3  0  0  0  0  0  0
  185.2390  177.9250  140.8430 C   0  0  0  0  0  2  0  0  0  0  0  0
  188.7800  174.0010  140.3520 C   0  0  0  0  0  3  0  0  0  0  0  0
  188.2180  175.7900  142.0530 C   0  0  1  0  0  3  0  0  0  0  0  0
  189.2080  174.8540  141.3820 C   0  0  0  0  0  0  0  0  0  0  0  0
  190.9850  175.6570  142.9500 C   0  0  2  0  0  3  0  0  0  0  0  0
  193.6000  175.8130  146.4480 C   0  0  0  0  0  2  0  0  0  0  0  0
  184.4690  178.4070  143.8940 C   0  0  0  0  0  2  0  0  0  0  0  0
  186.2260  177.2380  141.7870 C   0  0  2  0  0  3  0  0  0  0  0  0
  192.1810  176.3000  146.5830 C   0  0  0  0  0  2  0  0  0  0  0  0
  185.8510  179.0460  143.6120 C   0  0  0  0  0  2  0  0  0  0  0  0
  184.0570  178.5160  141.6200 C   0  0  1  0  0  3  0  0  0  0  0  0
  191.4030  173.8080  141.2960 C   0  0  0  0  0  3  0  0  0  0  0  0
  190.5160  174.7190  141.8850 C   0  0  0  0  0  0  0  0  0  0  0  0
  191.9750  175.1060  143.7730 O   0  0  0  0  0  0  0  0  0  0  0  0
  187.7620  177.3850  143.7410 C   0  0  0  0  0  2  0  0  0  0  0  0
  189.6930  177.6460  145.6560 O   0  0  0  0  0  0  0  0  0  0  0  0
  195.0950  176.3450  144.5380 C   0  0  0  0  0  1  0  0  0  0  0  0
  189.8240  176.1170  143.8230 C   0  0  2  0  0  3  0  0  0  0  0  0
  192.6840  176.1790  144.2330 N   0  0  1  0  0  0  0  0  0  0  0  0
  182.8170  178.5050  140.7420 C   0  0  0  0  0  2  0  0  0  0  0  0
  181.5840  178.5270  141.5790 C   0  0  0  0  0  0  0  0  0  0  0  0
  181.4220  179.5030  142.5520 O   0  0  0  0  0  1  0  0  0  0  0  0
  180.6740  177.6790  141.3820 O   0  0  0  0  0  0  0  0  0  0  0  0
  1 16  1  0  0  0  0
  2 24  1  1  0  0  0
  2 27  1  0  0  0  0
  3  4  2  0  0  0  0
  3 11  1  0  0  0  0
  4 21  1  0  0  0  0
  5  6  1  0  0  0  0
  5 25  2  0  0  0  0
  6 18  1  1  0  0  0
  7 19  1  1  0  0  0
  7 24  1  0  0  0  0
  8 17  1  0  0  0  0
  9 26  1  6  0  0  0
  9 15  1  0  0  0  0
 10 20  1  0  0  0  0
 11 13  2  0  0  0  0
 12  8  1  6  0  0  0
 12  2  1  0  0  0  0
 13 22  1  0  0  0  0
 13 12  1  0  0  0  0
 14 22  1  6  0  0  0
 14 23  1  0  0  0  0
 14 27  1  0  0  0  0
 15 18  1  0  0  0  0
 17 10  1  6  0  0  0
 17  7  1  0  0  0  0
 19 16  1  0  0  0  0
 20 29  1  6  0  0  0
 20  1  1  0  0  0  0
 21 22  2  0  0  0  0
 27  5  1  1  0  0  0
 28 23  1  1  0  0  0
 28  9  1  0  0  0  0
 28  6  1  0  0  0  0
 29 30  1  0  0  0  0
 30 31  1  0  0  0  0
 32 30  2  0  0  0  0
M  END
>  <MODEL>
1

>  <REMARK>
 VINA RESULT:      -8.5      0.000      0.000
  Name = 
  2 active torsions:
  status: ('A' for Active; 'I' for Inactive)
    1  A    between atoms: C_20  and  C_29
    2  A    between atoms: C_29  and  C_30
                            x       y       z     vdW  Elec       q    Type
                         _______ _______ _______ _____ _____    ______ ____

>  <TORSDO>
F 2

$$$$
=
 OpenBabel11112416303D

 32 37  0  0  1  0  0  0  0  0999 V2000
  186.1390  178.4830  141.6150 O   0  0  0  0  0  0  0  0  0  0  0  0
  189.9390  175.9630  143.9310 N   0  0  1  0  0  0  0  0  0  0  0  0
  190.3630  177.8970  148.4650 C   0  0  0  0  0  3  0  0  0  0  0  0
  191.5340  177.1590  148.6560 C   0  0  0  0  0  3  0  0  0  0  0  0
  192.0470  175.0130  142.8860 C   0  0  0  0  0  0  0  0  0  0  0  0
  193.2110  174.1170  143.2570 C   0  0  1  0  0  3  0  0  0  0  0  0
  187.9050  176.2070  142.6060 C   0  0  1  0  0  3  0  0  0  0  0  0
  187.9540  176.9860  144.9890 C   0  0  0  0  0  2  0  0  0  0  0  0
  194.9080  173.8010  144.8350 C   0  0  2  0  0  3  0  0  0  0  0  0
  185.8160  177.2490  143.6630 C   0  0  0  0  0  2  0  0  0  0  0  0
  189.6900  177.8370  147.2430 C   0  0  0  0  0  3  0  0  0  0  0  0
  189.4820  177.0360  144.8510 C   0  0  1  0  0  3  0  0  0  0  0  0
  190.1700  177.0240  146.2040 C   0  0  0  0  0  0  0  0  0  0  0  0
  191.8660  175.4250  145.2940 C   0  0  2  0  0  3  0  0  0  0  0  0
  195.5600  173.9650  143.4720 C   0  0  0  0  0  2  0  0  0  0  0  0
  186.9000  177.7050  140.7050 C   0  0  0  0  0  2  0  0  0  0  0  0
  187.3430  177.2190  143.6150 C   0  0  2  0  0  3  0  0  0  0  0  0
  194.4910  174.5380  142.5800 C   0  0  0  0  0  2  0  0  0  0  0  0
  187.3200  176.2940  141.1880 C   0  0  0  0  0  2  0  0  0  0  0  0
  185.2300  177.6560  142.3060 C   0  0  1  0  0  3  0  0  0  0  0  0
  192.0380  176.3690  147.6190 C   0  0  0  0  0  3  0  0  0  0  0  0
  191.3790  176.3240  146.3840 C   0  0  0  0  0  0  0  0  0  0  0  0
  193.2580  175.2780  145.2810 O   0  0  0  0  0  0  0  0  0  0  0  0
  189.4260  176.3090  142.5990 C   0  0  0  0  0  2  0  0  0  0  0  0
  191.6880  175.0530  141.7190 O   0  0  0  0  0  0  0  0  0  0  0  0
  195.1360  172.3930  145.3470 C   0  0  0  0  0  1  0  0  0  0  0  0
  191.4140  175.9260  143.9290 C   0  0  2  0  0  3  0  0  0  0  0  0
  193.4760  174.0580  144.7080 N   0  0  1  0  0  0  0  0  0  0  0  0
  183.9120  178.3820  142.5180 C   0  0  0  0  0  2  0  0  0  0  0  0
  182.9850  178.1260  141.3800 C   0  0  0  0  0  0  0  0  0  0  0  0
  183.4930  177.9010  140.1070 O   0  0  0  0  0  0  0  0  0  0  0  0
  181.7430  178.0800  141.5770 O   0  0  0  0  0  1  0  0  0  0  0  0
  1 20  1  0  0  0  0
  2 24  1  6  0  0  0
  2 12  1  0  0  0  0
  3  4  1  0  0  0  0
  5  6  1  0  0  0  0
  6 18  1  6  0  0  0
  6 28  1  0  0  0  0
  7 19  1  6  0  0  0
  7 17  1  0  0  0  0
  9 26  1  6  0  0  0
 11  3  2  0  0  0  0
 12  8  1  1  0  0  0
 12 13  1  0  0  0  0
 13 22  2  0  0  0  0
 13 11  1  0  0  0  0
 14 23  1  6  0  0  0
 14 22  1  0  0  0  0
 15  9  1  0  0  0  0
 16 19  1  0  0  0  0
 16  1  1  0  0  0  0
 17 10  1  1  0  0  0
 17  8  1  0  0  0  0
 18 15  1  0  0  0  0
 20 29  1  1  0  0  0
 20 10  1  0  0  0  0
 21  4  2  0  0  0  0
 22 21  1  0  0  0  0
 24  7  1  0  0  0  0
 25  5  2  0  0  0  0
 27  5  1  6  0  0  0
 27  2  1  0  0  0  0
 27 14  1  0  0  0  0
 28  9  1  0  0  0  0
 28 23  1  1  0  0  0
 30 32  1  0  0  0  0
 30 29  1  0  0  0  0
 31 30  2  0  0  0  0
M  END
>  <MODEL>
2

>  <REMARK>
 VINA RESULT:      -8.2      1.992      4.317
  Name = 
  2 active torsions:
  status: ('A' for Active; 'I' for Inactive)
    1  A    between atoms: C_20  and  C_29
    2  A    between atoms: C_29  and  C_30
                            x       y       z     vdW  Elec       q    Type
                         _______ _______ _______ _____ _____    ______ ____

>  <TORSDO>
F 2

$$$$
=
 OpenBabel11112416303D

 32 37  0  0  1  0  0  0  0  0999 V2000
  186.5470  176.6410  146.3650 O   0  0  0  0  0  0  0  0  0  0  0  0
  191.1510  176.0470  144.2170 N   0  0  1  0  0  0  0  0  0  0  0  0
  190.4390  173.5350  140.0140 C   0  0  0  0  0  3  0  0  0  0  0  0
  191.8220  173.4060  139.8740 C   0  0  0  0  0  3  0  0  0  0  0  0
  193.3860  175.7350  145.3770 C   0  0  0  0  0  0  0  0  0  0  0  0
  194.8630  175.7060  145.0390 C   0  0  1  0  0  3  0  0  0  0  0  0
  189.3440  177.2570  145.3230 C   0  0  1  0  0  3  0  0  0  0  0  0
  188.9720  176.2270  143.0670 C   0  0  0  0  0  2  0  0  0  0  0  0
  196.4480  174.7100  143.6370 C   0  0  2  0  0  3  0  0  0  0  0  0
  187.0690  177.4830  144.1650 C   0  0  0  0  0  2  0  0  0  0  0  0
  189.9070  174.1730  141.1370 C   0  0  0  0  0  3  0  0  0  0  0  0
  190.1650  175.3150  143.3820 C   0  0  1  0  0  3  0  0  0  0  0  0
  190.7540  174.7040  142.1230 C   0  0  0  0  0  0  0  0  0  0  0  0
  193.0490  175.1280  143.0270 C   0  0  2  0  0  3  0  0  0  0  0  0
  196.8430  174.4170  145.0750 C   0  0  0  0  0  2  0  0  0  0  0  0
  187.6020  176.9600  147.2580 C   0  0  0  0  0  2  0  0  0  0  0  0
  188.3120  176.6200  144.3810 C   0  0  2  0  0  3  0  0  0  0  0  0
  195.6240  174.7310  145.9000 C   0  0  0  0  0  2  0  0  0  0  0  0
  188.7900  177.7570  146.6660 C   0  0  0  0  0  2  0  0  0  0  0  0
  186.3260  177.7200  145.4850 C   0  0  1  0  0  3  0  0  0  0  0  0
  192.6750  173.9040  140.8620 C   0  0  0  0  0  3  0  0  0  0  0  0
  192.1450  174.5240  142.0010 C   0  0  0  0  0  0  0  0  0  0  0  0
  194.2530  174.4310  143.1810 O   0  0  0  0  0  0  0  0  0  0  0  0
  190.5040  176.2860  145.5140 C   0  0  0  0  0  2  0  0  0  0  0  0
  193.0480  176.1010  146.4920 O   0  0  0  0  0  0  0  0  0  0  0  0
  197.4810  175.6140  142.9940 C   0  0  0  0  0  1  0  0  0  0  0  0
  192.3570  175.2130  144.3820 C   0  0  2  0  0  3  0  0  0  0  0  0
  195.1430  175.3650  143.6290 N   0  0  1  0  0  0  0  0  0  0  0  0
  184.8410  177.8810  145.2100 C   0  0  0  0  0  2  0  0  0  0  0  0
  184.6150  178.8860  144.1320 C   0  0  0  0  0  0  0  0  0  0  0  0
  185.1960  180.1430  144.2210 O   0  0  0  0  0  1  0  0  0  0  0  0
  183.9230  178.5830  143.1240 O   0  0  0  0  0  0  0  0  0  0  0  0
  1 16  1  0  0  0  0
  2 27  1  0  0  0  0
  2 24  1  1  0  0  0
  3 11  1  0  0  0  0
  4  3  2  0  0  0  0
  4 21  1  0  0  0  0
  5 25  2  0  0  0  0
  6  5  1  0  0  0  0
  6 18  1  1  0  0  0
  7 24  1  1  0  0  0
  7 19  1  0  0  0  0
  9 26  1  1  0  0  0
  9 15  1  0  0  0  0
 10 17  1  0  0  0  0
 10 20  1  0  0  0  0
 11 13  2  0  0  0  0
 12  8  1  6  0  0  0
 12  2  1  0  0  0  0
 13 12  1  0  0  0  0
 14 22  1  6  0  0  0
 14 23  1  0  0  0  0
 14 27  1  0  0  0  0
 15 18  1  0  0  0  0
 17  8  1  6  0  0  0
 17  7  1  0  0  0  0
 19 16  1  0  0  0  0
 20 29  1  6  0  0  0
 20  1  1  0  0  0  0
 21 22  2  0  0  0  0
 22 13  1  0  0  0  0
 27  5  1  1  0  0  0
 28 23  1  1  0  0  0
 28  9  1  0  0  0  0
 28  6  1  0  0  0  0
 30 31  1  0  0  0  0
 30 29  1  0  0  0  0
 32 30  2  0  0  0  0
M  END
>  <MODEL>
3

>  <REMARK>
 VINA RESULT:      -8.2      2.066      3.295
  Name = 
  2 active torsions:
  status: ('A' for Active; 'I' for Inactive)
    1  A    between atoms: C_20  and  C_29
    2  A    between atoms: C_29  and  C_30
                            x       y       z     vdW  Elec       q    Type
                         _______ _______ _______ _____ _____    ______ ____

>  <TORSDO>
F 2

$$$$
=
 OpenBabel11112416303D

 32 37  0  0  1  0  0  0  0  0999 V2000
  186.7330  178.7090  143.1540 O   0  0  0  0  0  0  0  0  0  0  0  0
  190.1340  174.8990  143.4280 N   0  0  1  0  0  0  0  0  0  0  0  0
  193.7160  176.4160  146.4850 C   0  0  0  0  0  3  0  0  0  0  0  0
  194.4690  175.2920  146.1380 C   0  0  0  0  0  3  0  0  0  0  0  0
  190.7960  173.2630  141.6050 C   0  0  0  0  0  0  0  0  0  0  0  0
  191.6000  171.9900  141.4390 C   0  0  1  0  0  3  0  0  0  0  0  0
  187.9150  175.9140  143.4310 C   0  0  1  0  0  3  0  0  0  0  0  0
  189.5930  176.5550  145.1790 C   0  0  0  0  0  2  0  0  0  0  0  0
  193.6920  171.0260  141.8420 C   0  0  2  0  0  3  0  0  0  0  0  0
  187.3030  177.6280  145.2350 C   0  0  0  0  0  2  0  0  0  0  0  0
  192.4780  176.6420  145.8790 C   0  0  0  0  0  3  0  0  0  0  0  0
  190.6690  176.0400  144.2140 C   0  0  1  0  0  3  0  0  0  0  0  0
  191.9720  175.7370  144.9320 C   0  0  0  0  0  0  0  0  0  0  0  0
  192.2020  173.6480  143.5740 C   0  0  2  0  0  3  0  0  0  0  0  0
  193.4320  170.9720  140.3450 C   0  0  0  0  0  2  0  0  0  0  0  0
  186.5230  177.7280  142.1510 C   0  0  0  0  0  2  0  0  0  0  0  0
  188.4050  177.0350  144.3580 C   0  0  2  0  0  3  0  0  0  0  0  0
  192.2910  171.9240  140.1010 C   0  0  0  0  0  2  0  0  0  0  0  0
  186.6750  176.2500  142.5880 C   0  0  0  0  0  2  0  0  0  0  0  0
  186.1980  178.2590  144.3790 C   0  0  1  0  0  3  0  0  0  0  0  0
  193.9890  174.3990  145.1760 C   0  0  0  0  0  3  0  0  0  0  0  0
  192.7590  174.6350  144.5480 C   0  0  0  0  0  0  0  0  0  0  0  0
  193.1870  172.9960  142.8230 O   0  0  0  0  0  0  0  0  0  0  0  0
  189.0790  175.4460  142.5640 C   0  0  0  0  0  2  0  0  0  0  0  0
  189.8570  173.4640  140.8500 O   0  0  0  0  0  0  0  0  0  0  0  0
  193.7190  169.6200  142.4080 C   0  0  0  0  0  1  0  0  0  0  0  0
  191.2220  174.3180  142.6180 C   0  0  2  0  0  3  0  0  0  0  0  0
  192.6300  171.7980  142.4800 N   0  0  1  0  0  0  0  0  0  0  0  0
  185.5670  179.4160  145.1360 C   0  0  0  0  0  2  0  0  0  0  0  0
  185.0540  178.9560  146.4580 C   0  0  0  0  0  0  0  0  0  0  0  0
  185.6410  179.4150  147.6290 O   0  0  0  0  0  1  0  0  0  0  0  0
  184.0660  178.1770  146.5130 O   0  0  0  0  0  0  0  0  0  0  0  0
  1 20  1  0  0  0  0
  2 24  1  6  0  0  0
  2 12  1  0  0  0  0
  4  3  1  0  0  0  0
  6 18  1  6  0  0  0
  6  5  1  0  0  0  0
  6 28  1  0  0  0  0
  7 24  1  6  0  0  0
  7 17  1  0  0  0  0
  9 26  1  1  0  0  0
  9 28  1  0  0  0  0
 11  3  2  0  0  0  0
 12 13  1  0  0  0  0
 12  8  1  1  0  0  0
 13 11  1  0  0  0  0
 14 23  1  6  0  0  0
 14 22  1  0  0  0  0
 15  9  1  0  0  0  0
 16 19  1  0  0  0  0
 16  1  1  0  0  0  0
 17  8  1  1  0  0  0
 17 10  1  0  0  0  0
 18 15  1  0  0  0  0
 19  7  1  0  0  0  0
 20 29  1  1  0  0  0
 20 10  1  0  0  0  0
 21  4  2  0  0  0  0
 22 13  2  0  0  0  0
 22 21  1  0  0  0  0
 25  5  2  0  0  0  0
 27  5  1  6  0  0  0
 27  2  1  0  0  0  0
 27 14  1  0  0  0  0
 28 23  1  6  0  0  0
 29 30  1  0  0  0  0
 30 32  2  0  0  0  0
 30 31  1  0  0  0  0
M  END
>  <MODEL>
4

>  <REMARK>
 VINA RESULT:      -8.1      2.498      5.164
  Name = 
  2 active torsions:
  status: ('A' for Active; 'I' for Inactive)
    1  A    between atoms: C_20  and  C_29
    2  A    between atoms: C_29  and  C_30
                            x       y       z     vdW  Elec       q    Type
                         _______ _______ _______ _____ _____    ______ ____

>  <TORSDO>
F 2

$$$$
=
 OpenBabel11112416303D

 32 37  0  0  1  0  0  0  0  0999 V2000
  187.1580  178.0440  142.3530 O   0  0  0  0  0  0  0  0  0  0  0  0
  190.4710  174.4370  143.8300 N   0  0  1  0  0  0  0  0  0  0  0  0
  194.0060  176.7360  146.4170 C   0  0  0  0  0  3  0  0  0  0  0  0
  194.7440  175.5500  146.4370 C   0  0  0  0  0  3  0  0  0  0  0  0
  191.1440  172.3320  142.5850 C   0  0  0  0  0  0  0  0  0  0  0  0
  191.9250  171.0550  142.8220 C   0  0  1  0  0  3  0  0  0  0  0  0
  188.2750  175.4370  143.4690 C   0  0  1  0  0  3  0  0  0  0  0  0
  189.9210  176.5400  145.0040 C   0  0  0  0  0  2  0  0  0  0  0  0
  193.9860  170.2250  143.5520 C   0  0  2  0  0  3  0  0  0  0  0  0
  187.6530  177.6110  144.6750 C   0  0  0  0  0  2  0  0  0  0  0  0
  192.7890  176.7910  145.7350 C   0  0  0  0  0  3  0  0  0  0  0  0
  191.0100  175.7510  144.2650 C   0  0  1  0  0  3  0  0  0  0  0  0
  192.2880  175.6560  145.0780 C   0  0  0  0  0  0  0  0  0  0  0  0
  192.5080  173.2580  144.3970 C   0  0  2  0  0  3  0  0  0  0  0  0
  193.7620  169.7390  142.1290 C   0  0  0  0  0  2  0  0  0  0  0  0
  186.9530  176.8150  141.6740 C   0  0  0  0  0  2  0  0  0  0  0  0
  188.7640  176.7740  144.0430 C   0  0  2  0  0  3  0  0  0  0  0  0
  192.6480  170.5920  141.5830 C   0  0  0  0  0  2  0  0  0  0  0  0
  187.0630  175.5280  142.5280 C   0  0  0  0  0  2  0  0  0  0  0  0
  186.5840  177.9780  143.6390 C   0  0  1  0  0  3  0  0  0  0  0  0
  194.2700  174.4220  145.7630 C   0  0  0  0  0  3  0  0  0  0  0  0
  193.0610  174.4790  145.0570 C   0  0  0  0  0  0  0  0  0  0  0  0
  193.4980  172.4020  143.9000 O   0  0  0  0  0  0  0  0  0  0  0  0
  189.4500  174.7210  142.8130 C   0  0  0  0  0  2  0  0  0  0  0  0
  190.2280  172.3150  141.7770 O   0  0  0  0  0  0  0  0  0  0  0  0
  193.9690  169.0460  144.5050 C   0  0  0  0  0  1  0  0  0  0  0  0
  191.5670  173.6310  143.2590 C   0  0  2  0  0  3  0  0  0  0  0  0
  192.9240  171.1630  143.9040 N   0  0  1  0  0  0  0  0  0  0  0  0
  185.9580  179.3130  144.0060 C   0  0  0  0  0  2  0  0  0  0  0  0
  184.5970  179.1130  144.5780 C   0  0  0  0  0  0  0  0  0  0  0  0
  184.4240  179.0410  145.9530 O   0  0  0  0  0  1  0  0  0  0  0  0
  183.5980  179.0410  143.8150 O   0  0  0  0  0  0  0  0  0  0  0  0
  1 20  1  0  0  0  0
  2 24  1  6  0  0  0
  2 12  1  0  0  0  0
  3  4  1  0  0  0  0
  5  6  1  0  0  0  0
  6 18  1  6  0  0  0
  6 28  1  0  0  0  0
  7 19  1  6  0  0  0
  7 17  1  0  0  0  0
  9 28  1  0  0  0  0
  9 26  1  1  0  0  0
 11  3  2  0  0  0  0
 12  8  1  1  0  0  0
 12 13  1  0  0  0  0
 13 11  1  0  0  0  0
 14 23  1  6  0  0  0
 14 22  1  0  0  0  0
 15  9  1  0  0  0  0
 16  1  1  0  0  0  0
 16 19  1  0  0  0  0
 17 10  1  1  0  0  0
 17  8  1  0  0  0  0
 18 15  1  0  0  0  0
 20 29  1  1  0  0  0
 20 10  1  0  0  0  0
 21  4  2  0  0  0  0
 22 13  2  0  0  0  0
 22 21  1  0  0  0  0
 24  7  1  0  0  0  0
 25  5  2  0  0  0  0
 27  5  1  1  0  0  0
 27  2  1  0  0  0  0
 27 14  1  0  0  0  0
 28 23  1  6  0  0  0
 29 30  1  0  0  0  0
 30 31  1  0  0  0  0
 32 30  2  0  0  0  0
M  END
>  <MODEL>
5

>  <REMARK>
 VINA RESULT:      -8.1      2.671      5.146
  Name = 
  2 active torsions:
  status: ('A' for Active; 'I' for Inactive)
    1  A    between atoms: C_20  and  C_29
    2  A    between atoms: C_29  and  C_30
                            x       y       z     vdW  Elec       q    Type
                         _______ _______ _______ _____ _____    ______ ____

>  <TORSDO>
F 2

$$$$
=
 OpenBabel11112416303D

 32 37  0  0  1  0  0  0  0  0999 V2000
  186.5970  179.1290  143.4750 O   0  0  0  0  0  0  0  0  0  0  0  0
  188.7740  174.6690  142.2360 N   0  0  1  0  0  0  0  0  0  0  0  0
  192.5290  174.0020  145.3870 C   0  0  0  0  0  3  0  0  0  0  0  0
  192.9460  172.9010  144.6360 C   0  0  0  0  0  3  0  0  0  0  0  0
  189.0110  173.6350  139.9310 C   0  0  0  0  0  0  0  0  0  0  0  0
  189.4290  172.3240  139.2960 C   0  0  1  0  0  3  0  0  0  0  0  0
  186.9330  176.1950  142.7220 C   0  0  1  0  0  3  0  0  0  0  0  0
  188.6610  175.7130  144.4730 C   0  0  0  0  0  2  0  0  0  0  0  0
  191.1490  170.7410  139.2180 C   0  0  2  0  0  3  0  0  0  0  0  0
  186.7660  177.2930  145.0320 C   0  0  0  0  0  2  0  0  0  0  0  0
  191.4270  174.7540  144.9730 C   0  0  0  0  0  3  0  0  0  0  0  0
  189.5810  175.2790  143.3230 C   0  0  1  0  0  3  0  0  0  0  0  0
  190.7200  174.4030  143.8130 C   0  0  0  0  0  0  0  0  0  0  0  0
  190.3990  172.9230  141.8210 C   0  0  2  0  0  3  0  0  0  0  0  0
  190.9370  171.2740  137.8100 C   0  0  0  0  0  2  0  0  0  0  0  0
  186.1550  178.6460  142.2160 C   0  0  0  0  0  2  0  0  0  0  0  0
  187.6860  176.7520  143.9380 C   0  0  2  0  0  3  0  0  0  0  0  0
  190.1200  172.5280  137.9720 C   0  0  0  0  0  2  0  0  0  0  0  0
  185.8680  177.1270  142.1220 C   0  0  0  0  0  2  0  0  0  0  0  0
  185.9150  178.4560  144.5100 C   0  0  1  0  0  3  0  0  0  0  0  0
  192.2680  172.5590  143.4630 C   0  0  0  0  0  3  0  0  0  0  0  0
  191.1770  173.3240  143.0310 C   0  0  0  0  0  0  0  0  0  0  0  0
  191.1860  172.3190  140.8330 O   0  0  0  0  0  0  0  0  0  0  0  0
  187.9470  175.7460  141.6750 C   0  0  0  0  0  2  0  0  0  0  0  0
  188.1940  174.3320  139.3500 O   0  0  0  0  0  0  0  0  0  0  0  0
  190.7580  169.2780  139.2770 C   0  0  0  0  0  1  0  0  0  0  0  0
  189.6820  174.1200  141.2100 C   0  0  2  0  0  3  0  0  0  0  0  0
  190.3260  171.5130  140.1440 N   0  0  1  0  0  0  0  0  0  0  0  0
  185.6100  179.4130  145.6500 C   0  0  0  0  0  2  0  0  0  0  0  0
  185.1800  178.6600  146.8620 C   0  0  0  0  0  0  0  0  0  0  0  0
  185.9940  178.6300  147.9860 O   0  0  0  0  0  1  0  0  0  0  0  0
  184.0640  178.0790  146.8790 O   0  0  0  0  0  0  0  0  0  0  0  0
  1 20  1  0  0  0  0
  2 24  1  6  0  0  0
  2 12  1  0  0  0  0
  4  3  2  0  0  0  0
  6 18  1  6  0  0  0
  6  5  1  0  0  0  0
  6 28  1  0  0  0  0
  7 24  1  6  0  0  0
  7 17  1  0  0  0  0
  9 26  1  6  0  0  0
  9 28  1  0  0  0  0
 11  3  1  0  0  0  0
 12 13  1  0  0  0  0
 12  8  1  1  0  0  0
 13 11  2  0  0  0  0
 14 23  1  6  0  0  0
 14 22  1  0  0  0  0
 15 18  1  0  0  0  0
 15  9  1  0  0  0  0
 16  1  1  0  0  0  0
 17  8  1  1  0  0  0
 17 10  1  0  0  0  0
 19 16  1  0  0  0  0
 19  7  1  0  0  0  0
 20 10  1  0  0  0  0
 20 29  1  1  0  0  0
 21  4  1  0  0  0  0
 22 21  2  0  0  0  0
 22 13  1  0  0  0  0
 25  5  2  0  0  0  0
 27  5  1  6  0  0  0
 27 14  1  0  0  0  0
 27  2  1  0  0  0  0
 28 23  1  6  0  0  0
 29 30  1  0  0  0  0
 30 32  2  0  0  0  0
 30 31  1  0  0  0  0
M  END
>  <MODEL>
6

>  <REMARK>
 VINA RESULT:      -8.0      2.724      5.486
  Name = 
  2 active torsions:
  status: ('A' for Active; 'I' for Inactive)
    1  A    between atoms: C_20  and  C_29
    2  A    between atoms: C_29  and  C_30
                            x       y       z     vdW  Elec       q    Type
                         _______ _______ _______ _____ _____    ______ ____

>  <TORSDO>
F 2

$$$$
=
 OpenBabel11112416303D

 32 37  0  0  1  0  0  0  0  0999 V2000
  189.4620  172.3710  139.8810 O   0  0  0  0  0  0  0  0  0  0  0  0
  188.7380  175.7720  143.6320 N   0  0  1  0  0  0  0  0  0  0  0  0
  192.2540  174.9260  147.0090 C   0  0  0  0  0  3  0  0  0  0  0  0
  191.6220  175.8240  147.8720 C   0  0  0  0  0  3  0  0  0  0  0  0
  186.5420  176.7220  144.4750 C   0  0  0  0  0  0  0  0  0  0  0  0
  186.0400  177.8120  145.4010 C   0  0  1  0  0  3  0  0  0  0  0  0
  188.9480  175.0040  141.3260 C   0  0  1  0  0  3  0  0  0  0  0  0
  190.8770  174.7690  142.9100 C   0  0  0  0  0  2  0  0  0  0  0  0
  186.2270  178.6630  147.5710 C   0  0  2  0  0  3  0  0  0  0  0  0
  191.1510  173.9690  140.5250 C   0  0  0  0  0  2  0  0  0  0  0  0
  191.6910  174.6400  145.7630 C   0  0  0  0  0  3  0  0  0  0  0  0
  189.8480  174.8750  144.0430 C   0  0  1  0  0  3  0  0  0  0  0  0
  190.4990  175.2610  145.3600 C   0  0  0  0  0  0  0  0  0  0  0  0
  188.5940  176.8210  145.8100 C   0  0  2  0  0  3  0  0  0  0  0  0
  184.7720  178.2900  147.3380 C   0  0  0  0  0  2  0  0  0  0  0  0
  188.2050  173.0210  139.7820 C   0  0  0  0  0  2  0  0  0  0  0  0
  190.1860  174.1730  141.6920 C   0  0  2  0  0  3  0  0  0  0  0  0
  184.7730  177.4130  146.1130 C   0  0  0  0  0  2  0  0  0  0  0  0
  188.1910  174.5430  140.0700 C   0  0  0  0  0  2  0  0  0  0  0  0
  190.4750  173.2110  139.3770 C   0  0  1  0  0  3  0  0  0  0  0  0
  190.4200  176.4270  147.4940 C   0  0  0  0  0  3  0  0  0  0  0  0
  189.8390  176.1250  146.2560 C   0  0  0  0  0  0  0  0  0  0  0  0
  187.7260  177.1280  146.8640 O   0  0  0  0  0  0  0  0  0  0  0  0
  188.0310  175.0880  142.5410 C   0  0  0  0  0  2  0  0  0  0  0  0
  185.8420  176.3890  143.5310 O   0  0  0  0  0  0  0  0  0  0  0  0
  186.3520  180.1660  147.7260 C   0  0  0  0  0  1  0  0  0  0  0  0
  187.8390  175.9860  144.7830 C   0  0  2  0  0  3  0  0  0  0  0  0
  187.0200  178.2140  146.4300 N   0  0  1  0  0  0  0  0  0  0  0  0
  191.5140  172.3950  138.6260 C   0  0  0  0  0  2  0  0  0  0  0  0
  190.8560  171.4980  137.6340 C   0  0  0  0  0  0  0  0  0  0  0  0
  190.1190  172.0400  136.5890 O   0  0  0  0  0  0  0  0  0  0  0  0
  190.9940  170.2500  137.7230 O   0  0  0  0  0  1  0  0  0  0  0  0
  2 24  1  6  0  0  0
  2 12  1  0  0  0  0
  2 27  1  0  0  0  0
  3  4  1  0  0  0  0
  5  6  1  0  0  0  0
  6 18  1  1  0  0  0
  6 28  1  0  0  0  0
  7 19  1  6  0  0  0
  7 17  1  0  0  0  0
  7 24  1  0  0  0  0
  9 26  1  6  0  0  0
 11  3  2  0  0  0  0
 12  8  1  6  0  0  0
 12 13  1  0  0  0  0
 13 11  1  0  0  0  0
 13 22  2  0  0  0  0
 14 22  1  1  0  0  0
 14 23  1  0  0  0  0
 15  9  1  0  0  0  0
 16  1  1  0  0  0  0
 16 19  1  0  0  0  0
 17 10  1  6  0  0  0
 17  8  1  0  0  0  0
 18 15  1  0  0  0  0
 20 29  1  1  0  0  0
 20  1  1  0  0  0  0
 20 10  1  0  0  0  0
 21  4  2  0  0  0  0
 22 21  1  0  0  0  0
 25  5  2  0  0  0  0
 27  5  1  6  0  0  0
 27 14  1  0  0  0  0
 28 23  1  1  0  0  0
 28  9  1  0  0  0  0
 30 32  1  0  0  0  0
 30 29  1  0  0  0  0
 31 30  2  0  0  0  0
M  END
>  <MODEL>
7

>  <REMARK>
 VINA RESULT:      -7.9      3.011      7.316
  Name = 
  2 active torsions:
  status: ('A' for Active; 'I' for Inactive)
    1  A    between atoms: C_20  and  C_29
    2  A    between atoms: C_29  and  C_30
                            x       y       z     vdW  Elec       q    Type
                         _______ _______ _______ _____ _____    ______ ____

>  <TORSDO>
F 2

$$$$
=
 OpenBabel11112416303D

 32 37  0  0  1  0  0  0  0  0999 V2000
  194.3600  171.4610  145.5370 O   0  0  0  0  0  0  0  0  0  0  0  0
  191.0710  175.3380  144.9790 N   0  0  1  0  0  0  0  0  0  0  0  0
  191.1810  177.9060  149.2070 C   0  0  0  0  0  3  0  0  0  0  0  0
  190.0920  178.6590  148.7620 C   0  0  0  0  0  3  0  0  0  0  0  0
  188.8940  175.3640  143.6760 C   0  0  0  0  0  0  0  0  0  0  0  0
  187.8460  176.3530  143.2070 C   0  0  1  0  0  3  0  0  0  0  0  0
  192.8820  173.8370  144.3310 C   0  0  1  0  0  3  0  0  0  0  0  0
  193.1240  175.2990  146.3530 C   0  0  0  0  0  2  0  0  0  0  0  0
  186.4090  178.0490  143.9330 C   0  0  2  0  0  3  0  0  0  0  0  0
  195.0370  173.7690  145.7160 C   0  0  0  0  0  2  0  0  0  0  0  0
  191.6780  176.8640  148.4210 C   0  0  0  0  0  3  0  0  0  0  0  0
  191.5920  175.3840  146.3700 C   0  0  1  0  0  3  0  0  0  0  0  0
  191.1030  176.5750  147.1740 C   0  0  0  0  0  0  0  0  0  0  0  0
  189.3890  177.0260  145.4070 C   0  0  2  0  0  3  0  0  0  0  0  0
  185.5630  176.9590  143.2960 C   0  0  0  0  0  2  0  0  0  0  0  0
  193.5230  171.2970  144.4020 C   0  0  0  0  0  2  0  0  0  0  0  0
  193.5220  173.9730  145.7190 C   0  0  2  0  0  3  0  0  0  0  0  0
  186.4630  175.7550  143.2020 C   0  0  0  0  0  2  0  0  0  0  0  0
  193.2560  172.5650  143.5540 C   0  0  0  0  0  2  0  0  0  0  0  0
  195.4020  172.3610  145.2340 C   0  0  1  0  0  3  0  0  0  0  0  0
  189.4930  178.3630  147.5350 C   0  0  0  0  0  3  0  0  0  0  0  0
  189.9730  177.3030  146.7550 C   0  0  0  0  0  0  0  0  0  0  0  0
  188.0190  177.3050  145.3310 O   0  0  0  0  0  0  0  0  0  0  0  0
  191.3710  173.9950  144.4650 C   0  0  0  0  0  2  0  0  0  0  0  0
  189.0830  174.3540  143.0160 O   0  0  0  0  0  0  0  0  0  0  0  0
  186.3350  179.3100  143.0960 C   0  0  0  0  0  1  0  0  0  0  0  0
  189.6150  175.5750  145.0020 C   0  0  2  0  0  3  0  0  0  0  0  0
  187.7920  177.5880  144.0150 N   0  0  1  0  0  0  0  0  0  0  0  0
  196.6930  171.9150  145.8990 C   0  0  0  0  0  2  0  0  0  0  0  0
  196.8480  170.4360  145.8000 C   0  0  0  0  0  0  0  0  0  0  0  0
  197.0620  169.8410  144.5640 O   0  0  0  0  0  0  0  0  0  0  0  0
  196.8190  169.7290  146.8420 O   0  0  0  0  0  1  0  0  0  0  0  0
  2 24  1  1  0  0  0
  2 27  1  0  0  0  0
  2 12  1  0  0  0  0
  4  3  1  0  0  0  0
  6 18  1  1  0  0  0
  6  5  1  0  0  0  0
  6 28  1  0  0  0  0
  7 19  1  1  0  0  0
  7 24  1  0  0  0  0
  7 17  1  0  0  0  0
  9 26  1  6  0  0  0
  9 28  1  0  0  0  0
 11  3  2  0  0  0  0
 12  8  1  6  0  0  0
 12 13  1  0  0  0  0
 13 11  1  0  0  0  0
 14 23  1  1  0  0  0
 14 22  1  0  0  0  0
 15  9  1  0  0  0  0
 16  1  1  0  0  0  0
 17 10  1  6  0  0  0
 17  8  1  0  0  0  0
 18 15  1  0  0  0  0
 19 16  1  0  0  0  0
 20  1  1  0  0  0  0
 20 10  1  0  0  0  0
 20 29  1  1  0  0  0
 21  4  2  0  0  0  0
 22 13  2  0  0  0  0
 22 21  1  0  0  0  0
 25  5  2  0  0  0  0
 27  5  1  6  0  0  0
 27 14  1  0  0  0  0
 28 23  1  1  0  0  0
 30 29  1  0  0  0  0
 30 32  1  0  0  0  0
 31 30  2  0  0  0  0
M  END
>  <MODEL>
8

>  <REMARK>
 VINA RESULT:      -7.8      3.253      9.775
  Name = 
  2 active torsions:
  status: ('A' for Active; 'I' for Inactive)
    1  A    between atoms: C_20  and  C_29
    2  A    between atoms: C_29  and  C_30
                            x       y       z     vdW  Elec       q    Type
                         _______ _______ _______ _____ _____    ______ ____

>  <TORSDO>
F 2

$$$$
=
 OpenBabel11112416303D

 32 37  0  0  1  0  0  0  0  0999 V2000
  187.4120  176.5930  146.3860 O   0  0  0  0  0  0  0  0  0  0  0  0
  191.7530  174.7980  144.3610 N   0  0  1  0  0  0  0  0  0  0  0  0
  190.5690  170.6640  141.9130 C   0  0  0  0  0  3  0  0  0  0  0  0
  191.9280  170.4030  141.7250 C   0  0  0  0  0  3  0  0  0  0  0  0
  194.0960  174.9320  145.3230 C   0  0  0  0  0  0  0  0  0  0  0  0
  195.5280  174.6620  144.9050 C   0  0  1  0  0  3  0  0  0  0  0  0
  190.0860  176.4870  144.9280 C   0  0  1  0  0  3  0  0  0  0  0  0
  189.4640  174.5490  143.4640 C   0  0  0  0  0  2  0  0  0  0  0  0
  196.9430  173.0360  143.9980 C   0  0  2  0  0  3  0  0  0  0  0  0
  187.7020  176.2810  144.0110 C   0  0  0  0  0  2  0  0  0  0  0  0
  190.1670  171.7820  142.6480 C   0  0  0  0  0  3  0  0  0  0  0  0
  190.6750  173.8200  144.0600 C   0  0  1  0  0  3  0  0  0  0  0  0
  191.1200  172.6600  143.1880 C   0  0  0  0  0  0  0  0  0  0  0  0
  193.5020  173.3210  143.5750 C   0  0  2  0  0  3  0  0  0  0  0  0
  197.4890  173.4240  145.3620 C   0  0  0  0  0  2  0  0  0  0  0  0
  188.5610  177.2290  146.9260 C   0  0  0  0  0  2  0  0  0  0  0  0
  188.9530  175.5470  144.4940 C   0  0  2  0  0  3  0  0  0  0  0  0
  196.3680  174.1570  146.0510 C   0  0  0  0  0  2  0  0  0  0  0  0
  189.6850  177.5870  145.9230 C   0  0  0  0  0  2  0  0  0  0  0  0
  187.1080  177.1490  145.1270 C   0  0  1  0  0  3  0  0  0  0  0  0
  192.8860  171.2530  142.2820 C   0  0  0  0  0  3  0  0  0  0  0  0
  192.4880  172.3620  143.0390 C   0  0  0  0  0  0  0  0  0  0  0  0
  194.7100  172.7070  143.9280 O   0  0  0  0  0  0  0  0  0  0  0  0
  191.2510  175.6510  145.4460 C   0  0  0  0  0  2  0  0  0  0  0  0
  193.8840  175.7940  146.1610 O   0  0  0  0  0  0  0  0  0  0  0  0
  197.9100  173.4740  142.9160 C   0  0  0  0  0  1  0  0  0  0  0  0
  192.9610  174.0670  144.7880 C   0  0  2  0  0  3  0  0  0  0  0  0
  195.6510  173.6880  143.8020 N   0  0  1  0  0  0  0  0  0  0  0  0
  185.6030  177.2500  144.9450 C   0  0  0  0  0  2  0  0  0  0  0  0
  185.1570  178.6670  145.0650 C   0  0  0  0  0  0  0  0  0  0  0  0
  183.9880  178.9720  145.7490 O   0  0  0  0  0  1  0  0  0  0  0  0
  185.8570  179.5910  144.5760 O   0  0  0  0  0  0  0  0  0  0  0  0
  1 16  1  0  0  0  0
  2 27  1  0  0  0  0
  2 24  1  1  0  0  0
  3 11  1  0  0  0  0
  4  3  2  0  0  0  0
  4 21  1  0  0  0  0
  5 25  2  0  0  0  0
  6  5  1  0  0  0  0
  6 18  1  1  0  0  0
  7 24  1  1  0  0  0
  7 19  1  0  0  0  0
  9 26  1  6  0  0  0
  9 15  1  0  0  0  0
 10 17  1  0  0  0  0
 10 20  1  0  0  0  0
 11 13  2  0  0  0  0
 12  8  1  6  0  0  0
 12  2  1  0  0  0  0
 13 12  1  0  0  0  0
 14 22  1  1  0  0  0
 14 23  1  0  0  0  0
 14 27  1  0  0  0  0
 15 18  1  0  0  0  0
 17  8  1  6  0  0  0
 17  7  1  0  0  0  0
 19 16  1  0  0  0  0
 20 29  1  6  0  0  0
 20  1  1  0  0  0  0
 21 22  2  0  0  0  0
 22 13  1  0  0  0  0
 27  5  1  6  0  0  0
 28 23  1  1  0  0  0
 28  9  1  0  0  0  0
 28  6  1  0  0  0  0
 29 30  1  0  0  0  0
 30 31  1  0  0  0  0
 32 30  2  0  0  0  0
M  END
>  <MODEL>
9

>  <REMARK>
 VINA RESULT:      -7.8      2.870      4.271
  Name = 
  2 active torsions:
  status: ('A' for Active; 'I' for Inactive)
    1  A    between atoms: C_20  and  C_29
    2  A    between atoms: C_29  and  C_30
                            x       y       z     vdW  Elec       q    Type
                         _______ _______ _______ _____ _____    ______ ____

>  <TORSDO>
F 2

$$$$
