=
 OpenBabel11112416403D

 32 37  0  0  1  0  0  0  0  0999 V2000
  188.4700  176.0820  144.4640 C   0  0  0  0  0  0  0  0  0  0  0  0
  185.5040  178.0800  147.7800 C   0  0  0  0  0  3  0  0  0  0  0  0
  184.7710  178.7820  146.7080 C   0  0  0  0  0  3  0  0  0  0  0  0
  188.0680  176.5230  142.0180 C   0  0  0  0  0  0  0  0  0  0  0  0
  187.4490  177.4960  141.0560 C   0  0  1  0  0  3  0  0  0  0  0  0
  190.1020  174.3120  145.2680 C   0  0  2  0  0  3  0  0  0  0  0  0
  188.5110  175.3750  146.8870 C   0  0  0  0  0  2  0  0  0  0  0  0
  185.2270  177.9570  140.4180 N   0  0  0  0  0  0  0  0  0  0  0  0
  186.6610  177.4580  147.5340 C   0  0  0  0  0  3  0  0  0  0  0  0
  188.0750  176.3000  145.8370 N   0  0  0  0  0  0  0  0  0  0  0  0
  187.3270  177.5200  146.1770 C   0  0  1  0  0  3  0  0  0  0  0  0
  186.6180  177.5640  143.8070 C   0  0  0  0  0  0  0  0  0  0  0  0
  185.7980  177.4250  139.2550 N   0  0  0  0  0  2  0  0  0  0  0  0
  189.9480  174.9080  146.6710 C   0  0  2  0  0  3  0  0  0  0  0  0
  187.1180  176.9120  139.6760 C   0  0  0  0  0  2  0  0  0  0  0  0
  185.1570  178.6810  145.4340 C   0  0  0  0  0  3  0  0  0  0  0  0
  186.3490  177.8860  145.0810 C   0  0  0  0  0  0  0  0  0  0  0  0
  185.7340  177.9680  142.7490 N   0  0  0  0  0  0  0  0  0  0  0  0
  189.7400  175.3190  144.1760 C   0  0  0  0  0  2  0  0  0  0  0  0
  188.8490  175.6280  141.5940 O   0  0  0  0  0  0  0  0  0  0  0  0
  183.8190  178.3020  140.5080 C   0  0  0  0  0  1  0  0  0  0  0  0
  187.7820  176.6940  143.4720 C   0  0  0  0  0  0  0  0  0  0  0  0
  186.1140  177.9200  141.5070 C   0  0  0  0  0  0  0  0  0  0  0  0
  191.4930  175.9570  148.3160 C   0  0  0  0  0  2  0  0  0  0  0  0
  190.9360  176.0440  146.9090 C   0  0  1  0  0  3  0  0  0  0  0  0
  192.3170  175.4640  147.1450 C   0  0  1  0  0  3  0  0  0  0  0  0
  193.3170  176.4620  146.8010 N   0  0  0  0  0  2  0  0  0  0  0  0
  193.9120  176.5170  145.5040 C   0  0  0  0  0  0  0  0  0  0  0  0
  193.5820  175.6950  144.6100 O   0  0  0  0  0  0  0  0  0  0  0  0
  194.9310  177.5570  145.2080 C   0  0  0  0  0  1  0  0  0  0  0  0
  189.7120  172.5940  143.9280 C   0  0  0  0  0  1  0  0  0  0  0  0
  189.3190  173.1610  145.1410 O   0  0  0  0  0  0  0  0  0  0  0  0
  1 10  1  0  0  0  0
  3  2  1  0  0  0  0
  4 22  1  0  0  0  0
  5 15  1  6  0  0  0
  5 23  1  0  0  0  0
  5  4  1  0  0  0  0
  6 32  1  1  0  0  0
  6 14  1  0  0  0  0
  8 21  1  0  0  0  0
  8 23  1  0  0  0  0
  9  2  2  0  0  0  0
 10 11  1  0  0  0  0
 10  7  1  0  0  0  0
 11  9  1  1  0  0  0
 12 17  2  0  0  0  0
 13 15  1  0  0  0  0
 13  8  1  0  0  0  0
 14  7  1  6  0  0  0
 14 25  1  0  0  0  0
 16  3  2  0  0  0  0
 17 16  1  0  0  0  0
 17 11  1  0  0  0  0
 18 12  1  0  0  0  0
 19  1  1  0  0  0  0
 19  6  1  0  0  0  0
 20  4  2  0  0  0  0
 22 12  1  0  0  0  0
 22  1  2  0  0  0  0
 23 18  2  0  0  0  0
 25 26  1  0  0  0  0
 25 24  1  1  0  0  0
 26 27  1  6  0  0  0
 26 24  1  0  0  0  0
 28 27  1  0  0  0  0
 29 28  2  0  0  0  0
 30 28  1  0  0  0  0
 31 32  1  0  0  0  0
M  END
>  <MODEL>
1

>  <REMARK>
 VINA RESULT:      -8.9      0.000      0.000
  Name = 
  3 active torsions:
  status: ('A' for Active; 'I' for Inactive)
    1  A    between atoms: C_7  and  O_19
    2  A    between atoms: C_10  and  C_17
    3  A    between atoms: C_20  and  N_29
                            x       y       z     vdW  Elec       q    Type
                         _______ _______ _______ _____ _____    ______ ____

>  <TORSDO>
F 3

$$$$
=
 OpenBabel11112416403D

 32 37  0  0  1  0  0  0  0  0999 V2000
  188.7250  175.9140  143.7750 C   0  0  0  0  0  0  0  0  0  0  0  0
  186.5890  178.1930  147.5220 C   0  0  0  0  0  3  0  0  0  0  0  0
  185.7310  178.9420  146.5830 C   0  0  0  0  0  3  0  0  0  0  0  0
  187.9200  176.3620  141.4330 C   0  0  0  0  0  0  0  0  0  0  0  0
  187.2160  177.3730  140.5740 C   0  0  1  0  0  3  0  0  0  0  0  0
  190.3260  174.0200  144.3160 C   0  0  2  0  0  3  0  0  0  0  0  0
  189.1510  175.2330  146.1690 C   0  0  0  0  0  2  0  0  0  0  0  0
  184.9600  178.0150  140.3390 N   0  0  0  0  0  0  0  0  0  0  0  0
  187.6260  177.4720  147.0860 C   0  0  0  0  0  3  0  0  0  0  0  0
  188.6070  176.1800  145.1910 N   0  0  0  0  0  0  0  0  0  0  0  0
  188.0350  177.4630  145.6300 C   0  0  1  0  0  3  0  0  0  0  0  0
  186.9120  177.5420  143.4280 C   0  0  0  0  0  0  0  0  0  0  0  0
  185.2640  177.4240  139.1050 N   0  0  0  0  0  2  0  0  0  0  0  0
  190.4810  174.6420  145.7080 C   0  0  2  0  0  3  0  0  0  0  0  0
  186.5920  176.8050  139.2930 C   0  0  0  0  0  2  0  0  0  0  0  0
  185.8690  178.7960  145.2630 C   0  0  0  0  0  3  0  0  0  0  0  0
  186.9070  177.8980  144.7200 C   0  0  0  0  0  0  0  0  0  0  0  0
  185.8850  178.0080  142.5370 N   0  0  0  0  0  0  0  0  0  0  0  0
  189.8540  175.0430  143.2820 C   0  0  0  0  0  2  0  0  0  0  0  0
  188.5340  175.3990  140.8980 O   0  0  0  0  0  0  0  0  0  0  0  0
  183.6260  178.4800  140.6730 C   0  0  0  0  0  1  0  0  0  0  0  0
  187.9200  176.5720  142.9100 C   0  0  0  0  0  0  0  0  0  0  0  0
  186.0250  177.9140  141.2490 C   0  0  0  0  0  0  0  0  0  0  0  0
  192.5290  175.4210  146.8880 C   0  0  0  0  0  2  0  0  0  0  0  0
  191.5850  175.6920  145.7330 C   0  0  1  0  0  3  0  0  0  0  0  0
  192.9200  175.0210  145.4810 C   0  0  1  0  0  3  0  0  0  0  0  0
  193.8500  175.9970  144.9390 N   0  0  0  0  0  2  0  0  0  0  0  0
  195.0900  175.6100  144.3440 C   0  0  0  0  0  0  0  0  0  0  0  0
  195.4150  174.3960  144.2690 O   0  0  0  0  0  0  0  0  0  0  0  0
  196.0030  176.6510  143.8060 C   0  0  0  0  0  1  0  0  0  0  0  0
  190.2590  171.8090  144.3450 C   0  0  0  0  0  1  0  0  0  0  0  0
  189.4420  172.9390  144.3630 O   0  0  0  0  0  0  0  0  0  0  0  0
  1 10  1  0  0  0  0
  3  2  1  0  0  0  0
  4 22  1  0  0  0  0
  5 15  1  6  0  0  0
  5 23  1  0  0  0  0
  5  4  1  0  0  0  0
  6 32  1  1  0  0  0
  6 14  1  0  0  0  0
  8 21  1  0  0  0  0
  8 23  1  0  0  0  0
  9  2  2  0  0  0  0
 10 11  1  0  0  0  0
 10  7  1  0  0  0  0
 11  9  1  1  0  0  0
 12 17  2  0  0  0  0
 13 15  1  0  0  0  0
 13  8  1  0  0  0  0
 14 25  1  0  0  0  0
 14  7  1  6  0  0  0
 16  3  2  0  0  0  0
 17 16  1  0  0  0  0
 17 11  1  0  0  0  0
 18 12  1  0  0  0  0
 19  1  1  0  0  0  0
 19  6  1  0  0  0  0
 20  4  2  0  0  0  0
 22 12  1  0  0  0  0
 22  1  2  0  0  0  0
 23 18  2  0  0  0  0
 25 24  1  1  0  0  0
 26 27  1  6  0  0  0
 26 25  1  0  0  0  0
 26 24  1  0  0  0  0
 28 27  1  0  0  0  0
 29 28  2  0  0  0  0
 30 28  1  0  0  0  0
 31 32  1  0  0  0  0
M  END
>  <MODEL>
2

>  <REMARK>
 VINA RESULT:      -8.3      1.054      1.126
  Name = 
  3 active torsions:
  status: ('A' for Active; 'I' for Inactive)
    1  A    between atoms: C_7  and  O_19
    2  A    between atoms: C_10  and  C_17
    3  A    between atoms: C_20  and  N_29
                            x       y       z     vdW  Elec       q    Type
                         _______ _______ _______ _____ _____    ______ ____

>  <TORSDO>
F 3

$$$$
=
 OpenBabel11112416403D

 32 37  0  0  1  0  0  0  0  0999 V2000
  189.0770  174.8620  142.8600 C   0  0  0  0  0  0  0  0  0  0  0  0
  188.1320  175.6260  147.5840 C   0  0  0  0  0  3  0  0  0  0  0  0
  187.1410  176.6600  147.2230 C   0  0  0  0  0  3  0  0  0  0  0  0
  187.7680  176.1210  141.1170 C   0  0  0  0  0  0  0  0  0  0  0  0
  186.9690  177.3700  140.8800 C   0  0  1  0  0  3  0  0  0  0  0  0
  190.5870  172.9090  142.2690 C   0  0  2  0  0  3  0  0  0  0  0  0
  190.0120  173.3660  144.6660 C   0  0  0  0  0  2  0  0  0  0  0  0
  184.7900  178.0420  141.4780 N   0  0  0  0  0  0  0  0  0  0  0  0
  188.9630  175.1160  146.6700 C   0  0  0  0  0  3  0  0  0  0  0  0
  189.3330  174.6000  144.2580 N   0  0  0  0  0  0  0  0  0  0  0  0
  189.0020  175.6350  145.2490 C   0  0  1  0  0  3  0  0  0  0  0  0
  187.3860  176.4970  143.5870 C   0  0  0  0  0  0  0  0  0  0  0  0
  184.7290  177.9370  140.0820 N   0  0  0  0  0  2  0  0  0  0  0  0
  191.1310  172.9890  143.6990 C   0  0  2  0  0  3  0  0  0  0  0  0
  186.0020  177.2990  139.6900 C   0  0  0  0  0  2  0  0  0  0  0  0
  186.9390  177.0000  145.9480 C   0  0  0  0  0  3  0  0  0  0  0  0
  187.7280  176.3640  144.8760 C   0  0  0  0  0  0  0  0  0  0  0  0
  186.2190  177.2480  143.2150 N   0  0  0  0  0  0  0  0  0  0  0  0
  189.9690  174.2340  141.8180 C   0  0  0  0  0  2  0  0  0  0  0  0
  188.1450  175.4190  140.1390 O   0  0  0  0  0  0  0  0  0  0  0  0
  183.6240  178.3480  142.2880 C   0  0  0  0  0  1  0  0  0  0  0  0
  188.1470  175.7840  142.5200 C   0  0  0  0  0  0  0  0  0  0  0  0
  186.0320  177.6250  141.9860 C   0  0  0  0  0  0  0  0  0  0  0  0
  193.4540  173.3120  144.5330 C   0  0  0  0  0  2  0  0  0  0  0  0
  192.2970  173.9650  143.8020 C   0  0  1  0  0  3  0  0  0  0  0  0
  193.4770  173.4190  143.0220 C   0  0  1  0  0  3  0  0  0  0  0  0
  194.3370  174.5210  142.6260 N   0  0  0  0  0  2  0  0  0  0  0  0
  194.1610  175.2090  141.3870 C   0  0  0  0  0  0  0  0  0  0  0  0
  193.2420  174.8770  140.5930 O   0  0  0  0  0  0  0  0  0  0  0  0
  195.0710  176.3280  141.0320 C   0  0  0  0  0  1  0  0  0  0  0  0
  190.4040  170.7280  141.9440 C   0  0  0  0  0  1  0  0  0  0  0  0
  189.6480  171.8800  142.1640 O   0  0  0  0  0  0  0  0  0  0  0  0
  1 10  1  0  0  0  0
  3  2  1  0  0  0  0
  4 22  1  0  0  0  0
  5 15  1  6  0  0  0
  5  4  1  0  0  0  0
  5 23  1  0  0  0  0
  6 32  1  1  0  0  0
  6 14  1  0  0  0  0
  8 23  1  0  0  0  0
  8 21  1  0  0  0  0
  9  2  2  0  0  0  0
 10  7  1  0  0  0  0
 10 11  1  0  0  0  0
 11  9  1  1  0  0  0
 12 17  2  0  0  0  0
 13  8  1  0  0  0  0
 14 25  1  0  0  0  0
 14  7  1  1  0  0  0
 15 13  1  0  0  0  0
 16  3  2  0  0  0  0
 17 11  1  0  0  0  0
 17 16  1  0  0  0  0
 18 12  1  0  0  0  0
 19  6  1  0  0  0  0
 19  1  1  0  0  0  0
 20  4  2  0  0  0  0
 22  1  2  0  0  0  0
 22 12  1  0  0  0  0
 23 18  2  0  0  0  0
 25 24  1  1  0  0  0
 26 27  1  1  0  0  0
 26 25  1  0  0  0  0
 26 24  1  0  0  0  0
 28 27  1  0  0  0  0
 29 28  2  0  0  0  0
 30 28  1  0  0  0  0
 31 32  1  0  0  0  0
M  END
>  <MODEL>
3

>  <REMARK>
 VINA RESULT:      -7.5      2.303      2.974
  Name = 
  3 active torsions:
  status: ('A' for Active; 'I' for Inactive)
    1  A    between atoms: C_7  and  O_19
    2  A    between atoms: C_10  and  C_17
    3  A    between atoms: C_20  and  N_29
                            x       y       z     vdW  Elec       q    Type
                         _______ _______ _______ _____ _____    ______ ____

>  <TORSDO>
F 3

$$$$
=
 OpenBabel11112416403D

 32 37  0  0  1  0  0  0  0  0999 V2000
  189.2160  175.2850  143.4220 C   0  0  0  0  0  0  0  0  0  0  0  0
  192.0610  175.5710  147.3730 C   0  0  0  0  0  3  0  0  0  0  0  0
  191.1900  176.6250  147.9300 C   0  0  0  0  0  3  0  0  0  0  0  0
  187.1350  176.6940  143.2910 C   0  0  0  0  0  0  0  0  0  0  0  0
  186.4980  177.9530  143.8080 C   0  0  1  0  0  3  0  0  0  0  0  0
  189.6890  173.4150  141.7720 C   0  0  2  0  0  3  0  0  0  0  0  0
  191.0720  173.6280  143.8520 C   0  0  0  0  0  2  0  0  0  0  0  0
  185.4910  178.5400  145.8560 N   0  0  0  0  0  0  0  0  0  0  0  0
  191.9300  175.1620  146.1080 C   0  0  0  0  0  3  0  0  0  0  0  0
  190.3920  174.8890  144.1640 N   0  0  0  0  0  0  0  0  0  0  0  0
  190.9550  175.8180  145.1550 C   0  0  1  0  0  3  0  0  0  0  0  0
  188.6980  176.8220  145.2730 C   0  0  0  0  0  0  0  0  0  0  0  0
  184.4270  178.5730  144.9460 N   0  0  0  0  0  2  0  0  0  0  0  0
  191.1070  173.3590  142.3490 C   0  0  2  0  0  3  0  0  0  0  0  0
  184.9680  177.9890  143.7020 C   0  0  0  0  0  2  0  0  0  0  0  0
  190.1450  177.0860  147.2390 C   0  0  0  0  0  3  0  0  0  0  0  0
  189.8620  176.5670  145.8870 C   0  0  0  0  0  0  0  0  0  0  0  0
  187.6790  177.5940  145.9300 N   0  0  0  0  0  0  0  0  0  0  0  0
  189.0250  174.7710  142.0160 C   0  0  0  0  0  2  0  0  0  0  0  0
  186.6340  176.0960  142.3000 O   0  0  0  0  0  0  0  0  0  0  0  0
  185.3060  178.7530  147.2810 C   0  0  0  0  0  1  0  0  0  0  0  0
  188.3930  176.2260  143.9400 C   0  0  0  0  0  0  0  0  0  0  0  0
  186.6810  178.0890  145.2620 C   0  0  0  0  0  0  0  0  0  0  0  0
  193.4820  173.9170  141.8590 C   0  0  0  0  0  2  0  0  0  0  0  0
  192.0410  174.3320  141.6390 C   0  0  1  0  0  3  0  0  0  0  0  0
  192.7940  173.5970  140.5490 C   0  0  1  0  0  3  0  0  0  0  0  0
  193.2130  174.5500  139.5340 N   0  0  0  0  0  2  0  0  0  0  0  0
  192.9680  174.3280  138.1450 C   0  0  0  0  0  0  0  0  0  0  0  0
  192.3720  173.2900  137.7540 O   0  0  0  0  0  0  0  0  0  0  0  0
  193.4200  175.3350  137.1500 C   0  0  0  0  0  1  0  0  0  0  0  0
  187.6260  172.6130  141.7980 C   0  0  0  0  0  1  0  0  0  0  0  0
  188.9050  172.3910  142.3100 O   0  0  0  0  0  0  0  0  0  0  0  0
  1 22  2  0  0  0  0
  1 10  1  0  0  0  0
  2  3  1  0  0  0  0
  4  5  1  0  0  0  0
  4 22  1  0  0  0  0
  5 15  1  1  0  0  0
  5 23  1  0  0  0  0
  6 19  1  0  0  0  0
  6 32  1  1  0  0  0
  6 14  1  0  0  0  0
  7 10  1  0  0  0  0
  8 21  1  0  0  0  0
  9  2  2  0  0  0  0
 10 11  1  0  0  0  0
 11 17  1  0  0  0  0
 11  9  1  1  0  0  0
 12 17  2  0  0  0  0
 12 18  1  0  0  0  0
 13  8  1  0  0  0  0
 14  7  1  1  0  0  0
 15 13  1  0  0  0  0
 16  3  2  0  0  0  0
 17 16  1  0  0  0  0
 19  1  1  0  0  0  0
 20  4  2  0  0  0  0
 22 12  1  0  0  0  0
 23  8  1  0  0  0  0
 23 18  2  0  0  0  0
 25 24  1  1  0  0  0
 25 14  1  0  0  0  0
 26 27  1  6  0  0  0
 26 25  1  0  0  0  0
 26 24  1  0  0  0  0
 28 27  1  0  0  0  0
 29 28  2  0  0  0  0
 30 28  1  0  0  0  0
 31 32  1  0  0  0  0
M  END
>  <MODEL>
4

>  <REMARK>
 VINA RESULT:      -7.3      3.168      5.139
  Name = 
  3 active torsions:
  status: ('A' for Active; 'I' for Inactive)
    1  A    between atoms: C_7  and  O_19
    2  A    between atoms: C_10  and  C_17
    3  A    between atoms: C_20  and  N_29
                            x       y       z     vdW  Elec       q    Type
                         _______ _______ _______ _____ _____    ______ ____

>  <TORSDO>
F 3

$$$$
=
 OpenBabel11112416403D

 32 37  0  0  1  0  0  0  0  0999 V2000
  190.8360  175.4440  144.9910 C   0  0  0  0  0  0  0  0  0  0  0  0
  189.8210  173.9250  140.4690 C   0  0  0  0  0  3  0  0  0  0  0  0
  188.4150  174.3370  140.6410 C   0  0  0  0  0  3  0  0  0  0  0  0
  189.0340  176.5460  146.3600 C   0  0  0  0  0  0  0  0  0  0  0  0
  187.5450  176.6550  146.5270 C   0  0  1  0  0  3  0  0  0  0  0  0
  193.2720  175.4540  145.7040 C   0  0  2  0  0  3  0  0  0  0  0  0
  192.6490  174.7240  143.3880 C   0  0  0  0  0  2  0  0  0  0  0  0
  185.8560  177.7850  145.3330 N   0  0  0  0  0  0  0  0  0  0  0  0
  190.6640  173.8910  141.5050 C   0  0  0  0  0  3  0  0  0  0  0  0
  191.2310  174.8150  143.7510 N   0  0  0  0  0  0  0  0  0  0  0  0
  190.2020  174.1740  142.9180 C   0  0  1  0  0  3  0  0  0  0  0  0
  188.5820  175.6750  144.0310 C   0  0  0  0  0  0  0  0  0  0  0  0
  185.8760  178.4390  146.5720 N   0  0  0  0  0  2  0  0  0  0  0  0
  193.5260  174.4220  144.6000 C   0  0  2  0  0  3  0  0  0  0  0  0
  187.0720  177.9160  147.2630 C   0  0  0  0  0  2  0  0  0  0  0  0
  187.9840  174.8380  141.8010 C   0  0  0  0  0  3  0  0  0  0  0  0
  188.9080  174.9600  142.9450 C   0  0  0  0  0  0  0  0  0  0  0  0
  187.3240  176.3670  144.0990 N   0  0  0  0  0  0  0  0  0  0  0  0
  191.8080  175.4700  146.1450 C   0  0  0  0  0  2  0  0  0  0  0  0
  189.8020  176.9830  147.2590 O   0  0  0  0  0  0  0  0  0  0  0  0
  185.0110  178.2200  144.2350 C   0  0  0  0  0  1  0  0  0  0  0  0
  189.5560  175.8560  145.1460 C   0  0  0  0  0  0  0  0  0  0  0  0
  186.8710  176.8190  145.2290 C   0  0  0  0  0  0  0  0  0  0  0  0
  193.6820  172.0070  144.0190 C   0  0  0  0  0  2  0  0  0  0  0  0
  193.3010  172.9990  145.1000 C   0  0  1  0  0  3  0  0  0  0  0  0
  194.6320  172.2770  145.1670 C   0  0  1  0  0  3  0  0  0  0  0  0
  194.5390  171.1980  146.1380 N   0  0  0  0  0  2  0  0  0  0  0  0
  195.4490  170.0980  146.1320 C   0  0  0  0  0  0  0  0  0  0  0  0
  196.3710  170.0300  145.2760 O   0  0  0  0  0  0  0  0  0  0  0  0
  195.3080  169.0220  147.1470 C   0  0  0  0  0  1  0  0  0  0  0  0
  194.5660  177.1660  146.2440 C   0  0  0  0  0  1  0  0  0  0  0  0
  193.6610  176.7260  145.2770 O   0  0  0  0  0  0  0  0  0  0  0  0
  1 22  2  0  0  0  0
  1 19  1  0  0  0  0
  2  3  1  0  0  0  0
  2  9  2  0  0  0  0
  3 16  2  0  0  0  0
  4  5  1  0  0  0  0
  4 20  2  0  0  0  0
  5 15  1  1  0  0  0
  6 32  1  6  0  0  0
  6 19  1  0  0  0  0
  7 10  1  0  0  0  0
  8 13  1  0  0  0  0
 10  1  1  0  0  0  0
 11  9  1  6  0  0  0
 11 17  1  0  0  0  0
 11 10  1  0  0  0  0
 12 18  1  0  0  0  0
 12 22  1  0  0  0  0
 13 15  1  0  0  0  0
 14  7  1  6  0  0  0
 14 25  1  0  0  0  0
 14  6  1  0  0  0  0
 16 17  1  0  0  0  0
 17 12  2  0  0  0  0
 18 23  2  0  0  0  0
 21  8  1  0  0  0  0
 22  4  1  0  0  0  0
 23  8  1  0  0  0  0
 23  5  1  0  0  0  0
 24 26  1  0  0  0  0
 25 24  1  6  0  0  0
 25 26  1  0  0  0  0
 26 27  1  1  0  0  0
 28 27  1  0  0  0  0
 28 30  1  0  0  0  0
 29 28  2  0  0  0  0
 32 31  1  0  0  0  0
M  END
>  <MODEL>
5

>  <REMARK>
 VINA RESULT:      -7.1      3.202      5.655
  Name = 
  3 active torsions:
  status: ('A' for Active; 'I' for Inactive)
    1  A    between atoms: C_7  and  O_19
    2  A    between atoms: C_10  and  C_17
    3  A    between atoms: C_20  and  N_29
                            x       y       z     vdW  Elec       q    Type
                         _______ _______ _______ _____ _____    ______ ____

>  <TORSDO>
F 3

$$$$
=
 OpenBabel11112416403D

 32 37  0  0  1  0  0  0  0  0999 V2000
  190.0820  175.0380  143.0330 C   0  0  0  0  0  0  0  0  0  0  0  0
  191.2710  176.0400  147.6560 C   0  0  0  0  0  3  0  0  0  0  0  0
  190.3590  177.2000  147.6440 C   0  0  0  0  0  3  0  0  0  0  0  0
  188.3420  176.4370  141.8710 C   0  0  0  0  0  0  0  0  0  0  0  0
  187.6820  177.7860  141.8760 C   0  0  1  0  0  3  0  0  0  0  0  0
  190.9550  172.8690  142.0440 C   0  0  2  0  0  3  0  0  0  0  0  0
  191.4800  173.4600  144.4230 C   0  0  0  0  0  2  0  0  0  0  0  0
  186.0460  178.7880  143.2470 N   0  0  0  0  0  0  0  0  0  0  0  0
  191.5800  175.3910  146.5300 C   0  0  0  0  0  3  0  0  0  0  0  0
  190.8550  174.7710  144.2250 N   0  0  0  0  0  0  0  0  0  0  0  0
  191.0960  175.8660  145.1770 C   0  0  1  0  0  3  0  0  0  0  0  0
  189.0620  176.9210  144.2450 C   0  0  0  0  0  0  0  0  0  0  0  0
  185.4040  178.6620  142.0080 N   0  0  0  0  0  2  0  0  0  0  0  0
  192.0450  172.8980  143.1200 C   0  0  2  0  0  3  0  0  0  0  0  0
  186.3100  177.8320  141.1880 C   0  0  0  0  0  2  0  0  0  0  0  0
  189.6940  177.5380  146.5360 C   0  0  0  0  0  3  0  0  0  0  0  0
  189.8850  176.7680  145.2920 C   0  0  0  0  0  0  0  0  0  0  0  0
  187.9500  177.8290  144.3170 N   0  0  0  0  0  0  0  0  0  0  0  0
  190.3800  174.2600  141.7740 C   0  0  0  0  0  2  0  0  0  0  0  0
  188.1910  175.6650  140.8860 O   0  0  0  0  0  0  0  0  0  0  0  0
  185.3670  179.2820  144.4310 C   0  0  0  0  0  1  0  0  0  0  0  0
  189.2190  176.0790  143.0240 C   0  0  0  0  0  0  0  0  0  0  0  0
  187.3230  178.2020  143.2420 C   0  0  0  0  0  0  0  0  0  0  0  0
  194.5310  172.9510  143.0360 C   0  0  0  0  0  2  0  0  0  0  0  0
  193.2630  173.6920  142.6630 C   0  0  1  0  0  3  0  0  0  0  0  0
  194.0140  172.8960  141.6140 C   0  0  1  0  0  3  0  0  0  0  0  0
  194.7810  173.8090  140.7820 N   0  0  0  0  0  2  0  0  0  0  0  0
  194.2470  174.3640  139.5800 C   0  0  0  0  0  0  0  0  0  0  0  0
  193.0800  174.0780  139.2030 O   0  0  0  0  0  0  0  0  0  0  0  0
  195.0760  175.2910  138.7670 C   0  0  0  0  0  1  0  0  0  0  0  0
  190.4230  170.7210  142.0900 C   0  0  0  0  0  1  0  0  0  0  0  0
  189.9340  171.9880  142.4110 O   0  0  0  0  0  0  0  0  0  0  0  0
  1 10  1  0  0  0  0
  3  2  1  0  0  0  0
  4  5  1  0  0  0  0
  4 22  1  0  0  0  0
  5 15  1  6  0  0  0
  5 23  1  0  0  0  0
  6 32  1  1  0  0  0
  6 14  1  0  0  0  0
  8 21  1  0  0  0  0
  9  2  2  0  0  0  0
 10  7  1  0  0  0  0
 10 11  1  0  0  0  0
 11 17  1  0  0  0  0
 11  9  1  1  0  0  0
 12 18  1  0  0  0  0
 12 17  2  0  0  0  0
 13  8  1  0  0  0  0
 14  7  1  1  0  0  0
 15 13  1  0  0  0  0
 16  3  2  0  0  0  0
 17 16  1  0  0  0  0
 19  6  1  0  0  0  0
 19  1  1  0  0  0  0
 20  4  2  0  0  0  0
 22  1  2  0  0  0  0
 22 12  1  0  0  0  0
 23  8  1  0  0  0  0
 23 18  2  0  0  0  0
 25 24  1  1  0  0  0
 25 14  1  0  0  0  0
 26 27  1  6  0  0  0
 26 25  1  0  0  0  0
 26 24  1  0  0  0  0
 28 27  1  0  0  0  0
 29 28  2  0  0  0  0
 30 28  1  0  0  0  0
 31 32  1  0  0  0  0
M  END
>  <MODEL>
6

>  <REMARK>
 VINA RESULT:      -7.1      3.050      4.311
  Name = 
  3 active torsions:
  status: ('A' for Active; 'I' for Inactive)
    1  A    between atoms: C_7  and  O_19
    2  A    between atoms: C_10  and  C_17
    3  A    between atoms: C_20  and  N_29
                            x       y       z     vdW  Elec       q    Type
                         _______ _______ _______ _____ _____    ______ ____

>  <TORSDO>
F 3

$$$$
=
 OpenBabel11112416403D

 32 37  0  0  1  0  0  0  0  0999 V2000
  189.8280  175.5740  143.5970 C   0  0  0  0  0  0  0  0  0  0  0  0
  191.4870  176.7480  148.0310 C   0  0  0  0  0  3  0  0  0  0  0  0
  190.3750  177.7030  148.1990 C   0  0  0  0  0  3  0  0  0  0  0  0
  187.6920  176.6090  142.7610 C   0  0  0  0  0  0  0  0  0  0  0  0
  186.7880  177.7990  142.9170 C   0  0  1  0  0  3  0  0  0  0  0  0
  190.9470  173.6320  142.4050 C   0  0  2  0  0  3  0  0  0  0  0  0
  191.7030  174.2930  144.7020 C   0  0  0  0  0  2  0  0  0  0  0  0
  185.2170  178.4410  144.5530 N   0  0  0  0  0  0  0  0  0  0  0  0
  191.7420  176.1850  146.8460 C   0  0  0  0  0  3  0  0  0  0  0  0
  190.8110  175.4550  144.6510 N   0  0  0  0  0  0  0  0  0  0  0  0
  190.9740  176.5670  145.6000 C   0  0  1  0  0  3  0  0  0  0  0  0
  188.6560  177.2040  145.0200 C   0  0  0  0  0  0  0  0  0  0  0  0
  184.4310  178.2020  143.4190 N   0  0  0  0  0  2  0  0  0  0  0  0
  192.1610  173.8680  143.3090 C   0  0  2  0  0  3  0  0  0  0  0  0
  185.3460  177.5780  142.4420 C   0  0  0  0  0  2  0  0  0  0  0  0
  189.4960  177.9120  147.2170 C   0  0  0  0  0  3  0  0  0  0  0  0
  189.6420  177.2070  145.9280 C   0  0  0  0  0  0  0  0  0  0  0  0
  187.4120  177.8710  145.2910 N   0  0  0  0  0  0  0  0  0  0  0  0
  190.0760  174.8830  142.2790 C   0  0  0  0  0  2  0  0  0  0  0  0
  187.5460  175.8330  141.7790 O   0  0  0  0  0  0  0  0  0  0  0  0
  184.6420  178.7780  145.8430 C   0  0  0  0  0  1  0  0  0  0  0  0
  188.7860  176.4220  143.7570 C   0  0  0  0  0  0  0  0  0  0  0  0
  186.5680  178.1220  144.3360 C   0  0  0  0  0  0  0  0  0  0  0  0
  194.3390  175.0370  143.5930 C   0  0  0  0  0  2  0  0  0  0  0  0
  193.1160  174.8930  142.7090 C   0  0  1  0  0  3  0  0  0  0  0  0
  194.4130  174.2060  142.3290 C   0  0  1  0  0  3  0  0  0  0  0  0
  195.0680  174.9720  141.2820 N   0  0  0  0  0  2  0  0  0  0  0  0
  196.4690  174.8580  141.0280 C   0  0  0  0  0  0  0  0  0  0  0  0
  197.1850  174.0790  141.7110 O   0  0  0  0  0  0  0  0  0  0  0  0
  197.0870  175.6660  139.9440 C   0  0  0  0  0  1  0  0  0  0  0  0
  190.0950  171.6790  141.8070 C   0  0  0  0  0  1  0  0  0  0  0  0
  190.1860  172.5620  142.8830 O   0  0  0  0  0  0  0  0  0  0  0  0
  1 22  2  0  0  0  0
  1 10  1  0  0  0  0
  2  3  1  0  0  0  0
  4  5  1  0  0  0  0
  4 22  1  0  0  0  0
  5 15  1  1  0  0  0
  5 23  1  0  0  0  0
  6 32  1  1  0  0  0
  6 14  1  0  0  0  0
  8 21  1  0  0  0  0
  9  2  2  0  0  0  0
 10  7  1  0  0  0  0
 10 11  1  0  0  0  0
 11 17  1  0  0  0  0
 11  9  1  1  0  0  0
 12 18  1  0  0  0  0
 12 17  2  0  0  0  0
 13  8  1  0  0  0  0
 14  7  1  1  0  0  0
 15 13  1  0  0  0  0
 16  3  2  0  0  0  0
 17 16  1  0  0  0  0
 19  6  1  0  0  0  0
 19  1  1  0  0  0  0
 20  4  2  0  0  0  0
 22 12  1  0  0  0  0
 23  8  1  0  0  0  0
 23 18  2  0  0  0  0
 25 14  1  0  0  0  0
 25 24  1  1  0  0  0
 26 27  1  6  0  0  0
 26 25  1  0  0  0  0
 26 24  1  0  0  0  0
 28 27  1  0  0  0  0
 28 29  2  0  0  0  0
 30 28  1  0  0  0  0
 31 32  1  0  0  0  0
M  END
>  <MODEL>
7

>  <REMARK>
 VINA RESULT:      -6.8      2.690      4.101
  Name = 
  3 active torsions:
  status: ('A' for Active; 'I' for Inactive)
    1  A    between atoms: C_7  and  O_19
    2  A    between atoms: C_10  and  C_17
    3  A    between atoms: C_20  and  N_29
                            x       y       z     vdW  Elec       q    Type
                         _______ _______ _______ _____ _____    ______ ____

>  <TORSDO>
F 3

$$$$
=
 OpenBabel11112416403D

 32 37  0  0  1  0  0  0  0  0999 V2000
  191.5410  175.4910  144.8370 C   0  0  0  0  0  0  0  0  0  0  0  0
  189.8600  171.3530  142.8770 C   0  0  0  0  0  3  0  0  0  0  0  0
  191.0890  171.2320  142.0680 C   0  0  0  0  0  3  0  0  0  0  0  0
  193.8410  176.3070  144.2210 C   0  0  0  0  0  0  0  0  0  0  0  0
  194.8970  176.2400  143.1560 C   0  0  1  0  0  3  0  0  0  0  0  0
  190.2120  176.5060  146.7470 C   0  0  2  0  0  3  0  0  0  0  0  0
  189.4510  174.3620  145.6940 C   0  0  0  0  0  2  0  0  0  0  0  0
  196.4660  174.5970  142.5250 N   0  0  0  0  0  0  0  0  0  0  0  0
  189.5830  172.4740  143.5500 C   0  0  0  0  0  3  0  0  0  0  0  0
  190.5030  174.4970  144.6810 N   0  0  0  0  0  0  0  0  0  0  0  0
  190.4560  173.7050  143.4430 C   0  0  1  0  0  3  0  0  0  0  0  0
  192.8670  174.2060  143.2090 C   0  0  0  0  0  0  0  0  0  0  0  0
  197.2620  175.6400  143.0170 N   0  0  0  0  0  2  0  0  0  0  0  0
  189.0030  175.7190  146.2310 C   0  0  2  0  0  3  0  0  0  0  0  0
  196.3140  176.5900  143.6320 C   0  0  0  0  0  2  0  0  0  0  0  0
  192.0340  172.1730  142.1110 C   0  0  0  0  0  3  0  0  0  0  0  0
  191.8490  173.3720  142.9530 C   0  0  0  0  0  0  0  0  0  0  0  0
  194.1790  173.9390  142.6890 N   0  0  0  0  0  0  0  0  0  0  0  0
  191.2580  176.7280  145.6540 C   0  0  0  0  0  2  0  0  0  0  0  0
  193.9200  177.1750  145.1320 O   0  0  0  0  0  0  0  0  0  0  0  0
  197.0220  173.3240  142.1040 C   0  0  0  0  0  1  0  0  0  0  0  0
  192.6850  175.3700  144.1250 C   0  0  0  0  0  0  0  0  0  0  0  0
  195.0950  174.8610  142.6820 C   0  0  0  0  0  0  0  0  0  0  0  0
  186.7790  176.0780  145.1750 C   0  0  0  0  0  2  0  0  0  0  0  0
  188.2340  176.5010  145.1730 C   0  0  1  0  0  3  0  0  0  0  0  0
  187.1930  177.3680  145.8500 C   0  0  1  0  0  3  0  0  0  0  0  0
  186.8740  178.4930  144.9860 N   0  0  0  0  0  2  0  0  0  0  0  0
  185.6330  179.1920  145.0840 C   0  0  0  0  0  0  0  0  0  0  0  0
  184.7680  178.8510  145.9330 O   0  0  0  0  0  0  0  0  0  0  0  0
  185.3590  180.3340  144.1740 C   0  0  0  0  0  1  0  0  0  0  0  0
  191.6350  176.7970  148.4160 C   0  0  0  0  0  1  0  0  0  0  0  0
  190.7880  175.8510  147.8390 O   0  0  0  0  0  0  0  0  0  0  0  0
  1 19  1  0  0  0  0
  2  9  2  0  0  0  0
  3 16  2  0  0  0  0
  3  2  1  0  0  0  0
  4 20  2  0  0  0  0
  5 15  1  1  0  0  0
  5  4  1  0  0  0  0
  6 32  1  1  0  0  0
  8 23  1  0  0  0  0
  8 13  1  0  0  0  0
 10  1  1  0  0  0  0
 10  7  1  0  0  0  0
 11  9  1  1  0  0  0
 11 10  1  0  0  0  0
 12 22  1  0  0  0  0
 13 15  1  0  0  0  0
 14  7  1  6  0  0  0
 14  6  1  0  0  0  0
 16 17  1  0  0  0  0
 17 12  2  0  0  0  0
 17 11  1  0  0  0  0
 18 12  1  0  0  0  0
 19  6  1  0  0  0  0
 21  8  1  0  0  0  0
 22  4  1  0  0  0  0
 22  1  2  0  0  0  0
 23 18  2  0  0  0  0
 23  5  1  0  0  0  0
 24 26  1  0  0  0  0
 25 24  1  6  0  0  0
 25 26  1  0  0  0  0
 25 14  1  0  0  0  0
 26 27  1  6  0  0  0
 27 28  1  0  0  0  0
 28 29  2  0  0  0  0
 30 28  1  0  0  0  0
 32 31  1  0  0  0  0
M  END
>  <MODEL>
8

>  <REMARK>
 VINA RESULT:      -6.8      2.991      7.743
  Name = 
  3 active torsions:
  status: ('A' for Active; 'I' for Inactive)
    1  A    between atoms: C_7  and  O_19
    2  A    between atoms: C_10  and  C_17
    3  A    between atoms: C_20  and  N_29
                            x       y       z     vdW  Elec       q    Type
                         _______ _______ _______ _____ _____    ______ ____

>  <TORSDO>
F 3

$$$$
=
 OpenBabel11112416403D

 32 37  0  0  1  0  0  0  0  0999 V2000
  191.9980  175.3690  143.7900 C   0  0  0  0  0  0  0  0  0  0  0  0
  190.2180  172.2150  140.5220 C   0  0  0  0  0  3  0  0  0  0  0  0
  191.4980  172.2480  139.7870 C   0  0  0  0  0  3  0  0  0  0  0  0
  194.3870  176.1370  143.5950 C   0  0  0  0  0  0  0  0  0  0  0  0
  195.5190  176.3170  142.6240 C   0  0  1  0  0  3  0  0  0  0  0  0
  190.5880  175.8440  145.8470 C   0  0  2  0  0  3  0  0  0  0  0  0
  189.7790  174.2120  144.1250 C   0  0  0  0  0  2  0  0  0  0  0  0
  197.0250  174.8260  141.5910 N   0  0  0  0  0  0  0  0  0  0  0  0
  189.9600  173.0870  141.5010 C   0  0  0  0  0  3  0  0  0  0  0  0
  190.9140  174.5680  143.2680 N   0  0  0  0  0  0  0  0  0  0  0  0
  190.9160  174.2100  141.8410 C   0  0  1  0  0  3  0  0  0  0  0  0
  193.3650  174.5510  141.9140 C   0  0  0  0  0  0  0  0  0  0  0  0
  197.8440  175.5900  142.4330 N   0  0  0  0  0  2  0  0  0  0  0  0
  189.3760  175.3650  145.0410 C   0  0  2  0  0  3  0  0  0  0  0  0
  196.9120  176.3770  143.2650 C   0  0  0  0  0  2  0  0  0  0  0  0
  192.4940  173.0440  140.1800 C   0  0  0  0  0  3  0  0  0  0  0  0
  192.3200  173.9300  141.3480 C   0  0  0  0  0  0  0  0  0  0  0  0
  194.6950  174.3490  141.4090 N   0  0  0  0  0  0  0  0  0  0  0  0
  191.7300  176.3070  144.9410 C   0  0  0  0  0  2  0  0  0  0  0  0
  194.4480  176.6650  144.7380 O   0  0  0  0  0  0  0  0  0  0  0  0
  197.5300  173.7070  140.8170 C   0  0  0  0  0  1  0  0  0  0  0  0
  193.1850  175.3800  143.1410 C   0  0  0  0  0  0  0  0  0  0  0  0
  195.6650  175.1440  141.7480 C   0  0  0  0  0  0  0  0  0  0  0  0
  187.4850  176.0160  143.5600 C   0  0  0  0  0  2  0  0  0  0  0  0
  188.7460  176.5030  144.2460 C   0  0  1  0  0  3  0  0  0  0  0  0
  187.3880  176.8300  144.8330 C   0  0  1  0  0  3  0  0  0  0  0  0
  187.0470  178.2050  144.5050 N   0  0  0  0  0  2  0  0  0  0  0  0
  185.6950  178.6650  144.4970 C   0  0  0  0  0  0  0  0  0  0  0  0
  184.7480  177.8840  144.7790 O   0  0  0  0  0  0  0  0  0  0  0  0
  185.4030  180.0810  144.1530 C   0  0  0  0  0  1  0  0  0  0  0  0
  191.2380  175.4680  147.9280 C   0  0  0  0  0  1  0  0  0  0  0  0
  191.0320  174.8330  146.7030 O   0  0  0  0  0  0  0  0  0  0  0  0
  1 19  1  0  0  0  0
  2  9  2  0  0  0  0
  3 16  2  0  0  0  0
  3  2  1  0  0  0  0
  4 20  2  0  0  0  0
  5 15  1  1  0  0  0
  5  4  1  0  0  0  0
  6 32  1  6  0  0  0
  8 23  1  0  0  0  0
  8 13  1  0  0  0  0
 10  1  1  0  0  0  0
 10  7  1  0  0  0  0
 11  9  1  1  0  0  0
 11 10  1  0  0  0  0
 12 22  1  0  0  0  0
 13 15  1  0  0  0  0
 14  7  1  6  0  0  0
 14  6  1  0  0  0  0
 16 17  1  0  0  0  0
 17 11  1  0  0  0  0
 17 12  2  0  0  0  0
 18 23  2  0  0  0  0
 18 12  1  0  0  0  0
 19  6  1  0  0  0  0
 21  8  1  0  0  0  0
 22  4  1  0  0  0  0
 22  1  2  0  0  0  0
 23  5  1  0  0  0  0
 24 26  1  0  0  0  0
 25 24  1  6  0  0  0
 25 26  1  0  0  0  0
 25 14  1  0  0  0  0
 26 27  1  6  0  0  0
 28 27  1  0  0  0  0
 28 29  2  0  0  0  0
 30 28  1  0  0  0  0
 32 31  1  0  0  0  0
M  END
>  <MODEL>
9

>  <REMARK>
 VINA RESULT:      -6.6      3.510      8.042
  Name = 
  3 active torsions:
  status: ('A' for Active; 'I' for Inactive)
    1  A    between atoms: C_7  and  O_19
    2  A    between atoms: C_10  and  C_17
    3  A    between atoms: C_20  and  N_29
                            x       y       z     vdW  Elec       q    Type
                         _______ _______ _______ _____ _____    ______ ____

>  <TORSDO>
F 3

$$$$
