=
 OpenBabel11112417353D

 28 32  0  0  1  0  0  0  0  0999 V2000
  188.2050  175.9540  146.3330 C   0  0  0  0  0  0  0  0  0  0  0  0
  186.5540  176.4100  142.1940 O   0  0  0  0  0  0  0  0  0  0  0  0
  193.8890  176.8320  144.1100 O   0  0  0  0  0  1  0  0  0  0  0  0
  186.7010  178.2370  145.7010 C   0  0  0  0  0  3  0  0  0  0  0  0
  192.4740  175.1790  143.0490 C   0  0  1  0  0  3  0  0  0  0  0  0
  189.0290  174.7910  146.7900 C   0  0  0  0  0  2  0  0  0  0  0  0
  188.5940  177.5210  141.3470 O   0  0  0  0  0  0  0  0  0  0  0  0
  187.9750  176.2110  141.7470 S   0  0  0  0  0  0  0  0  0  0  0  0
  188.8950  173.9190  140.4800 C   0  0  0  0  0  0  0  0  0  0  0  0
  188.9190  175.4170  143.0170 C   0  0  1  0  0  3  0  0  0  0  0  0
  191.5720  176.9130  148.7340 C   0  0  0  0  0  1  0  0  0  0  0  0
  190.6750  175.3990  144.5480 C   0  0  1  0  0  3  0  0  0  0  0  0
  189.8620  173.7900  141.4040 C   0  0  0  0  0  2  0  0  0  0  0  0
  188.0400  175.0800  140.4290 N   0  0  0  0  0  0  0  0  0  0  0  0
  190.9450  176.3150  147.4930 C   0  0  1  0  0  3  0  0  0  0  0  0
  188.4860  176.6760  145.1420 C   0  0  0  0  0  0  0  0  0  0  0  0
  193.0340  175.7500  144.3410 C   0  0  2  0  0  3  0  0  0  0  0  0
  188.6790  172.8200  139.5050 C   0  0  0  0  0  1  0  0  0  0  0  0
  192.0470  175.7790  146.5920 C   0  0  0  0  0  2  0  0  0  0  0  0
  187.7230  177.8150  144.8500 C   0  0  0  0  0  3  0  0  0  0  0  0
  187.1750  176.3870  147.1780 C   0  0  0  0  0  3  0  0  0  0  0  0
  186.4230  177.5190  146.8630 C   0  0  0  0  0  3  0  0  0  0  0  0
  189.9880  175.2000  147.9100 C   0  0  0  0  0  2  0  0  0  0  0  0
  191.1440  174.6350  143.3810 N   0  0  1  0  0  0  0  0  0  0  0  0
  191.8310  176.1860  145.1400 C   0  0  2  0  0  3  0  0  0  0  0  0
  190.1560  174.9200  142.3400 C   0  0  2  0  0  3  0  0  0  0  0  0
  192.4130  176.1780  142.0630 O   0  0  0  0  0  1  0  0  0  0  0  0
  189.5080  176.2810  144.0940 C   0  0  2  0  0  3  0  0  0  0  0  0
  1  6  1  0  0  0  0
  1 21  1  0  0  0  0
  3 17  1  0  0  0  0
  4 22  1  0  0  0  0
  5 27  1  6  0  0  0
  5 24  1  0  0  0  0
  5 17  1  0  0  0  0
  6 23  1  0  0  0  0
  7  8  2  0  0  0  0
  8  2  2  0  0  0  0
  9 13  1  0  0  0  0
 10  8  1  6  0  0  0
 10 28  1  0  0  0  0
 12 25  1  0  0  0  0
 13 26  1  0  0  0  0
 14  9  2  0  0  0  0
 14  8  1  0  0  0  0
 15 23  1  0  0  0  0
 15 11  1  0  0  0  0
 16  1  2  0  0  0  0
 17 25  1  0  0  0  0
 18  9  1  0  0  0  0
 19 15  1  0  0  0  0
 20 16  1  0  0  0  0
 20  4  2  0  0  0  0
 22 21  2  0  0  0  0
 24 12  1  0  0  0  0
 25 19  1  0  0  0  0
 26 10  1  0  0  0  0
 26 24  1  0  0  0  0
 28 12  1  0  0  0  0
 28 16  1  0  0  0  0
M  END
>  <MODEL>
1

>  <REMARK>
 VINA RESULT:      -8.5      0.000      0.000
  Name = 
  0 active torsions:
  status: ('A' for Active; 'I' for Inactive)
                            x       y       z     vdW  Elec       q    Type
                         _______ _______ _______ _____ _____    ______ ____

>  <TORSDO>
F 0

$$$$
=
 OpenBabel11112417353D

 28 32  0  0  1  0  0  0  0  0999 V2000
  186.5450  178.5040  144.7720 C   0  0  0  0  0  0  0  0  0  0  0  0
  189.2940  176.6000  147.7520 O   0  0  0  0  0  0  0  0  0  0  0  0
  187.8310  173.9890  140.7740 O   0  0  0  0  0  1  0  0  0  0  0  0
  185.4610  177.3040  147.0640 C   0  0  0  0  0  3  0  0  0  0  0  0
  189.6690  175.1580  141.8300 C   0  0  1  0  0  3  0  0  0  0  0  0
  186.9980  179.1660  143.5080 C   0  0  0  0  0  2  0  0  0  0  0  0
  189.2670  174.4150  146.5970 O   0  0  0  0  0  0  0  0  0  0  0  0
  189.8100  175.8160  146.5790 S   0  0  0  0  0  0  0  0  0  0  0  0
  192.3050  176.2090  145.4280 C   0  0  0  0  0  0  0  0  0  0  0  0
  189.4130  176.6380  145.0610 C   0  0  1  0  0  3  0  0  0  0  0  0
  184.2270  177.6590  141.3170 C   0  0  0  0  0  1  0  0  0  0  0  0
  188.3370  176.7050  142.9960 C   0  0  1  0  0  3  0  0  0  0  0  0
  191.7300  176.3730  144.2250 C   0  0  0  0  0  3  0  0  0  0  0  0
  191.5480  175.7950  146.5850 N   0  0  0  0  0  2  0  0  0  0  0  0
  185.5310  177.6450  142.0850 C   0  0  1  0  0  3  0  0  0  0  0  0
  186.9730  177.2040  145.1560 C   0  0  0  0  0  0  0  0  0  0  0  0
  188.3420  175.2500  141.0960 C   0  0  2  0  0  3  0  0  0  0  0  0
  193.7550  176.4940  145.5790 C   0  0  0  0  0  1  0  0  0  0  0  0
  186.5990  176.9770  141.2320 C   0  0  0  0  0  2  0  0  0  0  0  0
  186.4140  176.6240  146.3040 C   0  0  0  0  0  3  0  0  0  0  0  0
  185.5900  179.1750  145.5450 C   0  0  0  0  0  3  0  0  0  0  0  0
  185.0530  178.5820  146.6880 C   0  0  0  0  0  3  0  0  0  0  0  0
  185.9210  179.0820  142.4240 C   0  0  0  0  0  2  0  0  0  0  0  0
  189.7330  176.3350  142.7160 N   0  0  1  0  0  0  0  0  0  0  0  0
  187.4130  175.9740  142.0380 C   0  0  2  0  0  3  0  0  0  0  0  0
  190.2920  176.0090  144.0280 C   0  0  2  0  0  3  0  0  0  0  0  0
  189.7480  173.9480  142.5410 O   0  0  0  0  0  1  0  0  0  0  0  0
  188.0550  176.3950  144.4690 C   0  0  2  0  0  3  0  0  0  0  0  0
  1 16  2  0  0  0  0
  1 21  1  0  0  0  0
  3 17  1  0  0  0  0
  5 27  1  1  0  0  0
  5 24  1  0  0  0  0
  6  1  1  0  0  0  0
  8 14  1  0  0  0  0
  8  7  2  0  0  0  0
  8  2  2  0  0  0  0
  9 18  1  0  0  0  0
  9 14  1  0  0  0  0
 10  8  1  1  0  0  0
 11 15  1  0  0  0  0
 12 28  1  0  0  0  0
 13  9  2  0  0  0  0
 15 23  1  0  0  0  0
 16 20  1  0  0  0  0
 17  5  1  0  0  0  0
 17 25  1  0  0  0  0
 19 25  1  0  0  0  0
 19 15  1  0  0  0  0
 20  4  2  0  0  0  0
 21 22  2  0  0  0  0
 22  4  1  0  0  0  0
 23  6  1  0  0  0  0
 24 12  1  0  0  0  0
 24 26  1  0  0  0  0
 25 12  1  0  0  0  0
 26 13  1  0  0  0  0
 26 10  1  0  0  0  0
 28 10  1  0  0  0  0
 28 16  1  0  0  0  0
M  END
>  <MODEL>
2

>  <REMARK>
 VINA RESULT:      -8.3      2.790      5.416
  Name = 
  0 active torsions:
  status: ('A' for Active; 'I' for Inactive)
                            x       y       z     vdW  Elec       q    Type
                         _______ _______ _______ _____ _____    ______ ____

>  <TORSDO>
F 0

$$$$
=
 OpenBabel11112417353D

 28 32  0  0  1  0  0  0  0  0999 V2000
  185.9460  177.1070  144.1680 C   0  0  0  0  0  0  0  0  0  0  0  0
  188.5760  175.3240  141.0110 O   0  0  0  0  0  0  0  0  0  0  0  0
  190.8160  177.5160  147.9270 O   0  0  0  0  0  1  0  0  0  0  0  0
  186.5370  178.6050  141.8710 C   0  0  0  0  0  3  0  0  0  0  0  0
  190.3600  175.3960  146.8520 C   0  0  1  0  0  3  0  0  0  0  0  0
  185.5660  176.4160  145.4410 C   0  0  0  0  0  2  0  0  0  0  0  0
  190.6520  176.1390  142.0770 O   0  0  0  0  0  0  0  0  0  0  0  0
  189.5550  175.1140  142.1310 S   0  0  0  0  0  0  0  0  0  0  0  0
  190.1760  172.6290  143.2030 C   0  0  0  0  0  0  0  0  0  0  0  0
  188.7250  175.1460  143.6950 C   0  0  1  0  0  3  0  0  0  0  0  0
  186.0490  179.5050  147.6700 C   0  0  0  0  0  1  0  0  0  0  0  0
  188.3700  176.0790  145.8000 C   0  0  1  0  0  3  0  0  0  0  0  0
  189.8730  173.0780  144.4330 C   0  0  0  0  0  2  0  0  0  0  0  0
  190.2190  173.5090  142.0600 N   0  0  0  0  0  0  0  0  0  0  0  0
  186.5060  178.3150  146.8540 C   0  0  1  0  0  3  0  0  0  0  0  0
  187.2900  177.2020  143.7160 C   0  0  0  0  0  0  0  0  0  0  0  0
  189.8210  176.5790  147.6380 C   0  0  2  0  0  3  0  0  0  0  0  0
  190.4420  171.1810  143.0100 C   0  0  0  0  0  1  0  0  0  0  0  0
  187.5650  177.5560  147.6380 C   0  0  0  0  0  2  0  0  0  0  0  0
  187.5600  177.9590  142.5670 C   0  0  0  0  0  3  0  0  0  0  0  0
  184.9290  177.7590  143.4590 C   0  0  0  0  0  3  0  0  0  0  0  0
  185.2200  178.5000  142.3140 C   0  0  0  0  0  3  0  0  0  0  0  0
  185.3000  177.4240  146.5590 C   0  0  0  0  0  2  0  0  0  0  0  0
  189.2460  174.9160  146.0120 N   0  0  1  0  0  0  0  0  0  0  0  0
  188.7560  177.1900  146.7610 C   0  0  2  0  0  3  0  0  0  0  0  0
  189.6880  174.5440  144.6680 C   0  0  2  0  0  3  0  0  0  0  0  0
  191.4740  175.7870  146.0890 O   0  0  0  0  0  1  0  0  0  0  0  0
  188.4770  176.4850  144.3270 C   0  0  2  0  0  3  0  0  0  0  0  0
  1  6  1  0  0  0  0
  2  8  2  0  0  0  0
  4 22  2  0  0  0  0
  4 20  1  0  0  0  0
  5 27  1  6  0  0  0
  5 17  1  0  0  0  0
  6 23  1  0  0  0  0
  7  8  2  0  0  0  0
  9 13  1  0  0  0  0
 10  8  1  6  0  0  0
 10 28  1  0  0  0  0
 10 26  1  0  0  0  0
 12 24  1  0  0  0  0
 12 25  1  0  0  0  0
 13 26  1  0  0  0  0
 14  8  1  0  0  0  0
 14  9  2  0  0  0  0
 15 19  1  0  0  0  0
 15 11  1  0  0  0  0
 16  1  1  0  0  0  0
 16 28  1  0  0  0  0
 17  3  1  0  0  0  0
 18  9  1  0  0  0  0
 20 16  2  0  0  0  0
 21  1  2  0  0  0  0
 22 21  1  0  0  0  0
 23 15  1  0  0  0  0
 24  5  1  0  0  0  0
 25 17  1  0  0  0  0
 25 19  1  0  0  0  0
 26 24  1  0  0  0  0
 28 12  1  0  0  0  0
M  END
>  <MODEL>
3

>  <REMARK>
 VINA RESULT:      -8.1      2.285      3.768
  Name = 
  0 active torsions:
  status: ('A' for Active; 'I' for Inactive)
                            x       y       z     vdW  Elec       q    Type
                         _______ _______ _______ _____ _____    ______ ____

>  <TORSDO>
F 0

$$$$
=
 OpenBabel11112417353D

 28 32  0  0  1  0  0  0  0  0999 V2000
  185.5500  177.6100  145.2590 C   0  0  0  0  0  0  0  0  0  0  0  0
  185.8980  177.2570  140.8070 O   0  0  0  0  0  0  0  0  0  0  0  0
  191.6990  177.5210  145.6990 O   0  0  0  0  0  1  0  0  0  0  0  0
  184.8600  179.8040  143.6520 C   0  0  0  0  0  3  0  0  0  0  0  0
  190.6060  175.7890  144.4090 C   0  0  1  0  0  3  0  0  0  0  0  0
  185.8950  176.5180  146.2220 C   0  0  0  0  0  2  0  0  0  0  0  0
  188.2600  177.9870  140.7900 O   0  0  0  0  0  0  0  0  0  0  0  0
  187.3190  176.8520  141.0820 S   0  0  0  0  0  0  0  0  0  0  0  0
  188.2860  174.2700  140.7610 C   0  0  0  0  0  0  0  0  0  0  0  0
  187.4920  176.2910  142.7520 C   0  0  1  0  0  3  0  0  0  0  0  0
  187.7020  178.8150  148.7140 C   0  0  0  0  0  1  0  0  0  0  0  0
  188.4100  176.4790  144.8860 C   0  0  1  0  0  3  0  0  0  0  0  0
  188.7370  174.2760  142.0260 C   0  0  0  0  0  2  0  0  0  0  0  0
  187.7410  175.4540  140.1400 N   0  0  0  0  0  0  0  0  0  0  0  0
  187.5640  178.0060  147.4430 C   0  0  1  0  0  3  0  0  0  0  0  0
  186.4240  178.0230  144.2170 C   0  0  0  0  0  0  0  0  0  0  0  0
  190.6580  176.5890  145.6990 C   0  0  2  0  0  3  0  0  0  0  0  0
  188.3190  173.0010  139.9900 C   0  0  0  0  0  1  0  0  0  0  0  0
  188.8350  177.1980  147.2320 C   0  0  0  0  0  2  0  0  0  0  0  0
  186.0590  179.1240  143.4300 C   0  0  0  0  0  3  0  0  0  0  0  0
  184.3490  178.3000  145.4690 C   0  0  0  0  0  3  0  0  0  0  0  0
  184.0020  179.3880  144.6680 C   0  0  0  0  0  3  0  0  0  0  0  0
  186.3480  177.0900  147.5670 C   0  0  0  0  0  2  0  0  0  0  0  0
  189.1900  175.4390  144.1960 N   0  0  1  0  0  0  0  0  0  0  0  0
  189.3230  177.2850  145.7920 C   0  0  2  0  0  3  0  0  0  0  0  0
  188.7960  175.5600  142.7930 C   0  0  2  0  0  3  0  0  0  0  0  0
  191.1360  176.5440  143.3480 O   0  0  0  0  0  1  0  0  0  0  0  0
  187.7090  177.3250  143.8190 C   0  0  2  0  0  3  0  0  0  0  0  0
  1 21  1  0  0  0  0
  1  6  1  0  0  0  0
  2  8  2  0  0  0  0
  4 22  1  0  0  0  0
  5 27  1  6  0  0  0
  5 17  1  0  0  0  0
  6 23  1  0  0  0  0
  7  8  2  0  0  0  0
  9 13  1  0  0  0  0
 10  8  1  6  0  0  0
 10 26  1  0  0  0  0
 10 28  1  0  0  0  0
 12 25  1  0  0  0  0
 13 26  1  0  0  0  0
 14  9  2  0  0  0  0
 14  8  1  0  0  0  0
 15 23  1  0  0  0  0
 15 11  1  0  0  0  0
 16  1  2  0  0  0  0
 17  3  1  0  0  0  0
 17 25  1  0  0  0  0
 18  9  1  0  0  0  0
 19 15  1  0  0  0  0
 20  4  2  0  0  0  0
 20 16  1  0  0  0  0
 22 21  2  0  0  0  0
 24  5  1  0  0  0  0
 24 12  1  0  0  0  0
 25 19  1  0  0  0  0
 26 24  1  0  0  0  0
 28 16  1  0  0  0  0
 28 12  1  0  0  0  0
M  END
>  <MODEL>
4

>  <REMARK>
 VINA RESULT:      -7.9      1.710      2.681
  Name = 
  0 active torsions:
  status: ('A' for Active; 'I' for Inactive)
                            x       y       z     vdW  Elec       q    Type
                         _______ _______ _______ _____ _____    ______ ____

>  <TORSDO>
F 0

$$$$
=
 OpenBabel11112417353D

 28 32  0  0  1  0  0  0  0  0999 V2000
  190.1610  173.5340  142.8190 C   0  0  0  0  0  0  0  0  0  0  0  0
  190.5770  176.2710  146.3410 O   0  0  0  0  0  0  0  0  0  0  0  0
  187.0010  177.9160  139.8480 O   0  0  0  0  0  1  0  0  0  0  0  0
  192.6820  174.5980  143.4380 C   0  0  0  0  0  3  0  0  0  0  0  0
  186.3180  177.3160  142.0910 C   0  0  1  0  0  3  0  0  0  0  0  0
  188.8720  172.9110  142.3810 C   0  0  0  0  0  2  0  0  0  0  0  0
  190.0500  178.2900  145.0160 O   0  0  0  0  0  0  0  0  0  0  0  0
  189.4860  177.0680  145.6840 S   0  0  0  0  0  0  0  0  0  0  0  0
  186.8830  177.2150  146.6380 C   0  0  0  0  0  0  0  0  0  0  0  0
  188.5920  176.0630  144.5320 C   0  0  1  0  0  3  0  0  0  0  0  0
  189.4490  173.5250  138.6340 C   0  0  0  0  0  1  0  0  0  0  0  0
  187.8800  175.5800  142.3660 C   0  0  1  0  0  3  0  0  0  0  0  0
  186.4160  176.8260  145.4390 C   0  0  0  0  0  3  0  0  0  0  0  0
  188.2780  177.5150  146.8510 N   0  0  0  0  0  2  0  0  0  0  0  0
  189.0810  173.9150  140.0490 C   0  0  1  0  0  3  0  0  0  0  0  0
  190.2930  174.9240  143.0850 C   0  0  0  0  0  0  0  0  0  0  0  0
  186.7160  176.8470  140.7020 C   0  0  2  0  0  3  0  0  0  0  0  0
  185.9410  177.3070  147.7820 C   0  0  0  0  0  1  0  0  0  0  0  0
  187.8160  174.7590  140.0160 C   0  0  0  0  0  2  0  0  0  0  0  0
  191.5640  175.4320  143.3890 C   0  0  0  0  0  3  0  0  0  0  0  0
  191.2910  172.7080  142.8740 C   0  0  0  0  0  3  0  0  0  0  0  0
  192.5440  173.2340  143.1860 C   0  0  0  0  0  3  0  0  0  0  0  0
  188.8710  172.6470  140.8740 C   0  0  0  0  0  2  0  0  0  0  0  0
  186.7520  176.2600  143.0240 N   0  0  1  0  0  0  0  0  0  0  0  0
  187.9400  175.9890  140.9050 C   0  0  2  0  0  3  0  0  0  0  0  0
  187.3270  176.8100  144.2520 C   0  0  2  0  0  3  0  0  0  0  0  0
  186.9120  178.5580  142.3730 O   0  0  0  0  0  1  0  0  0  0  0  0
  189.1530  175.9200  143.1460 C   0  0  2  0  0  3  0  0  0  0  0  0
  1 21  2  0  0  0  0
  1 16  1  0  0  0  0
  3 17  1  0  0  0  0
  5 27  1  1  0  0  0
  5 24  1  0  0  0  0
  6  1  1  0  0  0  0
  7  8  2  0  0  0  0
  8  2  2  0  0  0  0
  8 14  1  0  0  0  0
  9 14  1  0  0  0  0
  9 18  1  0  0  0  0
 10  8  1  1  0  0  0
 11 15  1  0  0  0  0
 12 24  1  0  0  0  0
 12 28  1  0  0  0  0
 13  9  2  0  0  0  0
 15 23  1  0  0  0  0
 16 28  1  0  0  0  0
 16 20  2  0  0  0  0
 17 25  1  0  0  0  0
 17  5  1  0  0  0  0
 19 15  1  0  0  0  0
 19 25  1  0  0  0  0
 20  4  1  0  0  0  0
 21 22  1  0  0  0  0
 22  4  2  0  0  0  0
 23  6  1  0  0  0  0
 24 26  1  0  0  0  0
 25 12  1  0  0  0  0
 26 10  1  0  0  0  0
 26 13  1  0  0  0  0
 28 10  1  0  0  0  0
M  END
>  <MODEL>
5

>  <REMARK>
 VINA RESULT:      -7.5      2.614      6.386
  Name = 
  0 active torsions:
  status: ('A' for Active; 'I' for Inactive)
                            x       y       z     vdW  Elec       q    Type
                         _______ _______ _______ _____ _____    ______ ____

>  <TORSDO>
F 0

$$$$
=
 OpenBabel11112417353D

 28 32  0  0  1  0  0  0  0  0999 V2000
  190.2870  177.2720  144.8730 C   0  0  0  0  0  0  0  0  0  0  0  0
  194.2800  176.1690  146.5760 O   0  0  0  0  0  0  0  0  0  0  0  0
  190.6410  172.4520  141.0450 O   0  0  0  0  0  1  0  0  0  0  0  0
  190.4310  176.2720  147.4900 C   0  0  0  0  0  3  0  0  0  0  0  0
  192.5130  173.9820  141.1550 C   0  0  1  0  0  3  0  0  0  0  0  0
  190.0760  177.8060  143.4900 C   0  0  0  0  0  2  0  0  0  0  0  0
  194.1770  173.8600  145.6990 O   0  0  0  0  0  0  0  0  0  0  0  0
  194.4150  175.3030  145.3550 S   0  0  0  0  0  0  0  0  0  0  0  0
  196.1360  175.8520  143.2480 C   0  0  0  0  0  0  0  0  0  0  0  0
  193.3110  175.8490  144.0830 C   0  0  1  0  0  3  0  0  0  0  0  0
  186.9720  175.6660  142.7630 C   0  0  0  0  0  1  0  0  0  0  0  0
  191.5080  175.4910  142.6520 C   0  0  1  0  0  3  0  0  0  0  0  0
  195.1110  175.7720  142.3830 C   0  0  0  0  0  3  0  0  0  0  0  0
  195.9860  175.5070  144.6410 N   0  0  0  0  0  2  0  0  0  0  0  0
  188.4540  175.9270  142.9190 C   0  0  1  0  0  3  0  0  0  0  0  0
  191.0510  176.1040  145.1390 C   0  0  0  0  0  0  0  0  0  0  0  0
  191.0100  173.8000  141.0330 C   0  0  2  0  0  3  0  0  0  0  0  0
  197.4520  176.3390  142.7620 C   0  0  0  0  0  1  0  0  0  0  0  0
  189.1930  175.2910  141.7520 C   0  0  0  0  0  2  0  0  0  0  0  0
  191.1050  175.6220  146.4550 C   0  0  0  0  0  3  0  0  0  0  0  0
  189.6170  177.9160  145.9210 C   0  0  0  0  0  3  0  0  0  0  0  0
  189.6920  177.4220  147.2240 C   0  0  0  0  0  3  0  0  0  0  0  0
  188.6900  177.4350  142.9600 C   0  0  0  0  0  2  0  0  0  0  0  0
  192.7190  175.2690  141.8460 N   0  0  1  0  0  0  0  0  0  0  0  0
  190.4220  174.5210  142.2200 C   0  0  2  0  0  3  0  0  0  0  0  0
  193.8010  175.2020  142.8270 C   0  0  2  0  0  3  0  0  0  0  0  0
  193.0780  172.9020  141.8560 O   0  0  0  0  0  1  0  0  0  0  0  0
  191.8940  175.3540  144.1280 C   0  0  2  0  0  3  0  0  0  0  0  0
  1 16  2  0  0  0  0
  1 21  1  0  0  0  0
  5 24  1  0  0  0  0
  5 27  1  1  0  0  0
  6  1  1  0  0  0  0
  8  7  2  0  0  0  0
  8  2  2  0  0  0  0
  9 14  1  0  0  0  0
 10 28  1  0  0  0  0
 10  8  1  1  0  0  0
 11 15  1  0  0  0  0
 12 28  1  0  0  0  0
 13 26  1  0  0  0  0
 13  9  2  0  0  0  0
 14  8  1  0  0  0  0
 15 23  1  0  0  0  0
 16 20  1  0  0  0  0
 17  3  1  0  0  0  0
 17  5  1  0  0  0  0
 17 25  1  0  0  0  0
 18  9  1  0  0  0  0
 19 25  1  0  0  0  0
 19 15  1  0  0  0  0
 20  4  2  0  0  0  0
 21 22  2  0  0  0  0
 22  4  1  0  0  0  0
 23  6  1  0  0  0  0
 24 12  1  0  0  0  0
 24 26  1  0  0  0  0
 25 12  1  0  0  0  0
 26 10  1  0  0  0  0
 28 16  1  0  0  0  0
M  END
>  <MODEL>
6

>  <REMARK>
 VINA RESULT:      -7.4      2.906      5.536
  Name = 
  0 active torsions:
  status: ('A' for Active; 'I' for Inactive)
                            x       y       z     vdW  Elec       q    Type
                         _______ _______ _______ _____ _____    ______ ____

>  <TORSDO>
F 0

$$$$
=
 OpenBabel11112417353D

 28 32  0  0  1  0  0  0  0  0999 V2000
  189.5510  176.5900  144.8950 C   0  0  0  0  0  0  0  0  0  0  0  0
  192.8720  173.7900  145.9860 O   0  0  0  0  0  0  0  0  0  0  0  0
  188.1520  172.9860  140.0930 O   0  0  0  0  0  1  0  0  0  0  0  0
  189.3170  175.0230  147.2100 C   0  0  0  0  0  3  0  0  0  0  0  0
  190.4500  173.6900  140.3800 C   0  0  1  0  0  3  0  0  0  0  0  0
  189.5510  177.4700  143.6840 C   0  0  0  0  0  2  0  0  0  0  0  0
  191.9450  171.9360  144.6380 O   0  0  0  0  0  0  0  0  0  0  0  0
  192.6880  173.2420  144.5990 S   0  0  0  0  0  0  0  0  0  0  0  0
  194.4970  173.6240  142.5280 C   0  0  0  0  0  0  0  0  0  0  0  0
  191.8590  174.4210  143.5700 C   0  0  1  0  0  3  0  0  0  0  0  0
  185.8850  176.7910  142.7630 C   0  0  0  0  0  1  0  0  0  0  0  0
  190.0520  175.0630  142.2470 C   0  0  1  0  0  3  0  0  0  0  0  0
  193.5150  174.1130  141.7530 C   0  0  0  0  0  3  0  0  0  0  0  0
  194.2290  173.0400  143.8210 N   0  0  0  0  0  2  0  0  0  0  0  0
  187.3610  176.4700  142.8510 C   0  0  1  0  0  3  0  0  0  0  0  0
  189.8410  175.2010  144.8370 C   0  0  0  0  0  0  0  0  0  0  0  0
  188.9820  174.0810  140.3440 C   0  0  2  0  0  3  0  0  0  0  0  0
  195.9020  173.7160  142.0550 C   0  0  0  0  0  1  0  0  0  0  0  0
  187.8240  175.9040  141.5180 C   0  0  0  0  0  2  0  0  0  0  0  0
  189.7140  174.4380  146.0070 C   0  0  0  0  0  3  0  0  0  0  0  0
  189.1550  177.1660  146.1100 C   0  0  0  0  0  3  0  0  0  0  0  0
  189.0430  176.3890  147.2630 C   0  0  0  0  0  3  0  0  0  0  0  0
  188.1260  177.7450  143.2000 C   0  0  0  0  0  2  0  0  0  0  0  0
  191.1040  174.6240  141.3160 N   0  0  1  0  0  0  0  0  0  0  0  0
  188.6910  174.6660  141.7040 C   0  0  2  0  0  3  0  0  0  0  0  0
  192.0860  173.9540  142.1680 C   0  0  2  0  0  3  0  0  0  0  0  0
  190.5850  172.3490  140.7800 O   0  0  0  0  0  1  0  0  0  0  0  0
  190.3590  174.4600  143.6210 C   0  0  2  0  0  3  0  0  0  0  0  0
  1 21  1  0  0  0  0
  3 17  1  0  0  0  0
  4 22  1  0  0  0  0
  5 27  1  1  0  0  0
  5 24  1  0  0  0  0
  6  1  1  0  0  0  0
  8  7  2  0  0  0  0
  8  2  2  0  0  0  0
  9 14  1  0  0  0  0
 10 28  1  0  0  0  0
 10  8  1  1  0  0  0
 11 15  1  0  0  0  0
 12 28  1  0  0  0  0
 13 26  1  0  0  0  0
 13  9  2  0  0  0  0
 14  8  1  0  0  0  0
 15 23  1  0  0  0  0
 16  1  2  0  0  0  0
 16 20  1  0  0  0  0
 17  5  1  0  0  0  0
 17 25  1  0  0  0  0
 18  9  1  0  0  0  0
 19 25  1  0  0  0  0
 19 15  1  0  0  0  0
 20  4  2  0  0  0  0
 21 22  2  0  0  0  0
 23  6  1  0  0  0  0
 24 26  1  0  0  0  0
 24 12  1  0  0  0  0
 25 12  1  0  0  0  0
 26 10  1  0  0  0  0
 28 16  1  0  0  0  0
M  END
>  <MODEL>
7

>  <REMARK>
 VINA RESULT:      -7.4      2.634      5.193
  Name = 
  0 active torsions:
  status: ('A' for Active; 'I' for Inactive)
                            x       y       z     vdW  Elec       q    Type
                         _______ _______ _______ _____ _____    ______ ____

>  <TORSDO>
F 0

$$$$
=
 OpenBabel11112417353D

 28 32  0  0  1  0  0  0  0  0999 V2000
  192.4820  175.4070  142.1460 C   0  0  0  0  0  0  0  0  0  0  0  0
  188.3310  175.1400  140.4840 O   0  0  0  0  0  0  0  0  0  0  0  0
  190.1810  174.9190  147.8450 O   0  0  0  0  0  1  0  0  0  0  0  0
  191.7150  173.1050  140.7360 C   0  0  0  0  0  3  0  0  0  0  0  0
  189.2330  176.5710  146.3520 C   0  0  1  0  0  3  0  0  0  0  0  0
  193.0080  176.5740  142.9220 C   0  0  0  0  0  2  0  0  0  0  0  0
  187.4060  174.1750  142.5640 O   0  0  0  0  0  0  0  0  0  0  0  0
  187.8900  175.4290  141.8910 S   0  0  0  0  0  0  0  0  0  0  0  0
  186.7660  177.8330  142.7020 C   0  0  0  0  0  0  0  0  0  0  0  0
  189.2030  176.1820  142.8100 C   0  0  1  0  0  3  0  0  0  0  0  0
  194.8010  174.4470  145.5690 C   0  0  0  0  0  1  0  0  0  0  0  0
  190.7230  176.1800  144.5760 C   0  0  1  0  0  3  0  0  0  0  0  0
  187.6910  177.9460  143.6700 C   0  0  0  0  0  2  0  0  0  0  0  0
  186.6460  176.6410  141.8970 N   0  0  0  0  0  0  0  0  0  0  0  0
  193.6040  175.0930  144.9080 C   0  0  1  0  0  3  0  0  0  0  0  0
  191.2460  174.7740  142.4490 C   0  0  0  0  0  0  0  0  0  0  0  0
  190.4830  175.9450  146.9460 C   0  0  2  0  0  3  0  0  0  0  0  0
  185.8630  178.9810  142.4320 C   0  0  0  0  0  1  0  0  0  0  0  0
  192.7330  175.7320  145.9780 C   0  0  0  0  0  2  0  0  0  0  0  0
  190.8870  173.6230  141.7330 C   0  0  0  0  0  3  0  0  0  0  0  0
  193.3030  174.8770  141.1420 C   0  0  0  0  0  3  0  0  0  0  0  0
  192.9210  173.7360  140.4370 C   0  0  0  0  0  3  0  0  0  0  0  0
  194.0940  176.1380  143.9070 C   0  0  0  0  0  2  0  0  0  0  0  0
  189.6050  177.0350  145.0020 N   0  0  1  0  0  0  0  0  0  0  0  0
  191.2590  175.4080  145.7690 C   0  0  2  0  0  3  0  0  0  0  0  0
  188.5530  176.7740  144.0200 C   0  0  2  0  0  3  0  0  0  0  0  0
  188.1850  175.6340  146.3270 O   0  0  0  0  0  1  0  0  0  0  0  0
  190.2210  175.2780  143.4440 C   0  0  2  0  0  3  0  0  0  0  0  0
  1 16  1  0  0  0  0
  1  6  1  0  0  0  0
  2  8  2  0  0  0  0
  4 20  1  0  0  0  0
  5 27  1  6  0  0  0
  5 17  1  0  0  0  0
  6 23  1  0  0  0  0
  8 14  1  0  0  0  0
  8  7  2  0  0  0  0
  9 13  1  0  0  0  0
 10  8  1  1  0  0  0
 10 28  1  0  0  0  0
 10 26  1  0  0  0  0
 12 24  1  0  0  0  0
 12 25  1  0  0  0  0
 13 26  1  0  0  0  0
 14  9  2  0  0  0  0
 15 11  1  0  0  0  0
 15 19  1  0  0  0  0
 16 28  1  0  0  0  0
 17  3  1  0  0  0  0
 18  9  1  0  0  0  0
 20 16  2  0  0  0  0
 21  1  2  0  0  0  0
 22  4  2  0  0  0  0
 22 21  1  0  0  0  0
 23 15  1  0  0  0  0
 24  5  1  0  0  0  0
 25 19  1  0  0  0  0
 25 17  1  0  0  0  0
 26 24  1  0  0  0  0
 28 12  1  0  0  0  0
M  END
>  <MODEL>
8

>  <REMARK>
 VINA RESULT:      -7.3      2.247      5.058
  Name = 
  0 active torsions:
  status: ('A' for Active; 'I' for Inactive)
                            x       y       z     vdW  Elec       q    Type
                         _______ _______ _______ _____ _____    ______ ____

>  <TORSDO>
F 0

$$$$
=
 OpenBabel11112417353D

 28 32  0  0  1  0  0  0  0  0999 V2000
  189.1730  175.4880  144.9170 C   0  0  0  0  0  0  0  0  0  0  0  0
  189.3470  173.9650  140.7080 O   0  0  0  0  0  0  0  0  0  0  0  0
  195.1780  174.2500  145.5630 O   0  0  0  0  0  1  0  0  0  0  0  0
  188.9190  177.3020  142.7930 C   0  0  0  0  0  3  0  0  0  0  0  0
  193.7240  172.5120  144.7120 C   0  0  1  0  0  3  0  0  0  0  0  0
  189.3050  174.6250  146.1340 C   0  0  0  0  0  2  0  0  0  0  0  0
  191.8080  174.1660  140.5850 O   0  0  0  0  0  0  0  0  0  0  0  0
  190.6590  173.3590  141.1210 S   0  0  0  0  0  0  0  0  0  0  0  0
  191.0630  170.6380  141.4860 C   0  0  0  0  0  0  0  0  0  0  0  0
  190.7460  173.2120  142.8830 C   0  0  1  0  0  3  0  0  0  0  0  0
  191.6000  177.0520  148.0300 C   0  0  0  0  0  1  0  0  0  0  0  0
  191.7280  173.7360  144.9310 C   0  0  1  0  0  3  0  0  0  0  0  0
  191.5320  170.8680  142.7240 C   0  0  0  0  0  2  0  0  0  0  0  0
  190.7620  171.7140  140.5720 N   0  0  0  0  0  0  0  0  0  0  0  0
  191.2710  175.9960  146.9970 C   0  0  1  0  0  3  0  0  0  0  0  0
  190.0920  175.4370  143.8350 C   0  0  0  0  0  0  0  0  0  0  0  0
  193.9670  173.5820  145.7630 C   0  0  2  0  0  3  0  0  0  0  0  0
  190.8160  169.2370  141.0580 C   0  0  0  0  0  1  0  0  0  0  0  0
  192.3420  174.9170  147.0360 C   0  0  0  0  0  2  0  0  0  0  0  0
  189.9460  176.3570  142.7860 C   0  0  0  0  0  3  0  0  0  0  0  0
  188.1460  176.4400  144.9110 C   0  0  0  0  0  3  0  0  0  0  0  0
  188.0150  177.3400  143.8530 C   0  0  0  0  0  3  0  0  0  0  0  0
  189.8940  175.4110  147.3070 C   0  0  0  0  0  2  0  0  0  0  0  0
  192.2610  172.4190  144.5480 N   0  0  1  0  0  0  0  0  0  0  0  0
  192.8070  174.5380  145.6360 C   0  0  2  0  0  3  0  0  0  0  0  0
  191.8710  172.2620  143.1470 C   0  0  2  0  0  3  0  0  0  0  0  0
  194.3760  172.8510  143.5140 O   0  0  0  0  0  1  0  0  0  0  0  0
  191.1950  174.4130  143.6640 C   0  0  2  0  0  3  0  0  0  0  0  0
  1  6  1  0  0  0  0
  2  8  2  0  0  0  0
  3 17  1  0  0  0  0
  4 22  1  0  0  0  0
  5 27  1  6  0  0  0
  5 17  1  0  0  0  0
  6 23  1  0  0  0  0
  7  8  2  0  0  0  0
  9 13  1  0  0  0  0
 10  8  1  6  0  0  0
 10 26  1  0  0  0  0
 10 28  1  0  0  0  0
 12 25  1  0  0  0  0
 13 26  1  0  0  0  0
 14  8  1  0  0  0  0
 14  9  2  0  0  0  0
 15 19  1  0  0  0  0
 15 23  1  0  0  0  0
 15 11  1  0  0  0  0
 16  1  2  0  0  0  0
 18  9  1  0  0  0  0
 20  4  2  0  0  0  0
 20 16  1  0  0  0  0
 21  1  1  0  0  0  0
 22 21  2  0  0  0  0
 24  5  1  0  0  0  0
 24 12  1  0  0  0  0
 25 17  1  0  0  0  0
 25 19  1  0  0  0  0
 26 24  1  0  0  0  0
 28 16  1  0  0  0  0
 28 12  1  0  0  0  0
M  END
>  <MODEL>
9

>  <REMARK>
 VINA RESULT:      -7.3      2.556      3.074
  Name = 
  0 active torsions:
  status: ('A' for Active; 'I' for Inactive)
                            x       y       z     vdW  Elec       q    Type
                         _______ _______ _______ _____ _____    ______ ____

>  <TORSDO>
F 0

$$$$
