=
 OpenBabel11112418003D

 34 40  0  0  1  0  0  0  0  0999 V2000
  189.8610  174.5690  145.0310 C   0  0  0  0  0  0  0  0  0  0  0  0
  191.5220  172.9350  143.8050 C   0  0  0  0  0  3  0  0  0  0  0  0
  184.4920  178.2930  144.7700 C   0  0  2  0  0  3  0  0  0  0  0  0
  188.1300  176.0240  145.9630 C   0  0  0  0  0  0  0  0  0  0  0  0
  186.6870  177.3640  144.3510 C   0  0  1  0  0  3  0  0  0  0  0  0
  185.2640  179.0460  142.9370 C   0  0  0  0  0  2  0  0  0  0  0  0
  183.8740  178.9580  143.5610 C   0  0  0  0  0  2  0  0  0  0  0  0
  185.3460  178.4310  147.1410 C   0  0  0  0  0  2  0  0  0  0  0  0
  190.6280  174.7980  142.7250 C   0  0  0  0  0  0  0  0  0  0  0  0
  187.9040  177.4500  143.4440 C   0  0  0  0  0  2  0  0  0  0  0  0
  185.9670  177.0560  146.8160 C   0  0  0  0  0  2  0  0  0  0  0  0
  189.8980  176.1090  142.5690 C   0  0  1  0  0  3  0  0  0  0  0  0
  192.0470  172.9320  142.3680 C   0  0  0  0  0  3  0  0  0  0  0  0
  187.1460  177.1690  145.8200 C   0  0  1  0  0  3  0  0  0  0  0  0
  184.2760  178.9150  146.1370 C   0  0  0  0  0  2  0  0  0  0  0  0
  188.9020  175.5920  144.8610 C   0  0  0  0  0  0  0  0  0  0  0  0
  185.8680  178.6370  144.2690 C   0  0  1  0  0  3  0  0  0  0  0  0
  188.6330  176.1090  143.4560 C   0  0  1  0  0  3  0  0  0  0  0  0
  189.3360  174.4610  147.3910 C   0  0  0  0  0  3  0  0  0  0  0  0
  188.3820  175.4690  147.2280 C   0  0  0  0  0  3  0  0  0  0  0  0
  191.4840  174.1810  141.6880 C   0  0  0  0  0  3  0  0  0  0  0  0
  190.0700  174.0090  146.2950 C   0  0  0  0  0  3  0  0  0  0  0  0
  190.6510  174.1320  143.8640 C   0  0  1  0  0  3  0  0  0  0  0  0
  190.8300  177.2680  142.9300 C   0  0  0  0  0  2  0  0  0  0  0  0
  192.1580  176.7660  143.4720 C   0  0  0  0  0  2  0  0  0  0  0  0
  192.4280  177.3580  144.8420 C   0  0  0  0  0  2  0  0  0  0  0  0
  192.8930  176.2650  145.7800 C   0  0  0  0  0  2  0  0  0  0  0  0
  194.3510  176.4870  146.1320 C   0  0  0  0  0  2  0  0  0  0  0  0
  195.1520  175.2140  145.9140 C   0  0  0  0  0  2  0  0  0  0  0  0
  195.2760  175.1230  142.3000 C   0  0  0  0  0  2  0  0  0  0  0  0
  195.9140  176.5540  144.0700 O   0  0  0  0  0  0  0  0  0  0  0  0
  195.8890  175.2490  144.5850 C   0  0  2  0  0  3  0  0  0  0  0  0
  195.9950  176.3960  142.6790 C   0  0  0  0  0  2  0  0  0  0  0  0
  195.1820  174.3620  143.5880 C   0  0  0  0  0  2  0  0  0  0  0  0
  1 22  1  0  0  0  0
  3  7  1  6  0  0  0
  3 15  1  0  0  0  0
  4 20  2  0  0  0  0
  5 10  1  6  0  0  0
  5 14  1  0  0  0  0
  6  7  1  0  0  0  0
  9 23  1  0  0  0  0
 11  8  1  0  0  0  0
 12  9  1  0  0  0  0
 12 24  1  1  0  0  0
 12 18  1  0  0  0  0
 13  2  2  0  0  0  0
 14  4  1  0  0  0  0
 14 11  1  1  0  0  0
 15  8  1  0  0  0  0
 16  1  2  0  0  0  0
 16  4  1  0  0  0  0
 17  6  1  6  0  0  0
 17  5  1  0  0  0  0
 17  3  1  0  0  0  0
 18 10  1  1  0  0  0
 18 16  1  0  0  0  0
 20 19  1  0  0  0  0
 21 13  1  0  0  0  0
 21  9  2  0  0  0  0
 22 19  2  0  0  0  0
 23  2  1  6  0  0  0
 23  1  1  0  0  0  0
 24 25  1  0  0  0  0
 25 26  1  0  0  0  0
 26 27  1  0  0  0  0
 27 28  1  0  0  0  0
 29 28  1  0  0  0  0
 30 33  1  0  0  0  0
 30 34  1  0  0  0  0
 31 32  1  0  0  0  0
 32 29  1  1  0  0  0
 33 31  1  0  0  0  0
 34 32  1  0  0  0  0
M  END
>  <MODEL>
1

>  <REMARK>
 VINA RESULT:      -8.6      0.000      0.000
  Name = 
  7 active torsions:
  status: ('A' for Active; 'I' for Inactive)
    1  A    between atoms: C_10  and  C_17
    2  A    between atoms: C_10  and  C_22
    3  A    between atoms: C_13  and  C_24
    4  A    between atoms: C_17  and  C_28
    5  A    between atoms: C_22  and  C_24
    6  A    between atoms: C_28  and  C_29
    7  A    between atoms: C_29  and  C_32
                            x       y       z     vdW  Elec       q    Type
                         _______ _______ _______ _____ _____    ______ ____

>  <TORSDO>
F 7

$$$$
=
 OpenBabel11112418003D

 34 40  0  0  1  0  0  0  0  0999 V2000
  186.8130  177.8020  143.8900 C   0  0  0  0  0  0  0  0  0  0  0  0
  185.5040  179.0840  145.7820 C   0  0  0  0  0  3  0  0  0  0  0  0
  189.5200  172.2400  141.7690 C   0  0  2  0  0  3  0  0  0  0  0  0
  187.9340  176.3690  142.2540 C   0  0  0  0  0  0  0  0  0  0  0  0
  188.9990  174.2090  143.0760 C   0  0  1  0  0  3  0  0  0  0  0  0
  190.4030  172.0890  143.6980 C   0  0  0  0  0  2  0  0  0  0  0  0
  190.0680  171.0950  142.5910 C   0  0  0  0  0  2  0  0  0  0  0  0
  189.8020  173.9290  139.9140 C   0  0  0  0  0  2  0  0  0  0  0  0
  187.1810  177.5450  146.2890 C   0  0  0  0  0  0  0  0  0  0  0  0
  189.3030  174.9360  144.3760 C   0  0  0  0  0  2  0  0  0  0  0  0
  188.5610  174.5850  140.5550 C   0  0  0  0  0  2  0  0  0  0  0  0
  188.3410  176.6100  146.0530 C   0  0  1  0  0  3  0  0  0  0  0  0
  185.5990  178.9900  147.3050 C   0  0  0  0  0  2  0  0  0  0  0  0
  188.8850  175.2380  141.9200 C   0  0  1  0  0  3  0  0  0  0  0  0
  190.0910  172.4850  140.3840 C   0  0  0  0  0  2  0  0  0  0  0  0
  187.6490  176.7020  143.5980 C   0  0  0  0  0  0  0  0  0  0  0  0
  190.1060  173.2300  142.7390 C   0  0  1  0  0  3  0  0  0  0  0  0
  188.1130  175.8180  144.7460 C   0  0  1  0  0  3  0  0  0  0  0  0
  186.6070  178.2790  141.5260 C   0  0  0  0  0  3  0  0  0  0  0  0
  187.4290  177.1880  141.2310 C   0  0  0  0  0  3  0  0  0  0  0  0
  186.7290  178.0090  147.6200 C   0  0  0  0  0  3  0  0  0  0  0  0
  186.2960  178.5820  142.8520 C   0  0  0  0  0  3  0  0  0  0  0  0
  186.5260  178.1250  145.3010 C   0  0  0  0  0  0  0  0  0  0  0  0
  189.6470  177.4070  146.0000 C   0  0  0  0  0  2  0  0  0  0  0  0
  190.4470  177.2490  147.2830 C   0  0  0  0  0  2  0  0  0  0  0  0
  190.6910  175.7810  147.5780 C   0  0  0  0  0  2  0  0  0  0  0  0
  191.9350  175.3220  146.8500 C   0  0  0  0  0  2  0  0  0  0  0  0
  192.9810  176.4170  146.8960 C   0  0  0  0  0  2  0  0  0  0  0  0
  193.6200  176.6020  145.5300 C   0  0  0  0  0  2  0  0  0  0  0  0
  192.7220  175.6400  142.1600 C   0  0  0  0  0  2  0  0  0  0  0  0
  194.0200  174.8260  143.9600 O   0  0  0  0  0  0  0  0  0  0  0  0
  193.0230  175.6450  144.5090 C   0  0  2  0  0  3  0  0  0  0  0  0
  193.5540  174.4920  142.6810 C   0  0  0  0  0  2  0  0  0  0  0  0
  192.3870  176.4310  143.3880 C   0  0  0  0  0  2  0  0  0  0  0  0
  1 23  1  0  0  0  0
  2 13  1  0  0  0  0
  3 15  1  6  0  0  0
  3  7  1  0  0  0  0
  3 17  1  0  0  0  0
  4 16  2  0  0  0  0
  5 10  1  1  0  0  0
  7  6  1  0  0  0  0
  8 15  1  0  0  0  0
  8 11  1  0  0  0  0
  9 21  2  0  0  0  0
 12 24  1  6  0  0  0
 12  9  1  0  0  0  0
 13 21  1  0  0  0  0
 14 11  1  6  0  0  0
 14  4  1  0  0  0  0
 14  5  1  0  0  0  0
 16  1  1  0  0  0  0
 16 18  1  0  0  0  0
 17  5  1  0  0  0  0
 17  6  1  1  0  0  0
 18 10  1  6  0  0  0
 18 12  1  0  0  0  0
 19 22  1  0  0  0  0
 20 19  2  0  0  0  0
 20  4  1  0  0  0  0
 22  1  2  0  0  0  0
 23  2  2  0  0  0  0
 23  9  1  0  0  0  0
 24 25  1  0  0  0  0
 25 26  1  0  0  0  0
 27 28  1  0  0  0  0
 27 26  1  0  0  0  0
 29 28  1  0  0  0  0
 30 33  1  0  0  0  0
 30 34  1  0  0  0  0
 31 32  1  0  0  0  0
 32 29  1  1  0  0  0
 33 31  1  0  0  0  0
 34 32  1  0  0  0  0
M  END
>  <MODEL>
2

>  <REMARK>
 VINA RESULT:      -8.5      1.734      5.971
  Name = 
  7 active torsions:
  status: ('A' for Active; 'I' for Inactive)
    1  A    between atoms: C_10  and  C_17
    2  A    between atoms: C_10  and  C_22
    3  A    between atoms: C_13  and  C_24
    4  A    between atoms: C_17  and  C_28
    5  A    between atoms: C_22  and  C_24
    6  A    between atoms: C_28  and  C_29
    7  A    between atoms: C_29  and  C_32
                            x       y       z     vdW  Elec       q    Type
                         _______ _______ _______ _____ _____    ______ ____

>  <TORSDO>
F 7

$$$$
=
 OpenBabel11112418003D

 34 40  0  0  1  0  0  0  0  0999 V2000
  190.8240  177.1290  144.4530 C   0  0  0  0  0  0  0  0  0  0  0  0
  193.1750  176.7400  145.5740 C   0  0  0  0  0  3  0  0  0  0  0  0
  184.5490  178.8450  145.1080 C   0  0  2  0  0  3  0  0  0  0  0  0
  188.5760  177.6490  143.6420 C   0  0  0  0  0  0  0  0  0  0  0  0
  186.6710  177.7020  145.3280 C   0  0  1  0  0  3  0  0  0  0  0  0
  184.5080  177.5500  146.7940 C   0  0  0  0  0  2  0  0  0  0  0  0
  183.6760  178.7450  146.3400 C   0  0  0  0  0  2  0  0  0  0  0  0
  184.9190  178.4020  142.6510 C   0  0  0  0  0  2  0  0  0  0  0  0
  191.1980  176.1090  146.6380 C   0  0  0  0  0  0  0  0  0  0  0  0
  187.4020  176.6040  146.0830 C   0  0  0  0  0  2  0  0  0  0  0  0
  186.3830  178.7560  142.9830 C   0  0  0  0  0  2  0  0  0  0  0  0
  189.7270  175.8190  146.8010 C   0  0  1  0  0  3  0  0  0  0  0  0
  193.5500  176.1600  146.9390 C   0  0  0  0  0  2  0  0  0  0  0  0
  187.0720  177.6580  143.8300 C   0  0  1  0  0  3  0  0  0  0  0  0
  183.8930  178.7880  143.7410 C   0  0  0  0  0  2  0  0  0  0  0  0
  189.4310  177.1940  144.6710 C   0  0  0  0  0  0  0  0  0  0  0  0
  185.1700  177.5130  145.4280 C   0  0  1  0  0  3  0  0  0  0  0  0
  188.9000  176.8970  146.0660 C   0  0  1  0  0  3  0  0  0  0  0  0
  190.5090  177.8940  142.1790 C   0  0  0  0  0  3  0  0  0  0  0  0
  189.1300  177.9660  142.3910 C   0  0  0  0  0  3  0  0  0  0  0  0
  192.2470  175.7160  147.6050 C   0  0  0  0  0  3  0  0  0  0  0  0
  191.3540  177.4820  143.2080 C   0  0  0  0  0  3  0  0  0  0  0  0
  191.6960  176.6560  145.5450 C   0  0  0  0  0  0  0  0  0  0  0  0
  189.4130  174.4180  146.2690 C   0  0  0  0  0  2  0  0  0  0  0  0
  190.6480  173.7580  145.6770 C   0  0  0  0  0  2  0  0  0  0  0  0
  190.2980  173.0390  144.3890 C   0  0  0  0  0  2  0  0  0  0  0  0
  191.2200  173.5080  143.2840 C   0  0  0  0  0  2  0  0  0  0  0  0
  190.4070  174.2020  142.2090 C   0  0  0  0  0  2  0  0  0  0  0  0
  188.9230  174.1160  142.5220 C   0  0  0  0  0  2  0  0  0  0  0  0
  188.3440  174.1860  138.9520 C   0  0  0  0  0  2  0  0  0  0  0  0
  188.5790  172.6000  140.6890 O   0  0  0  0  0  0  0  0  0  0  0  0
  188.1160  173.7870  141.2760 C   0  0  2  0  0  3  0  0  0  0  0  0
  188.2750  172.7240  139.3260 C   0  0  0  0  0  2  0  0  0  0  0  0
  188.2630  174.9000  140.2670 C   0  0  0  0  0  2  0  0  0  0  0  0
  1 16  1  0  0  0  0
  1 23  1  0  0  0  0
  2 13  1  0  0  0  0
  3 15  1  6  0  0  0
  3 17  1  0  0  0  0
  3  7  1  0  0  0  0
  4 14  1  0  0  0  0
  4 16  2  0  0  0  0
  5 17  1  0  0  0  0
  5 10  1  1  0  0  0
  7  6  1  0  0  0  0
  8 11  1  0  0  0  0
  8 15  1  0  0  0  0
  9 12  1  0  0  0  0
  9 21  2  0  0  0  0
 12 24  1  6  0  0  0
 13 21  1  0  0  0  0
 14 11  1  6  0  0  0
 14  5  1  0  0  0  0
 16 18  1  0  0  0  0
 17  6  1  1  0  0  0
 18 10  1  6  0  0  0
 18 12  1  0  0  0  0
 19 20  2  0  0  0  0
 19 22  1  0  0  0  0
 20  4  1  0  0  0  0
 22  1  2  0  0  0  0
 23  2  2  0  0  0  0
 23  9  1  0  0  0  0
 25 24  1  0  0  0  0
 26 25  1  0  0  0  0
 27 26  1  0  0  0  0
 28 29  1  0  0  0  0
 28 27  1  0  0  0  0
 30 33  1  0  0  0  0
 30 34  1  0  0  0  0
 31 32  1  0  0  0  0
 32 29  1  1  0  0  0
 33 31  1  0  0  0  0
 34 32  1  0  0  0  0
M  END
>  <MODEL>
3

>  <REMARK>
 VINA RESULT:      -8.4      2.293      5.050
  Name = 
  7 active torsions:
  status: ('A' for Active; 'I' for Inactive)
    1  A    between atoms: C_10  and  C_17
    2  A    between atoms: C_10  and  C_22
    3  A    between atoms: C_13  and  C_24
    4  A    between atoms: C_17  and  C_28
    5  A    between atoms: C_22  and  C_24
    6  A    between atoms: C_28  and  C_29
    7  A    between atoms: C_29  and  C_32
                            x       y       z     vdW  Elec       q    Type
                         _______ _______ _______ _____ _____    ______ ____

>  <TORSDO>
F 7

$$$$
=
 OpenBabel11112418003D

 34 40  0  0  1  0  0  0  0  0999 V2000
  186.3520  177.1420  144.2990 C   0  0  0  0  0  0  0  0  0  0  0  0
  184.4750  178.1040  142.7220 C   0  0  0  0  0  3  0  0  0  0  0  0
  192.7130  176.6250  145.7240 C   0  0  2  0  0  3  0  0  0  0  0  0
  188.2670  176.4530  145.6560 C   0  0  0  0  0  0  0  0  0  0  0  0
  190.5770  176.5040  144.5920 C   0  0  1  0  0  3  0  0  0  0  0  0
  193.0050  176.2020  143.6610 C   0  0  0  0  0  2  0  0  0  0  0  0
  193.8930  176.7300  144.7840 C   0  0  0  0  0  2  0  0  0  0  0  0
  191.4680  175.3870  147.5380 C   0  0  0  0  0  2  0  0  0  0  0  0
  186.4910  177.3020  141.8680 C   0  0  0  0  0  0  0  0  0  0  0  0
  189.9030  176.1450  143.2770 C   0  0  0  0  0  2  0  0  0  0  0  0
  190.3150  176.3400  147.1590 C   0  0  0  0  0  2  0  0  0  0  0  0
  187.8260  176.6000  141.8560 C   0  0  1  0  0  3  0  0  0  0  0  0
  184.4450  178.3020  141.2060 C   0  0  0  0  0  3  0  0  0  0  0  0
  189.7100  176.0030  145.7750 C   0  0  1  0  0  3  0  0  0  0  0  0
  192.8540  175.7890  146.9830 C   0  0  0  0  0  2  0  0  0  0  0  0
  187.7160  176.7900  144.3990 C   0  0  0  0  0  0  0  0  0  0  0  0
  191.9430  175.8530  144.6880 C   0  0  1  0  0  3  0  0  0  0  0  0
  188.5910  176.9170  143.1610 C   0  0  1  0  0  3  0  0  0  0  0  0
  186.0720  176.7530  146.6710 C   0  0  0  0  0  3  0  0  0  0  0  0
  187.4220  176.4100  146.7770 C   0  0  0  0  0  3  0  0  0  0  0  0
  185.7560  177.7350  140.6580 C   0  0  0  0  0  3  0  0  0  0  0  0
  185.5400  177.1230  145.4360 C   0  0  0  0  0  3  0  0  0  0  0  0
  185.8020  177.4960  142.9760 C   0  0  1  0  0  3  0  0  0  0  0  0
  187.6190  175.0930  141.6850 C   0  0  0  0  0  2  0  0  0  0  0  0
  188.5280  174.5270  140.6050 C   0  0  0  0  0  2  0  0  0  0  0  0
  189.0950  173.1890  141.0380 C   0  0  0  0  0  2  0  0  0  0  0  0
  188.5230  172.8140  142.3880 C   0  0  0  0  0  2  0  0  0  0  0  0
  189.4720  171.8650  143.0930 C   0  0  0  0  0  2  0  0  0  0  0  0
  190.4140  172.6340  144.0050 C   0  0  0  0  0  2  0  0  0  0  0  0
  193.9110  172.8320  143.1000 C   0  0  0  0  0  2  0  0  0  0  0  0
  192.5850  172.5100  145.0300 O   0  0  0  0  0  0  0  0  0  0  0  0
  191.8270  172.0750  143.9330 C   0  0  2  0  0  3  0  0  0  0  0  0
  193.9120  172.5160  144.5780 C   0  0  0  0  0  2  0  0  0  0  0  0
  192.5010  172.5600  142.6720 C   0  0  0  0  0  2  0  0  0  0  0  0
  1 16  2  0  0  0  0
  1 22  1  0  0  0  0
  3  7  1  6  0  0  0
  3 15  1  0  0  0  0
  4 14  1  0  0  0  0
  4 20  2  0  0  0  0
  5 10  1  6  0  0  0
  5 17  1  0  0  0  0
  5 14  1  0  0  0  0
  6  7  1  0  0  0  0
  9 23  1  0  0  0  0
 11  8  1  0  0  0  0
 12 24  1  1  0  0  0
 12  9  1  0  0  0  0
 12 18  1  0  0  0  0
 13  2  2  0  0  0  0
 14 11  1  1  0  0  0
 15  8  1  0  0  0  0
 16  4  1  0  0  0  0
 17  6  1  6  0  0  0
 17  3  1  0  0  0  0
 18 10  1  1  0  0  0
 18 16  1  0  0  0  0
 19 20  1  0  0  0  0
 21 13  1  0  0  0  0
 21  9  2  0  0  0  0
 22 19  2  0  0  0  0
 23  2  1  1  0  0  0
 23  1  1  0  0  0  0
 25 26  1  0  0  0  0
 25 24  1  0  0  0  0
 26 27  1  0  0  0  0
 27 28  1  0  0  0  0
 28 29  1  0  0  0  0
 30 33  1  0  0  0  0
 32 29  1  1  0  0  0
 32 31  1  0  0  0  0
 33 31  1  0  0  0  0
 34 30  1  0  0  0  0
 34 32  1  0  0  0  0
M  END
>  <MODEL>
4

>  <REMARK>
 VINA RESULT:      -8.3      1.941      5.776
  Name = 
  7 active torsions:
  status: ('A' for Active; 'I' for Inactive)
    1  A    between atoms: C_10  and  C_17
    2  A    between atoms: C_10  and  C_22
    3  A    between atoms: C_13  and  C_24
    4  A    between atoms: C_17  and  C_28
    5  A    between atoms: C_22  and  C_24
    6  A    between atoms: C_28  and  C_29
    7  A    between atoms: C_29  and  C_32
                            x       y       z     vdW  Elec       q    Type
                         _______ _______ _______ _____ _____    ______ ____

>  <TORSDO>
F 7

$$$$
=
 OpenBabel11112418003D

 34 40  0  0  1  0  0  0  0  0999 V2000
  190.8030  177.0690  144.4600 C   0  0  0  0  0  0  0  0  0  0  0  0
  193.1760  176.6750  145.5340 C   0  0  0  0  0  3  0  0  0  0  0  0
  184.5400  178.7740  145.2460 C   0  0  2  0  0  3  0  0  0  0  0  0
  188.5390  177.5900  143.6960 C   0  0  0  0  0  0  0  0  0  0  0  0
  186.6670  177.6320  145.4180 C   0  0  1  0  0  3  0  0  0  0  0  0
  184.5330  177.4690  146.9250 C   0  0  0  0  0  2  0  0  0  0  0  0
  183.6920  178.6660  146.4930 C   0  0  0  0  0  2  0  0  0  0  0  0
  184.8630  178.3450  142.7800 C   0  0  0  0  0  2  0  0  0  0  0  0
  191.2200  176.0370  146.6320 C   0  0  0  0  0  0  0  0  0  0  0  0
  187.4130  176.5300  146.1530 C   0  0  0  0  0  2  0  0  0  0  0  0
  186.3330  178.6990  143.0860 C   0  0  0  0  0  2  0  0  0  0  0  0
  189.7530  175.7430  146.8210 C   0  0  1  0  0  3  0  0  0  0  0  0
  193.5780  176.0880  146.8880 C   0  0  0  0  0  2  0  0  0  0  0  0
  187.0390  177.5970  143.9120 C   0  0  1  0  0  3  0  0  0  0  0  0
  183.8580  178.7240  143.8920 C   0  0  0  0  0  2  0  0  0  0  0  0
  189.4140  177.1310  144.7060 C   0  0  0  0  0  0  0  0  0  0  0  0
  185.1690  177.4410  145.5460 C   0  0  1  0  0  3  0  0  0  0  0  0
  188.9100  176.8250  146.1080 C   0  0  1  0  0  3  0  0  0  0  0  0
  190.4430  177.8460  142.1970 C   0  0  0  0  0  3  0  0  0  0  0  0
  189.0690  177.9150  142.4360 C   0  0  0  0  0  3  0  0  0  0  0  0
  192.2880  175.6380  147.5760 C   0  0  0  0  0  3  0  0  0  0  0  0
  191.3090  177.4290  143.2080 C   0  0  0  0  0  3  0  0  0  0  0  0
  191.6960  176.5900  145.5330 C   0  0  0  0  0  0  0  0  0  0  0  0
  189.4300  174.3450  146.2870 C   0  0  0  0  0  2  0  0  0  0  0  0
  190.5200  173.8410  145.3550 C   0  0  0  0  0  2  0  0  0  0  0  0
  189.9480  173.5510  143.9810 C   0  0  0  0  0  2  0  0  0  0  0  0
  191.0380  173.6910  142.9420 C   0  0  0  0  0  2  0  0  0  0  0  0
  192.3930  173.6020  143.6150 C   0  0  0  0  0  2  0  0  0  0  0  0
  193.4760  174.1730  142.7150 C   0  0  0  0  0  2  0  0  0  0  0  0
  196.4410  174.9450  144.6380 C   0  0  0  0  0  2  0  0  0  0  0  0
  194.7760  173.2710  144.5240 O   0  0  0  0  0  0  0  0  0  0  0  0
  194.8630  173.8520  143.2500 C   0  0  2  0  0  3  0  0  0  0  0  0
  195.9800  173.6040  145.1600 C   0  0  0  0  0  2  0  0  0  0  0  0
  195.6690  175.1240  143.3660 C   0  0  0  0  0  2  0  0  0  0  0  0
  1 16  1  0  0  0  0
  1 23  1  0  0  0  0
  2 13  1  0  0  0  0
  3 15  1  6  0  0  0
  3 17  1  0  0  0  0
  3  7  1  0  0  0  0
  4 14  1  0  0  0  0
  4 16  2  0  0  0  0
  5 17  1  0  0  0  0
  5 10  1  1  0  0  0
  7  6  1  0  0  0  0
  8 11  1  0  0  0  0
  8 15  1  0  0  0  0
  9 12  1  0  0  0  0
  9 21  2  0  0  0  0
 12 24  1  6  0  0  0
 13 21  1  0  0  0  0
 14 11  1  6  0  0  0
 14  5  1  0  0  0  0
 16 18  1  0  0  0  0
 17  6  1  1  0  0  0
 18 10  1  6  0  0  0
 18 12  1  0  0  0  0
 19 20  2  0  0  0  0
 19 22  1  0  0  0  0
 20  4  1  0  0  0  0
 22  1  2  0  0  0  0
 23  2  2  0  0  0  0
 23  9  1  0  0  0  0
 25 24  1  0  0  0  0
 26 25  1  0  0  0  0
 27 28  1  0  0  0  0
 27 26  1  0  0  0  0
 29 28  1  0  0  0  0
 30 33  1  0  0  0  0
 31 33  1  0  0  0  0
 32 29  1  1  0  0  0
 32 34  1  0  0  0  0
 32 31  1  0  0  0  0
 34 30  1  0  0  0  0
M  END
>  <MODEL>
5

>  <REMARK>
 VINA RESULT:      -8.0      1.299      3.782
  Name = 
  7 active torsions:
  status: ('A' for Active; 'I' for Inactive)
    1  A    between atoms: C_10  and  C_17
    2  A    between atoms: C_10  and  C_22
    3  A    between atoms: C_13  and  C_24
    4  A    between atoms: C_17  and  C_28
    5  A    between atoms: C_22  and  C_24
    6  A    between atoms: C_28  and  C_29
    7  A    between atoms: C_29  and  C_32
                            x       y       z     vdW  Elec       q    Type
                         _______ _______ _______ _____ _____    ______ ____

>  <TORSDO>
F 7

$$$$
=
 OpenBabel11112418003D

 34 40  0  0  1  0  0  0  0  0999 V2000
  186.3080  177.7000  143.8580 C   0  0  0  0  0  0  0  0  0  0  0  0
  184.8610  178.8360  145.7430 C   0  0  0  0  0  3  0  0  0  0  0  0
  189.4920  172.4130  141.6960 C   0  0  2  0  0  3  0  0  0  0  0  0
  187.5740  176.3940  142.2230 C   0  0  0  0  0  0  0  0  0  0  0  0
  188.7880  174.3080  143.0280 C   0  0  1  0  0  3  0  0  0  0  0  0
  190.3420  172.2920  143.6410 C   0  0  0  0  0  2  0  0  0  0  0  0
  190.1100  171.2980  142.5080 C   0  0  0  0  0  2  0  0  0  0  0  0
  189.6790  174.1570  139.8800 C   0  0  0  0  0  2  0  0  0  0  0  0
  186.6430  177.4230  146.2600 C   0  0  0  0  0  0  0  0  0  0  0  0
  189.0060  175.0300  144.3480 C   0  0  0  0  0  2  0  0  0  0  0  0
  188.3770  174.7000  140.5040 C   0  0  0  0  0  2  0  0  0  0  0  0
  187.8780  176.5880  146.0330 C   0  0  1  0  0  3  0  0  0  0  0  0
  184.9300  178.7180  147.2660 C   0  0  0  0  0  2  0  0  0  0  0  0
  188.6190  175.3480  141.8890 C   0  0  1  0  0  3  0  0  0  0  0  0
  190.0710  172.7310  140.3300 C   0  0  0  0  0  2  0  0  0  0  0  0
  187.2340  176.6750  143.5660 C   0  0  0  0  0  0  0  0  0  0  0  0
  189.9760  173.4250  142.6980 C   0  0  1  0  0  3  0  0  0  0  0  0
  187.7420  175.8070  144.7070 C   0  0  1  0  0  3  0  0  0  0  0  0
  186.1170  178.2080  141.5000 C   0  0  0  0  0  3  0  0  0  0  0  0
  187.0280  177.1920  141.2040 C   0  0  0  0  0  3  0  0  0  0  0  0
  186.1270  177.8220  147.5880 C   0  0  0  0  0  3  0  0  0  0  0  0
  185.7540  178.4590  142.8230 C   0  0  0  0  0  3  0  0  0  0  0  0
  185.9660  177.9700  145.2680 C   0  0  0  0  0  0  0  0  0  0  0  0
  189.1180  177.4850  146.0260 C   0  0  0  0  0  2  0  0  0  0  0  0
  189.9260  177.3280  147.3040 C   0  0  0  0  0  2  0  0  0  0  0  0
  191.3260  176.8370  146.9890 C   0  0  0  0  0  2  0  0  0  0  0  0
  191.4000  175.3440  147.2220 C   0  0  0  0  0  2  0  0  0  0  0  0
  192.3350  174.7200  146.2060 C   0  0  0  0  0  2  0  0  0  0  0  0
  192.7110  175.7300  145.1350 C   0  0  0  0  0  2  0  0  0  0  0  0
  196.0670  174.4950  145.6790 C   0  0  0  0  0  2  0  0  0  0  0  0
  194.5380  174.7760  143.8980 O   0  0  0  0  0  0  0  0  0  0  0  0
  194.2100  175.7270  144.8760 C   0  0  2  0  0  3  0  0  0  0  0  0
  195.8570  174.3970  144.1860 C   0  0  0  0  0  2  0  0  0  0  0  0
  194.9430  175.3690  146.1470 C   0  0  0  0  0  2  0  0  0  0  0  0
  1 23  1  0  0  0  0
  2 13  1  0  0  0  0
  3 15  1  6  0  0  0
  3  7  1  0  0  0  0
  3 17  1  0  0  0  0
  4 16  2  0  0  0  0
  5 10  1  1  0  0  0
  7  6  1  0  0  0  0
  8 15  1  0  0  0  0
  8 11  1  0  0  0  0
  9 21  2  0  0  0  0
 12 24  1  6  0  0  0
 12  9  1  0  0  0  0
 13 21  1  0  0  0  0
 14 11  1  6  0  0  0
 14  4  1  0  0  0  0
 14  5  1  0  0  0  0
 16  1  1  0  0  0  0
 16 18  1  0  0  0  0
 17  5  1  0  0  0  0
 17  6  1  1  0  0  0
 18 10  1  6  0  0  0
 18 12  1  0  0  0  0
 19 22  1  0  0  0  0
 20 19  2  0  0  0  0
 20  4  1  0  0  0  0
 22  1  2  0  0  0  0
 23  2  2  0  0  0  0
 23  9  1  0  0  0  0
 24 25  1  0  0  0  0
 26 27  1  0  0  0  0
 26 25  1  0  0  0  0
 28 27  1  0  0  0  0
 29 28  1  0  0  0  0
 30 34  1  0  0  0  0
 31 33  1  0  0  0  0
 31 32  1  0  0  0  0
 32 29  1  1  0  0  0
 32 34  1  0  0  0  0
 33 30  1  0  0  0  0
M  END
>  <MODEL>
6

>  <REMARK>
 VINA RESULT:      -7.9      1.681      6.001
  Name = 
  7 active torsions:
  status: ('A' for Active; 'I' for Inactive)
    1  A    between atoms: C_10  and  C_17
    2  A    between atoms: C_10  and  C_22
    3  A    between atoms: C_13  and  C_24
    4  A    between atoms: C_17  and  C_28
    5  A    between atoms: C_22  and  C_24
    6  A    between atoms: C_28  and  C_29
    7  A    between atoms: C_29  and  C_32
                            x       y       z     vdW  Elec       q    Type
                         _______ _______ _______ _____ _____    ______ ____

>  <TORSDO>
F 7

$$$$
=
 OpenBabel11112418003D

 34 40  0  0  1  0  0  0  0  0999 V2000
  189.7740  176.8450  145.6750 C   0  0  0  0  0  0  0  0  0  0  0  0
  187.3790  177.9330  145.5440 C   0  0  0  0  0  3  0  0  0  0  0  0
  195.8430  176.4180  143.2790 C   0  0  2  0  0  3  0  0  0  0  0  0
  192.0900  176.0590  145.6430 C   0  0  0  0  0  0  0  0  0  0  0  0
  193.4330  176.3620  143.5030 C   0  0  1  0  0  3  0  0  0  0  0  0
  194.9350  176.3010  141.3590 C   0  0  0  0  0  2  0  0  0  0  0  0
  196.3140  176.7060  141.8710 C   0  0  0  0  0  2  0  0  0  0  0  0
  195.7530  174.8850  145.2820 C   0  0  0  0  0  2  0  0  0  0  0  0
  188.5580  177.3480  143.6190 C   0  0  0  0  0  0  0  0  0  0  0  0
  192.1330  176.1590  142.7410 C   0  0  0  0  0  2  0  0  0  0  0  0
  194.6210  175.8290  145.7380 C   0  0  0  0  0  2  0  0  0  0  0  0
  189.6380  176.7160  142.7770 C   0  0  1  0  0  3  0  0  0  0  0  0
  186.5270  178.3390  144.3400 C   0  0  0  0  0  3  0  0  0  0  0  0
  193.3410  175.6620  144.8840 C   0  0  1  0  0  3  0  0  0  0  0  0
  196.6190  175.4230  144.1200 C   0  0  0  0  0  2  0  0  0  0  0  0
  190.9520  176.5440  144.9580 C   0  0  0  0  0  0  0  0  0  0  0  0
  194.5990  175.7650  142.7400 C   0  0  1  0  0  3  0  0  0  0  0  0
  191.0060  176.8810  143.4750 C   0  0  1  0  0  3  0  0  0  0  0  0
  190.8300  176.1170  147.7270 C   0  0  0  0  0  3  0  0  0  0  0  0
  192.0010  175.8230  147.0240 C   0  0  0  0  0  3  0  0  0  0  0  0
  187.2970  177.9120  143.0890 C   0  0  0  0  0  3  0  0  0  0  0  0
  189.7210  176.6320  147.0560 C   0  0  0  0  0  3  0  0  0  0  0  0
  188.6020  177.3550  144.9380 C   0  0  1  0  0  3  0  0  0  0  0  0
  189.3110  175.2390  142.5370 C   0  0  0  0  0  2  0  0  0  0  0  0
  188.3890  175.0620  141.3410 C   0  0  0  0  0  2  0  0  0  0  0  0
  188.7900  173.8370  140.5420 C   0  0  0  0  0  2  0  0  0  0  0  0
  190.2070  173.4450  140.8980 C   0  0  0  0  0  2  0  0  0  0  0  0
  190.2720  171.9510  141.1440 C   0  0  0  0  0  2  0  0  0  0  0  0
  190.5200  171.6630  142.6160 C   0  0  0  0  0  2  0  0  0  0  0  0
  193.1580  172.2760  145.0140 C   0  0  0  0  0  2  0  0  0  0  0  0
  192.9180  171.8020  142.7100 O   0  0  0  0  0  0  0  0  0  0  0  0
  191.7320  172.4250  143.1280 C   0  0  2  0  0  3  0  0  0  0  0  0
  193.8670  172.1320  143.6870 C   0  0  0  0  0  2  0  0  0  0  0  0
  191.7180  172.4470  144.6380 C   0  0  0  0  0  2  0  0  0  0  0  0
  1 22  1  0  0  0  0
  3  7  1  6  0  0  0
  3 15  1  0  0  0  0
  4 20  2  0  0  0  0
  5 10  1  6  0  0  0
  5 14  1  0  0  0  0
  6  7  1  0  0  0  0
  8 11  1  0  0  0  0
  9 23  1  0  0  0  0
 12 24  1  1  0  0  0
 12 18  1  0  0  0  0
 12  9  1  0  0  0  0
 13  2  2  0  0  0  0
 14  4  1  0  0  0  0
 14 11  1  1  0  0  0
 15  8  1  0  0  0  0
 16  4  1  0  0  0  0
 16  1  2  0  0  0  0
 17  6  1  6  0  0  0
 17  3  1  0  0  0  0
 17  5  1  0  0  0  0
 18 10  1  6  0  0  0
 18 16  1  0  0  0  0
 20 19  1  0  0  0  0
 21  9  2  0  0  0  0
 21 13  1  0  0  0  0
 22 19  2  0  0  0  0
 23  2  1  6  0  0  0
 23  1  1  0  0  0  0
 25 24  1  0  0  0  0
 26 27  1  0  0  0  0
 26 25  1  0  0  0  0
 27 28  1  0  0  0  0
 28 29  1  0  0  0  0
 31 32  1  0  0  0  0
 31 33  1  0  0  0  0
 32 29  1  1  0  0  0
 32 34  1  0  0  0  0
 33 30  1  0  0  0  0
 34 30  1  0  0  0  0
M  END
>  <MODEL>
7

>  <REMARK>
 VINA RESULT:      -7.5      1.901      6.720
  Name = 
  7 active torsions:
  status: ('A' for Active; 'I' for Inactive)
    1  A    between atoms: C_10  and  C_17
    2  A    between atoms: C_10  and  C_22
    3  A    between atoms: C_13  and  C_24
    4  A    between atoms: C_17  and  C_28
    5  A    between atoms: C_22  and  C_24
    6  A    between atoms: C_28  and  C_29
    7  A    between atoms: C_29  and  C_32
                            x       y       z     vdW  Elec       q    Type
                         _______ _______ _______ _____ _____    ______ ____

>  <TORSDO>
F 7

$$$$
=
 OpenBabel11112418003D

 34 40  0  0  1  0  0  0  0  0999 V2000
  190.4220  174.2120  145.2570 C   0  0  0  0  0  0  0  0  0  0  0  0
  188.5620  175.4550  146.6470 C   0  0  0  0  0  3  0  0  0  0  0  0
  196.7650  173.4490  143.8630 C   0  0  2  0  0  3  0  0  0  0  0  0
  192.3350  173.1490  144.1660 C   0  0  0  0  0  0  0  0  0  0  0  0
  194.5550  174.3940  144.1460 C   0  0  1  0  0  3  0  0  0  0  0  0
  196.8590  175.5700  143.7460 C   0  0  0  0  0  2  0  0  0  0  0  0
  197.8790  174.4630  143.9930 C   0  0  0  0  0  2  0  0  0  0  0  0
  195.5170  171.7390  142.4880 C   0  0  0  0  0  2  0  0  0  0  0  0
  190.4050  176.5950  145.7860 C   0  0  0  0  0  0  0  0  0  0  0  0
  193.7510  175.6820  144.0720 C   0  0  0  0  0  2  0  0  0  0  0  0
  194.4590  171.8670  143.6030 C   0  0  0  0  0  2  0  0  0  0  0  0
  191.6450  176.8290  144.9610 C   0  0  1  0  0  3  0  0  0  0  0  0
  188.4470  176.9150  147.0860 C   0  0  0  0  0  2  0  0  0  0  0  0
  193.7210  173.2260  143.5550 C   0  0  1  0  0  3  0  0  0  0  0  0
  196.8970  172.3470  142.8280 C   0  0  0  0  0  2  0  0  0  0  0  0
  191.7400  174.2870  144.7550 C   0  0  0  0  0  0  0  0  0  0  0  0
  195.8390  174.5170  143.3500 C   0  0  1  0  0  3  0  0  0  0  0  0
  192.5330  175.5650  144.9850 C   0  0  1  0  0  3  0  0  0  0  0  0
  190.2690  171.9100  144.5270 C   0  0  0  0  0  3  0  0  0  0  0  0
  191.5740  171.9770  144.0320 C   0  0  0  0  0  3  0  0  0  0  0  0
  189.6410  177.6550  146.4800 C   0  0  0  0  0  3  0  0  0  0  0  0
  189.6960  173.0230  145.1420 C   0  0  0  0  0  3  0  0  0  0  0  0
  189.8240  175.4130  145.8720 C   0  0  0  0  0  0  0  0  0  0  0  0
  191.2540  177.2070  143.5300 C   0  0  0  0  0  2  0  0  0  0  0  0
  190.0890  178.1840  143.5120 C   0  0  0  0  0  2  0  0  0  0  0  0
  189.0980  177.8070  142.4290 C   0  0  0  0  0  2  0  0  0  0  0  0
  188.8660  176.3120  142.4570 C   0  0  0  0  0  2  0  0  0  0  0  0
  187.5040  176.0230  143.0570 C   0  0  0  0  0  2  0  0  0  0  0  0
  186.4110  176.7070  142.2530 C   0  0  0  0  0  2  0  0  0  0  0  0
  185.9150  178.8460  145.1280 C   0  0  0  0  0  2  0  0  0  0  0  0
  185.7480  178.9580  142.7730 O   0  0  0  0  0  0  0  0  0  0  0  0
  185.5670  177.6150  143.1350 C   0  0  2  0  0  3  0  0  0  0  0  0
  185.5000  179.6880  143.9440 C   0  0  0  0  0  2  0  0  0  0  0  0
  185.9860  177.4550  144.5760 C   0  0  0  0  0  2  0  0  0  0  0  0
  1 23  1  0  0  0  0
  2 13  1  0  0  0  0
  3 15  1  6  0  0  0
  3  7  1  0  0  0  0
  4 16  1  0  0  0  0
  5 10  1  6  0  0  0
  6  7  1  0  0  0  0
  8 15  1  0  0  0  0
  8 11  1  0  0  0  0
  9 23  1  0  0  0  0
  9 21  2  0  0  0  0
 12 24  1  6  0  0  0
 12 18  1  0  0  0  0
 12  9  1  0  0  0  0
 14 11  1  1  0  0  0
 14  5  1  0  0  0  0
 14  4  1  0  0  0  0
 16 18  1  0  0  0  0
 16  1  2  0  0  0  0
 17  6  1  1  0  0  0
 17  3  1  0  0  0  0
 17  5  1  0  0  0  0
 18 10  1  6  0  0  0
 19 22  2  0  0  0  0
 20  4  2  0  0  0  0
 20 19  1  0  0  0  0
 21 13  1  0  0  0  0
 22  1  1  0  0  0  0
 23  2  2  0  0  0  0
 25 24  1  0  0  0  0
 26 27  1  0  0  0  0
 26 25  1  0  0  0  0
 27 28  1  0  0  0  0
 29 28  1  0  0  0  0
 31 32  1  0  0  0  0
 31 33  1  0  0  0  0
 32 29  1  6  0  0  0
 32 34  1  0  0  0  0
 33 30  1  0  0  0  0
 34 30  1  0  0  0  0
M  END
>  <MODEL>
8

>  <REMARK>
 VINA RESULT:      -7.4      2.387      8.264
  Name = 
  7 active torsions:
  status: ('A' for Active; 'I' for Inactive)
    1  A    between atoms: C_10  and  C_17
    2  A    between atoms: C_10  and  C_22
    3  A    between atoms: C_13  and  C_24
    4  A    between atoms: C_17  and  C_28
    5  A    between atoms: C_22  and  C_24
    6  A    between atoms: C_28  and  C_29
    7  A    between atoms: C_29  and  C_32
                            x       y       z     vdW  Elec       q    Type
                         _______ _______ _______ _____ _____    ______ ____

>  <TORSDO>
F 7

$$$$
=
 OpenBabel11112418003D

 34 40  0  0  1  0  0  0  0  0999 V2000
  186.3430  177.1790  143.9580 C   0  0  0  0  0  0  0  0  0  0  0  0
  184.6160  178.1260  142.2080 C   0  0  0  0  0  3  0  0  0  0  0  0
  192.5620  176.5520  145.8770 C   0  0  2  0  0  3  0  0  0  0  0  0
  188.1300  176.4940  145.4800 C   0  0  0  0  0  0  0  0  0  0  0  0
  190.5140  176.4430  144.5920 C   0  0  1  0  0  3  0  0  0  0  0  0
  192.9940  176.0390  143.8580 C   0  0  0  0  0  2  0  0  0  0  0  0
  193.8110  176.5880  145.0240 C   0  0  0  0  0  2  0  0  0  0  0  0
  191.1500  175.4210  147.6370 C   0  0  0  0  0  2  0  0  0  0  0  0
  186.6660  177.2380  141.5390 C   0  0  0  0  0  0  0  0  0  0  0  0
  189.9280  176.0480  143.2450 C   0  0  0  0  0  2  0  0  0  0  0  0
  190.0570  176.3880  147.1360 C   0  0  0  0  0  2  0  0  0  0  0  0
  187.9770  176.5010  141.6550 C   0  0  1  0  0  3  0  0  0  0  0  0
  184.7050  178.2640  140.6880 C   0  0  0  0  0  3  0  0  0  0  0  0
  189.5460  176.0120  145.7250 C   0  0  1  0  0  3  0  0  0  0  0  0
  192.5840  175.7640  147.1730 C   0  0  0  0  0  2  0  0  0  0  0  0
  187.6840  176.7960  144.1730 C   0  0  0  0  0  0  0  0  0  0  0  0
  191.8480  175.7590  144.8150 C   0  0  1  0  0  3  0  0  0  0  0  0
  188.6520  176.8490  143.0010 C   0  0  1  0  0  3  0  0  0  0  0  0
  185.8760  176.8930  146.3150 C   0  0  0  0  0  3  0  0  0  0  0  0
  187.2040  176.5190  146.5360 C   0  0  0  0  0  3  0  0  0  0  0  0
  186.0350  177.6410  140.2630 C   0  0  0  0  0  3  0  0  0  0  0  0
  185.4480  177.2280  145.0310 C   0  0  0  0  0  3  0  0  0  0  0  0
  185.9030  177.4940  142.5850 C   0  0  1  0  0  3  0  0  0  0  0  0
  187.7400  174.9940  141.5260 C   0  0  0  0  0  2  0  0  0  0  0  0
  188.3660  174.4400  140.2560 C   0  0  0  0  0  2  0  0  0  0  0  0
  188.5850  172.9450  140.3840 C   0  0  0  0  0  2  0  0  0  0  0  0
  189.9850  172.6820  140.8920 C   0  0  0  0  0  2  0  0  0  0  0  0
  190.9680  173.5590  140.1420 C   0  0  0  0  0  2  0  0  0  0  0  0
  192.1330  173.9430  141.0390 C   0  0  0  0  0  2  0  0  0  0  0  0
  194.2960  175.1300  138.3930 C   0  0  0  0  0  2  0  0  0  0  0  0
  194.2910  174.9620  140.7510 O   0  0  0  0  0  0  0  0  0  0  0  0
  193.4430  173.9560  140.2650 C   0  0  2  0  0  3  0  0  0  0  0  0
  195.0970  175.3180  139.6610 C   0  0  0  0  0  2  0  0  0  0  0  0
  193.1680  174.2350  138.8070 C   0  0  0  0  0  2  0  0  0  0  0  0
  1 16  2  0  0  0  0
  1 22  1  0  0  0  0
  3  7  1  6  0  0  0
  3 15  1  0  0  0  0
  4 14  1  0  0  0  0
  4 20  2  0  0  0  0
  5 10  1  6  0  0  0
  5 17  1  0  0  0  0
  5 14  1  0  0  0  0
  6  7  1  0  0  0  0
  9 12  1  0  0  0  0
  9 23  1  0  0  0  0
 11  8  1  0  0  0  0
 12 24  1  1  0  0  0
 12 18  1  0  0  0  0
 13  2  2  0  0  0  0
 14 11  1  1  0  0  0
 15  8  1  0  0  0  0
 16  4  1  0  0  0  0
 17  6  1  6  0  0  0
 17  3  1  0  0  0  0
 18 10  1  1  0  0  0
 18 16  1  0  0  0  0
 19 20  1  0  0  0  0
 21 13  1  0  0  0  0
 21  9  2  0  0  0  0
 22 19  2  0  0  0  0
 23  2  1  1  0  0  0
 23  1  1  0  0  0  0
 25 26  1  0  0  0  0
 25 24  1  0  0  0  0
 26 27  1  0  0  0  0
 28 27  1  0  0  0  0
 28 29  1  0  0  0  0
 30 34  1  0  0  0  0
 30 33  1  0  0  0  0
 32 31  1  0  0  0  0
 32 29  1  1  0  0  0
 33 31  1  0  0  0  0
 34 32  1  0  0  0  0
M  END
>  <MODEL>
9

>  <REMARK>
 VINA RESULT:      -7.4      2.097      5.795
  Name = 
  7 active torsions:
  status: ('A' for Active; 'I' for Inactive)
    1  A    between atoms: C_10  and  C_17
    2  A    between atoms: C_10  and  C_22
    3  A    between atoms: C_13  and  C_24
    4  A    between atoms: C_17  and  C_28
    5  A    between atoms: C_22  and  C_24
    6  A    between atoms: C_28  and  C_29
    7  A    between atoms: C_29  and  C_32
                            x       y       z     vdW  Elec       q    Type
                         _______ _______ _______ _____ _____    ______ ____

>  <TORSDO>
F 7

$$$$
