=
 OpenBabel11112416493D

 31 35  0  0  1  0  0  0  0  0999 V2000
  186.4690  177.8920  140.7820 C   0  0  0  0  0  0  0  0  0  0  0  0
  188.2780  177.8980  144.1340 C   0  0  2  0  0  3  0  0  0  0  0  0
  187.1880  177.7810  145.1940 C   0  0  0  0  0  0  0  0  0  0  0  0
  184.8750  178.1470  145.8710 C   0  0  0  0  0  0  0  0  0  0  0  0
  187.8140  177.4750  142.7610 C   0  0  0  0  0  0  0  0  0  0  0  0
  186.8830  176.6740  140.2390 C   0  0  0  0  0  3  0  0  0  0  0  0
  185.8720  178.1710  144.8940 C   0  0  0  0  0  3  0  0  0  0  0  0
  189.4100  175.6990  144.3050 N   0  0  0  0  0  0  0  0  0  0  0  0
  185.6130  178.6840  140.0940 F   0  0  0  0  0  0  0  0  0  0  0  0
  188.8750  176.9890  146.9320 C   0  0  0  0  0  2  0  0  0  0  0  0
  183.6100  178.5110  145.5560 F   0  0  0  0  0  0  0  0  0  0  0  0
  189.3090  175.4400  142.8680 C   0  0  0  0  0  2  0  0  0  0  0  0
  189.5740  177.1520  144.5200 C   0  0  2  0  0  3  0  0  0  0  0  0
  186.9370  178.2930  142.0360 C   0  0  0  0  0  3  0  0  0  0  0  0
  185.1840  177.7510  147.1710 C   0  0  0  0  0  3  0  0  0  0  0  0
  188.2350  176.2510  142.2060 C   0  0  0  0  0  0  0  0  0  0  0  0
  187.7740  175.8620  140.9450 C   0  0  0  0  0  3  0  0  0  0  0  0
  189.9390  177.5010  145.9690 C   0  0  0  0  0  2  0  0  0  0  0  0
  187.4990  177.4210  146.5280 C   0  0  0  0  0  0  0  0  0  0  0  0
  186.4920  177.3890  147.4970 C   0  0  0  0  0  3  0  0  0  0  0  0
  190.6250  175.0050  144.7220 C   0  0  0  0  0  2  0  0  0  0  0  0
  192.5570  175.3020  143.2140 C   0  0  0  0  0  1  0  0  0  0  0  0
  191.3450  174.4300  143.5090 C   0  0  1  0  0  3  0  0  0  0  0  0
  190.8930  171.5040  141.2880 C   0  0  1  0  0  3  0  0  0  0  0  0
  192.7590  172.5010  142.6520 C   0  0  0  0  0  2  0  0  0  0  0  0
  189.6010  172.1340  144.8560 C   0  0  0  0  0  1  0  0  0  0  0  0
  190.2160  171.5260  139.9340 C   0  0  0  0  0  1  0  0  0  0  0  0
  192.0950  172.4470  141.2730 C   0  0  0  0  0  2  0  0  0  0  0  0
  190.5900  171.9520  143.7200 C   0  0  2  0  0  3  0  0  0  0  0  0
  191.7620  172.9560  143.7300 C   0  0  2  0  0  3  0  0  0  0  0  0
  189.8920  171.9140  142.3640 C   0  0  0  0  0  2  0  0  0  0  0  0
  1 14  1  0  0  0  0
  2  5  1  6  0  0  0
  2 13  1  0  0  0  0
  2  3  1  0  0  0  0
  3 19  1  0  0  0  0
  4 15  2  0  0  0  0
  6  1  2  0  0  0  0
  6 17  1  0  0  0  0
  7  3  2  0  0  0  0
  7  4  1  0  0  0  0
  8 13  1  0  0  0  0
  8 21  1  0  0  0  0
  9  1  1  0  0  0  0
 11  4  1  0  0  0  0
 12  8  1  0  0  0  0
 13 18  1  1  0  0  0
 14  5  2  0  0  0  0
 15 20  1  0  0  0  0
 16  5  1  0  0  0  0
 16 12  1  0  0  0  0
 17 16  2  0  0  0  0
 18 10  1  0  0  0  0
 19 10  1  0  0  0  0
 19 20  2  0  0  0  0
 23 22  1  1  0  0  0
 23 21  1  0  0  0  0
 24 27  1  6  0  0  0
 24 31  1  0  0  0  0
 25 30  1  0  0  0  0
 28 24  1  0  0  0  0
 28 25  1  0  0  0  0
 29 30  1  0  0  0  0
 29 26  1  1  0  0  0
 30 23  1  6  0  0  0
 31 29  1  0  0  0  0
M  END
>  <MODEL>
1

>  <REMARK>
 VINA RESULT:      -8.5      0.000      0.000
  Name = 
  3 active torsions:
  status: ('A' for Active; 'I' for Inactive)
    1  A    between atoms: C_5  and  C_16
    2  A    between atoms: C_5  and  C_30
    3  A    between atoms: N_10  and  C_16
                            x       y       z     vdW  Elec       q    Type
                         _______ _______ _______ _____ _____    ______ ____

>  <TORSDO>
F 3

$$$$
=
 OpenBabel11112416493D

 31 35  0  0  1  0  0  0  0  0999 V2000
  189.8290  171.8660  142.0760 C   0  0  0  0  0  0  0  0  0  0  0  0
  190.1650  173.7730  145.3560 C   0  0  2  0  0  3  0  0  0  0  0  0
  191.6310  174.1810  145.4500 C   0  0  0  0  0  0  0  0  0  0  0  0
  193.9620  173.7730  144.8650 C   0  0  0  0  0  0  0  0  0  0  0  0
  189.7440  173.4040  143.9530 C   0  0  0  0  0  0  0  0  0  0  0  0
  189.0330  172.7330  141.3240 C   0  0  0  0  0  3  0  0  0  0  0  0
  192.6070  173.4680  144.7330 C   0  0  0  0  0  3  0  0  0  0  0  0
  189.0390  175.9520  144.9990 N   0  0  0  0  0  0  0  0  0  0  0  0
  190.2640  170.7030  141.5330 F   0  0  0  0  0  0  0  0  0  0  0  0
  191.0830  175.9900  147.1590 C   0  0  0  0  0  2  0  0  0  0  0  0
  194.8840  173.0830  144.1530 F   0  0  0  0  0  0  0  0  0  0  0  0
  188.3040  175.4770  143.8260 C   0  0  0  0  0  2  0  0  0  0  0  0
  189.2080  174.8310  145.9460 C   0  0  2  0  0  3  0  0  0  0  0  0
  190.1790  172.1980  143.3870 C   0  0  0  0  0  3  0  0  0  0  0  0
  194.3670  174.7860  145.7340 C   0  0  0  0  0  3  0  0  0  0  0  0
  188.9350  174.2710  143.1950 C   0  0  0  0  0  0  0  0  0  0  0  0
  188.5770  173.9270  141.8880 C   0  0  0  0  0  3  0  0  0  0  0  0
  189.7420  175.2820  147.3120 C   0  0  0  0  0  2  0  0  0  0  0  0
  192.0570  175.1800  146.3600 C   0  0  0  0  0  0  0  0  0  0  0  0
  193.4160  175.4870  146.4770 C   0  0  0  0  0  3  0  0  0  0  0  0
  188.1720  176.9650  145.5940 C   0  0  0  0  0  2  0  0  0  0  0  0
  185.7040  176.9000  145.5660 C   0  0  0  0  0  1  0  0  0  0  0  0
  186.9410  177.1810  144.7230 C   0  0  1  0  0  3  0  0  0  0  0  0
  184.4570  178.6940  142.4330 C   0  0  1  0  0  3  0  0  0  0  0  0
  185.6200  179.3460  144.5690 C   0  0  0  0  0  2  0  0  0  0  0  0
  188.2390  178.1500  141.9850 C   0  0  0  0  0  1  0  0  0  0  0  0
  183.2450  177.9880  141.8630 C   0  0  0  0  0  1  0  0  0  0  0  0
  184.3710  178.7010  143.9590 C   0  0  0  0  0  2  0  0  0  0  0  0
  186.9440  178.6620  142.5880 C   0  0  2  0  0  3  0  0  0  0  0  0
  186.8950  178.6090  144.1300 C   0  0  2  0  0  3  0  0  0  0  0  0
  185.7260  177.9890  141.9620 C   0  0  0  0  0  2  0  0  0  0  0  0
  1 14  1  0  0  0  0
  2  5  1  6  0  0  0
  2  3  1  0  0  0  0
  2 13  1  0  0  0  0
  3 19  1  0  0  0  0
  4 15  2  0  0  0  0
  6 17  1  0  0  0  0
  6  1  2  0  0  0  0
  7  4  1  0  0  0  0
  7  3  2  0  0  0  0
  8 21  1  0  0  0  0
  8 13  1  0  0  0  0
  9  1  1  0  0  0  0
 10 18  1  0  0  0  0
 11  4  1  0  0  0  0
 12  8  1  0  0  0  0
 13 18  1  1  0  0  0
 14  5  2  0  0  0  0
 15 20  1  0  0  0  0
 16 12  1  0  0  0  0
 16  5  1  0  0  0  0
 17 16  2  0  0  0  0
 19 20  2  0  0  0  0
 19 10  1  0  0  0  0
 23 22  1  1  0  0  0
 23 21  1  0  0  0  0
 24 27  1  6  0  0  0
 24 28  1  0  0  0  0
 28 25  1  0  0  0  0
 29 26  1  6  0  0  0
 29 30  1  0  0  0  0
 30 25  1  0  0  0  0
 30 23  1  6  0  0  0
 31 24  1  0  0  0  0
 31 29  1  0  0  0  0
M  END
>  <MODEL>
2

>  <REMARK>
 VINA RESULT:      -8.4      3.204      7.016
  Name = 
  3 active torsions:
  status: ('A' for Active; 'I' for Inactive)
    1  A    between atoms: C_5  and  C_16
    2  A    between atoms: C_5  and  C_30
    3  A    between atoms: N_10  and  C_16
                            x       y       z     vdW  Elec       q    Type
                         _______ _______ _______ _____ _____    ______ ____

>  <TORSDO>
F 3

$$$$
=
 OpenBabel11112416493D

 31 35  0  0  1  0  0  0  0  0999 V2000
  185.5040  178.3270  141.0270 C   0  0  0  0  0  0  0  0  0  0  0  0
  188.1610  178.1060  143.7470 C   0  0  2  0  0  3  0  0  0  0  0  0
  187.4420  177.5900  144.9890 C   0  0  0  0  0  0  0  0  0  0  0  0
  185.3850  177.3620  146.2770 C   0  0  0  0  0  0  0  0  0  0  0  0
  187.3960  177.8460  142.4710 C   0  0  0  0  0  0  0  0  0  0  0  0
  185.9210  177.3310  140.1420 C   0  0  0  0  0  3  0  0  0  0  0  0
  186.0520  177.7550  145.1160 C   0  0  0  0  0  3  0  0  0  0  0  0
  189.6030  176.1830  143.1420 N   0  0  0  0  0  0  0  0  0  0  0  0
  184.3830  179.0400  140.7640 F   0  0  0  0  0  0  0  0  0  0  0  0
  189.6460  176.8590  146.0390 C   0  0  0  0  0  2  0  0  0  0  0  0
  184.0430  177.5160  146.3710 F   0  0  0  0  0  0  0  0  0  0  0  0
  189.1400  176.1650  141.7530 C   0  0  0  0  0  2  0  0  0  0  0  0
  189.6070  177.5780  143.6280 C   0  0  2  0  0  3  0  0  0  0  0  0
  186.2410  178.5870  142.1850 C   0  0  0  0  0  3  0  0  0  0  0  0
  186.1010  176.8140  147.3400 C   0  0  0  0  0  3  0  0  0  0  0  0
  187.8180  176.8480  141.5730 C   0  0  0  0  0  0  0  0  0  0  0  0
  187.0830  176.6020  140.4090 C   0  0  0  0  0  3  0  0  0  0  0  0
  190.3100  177.7340  144.9830 C   0  0  0  0  0  2  0  0  0  0  0  0
  188.1640  177.0710  146.0910 C   0  0  0  0  0  0  0  0  0  0  0  0
  187.4850  176.6690  147.2460 C   0  0  0  0  0  3  0  0  0  0  0  0
  190.9730  175.6840  143.0830 C   0  0  0  0  0  2  0  0  0  0  0  0
  190.2260  173.4400  143.7930 C   0  0  0  0  0  1  0  0  0  0  0  0
  191.1780  174.5830  144.1170 C   0  0  1  0  0  3  0  0  0  0  0  0
  194.0650  175.9500  145.9860 C   0  0  1  0  0  3  0  0  0  0  0  0
  193.0480  173.6830  145.5810 C   0  0  0  0  0  2  0  0  0  0  0  0
  193.5480  175.4990  142.2010 C   0  0  0  0  0  1  0  0  0  0  0  0
  194.0300  177.1660  146.8880 C   0  0  0  0  0  1  0  0  0  0  0  0
  193.0900  174.8980  146.5130 C   0  0  0  0  0  2  0  0  0  0  0  0
  193.6790  175.1270  143.6660 C   0  0  2  0  0  3  0  0  0  0  0  0
  192.6440  174.0910  144.1550 C   0  0  2  0  0  3  0  0  0  0  0  0
  193.7060  176.3620  144.5620 C   0  0  0  0  0  2  0  0  0  0  0  0
  1 14  1  0  0  0  0
  2  5  1  6  0  0  0
  2  3  1  0  0  0  0
  3  7  2  0  0  0  0
  3 19  1  0  0  0  0
  4 11  1  0  0  0  0
  4 15  2  0  0  0  0
  6 17  1  0  0  0  0
  6  1  2  0  0  0  0
  7  4  1  0  0  0  0
  8 13  1  0  0  0  0
  9  1  1  0  0  0  0
 10 19  1  0  0  0  0
 12  8  1  0  0  0  0
 13  2  1  0  0  0  0
 13 18  1  1  0  0  0
 14  5  2  0  0  0  0
 16 12  1  0  0  0  0
 16  5  1  0  0  0  0
 17 16  2  0  0  0  0
 18 10  1  0  0  0  0
 19 20  2  0  0  0  0
 20 15  1  0  0  0  0
 21  8  1  0  0  0  0
 21 23  1  0  0  0  0
 23 22  1  6  0  0  0
 24 28  1  0  0  0  0
 24 27  1  1  0  0  0
 25 28  1  0  0  0  0
 29 26  1  6  0  0  0
 29 30  1  0  0  0  0
 29 31  1  0  0  0  0
 30 23  1  1  0  0  0
 30 25  1  0  0  0  0
 31 24  1  0  0  0  0
M  END
>  <MODEL>
3

>  <REMARK>
 VINA RESULT:      -8.3      1.586      3.220
  Name = 
  3 active torsions:
  status: ('A' for Active; 'I' for Inactive)
    1  A    between atoms: C_5  and  C_16
    2  A    between atoms: C_5  and  C_30
    3  A    between atoms: N_10  and  C_16
                            x       y       z     vdW  Elec       q    Type
                         _______ _______ _______ _____ _____    ______ ____

>  <TORSDO>
F 3

$$$$
=
 OpenBabel11112416493D

 31 35  0  0  1  0  0  0  0  0999 V2000
  186.0790  177.8470  147.2010 C   0  0  0  0  0  0  0  0  0  0  0  0
  189.0480  177.8470  144.8150 C   0  0  2  0  0  3  0  0  0  0  0  0
  190.1810  177.1530  145.5630 C   0  0  0  0  0  0  0  0  0  0  0  0
  191.2340  176.5430  147.6750 C   0  0  0  0  0  0  0  0  0  0  0  0
  187.6880  177.5590  145.4050 C   0  0  0  0  0  0  0  0  0  0  0  0
  185.1950  176.9820  146.5540 C   0  0  0  0  0  3  0  0  0  0  0  0
  190.1700  177.1040  146.9670 C   0  0  0  0  0  3  0  0  0  0  0  0
  188.5040  176.1980  143.0450 N   0  0  0  0  0  0  0  0  0  0  0  0
  185.7350  178.4040  148.3870 F   0  0  0  0  0  0  0  0  0  0  0  0
  191.4190  176.6870  143.3840 C   0  0  0  0  0  2  0  0  0  0  0  0
  191.1950  176.4920  149.0280 F   0  0  0  0  0  0  0  0  0  0  0  0
  187.0750  176.2010  143.3640 C   0  0  0  0  0  2  0  0  0  0  0  0
  189.0550  177.5460  143.3010 C   0  0  2  0  0  3  0  0  0  0  0  0
  187.3180  178.1390  146.6260 C   0  0  0  0  0  3  0  0  0  0  0  0
  192.3390  176.0400  146.9890 C   0  0  0  0  0  3  0  0  0  0  0  0
  186.7910  176.6930  144.7520 C   0  0  0  0  0  0  0  0  0  0  0  0
  185.5470  176.4160  145.3250 C   0  0  0  0  0  3  0  0  0  0  0  0
  190.4820  177.7160  142.7630 C   0  0  0  0  0  2  0  0  0  0  0  0
  191.3260  176.6760  144.8790 C   0  0  0  0  0  0  0  0  0  0  0  0
  192.3830  176.1060  145.5960 C   0  0  0  0  0  3  0  0  0  0  0  0
  188.5650  175.9110  141.6150 C   0  0  0  0  0  2  0  0  0  0  0  0
  188.8680  174.1650  139.8960 C   0  0  0  0  0  1  0  0  0  0  0  0
  188.9660  174.4590  141.3870 C   0  0  1  0  0  3  0  0  0  0  0  0
  190.9190  171.3180  141.2410 C   0  0  1  0  0  3  0  0  0  0  0  0
  191.3300  173.7580  140.7740 C   0  0  0  0  0  2  0  0  0  0  0  0
  189.7310  173.3630  144.2750 C   0  0  0  0  0  1  0  0  0  0  0  0
  190.4420  170.0160  140.6320 C   0  0  0  0  0  1  0  0  0  0  0  0
  190.9210  172.4100  140.1720 C   0  0  0  0  0  2  0  0  0  0  0  0
  190.4520  173.0410  142.9790 C   0  0  2  0  0  3  0  0  0  0  0  0
  190.3880  174.1620  141.9190 C   0  0  2  0  0  3  0  0  0  0  0  0
  190.0100  171.6980  142.4070 C   0  0  0  0  0  2  0  0  0  0  0  0
  1  9  1  0  0  0  0
  2  5  1  1  0  0  0
  2  3  1  0  0  0  0
  3  7  1  0  0  0  0
  4 11  1  0  0  0  0
  5 14  2  0  0  0  0
  6  1  2  0  0  0  0
  7  4  2  0  0  0  0
  8 13  1  0  0  0  0
  8 12  1  0  0  0  0
 10 19  1  0  0  0  0
 12 16  1  0  0  0  0
 13 18  1  1  0  0  0
 13  2  1  0  0  0  0
 14  1  1  0  0  0  0
 15  4  1  0  0  0  0
 16 17  2  0  0  0  0
 16  5  1  0  0  0  0
 17  6  1  0  0  0  0
 18 10  1  0  0  0  0
 19  3  2  0  0  0  0
 19 20  1  0  0  0  0
 20 15  2  0  0  0  0
 21  8  1  0  0  0  0
 23 22  1  6  0  0  0
 23 21  1  0  0  0  0
 24 27  1  6  0  0  0
 24 31  1  0  0  0  0
 25 30  1  0  0  0  0
 28 25  1  0  0  0  0
 28 24  1  0  0  0  0
 29 26  1  1  0  0  0
 30 23  1  6  0  0  0
 30 29  1  0  0  0  0
 31 29  1  0  0  0  0
M  END
>  <MODEL>
4

>  <REMARK>
 VINA RESULT:      -8.1      2.241      4.380
  Name = 
  3 active torsions:
  status: ('A' for Active; 'I' for Inactive)
    1  A    between atoms: C_5  and  C_16
    2  A    between atoms: C_5  and  C_30
    3  A    between atoms: N_10  and  C_16
                            x       y       z     vdW  Elec       q    Type
                         _______ _______ _______ _____ _____    ______ ____

>  <TORSDO>
F 3

$$$$
=
 OpenBabel11112416493D

 31 35  0  0  1  0  0  0  0  0999 V2000
  184.8380  178.0490  146.8200 C   0  0  0  0  0  0  0  0  0  0  0  0
  187.0520  176.0110  144.4840 C   0  0  2  0  0  3  0  0  0  0  0  0
  186.8940  176.6430  143.1060 C   0  0  0  0  0  0  0  0  0  0  0  0
  185.5460  177.9240  141.5300 C   0  0  0  0  0  0  0  0  0  0  0  0
  186.6150  176.9230  145.6060 C   0  0  0  0  0  0  0  0  0  0  0  0
  185.7850  178.6690  147.6380 C   0  0  0  0  0  3  0  0  0  0  0  0
  185.7490  177.4020  142.8080 C   0  0  0  0  0  3  0  0  0  0  0  0
  189.3880  176.6030  145.0650 N   0  0  0  0  0  0  0  0  0  0  0  0
  183.5190  178.2950  147.0040 F   0  0  0  0  0  0  0  0  0  0  0  0
  189.0580  175.5700  142.2960 C   0  0  0  0  0  2  0  0  0  0  0  0
  184.4440  178.6660  141.2690 F   0  0  0  0  0  0  0  0  0  0  0  0
  189.0130  177.1590  146.3670 C   0  0  0  0  0  2  0  0  0  0  0  0
  188.4800  175.4830  144.7430 C   0  0  2  0  0  3  0  0  0  0  0  0
  185.2520  177.1750  145.8120 C   0  0  0  0  0  3  0  0  0  0  0  0
  186.4770  177.6790  140.5210 C   0  0  0  0  0  3  0  0  0  0  0  0
  187.5660  177.5440  146.4370 C   0  0  0  0  0  0  0  0  0  0  0  0
  187.1450  178.4070  147.4540 C   0  0  0  0  0  3  0  0  0  0  0  0
  188.9430  174.6750  143.5240 C   0  0  0  0  0  2  0  0  0  0  0  0
  187.8110  176.3660  142.0630 C   0  0  0  0  0  0  0  0  0  0  0  0
  187.6050  176.9030  140.7880 C   0  0  0  0  0  3  0  0  0  0  0  0
  190.7420  176.0920  145.2570 C   0  0  0  0  0  2  0  0  0  0  0  0
  191.1900  178.1150  143.9130 C   0  0  0  0  0  1  0  0  0  0  0  0
  191.6880  176.7130  144.2370 C   0  0  1  0  0  3  0  0  0  0  0  0
  193.9460  173.9050  145.0840 C   0  0  1  0  0  3  0  0  0  0  0  0
  194.0920  176.0420  143.7610 C   0  0  0  0  0  2  0  0  0  0  0  0
  192.6460  176.7910  147.2700 C   0  0  0  0  0  1  0  0  0  0  0  0
  193.5880  172.4370  145.0050 C   0  0  0  0  0  1  0  0  0  0  0  0
  193.8050  174.5380  143.7000 C   0  0  0  0  0  2  0  0  0  0  0  0
  193.3580  176.0900  146.1280 C   0  0  2  0  0  3  0  0  0  0  0  0
  193.1480  176.7470  144.7470 C   0  0  2  0  0  3  0  0  0  0  0  0
  193.0380  174.5980  146.0960 C   0  0  0  0  0  2  0  0  0  0  0  0
  1  9  1  0  0  0  0
  1  6  1  0  0  0  0
  2  3  1  6  0  0  0
  2 13  1  0  0  0  0
  2  5  1  0  0  0  0
  4  7  2  0  0  0  0
  5 14  1  0  0  0  0
  5 16  2  0  0  0  0
  7  3  1  0  0  0  0
  8 21  1  0  0  0  0
  8 12  1  0  0  0  0
 10 18  1  0  0  0  0
 11  4  1  0  0  0  0
 12 16  1  0  0  0  0
 13 18  1  6  0  0  0
 13  8  1  0  0  0  0
 14  1  2  0  0  0  0
 15 20  2  0  0  0  0
 15  4  1  0  0  0  0
 16 17  1  0  0  0  0
 17  6  2  0  0  0  0
 19 10  1  0  0  0  0
 19  3  2  0  0  0  0
 20 19  1  0  0  0  0
 23 22  1  1  0  0  0
 23 21  1  0  0  0  0
 24 27  1  6  0  0  0
 24 31  1  0  0  0  0
 25 30  1  0  0  0  0
 28 25  1  0  0  0  0
 28 24  1  0  0  0  0
 29 26  1  1  0  0  0
 30 23  1  6  0  0  0
 30 29  1  0  0  0  0
 31 29  1  0  0  0  0
M  END
>  <MODEL>
5

>  <REMARK>
 VINA RESULT:      -8.1      2.075      4.770
  Name = 
  3 active torsions:
  status: ('A' for Active; 'I' for Inactive)
    1  A    between atoms: C_5  and  C_16
    2  A    between atoms: C_5  and  C_30
    3  A    between atoms: N_10  and  C_16
                            x       y       z     vdW  Elec       q    Type
                         _______ _______ _______ _____ _____    ______ ____

>  <TORSDO>
F 3

$$$$
=
 OpenBabel11112416493D

 31 35  0  0  1  0  0  0  0  0999 V2000
  193.4050  170.8860  144.3930 C   0  0  0  0  0  0  0  0  0  0  0  0
  194.1400  174.3970  145.6740 C   0  0  2  0  0  3  0  0  0  0  0  0
  195.0690  175.0280  144.6430 C   0  0  0  0  0  0  0  0  0  0  0  0
  196.7540  174.7660  142.9010 C   0  0  0  0  0  0  0  0  0  0  0  0
  193.3950  173.1960  145.1400 C   0  0  0  0  0  0  0  0  0  0  0  0
  192.0470  170.9760  144.0820 C   0  0  0  0  0  3  0  0  0  0  0  0
  195.8390  174.2120  143.7970 C   0  0  0  0  0  3  0  0  0  0  0  0
  192.0510  175.6930  145.3570 N   0  0  0  0  0  0  0  0  0  0  0  0
  194.0730  169.7280  144.1780 F   0  0  0  0  0  0  0  0  0  0  0  0
  194.5050  177.3700  145.4760 C   0  0  0  0  0  2  0  0  0  0  0  0
  197.4740  173.9620  142.0840 F   0  0  0  0  0  0  0  0  0  0  0  0
  191.2260  174.4910  145.2180 C   0  0  0  0  0  2  0  0  0  0  0  0
  193.1560  175.4110  146.2970 C   0  0  2  0  0  3  0  0  0  0  0  0
  194.0750  171.9900  144.9250 C   0  0  0  0  0  3  0  0  0  0  0  0
  196.9290  176.1490  142.8500 C   0  0  0  0  0  3  0  0  0  0  0  0
  192.0240  173.2810  144.8330 C   0  0  0  0  0  0  0  0  0  0  0  0
  191.3560  172.1680  144.3140 C   0  0  0  0  0  3  0  0  0  0  0  0
  193.9280  176.6730  146.7020 C   0  0  0  0  0  2  0  0  0  0  0  0
  195.2850  176.4280  144.6120 C   0  0  0  0  0  0  0  0  0  0  0  0
  196.1960  176.9750  143.7030 C   0  0  0  0  0  3  0  0  0  0  0  0
  191.1580  176.6900  145.9400 C   0  0  0  0  0  2  0  0  0  0  0  0
  191.0660  177.5850  143.6410 C   0  0  0  0  0  1  0  0  0  0  0  0
  190.2320  177.2570  144.8720 C   0  0  1  0  0  3  0  0  0  0  0  0
  186.6690  177.9690  144.1680 C   0  0  1  0  0  3  0  0  0  0  0  0
  188.5040  176.5900  143.1330 C   0  0  0  0  0  2  0  0  0  0  0  0
  188.2720  175.8040  146.9140 C   0  0  0  0  0  1  0  0  0  0  0  0
  186.0280  179.3410  144.1870 C   0  0  0  0  0  1  0  0  0  0  0  0
  187.7870  177.9450  143.1270 C   0  0  0  0  0  2  0  0  0  0  0  0
  187.9110  176.2860  145.5210 C   0  0  2  0  0  3  0  0  0  0  0  0
  189.0860  176.2790  144.5210 C   0  0  2  0  0  3  0  0  0  0  0  0
  187.2090  177.6400  145.5570 C   0  0  0  0  0  2  0  0  0  0  0  0
  1 14  1  0  0  0  0
  2  3  1  6  0  0  0
  2 13  1  0  0  0  0
  4  7  1  0  0  0  0
  5  2  1  0  0  0  0
  6 17  1  0  0  0  0
  6  1  2  0  0  0  0
  7  3  2  0  0  0  0
  8 21  1  0  0  0  0
  8 13  1  0  0  0  0
  9  1  1  0  0  0  0
 10 18  1  0  0  0  0
 11  4  1  0  0  0  0
 12  8  1  0  0  0  0
 13 18  1  6  0  0  0
 14  5  2  0  0  0  0
 15  4  2  0  0  0  0
 15 20  1  0  0  0  0
 16  5  1  0  0  0  0
 16 12  1  0  0  0  0
 17 16  2  0  0  0  0
 19  3  1  0  0  0  0
 19 10  1  0  0  0  0
 20 19  2  0  0  0  0
 23 22  1  6  0  0  0
 23 21  1  0  0  0  0
 24 27  1  1  0  0  0
 24 31  1  0  0  0  0
 25 30  1  0  0  0  0
 28 25  1  0  0  0  0
 28 24  1  0  0  0  0
 29 31  1  0  0  0  0
 29 26  1  1  0  0  0
 30 23  1  1  0  0  0
 30 29  1  0  0  0  0
M  END
>  <MODEL>
6

>  <REMARK>
 VINA RESULT:      -7.8      4.083      8.053
  Name = 
  3 active torsions:
  status: ('A' for Active; 'I' for Inactive)
    1  A    between atoms: C_5  and  C_16
    2  A    between atoms: C_5  and  C_30
    3  A    between atoms: N_10  and  C_16
                            x       y       z     vdW  Elec       q    Type
                         _______ _______ _______ _____ _____    ______ ____

>  <TORSDO>
F 3

$$$$
=
 OpenBabel11112416493D

 31 35  0  0  1  0  0  0  0  0999 V2000
  185.8630  178.2790  140.8780 C   0  0  0  0  0  0  0  0  0  0  0  0
  188.2460  178.0530  143.8400 C   0  0  2  0  0  3  0  0  0  0  0  0
  187.3920  177.6220  145.0280 C   0  0  0  0  0  0  0  0  0  0  0  0
  185.2170  177.5420  146.1260 C   0  0  0  0  0  0  0  0  0  0  0  0
  187.5890  177.7740  142.5090 C   0  0  0  0  0  0  0  0  0  0  0  0
  186.3100  177.2290  140.0740 C   0  0  0  0  0  3  0  0  0  0  0  0
  186.0070  177.8560  145.0180 C   0  0  0  0  0  3  0  0  0  0  0  0
  189.6410  176.0420  143.4450 N   0  0  0  0  0  0  0  0  0  0  0  0
  184.8070  179.0320  140.4850 F   0  0  0  0  0  0  0  0  0  0  0  0
  189.4520  176.8360  146.3050 C   0  0  0  0  0  2  0  0  0  0  0  0
  183.8820  177.7610  146.0890 F   0  0  0  0  0  0  0  0  0  0  0  0
  189.3070  175.9860  142.0200 C   0  0  0  0  0  2  0  0  0  0  0  0
  189.6700  177.4550  143.8760 C   0  0  2  0  0  3  0  0  0  0  0  0
  186.5040  178.5540  142.0880 C   0  0  0  0  0  3  0  0  0  0  0  0
  185.8060  177.0080  147.2720 C   0  0  0  0  0  3  0  0  0  0  0  0
  188.0420  176.7210  141.6930 C   0  0  0  0  0  0  0  0  0  0  0  0
  187.4050  176.4600  140.4750 C   0  0  0  0  0  3  0  0  0  0  0  0
  190.2530  177.6350  145.2840 C   0  0  0  0  0  2  0  0  0  0  0  0
  187.9840  177.1170  146.2120 C   0  0  0  0  0  0  0  0  0  0  0  0
  187.1840  176.7960  147.3130 C   0  0  0  0  0  3  0  0  0  0  0  0
  190.9850  175.4790  143.5330 C   0  0  0  0  0  2  0  0  0  0  0  0
  189.5010  173.7120  144.4110 C   0  0  0  0  0  1  0  0  0  0  0  0
  190.9150  174.0110  143.9350 C   0  0  1  0  0  3  0  0  0  0  0  0
  193.6370  171.5080  143.7750 C   0  0  1  0  0  3  0  0  0  0  0  0
  191.1910  171.5980  143.1860 C   0  0  0  0  0  2  0  0  0  0  0  0
  193.0100  174.6330  141.6220 C   0  0  0  0  0  1  0  0  0  0  0  0
  194.6210  171.2090  144.8860 C   0  0  0  0  0  1  0  0  0  0  0  0
  192.2160  171.2370  144.2660 C   0  0  0  0  0  2  0  0  0  0  0  0
  192.7600  173.2780  142.2570 C   0  0  2  0  0  3  0  0  0  0  0  0
  191.3190  173.0730  142.7730 C   0  0  2  0  0  3  0  0  0  0  0  0
  193.7940  172.9600  143.3330 C   0  0  0  0  0  2  0  0  0  0  0  0
  1 14  1  0  0  0  0
  2  5  1  6  0  0  0
  2 13  1  0  0  0  0
  2  3  1  0  0  0  0
  3 19  1  0  0  0  0
  4 15  2  0  0  0  0
  6 17  1  0  0  0  0
  6  1  2  0  0  0  0
  7  3  2  0  0  0  0
  7  4  1  0  0  0  0
  8 21  1  0  0  0  0
  8 13  1  0  0  0  0
  9  1  1  0  0  0  0
 11  4  1  0  0  0  0
 12  8  1  0  0  0  0
 13 18  1  1  0  0  0
 14  5  2  0  0  0  0
 15 20  1  0  0  0  0
 16 12  1  0  0  0  0
 16  5  1  0  0  0  0
 17 16  2  0  0  0  0
 18 10  1  0  0  0  0
 19 10  1  0  0  0  0
 19 20  2  0  0  0  0
 21 23  1  0  0  0  0
 23 22  1  6  0  0  0
 24 28  1  0  0  0  0
 24 27  1  1  0  0  0
 25 28  1  0  0  0  0
 29 26  1  1  0  0  0
 29 30  1  0  0  0  0
 29 31  1  0  0  0  0
 30 25  1  0  0  0  0
 30 23  1  1  0  0  0
 31 24  1  0  0  0  0
M  END
>  <MODEL>
7

>  <REMARK>
 VINA RESULT:      -7.7      1.152      2.231
  Name = 
  3 active torsions:
  status: ('A' for Active; 'I' for Inactive)
    1  A    between atoms: C_5  and  C_16
    2  A    between atoms: C_5  and  C_30
    3  A    between atoms: N_10  and  C_16
                            x       y       z     vdW  Elec       q    Type
                         _______ _______ _______ _____ _____    ______ ____

>  <TORSDO>
F 3

$$$$
=
 OpenBabel11112416493D

 31 35  0  0  1  0  0  0  0  0999 V2000
  188.1840  175.1000  142.0410 C   0  0  0  0  0  0  0  0  0  0  0  0
  191.1920  176.4520  143.9470 C   0  0  2  0  0  3  0  0  0  0  0  0
  191.0160  175.9840  145.3870 C   0  0  0  0  0  0  0  0  0  0  0  0
  189.5400  175.2950  147.2010 C   0  0  0  0  0  0  0  0  0  0  0  0
  190.3580  175.6650  142.9640 C   0  0  0  0  0  0  0  0  0  0  0  0
  188.7820  174.1630  141.1950 C   0  0  0  0  0  3  0  0  0  0  0  0
  189.7370  175.6500  145.8660 C   0  0  0  0  0  3  0  0  0  0  0  0
  193.1370  175.1100  143.1970 N   0  0  0  0  0  0  0  0  0  0  0  0
  186.8420  175.2790  142.0110 F   0  0  0  0  0  0  0  0  0  0  0  0
  193.4890  176.3520  145.8770 C   0  0  0  0  0  2  0  0  0  0  0  0
  188.3020  174.9620  147.6370 F   0  0  0  0  0  0  0  0  0  0  0  0
  192.4510  174.6290  141.9970 C   0  0  0  0  0  2  0  0  0  0  0  0
  192.6710  176.4790  143.5010 C   0  0  2  0  0  3  0  0  0  0  0  0
  188.9700  175.8520  142.9180 C   0  0  0  0  0  3  0  0  0  0  0  0
  190.6170  175.2870  148.0860 C   0  0  0  0  0  3  0  0  0  0  0  0
  190.9580  174.7250  142.1050 C   0  0  0  0  0  0  0  0  0  0  0  0
  190.1680  173.9860  141.2200 C   0  0  0  0  0  3  0  0  0  0  0  0
  193.5080  177.1650  144.5880 C   0  0  0  0  0  2  0  0  0  0  0  0
  192.0940  176.0120  146.3050 C   0  0  0  0  0  0  0  0  0  0  0  0
  191.8890  175.6440  147.6380 C   0  0  0  0  0  3  0  0  0  0  0  0
  194.5490  175.1480  142.8270 C   0  0  0  0  0  2  0  0  0  0  0  0
  196.7750  174.1320  143.1580 C   0  0  0  0  0  1  0  0  0  0  0  0
  195.2890  173.9720  143.4510 C   0  0  1  0  0  3  0  0  0  0  0  0
  196.4120  171.3890  145.8520 C   0  0  1  0  0  3  0  0  0  0  0  0
  196.3540  173.9040  145.7570 C   0  0  0  0  0  2  0  0  0  0  0  0
  192.8590  172.4960  144.8790 C   0  0  0  0  0  1  0  0  0  0  0  0
  197.2360  170.1670  145.5050 C   0  0  0  0  0  1  0  0  0  0  0  0
  197.1910  172.6500  145.4840 C   0  0  0  0  0  2  0  0  0  0  0  0
  194.2770  172.5950  145.4090 C   0  0  2  0  0  3  0  0  0  0  0  0
  195.0320  173.8690  144.9730 C   0  0  2  0  0  3  0  0  0  0  0  0
  195.0800  171.3330  145.1080 C   0  0  0  0  0  2  0  0  0  0  0  0
  1 14  1  0  0  0  0
  2  5  1  6  0  0  0
  2  3  1  0  0  0  0
  3  7  2  0  0  0  0
  3 19  1  0  0  0  0
  4 11  1  0  0  0  0
  4 15  2  0  0  0  0
  6 17  1  0  0  0  0
  6  1  2  0  0  0  0
  7  4  1  0  0  0  0
  8 13  1  0  0  0  0
  9  1  1  0  0  0  0
 10 19  1  0  0  0  0
 12 16  1  0  0  0  0
 12  8  1  0  0  0  0
 13  2  1  0  0  0  0
 13 18  1  1  0  0  0
 14  5  2  0  0  0  0
 16  5  1  0  0  0  0
 17 16  2  0  0  0  0
 18 10  1  0  0  0  0
 19 20  2  0  0  0  0
 20 15  1  0  0  0  0
 21  8  1  0  0  0  0
 21 23  1  0  0  0  0
 23 22  1  1  0  0  0
 24 27  1  6  0  0  0
 28 25  1  0  0  0  0
 28 24  1  0  0  0  0
 29 26  1  6  0  0  0
 30 23  1  6  0  0  0
 30 29  1  0  0  0  0
 30 25  1  0  0  0  0
 31 29  1  0  0  0  0
 31 24  1  0  0  0  0
M  END
>  <MODEL>
8

>  <REMARK>
 VINA RESULT:      -7.7      3.189      4.750
  Name = 
  3 active torsions:
  status: ('A' for Active; 'I' for Inactive)
    1  A    between atoms: C_5  and  C_16
    2  A    between atoms: C_5  and  C_30
    3  A    between atoms: N_10  and  C_16
                            x       y       z     vdW  Elec       q    Type
                         _______ _______ _______ _____ _____    ______ ____

>  <TORSDO>
F 3

$$$$
=
 OpenBabel11112416493D

 31 35  0  0  1  0  0  0  0  0999 V2000
  185.5300  179.0520  143.3690 C   0  0  0  0  0  0  0  0  0  0  0  0
  188.8260  177.1810  143.7420 C   0  0  2  0  0  3  0  0  0  0  0  0
  188.6900  176.3500  145.0140 C   0  0  0  0  0  0  0  0  0  0  0  0
  187.6760  176.0260  147.2070 C   0  0  0  0  0  0  0  0  0  0  0  0
  187.4970  177.6390  143.1920 C   0  0  0  0  0  0  0  0  0  0  0  0
  184.9940  178.4560  142.2250 C   0  0  0  0  0  3  0  0  0  0  0  0
  187.7640  176.7250  146.0020 C   0  0  0  0  0  3  0  0  0  0  0  0
  188.8290  175.4390  141.9790 N   0  0  0  0  0  0  0  0  0  0  0  0
  184.8380  180.0210  144.0150 F   0  0  0  0  0  0  0  0  0  0  0  0
  190.5930  174.8170  144.2920 C   0  0  0  0  0  2  0  0  0  0  0  0
  186.7660  176.3950  148.1390 F   0  0  0  0  0  0  0  0  0  0  0  0
  187.7720  176.0980  141.2080 C   0  0  0  0  0  2  0  0  0  0  0  0
  189.6500  176.4710  142.6460 C   0  0  2  0  0  3  0  0  0  0  0  0
  186.7790  178.6490  143.8460 C   0  0  0  0  0  3  0  0  0  0  0  0
  188.5300  174.9510  147.4520 C   0  0  0  0  0  3  0  0  0  0  0  0
  186.9570  177.0460  142.0350 C   0  0  0  0  0  0  0  0  0  0  0  0
  185.7120  177.4630  141.5530 C   0  0  0  0  0  3  0  0  0  0  0  0
  190.9280  175.8990  143.2720 C   0  0  0  0  0  2  0  0  0  0  0  0
  189.5790  175.2830  145.2910 C   0  0  0  0  0  0  0  0  0  0  0  0
  189.4770  174.5820  146.4960 C   0  0  0  0  0  3  0  0  0  0  0  0
  189.6370  174.7440  140.9810 C   0  0  0  0  0  2  0  0  0  0  0  0
  188.2980  172.6750  141.1220 C   0  0  0  0  0  1  0  0  0  0  0  0
  189.6950  173.2550  141.2960 C   0  0  1  0  0  3  0  0  0  0  0  0
  192.2480  170.7440  142.2340 C   0  0  1  0  0  3  0  0  0  0  0  0
  190.4900  170.9950  140.4490 C   0  0  0  0  0  2  0  0  0  0  0  0
  192.6510  174.2010  140.5940 C   0  0  0  0  0  1  0  0  0  0  0  0
  192.5070  170.2390  143.6370 C   0  0  0  0  0  1  0  0  0  0  0  0
  190.8060  170.4320  141.8380 C   0  0  0  0  0  2  0  0  0  0  0  0
  192.1940  172.7660  140.7780 C   0  0  2  0  0  3  0  0  0  0  0  0
  190.7180  172.5150  140.4020 C   0  0  2  0  0  3  0  0  0  0  0  0
  192.5170  172.2460  142.1760 C   0  0  0  0  0  2  0  0  0  0  0  0
  1 14  1  0  0  0  0
  1  9  1  0  0  0  0
  2  5  1  6  0  0  0
  2  3  1  0  0  0  0
  3 19  2  0  0  0  0
  3  7  1  0  0  0  0
  4 15  1  0  0  0  0
  4 11  1  0  0  0  0
  5 14  2  0  0  0  0
  6  1  2  0  0  0  0
  7  4  2  0  0  0  0
  8 13  1  0  0  0  0
 10 19  1  0  0  0  0
 12  8  1  0  0  0  0
 12 16  1  0  0  0  0
 13 18  1  1  0  0  0
 13  2  1  0  0  0  0
 16  5  1  0  0  0  0
 17 16  2  0  0  0  0
 17  6  1  0  0  0  0
 18 10  1  0  0  0  0
 19 20  1  0  0  0  0
 20 15  2  0  0  0  0
 21 23  1  0  0  0  0
 21  8  1  0  0  0  0
 23 22  1  6  0  0  0
 24 27  1  1  0  0  0
 25 28  1  0  0  0  0
 28 24  1  0  0  0  0
 29 26  1  1  0  0  0
 29 31  1  0  0  0  0
 30 25  1  0  0  0  0
 30 29  1  0  0  0  0
 30 23  1  1  0  0  0
 31 24  1  0  0  0  0
M  END
>  <MODEL>
9

>  <REMARK>
 VINA RESULT:      -7.6      1.783      3.335
  Name = 
  3 active torsions:
  status: ('A' for Active; 'I' for Inactive)
    1  A    between atoms: C_5  and  C_16
    2  A    between atoms: C_5  and  C_30
    3  A    between atoms: N_10  and  C_16
                            x       y       z     vdW  Elec       q    Type
                         _______ _______ _______ _____ _____    ______ ____

>  <TORSDO>
F 3

$$$$
