=
 OpenBabel11112417413D

 28 32  0  0  1  0  0  0  0  0999 V2000
  185.9060  176.9080  143.7310 C   0  0  0  0  0  0  0  0  0  0  0  0
  187.8800  173.9020  142.2280 O   0  0  0  0  0  0  0  0  0  0  0  0
  190.4560  175.8690  147.6510 C   0  0  0  0  0  1  0  0  0  0  0  0
  185.8500  178.5760  141.5150 C   0  0  0  0  0  3  0  0  0  0  0  0
  191.1710  176.5370  145.3650 C   0  0  0  0  0  0  0  0  0  0  0  0
  185.9480  176.1460  144.8970 O   0  0  0  0  0  0  0  0  0  0  0  0
  188.0440  175.2440  140.1790 O   0  0  0  0  0  0  0  0  0  0  0  0
  188.7700  174.8050  141.4180 S   0  0  0  0  0  0  0  0  0  0  0  0
  190.9310  173.6970  142.6180 C   0  0  0  0  0  0  0  0  0  0  0  0
  189.2550  176.2090  142.3340 N   0  0  2  0  0  0  0  0  0  0  0  0
  186.4290  179.0160  146.0530 O   0  0  0  0  0  0  0  0  0  0  0  0
  189.1340  177.3460  144.4400 C   0  0  2  0  0  3  0  0  0  0  0  0
  190.8930  174.7340  143.3810 N   0  0  0  0  0  0  0  0  0  0  0  0
  190.5080  173.7960  140.8800 S   0  0  0  0  0  0  0  0  0  0  0  0
  186.7550  177.8750  146.3380 C   0  0  0  0  0  0  0  0  0  0  0  0
  187.0820  177.1150  143.0040 C   0  0  0  0  0  0  0  0  0  0  0  0
  190.2240  176.3930  146.2700 C   0  0  0  0  0  0  0  0  0  0  0  0
  191.1600  172.3580  143.2250 C   0  0  0  0  0  1  0  0  0  0  0  0
  188.1470  177.6080  146.8080 C   0  0  0  0  0  2  0  0  0  0  0  0
  187.0490  177.9720  141.8960 C   0  0  0  0  0  3  0  0  0  0  0  0
  184.7470  177.5120  143.3460 N   0  0  0  0  0  0  0  0  0  0  0  0
  184.6950  178.3270  142.2590 C   0  0  0  0  0  3  0  0  0  0  0  0
  185.7650  176.7610  146.1640 C   0  0  0  0  0  2  0  0  0  0  0  0
  190.6110  177.0910  144.0950 C   0  0  2  0  0  3  0  0  0  0  0  0
  188.9670  176.8910  145.8270 N   0  0  0  0  0  0  0  0  0  0  0  0
  190.5970  176.0900  142.9230 C   0  0  2  0  0  3  0  0  0  0  0  0
  192.6090  176.1920  145.5680 C   0  0  0  0  0  1  0  0  0  0  0  0
  188.3610  176.4630  143.4580 C   0  0  1  0  0  3  0  0  0  0  0  0
  1  6  1  0  0  0  0
  4 20  1  0  0  0  0
  4 22  2  0  0  0  0
  5 27  1  0  0  0  0
  5 17  2  0  0  0  0
  6 23  1  0  0  0  0
  7  8  2  0  0  0  0
  8  2  2  0  0  0  0
  9 18  1  0  0  0  0
  9 13  2  0  0  0  0
 10  8  1  1  0  0  0
 10 26  1  0  0  0  0
 10 28  1  0  0  0  0
 11 15  2  0  0  0  0
 12 25  1  1  0  0  0
 14  8  1  0  0  0  0
 14  9  1  0  0  0  0
 15 19  1  0  0  0  0
 16  1  1  0  0  0  0
 17  3  1  0  0  0  0
 20 16  2  0  0  0  0
 21  1  2  0  0  0  0
 22 21  1  0  0  0  0
 23 15  1  0  0  0  0
 24 12  1  0  0  0  0
 24  5  1  1  0  0  0
 25 17  1  0  0  0  0
 25 19  1  0  0  0  0
 26 13  1  1  0  0  0
 26 24  1  0  0  0  0
 28 16  1  6  0  0  0
 28 12  1  0  0  0  0
M  END
>  <MODEL>
1

>  <REMARK>
 VINA RESULT:      -8.1      0.000      0.000
  Name = 
  0 active torsions:
  status: ('A' for Active; 'I' for Inactive)
                            x       y       z     vdW  Elec       q    Type
                         _______ _______ _______ _____ _____    ______ ____

>  <TORSDO>
F 0

$$$$
=
 OpenBabel11112417413D

 28 32  0  0  1  0  0  0  0  0999 V2000
  186.3140  178.6800  145.5770 C   0  0  0  0  0  0  0  0  0  0  0  0
  190.1430  178.0080  145.2890 O   0  0  0  0  0  0  0  0  0  0  0  0
  187.2410  177.2280  139.7310 C   0  0  0  0  0  1  0  0  0  0  0  0
  185.7160  177.0230  147.7200 C   0  0  0  0  0  3  0  0  0  0  0  0
  187.7900  175.4310  141.3580 C   0  0  0  0  0  0  0  0  0  0  0  0
  186.5340  179.4870  144.4620 O   0  0  0  0  0  0  0  0  0  0  0  0
  189.8350  176.4060  147.1230 O   0  0  0  0  0  0  0  0  0  0  0  0
  189.9810  176.5530  145.6350 S   0  0  0  0  0  0  0  0  0  0  0  0
  191.2040  175.8970  143.3090 C   0  0  0  0  0  0  0  0  0  0  0  0
  188.5880  175.8620  144.8440 N   0  0  2  0  0  0  0  0  0  0  0  0
  183.7890  178.1810  143.7110 O   0  0  0  0  0  0  0  0  0  0  0  0
  186.7600  176.2470  143.3420 C   0  0  2  0  0  3  0  0  0  0  0  0
  190.0070  175.7280  142.8630 N   0  0  0  0  0  0  0  0  0  0  0  0
  191.6440  175.4790  144.9940 S   0  0  0  0  0  0  0  0  0  0  0  0
  184.7690  178.5970  143.1160 C   0  0  0  0  0  0  0  0  0  0  0  0
  186.8160  177.3750  145.5900 C   0  0  0  0  0  0  0  0  0  0  0  0
  187.2440  176.5990  141.0870 C   0  0  0  0  0  0  0  0  0  0  0  0
  192.1980  176.6140  142.4640 C   0  0  0  0  0  1  0  0  0  0  0  0
  185.2900  177.8360  141.9420 C   0  0  0  0  0  2  0  0  0  0  0  0
  186.4950  176.5390  146.6680 C   0  0  0  0  0  3  0  0  0  0  0  0
  185.5510  179.1310  146.6110 N   0  0  0  0  0  0  0  0  0  0  0  0
  185.2520  178.3390  147.6750 C   0  0  0  0  0  3  0  0  0  0  0  0
  185.4560  179.8370  143.6060 C   0  0  0  0  0  2  0  0  0  0  0  0
  187.6130  175.0870  142.8020 C   0  0  2  0  0  3  0  0  0  0  0  0
  186.5610  177.1540  142.2040 N   0  0  0  0  0  0  0  0  0  0  0  0
  188.9190  175.1140  143.6210 C   0  0  2  0  0  3  0  0  0  0  0  0
  188.4960  174.5650  140.3700 C   0  0  0  0  0  1  0  0  0  0  0  0
  187.6340  176.8820  144.4250 C   0  0  1  0  0  3  0  0  0  0  0  0
  1 16  1  0  0  0  0
  1 21  2  0  0  0  0
  2  8  2  0  0  0  0
  3 17  1  0  0  0  0
  6  1  1  0  0  0  0
  8  7  2  0  0  0  0
  9 14  1  0  0  0  0
 10  8  1  6  0  0  0
 12 25  1  6  0  0  0
 12 28  1  0  0  0  0
 13  9  2  0  0  0  0
 14  8  1  0  0  0  0
 15 23  1  0  0  0  0
 15 11  2  0  0  0  0
 16 20  2  0  0  0  0
 17  5  2  0  0  0  0
 17 25  1  0  0  0  0
 18  9  1  0  0  0  0
 19 25  1  0  0  0  0
 19 15  1  0  0  0  0
 20  4  1  0  0  0  0
 21 22  1  0  0  0  0
 22  4  2  0  0  0  0
 23  6  1  0  0  0  0
 24  5  1  6  0  0  0
 24 12  1  0  0  0  0
 24 26  1  0  0  0  0
 26 13  1  6  0  0  0
 26 10  1  0  0  0  0
 27  5  1  0  0  0  0
 28 10  1  0  0  0  0
 28 16  1  1  0  0  0
M  END
>  <MODEL>
2

>  <REMARK>
 VINA RESULT:      -7.9      2.742      4.652
  Name = 
  0 active torsions:
  status: ('A' for Active; 'I' for Inactive)
                            x       y       z     vdW  Elec       q    Type
                         _______ _______ _______ _____ _____    ______ ____

>  <TORSDO>
F 0

$$$$
=
 OpenBabel11112417413D

 28 32  0  0  1  0  0  0  0  0999 V2000
  191.1680  176.0370  142.7760 C   0  0  0  0  0  0  0  0  0  0  0  0
  188.1850  178.3510  141.8050 O   0  0  0  0  0  0  0  0  0  0  0  0
  189.2250  178.4250  148.0360 C   0  0  0  0  0  1  0  0  0  0  0  0
  190.3680  173.7000  141.5120 C   0  0  0  0  0  3  0  0  0  0  0  0
  187.5620  177.0090  146.8480 C   0  0  0  0  0  0  0  0  0  0  0  0
  191.6000  177.1580  143.4820 O   0  0  0  0  0  0  0  0  0  0  0  0
  187.2290  176.3810  140.6960 O   0  0  0  0  0  0  0  0  0  0  0  0
  187.1880  177.2320  141.9330 S   0  0  0  0  0  0  0  0  0  0  0  0
  185.8080  178.7110  143.7330 C   0  0  0  0  0  0  0  0  0  0  0  0
  187.5200  176.2400  143.3300 N   0  0  2  0  0  0  0  0  0  0  0  0
  192.3300  174.8760  145.4990 O   0  0  0  0  0  0  0  0  0  0  0  0
  188.9270  175.9070  145.2420 C   0  0  2  0  0  3  0  0  0  0  0  0
  186.4280  178.0040  144.6140 N   0  0  0  0  0  0  0  0  0  0  0  0
  185.2730  178.0080  142.1750 S   0  0  0  0  0  0  0  0  0  0  0  0
  191.9960  176.0480  145.5630 C   0  0  0  0  0  0  0  0  0  0  0  0
  189.8460  175.6020  142.9200 C   0  0  0  0  0  0  0  0  0  0  0  0
  188.7960  177.4500  146.9880 C   0  0  0  0  0  0  0  0  0  0  0  0
  185.6850  180.1800  143.9370 C   0  0  0  0  0  1  0  0  0  0  0  0
  191.0320  176.4770  146.6180 C   0  0  0  0  0  2  0  0  0  0  0  0
  189.4550  174.4110  142.2920 C   0  0  0  0  0  3  0  0  0  0  0  0
  192.0450  175.3240  142.0150 N   0  0  0  0  0  0  0  0  0  0  0  0
  191.6720  174.1810  141.3800 C   0  0  0  0  0  3  0  0  0  0  0  0
  192.5250  177.0210  144.5510 C   0  0  0  0  0  2  0  0  0  0  0  0
  187.4690  176.0420  145.7130 C   0  0  2  0  0  3  0  0  0  0  0  0
  189.7050  176.8160  146.0960 N   0  0  0  0  0  0  0  0  0  0  0  0
  186.6860  176.5710  144.4960 C   0  0  2  0  0  3  0  0  0  0  0  0
  186.4060  177.4180  147.6980 C   0  0  0  0  0  1  0  0  0  0  0  0
  188.8970  176.3850  143.7880 C   0  0  1  0  0  3  0  0  0  0  0  0
  1 16  1  0  0  0  0
  1  6  1  0  0  0  0
  2  8  2  0  0  0  0
  4 20  1  0  0  0  0
  5 17  2  0  0  0  0
  5 27  1  0  0  0  0
  6 23  1  0  0  0  0
  7  8  2  0  0  0  0
  8 14  1  0  0  0  0
  9 18  1  0  0  0  0
  9 13  2  0  0  0  0
 10  8  1  6  0  0  0
 10 28  1  0  0  0  0
 10 26  1  0  0  0  0
 11 15  2  0  0  0  0
 12 24  1  0  0  0  0
 12 25  1  1  0  0  0
 14  9  1  0  0  0  0
 15 19  1  0  0  0  0
 17  3  1  0  0  0  0
 20 16  2  0  0  0  0
 21  1  2  0  0  0  0
 22  4  2  0  0  0  0
 22 21  1  0  0  0  0
 23 15  1  0  0  0  0
 24  5  1  1  0  0  0
 25 19  1  0  0  0  0
 25 17  1  0  0  0  0
 26 13  1  1  0  0  0
 26 24  1  0  0  0  0
 28 16  1  6  0  0  0
 28 12  1  0  0  0  0
M  END
>  <MODEL>
3

>  <REMARK>
 VINA RESULT:      -7.9      2.334      5.246
  Name = 
  0 active torsions:
  status: ('A' for Active; 'I' for Inactive)
                            x       y       z     vdW  Elec       q    Type
                         _______ _______ _______ _____ _____    ______ ____

>  <TORSDO>
F 0

$$$$
=
 OpenBabel11112417413D

 28 32  0  0  1  0  0  0  0  0999 V2000
  192.4840  174.4200  145.2300 C   0  0  0  0  0  0  0  0  0  0  0  0
  189.2340  175.4930  147.0960 O   0  0  0  0  0  0  0  0  0  0  0  0
  188.2180  174.8310  140.8960 C   0  0  0  0  0  1  0  0  0  0  0  0
  194.2190  176.3700  146.1700 C   0  0  0  0  0  3  0  0  0  0  0  0
  188.7250  176.9600  142.0750 C   0  0  0  0  0  0  0  0  0  0  0  0
  191.6530  173.4490  144.6740 O   0  0  0  0  0  0  0  0  0  0  0  0
  190.5530  177.3660  147.9790 O   0  0  0  0  0  0  0  0  0  0  0  0
  189.5480  176.9560  146.9410 S   0  0  0  0  0  0  0  0  0  0  0  0
  187.1660  177.3010  145.6980 C   0  0  0  0  0  0  0  0  0  0  0  0
  190.1790  177.3060  145.3520 N   0  0  2  0  0  0  0  0  0  0  0  0
  193.3820  174.2380  142.1850 O   0  0  0  0  0  0  0  0  0  0  0  0
  190.7500  176.4180  143.2000 C   0  0  2  0  0  3  0  0  0  0  0  0
  187.8550  177.2330  144.6120 N   0  0  0  0  0  0  0  0  0  0  0  0
  187.8150  178.0850  147.1730 S   0  0  0  0  0  0  0  0  0  0  0  0
  192.2470  173.8400  142.3910 C   0  0  0  0  0  0  0  0  0  0  0  0
  192.0690  175.7560  145.2370 C   0  0  0  0  0  0  0  0  0  0  0  0
  189.0180  175.7030  141.8090 C   0  0  0  0  0  0  0  0  0  0  0  0
  185.8760  176.5640  145.7870 C   0  0  0  0  0  1  0  0  0  0  0  0
  191.1150  174.4210  141.6100 C   0  0  0  0  0  2  0  0  0  0  0  0
  192.9580  176.7370  145.6980 C   0  0  0  0  0  3  0  0  0  0  0  0
  193.7210  174.0850  145.6890 N   0  0  0  0  0  0  0  0  0  0  0  0
  194.5850  175.0230  146.1620 C   0  0  0  0  0  3  0  0  0  0  0  0
  192.0090  172.8110  143.4560 C   0  0  0  0  0  2  0  0  0  0  0  0
  189.7250  177.5500  143.0160 C   0  0  2  0  0  3  0  0  0  0  0  0
  190.2430  175.2920  142.4040 N   0  0  0  0  0  0  0  0  0  0  0  0
  189.1700  177.8410  144.4250 C   0  0  2  0  0  3  0  0  0  0  0  0
  187.5540  177.7020  141.5230 C   0  0  0  0  0  1  0  0  0  0  0  0
  190.7090  176.1140  144.6990 C   0  0  1  0  0  3  0  0  0  0  0  0
  1 16  1  0  0  0  0
  1 21  2  0  0  0  0
  3 17  1  0  0  0  0
  6  1  1  0  0  0  0
  8  2  2  0  0  0  0
  8 14  1  0  0  0  0
  8  7  2  0  0  0  0
  9 18  1  0  0  0  0
  9 14  1  0  0  0  0
 10  8  1  1  0  0  0
 11 15  2  0  0  0  0
 12 25  1  6  0  0  0
 12 28  1  0  0  0  0
 13  9  2  0  0  0  0
 15 23  1  0  0  0  0
 16 20  2  0  0  0  0
 17  5  2  0  0  0  0
 17 25  1  0  0  0  0
 19 15  1  0  0  0  0
 19 25  1  0  0  0  0
 20  4  1  0  0  0  0
 21 22  1  0  0  0  0
 22  4  2  0  0  0  0
 23  6  1  0  0  0  0
 24  5  1  6  0  0  0
 24 12  1  0  0  0  0
 24 26  1  0  0  0  0
 26 13  1  6  0  0  0
 26 10  1  0  0  0  0
 27  5  1  0  0  0  0
 28 16  1  1  0  0  0
 28 10  1  0  0  0  0
M  END
>  <MODEL>
4

>  <REMARK>
 VINA RESULT:      -7.5      2.893      6.651
  Name = 
  0 active torsions:
  status: ('A' for Active; 'I' for Inactive)
                            x       y       z     vdW  Elec       q    Type
                         _______ _______ _______ _____ _____    ______ ____

>  <TORSDO>
F 0

$$$$
=
 OpenBabel11112417413D

 28 32  0  0  1  0  0  0  0  0999 V2000
  188.9230  175.5580  146.2510 C   0  0  0  0  0  0  0  0  0  0  0  0
  189.4670  173.0830  143.2880 O   0  0  0  0  0  0  0  0  0  0  0  0
  194.9700  175.0620  145.6800 C   0  0  0  0  0  1  0  0  0  0  0  0
  187.1900  177.3530  145.0370 C   0  0  0  0  0  3  0  0  0  0  0  0
  193.8050  176.0230  143.7050 C   0  0  0  0  0  0  0  0  0  0  0  0
  189.8340  174.7290  146.9010 O   0  0  0  0  0  0  0  0  0  0  0  0
  188.0320  174.5860  141.9820 O   0  0  0  0  0  0  0  0  0  0  0  0
  189.4520  174.1920  142.2720 S   0  0  0  0  0  0  0  0  0  0  0  0
  191.9010  173.4050  141.4240 C   0  0  0  0  0  0  0  0  0  0  0  0
  190.3370  175.5860  142.8370 N   0  0  2  0  0  0  0  0  0  0  0  0
  190.7770  177.5410  147.9040 O   0  0  0  0  0  0  0  0  0  0  0  0
  191.6590  176.5180  144.6050 C   0  0  2  0  0  3  0  0  0  0  0  0
  192.3380  174.3570  142.1750 N   0  0  0  0  0  0  0  0  0  0  0  0
  190.3670  173.5590  140.5130 S   0  0  0  0  0  0  0  0  0  0  0  0
  191.2920  176.4590  147.6720 C   0  0  0  0  0  0  0  0  0  0  0  0
  189.2180  176.0290  144.9670 C   0  0  0  0  0  0  0  0  0  0  0  0
  193.7910  175.6400  144.9660 C   0  0  0  0  0  0  0  0  0  0  0  0
  192.5920  172.0870  141.4480 C   0  0  0  0  0  1  0  0  0  0  0  0
  192.6220  176.4130  146.9950 C   0  0  0  0  0  2  0  0  0  0  0  0
  188.3470  176.9490  144.3690 C   0  0  0  0  0  3  0  0  0  0  0  0
  187.7910  175.9690  146.8880 N   0  0  0  0  0  0  0  0  0  0  0  0
  186.9240  176.8420  146.3090 C   0  0  0  0  0  3  0  0  0  0  0  0
  190.5570  175.2010  148.0280 C   0  0  0  0  0  2  0  0  0  0  0  0
  192.4710  176.5610  143.3000 C   0  0  2  0  0  3  0  0  0  0  0  0
  192.5580  175.9350  145.6110 N   0  0  0  0  0  0  0  0  0  0  0  0
  191.7060  175.6670  142.3040 C   0  0  2  0  0  3  0  0  0  0  0  0
  194.9830  175.9290  142.7950 C   0  0  0  0  0  1  0  0  0  0  0  0
  190.4870  175.5870  144.2870 C   0  0  1  0  0  3  0  0  0  0  0  0
  1 21  2  0  0  0  0
  1  6  1  0  0  0  0
  4 22  2  0  0  0  0
  5 17  2  0  0  0  0
  6 23  1  0  0  0  0
  7  8  2  0  0  0  0
  8  2  2  0  0  0  0
  9 18  1  0  0  0  0
  9 13  2  0  0  0  0
 10  8  1  6  0  0  0
 10 28  1  0  0  0  0
 12 25  1  1  0  0  0
 14  9  1  0  0  0  0
 14  8  1  0  0  0  0
 15 11  2  0  0  0  0
 15 23  1  0  0  0  0
 16  1  1  0  0  0  0
 17 25  1  0  0  0  0
 17  3  1  0  0  0  0
 19 15  1  0  0  0  0
 20 16  2  0  0  0  0
 20  4  1  0  0  0  0
 22 21  1  0  0  0  0
 24  5  1  1  0  0  0
 24 12  1  0  0  0  0
 25 19  1  0  0  0  0
 26 13  1  1  0  0  0
 26 10  1  0  0  0  0
 26 24  1  0  0  0  0
 27  5  1  0  0  0  0
 28 12  1  0  0  0  0
 28 16  1  1  0  0  0
M  END
>  <MODEL>
5

>  <REMARK>
 VINA RESULT:      -7.5      2.285      3.479
  Name = 
  0 active torsions:
  status: ('A' for Active; 'I' for Inactive)
                            x       y       z     vdW  Elec       q    Type
                         _______ _______ _______ _____ _____    ______ ____

>  <TORSDO>
F 0

$$$$
=
 OpenBabel11112417413D

 28 32  0  0  1  0  0  0  0  0999 V2000
  188.4030  177.4580  144.3700 C   0  0  0  0  0  0  0  0  0  0  0  0
  192.2310  177.1660  145.0460 O   0  0  0  0  0  0  0  0  0  0  0  0
  190.5200  173.7910  139.9860 C   0  0  0  0  0  1  0  0  0  0  0  0
  187.4400  176.8040  146.8880 C   0  0  0  0  0  3  0  0  0  0  0  0
  190.7860  172.9230  142.3010 C   0  0  0  0  0  0  0  0  0  0  0  0
  188.8160  177.7380  143.0690 O   0  0  0  0  0  0  0  0  0  0  0  0
  191.6120  176.4630  147.3150 O   0  0  0  0  0  0  0  0  0  0  0  0
  192.0470  175.9850  145.9600 S   0  0  0  0  0  0  0  0  0  0  0  0
  193.7280  174.5510  144.3920 C   0  0  0  0  0  0  0  0  0  0  0  0
  190.8610  174.8710  145.3290 N   0  0  2  0  0  0  0  0  0  0  0  0
  186.3160  175.9360  142.5170 O   0  0  0  0  0  0  0  0  0  0  0  0
  189.3580  174.3770  143.5280 C   0  0  2  0  0  3  0  0  0  0  0  0
  192.6490  174.0760  143.8720 N   0  0  0  0  0  0  0  0  0  0  0  0
  193.8360  174.9360  146.1380 S   0  0  0  0  0  0  0  0  0  0  0  0
  187.3830  176.1710  141.9720 C   0  0  0  0  0  0  0  0  0  0  0  0
  188.9310  176.3460  145.0340 C   0  0  0  0  0  0  0  0  0  0  0  0
  190.2710  173.7970  141.4600 C   0  0  0  0  0  0  0  0  0  0  0  0
  194.8480  174.9530  143.4980 C   0  0  0  0  0  1  0  0  0  0  0  0
  188.1490  175.0490  141.3520 C   0  0  0  0  0  2  0  0  0  0  0  0
  188.4270  176.0120  146.2980 C   0  0  0  0  0  3  0  0  0  0  0  0
  187.4360  178.2140  144.9610 N   0  0  0  0  0  0  0  0  0  0  0  0
  186.9550  177.9160  146.1970 C   0  0  0  0  0  3  0  0  0  0  0  0
  187.9210  177.5700  141.9790 C   0  0  0  0  0  2  0  0  0  0  0  0
  190.3360  173.2020  143.6980 C   0  0  2  0  0  3  0  0  0  0  0  0
  189.3620  174.6910  142.0930 N   0  0  0  0  0  0  0  0  0  0  0  0
  191.4510  173.7200  144.6280 C   0  0  2  0  0  3  0  0  0  0  0  0
  191.7000  171.8070  141.9210 C   0  0  0  0  0  1  0  0  0  0  0  0
  189.9800  175.5050  144.3550 C   0  0  1  0  0  3  0  0  0  0  0  0
  1 21  2  0  0  0  0
  1 16  1  0  0  0  0
  2  8  2  0  0  0  0
  3 17  1  0  0  0  0
  6  1  1  0  0  0  0
  8 14  1  0  0  0  0
  8  7  2  0  0  0  0
  9 14  1  0  0  0  0
 10  8  1  6  0  0  0
 12 25  1  6  0  0  0
 12 24  1  0  0  0  0
 12 28  1  0  0  0  0
 13  9  2  0  0  0  0
 15 23  1  0  0  0  0
 15 11  2  0  0  0  0
 16 20  2  0  0  0  0
 17 25  1  0  0  0  0
 17  5  2  0  0  0  0
 18  9  1  0  0  0  0
 19 15  1  0  0  0  0
 19 25  1  0  0  0  0
 20  4  1  0  0  0  0
 21 22  1  0  0  0  0
 22  4  2  0  0  0  0
 23  6  1  0  0  0  0
 24  5  1  6  0  0  0
 24 26  1  0  0  0  0
 26 13  1  6  0  0  0
 26 10  1  0  0  0  0
 27  5  1  0  0  0  0
 28 16  1  1  0  0  0
 28 10  1  0  0  0  0
M  END
>  <MODEL>
6

>  <REMARK>
 VINA RESULT:      -7.5      2.901      4.835
  Name = 
  0 active torsions:
  status: ('A' for Active; 'I' for Inactive)
                            x       y       z     vdW  Elec       q    Type
                         _______ _______ _______ _____ _____    ______ ____

>  <TORSDO>
F 0

$$$$
=
 OpenBabel11112417413D

 28 32  0  0  1  0  0  0  0  0999 V2000
  189.1030  176.9200  144.3540 C   0  0  0  0  0  0  0  0  0  0  0  0
  192.8150  175.7700  144.6620 O   0  0  0  0  0  0  0  0  0  0  0  0
  190.0960  173.4160  139.4670 C   0  0  0  0  0  1  0  0  0  0  0  0
  188.1870  176.1960  146.8710 C   0  0  0  0  0  3  0  0  0  0  0  0
  190.3200  172.2550  141.6540 C   0  0  0  0  0  0  0  0  0  0  0  0
  189.4810  177.2540  143.0550 O   0  0  0  0  0  0  0  0  0  0  0  0
  192.2080  174.9580  146.8970 O   0  0  0  0  0  0  0  0  0  0  0  0
  192.4420  174.5570  145.4690 S   0  0  0  0  0  0  0  0  0  0  0  0
  193.6710  172.9950  143.6290 C   0  0  0  0  0  0  0  0  0  0  0  0
  191.0060  173.7900  144.8390 N   0  0  2  0  0  0  0  0  0  0  0  0
  186.6230  176.0800  142.5510 O   0  0  0  0  0  0  0  0  0  0  0  0
  189.3190  173.8230  143.1370 C   0  0  2  0  0  3  0  0  0  0  0  0
  192.4850  172.8140  143.1610 N   0  0  0  0  0  0  0  0  0  0  0  0
  193.9730  173.1490  145.3880 S   0  0  0  0  0  0  0  0  0  0  0  0
  187.6770  176.1500  141.9410 C   0  0  0  0  0  0  0  0  0  0  0  0
  189.4220  175.6550  144.8580 C   0  0  0  0  0  0  0  0  0  0  0  0
  189.9500  173.3060  140.9510 C   0  0  0  0  0  0  0  0  0  0  0  0
  194.7910  173.2560  142.6840 C   0  0  0  0  0  1  0  0  0  0  0  0
  188.1440  174.9730  141.1500 C   0  0  0  0  0  2  0  0  0  0  0  0
  188.9410  175.2910  146.1230 C   0  0  0  0  0  3  0  0  0  0  0  0
  188.3600  177.7860  145.0980 N   0  0  0  0  0  0  0  0  0  0  0  0
  187.9080  177.4550  146.3370 C   0  0  0  0  0  3  0  0  0  0  0  0
  188.5020  177.3990  142.0370 C   0  0  0  0  0  2  0  0  0  0  0  0
  190.0320  172.4610  143.1060 C   0  0  2  0  0  3  0  0  0  0  0  0
  189.2970  174.2900  141.7440 N   0  0  0  0  0  0  0  0  0  0  0  0
  191.2900  172.6290  143.9810 C   0  0  2  0  0  3  0  0  0  0  0  0
  190.9480  171.0250  141.0900 C   0  0  0  0  0  1  0  0  0  0  0  0
  190.2200  174.6980  144.0120 C   0  0  1  0  0  3  0  0  0  0  0  0
  1 16  1  0  0  0  0
  1 21  2  0  0  0  0
  2  8  2  0  0  0  0
  3 17  1  0  0  0  0
  6  1  1  0  0  0  0
  8  7  2  0  0  0  0
  9 14  1  0  0  0  0
 10  8  1  6  0  0  0
 12 25  1  6  0  0  0
 12 28  1  0  0  0  0
 13  9  2  0  0  0  0
 14  8  1  0  0  0  0
 15 23  1  0  0  0  0
 15 11  2  0  0  0  0
 16 20  2  0  0  0  0
 17  5  2  0  0  0  0
 17 25  1  0  0  0  0
 18  9  1  0  0  0  0
 19 25  1  0  0  0  0
 19 15  1  0  0  0  0
 20  4  1  0  0  0  0
 21 22  1  0  0  0  0
 22  4  2  0  0  0  0
 23  6  1  0  0  0  0
 24  5  1  6  0  0  0
 24 12  1  0  0  0  0
 24 26  1  0  0  0  0
 26 13  1  6  0  0  0
 26 10  1  0  0  0  0
 27  5  1  0  0  0  0
 28 10  1  0  0  0  0
 28 16  1  1  0  0  0
M  END
>  <MODEL>
7

>  <REMARK>
 VINA RESULT:      -7.2      2.948      5.131
  Name = 
  0 active torsions:
  status: ('A' for Active; 'I' for Inactive)
                            x       y       z     vdW  Elec       q    Type
                         _______ _______ _______ _____ _____    ______ ____

>  <TORSDO>
F 0

$$$$
=
 OpenBabel11112417413D

 28 32  0  0  1  0  0  0  0  0999 V2000
  194.6940  174.0970  143.2420 C   0  0  0  0  0  0  0  0  0  0  0  0
  192.7650  174.4100  146.6160 O   0  0  0  0  0  0  0  0  0  0  0  0
  188.7970  173.7140  141.7480 C   0  0  0  0  0  1  0  0  0  0  0  0
  196.3120  176.3430  143.4270 C   0  0  0  0  0  3  0  0  0  0  0  0
  189.4810  175.8700  142.7800 C   0  0  0  0  0  0  0  0  0  0  0  0
  193.8710  172.9870  143.0590 O   0  0  0  0  0  0  0  0  0  0  0  0
  194.0170  176.4950  146.9510 O   0  0  0  0  0  0  0  0  0  0  0  0
  192.7030  175.9100  146.5180 S   0  0  0  0  0  0  0  0  0  0  0  0
  190.0040  175.7780  146.7040 C   0  0  0  0  0  0  0  0  0  0  0  0
  192.3460  176.4270  144.8890 N   0  0  2  0  0  0  0  0  0  0  0  0
  193.8910  174.1890  140.1680 O   0  0  0  0  0  0  0  0  0  0  0  0
  191.8530  175.7370  142.6480 C   0  0  2  0  0  3  0  0  0  0  0  0
  190.0270  175.8860  145.4200 N   0  0  0  0  0  0  0  0  0  0  0  0
  191.1850  176.6420  147.7380 S   0  0  0  0  0  0  0  0  0  0  0  0
  193.1150  173.5550  140.8630 C   0  0  0  0  0  0  0  0  0  0  0  0
  194.1280  175.3140  143.6340 C   0  0  0  0  0  0  0  0  0  0  0  0
  189.7970  174.7100  142.2400 C   0  0  0  0  0  0  0  0  0  0  0  0
  189.0930  174.7840  147.3320 C   0  0  0  0  0  1  0  0  0  0  0  0
  191.6630  173.9050  140.8440 C   0  0  0  0  0  2  0  0  0  0  0  0
  194.9490  176.4480  143.7080 C   0  0  0  0  0  3  0  0  0  0  0  0
  196.0250  174.0180  142.9660 N   0  0  0  0  0  0  0  0  0  0  0  0
  196.8380  175.1040  143.0580 C   0  0  0  0  0  3  0  0  0  0  0  0
  193.6420  172.4710  141.7560 C   0  0  0  0  0  2  0  0  0  0  0  0
  190.7100  176.6320  143.1570 C   0  0  2  0  0  3  0  0  0  0  0  0
  191.2010  174.5510  142.0760 N   0  0  0  0  0  0  0  0  0  0  0  0
  190.9300  176.7620  144.6780 C   0  0  2  0  0  3  0  0  0  0  0  0
  188.0890  176.3620  142.9970 C   0  0  0  0  0  1  0  0  0  0  0  0
  192.6490  175.3920  143.9080 C   0  0  1  0  0  3  0  0  0  0  0  0
  1 16  1  0  0  0  0
  3 17  1  0  0  0  0
  4 20  1  0  0  0  0
  5 27  1  0  0  0  0
  6  1  1  0  0  0  0
  8  2  2  0  0  0  0
  8  7  2  0  0  0  0
  8 14  1  0  0  0  0
  9 18  1  0  0  0  0
  9 14  1  0  0  0  0
 10  8  1  1  0  0  0
 11 15  2  0  0  0  0
 12 25  1  1  0  0  0
 12 24  1  0  0  0  0
 12 28  1  0  0  0  0
 13  9  2  0  0  0  0
 15 23  1  0  0  0  0
 16 20  2  0  0  0  0
 17  5  2  0  0  0  0
 19 15  1  0  0  0  0
 19 25  1  0  0  0  0
 21 22  1  0  0  0  0
 21  1  2  0  0  0  0
 22  4  2  0  0  0  0
 23  6  1  0  0  0  0
 24  5  1  1  0  0  0
 24 26  1  0  0  0  0
 25 17  1  0  0  0  0
 26 10  1  0  0  0  0
 26 13  1  1  0  0  0
 28 16  1  6  0  0  0
 28 10  1  0  0  0  0
M  END
>  <MODEL>
8

>  <REMARK>
 VINA RESULT:      -6.8      3.884      7.368
  Name = 
  0 active torsions:
  status: ('A' for Active; 'I' for Inactive)
                            x       y       z     vdW  Elec       q    Type
                         _______ _______ _______ _____ _____    ______ ____

>  <TORSDO>
F 0

$$$$
=
 OpenBabel11112417413D

 28 32  0  0  1  0  0  0  0  0999 V2000
  188.8830  175.7090  145.0330 C   0  0  0  0  0  0  0  0  0  0  0  0
  188.6010  172.8760  142.3710 O   0  0  0  0  0  0  0  0  0  0  0  0
  194.0020  172.4540  145.6230 C   0  0  0  0  0  1  0  0  0  0  0  0
  188.3820  177.9090  143.4180 C   0  0  0  0  0  3  0  0  0  0  0  0
  193.7080  173.5570  143.4140 C   0  0  0  0  0  0  0  0  0  0  0  0
  189.1990  174.6560  145.8890 O   0  0  0  0  0  0  0  0  0  0  0  0
  188.2350  174.6700  140.7370 O   0  0  0  0  0  0  0  0  0  0  0  0
  189.2480  173.7190  141.3070 S   0  0  0  0  0  0  0  0  0  0  0  0
  191.1300  171.8000  140.9750 C   0  0  0  0  0  0  0  0  0  0  0  0
  190.5970  174.6240  141.9450 N   0  0  2  0  0  0  0  0  0  0  0  0
  191.2060  176.8430  146.8850 O   0  0  0  0  0  0  0  0  0  0  0  0
  191.9460  175.0890  143.8710 C   0  0  2  0  0  3  0  0  0  0  0  0
  191.8560  172.5430  141.7380 N   0  0  0  0  0  0  0  0  0  0  0  0
  189.9890  172.5060  139.7880 S   0  0  0  0  0  0  0  0  0  0  0  0
  191.1780  175.6250  146.8150 C   0  0  0  0  0  0  0  0  0  0  0  0
  189.5380  175.8140  143.8020 C   0  0  0  0  0  0  0  0  0  0  0  0
  193.3430  173.4000  144.6710 C   0  0  0  0  0  0  0  0  0  0  0  0
  191.1100  170.3290  141.2030 C   0  0  0  0  0  1  0  0  0  0  0  0
  192.4090  174.8890  146.4000 C   0  0  0  0  0  2  0  0  0  0  0  0
  189.2930  176.9370  143.0000 C   0  0  0  0  0  3  0  0  0  0  0  0
  188.0030  176.6720  145.4250 N   0  0  0  0  0  0  0  0  0  0  0  0
  187.7360  177.7540  144.6460 C   0  0  0  0  0  3  0  0  0  0  0  0
  189.8980  174.8990  147.1010 C   0  0  0  0  0  2  0  0  0  0  0  0
  192.8530  174.5800  142.7380 C   0  0  2  0  0  3  0  0  0  0  0  0
  192.3180  174.3060  145.0580 N   0  0  0  0  0  0  0  0  0  0  0  0
  191.9020  174.0020  141.6720 C   0  0  2  0  0  3  0  0  0  0  0  0
  194.8160  172.8150  142.7450 C   0  0  0  0  0  1  0  0  0  0  0  0
  190.5300  174.7560  143.3960 C   0  0  1  0  0  3  0  0  0  0  0  0
  1 21  2  0  0  0  0
  1  6  1  0  0  0  0
  4 22  2  0  0  0  0
  5 17  2  0  0  0  0
  6 23  1  0  0  0  0
  7  8  2  0  0  0  0
  8  2  2  0  0  0  0
  9 18  1  0  0  0  0
  9 13  2  0  0  0  0
 10  8  1  1  0  0  0
 10 28  1  0  0  0  0
 12 25  1  1  0  0  0
 14  9  1  0  0  0  0
 14  8  1  0  0  0  0
 15 11  2  0  0  0  0
 15 23  1  0  0  0  0
 16  1  1  0  0  0  0
 17 25  1  0  0  0  0
 17  3  1  0  0  0  0
 19 15  1  0  0  0  0
 20  4  1  0  0  0  0
 20 16  2  0  0  0  0
 22 21  1  0  0  0  0
 24  5  1  1  0  0  0
 24 12  1  0  0  0  0
 25 19  1  0  0  0  0
 26 13  1  1  0  0  0
 26 10  1  0  0  0  0
 26 24  1  0  0  0  0
 27  5  1  0  0  0  0
 28 16  1  6  0  0  0
 28 12  1  0  0  0  0
M  END
>  <MODEL>
9

>  <REMARK>
 VINA RESULT:      -6.8      2.318      3.638
  Name = 
  0 active torsions:
  status: ('A' for Active; 'I' for Inactive)
                            x       y       z     vdW  Elec       q    Type
                         _______ _______ _______ _____ _____    ______ ____

>  <TORSDO>
F 0

$$$$
