=
 OpenBabel11112416253D

 30 35  0  0  1  0  0  0  0  0999 V2000
  186.8370  178.0390  143.6580 C   0  0  0  0  0  0  0  0  0  0  0  0
  184.8380  178.7110  144.8990 C   0  0  0  0  0  0  0  0  0  0  0  0
  188.7000  176.7210  147.2140 N   0  0  0  0  0  0  0  0  0  0  0  0
  188.2290  177.4330  143.5520 C   0  0  0  0  0  0  0  0  0  0  0  0
  186.3070  178.5490  142.3500 C   0  0  0  0  0  2  0  0  0  0  0  0
  187.7370  175.8980  140.2560 O   0  0  0  0  0  0  0  0  0  0  0  0
  190.8360  176.2820  142.8970 C   0  0  1  0  0  3  0  0  0  0  0  0
  187.4940  176.5620  141.3010 C   0  0  0  0  0  0  0  0  0  0  0  0
  190.9110  176.1060  144.3400 N   0  0  0  0  0  0  0  0  0  0  0  0
  189.8280  176.3110  146.7150 C   0  0  1  0  0  3  0  0  0  0  0  0
  186.4480  177.5540  141.2870 N   0  0  0  0  0  0  0  0  0  0  0  0
  188.2140  176.2290  142.5890 C   0  0  1  0  0  3  0  0  0  0  0  0
  184.1600  178.8180  146.1160 C   0  0  0  0  0  3  0  0  0  0  0  0
  192.1210  175.4610  144.6860 C   0  0  0  0  0  3  0  0  0  0  0  0
  192.1270  175.6440  142.3730 C   0  0  0  0  0  2  0  0  0  0  0  0
  184.1850  179.1430  143.7910 F   0  0  0  0  0  0  0  0  0  0  0  0
  187.9630  177.2020  146.0920 C   0  0  0  0  0  0  0  0  0  0  0  0
  184.7490  178.3870  147.3010 C   0  0  0  0  0  3  0  0  0  0  0  0
  186.1470  178.1570  144.8440 C   0  0  0  0  0  0  0  0  0  0  0  0
  188.7330  177.0460  144.9000 C   0  0  0  0  0  0  0  0  0  0  0  0
  190.9040  175.7200  147.5560 C   0  0  0  0  0  1  0  0  0  0  0  0
  189.8820  176.5060  145.2550 C   0  0  0  0  0  0  0  0  0  0  0  0
  192.8360  175.1880  143.6110 C   0  0  0  0  0  3  0  0  0  0  0  0
  189.6620  174.5300  141.8080 O   0  0  0  0  0  0  0  0  0  0  0  0
  186.0280  177.8430  147.2820 C   0  0  0  0  0  3  0  0  0  0  0  0
  186.7330  177.7210  146.0790 C   0  0  0  0  0  0  0  0  0  0  0  0
  189.5870  175.6200  142.3560 C   0  0  0  0  0  0  0  0  0  0  0  0
  185.5950  177.6900  140.1130 C   0  0  0  0  0  2  0  0  0  0  0  0
  183.1340  177.9280  140.4460 C   0  0  0  0  0  1  0  0  0  0  0  0
  184.4580  178.6640  140.3870 C   0  0  0  0  0  2  0  0  0  0  0  0
  1 19  1  0  0  0  0
  2 13  1  0  0  0  0
  4  1  2  0  0  0  0
  4 20  1  0  0  0  0
  5  1  1  0  0  0  0
  6  8  2  0  0  0  0
  7 15  1  6  0  0  0
  7  9  1  0  0  0  0
  9 14  1  0  0  0  0
  9 22  1  0  0  0  0
 10  3  1  0  0  0  0
 10 21  1  6  0  0  0
 11  8  1  0  0  0  0
 11  5  1  0  0  0  0
 12  8  1  6  0  0  0
 12  4  1  0  0  0  0
 13 18  2  0  0  0  0
 15 23  1  0  0  0  0
 16  2  1  0  0  0  0
 17  3  2  0  0  0  0
 19  2  2  0  0  0  0
 19 26  1  0  0  0  0
 20 22  2  0  0  0  0
 20 17  1  0  0  0  0
 22 10  1  0  0  0  0
 23 14  2  0  0  0  0
 24 27  2  0  0  0  0
 25 18  1  0  0  0  0
 26 17  1  0  0  0  0
 26 25  2  0  0  0  0
 27 12  1  0  0  0  0
 27  7  1  0  0  0  0
 28 30  1  0  0  0  0
 28 11  1  0  0  0  0
 30 29  1  0  0  0  0
M  END
>  <MODEL>
1

>  <REMARK>
 VINA RESULT:      -9.6      0.000      0.000
  Name = 
  2 active torsions:
  status: ('A' for Active; 'I' for Inactive)
    1  A    between atoms: N_11  and  C_28
    2  A    between atoms: C_28  and  C_30
                            x       y       z     vdW  Elec       q    Type
                         _______ _______ _______ _____ _____    ______ ____

>  <TORSDO>
F 2

$$$$
=
 OpenBabel11112416253D

 30 35  0  0  1  0  0  0  0  0999 V2000
  188.8970  175.1480  144.1250 C   0  0  0  0  0  0  0  0  0  0  0  0
  190.9470  174.4870  145.2870 C   0  0  0  0  0  0  0  0  0  0  0  0
  187.8970  177.8190  147.2440 N   0  0  0  0  0  0  0  0  0  0  0  0
  187.6210  175.9650  143.9840 C   0  0  0  0  0  0  0  0  0  0  0  0
  189.1110  174.1740  143.0050 C   0  0  0  0  0  2  0  0  0  0  0  0
  187.7790  176.3110  140.3350 O   0  0  0  0  0  0  0  0  0  0  0  0
  185.1540  177.3710  143.2860 C   0  0  1  0  0  3  0  0  0  0  0  0
  188.0890  175.9540  141.5060 C   0  0  0  0  0  0  0  0  0  0  0  0
  185.3530  177.9820  144.5920 N   0  0  0  0  0  0  0  0  0  0  0  0
  186.7790  178.2810  146.7680 C   0  0  1  0  0  3  0  0  0  0  0  0
  188.9490  174.8130  141.6980 N   0  0  0  0  0  0  0  0  0  0  0  0
  187.6600  176.7960  142.6870 C   0  0  1  0  0  3  0  0  0  0  0  0
  191.7970  174.6140  146.3890 C   0  0  0  0  0  3  0  0  0  0  0  0
  184.3370  178.9320  144.8410 C   0  0  0  0  0  3  0  0  0  0  0  0
  183.9090  178.0710  142.7300 C   0  0  0  0  0  2  0  0  0  0  0  0
  191.3260  173.6200  144.3140 F   0  0  0  0  0  0  0  0  0  0  0  0
  188.3480  176.8840  146.2650 C   0  0  0  0  0  0  0  0  0  0  0  0
  191.4930  175.4890  147.4270 C   0  0  0  0  0  3  0  0  0  0  0  0
  189.7510  175.2530  145.2010 C   0  0  0  0  0  0  0  0  0  0  0  0
  187.4200  176.8310  145.1800 C   0  0  0  0  0  0  0  0  0  0  0  0
  185.9680  179.3010  147.4850 C   0  0  0  0  0  1  0  0  0  0  0  0
  186.4470  177.6740  145.4670 C   0  0  0  0  0  0  0  0  0  0  0  0
  183.5020  179.0100  143.8230 C   0  0  0  0  0  3  0  0  0  0  0  0
  186.3860  178.4400  141.5620 O   0  0  0  0  0  0  0  0  0  0  0  0
  190.3310  176.2500  147.3740 C   0  0  0  0  0  3  0  0  0  0  0  0
  189.4600  176.1480  146.2840 C   0  0  0  0  0  0  0  0  0  0  0  0
  186.3810  177.5720  142.4230 C   0  0  0  0  0  0  0  0  0  0  0  0
  189.5580  174.1620  140.5450 C   0  0  0  0  0  2  0  0  0  0  0  0
  188.2480  172.9930  138.7730 C   0  0  0  0  0  1  0  0  0  0  0  0
  188.8000  172.8940  140.1820 C   0  0  0  0  0  2  0  0  0  0  0  0
  1 19  1  0  0  0  0
  2 13  1  0  0  0  0
  4  1  2  0  0  0  0
  4 20  1  0  0  0  0
  5  1  1  0  0  0  0
  6  8  2  0  0  0  0
  7 15  1  6  0  0  0
  7  9  1  0  0  0  0
  8 11  1  0  0  0  0
  9 14  1  0  0  0  0
  9 22  1  0  0  0  0
 10  3  1  0  0  0  0
 10 21  1  6  0  0  0
 11  5  1  0  0  0  0
 12  8  1  6  0  0  0
 12  4  1  0  0  0  0
 13 18  2  0  0  0  0
 15 23  1  0  0  0  0
 16  2  1  0  0  0  0
 17 26  1  0  0  0  0
 17  3  2  0  0  0  0
 19  2  2  0  0  0  0
 19 26  1  0  0  0  0
 20 22  2  0  0  0  0
 20 17  1  0  0  0  0
 22 10  1  0  0  0  0
 23 14  2  0  0  0  0
 24 27  2  0  0  0  0
 25 18  1  0  0  0  0
 26 25  2  0  0  0  0
 27 12  1  0  0  0  0
 27  7  1  0  0  0  0
 28 11  1  0  0  0  0
 29 30  1  0  0  0  0
 30 28  1  0  0  0  0
M  END
>  <MODEL>
2

>  <REMARK>
 VINA RESULT:      -8.3      2.546      5.585
  Name = 
  2 active torsions:
  status: ('A' for Active; 'I' for Inactive)
    1  A    between atoms: N_11  and  C_28
    2  A    between atoms: C_28  and  C_30
                            x       y       z     vdW  Elec       q    Type
                         _______ _______ _______ _____ _____    ______ ____

>  <TORSDO>
F 2

$$$$
=
 OpenBabel11112416253D

 30 35  0  0  1  0  0  0  0  0999 V2000
  187.7400  176.3500  144.6800 C   0  0  0  0  0  0  0  0  0  0  0  0
  186.6270  178.1990  145.8340 C   0  0  0  0  0  0  0  0  0  0  0  0
  186.3240  177.7270  140.9430 N   0  0  0  0  0  0  0  0  0  0  0  0
  188.1410  175.5740  143.4340 C   0  0  0  0  0  0  0  0  0  0  0  0
  188.2260  175.7280  145.9550 C   0  0  0  0  0  2  0  0  0  0  0  0
  191.4540  174.5690  144.6500 O   0  0  0  0  0  0  0  0  0  0  0  0
  189.1930  173.8510  141.3190 C   0  0  1  0  0  3  0  0  0  0  0  0
  190.3040  175.0910  144.6390 C   0  0  0  0  0  0  0  0  0  0  0  0
  188.4080  174.7330  140.4680 N   0  0  0  0  0  0  0  0  0  0  0  0
  186.8490  176.8160  140.1770 C   0  0  0  0  0  0  0  0  0  0  0  0
  189.6510  175.4000  145.8860 N   0  0  0  0  0  0  0  0  0  0  0  0
  189.6770  175.4990  143.3240 C   0  0  1  0  0  3  0  0  0  0  0  0
  185.8380  179.3500  145.7740 C   0  0  0  0  0  3  0  0  0  0  0  0
  188.5700  174.3670  139.1110 C   0  0  0  0  0  3  0  0  0  0  0  0
  189.8930  172.9060  140.3350 C   0  0  0  0  0  2  0  0  0  0  0  0
  187.0570  177.8110  147.0610 F   0  0  0  0  0  0  0  0  0  0  0  0
  186.7350  177.3690  142.2620 C   0  0  1  0  0  3  0  0  0  0  0  0
  185.3630  179.8270  144.5570 C   0  0  0  0  0  3  0  0  0  0  0  0
  186.9630  177.4870  144.6490 C   0  0  0  0  0  0  0  0  0  0  0  0
  187.5370  176.1880  142.2190 C   0  0  0  0  0  0  0  0  0  0  0  0
  186.6680  176.8160  138.7000 C   0  0  0  0  0  1  0  0  0  0  0  0
  187.6180  175.8270  140.9530 C   0  0  0  0  0  0  0  0  0  0  0  0
  189.3930  173.3430  138.9930 C   0  0  0  0  0  3  0  0  0  0  0  0
  191.3400  174.7250  141.8310 O   0  0  0  0  0  0  0  0  0  0  0  0
  185.6720  179.1540  143.3800 C   0  0  0  0  0  3  0  0  0  0  0  0
  186.4600  177.9990  143.4060 C   0  0  0  0  0  0  0  0  0  0  0  0
  190.1630  174.6600  142.1540 C   0  0  0  0  0  0  0  0  0  0  0  0
  190.3700  175.2330  147.1420 C   0  0  0  0  0  2  0  0  0  0  0  0
  192.4760  176.5600  147.3000 C   0  0  0  0  0  1  0  0  0  0  0  0
  190.9870  176.5500  147.5860 C   0  0  0  0  0  2  0  0  0  0  0  0
  1  5  1  0  0  0  0
  2 16  1  0  0  0  0
  4  1  2  0  0  0  0
  7 15  1  6  0  0  0
  7 27  1  0  0  0  0
  8  6  2  0  0  0  0
  8 11  1  0  0  0  0
  9 22  1  0  0  0  0
  9  7  1  0  0  0  0
 10  3  2  0  0  0  0
 10 22  1  0  0  0  0
 11  5  1  0  0  0  0
 11 28  1  0  0  0  0
 12 27  1  6  0  0  0
 12  4  1  0  0  0  0
 12  8  1  0  0  0  0
 13  2  1  0  0  0  0
 14  9  1  0  0  0  0
 17  3  1  6  0  0  0
 17 26  1  0  0  0  0
 18 13  2  0  0  0  0
 19  1  1  0  0  0  0
 19  2  2  0  0  0  0
 20 17  1  0  0  0  0
 20  4  1  0  0  0  0
 21 10  1  0  0  0  0
 22 20  2  0  0  0  0
 23 14  2  0  0  0  0
 23 15  1  0  0  0  0
 24 27  2  0  0  0  0
 25 26  2  0  0  0  0
 25 18  1  0  0  0  0
 26 19  1  0  0  0  0
 28 30  1  0  0  0  0
 29 30  1  0  0  0  0
M  END
>  <MODEL>
3

>  <REMARK>
 VINA RESULT:      -8.3      2.044      5.437
  Name = 
  2 active torsions:
  status: ('A' for Active; 'I' for Inactive)
    1  A    between atoms: N_11  and  C_28
    2  A    between atoms: C_28  and  C_30
                            x       y       z     vdW  Elec       q    Type
                         _______ _______ _______ _____ _____    ______ ____

>  <TORSDO>
F 2

$$$$
=
 OpenBabel11112416253D

 30 35  0  0  1  0  0  0  0  0999 V2000
  188.3920  176.1160  143.7380 C   0  0  0  0  0  0  0  0  0  0  0  0
  186.0660  176.8000  144.0720 C   0  0  0  0  0  0  0  0  0  0  0  0
  189.4440  177.5330  147.5770 N   0  0  0  0  0  0  0  0  0  0  0  0
  189.8350  175.9480  144.1890 C   0  0  0  0  0  0  0  0  0  0  0  0
  188.1480  175.6560  142.3310 C   0  0  0  0  0  2  0  0  0  0  0  0
  190.4320  172.7850  142.4290 O   0  0  0  0  0  0  0  0  0  0  0  0
  192.6590  175.3720  144.6820 C   0  0  1  0  0  3  0  0  0  0  0  0
  189.8360  173.8230  142.8320 C   0  0  0  0  0  0  0  0  0  0  0  0
  192.3850  176.0490  145.9400 N   0  0  0  0  0  0  0  0  0  0  0  0
  190.7090  177.2340  147.5670 C   0  0  1  0  0  3  0  0  0  0  0  0
  188.6990  174.3200  142.0980 N   0  0  0  0  0  0  0  0  0  0  0  0
  190.2400  174.4620  144.1420 C   0  0  1  0  0  3  0  0  0  0  0  0
  185.0890  177.3760  144.8890 C   0  0  0  0  0  3  0  0  0  0  0  0
  193.5440  176.0520  146.7500 C   0  0  0  0  0  3  0  0  0  0  0  0
  194.1190  174.9220  144.8080 C   0  0  0  0  0  2  0  0  0  0  0  0
  185.6650  176.3560  142.8550 F   0  0  0  0  0  0  0  0  0  0  0  0
  188.9600  177.0980  146.3080 C   0  0  0  0  0  0  0  0  0  0  0  0
  185.4090  177.8460  146.1590 C   0  0  0  0  0  3  0  0  0  0  0  0
  187.4100  176.6800  144.5220 C   0  0  0  0  0  0  0  0  0  0  0  0
  190.0250  176.5210  145.5520 C   0  0  0  0  0  0  0  0  0  0  0  0
  191.6050  177.5180  148.7200 C   0  0  0  0  0  1  0  0  0  0  0  0
  191.1090  176.5970  146.2990 C   0  0  0  0  0  0  0  0  0  0  0  0
  194.5420  175.4330  146.1500 C   0  0  0  0  0  3  0  0  0  0  0  0
  192.0660  173.0740  144.7160 O   0  0  0  0  0  0  0  0  0  0  0  0
  186.7140  177.7460  146.6280 C   0  0  0  0  0  3  0  0  0  0  0  0
  187.7140  177.1730  145.8350 C   0  0  0  0  0  0  0  0  0  0  0  0
  191.6990  174.2170  144.4910 C   0  0  0  0  0  0  0  0  0  0  0  0
  188.1660  173.5520  140.9800 C   0  0  0  0  0  2  0  0  0  0  0  0
  189.7490  173.5050  139.0530 C   0  0  0  0  0  1  0  0  0  0  0  0
  188.5440  174.2000  139.6560 C   0  0  0  0  0  2  0  0  0  0  0  0
  1  4  2  0  0  0  0
  1 19  1  0  0  0  0
  2 19  2  0  0  0  0
  2 13  1  0  0  0  0
  4 20  1  0  0  0  0
  5  1  1  0  0  0  0
  6  8  2  0  0  0  0
  7 15  1  1  0  0  0
  7  9  1  0  0  0  0
  9 22  1  0  0  0  0
  9 14  1  0  0  0  0
 10  3  1  0  0  0  0
 10 21  1  1  0  0  0
 11  5  1  0  0  0  0
 11  8  1  0  0  0  0
 12  8  1  6  0  0  0
 12  4  1  0  0  0  0
 12 27  1  0  0  0  0
 13 18  2  0  0  0  0
 15 23  1  0  0  0  0
 16  2  1  0  0  0  0
 17  3  2  0  0  0  0
 18 25  1  0  0  0  0
 19 26  1  0  0  0  0
 20 22  2  0  0  0  0
 20 17  1  0  0  0  0
 22 10  1  0  0  0  0
 23 14  2  0  0  0  0
 26 17  1  0  0  0  0
 26 25  2  0  0  0  0
 27  7  1  0  0  0  0
 27 24  2  0  0  0  0
 28 11  1  0  0  0  0
 29 30  1  0  0  0  0
 30 28  1  0  0  0  0
M  END
>  <MODEL>
4

>  <REMARK>
 VINA RESULT:      -8.0      2.289      3.280
  Name = 
  2 active torsions:
  status: ('A' for Active; 'I' for Inactive)
    1  A    between atoms: N_11  and  C_28
    2  A    between atoms: C_28  and  C_30
                            x       y       z     vdW  Elec       q    Type
                         _______ _______ _______ _____ _____    ______ ____

>  <TORSDO>
F 2

$$$$
=
 OpenBabel11112416253D

 30 35  0  0  1  0  0  0  0  0999 V2000
  186.0790  177.6070  141.5600 C   0  0  0  0  0  0  0  0  0  0  0  0
  183.8250  178.0840  140.7330 C   0  0  0  0  0  0  0  0  0  0  0  0
  184.9020  178.5040  145.5180 N   0  0  0  0  0  0  0  0  0  0  0  0
  187.1180  177.4660  142.6620 C   0  0  2  0  0  3  0  0  0  0  0  0
  186.6240  177.3460  140.1870 C   0  0  0  0  0  2  0  0  0  0  0  0
  188.9100  174.6430  141.1530 O   0  0  0  0  0  0  0  0  0  0  0  0
  189.3770  177.0040  144.4600 C   0  0  1  0  0  3  0  0  0  0  0  0
  188.0650  175.5690  141.2950 C   0  0  0  0  0  0  0  0  0  0  0  0
  188.4320  177.4680  145.4640 N   0  0  0  0  0  0  0  0  0  0  0  0
  186.0340  178.2900  146.1220 C   0  0  0  0  0  0  0  0  0  0  0  0
  187.3850  176.0960  140.1380 N   0  0  0  0  0  0  0  0  0  0  0  0
  187.6820  176.0320  142.6840 C   0  0  1  0  0  3  0  0  0  0  0  0
  182.5070  178.4700  140.9930 C   0  0  0  0  0  3  0  0  0  0  0  0
  189.0280  177.4250  146.7460 C   0  0  0  0  0  3  0  0  0  0  0  0
  190.6280  176.6330  145.2640 C   0  0  0  0  0  2  0  0  0  0  0  0
  184.1400  177.8010  139.4440 F   0  0  0  0  0  0  0  0  0  0  0  0
  185.1700  178.2310  144.1440 C   0  0  0  0  0  0  0  0  0  0  0  0
  182.0930  178.7660  142.2880 C   0  0  0  0  0  3  0  0  0  0  0  0
  184.7740  177.9850  141.7890 C   0  0  0  0  0  0  0  0  0  0  0  0
  186.5340  177.8420  143.9810 C   0  0  0  0  0  0  0  0  0  0  0  0
  186.1980  178.4570  147.5910 C   0  0  0  0  0  1  0  0  0  0  0  0
  187.0860  177.8740  145.1780 C   0  0  0  0  0  0  0  0  0  0  0  0
  190.2630  176.9660  146.6780 C   0  0  0  0  0  3  0  0  0  0  0  0
  189.1480  174.6930  143.9680 O   0  0  0  0  0  0  0  0  0  0  0  0
  182.9970  178.6810  143.3420 C   0  0  0  0  0  3  0  0  0  0  0  0
  184.3230  178.2970  143.1140 C   0  0  0  0  0  0  0  0  0  0  0  0
  188.7950  175.8310  143.6990 C   0  0  0  0  0  0  0  0  0  0  0  0
  187.5790  175.4710  138.8370 C   0  0  0  0  0  2  0  0  0  0  0  0
  187.2370  175.8530  136.3950 C   0  0  0  0  0  1  0  0  0  0  0  0
  186.7030  176.1360  137.7860 C   0  0  0  0  0  2  0  0  0  0  0  0
  1 19  2  0  0  0  0
  2 13  2  0  0  0  0
  2 19  1  0  0  0  0
  3 10  2  0  0  0  0
  4  1  1  6  0  0  0
  4 12  1  0  0  0  0
  4 20  1  0  0  0  0
  5  1  1  0  0  0  0
  6  8  2  0  0  0  0
  7 15  1  1  0  0  0
  7  9  1  0  0  0  0
  9 14  1  0  0  0  0
 10 21  1  0  0  0  0
 11  5  1  0  0  0  0
 11  8  1  0  0  0  0
 12  8  1  6  0  0  0
 12 27  1  0  0  0  0
 13 18  1  0  0  0  0
 15 23  1  0  0  0  0
 16  2  1  0  0  0  0
 17  3  1  0  0  0  0
 18 25  2  0  0  0  0
 19 26  1  0  0  0  0
 20 17  1  0  0  0  0
 20 22  2  0  0  0  0
 22  9  1  0  0  0  0
 22 10  1  0  0  0  0
 23 14  2  0  0  0  0
 26 25  1  0  0  0  0
 26 17  2  0  0  0  0
 27 24  2  0  0  0  0
 27  7  1  0  0  0  0
 28 11  1  0  0  0  0
 29 30  1  0  0  0  0
 30 28  1  0  0  0  0
M  END
>  <MODEL>
5

>  <REMARK>
 VINA RESULT:      -7.8      2.037      3.695
  Name = 
  2 active torsions:
  status: ('A' for Active; 'I' for Inactive)
    1  A    between atoms: N_11  and  C_28
    2  A    between atoms: C_28  and  C_30
                            x       y       z     vdW  Elec       q    Type
                         _______ _______ _______ _____ _____    ______ ____

>  <TORSDO>
F 2

$$$$
=
 OpenBabel11112416253D

 30 35  0  0  1  0  0  0  0  0999 V2000
  188.6800  176.0130  145.1590 C   0  0  0  0  0  0  0  0  0  0  0  0
  187.1990  177.9030  145.6330 C   0  0  0  0  0  0  0  0  0  0  0  0
  187.4860  175.9910  141.1060 N   0  0  0  0  0  0  0  0  0  0  0  0
  189.3180  174.9880  144.2330 C   0  0  0  0  0  0  0  0  0  0  0  0
  189.1130  175.8780  146.5890 C   0  0  0  0  0  2  0  0  0  0  0  0
  192.5930  174.9500  145.8870 O   0  0  0  0  0  0  0  0  0  0  0  0
  190.8230  172.9290  142.8030 C   0  0  1  0  0  3  0  0  0  0  0  0
  191.3880  175.2450  145.6510 C   0  0  0  0  0  0  0  0  0  0  0  0
  190.0140  173.3820  141.6810 N   0  0  0  0  0  0  0  0  0  0  0  0
  188.2130  175.0000  140.6830 C   0  0  0  0  0  0  0  0  0  0  0  0
  190.5690  175.7880  146.7050 N   0  0  0  0  0  0  0  0  0  0  0  0
  190.8510  175.1440  144.2400 C   0  0  1  0  0  3  0  0  0  0  0  0
  186.2640  178.8390  145.1820 C   0  0  0  0  0  3  0  0  0  0  0  0
  190.3690  172.6710  140.5110 C   0  0  0  0  0  3  0  0  0  0  0  0
  191.7510  171.8720  142.1950 C   0  0  0  0  0  2  0  0  0  0  0  0
  187.5480  177.9650  146.9420 F   0  0  0  0  0  0  0  0  0  0  0  0
  187.8010  176.1040  142.4920 C   0  0  1  0  0  3  0  0  0  0  0  0
  185.8580  178.8560  143.8510 C   0  0  0  0  0  3  0  0  0  0  0  0
  187.7570  176.9460  144.7410 C   0  0  0  0  0  0  0  0  0  0  0  0
  188.7640  175.1140  142.8550 C   0  0  0  0  0  0  0  0  0  0  0  0
  188.1910  174.5420  139.2680 C   0  0  0  0  0  1  0  0  0  0  0  0
  189.0290  174.4210  141.7650 C   0  0  0  0  0  0  0  0  0  0  0  0
  191.3380  171.8100  140.7570 C   0  0  0  0  0  3  0  0  0  0  0  0
  192.7560  174.2610  143.1510 O   0  0  0  0  0  0  0  0  0  0  0  0
  186.3820  177.9320  142.9540 C   0  0  0  0  0  3  0  0  0  0  0  0
  187.3210  176.9840  143.3740 C   0  0  0  0  0  0  0  0  0  0  0  0
  191.5730  174.0960  143.4090 C   0  0  0  0  0  0  0  0  0  0  0  0
  191.1680  176.1150  147.9930 C   0  0  0  0  0  2  0  0  0  0  0  0
  191.5660  177.9160  149.6730 C   0  0  0  0  0  1  0  0  0  0  0  0
  190.9850  177.5920  148.3100 C   0  0  0  0  0  2  0  0  0  0  0  0
  1  5  1  0  0  0  0
  2 16  1  0  0  0  0
  4 12  1  0  0  0  0
  4  1  2  0  0  0  0
  5 11  1  0  0  0  0
  7 15  1  6  0  0  0
  7 27  1  0  0  0  0
  8  6  2  0  0  0  0
  8 11  1  0  0  0  0
  9 22  1  0  0  0  0
  9  7  1  0  0  0  0
 10  3  2  0  0  0  0
 10 22  1  0  0  0  0
 11 28  1  0  0  0  0
 12 27  1  1  0  0  0
 12  8  1  0  0  0  0
 13  2  1  0  0  0  0
 14 23  2  0  0  0  0
 14  9  1  0  0  0  0
 17  3  1  6  0  0  0
 17 20  1  0  0  0  0
 17 26  1  0  0  0  0
 18 13  2  0  0  0  0
 19  1  1  0  0  0  0
 19  2  2  0  0  0  0
 20  4  1  0  0  0  0
 21 10  1  0  0  0  0
 22 20  2  0  0  0  0
 23 15  1  0  0  0  0
 24 27  2  0  0  0  0
 25 26  2  0  0  0  0
 25 18  1  0  0  0  0
 26 19  1  0  0  0  0
 28 30  1  0  0  0  0
 30 29  1  0  0  0  0
M  END
>  <MODEL>
6

>  <REMARK>
 VINA RESULT:      -7.5      2.474      5.618
  Name = 
  2 active torsions:
  status: ('A' for Active; 'I' for Inactive)
    1  A    between atoms: N_11  and  C_28
    2  A    between atoms: C_28  and  C_30
                            x       y       z     vdW  Elec       q    Type
                         _______ _______ _______ _____ _____    ______ ____

>  <TORSDO>
F 2

$$$$
=
 OpenBabel11112416253D

 30 35  0  0  1  0  0  0  0  0999 V2000
  189.0360  176.0140  143.1950 C   0  0  0  0  0  0  0  0  0  0  0  0
  188.5060  176.4980  145.5350 C   0  0  0  0  0  0  0  0  0  0  0  0
  190.8510  172.3550  144.2800 N   0  0  0  0  0  0  0  0  0  0  0  0
  189.6000  175.1400  142.0850 C   0  0  0  0  0  0  0  0  0  0  0  0
  188.4920  177.3240  142.7080 C   0  0  0  0  0  2  0  0  0  0  0  0
  187.0980  176.0520  139.5610 O   0  0  0  0  0  0  0  0  0  0  0  0
  190.4790  173.7540  139.6650 C   0  0  1  0  0  3  0  0  0  0  0  0
  187.7210  176.0330  140.6590 C   0  0  0  0  0  0  0  0  0  0  0  0
  190.9580  172.7720  140.6270 N   0  0  0  0  0  0  0  0  0  0  0  0
  191.2050  171.9440  143.0980 C   0  0  0  0  0  0  0  0  0  0  0  0
  187.5890  177.1420  141.5700 N   0  0  0  0  0  0  0  0  0  0  0  0
  188.4980  174.8000  141.0620 C   0  0  1  0  0  3  0  0  0  0  0  0
  188.5480  176.1170  146.8790 C   0  0  0  0  0  3  0  0  0  0  0  0
  191.5390  171.6750  139.9490 C   0  0  0  0  0  3  0  0  0  0  0  0
  190.7990  173.1310  138.3010 C   0  0  0  0  0  2  0  0  0  0  0  0
  187.9030  177.6790  145.2490 F   0  0  0  0  0  0  0  0  0  0  0  0
  190.2140  173.6100  144.0490 C   0  0  1  0  0  3  0  0  0  0  0  0
  189.1360  174.9160  147.2620 C   0  0  0  0  0  3  0  0  0  0  0  0
  189.0640  175.6630  144.5270 C   0  0  0  0  0  0  0  0  0  0  0  0
  190.2150  173.9070  142.6520 C   0  0  0  0  0  0  0  0  0  0  0  0
  191.9090  170.6510  142.8820 C   0  0  0  0  0  1  0  0  0  0  0  0
  190.8220  172.9040  142.0480 C   0  0  0  0  0  0  0  0  0  0  0  0
  191.4740  171.8390  138.6420 C   0  0  0  0  0  3  0  0  0  0  0  0
  188.1840  173.4800  139.1250 O   0  0  0  0  0  0  0  0  0  0  0  0
  189.6920  174.0780  146.3020 C   0  0  0  0  0  3  0  0  0  0  0  0
  189.6650  174.4300  144.9480 C   0  0  0  0  0  0  0  0  0  0  0  0
  189.0000  174.0040  139.8690 C   0  0  0  0  0  0  0  0  0  0  0  0
  186.6400  178.2100  141.2810 C   0  0  0  0  0  2  0  0  0  0  0  0
  184.8160  177.8510  142.9440 C   0  0  0  0  0  1  0  0  0  0  0  0
  185.9990  178.7200  142.5620 C   0  0  0  0  0  2  0  0  0  0  0  0
  1 19  1  0  0  0  0
  2 13  1  0  0  0  0
  4 20  1  0  0  0  0
  4  1  2  0  0  0  0
  5  1  1  0  0  0  0
  6  8  2  0  0  0  0
  7 15  1  6  0  0  0
  7 27  1  0  0  0  0
  7  9  1  0  0  0  0
  8 12  1  0  0  0  0
  8 11  1  0  0  0  0
  9 22  1  0  0  0  0
 10  3  2  0  0  0  0
 11  5  1  0  0  0  0
 12 27  1  6  0  0  0
 12  4  1  0  0  0  0
 13 18  2  0  0  0  0
 14  9  1  0  0  0  0
 15 23  1  0  0  0  0
 16  2  1  0  0  0  0
 17 20  1  6  0  0  0
 17  3  1  0  0  0  0
 17 26  1  0  0  0  0
 19 26  1  0  0  0  0
 19  2  2  0  0  0  0
 21 10  1  0  0  0  0
 22 20  2  0  0  0  0
 22 10  1  0  0  0  0
 23 14  2  0  0  0  0
 24 27  2  0  0  0  0
 25 18  1  0  0  0  0
 26 25  2  0  0  0  0
 28 11  1  0  0  0  0
 28 30  1  0  0  0  0
 30 29  1  0  0  0  0
M  END
>  <MODEL>
7

>  <REMARK>
 VINA RESULT:      -7.5      2.860      4.282
  Name = 
  2 active torsions:
  status: ('A' for Active; 'I' for Inactive)
    1  A    between atoms: N_11  and  C_28
    2  A    between atoms: C_28  and  C_30
                            x       y       z     vdW  Elec       q    Type
                         _______ _______ _______ _____ _____    ______ ____

>  <TORSDO>
F 2

$$$$
=
 OpenBabel11112416253D

 30 35  0  0  1  0  0  0  0  0999 V2000
  189.7450  174.9380  143.4600 C   0  0  0  0  0  0  0  0  0  0  0  0
  192.0490  174.1800  143.1280 C   0  0  0  0  0  0  0  0  0  0  0  0
  190.8600  177.0560  146.9430 N   0  0  0  0  0  0  0  0  0  0  0  0
  188.6670  175.7200  144.1950 C   0  0  2  0  0  3  0  0  0  0  0  0
  189.2250  174.1580  142.2890 C   0  0  0  0  0  2  0  0  0  0  0  0
  186.7400  176.6320  141.2100 O   0  0  0  0  0  0  0  0  0  0  0  0
  186.3300  177.1270  145.2490 C   0  0  1  0  0  3  0  0  0  0  0  0
  187.6390  176.1100  141.9250 C   0  0  0  0  0  0  0  0  0  0  0  0
  187.2740  177.5350  146.2790 N   0  0  0  0  0  0  0  0  0  0  0  0
  189.6990  177.5450  147.2650 C   0  0  0  0  0  0  0  0  0  0  0  0
  188.3850  174.9850  141.4210 N   0  0  0  0  0  0  0  0  0  0  0  0
  188.0100  176.7430  143.2480 C   0  0  1  0  0  3  0  0  0  0  0  0
  193.3800  174.1650  143.5510 C   0  0  0  0  0  3  0  0  0  0  0  0
  186.6390  178.3980  147.2020 C   0  0  0  0  0  3  0  0  0  0  0  0
  185.0340  177.8590  145.6150 C   0  0  0  0  0  2  0  0  0  0  0  0
  191.7540  173.4890  141.9990 F   0  0  0  0  0  0  0  0  0  0  0  0
  190.6160  176.3010  145.7570 C   0  0  0  0  0  0  0  0  0  0  0  0
  193.7740  174.8580  144.6910 C   0  0  0  0  0  3  0  0  0  0  0  0
  191.0640  174.9060  143.8550 C   0  0  0  0  0  0  0  0  0  0  0  0
  189.2350  176.3820  145.4030 C   0  0  0  0  0  0  0  0  0  0  0  0
  189.5040  178.4120  148.4590 C   0  0  0  0  0  1  0  0  0  0  0  0
  188.6510  177.1350  146.3150 C   0  0  0  0  0  0  0  0  0  0  0  0
  185.3790  178.6030  146.8680 C   0  0  0  0  0  3  0  0  0  0  0  0
  186.4220  178.4950  143.3110 O   0  0  0  0  0  0  0  0  0  0  0  0
  192.8370  175.5750  145.4260 C   0  0  0  0  0  3  0  0  0  0  0  0
  191.4960  175.6110  145.0280 C   0  0  0  0  0  0  0  0  0  0  0  0
  186.8570  177.5040  143.8810 C   0  0  0  0  0  0  0  0  0  0  0  0
  188.1900  174.5430  140.0460 C   0  0  0  0  0  2  0  0  0  0  0  0
  188.8980  172.3970  138.9890 C   0  0  0  0  0  1  0  0  0  0  0  0
  189.3740  173.7110  139.5770 C   0  0  0  0  0  2  0  0  0  0  0  0
  1 19  2  0  0  0  0
  2 13  2  0  0  0  0
  2 19  1  0  0  0  0
  3 10  2  0  0  0  0
  4  1  1  6  0  0  0
  4 20  1  0  0  0  0
  5  1  1  0  0  0  0
  6  8  2  0  0  0  0
  7 15  1  1  0  0  0
  7  9  1  0  0  0  0
  9 22  1  0  0  0  0
  9 14  1  0  0  0  0
 10 21  1  0  0  0  0
 11  8  1  0  0  0  0
 11  5  1  0  0  0  0
 12  8  1  6  0  0  0
 12 27  1  0  0  0  0
 12  4  1  0  0  0  0
 13 18  1  0  0  0  0
 15 23  1  0  0  0  0
 16  2  1  0  0  0  0
 17  3  1  0  0  0  0
 18 25  2  0  0  0  0
 19 26  1  0  0  0  0
 20 17  1  0  0  0  0
 20 22  2  0  0  0  0
 22 10  1  0  0  0  0
 23 14  2  0  0  0  0
 24 27  2  0  0  0  0
 26 25  1  0  0  0  0
 26 17  2  0  0  0  0
 27  7  1  0  0  0  0
 28 11  1  0  0  0  0
 29 30  1  0  0  0  0
 30 28  1  0  0  0  0
M  END
>  <MODEL>
8

>  <REMARK>
 VINA RESULT:      -7.3      2.671      5.777
  Name = 
  2 active torsions:
  status: ('A' for Active; 'I' for Inactive)
    1  A    between atoms: N_11  and  C_28
    2  A    between atoms: C_28  and  C_30
                            x       y       z     vdW  Elec       q    Type
                         _______ _______ _______ _____ _____    ______ ____

>  <TORSDO>
F 2

$$$$
=
 OpenBabel11112416253D

 30 35  0  0  1  0  0  0  0  0999 V2000
  187.2850  176.5810  141.2080 C   0  0  0  0  0  0  0  0  0  0  0  0
  185.1560  177.7880  141.2180 C   0  0  0  0  0  0  0  0  0  0  0  0
  187.3600  176.5190  145.4330 N   0  0  0  0  0  0  0  0  0  0  0  0
  188.4540  175.8860  141.8900 C   0  0  0  0  0  0  0  0  0  0  0  0
  187.4020  176.6180  139.7130 C   0  0  0  0  0  2  0  0  0  0  0  0
  188.9190  173.2990  139.3310 O   0  0  0  0  0  0  0  0  0  0  0  0
  190.8120  174.4060  142.7840 C   0  0  1  0  0  3  0  0  0  0  0  0
  188.4490  174.3110  139.9200 C   0  0  0  0  0  0  0  0  0  0  0  0
  190.3040  174.7590  144.1010 N   0  0  0  0  0  0  0  0  0  0  0  0
  188.4800  175.8820  145.6080 C   0  0  1  0  0  3  0  0  0  0  0  0
  187.7180  175.2980  139.1650 N   0  0  0  0  0  0  0  0  0  0  0  0
  188.5470  174.4200  141.4260 C   0  0  1  0  0  3  0  0  0  0  0  0
  184.1110  178.3740  141.9370 C   0  0  0  0  0  3  0  0  0  0  0  0
  191.1320  174.2040  145.1040 C   0  0  0  0  0  3  0  0  0  0  0  0
  192.0400  173.5360  143.0760 C   0  0  0  0  0  2  0  0  0  0  0  0
  185.0720  177.8330  139.8650 F   0  0  0  0  0  0  0  0  0  0  0  0
  187.2160  176.6100  144.0160 C   0  0  0  0  0  0  0  0  0  0  0  0
  184.1100  178.3630  143.3290 C   0  0  0  0  0  3  0  0  0  0  0  0
  186.2430  177.1660  141.8930 C   0  0  0  0  0  0  0  0  0  0  0  0
  188.3240  175.9810  143.3720 C   0  0  0  0  0  0  0  0  0  0  0  0
  189.0130  175.5650  146.9610 C   0  0  0  0  0  1  0  0  0  0  0  0
  189.1160  175.5310  144.3260 C   0  0  0  0  0  0  0  0  0  0  0  0
  192.1210  173.5130  144.5710 C   0  0  0  0  0  3  0  0  0  0  0  0
  189.7900  172.4610  141.8860 O   0  0  0  0  0  0  0  0  0  0  0  0
  185.1580  177.7650  144.0190 C   0  0  0  0  0  3  0  0  0  0  0  0
  186.2190  177.1690  143.3280 C   0  0  0  0  0  0  0  0  0  0  0  0
  189.7470  173.6770  141.9920 C   0  0  0  0  0  0  0  0  0  0  0  0
  187.4140  175.0560  137.7600 C   0  0  0  0  0  2  0  0  0  0  0  0
  185.4790  175.9480  136.4630 C   0  0  0  0  0  1  0  0  0  0  0  0
  186.8000  176.2940  137.1240 C   0  0  0  0  0  2  0  0  0  0  0  0
  1  4  2  0  0  0  0
  1 19  1  0  0  0  0
  2 19  2  0  0  0  0
  2 13  1  0  0  0  0
  3 10  1  0  0  0  0
  4 20  1  0  0  0  0
  5  1  1  0  0  0  0
  6  8  2  0  0  0  0
  7 15  1  1  0  0  0
  7  9  1  0  0  0  0
  9 22  1  0  0  0  0
  9 14  1  0  0  0  0
 10 21  1  6  0  0  0
 11  5  1  0  0  0  0
 11  8  1  0  0  0  0
 12  8  1  6  0  0  0
 12  4  1  0  0  0  0
 12 27  1  0  0  0  0
 13 18  2  0  0  0  0
 15 23  1  0  0  0  0
 16  2  1  0  0  0  0
 17  3  2  0  0  0  0
 18 25  1  0  0  0  0
 19 26  1  0  0  0  0
 20 17  1  0  0  0  0
 20 22  2  0  0  0  0
 22 10  1  0  0  0  0
 23 14  2  0  0  0  0
 24 27  2  0  0  0  0
 26 17  1  0  0  0  0
 26 25  2  0  0  0  0
 27  7  1  0  0  0  0
 28 11  1  0  0  0  0
 29 30  1  0  0  0  0
 30 28  1  0  0  0  0
M  END
>  <MODEL>
9

>  <REMARK>
 VINA RESULT:      -7.3      2.196      2.978
  Name = 
  2 active torsions:
  status: ('A' for Active; 'I' for Inactive)
    1  A    between atoms: N_11  and  C_28
    2  A    between atoms: C_28  and  C_30
                            x       y       z     vdW  Elec       q    Type
                         _______ _______ _______ _____ _____    ______ ____

>  <TORSDO>
F 2

$$$$
