=
 OpenBabel11112416173D

 30 35  0  0  1  0  0  0  0  0999 V2000
  187.4710  176.4670  145.3480 C   0  0  0  0  0  0  0  0  0  0  0  0
  185.6480  177.6760  146.5920 C   0  0  0  0  0  0  0  0  0  0  0  0
  185.8420  177.6950  141.6640 N   0  0  0  0  0  2  0  0  0  0  0  0
  188.0550  176.0840  144.0990 C   0  0  0  0  0  0  0  0  0  0  0  0
  188.0860  176.0390  146.5310 C   0  0  0  0  0  3  0  0  0  0  0  0
  190.9250  174.0410  145.3020 O   0  0  0  0  0  1  0  0  0  0  0  0
  188.8560  174.0040  141.9000 C   0  0  1  0  0  3  0  0  0  0  0  0
  189.7900  174.8490  145.3030 C   0  0  0  0  0  0  0  0  0  0  0  0
  187.8860  174.8790  141.0970 C   0  0  2  0  0  3  0  0  0  0  0  0
  186.8000  177.1170  140.7880 C   0  0  0  0  0  0  0  0  0  0  0  0
  189.2310  175.2500  146.5200 C   0  0  0  0  0  0  0  0  0  0  0  0
  189.2110  175.2510  144.0880 C   0  0  0  0  0  0  0  0  0  0  0  0
  184.4920  178.4600  146.5510 C   0  0  0  0  0  3  0  0  0  0  0  0
  188.2270  174.7280  139.6880 N   0  0  0  0  0  2  0  0  0  0  0  0
  189.5920  173.1700  140.8800 C   0  0  0  0  0  2  0  0  0  0  0  0
  186.1360  177.3180  147.8430 O   0  0  0  0  0  1  0  0  0  0  0  0
  186.2980  177.3140  142.9540 C   0  0  0  0  0  0  0  0  0  0  0  0
  183.9410  178.8580  145.3360 C   0  0  0  0  0  3  0  0  0  0  0  0
  186.2850  177.2700  145.3840 C   0  0  0  0  0  0  0  0  0  0  0  0
  187.4400  176.5410  142.9170 C   0  0  0  0  0  0  0  0  0  0  0  0
  186.7510  177.2770  139.5400 O   0  0  0  0  0  0  0  0  0  0  0  0
  187.8820  176.3590  141.4950 C   0  0  1  0  0  3  0  0  0  0  0  0
  188.8690  173.4280  139.5790 C   0  0  0  0  0  2  0  0  0  0  0  0
  190.7380  175.7650  142.1430 C   0  0  0  0  0  1  0  0  0  0  0  0
  184.5440  178.4730  144.1430 C   0  0  0  0  0  3  0  0  0  0  0  0
  185.7010  177.6870  144.1540 C   0  0  0  0  0  0  0  0  0  0  0  0
  189.8460  174.7340  142.8230 C   0  0  2  0  0  3  0  0  0  0  0  0
  189.8270  174.8180  147.8230 C   0  0  0  0  0  2  0  0  0  0  0  0
  191.1670  176.9130  148.0740 C   0  0  0  0  0  1  0  0  0  0  0  0
  191.2220  175.3980  148.0090 C   0  0  0  0  0  2  0  0  0  0  0  0
  1 19  1  0  0  0  0
  1  5  1  0  0  0  0
  2 16  1  0  0  0  0
  3 17  1  0  0  0  0
  4  1  2  0  0  0  0
  6  8  1  0  0  0  0
  7 15  1  6  0  0  0
  7 27  1  0  0  0  0
  8 11  1  0  0  0  0
  9 14  1  6  0  0  0
  9 22  1  0  0  0  0
  9  7  1  0  0  0  0
 10  3  1  0  0  0  0
 11  5  2  0  0  0  0
 11 28  1  0  0  0  0
 12  4  1  0  0  0  0
 12  8  2  0  0  0  0
 13  2  1  0  0  0  0
 17 26  1  0  0  0  0
 18 13  2  0  0  0  0
 19  2  2  0  0  0  0
 20 17  2  0  0  0  0
 20  4  1  0  0  0  0
 21 10  2  0  0  0  0
 22 10  1  6  0  0  0
 22 20  1  0  0  0  0
 23 14  1  0  0  0  0
 23 15  1  0  0  0  0
 25 26  2  0  0  0  0
 25 18  1  0  0  0  0
 26 19  1  0  0  0  0
 27 24  1  6  0  0  0
 27 12  1  0  0  0  0
 28 30  1  0  0  0  0
 30 29  1  0  0  0  0
M  END
>  <MODEL>
1

>  <REMARK>
 VINA RESULT:      -9.4      0.000      0.000
  Name = 
  2 active torsions:
  status: ('A' for Active; 'I' for Inactive)
    1  A    between atoms: C_11  and  C_28
    2  A    between atoms: C_28  and  C_30
                            x       y       z     vdW  Elec       q    Type
                         _______ _______ _______ _____ _____    ______ ____

>  <TORSDO>
F 2

$$$$
=
 OpenBabel11112416173D

 30 35  0  0  1  0  0  0  0  0999 V2000
  186.2790  177.2850  143.7720 C   0  0  0  0  0  0  0  0  0  0  0  0
  184.6180  178.4910  145.2270 C   0  0  0  0  0  0  0  0  0  0  0  0
  188.4290  176.0390  147.1710 N   0  0  0  0  0  2  0  0  0  0  0  0
  187.4700  176.4990  143.6650 C   0  0  0  0  0  0  0  0  0  0  0  0
  185.6070  177.6390  142.5950 C   0  0  0  0  0  3  0  0  0  0  0  0
  187.7160  176.1550  139.9680 O   0  0  0  0  0  1  0  0  0  0  0  0
  190.4570  176.0320  142.8530 C   0  0  1  0  0  3  0  0  0  0  0  0
  187.2480  176.5140  141.2290 C   0  0  0  0  0  0  0  0  0  0  0  0
  190.5660  175.8630  144.3730 C   0  0  2  0  0  3  0  0  0  0  0  0
  189.4400  175.2710  146.5330 C   0  0  0  0  0  0  0  0  0  0  0  0
  186.0700  177.2580  141.3410 C   0  0  0  0  0  0  0  0  0  0  0  0
  187.9610  176.1350  142.3790 C   0  0  0  0  0  0  0  0  0  0  0  0
  184.1980  178.8580  146.5090 C   0  0  0  0  0  3  0  0  0  0  0  0
  191.7440  175.0470  144.6370 N   0  0  0  0  0  2  0  0  0  0  0  0
  191.7480  175.4900  142.2890 C   0  0  0  0  0  2  0  0  0  0  0  0
  183.8530  178.9280  144.1520 O   0  0  0  0  0  1  0  0  0  0  0  0
  187.6500  176.5290  146.0900 C   0  0  0  0  0  0  0  0  0  0  0  0
  184.9120  178.4600  147.6350 C   0  0  0  0  0  3  0  0  0  0  0  0
  185.7890  177.6990  145.0530 C   0  0  0  0  0  0  0  0  0  0  0  0
  188.1240  176.1300  144.8580 C   0  0  0  0  0  0  0  0  0  0  0  0
  190.3110  174.6340  147.1820 O   0  0  0  0  0  0  0  0  0  0  0  0
  189.3280  175.2540  145.0380 C   0  0  1  0  0  3  0  0  0  0  0  0
  192.6230  175.2490  143.4970 C   0  0  0  0  0  2  0  0  0  0  0  0
  189.0960  173.8780  142.3960 C   0  0  0  0  0  1  0  0  0  0  0  0
  186.0600  177.6880  147.4910 C   0  0  0  0  0  3  0  0  0  0  0  0
  186.5030  177.3080  146.2210 C   0  0  0  0  0  0  0  0  0  0  0  0
  189.2460  175.3780  142.1680 C   0  0  2  0  0  3  0  0  0  0  0  0
  185.3080  177.6840  140.1260 C   0  0  0  0  0  2  0  0  0  0  0  0
  182.8170  177.8360  140.2750 C   0  0  0  0  0  1  0  0  0  0  0  0
  184.1270  178.5690  140.5000 C   0  0  0  0  0  2  0  0  0  0  0  0
  1 19  1  0  0  0  0
  2 13  1  0  0  0  0
  4  1  1  0  0  0  0
  4 20  1  0  0  0  0
  5  1  2  0  0  0  0
  6  8  1  0  0  0  0
  7 15  1  6  0  0  0
  7  9  1  0  0  0  0
  8 11  2  0  0  0  0
  8 12  1  0  0  0  0
  9 14  1  6  0  0  0
  9 22  1  0  0  0  0
 10  3  1  0  0  0  0
 10 21  2  0  0  0  0
 11  5  1  0  0  0  0
 12  4  2  0  0  0  0
 13 18  2  0  0  0  0
 15 23  1  0  0  0  0
 16  2  1  0  0  0  0
 17 26  1  0  0  0  0
 17  3  1  0  0  0  0
 19  2  2  0  0  0  0
 19 26  1  0  0  0  0
 20 17  2  0  0  0  0
 22 20  1  1  0  0  0
 22 10  1  0  0  0  0
 23 14  1  0  0  0  0
 25 18  1  0  0  0  0
 26 25  2  0  0  0  0
 27 12  1  0  0  0  0
 27 24  1  1  0  0  0
 27  7  1  0  0  0  0
 28 30  1  0  0  0  0
 28 11  1  0  0  0  0
 29 30  1  0  0  0  0
M  END
>  <MODEL>
2

>  <REMARK>
 VINA RESULT:      -9.3      2.274      5.296
  Name = 
  2 active torsions:
  status: ('A' for Active; 'I' for Inactive)
    1  A    between atoms: C_11  and  C_28
    2  A    between atoms: C_28  and  C_30
                            x       y       z     vdW  Elec       q    Type
                         _______ _______ _______ _____ _____    ______ ____

>  <TORSDO>
F 2

$$$$
=
 OpenBabel11112416173D

 30 35  0  0  1  0  0  0  0  0999 V2000
  188.3300  176.0580  143.6290 C   0  0  0  0  0  0  0  0  0  0  0  0
  186.0470  177.0710  143.9370 C   0  0  0  0  0  0  0  0  0  0  0  0
  189.4660  177.3190  147.4820 N   0  0  0  0  0  2  0  0  0  0  0  0
  189.6380  175.8060  144.1500 C   0  0  0  0  0  0  0  0  0  0  0  0
  188.0200  175.5850  142.3470 C   0  0  0  0  0  3  0  0  0  0  0  0
  191.1650  173.9950  141.2790 O   0  0  0  0  0  1  0  0  0  0  0  0
  192.7470  176.1700  144.2150 C   0  0  1  0  0  3  0  0  0  0  0  0
  190.2370  174.6700  142.0680 C   0  0  0  0  0  0  0  0  0  0  0  0
  192.3850  176.7370  145.5930 C   0  0  2  0  0  3  0  0  0  0  0  0
  190.7810  176.7820  147.5190 C   0  0  0  0  0  0  0  0  0  0  0  0
  188.9470  174.8930  141.5750 C   0  0  0  0  0  0  0  0  0  0  0  0
  190.5980  175.1250  143.3470 C   0  0  0  0  0  0  0  0  0  0  0  0
  185.1540  177.7780  144.7470 C   0  0  0  0  0  3  0  0  0  0  0  0
  193.5660  176.6190  146.4380 N   0  0  0  0  0  2  0  0  0  0  0  0
  194.2410  175.9550  144.2440 C   0  0  0  0  0  2  0  0  0  0  0  0
  185.6000  176.6760  142.6820 O   0  0  0  0  0  1  0  0  0  0  0  0
  188.9950  176.9590  146.1920 C   0  0  0  0  0  0  0  0  0  0  0  0
  185.5280  178.2090  146.0160 C   0  0  0  0  0  3  0  0  0  0  0  0
  187.3620  176.7780  144.4010 C   0  0  0  0  0  0  0  0  0  0  0  0
  189.9290  176.2670  145.4500 C   0  0  0  0  0  0  0  0  0  0  0  0
  191.5130  176.8660  148.5400 O   0  0  0  0  0  0  0  0  0  0  0  0
  191.1760  176.0720  146.2590 C   0  0  1  0  0  3  0  0  0  0  0  0
  194.6990  176.6090  145.5260 C   0  0  0  0  0  2  0  0  0  0  0  0
  192.1600  173.7010  144.7300 C   0  0  0  0  0  1  0  0  0  0  0  0
  186.8070  177.9360  146.4910 C   0  0  0  0  0  3  0  0  0  0  0  0
  187.7210  177.2320  145.7020 C   0  0  0  0  0  0  0  0  0  0  0  0
  192.0200  174.8860  143.7810 C   0  0  2  0  0  3  0  0  0  0  0  0
  188.5510  174.4290  140.2090 C   0  0  0  0  0  2  0  0  0  0  0  0
  188.7750  172.2680  138.9740 C   0  0  0  0  0  1  0  0  0  0  0  0
  188.2130  172.9450  140.2090 C   0  0  0  0  0  2  0  0  0  0  0  0
  1  4  1  0  0  0  0
  1 19  1  0  0  0  0
  2 19  2  0  0  0  0
  2 13  1  0  0  0  0
  3 10  1  0  0  0  0
  4 20  1  0  0  0  0
  5  1  2  0  0  0  0
  6  8  1  0  0  0  0
  7 15  1  1  0  0  0
  7  9  1  0  0  0  0
  8 12  1  0  0  0  0
  9 22  1  0  0  0  0
  9 14  1  1  0  0  0
 10 21  2  0  0  0  0
 11  8  2  0  0  0  0
 11  5  1  0  0  0  0
 12 27  1  0  0  0  0
 12  4  2  0  0  0  0
 13 18  2  0  0  0  0
 15 23  1  0  0  0  0
 16  2  1  0  0  0  0
 17  3  1  0  0  0  0
 18 25  1  0  0  0  0
 19 26  1  0  0  0  0
 20 17  2  0  0  0  0
 22 20  1  6  0  0  0
 22 10  1  0  0  0  0
 23 14  1  0  0  0  0
 26 17  1  0  0  0  0
 26 25  2  0  0  0  0
 27  7  1  0  0  0  0
 27 24  1  1  0  0  0
 28 11  1  0  0  0  0
 29 30  1  0  0  0  0
 30 28  1  0  0  0  0
M  END
>  <MODEL>
3

>  <REMARK>
 VINA RESULT:      -8.5      2.930      5.623
  Name = 
  2 active torsions:
  status: ('A' for Active; 'I' for Inactive)
    1  A    between atoms: C_11  and  C_28
    2  A    between atoms: C_28  and  C_30
                            x       y       z     vdW  Elec       q    Type
                         _______ _______ _______ _____ _____    ______ ____

>  <TORSDO>
F 2

$$$$
=
 OpenBabel11112416173D

 30 35  0  0  1  0  0  0  0  0999 V2000
  188.9060  176.5200  145.4400 C   0  0  0  0  0  0  0  0  0  0  0  0
  186.8450  177.7660  146.1700 C   0  0  0  0  0  0  0  0  0  0  0  0
  187.1650  175.7390  141.6860 N   0  0  0  0  0  2  0  0  0  0  0  0
  189.5880  175.7650  144.4340 C   0  0  0  0  0  0  0  0  0  0  0  0
  189.5620  176.7580  146.6540 C   0  0  0  0  0  3  0  0  0  0  0  0
  192.7730  175.0140  146.2060 O   0  0  0  0  0  1  0  0  0  0  0  0
  190.8460  173.1470  143.2650 C   0  0  1  0  0  3  0  0  0  0  0  0
  191.5010  175.5120  145.9370 C   0  0  0  0  0  0  0  0  0  0  0  0
  189.7430  173.3980  142.2290 C   0  0  2  0  0  3  0  0  0  0  0  0
  188.2420  175.0410  141.0760 C   0  0  0  0  0  0  0  0  0  0  0  0
  190.8410  176.2750  146.9060 C   0  0  0  0  0  0  0  0  0  0  0  0
  190.8860  175.2440  144.7030 C   0  0  0  0  0  0  0  0  0  0  0  0
  185.5570  178.2210  145.8750 C   0  0  0  0  0  3  0  0  0  0  0  0
  190.1450  172.7340  140.9950 N   0  0  0  0  0  2  0  0  0  0  0  0
  191.7600  172.1190  142.6450 C   0  0  0  0  0  2  0  0  0  0  0  0
  187.3600  178.0710  147.4250 O   0  0  0  0  0  1  0  0  0  0  0  0
  187.6520  176.0340  142.9870 C   0  0  0  0  0  0  0  0  0  0  0  0
  184.9720  177.9560  144.6410 C   0  0  0  0  0  3  0  0  0  0  0  0
  187.5820  177.0180  145.2080 C   0  0  0  0  0  0  0  0  0  0  0  0
  188.9260  175.5530  143.2080 C   0  0  0  0  0  0  0  0  0  0  0  0
  188.1960  174.6470  139.8820 O   0  0  0  0  0  0  0  0  0  0  0  0
  189.4340  174.8760  141.9700 C   0  0  1  0  0  3  0  0  0  0  0  0
  191.0360  171.6590  141.4020 C   0  0  0  0  0  2  0  0  0  0  0  0
  192.3320  175.1710  142.6330 C   0  0  0  0  0  1  0  0  0  0  0  0
  185.6710  177.2260  143.6840 C   0  0  0  0  0  3  0  0  0  0  0  0
  186.9600  176.7570  143.9540 C   0  0  0  0  0  0  0  0  0  0  0  0
  191.6450  174.3730  143.7360 C   0  0  2  0  0  3  0  0  0  0  0  0
  191.4750  176.5560  148.2310 C   0  0  0  0  0  2  0  0  0  0  0  0
  191.5730  178.1270  150.1720 C   0  0  0  0  0  1  0  0  0  0  0  0
  191.0690  177.9250  148.7560 C   0  0  0  0  0  2  0  0  0  0  0  0
  1  5  1  0  0  0  0
  2 16  1  0  0  0  0
  3 17  1  0  0  0  0
  4 12  1  0  0  0  0
  4  1  2  0  0  0  0
  5 11  2  0  0  0  0
  7 15  1  6  0  0  0
  7 27  1  0  0  0  0
  8  6  1  0  0  0  0
  8 11  1  0  0  0  0
  9 14  1  6  0  0  0
  9  7  1  0  0  0  0
 10  3  1  0  0  0  0
 11 28  1  0  0  0  0
 12  8  2  0  0  0  0
 13  2  1  0  0  0  0
 14 23  1  0  0  0  0
 17 20  2  0  0  0  0
 17 26  1  0  0  0  0
 18 13  2  0  0  0  0
 19  1  1  0  0  0  0
 19  2  2  0  0  0  0
 20  4  1  0  0  0  0
 21 10  2  0  0  0  0
 22 10  1  6  0  0  0
 22  9  1  0  0  0  0
 22 20  1  0  0  0  0
 23 15  1  0  0  0  0
 25 26  2  0  0  0  0
 25 18  1  0  0  0  0
 26 19  1  0  0  0  0
 27 24  1  6  0  0  0
 27 12  1  0  0  0  0
 28 30  1  0  0  0  0
 30 29  1  0  0  0  0
M  END
>  <MODEL>
4

>  <REMARK>
 VINA RESULT:      -8.3      1.680      2.163
  Name = 
  2 active torsions:
  status: ('A' for Active; 'I' for Inactive)
    1  A    between atoms: C_11  and  C_28
    2  A    between atoms: C_28  and  C_30
                            x       y       z     vdW  Elec       q    Type
                         _______ _______ _______ _____ _____    ______ ____

>  <TORSDO>
F 2

$$$$
=
 OpenBabel11112416173D

 30 35  0  0  1  0  0  0  0  0999 V2000
  188.2300  175.9010  142.1690 C   0  0  0  0  0  0  0  0  0  0  0  0
  186.6550  176.9830  140.5320 C   0  0  0  0  0  0  0  0  0  0  0  0
  186.6110  178.1850  145.3140 N   0  0  0  0  0  2  0  0  0  0  0  0
  188.7180  175.7930  143.5100 C   0  0  0  0  0  0  0  0  0  0  0  0
  188.8040  175.0890  141.1830 C   0  0  0  0  0  3  0  0  0  0  0  0
  191.3780  173.2310  143.0480 O   0  0  0  0  0  1  0  0  0  0  0  0
  190.8950  176.1290  145.7350 C   0  0  1  0  0  3  0  0  0  0  0  0
  190.3330  174.1100  142.7730 C   0  0  0  0  0  0  0  0  0  0  0  0
  189.8100  177.0650  146.2810 C   0  0  2  0  0  3  0  0  0  0  0  0
  187.3790  177.6670  146.3910 C   0  0  0  0  0  0  0  0  0  0  0  0
  189.8320  174.1990  141.4710 C   0  0  0  0  0  0  0  0  0  0  0  0
  189.7930  174.9040  143.7980 C   0  0  0  0  0  0  0  0  0  0  0  0
  185.6280  177.8990  140.2900 C   0  0  0  0  0  3  0  0  0  0  0  0
  190.0150  177.1770  147.7200 N   0  0  0  0  0  2  0  0  0  0  0  0
  191.8600  175.9150  146.8760 C   0  0  0  0  0  2  0  0  0  0  0  0
  187.1320  176.2550  139.4490 O   0  0  0  0  0  1  0  0  0  0  0  0
  187.1040  177.4810  144.1840 C   0  0  0  0  0  0  0  0  0  0  0  0
  185.0970  178.6660  141.3230 C   0  0  0  0  0  3  0  0  0  0  0  0
  187.1780  176.8190  141.8470 C   0  0  0  0  0  0  0  0  0  0  0  0
  188.1160  176.5990  144.4970 C   0  0  0  0  0  0  0  0  0  0  0  0
  187.1940  178.0280  147.5830 O   0  0  0  0  0  0  0  0  0  0  0  0
  188.3740  176.6270  145.9740 C   0  0  1  0  0  3  0  0  0  0  0  0
  191.4260  176.8990  147.9360 C   0  0  0  0  0  2  0  0  0  0  0  0
  189.6120  173.9110  146.1150 C   0  0  0  0  0  1  0  0  0  0  0  0
  185.5930  178.5260  142.6160 C   0  0  0  0  0  3  0  0  0  0  0  0
  186.6210  177.6180  142.8850 C   0  0  0  0  0  0  0  0  0  0  0  0
  190.4230  174.7820  145.1620 C   0  0  2  0  0  3  0  0  0  0  0  0
  190.4080  173.3730  140.3640 C   0  0  0  0  0  2  0  0  0  0  0  0
  188.6680  172.3530  138.8880 C   0  0  0  0  0  1  0  0  0  0  0  0
  189.6020  173.5320  139.0830 C   0  0  0  0  0  2  0  0  0  0  0  0
  1  4  1  0  0  0  0
  2 19  1  0  0  0  0
  3 10  1  0  0  0  0
  4 12  1  0  0  0  0
  4 20  2  0  0  0  0
  5 11  2  0  0  0  0
  5  1  1  0  0  0  0
  7  9  1  0  0  0  0
  7 15  1  1  0  0  0
  8  6  1  0  0  0  0
  8 12  2  0  0  0  0
  9 14  1  1  0  0  0
 10 21  2  0  0  0  0
 11  8  1  0  0  0  0
 12 27  1  0  0  0  0
 13  2  2  0  0  0  0
 13 18  1  0  0  0  0
 14 23  1  0  0  0  0
 15 23  1  0  0  0  0
 16  2  1  0  0  0  0
 17 20  1  0  0  0  0
 17  3  1  0  0  0  0
 18 25  2  0  0  0  0
 19  1  2  0  0  0  0
 19 26  1  0  0  0  0
 22 20  1  6  0  0  0
 22  9  1  0  0  0  0
 22 10  1  0  0  0  0
 25 26  1  0  0  0  0
 26 17  2  0  0  0  0
 27  7  1  0  0  0  0
 27 24  1  1  0  0  0
 28 11  1  0  0  0  0
 29 30  1  0  0  0  0
 30 28  1  0  0  0  0
M  END
>  <MODEL>
5

>  <REMARK>
 VINA RESULT:      -8.2      2.004      5.655
  Name = 
  2 active torsions:
  status: ('A' for Active; 'I' for Inactive)
    1  A    between atoms: C_11  and  C_28
    2  A    between atoms: C_28  and  C_30
                            x       y       z     vdW  Elec       q    Type
                         _______ _______ _______ _____ _____    ______ ____

>  <TORSDO>
F 2

$$$$
=
 OpenBabel11112416173D

 30 35  0  0  1  0  0  0  0  0999 V2000
  187.7090  176.2280  142.3100 C   0  0  0  0  0  0  0  0  0  0  0  0
  186.1020  178.1560  142.4890 C   0  0  0  0  0  0  0  0  0  0  0  0
  188.5710  176.4970  146.4220 N   0  0  0  0  0  2  0  0  0  0  0  0
  188.6500  175.3560  142.9420 C   0  0  0  0  0  0  0  0  0  0  0  0
  187.4580  176.0590  140.9420 C   0  0  0  0  0  3  0  0  0  0  0  0
  189.7020  173.2850  140.0340 O   0  0  0  0  0  1  0  0  0  0  0  0
  191.5270  174.2270  143.4450 C   0  0  1  0  0  3  0  0  0  0  0  0
  189.0450  174.2460  140.7980 C   0  0  0  0  0  0  0  0  0  0  0  0
  191.2130  174.7840  144.8390 C   0  0  2  0  0  3  0  0  0  0  0  0
  189.4780  175.4100  146.5370 C   0  0  0  0  0  0  0  0  0  0  0  0
  188.1030  175.0830  140.1920 C   0  0  0  0  0  0  0  0  0  0  0  0
  189.3330  174.3760  142.1670 C   0  0  0  0  0  0  0  0  0  0  0  0
  185.4880  179.1290  143.2830 C   0  0  0  0  0  3  0  0  0  0  0  0
  192.0440  174.0610  145.7940 N   0  0  0  0  0  2  0  0  0  0  0  0
  192.7360  173.3420  143.6230 C   0  0  0  0  0  2  0  0  0  0  0  0
  185.7600  178.1190  141.1430 O   0  0  0  0  0  1  0  0  0  0  0  0
  188.2310  176.5040  145.0440 C   0  0  0  0  0  0  0  0  0  0  0  0
  185.7780  179.2310  144.6400 C   0  0  0  0  0  3  0  0  0  0  0  0
  187.0400  177.2490  143.0600 C   0  0  0  0  0  0  0  0  0  0  0  0
  188.8760  175.5210  144.3240 C   0  0  0  0  0  0  0  0  0  0  0  0
  189.9730  175.0610  147.6410 O   0  0  0  0  0  0  0  0  0  0  0  0
  189.7360  174.7030  145.2400 C   0  0  1  0  0  3  0  0  0  0  0  0
  193.1970  173.6010  145.0380 C   0  0  0  0  0  2  0  0  0  0  0  0
  189.8200  172.2810  143.4930 C   0  0  0  0  0  1  0  0  0  0  0  0
  186.6920  178.3580  145.2210 C   0  0  0  0  0  3  0  0  0  0  0  0
  187.3230  177.3760  144.4500 C   0  0  0  0  0  0  0  0  0  0  0  0
  190.3960  173.4690  142.7300 C   0  0  2  0  0  3  0  0  0  0  0  0
  187.7960  174.9690  138.7320 C   0  0  0  0  0  2  0  0  0  0  0  0
  186.6290  176.0030  136.7790 C   0  0  0  0  0  1  0  0  0  0  0  0
  186.9100  176.1150  138.2650 C   0  0  0  0  0  2  0  0  0  0  0  0
  1  4  1  0  0  0  0
  1 19  1  0  0  0  0
  2 19  2  0  0  0  0
  2 13  1  0  0  0  0
  3 10  1  0  0  0  0
  4 20  1  0  0  0  0
  5  1  2  0  0  0  0
  6  8  1  0  0  0  0
  7 15  1  1  0  0  0
  7  9  1  0  0  0  0
  8 12  1  0  0  0  0
  9 22  1  0  0  0  0
  9 14  1  1  0  0  0
 10 21  2  0  0  0  0
 11  8  2  0  0  0  0
 11  5  1  0  0  0  0
 12 27  1  0  0  0  0
 12  4  2  0  0  0  0
 13 18  2  0  0  0  0
 15 23  1  0  0  0  0
 16  2  1  0  0  0  0
 17  3  1  0  0  0  0
 18 25  1  0  0  0  0
 19 26  1  0  0  0  0
 20 17  2  0  0  0  0
 22 20  1  6  0  0  0
 22 10  1  0  0  0  0
 23 14  1  0  0  0  0
 26 17  1  0  0  0  0
 26 25  2  0  0  0  0
 27  7  1  0  0  0  0
 27 24  1  1  0  0  0
 28 11  1  0  0  0  0
 29 30  1  0  0  0  0
 30 28  1  0  0  0  0
M  END
>  <MODEL>
6

>  <REMARK>
 VINA RESULT:      -8.0      2.601      5.606
  Name = 
  2 active torsions:
  status: ('A' for Active; 'I' for Inactive)
    1  A    between atoms: C_11  and  C_28
    2  A    between atoms: C_28  and  C_30
                            x       y       z     vdW  Elec       q    Type
                         _______ _______ _______ _____ _____    ______ ____

>  <TORSDO>
F 2

$$$$
=
 OpenBabel11112416173D

 30 35  0  0  1  0  0  0  0  0999 V2000
  189.1290  176.1200  144.9870 C   0  0  0  0  0  0  0  0  0  0  0  0
  190.2190  176.9610  147.0940 C   0  0  0  0  0  0  0  0  0  0  0  0
  191.9630  173.0190  144.7000 N   0  0  0  0  0  2  0  0  0  0  0  0
  189.1120  175.1790  143.9100 C   0  0  0  0  0  0  0  0  0  0  0  0
  188.1380  177.1080  145.0260 C   0  0  0  0  0  3  0  0  0  0  0  0
  186.1750  176.4180  141.9880 O   0  0  0  0  0  1  0  0  0  0  0  0
  189.4030  174.3560  140.9030 C   0  0  1  0  0  3  0  0  0  0  0  0
  187.1500  176.3030  142.9760 C   0  0  0  0  0  0  0  0  0  0  0  0
  190.5360  173.5240  141.5170 C   0  0  2  0  0  3  0  0  0  0  0  0
  191.4730  172.3690  143.5350 C   0  0  0  0  0  0  0  0  0  0  0  0
  187.1550  177.2020  144.0470 C   0  0  0  0  0  0  0  0  0  0  0  0
  188.1240  175.2940  142.8900 C   0  0  0  0  0  0  0  0  0  0  0  0
  191.2320  176.8330  148.0470 C   0  0  0  0  0  3  0  0  0  0  0  0
  190.7860  172.4000  140.6230 N   0  0  0  0  0  2  0  0  0  0  0  0
  189.1940  173.7970  139.5160 C   0  0  0  0  0  2  0  0  0  0  0  0
  189.3120  178.0010  147.2590 O   0  0  0  0  0  1  0  0  0  0  0  0
  191.0720  174.1100  144.8730 C   0  0  0  0  0  0  0  0  0  0  0  0
  192.1790  175.8180  147.9510 C   0  0  0  0  0  3  0  0  0  0  0  0
  190.1390  176.0500  146.0020 C   0  0  0  0  0  0  0  0  0  0  0  0
  190.1020  174.1760  143.8950 C   0  0  0  0  0  0  0  0  0  0  0  0
  191.9920  171.3140  143.0850 O   0  0  0  0  0  0  0  0  0  0  0  0
  190.2650  173.0300  142.9420 C   0  0  1  0  0  3  0  0  0  0  0  0
  190.3440  172.8410  139.3090 C   0  0  0  0  0  2  0  0  0  0  0  0
  187.4410  173.0440  141.9670 C   0  0  0  0  0  1  0  0  0  0  0  0
  192.1230  174.9160  146.8930 C   0  0  0  0  0  3  0  0  0  0  0  0
  191.1210  175.0220  145.9240 C   0  0  0  0  0  0  0  0  0  0  0  0
  188.0770  174.3990  141.6790 C   0  0  2  0  0  3  0  0  0  0  0  0
  186.1350  178.2920  144.1440 C   0  0  0  0  0  2  0  0  0  0  0  0
  184.3590  178.6650  145.8630 C   0  0  0  0  0  1  0  0  0  0  0  0
  185.8530  178.6520  145.5960 C   0  0  0  0  0  2  0  0  0  0  0  0
  1  5  1  0  0  0  0
  1 19  1  0  0  0  0
  2 16  1  0  0  0  0
  2 13  1  0  0  0  0
  3 17  1  0  0  0  0
  4  1  2  0  0  0  0
  6  8  1  0  0  0  0
  7 15  1  6  0  0  0
  7  9  1  0  0  0  0
  7 27  1  0  0  0  0
  8 11  1  0  0  0  0
  9 14  1  6  0  0  0
  9 22  1  0  0  0  0
 10  3  1  0  0  0  0
 11 28  1  0  0  0  0
 11  5  2  0  0  0  0
 12  8  2  0  0  0  0
 12  4  1  0  0  0  0
 17 26  1  0  0  0  0
 18 13  2  0  0  0  0
 19  2  2  0  0  0  0
 20  4  1  0  0  0  0
 20 17  2  0  0  0  0
 21 10  2  0  0  0  0
 22 10  1  1  0  0  0
 22 20  1  0  0  0  0
 23 15  1  0  0  0  0
 23 14  1  0  0  0  0
 25 18  1  0  0  0  0
 26 19  1  0  0  0  0
 26 25  2  0  0  0  0
 27 24  1  1  0  0  0
 27 12  1  0  0  0  0
 28 30  1  0  0  0  0
 30 29  1  0  0  0  0
M  END
>  <MODEL>
7

>  <REMARK>
 VINA RESULT:      -7.9      2.179      5.276
  Name = 
  2 active torsions:
  status: ('A' for Active; 'I' for Inactive)
    1  A    between atoms: C_11  and  C_28
    2  A    between atoms: C_28  and  C_30
                            x       y       z     vdW  Elec       q    Type
                         _______ _______ _______ _____ _____    ______ ____

>  <TORSDO>
F 2

$$$$
=
 OpenBabel11112416173D

 30 35  0  0  1  0  0  0  0  0999 V2000
  187.0610  177.0400  143.7000 C   0  0  0  0  0  0  0  0  0  0  0  0
  185.2570  178.3500  142.5300 C   0  0  0  0  0  0  0  0  0  0  0  0
  188.2150  175.2760  140.0550 N   0  0  0  0  0  2  0  0  0  0  0  0
  188.1220  176.0850  143.6270 C   0  0  0  0  0  0  0  0  0  0  0  0
  186.7520  177.6010  144.9460 C   0  0  0  0  0  3  0  0  0  0  0  0
  189.1260  175.9260  147.2080 O   0  0  0  0  0  1  0  0  0  0  0  0
  189.4400  173.3080  144.2250 C   0  0  1  0  0  3  0  0  0  0  0  0
  188.4580  176.2920  146.0420 C   0  0  0  0  0  0  0  0  0  0  0  0
  189.3750  173.2470  142.6940 C   0  0  2  0  0  3  0  0  0  0  0  0
  189.3050  174.4900  140.5180 C   0  0  0  0  0  0  0  0  0  0  0  0
  187.4390  177.2470  146.1010 C   0  0  0  0  0  0  0  0  0  0  0  0
  188.8050  175.6980  144.8160 C   0  0  0  0  0  0  0  0  0  0  0  0
  184.5910  178.6660  141.3430 C   0  0  0  0  0  3  0  0  0  0  0  0
  190.4020  172.3120  142.2520 N   0  0  0  0  0  2  0  0  0  0  0  0
  190.3700  172.1930  144.6380 C   0  0  0  0  0  2  0  0  0  0  0  0
  184.8300  178.9790  143.6930 O   0  0  0  0  0  1  0  0  0  0  0  0
  187.7350  175.9070  141.2340 C   0  0  0  0  0  0  0  0  0  0  0  0
  184.9590  178.0760  140.1380 C   0  0  0  0  0  3  0  0  0  0  0  0
  186.3310  177.4130  142.5240 C   0  0  0  0  0  0  0  0  0  0  0  0
  188.4380  175.5460  142.3640 C   0  0  0  0  0  0  0  0  0  0  0  0
  190.0190  173.8060  139.7380 O   0  0  0  0  0  0  0  0  0  0  0  0
  189.5420  174.6000  141.9940 C   0  0  1  0  0  3  0  0  0  0  0  0
  190.6150  171.4080  143.3710 C   0  0  0  0  0  2  0  0  0  0  0  0
  191.2370  175.1650  144.3880 C   0  0  0  0  0  1  0  0  0  0  0  0
  186.0040  177.1580  140.1060 C   0  0  0  0  0  3  0  0  0  0  0  0
  186.6870  176.8220  141.2790 C   0  0  0  0  0  0  0  0  0  0  0  0
  189.8800  174.6430  144.8480 C   0  0  2  0  0  3  0  0  0  0  0  0
  187.0460  177.8760  147.4010 C   0  0  0  0  0  2  0  0  0  0  0  0
  184.5850  178.2910  147.2700 C   0  0  0  0  0  1  0  0  0  0  0  0
  185.9620  178.9240  147.1980 C   0  0  0  0  0  2  0  0  0  0  0  0
  1  5  2  0  0  0  0
  2 16  1  0  0  0  0
  3 10  1  0  0  0  0
  3 17  1  0  0  0  0
  4  1  1  0  0  0  0
  4 12  2  0  0  0  0
  5 11  1  0  0  0  0
  7 15  1  6  0  0  0
  7 27  1  0  0  0  0
  8 11  2  0  0  0  0
  8  6  1  0  0  0  0
  9 14  1  6  0  0  0
  9  7  1  0  0  0  0
 11 28  1  0  0  0  0
 12 27  1  0  0  0  0
 12  8  1  0  0  0  0
 13  2  2  0  0  0  0
 14 23  1  0  0  0  0
 17 26  1  0  0  0  0
 17 20  2  0  0  0  0
 18 13  1  0  0  0  0
 19  2  1  0  0  0  0
 19  1  1  0  0  0  0
 20  4  1  0  0  0  0
 21 10  2  0  0  0  0
 22 10  1  6  0  0  0
 22 20  1  0  0  0  0
 22  9  1  0  0  0  0
 23 15  1  0  0  0  0
 25 18  2  0  0  0  0
 25 26  1  0  0  0  0
 26 19  2  0  0  0  0
 27 24  1  6  0  0  0
 30 29  1  0  0  0  0
 30 28  1  0  0  0  0
M  END
>  <MODEL>
8

>  <REMARK>
 VINA RESULT:      -7.9      2.077      3.712
  Name = 
  2 active torsions:
  status: ('A' for Active; 'I' for Inactive)
    1  A    between atoms: C_11  and  C_28
    2  A    between atoms: C_28  and  C_30
                            x       y       z     vdW  Elec       q    Type
                         _______ _______ _______ _____ _____    ______ ____

>  <TORSDO>
F 2

$$$$
=
 OpenBabel11112416173D

 30 35  0  0  1  0  0  0  0  0999 V2000
  189.6050  175.8560  144.7900 C   0  0  0  0  0  0  0  0  0  0  0  0
  191.1270  176.5870  146.6560 C   0  0  0  0  0  0  0  0  0  0  0  0
  192.5220  173.1600  143.3960 N   0  0  0  0  0  2  0  0  0  0  0  0
  189.3890  175.0430  143.6330 C   0  0  0  0  0  0  0  0  0  0  0  0
  188.5760  176.7110  145.2050 C   0  0  0  0  0  3  0  0  0  0  0  0
  185.9580  176.1280  142.6820 O   0  0  0  0  0  1  0  0  0  0  0  0
  188.9590  174.5910  140.5650 C   0  0  1  0  0  3  0  0  0  0  0  0
  187.1620  176.0230  143.3730 C   0  0  0  0  0  0  0  0  0  0  0  0
  190.2790  173.8370  140.7620 C   0  0  2  0  0  3  0  0  0  0  0  0
  191.8040  172.5880  142.3110 C   0  0  0  0  0  0  0  0  0  0  0  0
  187.3680  176.7940  144.5210 C   0  0  0  0  0  0  0  0  0  0  0  0
  188.1640  175.1510  142.9140 C   0  0  0  0  0  0  0  0  0  0  0  0
  192.3610  176.4750  147.3030 C   0  0  0  0  0  3  0  0  0  0  0  0
  190.3840  172.8540  139.6910 N   0  0  0  0  0  2  0  0  0  0  0  0
  188.4450  174.1660  139.2100 C   0  0  0  0  0  2  0  0  0  0  0  0
  190.2080  177.4890  147.1780 O   0  0  0  0  0  1  0  0  0  0  0  0
  191.6160  174.1140  143.9290 C   0  0  0  0  0  0  0  0  0  0  0  0
  193.3340  175.5950  146.8400 C   0  0  0  0  0  3  0  0  0  0  0  0
  190.8450  175.7960  145.5040 C   0  0  0  0  0  0  0  0  0  0  0  0
  190.4230  174.1700  143.2390 C   0  0  0  0  0  0  0  0  0  0  0  0
  192.2770  171.6560  141.6090 O   0  0  0  0  0  0  0  0  0  0  0  0
  190.4320  173.1620  142.1290 C   0  0  1  0  0  3  0  0  0  0  0  0
  189.5800  173.3790  138.5990 C   0  0  0  0  0  2  0  0  0  0  0  0
  187.4610  172.9490  141.8930 C   0  0  0  0  0  1  0  0  0  0  0  0
  193.0830  174.8140  145.7160 C   0  0  0  0  0  3  0  0  0  0  0  0
  191.8580  174.9060  145.0480 C   0  0  0  0  0  0  0  0  0  0  0  0
  187.8810  174.3930  141.6430 C   0  0  2  0  0  3  0  0  0  0  0  0
  186.3180  177.7400  145.0140 C   0  0  0  0  0  2  0  0  0  0  0  0
  184.4390  178.0740  146.6270 C   0  0  0  0  0  1  0  0  0  0  0  0
  185.4130  177.0710  146.0380 C   0  0  0  0  0  2  0  0  0  0  0  0
  1  5  1  0  0  0  0
  1 19  1  0  0  0  0
  2 16  1  0  0  0  0
  2 13  1  0  0  0  0
  3 17  1  0  0  0  0
  4  1  2  0  0  0  0
  6  8  1  0  0  0  0
  7 15  1  6  0  0  0
  7  9  1  0  0  0  0
  7 27  1  0  0  0  0
  8 11  1  0  0  0  0
  9 14  1  6  0  0  0
  9 22  1  0  0  0  0
 10  3  1  0  0  0  0
 11 28  1  0  0  0  0
 11  5  2  0  0  0  0
 12  8  2  0  0  0  0
 12  4  1  0  0  0  0
 17 26  1  0  0  0  0
 18 13  2  0  0  0  0
 19  2  2  0  0  0  0
 20  4  1  0  0  0  0
 20 17  2  0  0  0  0
 21 10  2  0  0  0  0
 22 10  1  6  0  0  0
 22 20  1  0  0  0  0
 23 15  1  0  0  0  0
 23 14  1  0  0  0  0
 25 18  1  0  0  0  0
 26 19  1  0  0  0  0
 26 25  2  0  0  0  0
 27 24  1  1  0  0  0
 27 12  1  0  0  0  0
 28 30  1  0  0  0  0
 30 29  1  0  0  0  0
M  END
>  <MODEL>
9

>  <REMARK>
 VINA RESULT:      -7.8      2.265      5.368
  Name = 
  2 active torsions:
  status: ('A' for Active; 'I' for Inactive)
    1  A    between atoms: C_11  and  C_28
    2  A    between atoms: C_28  and  C_30
                            x       y       z     vdW  Elec       q    Type
                         _______ _______ _______ _____ _____    ______ ____

>  <TORSDO>
F 2

$$$$
