=
 OpenBabel11112416353D

 32 37  0  0  1  0  0  0  0  0999 V2000
  185.0580  179.5390  143.9860 C   0  0  0  0  0  2  0  0  0  0  0  0
  189.2110  175.9370  144.1280 C   0  0  2  0  0  3  0  0  0  0  0  0
  189.4660  172.5670  140.8750 C   0  0  0  0  0  2  0  0  0  0  0  0
  190.7600  173.0860  140.2270 C   0  0  0  0  0  2  0  0  0  0  0  0
  191.2200  176.0870  145.6690 C   0  0  0  0  0  0  0  0  0  0  0  0
  192.6650  176.0900  145.8160 C   0  0  0  0  0  0  0  0  0  0  0  0
  187.1510  177.3430  144.5240 C   0  0  2  0  0  3  0  0  0  0  0  0
  187.3700  176.0490  142.3680 C   0  0  0  0  0  2  0  0  0  0  0  0
  194.7410  175.7010  145.2680 N   0  0  0  0  0  0  0  0  0  0  0  0
  185.2820  177.2670  142.8260 C   0  0  0  0  0  2  0  0  0  0  0  0
  188.7170  173.6700  141.6550 C   0  0  0  0  0  2  0  0  0  0  0  0
  188.8770  175.9350  142.6230 C   0  0  2  0  0  3  0  0  0  0  0  0
  189.5410  174.8760  141.8280 N   0  0  1  0  0  0  0  0  0  0  0  0
  191.5480  175.5070  143.1990 C   0  0  2  0  0  3  0  0  0  0  0  0
  194.7530  176.1650  146.5100 N   0  0  0  0  0  0  0  0  0  0  0  0
  185.2990  178.7680  145.1290 O   0  0  0  0  0  0  0  0  0  0  0  0
  186.7950  177.3030  143.0210 C   0  0  1  0  0  3  0  0  0  0  0  0
  193.4760  176.4160  146.8880 C   0  0  0  0  0  3  0  0  0  0  0  0
  186.6910  178.6440  145.1790 C   0  0  0  0  0  2  0  0  0  0  0  0
  184.6480  178.6640  142.8000 C   0  0  1  0  0  3  0  0  0  0  0  0
  191.6650  173.8150  141.2350 C   0  0  0  0  0  2  0  0  0  0  0  0
  190.8370  174.4390  142.3650 C   0  0  2  0  0  3  0  0  0  0  0  0
  192.9610  175.0010  143.5920 C   0  0  0  0  0  2  0  0  0  0  0  0
  188.6610  177.2410  144.7120 C   0  0  0  0  0  2  0  0  0  0  0  0
  190.4790  176.2820  146.6700 O   0  0  0  0  0  0  0  0  0  0  0  0
  195.9240  175.2560  144.5540 C   0  0  0  0  0  1  0  0  0  0  0  0
  190.6670  175.8350  144.3540 N   0  0  0  0  0  0  0  0  0  0  0  0
  193.4770  175.6660  144.8220 C   0  0  0  0  0  0  0  0  0  0  0  0
  183.1320  178.5460  142.7620 C   0  0  0  0  0  2  0  0  0  0  0  0
  182.6550  178.2910  141.3730 C   0  0  0  0  0  0  0  0  0  0  0  0
  183.5250  178.4410  140.3010 O   0  0  0  0  0  0  0  0  0  0  0  0
  181.4710  177.9160  141.1720 O   0  0  0  0  0  1  0  0  0  0  0  0
  1 16  1  0  0  0  0
  2 27  1  0  0  0  0
  2 24  1  6  0  0  0
  3 11  1  0  0  0  0
  4  3  1  0  0  0  0
  4 21  1  0  0  0  0
  5  6  1  0  0  0  0
  5 25  2  0  0  0  0
  6 18  1  0  0  0  0
  7 24  1  6  0  0  0
  7 19  1  0  0  0  0
  9 15  1  0  0  0  0
 10 17  1  0  0  0  0
 12  8  1  1  0  0  0
 12  2  1  0  0  0  0
 13 11  1  1  0  0  0
 13 22  1  0  0  0  0
 13 12  1  0  0  0  0
 14 23  1  1  0  0  0
 14 27  1  0  0  0  0
 15 18  2  0  0  0  0
 16 19  1  0  0  0  0
 17  8  1  1  0  0  0
 17  7  1  0  0  0  0
 20 29  1  1  0  0  0
 20 10  1  0  0  0  0
 20  1  1  0  0  0  0
 22 21  1  6  0  0  0
 22 14  1  0  0  0  0
 23 28  1  0  0  0  0
 26  9  1  0  0  0  0
 27  5  1  0  0  0  0
 28  9  1  0  0  0  0
 28  6  2  0  0  0  0
 30 29  1  0  0  0  0
 31 30  2  0  0  0  0
 32 30  1  0  0  0  0
M  END
>  <MODEL>
1

>  <REMARK>
 VINA RESULT:      -8.4      0.000      0.000
  Name = 
  2 active torsions:
  status: ('A' for Active; 'I' for Inactive)
    1  A    between atoms: C_20  and  C_29
    2  A    between atoms: C_29  and  C_30
                            x       y       z     vdW  Elec       q    Type
                         _______ _______ _______ _____ _____    ______ ____

>  <TORSDO>
F 2

$$$$
=
 OpenBabel11112416353D

 32 37  0  0  1  0  0  0  0  0999 V2000
  185.9340  176.6510  143.7200 C   0  0  0  0  0  2  0  0  0  0  0  0
  191.1070  174.9880  142.8720 C   0  0  2  0  0  3  0  0  0  0  0  0
  194.5740  176.7850  145.4730 C   0  0  0  0  0  2  0  0  0  0  0  0
  194.9250  175.4660  146.1810 C   0  0  0  0  0  2  0  0  0  0  0  0
  191.7960  173.0810  141.3480 C   0  0  0  0  0  0  0  0  0  0  0  0
  192.5310  171.8400  141.1790 C   0  0  0  0  0  0  0  0  0  0  0  0
  188.7850  175.9750  142.7670 C   0  0  2  0  0  3  0  0  0  0  0  0
  190.3240  176.6330  144.6560 C   0  0  0  0  0  2  0  0  0  0  0  0
  194.0360  170.3220  141.6140 N   0  0  0  0  0  0  0  0  0  0  0  0
  188.1340  177.7360  144.4560 C   0  0  0  0  0  2  0  0  0  0  0  0
  193.1340  176.7850  144.9140 C   0  0  0  0  0  2  0  0  0  0  0  0
  191.1730  175.3920  144.3590 C   0  0  2  0  0  3  0  0  0  0  0  0
  192.5330  175.4420  144.9420 N   0  0  1  0  0  0  0  0  0  0  0  0
  192.8450  173.3000  143.6700 C   0  0  2  0  0  3  0  0  0  0  0  0
  193.4580  169.9720  140.4740 N   0  0  0  0  0  0  0  0  0  0  0  0
  186.5230  176.7580  142.4550 O   0  0  0  0  0  0  0  0  0  0  0  0
  188.8700  176.4170  144.2450 C   0  0  1  0  0  3  0  0  0  0  0  0
  192.5160  170.8970  140.1680 C   0  0  0  0  0  3  0  0  0  0  0  0
  187.3520  175.6350  142.3600 C   0  0  0  0  0  2  0  0  0  0  0  0
  186.6380  177.5490  144.7390 C   0  0  1  0  0  3  0  0  0  0  0  0
  194.6330  174.2380  145.3020 C   0  0  0  0  0  2  0  0  0  0  0  0
  193.4960  174.5270  144.3150 C   0  0  2  0  0  3  0  0  0  0  0  0
  193.9510  172.3320  143.1700 C   0  0  0  0  0  2  0  0  0  0  0  0
  189.6360  174.7290  142.5380 C   0  0  0  0  0  2  0  0  0  0  0  0
  191.0830  173.5300  140.4100 O   0  0  0  0  0  0  0  0  0  0  0  0
  195.1460  169.6050  142.2180 C   0  0  0  0  0  1  0  0  0  0  0  0
  191.9240  173.7870  142.6070 N   0  0  0  0  0  0  0  0  0  0  0  0
  193.4710  171.4500  142.0690 C   0  0  0  0  0  0  0  0  0  0  0  0
  185.9440  178.9020  144.7820 C   0  0  0  0  0  2  0  0  0  0  0  0
  185.0770  179.0150  145.9900 C   0  0  0  0  0  0  0  0  0  0  0  0
  183.7080  178.8100  145.8850 O   0  0  0  0  0  0  0  0  0  0  0  0
  185.5900  179.2720  147.1100 O   0  0  0  0  0  1  0  0  0  0  0  0
  1 20  1  0  0  0  0
  2 24  1  1  0  0  0
  2 12  1  0  0  0  0
  3  4  1  0  0  0  0
  5 27  1  0  0  0  0
  6  5  1  0  0  0  0
  6 28  2  0  0  0  0
  7 19  1  1  0  0  0
  7 17  1  0  0  0  0
  9 28  1  0  0  0  0
  9 26  1  0  0  0  0
 10 20  1  0  0  0  0
 11  3  1  0  0  0  0
 12  8  1  6  0  0  0
 12 13  1  0  0  0  0
 13 11  1  6  0  0  0
 14 23  1  6  0  0  0
 14 22  1  0  0  0  0
 15  9  1  0  0  0  0
 16  1  1  0  0  0  0
 17 10  1  6  0  0  0
 17  8  1  0  0  0  0
 18 15  2  0  0  0  0
 18  6  1  0  0  0  0
 19 16  1  0  0  0  0
 20 29  1  6  0  0  0
 21  4  1  0  0  0  0
 22 13  1  0  0  0  0
 22 21  1  1  0  0  0
 24  7  1  0  0  0  0
 25  5  2  0  0  0  0
 27  2  1  0  0  0  0
 27 14  1  0  0  0  0
 28 23  1  0  0  0  0
 29 30  1  0  0  0  0
 30 32  1  0  0  0  0
 31 30  2  0  0  0  0
M  END
>  <MODEL>
2

>  <REMARK>
 VINA RESULT:      -7.9      2.798      5.172
  Name = 
  2 active torsions:
  status: ('A' for Active; 'I' for Inactive)
    1  A    between atoms: C_20  and  C_29
    2  A    between atoms: C_29  and  C_30
                            x       y       z     vdW  Elec       q    Type
                         _______ _______ _______ _____ _____    ______ ____

>  <TORSDO>
F 2

$$$$
=
 OpenBabel11112416353D

 32 37  0  0  1  0  0  0  0  0999 V2000
  185.1920  177.3450  144.4730 C   0  0  0  0  0  2  0  0  0  0  0  0
  189.6110  174.6850  142.5660 C   0  0  2  0  0  3  0  0  0  0  0  0
  193.5120  174.5130  145.1660 C   0  0  0  0  0  2  0  0  0  0  0  0
  193.4690  172.9940  145.3960 C   0  0  0  0  0  2  0  0  0  0  0  0
  189.6640  173.2600  140.4680 C   0  0  0  0  0  0  0  0  0  0  0  0
  189.9900  171.9880  139.8480 C   0  0  0  0  0  0  0  0  0  0  0  0
  187.6880  176.2530  143.0350 C   0  0  2  0  0  3  0  0  0  0  0  0
  189.3950  175.8140  144.8410 C   0  0  0  0  0  2  0  0  0  0  0  0
  190.9820  170.0570  139.6260 N   0  0  0  0  0  0  0  0  0  0  0  0
  187.6310  177.4820  145.2410 C   0  0  0  0  0  2  0  0  0  0  0  0
  192.1260  175.0930  144.8040 C   0  0  0  0  0  2  0  0  0  0  0  0
  189.8270  174.5520  144.0870 C   0  0  2  0  0  3  0  0  0  0  0  0
  191.1530  174.0330  144.4960 N   0  0  1  0  0  0  0  0  0  0  0  0
  190.7820  172.4180  142.6090 C   0  0  2  0  0  3  0  0  0  0  0  0
  190.3000  170.2680  138.5090 N   0  0  0  0  0  0  0  0  0  0  0  0
  185.7580  177.6870  143.2390 O   0  0  0  0  0  0  0  0  0  0  0  0
  187.9340  176.1530  144.5570 C   0  0  1  0  0  3  0  0  0  0  0  0
  189.6710  171.4650  138.6080 C   0  0  0  0  0  3  0  0  0  0  0  0
  186.2110  176.4730  142.7140 C   0  0  0  0  0  2  0  0  0  0  0  0
  186.1540  177.6350  145.6260 C   0  0  1  0  0  3  0  0  0  0  0  0
  192.8030  172.2470  144.2280 C   0  0  0  0  0  2  0  0  0  0  0  0
  191.7830  173.1410  143.5140 C   0  0  2  0  0  3  0  0  0  0  0  0
  191.5360  171.3980  141.7150 C   0  0  0  0  0  2  0  0  0  0  0  0
  188.1220  174.9640  142.3430 C   0  0  0  0  0  2  0  0  0  0  0  0
  189.0970  174.1660  139.7990 O   0  0  0  0  0  0  0  0  0  0  0  0
  191.8390  168.9070  139.8510 C   0  0  0  0  0  1  0  0  0  0  0  0
  190.0250  173.4570  141.8570 N   0  0  0  0  0  0  0  0  0  0  0  0
  190.7900  171.0880  140.4620 C   0  0  0  0  0  0  0  0  0  0  0  0
  185.8970  179.0370  146.1560 C   0  0  0  0  0  2  0  0  0  0  0  0
  186.0550  179.0820  147.6380 C   0  0  0  0  0  0  0  0  0  0  0  0
  185.9410  177.9160  148.3840 O   0  0  0  0  0  1  0  0  0  0  0  0
  186.3160  180.1710  148.2110 O   0  0  0  0  0  0  0  0  0  0  0  0
  1 20  1  0  0  0  0
  2 24  1  1  0  0  0
  2 12  1  0  0  0  0
  3  4  1  0  0  0  0
  5 27  1  0  0  0  0
  6 28  2  0  0  0  0
  6  5  1  0  0  0  0
  7 24  1  6  0  0  0
  7 17  1  0  0  0  0
  9 26  1  0  0  0  0
  9 28  1  0  0  0  0
 10 20  1  0  0  0  0
 11  3  1  0  0  0  0
 12 13  1  0  0  0  0
 12  8  1  1  0  0  0
 13 11  1  6  0  0  0
 14 23  1  6  0  0  0
 14 22  1  0  0  0  0
 15 18  2  0  0  0  0
 15  9  1  0  0  0  0
 16  1  1  0  0  0  0
 17  8  1  6  0  0  0
 17 10  1  0  0  0  0
 18  6  1  0  0  0  0
 19  7  1  0  0  0  0
 19 16  1  0  0  0  0
 20 29  1  6  0  0  0
 21  4  1  0  0  0  0
 22 21  1  1  0  0  0
 22 13  1  0  0  0  0
 25  5  2  0  0  0  0
 27  2  1  0  0  0  0
 27 14  1  0  0  0  0
 28 23  1  0  0  0  0
 29 30  1  0  0  0  0
 30 32  2  0  0  0  0
 30 31  1  0  0  0  0
M  END
>  <MODEL>
3

>  <REMARK>
 VINA RESULT:      -7.7      2.708      5.725
  Name = 
  2 active torsions:
  status: ('A' for Active; 'I' for Inactive)
    1  A    between atoms: C_20  and  C_29
    2  A    between atoms: C_29  and  C_30
                            x       y       z     vdW  Elec       q    Type
                         _______ _______ _______ _____ _____    ______ ____

>  <TORSDO>
F 2

$$$$
=
 OpenBabel11112416353D

 32 37  0  0  1  0  0  0  0  0999 V2000
  187.3810  178.2260  146.1020 C   0  0  0  0  0  2  0  0  0  0  0  0
  191.3810  175.3090  143.7080 C   0  0  2  0  0  3  0  0  0  0  0  0
  190.2850  172.0860  140.4820 C   0  0  0  0  0  2  0  0  0  0  0  0
  190.9670  172.8120  139.3110 C   0  0  0  0  0  2  0  0  0  0  0  0
  193.8660  175.7380  143.9870 C   0  0  0  0  0  0  0  0  0  0  0  0
  195.1570  175.9620  143.3620 C   0  0  0  0  0  0  0  0  0  0  0  0
  189.6890  176.3710  145.2540 C   0  0  2  0  0  3  0  0  0  0  0  0
  188.8910  175.1700  143.1820 C   0  0  0  0  0  2  0  0  0  0  0  0
  196.6590  175.9110  141.7790 N   0  0  0  0  0  0  0  0  0  0  0  0
  187.2310  176.0400  144.7770 C   0  0  0  0  0  2  0  0  0  0  0  0
  189.9340  173.0430  141.6420 C   0  0  0  0  0  2  0  0  0  0  0  0
  190.3060  175.2850  142.6040 C   0  0  2  0  0  3  0  0  0  0  0  0
  190.5720  174.3590  141.4800 N   0  0  1  0  0  0  0  0  0  0  0  0
  192.9060  175.2660  141.6640 C   0  0  2  0  0  3  0  0  0  0  0  0
  197.2700  176.3460  142.8720 N   0  0  0  0  0  0  0  0  0  0  0  0
  188.2810  177.4780  146.8710 O   0  0  0  0  0  0  0  0  0  0  0  0
  188.6010  176.3060  144.1590 C   0  0  1  0  0  3  0  0  0  0  0  0
  196.3660  176.3880  143.8820 C   0  0  0  0  0  3  0  0  0  0  0  0
  189.4920  177.5710  146.1770 C   0  0  0  0  0  2  0  0  0  0  0  0
  186.5160  177.3210  145.2230 C   0  0  1  0  0  3  0  0  0  0  0  0
  192.1710  173.6520  139.7680 C   0  0  0  0  0  2  0  0  0  0  0  0
  191.9970  174.1170  141.2190 C   0  0  2  0  0  3  0  0  0  0  0  0
  194.3630  174.9770  141.2120 C   0  0  0  0  0  2  0  0  0  0  0  0
  191.0710  176.5000  144.6190 C   0  0  0  0  0  2  0  0  0  0  0  0
  193.7490  175.7950  145.2410 O   0  0  0  0  0  0  0  0  0  0  0  0
  197.3300  175.6690  140.5140 C   0  0  0  0  0  1  0  0  0  0  0  0
  192.7370  175.4290  143.1330 N   0  0  0  0  0  0  0  0  0  0  0  0
  195.3650  175.6890  142.0540 C   0  0  0  0  0  0  0  0  0  0  0  0
  185.2360  176.9700  145.9660 C   0  0  0  0  0  2  0  0  0  0  0  0
  184.5260  178.2030  146.4110 C   0  0  0  0  0  0  0  0  0  0  0  0
  183.9330  179.0400  145.4740 O   0  0  0  0  0  0  0  0  0  0  0  0
  184.4430  178.4750  147.6360 O   0  0  0  0  0  1  0  0  0  0  0  0
  1 16  1  0  0  0  0
  2 24  1  1  0  0  0
  3 11  1  0  0  0  0
  4 21  1  0  0  0  0
  4  3  1  0  0  0  0
  5 25  2  0  0  0  0
  6 18  1  0  0  0  0
  6  5  1  0  0  0  0
  7 24  1  6  0  0  0
  7 19  1  0  0  0  0
  9 28  1  0  0  0  0
  9 15  1  0  0  0  0
 10 20  1  0  0  0  0
 12  8  1  1  0  0  0
 12  2  1  0  0  0  0
 13 11  1  1  0  0  0
 13 12  1  0  0  0  0
 14 23  1  1  0  0  0
 14 27  1  0  0  0  0
 15 18  2  0  0  0  0
 17  8  1  6  0  0  0
 17 10  1  0  0  0  0
 17  7  1  0  0  0  0
 19 16  1  0  0  0  0
 20 29  1  1  0  0  0
 20  1  1  0  0  0  0
 22 21  1  6  0  0  0
 22 13  1  0  0  0  0
 22 14  1  0  0  0  0
 23 28  1  0  0  0  0
 26  9  1  0  0  0  0
 27  2  1  0  0  0  0
 27  5  1  0  0  0  0
 28  6  2  0  0  0  0
 29 30  1  0  0  0  0
 30 32  1  0  0  0  0
 31 30  2  0  0  0  0
M  END
>  <MODEL>
4

>  <REMARK>
 VINA RESULT:      -7.7      2.512      3.341
  Name = 
  2 active torsions:
  status: ('A' for Active; 'I' for Inactive)
    1  A    between atoms: C_20  and  C_29
    2  A    between atoms: C_29  and  C_30
                            x       y       z     vdW  Elec       q    Type
                         _______ _______ _______ _____ _____    ______ ____

>  <TORSDO>
F 2

$$$$
=
 OpenBabel11112416353D

 32 37  0  0  1  0  0  0  0  0999 V2000
  185.2010  177.9660  142.5830 C   0  0  0  0  0  2  0  0  0  0  0  0
  189.1870  174.4990  141.0580 C   0  0  2  0  0  3  0  0  0  0  0  0
  192.2550  172.9470  144.2500 C   0  0  0  0  0  2  0  0  0  0  0  0
  191.8070  171.4780  144.1820 C   0  0  0  0  0  2  0  0  0  0  0  0
  189.3750  173.4030  138.7770 C   0  0  0  0  0  0  0  0  0  0  0  0
  189.5260  172.1850  138.0020 C   0  0  0  0  0  0  0  0  0  0  0  0
  187.6300  176.4480  141.4490 C   0  0  2  0  0  3  0  0  0  0  0  0
  188.7370  175.3320  143.4240 C   0  0  0  0  0  2  0  0  0  0  0  0
  190.0630  170.1060  137.6120 N   0  0  0  0  0  0  0  0  0  0  0  0
  187.3680  177.3430  143.7960 C   0  0  0  0  0  2  0  0  0  0  0  0
  191.1610  173.9180  143.7540 C   0  0  0  0  0  2  0  0  0  0  0  0
  189.0200  174.1120  142.5410 C   0  0  2  0  0  3  0  0  0  0  0  0
  190.0610  173.2090  143.0820 N   0  0  1  0  0  0  0  0  0  0  0  0
  189.7560  172.0170  140.8930 C   0  0  2  0  0  3  0  0  0  0  0  0
  189.7170  170.6380  136.4470 N   0  0  0  0  0  0  0  0  0  0  0  0
  186.0940  178.3050  141.5590 O   0  0  0  0  0  0  0  0  0  0  0  0
  187.4980  176.0840  142.9450 C   0  0  1  0  0  3  0  0  0  0  0  0
  189.3800  171.9350  136.6500 C   0  0  0  0  0  3  0  0  0  0  0  0
  186.3560  177.0950  140.9100 C   0  0  0  0  0  2  0  0  0  0  0  0
  185.9210  177.8320  143.9270 C   0  0  1  0  0  3  0  0  0  0  0  0
  191.2650  171.0980  142.7940 C   0  0  0  0  0  2  0  0  0  0  0  0
  190.6700  172.3190  142.0840 C   0  0  2  0  0  3  0  0  0  0  0  0
  190.4310  170.9600  139.9780 C   0  0  0  0  0  2  0  0  0  0  0  0
  187.8950  175.1930  140.6210 C   0  0  0  0  0  2  0  0  0  0  0  0
  189.2010  174.5080  138.1960 O   0  0  0  0  0  0  0  0  0  0  0  0
  190.5540  168.7490  137.7720 C   0  0  0  0  0  1  0  0  0  0  0  0
  189.4510  173.3100  140.2210 N   0  0  0  0  0  0  0  0  0  0  0  0
  189.9340  171.0300  138.5750 C   0  0  0  0  0  0  0  0  0  0  0  0
  185.8870  179.1690  144.6510 C   0  0  0  0  0  2  0  0  0  0  0  0
  185.0590  179.0810  145.8880 C   0  0  0  0  0  0  0  0  0  0  0  0
  185.6280  179.3500  147.1260 O   0  0  0  0  0  1  0  0  0  0  0  0
  183.8380  178.7870  145.8080 O   0  0  0  0  0  0  0  0  0  0  0  0
  1 20  1  0  0  0  0
  2 24  1  6  0  0  0
  2 12  1  0  0  0  0
  4  3  1  0  0  0  0
  5 27  1  0  0  0  0
  6 28  2  0  0  0  0
  6  5  1  0  0  0  0
  7 24  1  6  0  0  0
  7 17  1  0  0  0  0
  9 26  1  0  0  0  0
  9 28  1  0  0  0  0
 10 20  1  0  0  0  0
 11  3  1  0  0  0  0
 12 13  1  0  0  0  0
 12  8  1  1  0  0  0
 13 11  1  6  0  0  0
 14 23  1  6  0  0  0
 14 22  1  0  0  0  0
 15 18  2  0  0  0  0
 15  9  1  0  0  0  0
 16  1  1  0  0  0  0
 17  8  1  1  0  0  0
 17 10  1  0  0  0  0
 18  6  1  0  0  0  0
 19  7  1  0  0  0  0
 19 16  1  0  0  0  0
 20 29  1  6  0  0  0
 21  4  1  0  0  0  0
 22 21  1  1  0  0  0
 22 13  1  0  0  0  0
 25  5  2  0  0  0  0
 27 14  1  0  0  0  0
 27  2  1  0  0  0  0
 28 23  1  0  0  0  0
 29 30  1  0  0  0  0
 30 31  1  0  0  0  0
 32 30  2  0  0  0  0
M  END
>  <MODEL>
5

>  <REMARK>
 VINA RESULT:      -7.6      2.972      6.097
  Name = 
  2 active torsions:
  status: ('A' for Active; 'I' for Inactive)
    1  A    between atoms: C_20  and  C_29
    2  A    between atoms: C_29  and  C_30
                            x       y       z     vdW  Elec       q    Type
                         _______ _______ _______ _____ _____    ______ ____

>  <TORSDO>
F 2

$$$$
=
 OpenBabel11112416353D

 32 37  0  0  1  0  0  0  0  0999 V2000
  186.5170  178.6990  144.1480 C   0  0  0  0  0  2  0  0  0  0  0  0
  190.3980  174.8400  143.6140 C   0  0  2  0  0  3  0  0  0  0  0  0
  190.0740  171.6910  140.1520 C   0  0  0  0  0  2  0  0  0  0  0  0
  191.3260  172.1710  139.4000 C   0  0  0  0  0  2  0  0  0  0  0  0
  192.5630  174.7560  144.9330 C   0  0  0  0  0  0  0  0  0  0  0  0
  194.0120  174.6570  144.9220 C   0  0  0  0  0  0  0  0  0  0  0  0
  188.4950  176.3430  144.3180 C   0  0  2  0  0  3  0  0  0  0  0  0
  188.3960  175.1880  142.0760 C   0  0  0  0  0  2  0  0  0  0  0  0
  195.9870  174.1760  144.1280 N   0  0  0  0  0  0  0  0  0  0  0  0
  186.4580  176.5020  142.8330 C   0  0  0  0  0  2  0  0  0  0  0  0
  189.4900  172.7830  141.0750 C   0  0  0  0  0  2  0  0  0  0  0  0
  189.9090  174.9620  142.1570 C   0  0  2  0  0  3  0  0  0  0  0  0
  190.4100  173.9200  141.2310 N   0  0  1  0  0  0  0  0  0  0  0  0
  192.5890  174.3270  142.4120 C   0  0  2  0  0  3  0  0  0  0  0  0
  196.1610  174.5520  145.3870 N   0  0  0  0  0  0  0  0  0  0  0  0
  186.8220  177.8370  145.2080 O   0  0  0  0  0  0  0  0  0  0  0  0
  187.9810  176.4280  142.8630 C   0  0  1  0  0  3  0  0  0  0  0  0
  194.9510  174.8560  145.9170 C   0  0  0  0  0  3  0  0  0  0  0  0
  188.1990  177.6220  145.0980 C   0  0  0  0  0  2  0  0  0  0  0  0
  185.9240  177.9340  142.9620 C   0  0  1  0  0  3  0  0  0  0  0  0
  192.3800  172.7700  140.3460 C   0  0  0  0  0  2  0  0  0  0  0  0
  191.7210  173.3660  141.5950 C   0  0  2  0  0  3  0  0  0  0  0  0
  193.9970  173.7060  142.6160 C   0  0  0  0  0  2  0  0  0  0  0  0
  190.0060  176.1330  144.3340 C   0  0  0  0  0  2  0  0  0  0  0  0
  191.9470  174.9280  146.0190 O   0  0  0  0  0  0  0  0  0  0  0  0
  197.0550  173.7060  143.2630 C   0  0  0  0  0  1  0  0  0  0  0  0
  191.8590  174.6300  143.6730 N   0  0  0  0  0  0  0  0  0  0  0  0
  194.6840  174.2520  143.8210 C   0  0  0  0  0  0  0  0  0  0  0  0
  184.4080  177.9160  143.0820 C   0  0  0  0  0  2  0  0  0  0  0  0
  183.7700  178.2910  141.7880 C   0  0  0  0  0  0  0  0  0  0  0  0
  184.5580  178.6140  140.6920 O   0  0  0  0  0  0  0  0  0  0  0  0
  182.5160  178.2900  141.6820 O   0  0  0  0  0  1  0  0  0  0  0  0
  1 16  1  0  0  0  0
  2 27  1  0  0  0  0
  2 24  1  1  0  0  0
  3 11  1  0  0  0  0
  4  3  1  0  0  0  0
  4 21  1  0  0  0  0
  5 25  2  0  0  0  0
  6  5  1  0  0  0  0
  6 18  1  0  0  0  0
  7 24  1  6  0  0  0
  7 19  1  0  0  0  0
  9 15  1  0  0  0  0
 10 17  1  0  0  0  0
 10 20  1  0  0  0  0
 12  8  1  1  0  0  0
 12  2  1  0  0  0  0
 13 11  1  1  0  0  0
 13 22  1  0  0  0  0
 13 12  1  0  0  0  0
 14 23  1  1  0  0  0
 14 27  1  0  0  0  0
 15 18  2  0  0  0  0
 17  8  1  6  0  0  0
 17  7  1  0  0  0  0
 19 16  1  0  0  0  0
 20 29  1  1  0  0  0
 20  1  1  0  0  0  0
 22 21  1  6  0  0  0
 22 14  1  0  0  0  0
 23 28  1  0  0  0  0
 26  9  1  0  0  0  0
 27  5  1  0  0  0  0
 28  9  1  0  0  0  0
 28  6  2  0  0  0  0
 30 29  1  0  0  0  0
 31 30  2  0  0  0  0
 32 30  1  0  0  0  0
M  END
>  <MODEL>
6

>  <REMARK>
 VINA RESULT:      -7.6      1.407      1.740
  Name = 
  2 active torsions:
  status: ('A' for Active; 'I' for Inactive)
    1  A    between atoms: C_20  and  C_29
    2  A    between atoms: C_29  and  C_30
                            x       y       z     vdW  Elec       q    Type
                         _______ _______ _______ _____ _____    ______ ____

>  <TORSDO>
F 2

$$$$
=
 OpenBabel11112416353D

 32 37  0  0  1  0  0  0  0  0999 V2000
  194.4380  176.3910  144.2090 C   0  0  0  0  0  2  0  0  0  0  0  0
  188.9560  176.3400  143.7690 C   0  0  2  0  0  3  0  0  0  0  0  0
  186.3180  176.7910  147.6220 C   0  0  0  0  0  2  0  0  0  0  0  0
  185.7150  178.1490  147.2290 C   0  0  0  0  0  2  0  0  0  0  0  0
  187.6670  176.3720  141.5850 C   0  0  0  0  0  0  0  0  0  0  0  0
  186.6310  176.9830  140.7720 C   0  0  0  0  0  0  0  0  0  0  0  0
  191.4310  175.8410  143.8210 C   0  0  2  0  0  3  0  0  0  0  0  0
  190.2950  176.6840  145.9110 C   0  0  0  0  0  2  0  0  0  0  0  0
  184.8400  178.1560  140.3500 N   0  0  0  0  0  0  0  0  0  0  0  0
  192.6630  176.0250  146.0180 C   0  0  0  0  0  2  0  0  0  0  0  0
  187.6520  176.5080  146.8950 C   0  0  0  0  0  2  0  0  0  0  0  0
  189.1360  177.1880  145.0440 C   0  0  2  0  0  3  0  0  0  0  0  0
  187.8950  177.4630  145.8030 N   0  0  1  0  0  0  0  0  0  0  0  0
  186.9330  177.8740  143.5200 C   0  0  2  0  0  3  0  0  0  0  0  0
  185.2000  177.5830  139.2100 N   0  0  0  0  0  0  0  0  0  0  0  0
  193.7760  175.3130  143.6080 O   0  0  0  0  0  0  0  0  0  0  0  0
  191.6010  176.6560  145.1230 C   0  0  1  0  0  3  0  0  0  0  0  0
  186.3110  176.8400  139.4340 C   0  0  0  0  0  3  0  0  0  0  0  0
  192.6860  175.8950  142.9530 C   0  0  0  0  0  2  0  0  0  0  0  0
  194.0830  176.5030  145.6930 C   0  0  1  0  0  3  0  0  0  0  0  0
  185.6040  178.3170  145.7040 C   0  0  0  0  0  2  0  0  0  0  0  0
  186.6770  177.4960  144.9810 C   0  0  2  0  0  3  0  0  0  0  0  0
  185.5770  178.0230  142.7800 C   0  0  0  0  0  2  0  0  0  0  0  0
  190.2760  176.3990  142.9950 C   0  0  0  0  0  2  0  0  0  0  0  0
  188.3770  175.4430  141.1140 O   0  0  0  0  0  0  0  0  0  0  0  0
  183.6480  178.9710  140.5090 C   0  0  0  0  0  1  0  0  0  0  0  0
  187.8410  176.8460  142.9420 N   0  0  0  0  0  0  0  0  0  0  0  0
  185.7120  177.8170  141.3100 C   0  0  0  0  0  0  0  0  0  0  0  0
  195.0970  175.7200  146.5130 C   0  0  0  0  0  2  0  0  0  0  0  0
  195.5790  174.5270  145.7610 C   0  0  0  0  0  0  0  0  0  0  0  0
  196.7900  174.5750  145.0830 O   0  0  0  0  0  0  0  0  0  0  0  0
  194.9010  173.4670  145.7590 O   0  0  0  0  0  1  0  0  0  0  0  0
  1 20  1  0  0  0  0
  2 24  1  6  0  0  0
  2 12  1  0  0  0  0
  4  3  1  0  0  0  0
  5 27  1  0  0  0  0
  6 28  2  0  0  0  0
  6  5  1  0  0  0  0
  7 19  1  6  0  0  0
  7 17  1  0  0  0  0
  9 26  1  0  0  0  0
  9 28  1  0  0  0  0
 11  3  1  0  0  0  0
 12 13  1  0  0  0  0
 12  8  1  1  0  0  0
 13 11  1  1  0  0  0
 14 23  1  6  0  0  0
 14 22  1  0  0  0  0
 15 18  2  0  0  0  0
 15  9  1  0  0  0  0
 16  1  1  0  0  0  0
 17  8  1  1  0  0  0
 17 10  1  0  0  0  0
 18  6  1  0  0  0  0
 19 16  1  0  0  0  0
 20 10  1  0  0  0  0
 20 29  1  1  0  0  0
 21  4  1  0  0  0  0
 22 21  1  1  0  0  0
 22 13  1  0  0  0  0
 24  7  1  0  0  0  0
 25  5  2  0  0  0  0
 27 14  1  0  0  0  0
 27  2  1  0  0  0  0
 28 23  1  0  0  0  0
 30 29  1  0  0  0  0
 31 30  2  0  0  0  0
 32 30  1  0  0  0  0
M  END
>  <MODEL>
7

>  <REMARK>
 VINA RESULT:      -7.4      3.301      8.843
  Name = 
  2 active torsions:
  status: ('A' for Active; 'I' for Inactive)
    1  A    between atoms: C_20  and  C_29
    2  A    between atoms: C_29  and  C_30
                            x       y       z     vdW  Elec       q    Type
                         _______ _______ _______ _____ _____    ______ ____

>  <TORSDO>
F 2

$$$$
=
 OpenBabel11112416353D

 32 37  0  0  1  0  0  0  0  0999 V2000
  193.7930  173.1790  139.8970 C   0  0  0  0  0  2  0  0  0  0  0  0
  190.0070  174.9940  143.4490 C   0  0  2  0  0  3  0  0  0  0  0  0
  191.1180  175.4580  147.9830 C   0  0  0  0  0  2  0  0  0  0  0  0
  190.9790  176.9880  148.0120 C   0  0  0  0  0  2  0  0  0  0  0  0
  187.7230  175.8950  142.8130 C   0  0  0  0  0  0  0  0  0  0  0  0
  186.7450  176.9630  142.9170 C   0  0  0  0  0  0  0  0  0  0  0  0
  191.4220  173.7230  141.7870 C   0  0  2  0  0  3  0  0  0  0  0  0
  192.4340  174.4320  143.9870 C   0  0  0  0  0  2  0  0  0  0  0  0
  185.7640  178.7120  143.7780 N   0  0  0  0  0  0  0  0  0  0  0  0
  193.7590  173.0370  142.4530 C   0  0  0  0  0  2  0  0  0  0  0  0
  191.3630  174.9180  146.5570 C   0  0  0  0  0  2  0  0  0  0  0  0
  191.3030  175.4530  144.1470 C   0  0  2  0  0  3  0  0  0  0  0  0
  191.1340  175.9490  145.5330 N   0  0  1  0  0  0  0  0  0  0  0  0
  189.1320  177.1150  144.5640 C   0  0  2  0  0  3  0  0  0  0  0  0
  185.0050  178.3050  142.7700 N   0  0  0  0  0  0  0  0  0  0  0  0
  192.5630  172.5230  140.0320 O   0  0  0  0  0  0  0  0  0  0  0  0
  192.7160  174.1490  142.5140 C   0  0  1  0  0  3  0  0  0  0  0  0
  185.5820  177.2130  142.2110 C   0  0  0  0  0  3  0  0  0  0  0  0
  191.6470  173.5480  140.2870 C   0  0  0  0  0  2  0  0  0  0  0  0
  194.6170  173.0880  141.1830 C   0  0  1  0  0  3  0  0  0  0  0  0
  189.9370  177.4980  147.0010 C   0  0  0  0  0  2  0  0  0  0  0  0
  189.8190  176.5440  145.8070 C   0  0  2  0  0  3  0  0  0  0  0  0
  187.8280  177.8450  144.9840 C   0  0  0  0  0  2  0  0  0  0  0  0
  190.3390  174.7840  141.9700 C   0  0  0  0  0  2  0  0  0  0  0  0
  187.5050  174.9060  142.0630 O   0  0  0  0  0  0  0  0  0  0  0  0
  185.4240  179.8160  144.6580 C   0  0  0  0  0  1  0  0  0  0  0  0
  188.9300  175.9930  143.6070 N   0  0  0  0  0  0  0  0  0  0  0  0
  186.8400  177.9170  143.8700 C   0  0  0  0  0  0  0  0  0  0  0  0
  195.5200  171.8670  141.1160 C   0  0  0  0  0  2  0  0  0  0  0  0
  196.5640  171.9200  142.1800 C   0  0  0  0  0  0  0  0  0  0  0  0
  197.3660  173.0460  142.3090 O   0  0  0  0  0  0  0  0  0  0  0  0
  196.7010  170.9560  142.9760 O   0  0  0  0  0  1  0  0  0  0  0  0
  1 16  1  0  0  0  0
  1 20  1  0  0  0  0
  2 24  1  6  0  0  0
  2 27  1  0  0  0  0
  2 12  1  0  0  0  0
  3  4  1  0  0  0  0
  5  6  1  0  0  0  0
  5 27  1  0  0  0  0
  6 28  2  0  0  0  0
  7 19  1  6  0  0  0
  7 24  1  0  0  0  0
  7 17  1  0  0  0  0
  9 28  1  0  0  0  0
  9 26  1  0  0  0  0
 11  3  1  0  0  0  0
 12  8  1  1  0  0  0
 12 13  1  0  0  0  0
 13 22  1  0  0  0  0
 13 11  1  1  0  0  0
 14 23  1  1  0  0  0
 14 22  1  0  0  0  0
 15  9  1  0  0  0  0
 16 19  1  0  0  0  0
 17 10  1  1  0  0  0
 17  8  1  0  0  0  0
 18 15  2  0  0  0  0
 18  6  1  0  0  0  0
 20 29  1  6  0  0  0
 20 10  1  0  0  0  0
 21  4  1  0  0  0  0
 22 21  1  1  0  0  0
 25  5  2  0  0  0  0
 27 14  1  0  0  0  0
 28 23  1  0  0  0  0
 29 30  1  0  0  0  0
 30 31  2  0  0  0  0
 30 32  1  0  0  0  0
M  END
>  <MODEL>
8

>  <REMARK>
 VINA RESULT:      -7.1      3.584      8.851
  Name = 
  2 active torsions:
  status: ('A' for Active; 'I' for Inactive)
    1  A    between atoms: C_20  and  C_29
    2  A    between atoms: C_29  and  C_30
                            x       y       z     vdW  Elec       q    Type
                         _______ _______ _______ _____ _____    ______ ____

>  <TORSDO>
F 2

$$$$
=
 OpenBabel11112416353D

 32 37  0  0  1  0  0  0  0  0999 V2000
  186.4760  176.0910  143.0440 C   0  0  0  0  0  2  0  0  0  0  0  0
  191.4750  173.8160  143.3020 C   0  0  2  0  0  3  0  0  0  0  0  0
  195.1880  176.4910  144.3330 C   0  0  0  0  0  2  0  0  0  0  0  0
  195.4910  175.8100  145.6780 C   0  0  0  0  0  2  0  0  0  0  0  0
  191.9540  171.3270  143.1840 C   0  0  0  0  0  0  0  0  0  0  0  0
  192.5960  170.1650  143.7700 C   0  0  0  0  0  0  0  0  0  0  0  0
  189.2200  174.7470  142.6520 C   0  0  2  0  0  3  0  0  0  0  0  0
  190.8990  176.2510  143.7860 C   0  0  0  0  0  2  0  0  0  0  0  0
  194.0210  169.0660  145.0050 N   0  0  0  0  0  0  0  0  0  0  0  0
  188.7780  177.2110  142.9900 C   0  0  0  0  0  2  0  0  0  0  0  0
  193.7230  176.2870  143.8880 C   0  0  0  0  0  2  0  0  0  0  0  0
  191.6480  175.0040  144.2690 C   0  0  2  0  0  3  0  0  0  0  0  0
  193.0390  175.2710  144.7030 N   0  0  1  0  0  0  0  0  0  0  0  0
  193.1410  172.7720  144.9290 C   0  0  2  0  0  3  0  0  0  0  0  0
  193.3600  168.1660  144.2910 N   0  0  0  0  0  0  0  0  0  0  0  0
  187.0010  175.3880  141.9530 O   0  0  0  0  0  0  0  0  0  0  0  0
  189.4140  175.9600  143.5890 C   0  0  1  0  0  3  0  0  0  0  0  0
  192.4640  168.8140  143.5060 C   0  0  0  0  0  3  0  0  0  0  0  0
  187.7480  174.3570  142.5300 C   0  0  0  0  0  2  0  0  0  0  0  0
  187.2910  177.3520  143.3370 C   0  0  1  0  0  3  0  0  0  0  0  0
  195.0720  174.3300  145.6890 C   0  0  0  0  0  2  0  0  0  0  0  0
  193.9040  174.0840  144.7270 C   0  0  2  0  0  3  0  0  0  0  0  0
  194.1520  171.6040  145.0860 C   0  0  0  0  0  2  0  0  0  0  0  0
  189.9740  173.5350  143.1920 C   0  0  0  0  0  2  0  0  0  0  0  0
  191.2220  171.2020  142.1650 O   0  0  0  0  0  0  0  0  0  0  0  0
  195.1130  168.7460  145.9080 C   0  0  0  0  0  1  0  0  0  0  0  0
  192.1960  172.6210  143.7880 N   0  0  0  0  0  0  0  0  0  0  0  0
  193.5560  170.2900  144.7150 C   0  0  0  0  0  0  0  0  0  0  0  0
  186.6900  178.5280  142.5820 C   0  0  0  0  0  2  0  0  0  0  0  0
  185.4370  178.9960  143.2410 C   0  0  0  0  0  0  0  0  0  0  0  0
  185.4930  179.9800  144.2200 O   0  0  0  0  0  1  0  0  0  0  0  0
  184.3260  178.5190  142.8940 O   0  0  0  0  0  0  0  0  0  0  0  0
  1 20  1  0  0  0  0
  2 24  1  1  0  0  0
  2 27  1  0  0  0  0
  2 12  1  0  0  0  0
  3  4  1  0  0  0  0
  4 21  1  0  0  0  0
  5  6  1  0  0  0  0
  5 27  1  0  0  0  0
  6 28  2  0  0  0  0
  7 19  1  1  0  0  0
  7 24  1  0  0  0  0
  7 17  1  0  0  0  0
  9 26  1  0  0  0  0
 10 20  1  0  0  0  0
 11  3  1  0  0  0  0
 12  8  1  6  0  0  0
 12 13  1  0  0  0  0
 13 11  1  6  0  0  0
 13 22  1  0  0  0  0
 14 23  1  6  0  0  0
 15  9  1  0  0  0  0
 16 19  1  0  0  0  0
 16  1  1  0  0  0  0
 17 10  1  6  0  0  0
 17  8  1  0  0  0  0
 18  6  1  0  0  0  0
 18 15  2  0  0  0  0
 20 29  1  6  0  0  0
 22 14  1  0  0  0  0
 22 21  1  1  0  0  0
 25  5  2  0  0  0  0
 27 14  1  0  0  0  0
 28  9  1  0  0  0  0
 28 23  1  0  0  0  0
 29 30  1  0  0  0  0
 30 31  1  0  0  0  0
 32 30  2  0  0  0  0
M  END
>  <MODEL>
9

>  <REMARK>
 VINA RESULT:      -7.1      3.439      5.190
  Name = 
  2 active torsions:
  status: ('A' for Active; 'I' for Inactive)
    1  A    between atoms: C_20  and  C_29
    2  A    between atoms: C_29  and  C_30
                            x       y       z     vdW  Elec       q    Type
                         _______ _______ _______ _____ _____    ______ ____

>  <TORSDO>
F 2

$$$$
