=
 OpenBabel11112416583D

 31 35  0  0  1  0  0  0  0  0999 V2000
  185.4290  178.3490  146.0630 C   0  0  0  0  0  0  0  0  0  0  0  0
  187.8530  176.8600  143.5460 C   0  0  0  0  0  0  0  0  0  0  0  0
  187.2660  177.0450  142.2660 C   0  0  0  0  0  0  0  0  0  0  0  0
  191.4910  175.5280  147.2050 O   0  0  0  0  0  0  0  0  0  0  0  0
  191.8930  175.1850  146.0610 C   0  0  0  0  0  0  0  0  0  0  0  0
  185.6490  178.0970  140.7740 C   0  0  0  0  0  0  0  0  0  0  0  0
  187.4630  177.6410  144.8000 C   0  0  1  0  0  3  0  0  0  0  0  0
  186.1070  178.0860  147.3930 C   0  0  0  0  0  2  0  0  0  0  0  0
  186.2120  177.9480  142.0450 C   0  0  0  0  0  3  0  0  0  0  0  0
  189.7200  175.9010  144.9180 C   0  0  0  0  0  0  0  0  0  0  0  0
  183.7510  178.8540  146.0630 Cl  0  0  0  0  0  0  0  0  0  0  0  0
  188.8410  175.4510  141.3340 C   0  0  0  0  0  3  0  0  0  0  0  0
  184.6290  178.9680  140.5860 F   0  0  0  0  0  0  0  0  0  0  0  0
  189.1930  176.3610  146.0150 N   0  0  0  0  0  0  0  0  0  0  0  0
  188.9810  176.0100  143.6400 C   0  0  0  0  0  0  0  0  0  0  0  0
  191.0440  175.3490  144.9160 N   0  0  0  0  0  2  0  0  0  0  0  0
  186.0180  178.0680  144.8890 C   0  0  0  0  0  3  0  0  0  0  0  0
  186.1340  177.3480  139.7020 C   0  0  0  0  0  3  0  0  0  0  0  0
  187.8190  176.8480  146.0610 C   0  0  1  0  0  3  0  0  0  0  0  0
  187.5950  177.7370  147.2730 C   0  0  0  0  0  2  0  0  0  0  0  0
  189.4290  175.3320  142.5500 N   0  0  0  0  0  0  0  0  0  0  0  0
  187.7590  176.3090  141.1630 C   0  0  0  0  0  0  0  0  0  0  0  0
  187.1910  176.4570  139.8950 C   0  0  0  0  0  3  0  0  0  0  0  0
  195.7800  173.4410  145.5380 C   0  0  0  0  0  0  0  0  0  0  0  0
  193.3690  173.2730  145.4690 C   0  0  0  0  0  3  0  0  0  0  0  0
  194.3580  176.6480  146.5390 F   0  0  0  0  0  0  0  0  0  0  0  0
  197.0310  172.8640  145.3650 O   0  0  0  0  0  1  0  0  0  0  0  0
  194.6270  172.6920  145.2950 C   0  0  0  0  0  3  0  0  0  0  0  0
  194.4180  175.3560  146.1320 C   0  0  0  0  0  0  0  0  0  0  0  0
  193.2460  174.6070  145.8880 C   0  0  0  0  0  0  0  0  0  0  0  0
  195.6750  174.7680  145.9560 C   0  0  0  0  0  3  0  0  0  0  0  0
  1 11  1  0  0  0  0
  1  8  1  0  0  0  0
  2 15  1  0  0  0  0
  2  7  1  0  0  0  0
  3  2  2  0  0  0  0
  5  4  2  0  0  0  0
  6  9  2  0  0  0  0
  7 17  1  6  0  0  0
  7 19  1  0  0  0  0
  9  3  1  0  0  0  0
 10 14  2  0  0  0  0
 12 21  1  0  0  0  0
 13  6  1  0  0  0  0
 14 19  1  0  0  0  0
 15 10  1  0  0  0  0
 16 10  1  0  0  0  0
 16  5  1  0  0  0  0
 17  1  2  0  0  0  0
 18 23  2  0  0  0  0
 18  6  1  0  0  0  0
 19 20  1  1  0  0  0
 20  8  1  0  0  0  0
 21 15  2  0  0  0  0
 22 12  2  0  0  0  0
 22  3  1  0  0  0  0
 23 22  1  0  0  0  0
 24 31  1  0  0  0  0
 25 30  2  0  0  0  0
 27 24  1  0  0  0  0
 28 25  1  0  0  0  0
 28 24  2  0  0  0  0
 29 26  1  0  0  0  0
 30  5  1  0  0  0  0
 30 29  1  0  0  0  0
 31 29  2  0  0  0  0
M  END
>  <MODEL>
1

>  <REMARK>
 VINA RESULT:      -9.6      0.000      0.000
  Name = 
  1 active torsions:
  status: ('A' for Active; 'I' for Inactive)
    1  A    between atoms: C_5  and  C_30
                            x       y       z     vdW  Elec       q    Type
                         _______ _______ _______ _____ _____    ______ ____

>  <TORSDO>
F 1

$$$$
=
 OpenBabel11112416583D

 31 35  0  0  1  0  0  0  0  0999 V2000
  185.7400  177.6730  141.0910 C   0  0  0  0  0  0  0  0  0  0  0  0
  187.4950  177.0360  144.3990 C   0  0  0  0  0  0  0  0  0  0  0  0
  186.6500  177.5640  145.4100 C   0  0  0  0  0  0  0  0  0  0  0  0
  191.6220  174.4820  142.1980 O   0  0  0  0  0  0  0  0  0  0  0  0
  191.7740  174.5370  143.4480 C   0  0  0  0  0  0  0  0  0  0  0  0
  184.4970  178.4020  146.1910 C   0  0  0  0  0  0  0  0  0  0  0  0
  187.0420  176.6910  142.9820 C   0  0  1  0  0  3  0  0  0  0  0  0
  186.7110  177.1140  140.0720 C   0  0  0  0  0  2  0  0  0  0  0  0
  185.2980  177.8720  145.1770 C   0  0  0  0  0  3  0  0  0  0  0  0
  189.6790  175.9640  143.7900 C   0  0  0  0  0  0  0  0  0  0  0  0
  184.4200  178.6790  140.5290 Cl  0  0  0  0  0  0  0  0  0  0  0  0
  188.4870  177.4320  146.9910 C   0  0  0  0  0  3  0  0  0  0  0  0
  183.1990  178.6980  145.9410 F   0  0  0  0  0  0  0  0  0  0  0  0
  189.3530  175.9420  142.5300 N   0  0  0  0  0  0  0  0  0  0  0  0
  188.8090  176.6560  144.7670 C   0  0  0  0  0  0  0  0  0  0  0  0
  190.8390  175.2630  144.2590 N   0  0  0  0  0  2  0  0  0  0  0  0
  185.9370  177.5480  142.4140 C   0  0  0  0  0  3  0  0  0  0  0  0
  185.0320  178.6290  147.4600 C   0  0  0  0  0  3  0  0  0  0  0  0
  188.2290  176.7150  142.0150 C   0  0  1  0  0  3  0  0  0  0  0  0
  187.7690  176.1790  140.6690 C   0  0  0  0  0  2  0  0  0  0  0  0
  189.2630  176.8720  146.0300 N   0  0  0  0  0  0  0  0  0  0  0  0
  187.1710  177.7810  146.7080 C   0  0  0  0  0  0  0  0  0  0  0  0
  186.3670  178.3160  147.7190 C   0  0  0  0  0  3  0  0  0  0  0  0
  195.0480  172.4930  145.3260 C   0  0  0  0  0  0  0  0  0  0  0  0
  192.7450  172.5540  144.5910 C   0  0  0  0  0  3  0  0  0  0  0  0
  194.4100  175.7230  143.7540 F   0  0  0  0  0  0  0  0  0  0  0  0
  196.0980  171.8200  145.9360 O   0  0  0  0  0  1  0  0  0  0  0  0
  193.8010  171.8760  145.2050 C   0  0  0  0  0  3  0  0  0  0  0  0
  194.1840  174.4680  144.2180 C   0  0  0  0  0  0  0  0  0  0  0  0
  192.9200  173.8540  144.0910 C   0  0  0  0  0  0  0  0  0  0  0  0
  195.2380  173.7850  144.8340 C   0  0  0  0  0  3  0  0  0  0  0  0
  1 17  2  0  0  0  0
  2 15  2  0  0  0  0
  2  3  1  0  0  0  0
  3 22  1  0  0  0  0
  4  5  2  0  0  0  0
  5 30  1  0  0  0  0
  5 16  1  0  0  0  0
  6 18  2  0  0  0  0
  7 17  1  6  0  0  0
  7  2  1  0  0  0  0
  8 20  1  0  0  0  0
  8  1  1  0  0  0  0
  9  3  2  0  0  0  0
  9  6  1  0  0  0  0
 10 16  1  0  0  0  0
 10 15  1  0  0  0  0
 11  1  1  0  0  0  0
 13  6  1  0  0  0  0
 14 10  2  0  0  0  0
 15 21  1  0  0  0  0
 18 23  1  0  0  0  0
 19 20  1  6  0  0  0
 19 14  1  0  0  0  0
 19  7  1  0  0  0  0
 21 12  2  0  0  0  0
 22 12  1  0  0  0  0
 22 23  2  0  0  0  0
 24 27  1  0  0  0  0
 25 28  2  0  0  0  0
 26 29  1  0  0  0  0
 28 24  1  0  0  0  0
 29 31  1  0  0  0  0
 30 29  2  0  0  0  0
 30 25  1  0  0  0  0
 31 24  2  0  0  0  0
M  END
>  <MODEL>
2

>  <REMARK>
 VINA RESULT:      -9.4      2.066      4.235
  Name = 
  1 active torsions:
  status: ('A' for Active; 'I' for Inactive)
    1  A    between atoms: C_5  and  C_30
                            x       y       z     vdW  Elec       q    Type
                         _______ _______ _______ _____ _____    ______ ____

>  <TORSDO>
F 1

$$$$
=
 OpenBabel11112416583D

 31 35  0  0  1  0  0  0  0  0999 V2000
  195.1220  173.8430  145.5040 C   0  0  0  0  0  0  0  0  0  0  0  0
  191.6140  173.1900  144.2020 C   0  0  0  0  0  0  0  0  0  0  0  0
  191.6580  171.9320  143.5440 C   0  0  0  0  0  0  0  0  0  0  0  0
  189.5690  177.6680  146.2450 O   0  0  0  0  0  0  0  0  0  0  0  0
  188.6700  177.0310  145.6320 C   0  0  0  0  0  0  0  0  0  0  0  0
  192.7270  169.7950  143.0630 C   0  0  0  0  0  0  0  0  0  0  0  0
  192.6470  173.6750  145.2170 C   0  0  1  0  0  3  0  0  0  0  0  0
  195.0000  175.2050  146.1580 C   0  0  0  0  0  2  0  0  0  0  0  0
  192.7090  171.0200  143.7340 C   0  0  0  0  0  3  0  0  0  0  0  0
  190.2950  175.2360  144.8070 C   0  0  0  0  0  0  0  0  0  0  0  0
  196.7230  173.1910  145.2180 Cl  0  0  0  0  0  0  0  0  0  0  0  0
  189.5180  172.4200  142.5080 C   0  0  0  0  0  3  0  0  0  0  0  0
  193.7550  168.9340  143.2560 F   0  0  0  0  0  0  0  0  0  0  0  0
  191.3120  175.7420  145.4420 N   0  0  0  0  0  0  0  0  0  0  0  0
  190.4570  173.9870  144.0280 C   0  0  0  0  0  0  0  0  0  0  0  0
  188.9960  175.8340  144.9100 N   0  0  0  0  0  2  0  0  0  0  0  0
  194.0610  173.1890  145.0040 C   0  0  0  0  0  3  0  0  0  0  0  0
  191.6900  169.4590  142.1910 C   0  0  0  0  0  3  0  0  0  0  0  0
  192.6590  175.2050  145.2860 C   0  0  1  0  0  3  0  0  0  0  0  0
  193.5540  175.6320  146.4380 C   0  0  0  0  0  2  0  0  0  0  0  0
  189.4620  173.5910  143.1900 N   0  0  0  0  0  0  0  0  0  0  0  0
  190.6040  171.5670  142.6730 C   0  0  0  0  0  0  0  0  0  0  0  0
  190.6280  170.3430  141.9990 C   0  0  0  0  0  3  0  0  0  0  0  0
  184.6260  178.4690  145.6180 C   0  0  0  0  0  0  0  0  0  0  0  0
  186.8350  178.3800  144.6370 C   0  0  0  0  0  3  0  0  0  0  0  0
  186.7240  176.2910  147.6600 F   0  0  0  0  0  0  0  0  0  0  0  0
  183.3210  178.9430  145.6020 O   0  0  0  0  0  1  0  0  0  0  0  0
  185.5210  178.8560  144.6190 C   0  0  0  0  0  3  0  0  0  0  0  0
  186.3570  177.1270  146.6560 C   0  0  0  0  0  0  0  0  0  0  0  0
  187.2700  177.5120  145.6510 C   0  0  0  0  0  0  0  0  0  0  0  0
  185.0440  177.6080  146.6340 C   0  0  0  0  0  3  0  0  0  0  0  0
  1  8  1  0  0  0  0
  2  7  1  0  0  0  0
  3  9  1  0  0  0  0
  3  2  2  0  0  0  0
  5 30  1  0  0  0  0
  5  4  2  0  0  0  0
  6 13  1  0  0  0  0
  6  9  2  0  0  0  0
  7 17  1  6  0  0  0
  7 19  1  0  0  0  0
  8 20  1  0  0  0  0
 10 16  1  0  0  0  0
 10 14  2  0  0  0  0
 11  1  1  0  0  0  0
 12 22  2  0  0  0  0
 12 21  1  0  0  0  0
 15  2  1  0  0  0  0
 15 10  1  0  0  0  0
 16  5  1  0  0  0  0
 17  1  2  0  0  0  0
 18  6  1  0  0  0  0
 19 14  1  0  0  0  0
 19 20  1  1  0  0  0
 21 15  2  0  0  0  0
 22  3  1  0  0  0  0
 23 18  2  0  0  0  0
 23 22  1  0  0  0  0
 24 31  1  0  0  0  0
 25 30  2  0  0  0  0
 27 24  1  0  0  0  0
 28 25  1  0  0  0  0
 28 24  2  0  0  0  0
 29 26  1  0  0  0  0
 30 29  1  0  0  0  0
 31 29  2  0  0  0  0
M  END
>  <MODEL>
3

>  <REMARK>
 VINA RESULT:      -8.8      4.282      8.398
  Name = 
  1 active torsions:
  status: ('A' for Active; 'I' for Inactive)
    1  A    between atoms: C_5  and  C_30
                            x       y       z     vdW  Elec       q    Type
                         _______ _______ _______ _____ _____    ______ ____

>  <TORSDO>
F 1

$$$$
=
 OpenBabel11112416583D

 31 35  0  0  1  0  0  0  0  0999 V2000
  185.8480  178.5620  142.9310 C   0  0  0  0  0  0  0  0  0  0  0  0
  188.2340  175.6140  143.1510 C   0  0  0  0  0  0  0  0  0  0  0  0
  188.5720  175.4720  144.5220 C   0  0  0  0  0  0  0  0  0  0  0  0
  188.0210  174.5140  137.9400 O   0  0  0  0  0  0  0  0  0  0  0  0
  188.7940  173.7020  138.5150 C   0  0  0  0  0  0  0  0  0  0  0  0
  188.1910  175.9270  146.8880 C   0  0  0  0  0  0  0  0  0  0  0  0
  187.0160  176.3750  142.6310 C   0  0  1  0  0  3  0  0  0  0  0  0
  185.5640  178.6660  141.4470 C   0  0  0  0  0  2  0  0  0  0  0  0
  187.8250  176.0780  145.5480 C   0  0  0  0  0  3  0  0  0  0  0  0
  188.5800  174.8680  140.7810 C   0  0  0  0  0  0  0  0  0  0  0  0
  185.3740  179.8900  143.9720 Cl  0  0  0  0  0  0  0  0  0  0  0  0
  190.4160  174.0230  143.9000 C   0  0  0  0  0  3  0  0  0  0  0  0
  187.4610  176.5260  147.8590 F   0  0  0  0  0  0  0  0  0  0  0  0
  187.7160  175.7400  140.3480 N   0  0  0  0  0  0  0  0  0  0  0  0
  188.9840  174.8730  142.2050 C   0  0  0  0  0  0  0  0  0  0  0  0
  189.0950  173.8520  139.9100 N   0  0  0  0  0  2  0  0  0  0  0  0
  186.5780  177.5620  143.4540 C   0  0  0  0  0  3  0  0  0  0  0  0
  189.3100  175.1640  147.2260 C   0  0  0  0  0  3  0  0  0  0  0  0
  187.2420  176.8340  141.1880 C   0  0  1  0  0  3  0  0  0  0  0  0
  185.9410  177.4100  140.6520 C   0  0  0  0  0  2  0  0  0  0  0  0
  190.0440  174.1200  142.6000 N   0  0  0  0  0  0  0  0  0  0  0  0
  189.6910  174.6850  144.8850 C   0  0  0  0  0  0  0  0  0  0  0  0
  190.0570  174.5410  146.2260 C   0  0  0  0  0  3  0  0  0  0  0  0
  190.5350  170.4160  136.3720 C   0  0  0  0  0  0  0  0  0  0  0  0
  189.3660  171.2920  138.2990 C   0  0  0  0  0  3  0  0  0  0  0  0
  190.0820  174.0090  135.9270 F   0  0  0  0  0  0  0  0  0  0  0  0
  191.0950  169.3440  135.6900 O   0  0  0  0  0  1  0  0  0  0  0  0
  189.9290  170.2130  137.6120 C   0  0  0  0  0  3  0  0  0  0  0  0
  190.0180  172.7800  136.5000 C   0  0  0  0  0  0  0  0  0  0  0  0
  189.4020  172.5860  137.7550 C   0  0  0  0  0  0  0  0  0  0  0  0
  190.5800  171.6960  135.8180 C   0  0  0  0  0  3  0  0  0  0  0  0
  1 17  2  0  0  0  0
  1 11  1  0  0  0  0
  2  3  1  0  0  0  0
  3 22  2  0  0  0  0
  3  9  1  0  0  0  0
  4  5  2  0  0  0  0
  5 16  1  0  0  0  0
  6 18  1  0  0  0  0
  6 13  1  0  0  0  0
  7  2  1  0  0  0  0
  7 17  1  1  0  0  0
  8  1  1  0  0  0  0
  9  6  2  0  0  0  0
 10 15  1  0  0  0  0
 12 22  1  0  0  0  0
 14 10  2  0  0  0  0
 14 19  1  0  0  0  0
 15 21  1  0  0  0  0
 15  2  2  0  0  0  0
 16 10  1  0  0  0  0
 19 20  1  6  0  0  0
 19  7  1  0  0  0  0
 20  8  1  0  0  0  0
 21 12  2  0  0  0  0
 22 23  1  0  0  0  0
 23 18  2  0  0  0  0
 24 28  1  0  0  0  0
 26 29  1  0  0  0  0
 27 24  1  0  0  0  0
 28 25  2  0  0  0  0
 29 30  2  0  0  0  0
 30 25  1  0  0  0  0
 30  5  1  0  0  0  0
 31 24  2  0  0  0  0
 31 29  1  0  0  0  0
M  END
>  <MODEL>
4

>  <REMARK>
 VINA RESULT:      -8.3      4.598      7.167
  Name = 
  1 active torsions:
  status: ('A' for Active; 'I' for Inactive)
    1  A    between atoms: C_5  and  C_30
                            x       y       z     vdW  Elec       q    Type
                         _______ _______ _______ _____ _____    ______ ____

>  <TORSDO>
F 1

$$$$
=
 OpenBabel11112416583D

 31 35  0  0  1  0  0  0  0  0999 V2000
  191.0680  177.0380  147.5020 C   0  0  0  0  0  0  0  0  0  0  0  0
  188.3620  176.6720  144.8610 C   0  0  0  0  0  0  0  0  0  0  0  0
  187.2300  177.3790  145.3460 C   0  0  0  0  0  0  0  0  0  0  0  0
  191.4240  173.8790  141.5100 O   0  0  0  0  0  0  0  0  0  0  0  0
  190.2760  174.0300  141.0110 C   0  0  0  0  0  0  0  0  0  0  0  0
  186.1810  178.9830  146.8530 C   0  0  0  0  0  0  0  0  0  0  0  0
  189.7910  176.8730  145.3620 C   0  0  1  0  0  3  0  0  0  0  0  0
  192.2190  176.2370  146.9290 C   0  0  0  0  0  2  0  0  0  0  0  0
  187.3170  178.3130  146.3920 C   0  0  0  0  0  3  0  0  0  0  0  0
  189.3600  175.1960  143.0960 C   0  0  0  0  0  0  0  0  0  0  0  0
  191.1420  177.5310  149.1820 Cl  0  0  0  0  0  0  0  0  0  0  0  0
  185.8520  176.2800  143.6770 C   0  0  0  0  0  3  0  0  0  0  0  0
  186.2880  179.8740  147.8680 F   0  0  0  0  0  0  0  0  0  0  0  0
  190.5040  175.1740  143.7170 N   0  0  0  0  0  0  0  0  0  0  0  0
  188.1870  175.8370  143.7310 C   0  0  0  0  0  0  0  0  0  0  0  0
  189.2370  174.6680  141.7680 N   0  0  0  0  0  2  0  0  0  0  0  0
  189.9330  177.2550  146.8160 C   0  0  0  0  0  3  0  0  0  0  0  0
  184.9370  178.7330  146.2720 C   0  0  0  0  0  3  0  0  0  0  0  0
  190.6370  175.6240  145.0970 C   0  0  1  0  0  3  0  0  0  0  0  0
  192.0860  175.9400  145.4310 C   0  0  0  0  0  2  0  0  0  0  0  0
  186.9540  175.6580  143.1870 N   0  0  0  0  0  0  0  0  0  0  0  0
  185.9640  177.1530  144.7540 C   0  0  0  0  0  0  0  0  0  0  0  0
  184.8290  177.8210  145.2210 C   0  0  0  0  0  3  0  0  0  0  0  0
  189.5070  172.5870  137.0430 C   0  0  0  0  0  0  0  0  0  0  0  0
  190.8340  172.5870  139.0650 C   0  0  0  0  0  3  0  0  0  0  0  0
  188.0420  174.9550  139.4000 F   0  0  0  0  0  0  0  0  0  0  0  0
  189.2710  172.1120  135.7600 O   0  0  0  0  0  1  0  0  0  0  0  0
  190.5960  172.1080  137.7740 C   0  0  0  0  0  3  0  0  0  0  0  0
  188.8900  174.0260  138.8930 C   0  0  0  0  0  0  0  0  0  0  0  0
  189.9890  173.5490  139.6410 C   0  0  0  0  0  0  0  0  0  0  0  0
  188.6580  173.5430  137.6010 C   0  0  0  0  0  3  0  0  0  0  0  0
  1 11  1  0  0  0  0
  2  3  1  0  0  0  0
  2  7  1  0  0  0  0
  3  9  1  0  0  0  0
  5  4  2  0  0  0  0
  5 16  1  0  0  0  0
  6 13  1  0  0  0  0
  7 17  1  1  0  0  0
  8  1  1  0  0  0  0
  9  6  2  0  0  0  0
 10 14  2  0  0  0  0
 10 15  1  0  0  0  0
 12 22  1  0  0  0  0
 14 19  1  0  0  0  0
 15  2  2  0  0  0  0
 16 10  1  0  0  0  0
 17  1  2  0  0  0  0
 18  6  1  0  0  0  0
 19  7  1  0  0  0  0
 19 20  1  6  0  0  0
 20  8  1  0  0  0  0
 21 12  2  0  0  0  0
 21 15  1  0  0  0  0
 22 23  1  0  0  0  0
 22  3  2  0  0  0  0
 23 18  2  0  0  0  0
 24 31  2  0  0  0  0
 24 28  1  0  0  0  0
 25 30  1  0  0  0  0
 27 24  1  0  0  0  0
 28 25  2  0  0  0  0
 29 26  1  0  0  0  0
 29 30  2  0  0  0  0
 30  5  1  0  0  0  0
 31 29  1  0  0  0  0
M  END
>  <MODEL>
5

>  <REMARK>
 VINA RESULT:      -8.1      3.939      6.427
  Name = 
  1 active torsions:
  status: ('A' for Active; 'I' for Inactive)
    1  A    between atoms: C_5  and  C_30
                            x       y       z     vdW  Elec       q    Type
                         _______ _______ _______ _____ _____    ______ ____

>  <TORSDO>
F 1

$$$$
=
 OpenBabel11112416583D

 31 35  0  0  1  0  0  0  0  0999 V2000
  186.1150  178.7970  143.1750 C   0  0  0  0  0  0  0  0  0  0  0  0
  188.9450  176.2670  143.3200 C   0  0  0  0  0  0  0  0  0  0  0  0
  189.5830  176.4510  144.5760 C   0  0  0  0  0  0  0  0  0  0  0  0
  187.8230  174.1100  138.5780 O   0  0  0  0  0  0  0  0  0  0  0  0
  188.8230  173.5320  139.0820 C   0  0  0  0  0  0  0  0  0  0  0  0
  189.6400  177.3290  146.8500 C   0  0  0  0  0  0  0  0  0  0  0  0
  187.5360  176.7530  142.9840 C   0  0  1  0  0  3  0  0  0  0  0  0
  185.5110  178.5600  141.8060 C   0  0  0  0  0  2  0  0  0  0  0  0
  188.9800  177.1580  145.6300 C   0  0  0  0  0  3  0  0  0  0  0  0
  188.9020  175.1020  141.1000 C   0  0  0  0  0  0  0  0  0  0  0  0
  185.6580  180.2410  144.0550 Cl  0  0  0  0  0  0  0  0  0  0  0  0
  191.4680  175.1390  143.7900 C   0  0  0  0  0  3  0  0  0  0  0  0
  189.0420  178.0210  147.8500 F   0  0  0  0  0  0  0  0  0  0  0  0
  187.8350  175.7550  140.7430 N   0  0  0  0  0  0  0  0  0  0  0  0
  189.5900  175.4460  142.3640 C   0  0  0  0  0  0  0  0  0  0  0  0
  189.3820  174.0000  140.3190 N   0  0  0  0  0  2  0  0  0  0  0  0
  187.0930  178.0210  143.6720 C   0  0  0  0  0  3  0  0  0  0  0  0
  190.9140  176.7930  147.0370 C   0  0  0  0  0  3  0  0  0  0  0  0
  187.3750  176.9320  141.4710 C   0  0  1  0  0  3  0  0  0  0  0  0
  185.9140  177.2240  141.1700 C   0  0  0  0  0  2  0  0  0  0  0  0
  190.8190  174.9230  142.6180 N   0  0  0  0  0  0  0  0  0  0  0  0
  190.8670  175.8960  144.7900 C   0  0  0  0  0  0  0  0  0  0  0  0
  191.5260  176.0740  146.0100 C   0  0  0  0  0  3  0  0  0  0  0  0
  190.5720  170.1870  137.0390 C   0  0  0  0  0  0  0  0  0  0  0  0
  189.4630  172.3360  136.9990 C   0  0  0  0  0  3  0  0  0  0  0  0
  189.9830  171.2610  140.4760 F   0  0  0  0  0  0  0  0  0  0  0  0
  191.1340  169.1110  136.3650 O   0  0  0  0  0  1  0  0  0  0  0  0
  190.0290  171.2530  136.3200 C   0  0  0  0  0  3  0  0  0  0  0  0
  189.9850  171.2830  139.1190 C   0  0  0  0  0  0  0  0  0  0  0  0
  189.4320  172.3660  138.4020 C   0  0  0  0  0  0  0  0  0  0  0  0
  190.5490  170.2020  138.4340 C   0  0  0  0  0  3  0  0  0  0  0  0
  1 17  2  0  0  0  0
  1 11  1  0  0  0  0
  2  3  1  0  0  0  0
  3 22  2  0  0  0  0
  3  9  1  0  0  0  0
  4  5  2  0  0  0  0
  5 16  1  0  0  0  0
  6 18  1  0  0  0  0
  6 13  1  0  0  0  0
  7  2  1  0  0  0  0
  7 17  1  1  0  0  0
  8  1  1  0  0  0  0
  9  6  2  0  0  0  0
 10 15  1  0  0  0  0
 12 22  1  0  0  0  0
 14 10  2  0  0  0  0
 14 19  1  0  0  0  0
 15 21  1  0  0  0  0
 15  2  2  0  0  0  0
 16 10  1  0  0  0  0
 19 20  1  1  0  0  0
 19  7  1  0  0  0  0
 20  8  1  0  0  0  0
 21 12  2  0  0  0  0
 22 23  1  0  0  0  0
 23 18  2  0  0  0  0
 24 31  1  0  0  0  0
 25 30  2  0  0  0  0
 27 24  1  0  0  0  0
 28 25  1  0  0  0  0
 28 24  2  0  0  0  0
 29 26  1  0  0  0  0
 30  5  1  0  0  0  0
 30 29  1  0  0  0  0
 31 29  2  0  0  0  0
M  END
>  <MODEL>
6

>  <REMARK>
 VINA RESULT:      -8.1      4.397      6.854
  Name = 
  1 active torsions:
  status: ('A' for Active; 'I' for Inactive)
    1  A    between atoms: C_5  and  C_30
                            x       y       z     vdW  Elec       q    Type
                         _______ _______ _______ _____ _____    ______ ____

>  <TORSDO>
F 1

$$$$
=
 OpenBabel11112416583D

 31 35  0  0  1  0  0  0  0  0999 V2000
  195.0380  174.3720  145.7080 C   0  0  0  0  0  0  0  0  0  0  0  0
  192.0630  173.1880  143.6650 C   0  0  0  0  0  0  0  0  0  0  0  0
  192.2290  171.7890  143.4890 C   0  0  0  0  0  0  0  0  0  0  0  0
  189.7710  177.9940  143.4390 O   0  0  0  0  0  0  0  0  0  0  0  0
  189.0650  177.1570  142.8150 C   0  0  0  0  0  0  0  0  0  0  0  0
  193.2610  169.6570  144.0680 C   0  0  0  0  0  0  0  0  0  0  0  0
  192.7640  174.0160  144.7400 C   0  0  1  0  0  3  0  0  0  0  0  0
  194.8050  175.8650  145.8230 C   0  0  0  0  0  2  0  0  0  0  0  0
  193.1140  171.0310  144.2750 C   0  0  0  0  0  3  0  0  0  0  0  0
  190.7510  175.2620  143.1490 C   0  0  0  0  0  0  0  0  0  0  0  0
  196.6070  173.7310  146.1540 Cl  0  0  0  0  0  0  0  0  0  0  0  0
  190.5430  171.8270  141.7430 C   0  0  0  0  0  3  0  0  0  0  0  0
  194.1260  168.9480  144.8330 F   0  0  0  0  0  0  0  0  0  0  0  0
  191.5540  175.9880  143.8710 N   0  0  0  0  0  0  0  0  0  0  0  0
  191.0660  173.8380  142.8980 C   0  0  0  0  0  0  0  0  0  0  0  0
  189.5220  175.8060  142.6490 N   0  0  0  0  0  2  0  0  0  0  0  0
  194.1420  173.5480  145.1410 C   0  0  0  0  0  3  0  0  0  0  0  0
  192.5220  169.0150  143.0730 C   0  0  0  0  0  3  0  0  0  0  0  0
  192.8480  175.4860  144.3180 C   0  0  1  0  0  3  0  0  0  0  0  0
  193.3730  176.2980  145.4920 C   0  0  0  0  0  2  0  0  0  0  0  0
  190.3530  173.1510  141.9650 N   0  0  0  0  0  0  0  0  0  0  0  0
  191.4710  171.1190  142.4990 C   0  0  0  0  0  0  0  0  0  0  0  0
  191.6250  169.7450  142.2910 C   0  0  0  0  0  3  0  0  0  0  0  0
  185.3000  178.2900  141.0930 C   0  0  0  0  0  0  0  0  0  0  0  0
  187.4730  177.2440  140.9080 C   0  0  0  0  0  3  0  0  0  0  0  0
  187.0130  178.5810  144.3020 F   0  0  0  0  0  0  0  0  0  0  0  0
  184.0870  178.6510  140.5230 O   0  0  0  0  0  1  0  0  0  0  0  0
  186.2510  177.6070  140.3340 C   0  0  0  0  0  3  0  0  0  0  0  0
  186.7900  178.2500  143.0050 C   0  0  0  0  0  0  0  0  0  0  0  0
  187.7590  177.5590  142.2450 C   0  0  0  0  0  0  0  0  0  0  0  0
  185.5700  178.6110  142.4240 C   0  0  0  0  0  3  0  0  0  0  0  0
  1  8  1  0  0  0  0
  1 11  1  0  0  0  0
  2  7  1  0  0  0  0
  3  2  1  0  0  0  0
  3  9  1  0  0  0  0
  5  4  2  0  0  0  0
  6  9  2  0  0  0  0
  6 13  1  0  0  0  0
  7 17  1  6  0  0  0
 10 14  2  0  0  0  0
 12 21  2  0  0  0  0
 12 22  1  0  0  0  0
 14 19  1  0  0  0  0
 15 10  1  0  0  0  0
 15  2  2  0  0  0  0
 16  5  1  0  0  0  0
 16 10  1  0  0  0  0
 17  1  2  0  0  0  0
 18  6  1  0  0  0  0
 19  7  1  0  0  0  0
 19 20  1  1  0  0  0
 20  8  1  0  0  0  0
 21 15  1  0  0  0  0
 22  3  2  0  0  0  0
 23 22  1  0  0  0  0
 23 18  2  0  0  0  0
 24 31  1  0  0  0  0
 25 30  2  0  0  0  0
 27 24  1  0  0  0  0
 28 25  1  0  0  0  0
 28 24  2  0  0  0  0
 29 26  1  0  0  0  0
 30  5  1  0  0  0  0
 30 29  1  0  0  0  0
 31 29  2  0  0  0  0
M  END
>  <MODEL>
7

>  <REMARK>
 VINA RESULT:      -8.0      4.235      8.681
  Name = 
  1 active torsions:
  status: ('A' for Active; 'I' for Inactive)
    1  A    between atoms: C_5  and  C_30
                            x       y       z     vdW  Elec       q    Type
                         _______ _______ _______ _____ _____    ______ ____

>  <TORSDO>
F 1

$$$$
=
 OpenBabel11112416583D

 31 35  0  0  1  0  0  0  0  0999 V2000
  192.9310  172.7940  139.3560 C   0  0  0  0  0  0  0  0  0  0  0  0
  193.1120  175.1990  142.2910 C   0  0  0  0  0  0  0  0  0  0  0  0
  194.4820  175.5330  142.4510 C   0  0  0  0  0  0  0  0  0  0  0  0
  187.8420  175.2920  143.0800 O   0  0  0  0  0  0  0  0  0  0  0  0
  188.4120  176.0310  143.9270 C   0  0  0  0  0  0  0  0  0  0  0  0
  196.7810  175.6280  141.6430 C   0  0  0  0  0  0  0  0  0  0  0  0
  192.5070  174.6080  141.0190 C   0  0  1  0  0  3  0  0  0  0  0  0
  191.4550  172.4640  139.2710 C   0  0  0  0  0  2  0  0  0  0  0  0
  195.4380  175.2970  141.4480 C   0  0  0  0  0  3  0  0  0  0  0  0
  190.7570  175.3900  143.1320 C   0  0  0  0  0  0  0  0  0  0  0  0
  194.0650  171.8130  138.4490 Cl  0  0  0  0  0  0  0  0  0  0  0  0
  193.9840  176.4430  144.6460 C   0  0  0  0  0  3  0  0  0  0  0  0
  197.6860  175.3840  140.6650 F   0  0  0  0  0  0  0  0  0  0  0  0
  190.3170  174.6390  142.1640 N   0  0  0  0  0  0  0  0  0  0  0  0
  192.2130  175.5800  143.3160 C   0  0  0  0  0  0  0  0  0  0  0  0
  189.8450  176.0970  143.9830 N   0  0  0  0  0  2  0  0  0  0  0  0
  193.4130  173.7120  140.2100 C   0  0  0  0  0  3  0  0  0  0  0  0
  197.1920  176.2060  142.8450 C   0  0  0  0  0  3  0  0  0  0  0  0
  191.2190  173.8430  141.3400 C   0  0  1  0  0  3  0  0  0  0  0  0
  190.5540  173.4430  140.0330 C   0  0  0  0  0  2  0  0  0  0  0  0
  192.6700  176.1720  144.4520 N   0  0  0  0  0  0  0  0  0  0  0  0
  194.9130  176.1400  143.6560 C   0  0  0  0  0  0  0  0  0  0  0  0
  196.2580  176.4650  143.8500 C   0  0  0  0  0  3  0  0  0  0  0  0
  186.0650  178.4190  146.6130 C   0  0  0  0  0  0  0  0  0  0  0  0
  186.9580  177.9900  144.4070 C   0  0  0  0  0  3  0  0  0  0  0  0
  188.0820  175.3810  146.7410 F   0  0  0  0  0  0  0  0  0  0  0  0
  185.3040  179.2010  147.4710 O   0  0  0  0  0  1  0  0  0  0  0  0
  186.1910  178.7770  145.2700 C   0  0  0  0  0  3  0  0  0  0  0  0
  187.4750  176.4840  146.2350 C   0  0  0  0  0  0  0  0  0  0  0  0
  187.6080  176.8370  144.8750 C   0  0  0  0  0  0  0  0  0  0  0  0
  186.7070  177.2760  147.0940 C   0  0  0  0  0  3  0  0  0  0  0  0
  1 17  2  0  0  0  0
  2  3  2  0  0  0  0
  2 15  1  0  0  0  0
  3 22  1  0  0  0  0
  4  5  2  0  0  0  0
  5 16  1  0  0  0  0
  5 30  1  0  0  0  0
  6 18  1  0  0  0  0
  7 17  1  1  0  0  0
  7 19  1  0  0  0  0
  7  2  1  0  0  0  0
  8  1  1  0  0  0  0
  8 20  1  0  0  0  0
  9  6  2  0  0  0  0
  9  3  1  0  0  0  0
 10 15  1  0  0  0  0
 10 16  1  0  0  0  0
 11  1  1  0  0  0  0
 13  6  1  0  0  0  0
 14 10  2  0  0  0  0
 15 21  2  0  0  0  0
 18 23  2  0  0  0  0
 19 20  1  6  0  0  0
 19 14  1  0  0  0  0
 21 12  1  0  0  0  0
 22 23  1  0  0  0  0
 22 12  2  0  0  0  0
 24 31  1  0  0  0  0
 24 27  1  0  0  0  0
 25 30  2  0  0  0  0
 25 28  1  0  0  0  0
 28 24  2  0  0  0  0
 29 26  1  0  0  0  0
 29 31  2  0  0  0  0
 30 29  1  0  0  0  0
M  END
>  <MODEL>
8

>  <REMARK>
 VINA RESULT:      -7.9      4.444      8.708
  Name = 
  1 active torsions:
  status: ('A' for Active; 'I' for Inactive)
    1  A    between atoms: C_5  and  C_30
                            x       y       z     vdW  Elec       q    Type
                         _______ _______ _______ _____ _____    ______ ____

>  <TORSDO>
F 1

$$$$
=
 OpenBabel11112416583D

 31 35  0  0  1  0  0  0  0  0999 V2000
  186.9770  177.2810  144.9010 C   0  0  0  0  0  0  0  0  0  0  0  0
  190.1800  175.5570  143.8060 C   0  0  0  0  0  0  0  0  0  0  0  0
  191.1280  175.7790  144.8400 C   0  0  0  0  0  0  0  0  0  0  0  0
  188.1020  173.6390  139.2900 O   0  0  0  0  0  0  0  0  0  0  0  0
  189.3100  173.2910  139.3830 C   0  0  0  0  0  0  0  0  0  0  0  0
  191.7140  176.4250  147.1170 C   0  0  0  0  0  0  0  0  0  0  0  0
  188.6680  175.6960  143.9720 C   0  0  1  0  0  3  0  0  0  0  0  0
  186.0350  177.0270  143.7410 C   0  0  0  0  0  2  0  0  0  0  0  0
  190.7540  176.2060  146.1260 C   0  0  0  0  0  3  0  0  0  0  0  0
  189.6860  174.6320  141.5280 C   0  0  0  0  0  0  0  0  0  0  0  0
  186.5250  178.4720  146.1040 Cl  0  0  0  0  0  0  0  0  0  0  0  0
  192.9010  175.0730  143.3410 C   0  0  0  0  0  3  0  0  0  0  0  0
  191.3310  176.8450  148.3470 F   0  0  0  0  0  0  0  0  0  0  0  0
  188.4460  175.0220  141.6050 N   0  0  0  0  0  0  0  0  0  0  0  0
  190.6490  175.0210  142.5830 C   0  0  0  0  0  0  0  0  0  0  0  0
  190.1180  173.7680  140.4690 N   0  0  0  0  0  2  0  0  0  0  0  0
  188.2040  176.7380  144.9600 C   0  0  0  0  0  3  0  0  0  0  0  0
  193.0660  176.2180  146.8410 C   0  0  0  0  0  3  0  0  0  0  0  0
  188.0010  175.9680  142.6210 C   0  0  1  0  0  3  0  0  0  0  0  0
  186.4930  175.9040  142.8030 C   0  0  0  0  0  2  0  0  0  0  0  0
  191.9770  174.8080  142.3840 N   0  0  0  0  0  0  0  0  0  0  0  0
  192.5020  175.5530  144.5830 C   0  0  0  0  0  0  0  0  0  0  0  0
  193.4590  175.7780  145.5760 C   0  0  0  0  0  3  0  0  0  0  0  0
  190.9980  170.6150  136.4830 C   0  0  0  0  0  0  0  0  0  0  0  0
  189.5370  171.0350  138.3640 C   0  0  0  0  0  3  0  0  0  0  0  0
  191.2300  174.1450  137.3760 F   0  0  0  0  0  0  0  0  0  0  0  0
  191.5370  169.7380  135.5510 O   0  0  0  0  0  1  0  0  0  0  0  0
  190.0790  170.1520  137.4260 C   0  0  0  0  0  3  0  0  0  0  0  0
  190.8370  172.8470  137.4140 C   0  0  0  0  0  0  0  0  0  0  0  0
  189.9070  172.3890  138.3720 C   0  0  0  0  0  0  0  0  0  0  0  0
  191.3760  171.9590  136.4780 C   0  0  0  0  0  3  0  0  0  0  0  0
  1 17  2  0  0  0  0
  1 11  1  0  0  0  0
  2  7  1  0  0  0  0
  2  3  1  0  0  0  0
  3  9  1  0  0  0  0
  4  5  2  0  0  0  0
  5 16  1  0  0  0  0
  6 13  1  0  0  0  0
  7 17  1  1  0  0  0
  8  1  1  0  0  0  0
  9  6  2  0  0  0  0
 10 14  2  0  0  0  0
 10 15  1  0  0  0  0
 12 22  1  0  0  0  0
 14 19  1  0  0  0  0
 15  2  2  0  0  0  0
 16 10  1  0  0  0  0
 18  6  1  0  0  0  0
 19 20  1  1  0  0  0
 19  7  1  0  0  0  0
 20  8  1  0  0  0  0
 21 15  1  0  0  0  0
 21 12  2  0  0  0  0
 22  3  2  0  0  0  0
 22 23  1  0  0  0  0
 23 18  2  0  0  0  0
 24 28  1  0  0  0  0
 25 30  1  0  0  0  0
 26 29  1  0  0  0  0
 27 24  1  0  0  0  0
 28 25  2  0  0  0  0
 29 30  2  0  0  0  0
 30  5  1  0  0  0  0
 31 24  2  0  0  0  0
 31 29  1  0  0  0  0
M  END
>  <MODEL>
9

>  <REMARK>
 VINA RESULT:      -7.9      4.348      7.092
  Name = 
  1 active torsions:
  status: ('A' for Active; 'I' for Inactive)
    1  A    between atoms: C_5  and  C_30
                            x       y       z     vdW  Elec       q    Type
                         _______ _______ _______ _____ _____    ______ ____

>  <TORSDO>
F 1

$$$$
