=
 OpenBabel11112417523D

 34 41  0  0  1  0  0  0  0  0999 V2000
  189.1020  175.2430  142.8750 C   0  0  0  0  0  0  0  0  0  0  0  0
  191.0910  173.5900  142.8770 C   0  0  0  0  0  3  0  0  0  0  0  0
  184.6340  178.0700  146.1400 C   0  0  1  0  0  3  0  0  0  0  0  0
  187.2550  176.8200  143.1370 C   0  0  0  0  0  0  0  0  0  0  0  0
  186.8420  177.6390  145.4150 C   0  0  0  0  0  0  0  0  0  0  0  0
  186.0520  178.4570  147.6950 N   0  0  0  0  0  2  0  0  0  0  0  0
  184.5980  178.2910  147.6320 C   0  0  0  0  0  2  0  0  0  0  0  0
  184.3350  179.0450  143.8880 C   0  0  0  0  0  3  0  0  0  0  0  0
  190.4560  174.5420  144.8370 C   0  0  0  0  0  0  0  0  0  0  0  0
  192.5620  175.4050  146.8880 C   0  0  0  0  0  3  0  0  0  0  0  0
  187.8550  176.9360  145.9370 C   0  0  0  0  0  3  0  0  0  0  0  0
  185.4030  178.4180  143.3320 C   0  0  0  0  0  3  0  0  0  0  0  0
  189.7430  175.3060  145.6610 C   0  0  0  0  0  0  0  0  0  0  0  0
  191.9220  173.1160  143.8100 C   0  0  0  0  0  3  0  0  0  0  0  0
  186.5050  177.5910  143.9470 C   0  0  0  0  0  0  0  0  0  0  0  0
  183.9530  179.0000  145.2770 N   0  0  0  0  0  2  0  0  0  0  0  0
  192.7860  174.6050  145.6190 C   0  0  2  0  0  3  0  0  0  0  0  0
  188.3650  176.0210  143.6900 C   0  0  0  0  0  0  0  0  0  0  0  0
  186.0330  178.5590  146.2430 C   0  0  2  0  0  3  0  0  0  0  0  0
  188.6550  176.0820  145.1080 N   0  0  0  0  0  0  0  0  0  0  0  0
  187.8160  175.8930  140.8960 C   0  0  0  0  0  3  0  0  0  0  0  0
  191.4050  175.7210  147.4990 C   0  0  0  0  0  3  0  0  0  0  0  0
  187.0040  176.7370  141.7250 N   0  0  0  0  0  2  0  0  0  0  0  0
  190.0210  175.2570  147.1310 C   0  0  0  0  0  2  0  0  0  0  0  0
  191.6290  173.6990  145.1780 C   0  0  1  0  0  3  0  0  0  0  0  0
  188.8150  175.1780  141.4250 C   0  0  0  0  0  3  0  0  0  0  0  0
  190.1690  174.4920  143.4600 N   0  0  0  0  0  0  0  0  0  0  0  0
  193.9640  173.8650  145.7410 O   0  0  0  0  0  0  0  0  0  0  0  0
  194.9940  174.8030  145.6320 C   0  0  0  0  0  2  0  0  0  0  0  0
  196.7660  176.7500  143.5130 O   0  0  0  0  0  0  0  0  0  0  0  0
  196.0830  174.6360  143.4200 C   0  0  0  0  0  3  0  0  0  0  0  0
  195.0450  175.3550  144.2190 C   0  0  2  0  0  3  0  0  0  0  0  0
  197.0280  175.4760  143.0480 C   0  0  0  0  0  3  0  0  0  0  0  0
  195.5580  176.7920  144.2540 C   0  0  0  0  0  2  0  0  0  0  0  0
  1 27  1  0  0  0  0
  1 18  2  0  0  0  0
  2 27  1  0  0  0  0
  2 14  2  0  0  0  0
  3 19  1  0  0  0  0
  3  7  1  1  0  0  0
  4 18  1  0  0  0  0
  4 15  2  0  0  0  0
  5 11  2  0  0  0  0
  7  6  1  0  0  0  0
  8 16  1  0  0  0  0
  9 25  1  0  0  0  0
  9 13  2  0  0  0  0
 10 22  2  0  0  0  0
 12  8  2  0  0  0  0
 12 15  1  0  0  0  0
 13 24  1  0  0  0  0
 15  5  1  0  0  0  0
 16  3  1  0  0  0  0
 17 28  1  1  0  0  0
 17 10  1  0  0  0  0
 18 20  1  0  0  0  0
 19  5  1  6  0  0  0
 19  6  1  0  0  0  0
 20 13  1  0  0  0  0
 20 11  1  0  0  0  0
 21 26  2  0  0  0  0
 21 23  1  0  0  0  0
 23  4  1  0  0  0  0
 24 22  1  0  0  0  0
 25 14  1  6  0  0  0
 25 17  1  0  0  0  0
 26  1  1  0  0  0  0
 27  9  1  0  0  0  0
 29 28  1  0  0  0  0
 30 34  1  0  0  0  0
 31 32  1  0  0  0  0
 32 34  1  0  0  0  0
 32 29  1  1  0  0  0
 33 31  2  0  0  0  0
 33 30  1  0  0  0  0
M  END
>  <MODEL>
1

>  <REMARK>
 VINA RESULT:      -9.1      0.000      0.000
  Name = 
  3 active torsions:
  status: ('A' for Active; 'I' for Inactive)
    1  A    between atoms: C_17  and  O_28
    2  A    between atoms: O_28  and  C_29
    3  A    between atoms: C_29  and  C_32
                            x       y       z     vdW  Elec       q    Type
                         _______ _______ _______ _____ _____    ______ ____

>  <TORSDO>
F 3

$$$$
=
 OpenBabel11112417523D

 34 41  0  0  1  0  0  0  0  0999 V2000
  189.0540  175.1420  142.8600 C   0  0  0  0  0  0  0  0  0  0  0  0
  191.0180  173.4600  142.8780 C   0  0  0  0  0  3  0  0  0  0  0  0
  184.6130  178.0480  146.0930 C   0  0  1  0  0  3  0  0  0  0  0  0
  187.2290  176.7470  143.1060 C   0  0  0  0  0  0  0  0  0  0  0  0
  186.8170  177.5820  145.3800 C   0  0  0  0  0  0  0  0  0  0  0  0
  186.0290  178.4210  147.6520 N   0  0  0  0  0  2  0  0  0  0  0  0
  184.5740  178.2760  147.5840 C   0  0  0  0  0  2  0  0  0  0  0  0
  184.3380  179.0170  143.8350 C   0  0  0  0  0  3  0  0  0  0  0  0
  190.3890  174.4300  144.8310 C   0  0  0  0  0  0  0  0  0  0  0  0
  192.4980  175.2710  146.8880 C   0  0  0  0  0  3  0  0  0  0  0  0
  187.8180  176.8660  145.9090 C   0  0  0  0  0  3  0  0  0  0  0  0
  185.4000  178.3720  143.2870 C   0  0  0  0  0  3  0  0  0  0  0  0
  189.6830  175.2080  145.6490 C   0  0  0  0  0  0  0  0  0  0  0  0
  191.8380  172.9780  143.8170 C   0  0  0  0  0  3  0  0  0  0  0  0
  186.4870  177.5320  143.9100 C   0  0  0  0  0  0  0  0  0  0  0  0
  183.9490  178.9840  145.2230 N   0  0  0  0  0  2  0  0  0  0  0  0
  192.7150  174.4620  145.6230 C   0  0  2  0  0  3  0  0  0  0  0  0
  188.3240  175.9340  143.6690 C   0  0  0  0  0  0  0  0  0  0  0  0
  186.0180  178.5170  146.2000 C   0  0  2  0  0  3  0  0  0  0  0  0
  188.6090  175.9970  145.0870 N   0  0  0  0  0  0  0  0  0  0  0  0
  187.7860  175.8020  140.8720 C   0  0  0  0  0  3  0  0  0  0  0  0
  191.3420  175.6060  147.4930 C   0  0  0  0  0  3  0  0  0  0  0  0
  186.9830  176.6620  141.6940 N   0  0  0  0  0  2  0  0  0  0  0  0
  189.9530  175.1610  147.1200 C   0  0  0  0  0  2  0  0  0  0  0  0
  191.5480  173.5710  145.1810 C   0  0  1  0  0  3  0  0  0  0  0  0
  188.7720  175.0750  141.4090 C   0  0  0  0  0  3  0  0  0  0  0  0
  190.1070  174.3780  143.4540 N   0  0  0  0  0  0  0  0  0  0  0  0
  193.8820  173.7050  145.7540 O   0  0  0  0  0  0  0  0  0  0  0  0
  194.9140  174.5580  145.3540 C   0  0  0  0  0  2  0  0  0  0  0  0
  196.9580  172.0250  146.2600 O   0  0  0  0  0  0  0  0  0  0  0  0
  195.7060  172.3950  144.4610 C   0  0  0  0  0  3  0  0  0  0  0  0
  196.1270  173.7470  144.9370 C   0  0  2  0  0  3  0  0  0  0  0  0
  196.2070  171.4630  145.2460 C   0  0  0  0  0  3  0  0  0  0  0  0
  196.9780  173.4380  146.1660 C   0  0  0  0  0  2  0  0  0  0  0  0
  1 27  1  0  0  0  0
  1 18  2  0  0  0  0
  2 27  1  0  0  0  0
  2 14  2  0  0  0  0
  3 19  1  0  0  0  0
  3  7  1  1  0  0  0
  4 18  1  0  0  0  0
  4 15  2  0  0  0  0
  5 11  2  0  0  0  0
  7  6  1  0  0  0  0
  8 16  1  0  0  0  0
  9 25  1  0  0  0  0
  9 13  2  0  0  0  0
 10 22  2  0  0  0  0
 12  8  2  0  0  0  0
 12 15  1  0  0  0  0
 13 24  1  0  0  0  0
 15  5  1  0  0  0  0
 16  3  1  0  0  0  0
 17 28  1  1  0  0  0
 17 10  1  0  0  0  0
 18 20  1  0  0  0  0
 19  5  1  6  0  0  0
 19  6  1  0  0  0  0
 20 13  1  0  0  0  0
 20 11  1  0  0  0  0
 21 26  2  0  0  0  0
 21 23  1  0  0  0  0
 23  4  1  0  0  0  0
 24 22  1  0  0  0  0
 25 14  1  6  0  0  0
 25 17  1  0  0  0  0
 26  1  1  0  0  0  0
 27  9  1  0  0  0  0
 29 28  1  0  0  0  0
 31 32  1  0  0  0  0
 31 33  2  0  0  0  0
 32 29  1  1  0  0  0
 32 34  1  0  0  0  0
 33 30  1  0  0  0  0
 34 30  1  0  0  0  0
M  END
>  <MODEL>
2

>  <REMARK>
 VINA RESULT:      -8.9      1.113      1.529
  Name = 
  3 active torsions:
  status: ('A' for Active; 'I' for Inactive)
    1  A    between atoms: C_17  and  O_28
    2  A    between atoms: O_28  and  C_29
    3  A    between atoms: C_29  and  C_32
                            x       y       z     vdW  Elec       q    Type
                         _______ _______ _______ _____ _____    ______ ____

>  <TORSDO>
F 3

$$$$
=
 OpenBabel11112417523D

 34 41  0  0  1  0  0  0  0  0999 V2000
  189.4680  174.8390  141.9640 C   0  0  0  0  0  0  0  0  0  0  0  0
  187.0700  175.6550  142.4830 C   0  0  0  0  0  3  0  0  0  0  0  0
  195.5770  175.8200  142.5450 C   0  0  1  0  0  3  0  0  0  0  0  0
  191.8150  174.2270  141.6720 C   0  0  0  0  0  0  0  0  0  0  0  0
  193.4030  175.2280  143.2570 C   0  0  0  0  0  0  0  0  0  0  0  0
  195.2770  176.3020  144.6070 N   0  0  0  0  0  2  0  0  0  0  0  0
  196.2690  176.6590  143.5910 C   0  0  0  0  0  2  0  0  0  0  0  0
  195.5050  173.6770  141.3150 C   0  0  0  0  0  3  0  0  0  0  0  0
  188.7810  176.3900  143.7800 C   0  0  0  0  0  0  0  0  0  0  0  0
  188.3950  176.7270  146.8010 C   0  0  0  0  0  3  0  0  0  0  0  0
  192.4460  175.8890  143.9210 C   0  0  0  0  0  3  0  0  0  0  0  0
  194.1520  173.5570  141.3440 C   0  0  0  0  0  3  0  0  0  0  0  0
  190.0340  176.5220  144.2060 C   0  0  0  0  0  0  0  0  0  0  0  0
  186.5250  176.4580  143.4010 C   0  0  0  0  0  3  0  0  0  0  0  0
  193.0960  174.3520  142.0700 C   0  0  0  0  0  0  0  0  0  0  0  0
  196.2790  174.7060  141.9630 N   0  0  0  0  0  2  0  0  0  0  0  0
  187.3310  176.4190  145.7640 C   0  0  2  0  0  3  0  0  0  0  0  0
  190.7450  174.9600  142.3760 C   0  0  0  0  0  0  0  0  0  0  0  0
  194.8140  175.2680  143.6940 C   0  0  2  0  0  3  0  0  0  0  0  0
  191.0760  175.8020  143.5060 N   0  0  0  0  0  0  0  0  0  0  0  0
  190.0710  173.3010  140.1580 C   0  0  0  0  0  3  0  0  0  0  0  0
  189.6680  177.1260  146.6170 C   0  0  0  0  0  3  0  0  0  0  0  0
  191.4450  173.3970  140.5610 N   0  0  0  0  0  2  0  0  0  0  0  0
  190.3350  177.4810  145.3150 C   0  0  0  0  0  2  0  0  0  0  0  0
  187.5610  177.0010  144.3640 C   0  0  1  0  0  3  0  0  0  0  0  0
  189.1210  173.9780  140.8120 C   0  0  0  0  0  3  0  0  0  0  0  0
  188.4680  175.5670  142.6820 N   0  0  0  0  0  0  0  0  0  0  0  0
  186.0820  176.8100  146.2540 O   0  0  0  0  0  0  0  0  0  0  0  0
  186.3270  177.9840  146.9720 C   0  0  0  0  0  2  0  0  0  0  0  0
  184.8730  179.5580  144.3590 O   0  0  0  0  0  0  0  0  0  0  0  0
  184.0620  178.4160  146.0850 C   0  0  0  0  0  3  0  0  0  0  0  0
  185.3190  179.0500  146.5830 C   0  0  2  0  0  3  0  0  0  0  0  0
  183.8620  178.7390  144.8230 C   0  0  0  0  0  3  0  0  0  0  0  0
  185.8330  179.8160  145.3680 C   0  0  0  0  0  2  0  0  0  0  0  0
  1 18  2  0  0  0  0
  1 27  1  0  0  0  0
  2 27  1  0  0  0  0
  2 14  2  0  0  0  0
  3  7  1  1  0  0  0
  3 19  1  0  0  0  0
  4 15  2  0  0  0  0
  4 18  1  0  0  0  0
  5 11  2  0  0  0  0
  7  6  1  0  0  0  0
  8 12  2  0  0  0  0
  8 16  1  0  0  0  0
  9 13  2  0  0  0  0
  9 25  1  0  0  0  0
 12 15  1  0  0  0  0
 13 24  1  0  0  0  0
 15  5  1  0  0  0  0
 16  3  1  0  0  0  0
 17 28  1  1  0  0  0
 17 10  1  0  0  0  0
 18 20  1  0  0  0  0
 19  5  1  6  0  0  0
 19  6  1  0  0  0  0
 20 11  1  0  0  0  0
 20 13  1  0  0  0  0
 21 23  1  0  0  0  0
 21 26  2  0  0  0  0
 22 10  2  0  0  0  0
 23  4  1  0  0  0  0
 24 22  1  0  0  0  0
 25 14  1  6  0  0  0
 25 17  1  0  0  0  0
 26  1  1  0  0  0  0
 27  9  1  0  0  0  0
 28 29  1  0  0  0  0
 30 33  1  0  0  0  0
 30 34  1  0  0  0  0
 31 32  1  0  0  0  0
 32 29  1  6  0  0  0
 33 31  2  0  0  0  0
 34 32  1  0  0  0  0
M  END
>  <MODEL>
3

>  <REMARK>
 VINA RESULT:      -8.5      3.254      8.071
  Name = 
  3 active torsions:
  status: ('A' for Active; 'I' for Inactive)
    1  A    between atoms: C_17  and  O_28
    2  A    between atoms: O_28  and  C_29
    3  A    between atoms: C_29  and  C_32
                            x       y       z     vdW  Elec       q    Type
                         _______ _______ _______ _____ _____    ______ ____

>  <TORSDO>
F 3

$$$$
=
 OpenBabel11112417523D

 34 41  0  0  1  0  0  0  0  0999 V2000
  192.0820  176.4160  145.7360 C   0  0  0  0  0  0  0  0  0  0  0  0
  189.7510  176.5260  146.8500 C   0  0  0  0  0  3  0  0  0  0  0  0
  195.5360  174.3430  141.0040 C   0  0  1  0  0  3  0  0  0  0  0  0
  194.1580  176.2430  144.4600 C   0  0  0  0  0  0  0  0  0  0  0  0
  193.9240  175.6990  142.0760 C   0  0  0  0  0  0  0  0  0  0  0  0
  193.9810  174.9180  139.6520 N   0  0  0  0  0  2  0  0  0  0  0  0
  195.0500  173.9170  139.6410 C   0  0  0  0  0  2  0  0  0  0  0  0
  197.1710  175.6610  142.3090 C   0  0  0  0  0  3  0  0  0  0  0  0
  189.8850  176.0530  144.6340 C   0  0  0  0  0  0  0  0  0  0  0  0
  187.8200  177.2000  142.6830 C   0  0  0  0  0  3  0  0  0  0  0  0
  192.5870  175.6570  142.1350 C   0  0  0  0  0  3  0  0  0  0  0  0
  196.2750  176.1070  143.2270 C   0  0  0  0  0  3  0  0  0  0  0  0
  190.4600  175.8240  143.4570 C   0  0  0  0  0  0  0  0  0  0  0  0
  188.4940  176.3740  146.4230 C   0  0  0  0  0  3  0  0  0  0  0  0
  194.7710  176.0010  143.2860 C   0  0  0  0  0  0  0  0  0  0  0  0
  196.8680  174.8750  141.1400 N   0  0  0  0  0  2  0  0  0  0  0  0
  187.7900  177.2630  144.1980 C   0  0  2  0  0  3  0  0  0  0  0  0
  192.6870  176.1840  144.5550 C   0  0  2  0  0  3  0  0  0  0  0  0
  194.6470  175.5150  140.8000 C   0  0  2  0  0  3  0  0  0  0  0  0
  191.9030  175.8800  143.3760 N   0  0  0  0  0  0  0  0  0  0  0  0
  194.2100  176.7920  146.8870 C   0  0  0  0  0  3  0  0  0  0  0  0
  188.6120  176.4640  141.8800 C   0  0  0  0  0  3  0  0  0  0  0  0
  194.8980  176.5540  145.6510 N   0  0  0  0  0  0  0  0  0  0  0  0
  189.6120  175.4170  142.2920 C   0  0  0  0  0  2  0  0  0  0  0  0
  188.4320  176.0820  144.9370 C   0  0  1  0  0  3  0  0  0  0  0  0
  192.8750  176.7300  146.9450 C   0  0  0  0  0  3  0  0  0  0  0  0
  190.6540  176.3510  145.7740 N   0  0  0  0  0  0  0  0  0  0  0  0
  186.4730  177.4470  144.6260 O   0  0  0  0  0  0  0  0  0  0  0  0
  186.1990  178.7950  144.3830 C   0  0  0  0  0  2  0  0  0  0  0  0
  184.0590  178.0410  146.8880 O   0  0  0  0  0  0  0  0  0  0  0  0
  186.0400  179.0490  146.8360 C   0  0  0  0  0  3  0  0  0  0  0  0
  185.3930  179.3770  145.5300 C   0  0  2  0  0  3  0  0  0  0  0  0
  185.2400  178.2930  147.5600 C   0  0  0  0  0  3  0  0  0  0  0  0
  184.0460  178.6650  145.6160 C   0  0  0  0  0  2  0  0  0  0  0  0
  1 27  1  0  0  0  0
  1 26  2  0  0  0  0
  3  7  1  6  0  0  0
  3 16  1  0  0  0  0
  4 23  1  0  0  0  0
  5 11  2  0  0  0  0
  5 15  1  0  0  0  0
  7  6  1  0  0  0  0
  8 12  2  0  0  0  0
  9 25  1  0  0  0  0
  9 27  1  0  0  0  0
 10 17  1  0  0  0  0
 11 20  1  0  0  0  0
 12 15  1  0  0  0  0
 13  9  2  0  0  0  0
 14  2  2  0  0  0  0
 15  4  2  0  0  0  0
 16  8  1  0  0  0  0
 17 28  1  1  0  0  0
 17 25  1  0  0  0  0
 18  4  1  6  0  0  0
 18  1  1  0  0  0  0
 19  6  1  6  0  0  0
 19  3  1  0  0  0  0
 19  5  1  0  0  0  0
 20 13  1  0  0  0  0
 20 18  1  0  0  0  0
 21 26  1  0  0  0  0
 22 24  1  0  0  0  0
 22 10  2  0  0  0  0
 23 21  2  0  0  0  0
 24 13  1  0  0  0  0
 25 14  1  1  0  0  0
 27  2  1  0  0  0  0
 29 28  1  0  0  0  0
 30 33  1  0  0  0  0
 31 33  2  0  0  0  0
 32 29  1  6  0  0  0
 32 34  1  0  0  0  0
 32 31  1  0  0  0  0
 34 30  1  0  0  0  0
M  END
>  <MODEL>
4

>  <REMARK>
 VINA RESULT:      -8.4      3.379      8.921
  Name = 
  3 active torsions:
  status: ('A' for Active; 'I' for Inactive)
    1  A    between atoms: C_17  and  O_28
    2  A    between atoms: O_28  and  C_29
    3  A    between atoms: C_29  and  C_32
                            x       y       z     vdW  Elec       q    Type
                         _______ _______ _______ _____ _____    ______ ____

>  <TORSDO>
F 3

$$$$
=
 OpenBabel11112417523D

 34 41  0  0  1  0  0  0  0  0999 V2000
  192.3950  175.6850  145.3520 C   0  0  0  0  0  0  0  0  0  0  0  0
  190.2360  177.0860  145.0980 C   0  0  0  0  0  3  0  0  0  0  0  0
  194.9350  170.0620  146.0930 C   0  0  1  0  0  3  0  0  0  0  0  0
  194.2870  174.1500  145.5220 C   0  0  0  0  0  0  0  0  0  0  0  0
  193.8410  171.8070  144.9340 C   0  0  0  0  0  0  0  0  0  0  0  0
  193.5970  169.2920  144.6130 N   0  0  0  0  0  2  0  0  0  0  0  0
  194.3100  168.7300  145.7620 C   0  0  0  0  0  2  0  0  0  0  0  0
  196.9250  171.5200  145.9330 C   0  0  0  0  0  3  0  0  0  0  0  0
  190.1650  174.8700  144.6170 C   0  0  0  0  0  0  0  0  0  0  0  0
  188.5020  173.8550  142.2520 C   0  0  0  0  0  3  0  0  0  0  0  0
  192.5560  172.0430  144.6380 C   0  0  0  0  0  3  0  0  0  0  0  0
  196.2310  172.6620  145.6910 C   0  0  0  0  0  3  0  0  0  0  0  0
  190.6150  173.6250  144.4770 C   0  0  0  0  0  0  0  0  0  0  0  0
  188.9830  176.8260  144.7150 C   0  0  0  0  0  3  0  0  0  0  0  0
  194.7680  172.8970  145.4050 C   0  0  0  0  0  0  0  0  0  0  0  0
  196.3680  170.1950  146.0450 N   0  0  0  0  0  2  0  0  0  0  0  0
  188.5300  175.2600  142.8240 C   0  0  2  0  0  3  0  0  0  0  0  0
  192.8710  174.4320  145.2200 C   0  0  2  0  0  3  0  0  0  0  0  0
  194.4420  170.4690  144.7530 C   0  0  2  0  0  3  0  0  0  0  0  0
  192.0040  173.3590  144.7800 N   0  0  0  0  0  0  0  0  0  0  0  0
  194.5630  176.5610  146.0760 C   0  0  0  0  0  3  0  0  0  0  0  0
  189.0120  172.7200  142.7670 C   0  0  0  0  0  3  0  0  0  0  0  0
  195.1160  175.2420  145.9490 N   0  0  0  0  0  0  0  0  0  0  0  0
  189.6550  172.5350  144.1160 C   0  0  0  0  0  2  0  0  0  0  0  0
  188.7990  175.3730  144.3300 C   0  0  1  0  0  3  0  0  0  0  0  0
  193.2750  176.7880  145.7970 C   0  0  0  0  0  3  0  0  0  0  0  0
  191.0160  175.9070  145.0420 N   0  0  0  0  0  0  0  0  0  0  0  0
  187.3430  175.9170  142.4910 O   0  0  0  0  0  0  0  0  0  0  0  0
  187.6120  176.5580  141.2790 C   0  0  0  0  0  2  0  0  0  0  0  0
  184.6480  178.1600  141.0190 O   0  0  0  0  0  0  0  0  0  0  0  0
  186.2560  178.1850  142.5530 C   0  0  0  0  0  3  0  0  0  0  0  0
  186.9490  177.9230  141.2550 C   0  0  2  0  0  3  0  0  0  0  0  0
  184.9590  178.3100  142.3560 C   0  0  0  0  0  3  0  0  0  0  0  0
  185.8080  177.9160  140.2420 C   0  0  0  0  0  2  0  0  0  0  0  0
  1 26  2  0  0  0  0
  3  7  1  6  0  0  0
  4 23  1  0  0  0  0
  5 15  1  0  0  0  0
  6  7  1  0  0  0  0
  8 16  1  0  0  0  0
  9 27  1  0  0  0  0
 10 22  2  0  0  0  0
 10 17  1  0  0  0  0
 11 20  1  0  0  0  0
 11  5  2  0  0  0  0
 12  8  2  0  0  0  0
 13  9  2  0  0  0  0
 13 20  1  0  0  0  0
 14  2  2  0  0  0  0
 15  4  2  0  0  0  0
 15 12  1  0  0  0  0
 16  3  1  0  0  0  0
 17 28  1  1  0  0  0
 17 25  1  0  0  0  0
 18  1  1  6  0  0  0
 18  4  1  0  0  0  0
 19  6  1  1  0  0  0
 19  5  1  0  0  0  0
 19  3  1  0  0  0  0
 20 18  1  0  0  0  0
 22 24  1  0  0  0  0
 23 21  2  0  0  0  0
 24 13  1  0  0  0  0
 25  9  1  0  0  0  0
 25 14  1  6  0  0  0
 26 21  1  0  0  0  0
 27  2  1  0  0  0  0
 27  1  1  0  0  0  0
 29 28  1  0  0  0  0
 30 33  1  0  0  0  0
 32 29  1  1  0  0  0
 32 31  1  0  0  0  0
 33 31  2  0  0  0  0
 34 30  1  0  0  0  0
 34 32  1  0  0  0  0
M  END
>  <MODEL>
5

>  <REMARK>
 VINA RESULT:      -8.3      3.752      8.967
  Name = 
  3 active torsions:
  status: ('A' for Active; 'I' for Inactive)
    1  A    between atoms: C_17  and  O_28
    2  A    between atoms: O_28  and  C_29
    3  A    between atoms: C_29  and  C_32
                            x       y       z     vdW  Elec       q    Type
                         _______ _______ _______ _____ _____    ______ ____

>  <TORSDO>
F 3

$$$$
=
 OpenBabel11112417523D

 34 41  0  0  1  0  0  0  0  0999 V2000
  189.5820  174.4090  142.0790 C   0  0  0  0  0  0  0  0  0  0  0  0
  191.4460  172.9440  143.1120 C   0  0  0  0  0  3  0  0  0  0  0  0
  184.7300  178.1680  143.0460 C   0  0  1  0  0  3  0  0  0  0  0  0
  187.8030  175.9110  141.3400 C   0  0  0  0  0  0  0  0  0  0  0  0
  187.0090  177.5470  142.9910 C   0  0  0  0  0  0  0  0  0  0  0  0
  185.8460  179.1730  144.5700 N   0  0  0  0  0  2  0  0  0  0  0  0
  184.4240  178.9570  144.2950 C   0  0  0  0  0  2  0  0  0  0  0  0
  184.9130  178.1730  140.5800 C   0  0  0  0  0  3  0  0  0  0  0  0
  190.5020  174.5710  144.3820 C   0  0  0  0  0  0  0  0  0  0  0  0
  192.2230  176.2260  146.3010 C   0  0  0  0  0  3  0  0  0  0  0  0
  187.8680  177.1330  143.9320 C   0  0  0  0  0  3  0  0  0  0  0  0
  186.0340  177.4060  140.5320 C   0  0  0  0  0  3  0  0  0  0  0  0
  189.6860  175.5770  144.6870 C   0  0  0  0  0  0  0  0  0  0  0  0
  192.0590  172.8970  144.2990 C   0  0  0  0  0  3  0  0  0  0  0  0
  186.9550  176.9180  141.6230 C   0  0  0  0  0  0  0  0  0  0  0  0
  184.2730  178.6660  141.7740 N   0  0  0  0  0  2  0  0  0  0  0  0
  192.6410  174.9990  145.5140 C   0  0  2  0  0  3  0  0  0  0  0  0
  188.7450  175.4240  142.3660 C   0  0  0  0  0  0  0  0  0  0  0  0
  186.1070  178.6960  143.2200 C   0  0  2  0  0  3  0  0  0  0  0  0
  188.7640  176.0440  143.6740 N   0  0  0  0  0  0  0  0  0  0  0  0
  188.7300  174.1950  139.7930 C   0  0  0  0  0  3  0  0  0  0  0  0
  190.9890  176.7250  146.5030 C   0  0  0  0  0  3  0  0  0  0  0  0
  187.8200  175.2740  140.0530 N   0  0  0  0  0  2  0  0  0  0  0  0
  189.6770  176.1170  146.0830 C   0  0  0  0  0  2  0  0  0  0  0  0
  191.5440  173.9610  145.2450 C   0  0  1  0  0  3  0  0  0  0  0  0
  189.5710  173.7720  140.7430 C   0  0  0  0  0  3  0  0  0  0  0  0
  190.4780  173.9770  143.1060 N   0  0  0  0  0  0  0  0  0  0  0  0
  193.7350  174.3980  146.1420 O   0  0  0  0  0  0  0  0  0  0  0  0
  194.8180  175.2330  145.8580 C   0  0  0  0  0  2  0  0  0  0  0  0
  197.0680  176.1970  143.5280 O   0  0  0  0  0  0  0  0  0  0  0  0
  196.4970  174.2150  144.3570 C   0  0  0  0  0  3  0  0  0  0  0  0
  195.2550  175.0440  144.4170 C   0  0  2  0  0  3  0  0  0  0  0  0
  197.4860  174.9190  143.8450 C   0  0  0  0  0  3  0  0  0  0  0  0
  195.6990  176.3860  143.8410 C   0  0  0  0  0  2  0  0  0  0  0  0
  1 18  2  0  0  0  0
  1 27  1  0  0  0  0
  2 14  2  0  0  0  0
  3 19  1  0  0  0  0
  3  7  1  1  0  0  0
  4 15  2  0  0  0  0
  4 18  1  0  0  0  0
  5 11  2  0  0  0  0
  7  6  1  0  0  0  0
  8 16  1  0  0  0  0
  9 13  2  0  0  0  0
  9 25  1  0  0  0  0
 10 22  2  0  0  0  0
 12  8  2  0  0  0  0
 12 15  1  0  0  0  0
 13 24  1  0  0  0  0
 15  5  1  0  0  0  0
 16  3  1  0  0  0  0
 17 28  1  1  0  0  0
 17 10  1  0  0  0  0
 18 20  1  0  0  0  0
 19  5  1  1  0  0  0
 19  6  1  0  0  0  0
 20 11  1  0  0  0  0
 20 13  1  0  0  0  0
 21 23  1  0  0  0  0
 21 26  2  0  0  0  0
 23  4  1  0  0  0  0
 24 22  1  0  0  0  0
 25 14  1  6  0  0  0
 25 17  1  0  0  0  0
 26  1  1  0  0  0  0
 27  2  1  0  0  0  0
 27  9  1  0  0  0  0
 29 28  1  0  0  0  0
 30 34  1  0  0  0  0
 30 33  1  0  0  0  0
 31 32  1  0  0  0  0
 32 29  1  1  0  0  0
 33 31  2  0  0  0  0
 34 32  1  0  0  0  0
M  END
>  <MODEL>
6

>  <REMARK>
 VINA RESULT:      -8.3      1.432      1.929
  Name = 
  3 active torsions:
  status: ('A' for Active; 'I' for Inactive)
    1  A    between atoms: C_17  and  O_28
    2  A    between atoms: O_28  and  C_29
    3  A    between atoms: C_29  and  C_32
                            x       y       z     vdW  Elec       q    Type
                         _______ _______ _______ _____ _____    ______ ____

>  <TORSDO>
F 3

$$$$
=
 OpenBabel11112417523D

 34 41  0  0  1  0  0  0  0  0999 V2000
  188.9240  177.2860  146.4610 C   0  0  0  0  0  0  0  0  0  0  0  0
  191.1880  176.8510  147.6340 C   0  0  0  0  0  3  0  0  0  0  0  0
  185.8900  178.2730  141.1290 C   0  0  1  0  0  3  0  0  0  0  0  0
  186.9050  177.6190  145.1280 C   0  0  0  0  0  0  0  0  0  0  0  0
  187.0610  177.0160  142.7520 C   0  0  0  0  0  0  0  0  0  0  0  0
  187.0190  176.6970  140.2250 N   0  0  0  0  0  2  0  0  0  0  0  0
  186.3470  177.9040  139.7390 C   0  0  0  0  0  2  0  0  0  0  0  0
  184.0520  178.2590  142.7830 C   0  0  0  0  0  3  0  0  0  0  0  0
  190.9930  176.3840  145.4210 C   0  0  0  0  0  0  0  0  0  0  0  0
  192.3500  173.9030  144.2420 C   0  0  0  0  0  3  0  0  0  0  0  0
  188.3350  176.6170  142.8550 C   0  0  0  0  0  3  0  0  0  0  0  0
  184.8390  177.9530  143.8480 C   0  0  0  0  0  3  0  0  0  0  0  0
  190.4090  176.2900  144.2290 C   0  0  0  0  0  0  0  0  0  0  0  0
  192.3740  176.3710  147.2460 C   0  0  0  0  0  3  0  0  0  0  0  0
  186.2900  177.5500  143.9320 C   0  0  0  0  0  0  0  0  0  0  0  0
  184.4780  178.3370  141.4080 N   0  0  0  0  0  2  0  0  0  0  0  0
  192.5110  174.4640  145.6420 C   0  0  2  0  0  3  0  0  0  0  0  0
  188.3130  177.2030  145.2640 C   0  0  2  0  0  3  0  0  0  0  0  0
  186.3140  176.8940  141.4830 C   0  0  2  0  0  3  0  0  0  0  0  0
  189.0290  176.7050  144.1080 N   0  0  0  0  0  0  0  0  0  0  0  0
  186.9210  178.1730  147.5550 C   0  0  0  0  0  3  0  0  0  0  0  0
  191.7690  174.4650  143.1640 C   0  0  0  0  0  3  0  0  0  0  0  0
  186.2290  178.1010  146.3000 N   0  0  0  0  0  0  0  0  0  0  0  0
  191.2210  175.8620  143.0460 C   0  0  0  0  0  2  0  0  0  0  0  0
  192.3770  175.9850  145.7820 C   0  0  1  0  0  3  0  0  0  0  0  0
  188.1990  177.7910  147.6490 C   0  0  0  0  0  3  0  0  0  0  0  0
  190.2890  176.8660  146.5400 N   0  0  0  0  0  0  0  0  0  0  0  0
  193.7290  174.0320  146.1740 O   0  0  0  0  0  0  0  0  0  0  0  0
  194.5940  173.9520  145.0790 C   0  0  0  0  0  2  0  0  0  0  0  0
  197.6670  174.7900  143.9500 O   0  0  0  0  0  0  0  0  0  0  0  0
  195.7630  175.9210  144.1510 C   0  0  0  0  0  3  0  0  0  0  0  0
  195.7500  174.9200  145.2590 C   0  0  2  0  0  3  0  0  0  0  0  0
  196.8710  175.8010  143.4470 C   0  0  0  0  0  3  0  0  0  0  0  0
  197.0690  174.1740  145.0770 C   0  0  0  0  0  2  0  0  0  0  0  0
  1 27  1  0  0  0  0
  1 26  2  0  0  0  0
  3  7  1  6  0  0  0
  3 16  1  0  0  0  0
  3 19  1  0  0  0  0
  4 23  1  0  0  0  0
  5 11  2  0  0  0  0
  5 15  1  0  0  0  0
  7  6  1  0  0  0  0
  8 12  2  0  0  0  0
  9 25  1  0  0  0  0
  9 27  1  0  0  0  0
 10 17  1  0  0  0  0
 11 20  1  0  0  0  0
 12 15  1  0  0  0  0
 13  9  2  0  0  0  0
 14  2  2  0  0  0  0
 15  4  2  0  0  0  0
 16  8  1  0  0  0  0
 17 25  1  0  0  0  0
 17 28  1  6  0  0  0
 18  4  1  1  0  0  0
 18  1  1  0  0  0  0
 19  6  1  6  0  0  0
 19  5  1  0  0  0  0
 20 13  1  0  0  0  0
 20 18  1  0  0  0  0
 21 26  1  0  0  0  0
 22 10  2  0  0  0  0
 23 21  2  0  0  0  0
 24 22  1  0  0  0  0
 24 13  1  0  0  0  0
 25 14  1  1  0  0  0
 27  2  1  0  0  0  0
 29 28  1  0  0  0  0
 30 34  1  0  0  0  0
 31 32  1  0  0  0  0
 32 29  1  6  0  0  0
 33 30  1  0  0  0  0
 33 31  2  0  0  0  0
 34 32  1  0  0  0  0
M  END
>  <MODEL>
7

>  <REMARK>
 VINA RESULT:      -8.3      1.524      3.887
  Name = 
  3 active torsions:
  status: ('A' for Active; 'I' for Inactive)
    1  A    between atoms: C_17  and  O_28
    2  A    between atoms: O_28  and  C_29
    3  A    between atoms: C_29  and  C_32
                            x       y       z     vdW  Elec       q    Type
                         _______ _______ _______ _____ _____    ______ ____

>  <TORSDO>
F 3

$$$$
=
 OpenBabel11112417523D

 34 41  0  0  1  0  0  0  0  0999 V2000
  188.9070  174.8160  141.8970 C   0  0  0  0  0  0  0  0  0  0  0  0
  188.0020  177.0290  142.8840 C   0  0  0  0  0  3  0  0  0  0  0  0
  193.1660  170.3020  142.1950 C   0  0  1  0  0  3  0  0  0  0  0  0
  189.8890  172.6920  141.1970 C   0  0  0  0  0  0  0  0  0  0  0  0
  191.2610  171.5280  142.8680 C   0  0  0  0  0  0  0  0  0  0  0  0
  192.9110  170.2380  144.3180 N   0  0  0  0  0  2  0  0  0  0  0  0
  193.9980  169.9120  143.3920 C   0  0  0  0  0  2  0  0  0  0  0  0
  191.7310  169.5460  140.3290 C   0  0  0  0  0  3  0  0  0  0  0  0
  189.3040  175.7020  144.1850 C   0  0  0  0  0  0  0  0  0  0  0  0
  188.6770  175.3670  147.1650 C   0  0  0  0  0  3  0  0  0  0  0  0
  191.0610  172.4660  143.8030 C   0  0  0  0  0  3  0  0  0  0  0  0
  190.8290  170.5550  140.4430 C   0  0  0  0  0  3  0  0  0  0  0  0
  190.0580  174.6550  144.5100 C   0  0  0  0  0  0  0  0  0  0  0  0
  188.1000  177.6440  144.0660 C   0  0  0  0  0  3  0  0  0  0  0  0
  190.6590  171.6280  141.4910 C   0  0  0  0  0  0  0  0  0  0  0  0
  192.8460  169.3020  141.2090 N   0  0  0  0  0  2  0  0  0  0  0  0
  188.0330  176.3350  146.1910 C   0  0  2  0  0  3  0  0  0  0  0  0
  189.6680  173.7490  142.2030 C   0  0  0  0  0  0  0  0  0  0  0  0
  192.0350  170.3020  143.1580 C   0  0  2  0  0  3  0  0  0  0  0  0
  190.2710  173.6270  143.5140 N   0  0  0  0  0  0  0  0  0  0  0  0
  188.4660  174.0030  139.6300 C   0  0  0  0  0  3  0  0  0  0  0  0
  189.7820  174.6140  147.0070 C   0  0  0  0  0  3  0  0  0  0  0  0
  189.2690  172.8470  139.9110 N   0  0  0  0  0  2  0  0  0  0  0  0
  190.7370  174.6250  145.8440 C   0  0  0  0  0  2  0  0  0  0  0  0
  188.9260  176.8450  145.0530 C   0  0  1  0  0  3  0  0  0  0  0  0
  188.2850  174.9460  140.5610 C   0  0  0  0  0  3  0  0  0  0  0  0
  188.7200  175.8100  142.9090 N   0  0  0  0  0  0  0  0  0  0  0  0
  187.4880  177.4090  146.8990 O   0  0  0  0  0  0  0  0  0  0  0  0
  186.2540  176.9470  147.3640 C   0  0  0  0  0  2  0  0  0  0  0  0
  185.4500  179.7130  145.5960 O   0  0  0  0  0  0  0  0  0  0  0  0
  184.4420  177.7530  145.8900 C   0  0  0  0  0  3  0  0  0  0  0  0
  185.1900  178.0100  147.1570 C   0  0  2  0  0  3  0  0  0  0  0  0
  184.6260  178.7490  145.0470 C   0  0  0  0  0  3  0  0  0  0  0  0
  185.8600  179.3570  146.9050 C   0  0  0  0  0  2  0  0  0  0  0  0
  1 18  2  0  0  0  0
  1 27  1  0  0  0  0
  2 27  1  0  0  0  0
  2 14  2  0  0  0  0
  3 19  1  0  0  0  0
  3  7  1  1  0  0  0
  4 15  2  0  0  0  0
  4 18  1  0  0  0  0
  5 11  2  0  0  0  0
  7  6  1  0  0  0  0
  8 12  2  0  0  0  0
  8 16  1  0  0  0  0
  9 13  2  0  0  0  0
  9 25  1  0  0  0  0
 12 15  1  0  0  0  0
 13 24  1  0  0  0  0
 15  5  1  0  0  0  0
 16  3  1  0  0  0  0
 17 28  1  1  0  0  0
 17 10  1  0  0  0  0
 18 20  1  0  0  0  0
 19  5  1  1  0  0  0
 19  6  1  0  0  0  0
 20 11  1  0  0  0  0
 20 13  1  0  0  0  0
 21 23  1  0  0  0  0
 21 26  2  0  0  0  0
 22 10  2  0  0  0  0
 23  4  1  0  0  0  0
 24 22  1  0  0  0  0
 25 14  1  6  0  0  0
 25 17  1  0  0  0  0
 26  1  1  0  0  0  0
 27  9  1  0  0  0  0
 28 29  1  0  0  0  0
 30 34  1  0  0  0  0
 31 32  1  0  0  0  0
 32 29  1  6  0  0  0
 33 30  1  0  0  0  0
 33 31  2  0  0  0  0
 34 32  1  0  0  0  0
M  END
>  <MODEL>
8

>  <REMARK>
 VINA RESULT:      -8.1      3.501      8.044
  Name = 
  3 active torsions:
  status: ('A' for Active; 'I' for Inactive)
    1  A    between atoms: C_17  and  O_28
    2  A    between atoms: O_28  and  C_29
    3  A    between atoms: C_29  and  C_32
                            x       y       z     vdW  Elec       q    Type
                         _______ _______ _______ _____ _____    ______ ____

>  <TORSDO>
F 3

$$$$
=
 OpenBabel11112417523D

 34 41  0  0  1  0  0  0  0  0999 V2000
  189.9720  176.7040  146.3090 C   0  0  0  0  0  0  0  0  0  0  0  0
  187.4280  177.0630  146.5960 C   0  0  0  0  0  3  0  0  0  0  0  0
  194.5900  174.5230  142.7680 C   0  0  1  0  0  3  0  0  0  0  0  0
  192.3280  176.3320  145.7780 C   0  0  0  0  0  0  0  0  0  0  0  0
  192.8670  176.0110  143.4040 C   0  0  0  0  0  0  0  0  0  0  0  0
  193.6660  175.4180  141.0590 N   0  0  0  0  0  2  0  0  0  0  0  0
  194.5580  174.2780  141.2790 C   0  0  0  0  0  2  0  0  0  0  0  0
  195.8120  175.4880  144.6880 C   0  0  0  0  0  3  0  0  0  0  0  0
  188.2600  176.7470  144.5090 C   0  0  0  0  0  0  0  0  0  0  0  0
  187.1290  178.3260  142.1390 C   0  0  0  0  0  3  0  0  0  0  0  0
  191.5950  176.1580  143.0120 C   0  0  0  0  0  3  0  0  0  0  0  0
  194.7100  175.9870  145.3060 C   0  0  0  0  0  3  0  0  0  0  0  0
  189.1760  176.5280  143.5680 C   0  0  0  0  0  0  0  0  0  0  0  0
  186.3840  177.1280  145.7630 C   0  0  0  0  0  3  0  0  0  0  0  0
  193.2750  176.0950  144.8520 C   0  0  0  0  0  0  0  0  0  0  0  0
  195.8440  174.8450  143.3980 N   0  0  0  0  0  2  0  0  0  0  0  0
  186.5890  178.2760  143.5560 C   0  0  2  0  0  3  0  0  0  0  0  0
  190.9160  176.4780  145.3750 C   0  0  2  0  0  3  0  0  0  0  0  0
  193.9590  175.8230  142.4250 C   0  0  2  0  0  3  0  0  0  0  0  0
  190.5560  176.3820  143.9760 N   0  0  0  0  0  0  0  0  0  0  0  0
  191.6040  176.6800  148.1340 C   0  0  0  0  0  3  0  0  0  0  0  0
  188.0630  177.5470  141.5600 C   0  0  0  0  0  3  0  0  0  0  0  0
  192.6440  176.4410  147.1750 N   0  0  0  0  0  0  0  0  0  0  0  0
  188.7390  176.3380  142.1490 C   0  0  0  0  0  2  0  0  0  0  0  0
  186.8040  176.9620  144.3170 C   0  0  1  0  0  3  0  0  0  0  0  0
  190.3320  176.8070  147.7410 C   0  0  0  0  0  3  0  0  0  0  0  0
  188.6190  176.8420  145.8660 N   0  0  0  0  0  0  0  0  0  0  0  0
  185.2330  178.6150  143.5450 O   0  0  0  0  0  0  0  0  0  0  0  0
  184.6680  177.8130  142.5490 C   0  0  0  0  0  2  0  0  0  0  0  0
  182.3260  177.6720  140.1180 O   0  0  0  0  0  0  0  0  0  0  0  0
  182.3550  178.5820  142.1460 C   0  0  0  0  0  3  0  0  0  0  0  0
  183.7660  178.6490  141.6590 C   0  0  2  0  0  3  0  0  0  0  0  0
  181.5880  178.0220  141.2320 C   0  0  0  0  0  3  0  0  0  0  0  0
  183.6920  178.0150  140.2730 C   0  0  0  0  0  2  0  0  0  0  0  0
  1 26  2  0  0  0  0
  3  7  1  6  0  0  0
  3 16  1  0  0  0  0
  4 23  1  0  0  0  0
  5 15  1  0  0  0  0
  6  7  1  0  0  0  0
  8 12  2  0  0  0  0
  9 27  1  0  0  0  0
 10 17  1  0  0  0  0
 11  5  2  0  0  0  0
 11 20  1  0  0  0  0
 13 20  1  0  0  0  0
 13  9  2  0  0  0  0
 14  2  2  0  0  0  0
 15 12  1  0  0  0  0
 15  4  2  0  0  0  0
 16  8  1  0  0  0  0
 17 28  1  6  0  0  0
 17 25  1  0  0  0  0
 18  4  1  6  0  0  0
 18  1  1  0  0  0  0
 19  6  1  6  0  0  0
 19  3  1  0  0  0  0
 19  5  1  0  0  0  0
 20 18  1  0  0  0  0
 22 10  2  0  0  0  0
 22 24  1  0  0  0  0
 23 21  2  0  0  0  0
 24 13  1  0  0  0  0
 25  9  1  0  0  0  0
 25 14  1  1  0  0  0
 26 21  1  0  0  0  0
 27  1  1  0  0  0  0
 27  2  1  0  0  0  0
 29 28  1  0  0  0  0
 30 34  1  0  0  0  0
 30 33  1  0  0  0  0
 32 31  1  0  0  0  0
 32 29  1  1  0  0  0
 33 31  2  0  0  0  0
 34 32  1  0  0  0  0
M  END
>  <MODEL>
9

>  <REMARK>
 VINA RESULT:      -8.1      3.681      9.049
  Name = 
  3 active torsions:
  status: ('A' for Active; 'I' for Inactive)
    1  A    between atoms: C_17  and  O_28
    2  A    between atoms: O_28  and  C_29
    3  A    between atoms: C_29  and  C_32
                            x       y       z     vdW  Elec       q    Type
                         _______ _______ _______ _____ _____    ______ ____

>  <TORSDO>
F 3

$$$$
