=
 OpenBabel11112417283D

 37 44  0  0  1  0  0  0  0  0999 V2000
  193.0860  172.1600  143.4450 C   0  0  1  0  0  0  0  0  0  0  0  0
  190.7530  174.2410  141.3140 C   0  0  1  0  0  3  0  0  0  0  0  0
  189.8080  177.2480  142.4320 O   0  0  0  0  0  0  0  0  0  0  0  0
  192.6560  172.4660  141.1980 C   0  0  2  0  0  3  0  0  0  0  0  0
  190.3880  174.9310  142.6230 C   0  0  2  0  0  3  0  0  0  0  0  0
  192.2490  173.9130  141.4670 C   0  0  2  0  0  3  0  0  0  0  0  0
  189.2590  175.9610  142.5460 C   0  0  2  0  0  3  0  0  0  0  0  0
  191.9000  171.9530  139.9840 C   0  0  0  0  0  2  0  0  0  0  0  0
  192.6820  174.3820  142.8570 C   0  0  2  0  0  3  0  0  0  0  0  0
  194.4620  172.3280  143.2180 O   0  0  0  0  0  1  0  0  0  0  0  0
  188.5680  173.4920  140.4710 N   0  0  0  0  0  2  0  0  0  0  0  0
  190.3900  171.9020  140.2300 C   0  0  0  0  0  2  0  0  0  0  0  0
  192.4780  173.3760  143.8340 O   0  0  0  0  0  0  0  0  0  0  0  0
  189.4940  177.1270  144.8100 O   0  0  0  0  0  0  0  0  0  0  0  0
  189.8030  177.9220  143.6840 C   0  0  1  0  0  3  0  0  0  0  0  0
  189.8130  173.0410  141.0870 C   0  0  1  0  0  3  0  0  0  0  0  0
  191.7020  175.5220  143.1070 C   0  0  2  0  0  3  0  0  0  0  0  0
  192.4340  171.6250  142.3100 O   0  0  0  0  0  0  0  0  0  0  0  0
  188.2020  175.6970  141.4640 C   0  0  1  0  0  3  0  0  0  0  0  0
  192.9220  171.1750  144.5830 C   0  0  0  0  0  1  0  0  0  0  0  0
  190.8600  177.4400  144.6490 C   0  0  2  0  0  3  0  0  0  0  0  0
  191.6210  176.0930  144.5360 C   0  0  2  0  0  3  0  0  0  0  0  0
  187.7670  174.2310  141.4410 C   0  0  0  0  0  2  0  0  0  0  0  0
  186.5310  177.3170  140.5550 C   0  0  0  0  0  3  0  0  0  0  0  0
  187.0150  176.5910  141.6480 C   0  0  0  0  0  0  0  0  0  0  0  0
  186.3890  176.7190  142.8980 C   0  0  0  0  0  3  0  0  0  0  0  0
  184.6710  177.6920  144.2850 O   0  0  0  0  0  1  0  0  0  0  0  0
  184.8080  178.2910  141.9520 C   0  0  0  0  0  3  0  0  0  0  0  0
  185.2880  177.5670  143.0480 C   0  0  0  0  0  0  0  0  0  0  0  0
  185.4290  178.1660  140.7060 C   0  0  0  0  0  3  0  0  0  0  0  0
  193.0270  176.3210  145.1260 C   0  0  1  0  0  3  0  0  0  0  0  0
  193.1040  176.3450  146.6150 N   0  0  0  0  0  0  0  0  0  0  0  0
  193.5080  175.1520  145.8570 C   0  0  2  0  0  3  0  0  0  0  0  0
  195.3160  175.0860  145.7600 S   0  0  0  0  0  0  0  0  0  0  0  0
  195.3580  176.3930  144.5040 C   0  0  0  0  0  1  0  0  0  0  0  0
  191.5670  176.9750  148.3880 C   0  0  0  0  0  1  0  0  0  0  0  0
  191.8650  175.9740  147.2910 C   0  0  0  0  0  2  0  0  0  0  0  0
  1 13  1  0  0  0  0
  1 20  1  1  0  0  0
  2  6  1  0  0  0  0
  2  5  1  0  0  0  0
  3  7  1  0  0  0  0
  3 15  1  0  0  0  0
  4  6  1  0  0  0  0
  4 18  1  0  0  0  0
  5 17  1  0  0  0  0
  6  9  1  0  0  0  0
  7  5  1  0  0  0  0
  8 12  1  0  0  0  0
  8  4  1  0  0  0  0
  9 17  1  0  0  0  0
  9 13  1  0  0  0  0
 10  1  1  0  0  0  0
 11 16  1  0  0  0  0
 11 23  1  0  0  0  0
 12 16  1  0  0  0  0
 15 21  1  0  0  0  0
 15 14  1  0  0  0  0
 16  2  1  0  0  0  0
 17 22  1  0  0  0  0
 18  1  1  0  0  0  0
 19 25  1  0  0  0  0
 19  7  1  0  0  0  0
 21 14  1  0  0  0  0
 22 21  1  0  0  0  0
 22 31  1  0  0  0  0
 23 19  1  0  0  0  0
 24 30  2  0  0  0  0
 24 25  1  0  0  0  0
 25 26  2  0  0  0  0
 26 29  1  0  0  0  0
 28 29  2  0  0  0  0
 29 27  1  0  0  0  0
 30 28  1  0  0  0  0
 31 33  1  0  0  0  0
 31 32  1  0  0  0  0
 32 37  1  0  0  0  0
 33 32  1  0  0  0  0
 34 33  1  0  0  0  0
 35 34  1  0  0  0  0
 37 36  1  0  0  0  0
M  END
>  <MODEL>
1

>  <REMARK>
 VINA RESULT:      -7.8      0.000      0.000
  Name = 
  4 active torsions:
  status: ('A' for Active; 'I' for Inactive)
    1  A    between atoms: C_1  and  C_27
    2  A    between atoms: N_4  and  C_37
    3  A    between atoms: S_8  and  C_12
    4  A    between atoms: C_23  and  C_30
                            x       y       z     vdW  Elec       q    Type
                         _______ _______ _______ _____ _____    ______ ____

>  <TORSDO>
F 4

$$$$
=
 OpenBabel11112417283D

 37 44  0  0  1  0  0  0  0  0999 V2000
  194.0550  173.7330  142.6290 C   0  0  1  0  0  0  0  0  0  0  0  0
  191.1700  175.1020  144.6570 C   0  0  1  0  0  3  0  0  0  0  0  0
  188.0860  174.9470  143.3720 O   0  0  0  0  0  0  0  0  0  0  0  0
  193.5000  173.9550  144.8580 C   0  0  2  0  0  3  0  0  0  0  0  0
  190.4630  175.2380  143.3140 C   0  0  2  0  0  3  0  0  0  0  0  0
  192.0190  173.8280  144.5080 C   0  0  2  0  0  3  0  0  0  0  0  0
  189.0950  175.9220  143.3410 C   0  0  2  0  0  3  0  0  0  0  0  0
  193.6440  174.8060  146.1080 C   0  0  0  0  0  2  0  0  0  0  0  0
  191.8090  173.2990  143.0880 C   0  0  2  0  0  3  0  0  0  0  0  0
  194.3800  172.3810  142.8310 O   0  0  0  0  0  1  0  0  0  0  0  0
  191.0420  177.3840  145.5670 N   0  0  0  0  0  2  0  0  0  0  0  0
  193.1640  176.2420  145.8820 C   0  0  0  0  0  2  0  0  0  0  0  0
  192.7250  173.8790  142.1750 O   0  0  0  0  0  0  0  0  0  0  0  0
  188.2100  175.3580  141.0090 O   0  0  0  0  0  0  0  0  0  0  0  0
  187.5210  174.7510  142.0830 C   0  0  1  0  0  3  0  0  0  0  0  0
  191.9400  176.4010  144.9650 C   0  0  1  0  0  3  0  0  0  0  0  0
  190.4080  173.8150  142.7810 C   0  0  2  0  0  3  0  0  0  0  0  0
  194.2620  174.4970  143.8010 O   0  0  0  0  0  0  0  0  0  0  0  0
  188.9070  176.9700  144.4480 C   0  0  1  0  0  3  0  0  0  0  0  0
  194.9740  174.2740  141.5540 C   0  0  0  0  0  1  0  0  0  0  0  0
  188.3980  173.9660  141.1360 C   0  0  2  0  0  3  0  0  0  0  0  0
  189.9210  173.7320  141.3210 C   0  0  2  0  0  3  0  0  0  0  0  0
  190.1170  177.8980  144.5620 C   0  0  0  0  0  2  0  0  0  0  0  0
  187.3760  178.2460  142.9410 C   0  0  0  0  0  3  0  0  0  0  0  0
  187.6580  177.7640  144.2230 C   0  0  0  0  0  0  0  0  0  0  0  0
  186.7730  178.0400  145.2780 C   0  0  0  0  0  3  0  0  0  0  0  0
  184.7440  179.0630  146.0900 O   0  0  0  0  0  1  0  0  0  0  0  0
  185.3410  179.2700  143.7610 C   0  0  0  0  0  3  0  0  0  0  0  0
  185.6170  178.7910  145.0450 C   0  0  0  0  0  0  0  0  0  0  0  0
  186.2200  178.9970  142.7090 C   0  0  0  0  0  3  0  0  0  0  0  0
  190.2430  172.3560  140.7040 C   0  0  1  0  0  3  0  0  0  0  0  0
  190.2280  172.3010  139.2140 N   0  0  0  0  0  0  0  0  0  0  0  0
  191.4950  172.3750  139.9540 C   0  0  2  0  0  3  0  0  0  0  0  0
  192.2520  170.7290  140.0120 S   0  0  0  0  0  0  0  0  0  0  0  0
  190.9700  170.1100  141.1340 C   0  0  0  0  0  1  0  0  0  0  0  0
  189.0550  173.4970  137.4540 C   0  0  0  0  0  1  0  0  0  0  0  0
  190.0840  173.5980  138.5610 C   0  0  0  0  0  2  0  0  0  0  0  0
  1 20  1  6  0  0  0
  1 10  1  0  0  0  0
  1 18  1  0  0  0  0
  2 16  1  0  0  0  0
  4  8  1  0  0  0  0
  5  7  1  0  0  0  0
  5  2  1  0  0  0  0
  6  2  1  0  0  0  0
  6  4  1  0  0  0  0
  7  3  1  0  0  0  0
  7 19  1  0  0  0  0
  9  6  1  0  0  0  0
 12  8  1  0  0  0  0
 13  1  1  0  0  0  0
 13  9  1  0  0  0  0
 14 21  1  0  0  0  0
 14 15  1  0  0  0  0
 15  3  1  0  0  0  0
 16 11  1  0  0  0  0
 16 12  1  0  0  0  0
 17  9  1  0  0  0  0
 17  5  1  0  0  0  0
 18  4  1  0  0  0  0
 19 23  1  0  0  0  0
 21 22  1  0  0  0  0
 21 15  1  0  0  0  0
 22 17  1  0  0  0  0
 23 11  1  0  0  0  0
 24 25  1  0  0  0  0
 25 19  1  0  0  0  0
 25 26  2  0  0  0  0
 28 29  2  0  0  0  0
 29 26  1  0  0  0  0
 29 27  1  0  0  0  0
 30 24  2  0  0  0  0
 30 28  1  0  0  0  0
 31 22  1  0  0  0  0
 32 33  1  0  0  0  0
 32 31  1  0  0  0  0
 33 34  1  0  0  0  0
 33 31  1  0  0  0  0
 34 35  1  0  0  0  0
 36 37  1  0  0  0  0
 37 32  1  0  0  0  0
M  END
>  <MODEL>
2

>  <REMARK>
 VINA RESULT:      -7.7      2.209      5.140
  Name = 
  4 active torsions:
  status: ('A' for Active; 'I' for Inactive)
    1  A    between atoms: C_1  and  C_27
    2  A    between atoms: N_4  and  C_37
    3  A    between atoms: S_8  and  C_12
    4  A    between atoms: C_23  and  C_30
                            x       y       z     vdW  Elec       q    Type
                         _______ _______ _______ _____ _____    ______ ____

>  <TORSDO>
F 4

$$$$
=
 OpenBabel11112417283D

 37 44  0  0  1  0  0  0  0  0999 V2000
  193.0500  174.6400  145.1830 C   0  0  1  0  0  0  0  0  0  0  0  0
  189.3600  175.4720  145.1180 C   0  0  1  0  0  3  0  0  0  0  0  0
  187.5610  174.5970  142.4390 O   0  0  0  0  0  0  0  0  0  0  0  0
  191.3320  174.8590  146.7070 C   0  0  2  0  0  3  0  0  0  0  0  0
  189.5010  175.3820  143.6040 C   0  0  2  0  0  3  0  0  0  0  0  0
  190.3280  174.4010  145.6510 C   0  0  2  0  0  3  0  0  0  0  0  0
  188.2620  175.7600  142.7910 C   0  0  2  0  0  3  0  0  0  0  0  0
  190.6340  175.7870  147.6870 C   0  0  0  0  0  2  0  0  0  0  0  0
  191.0180  173.7640  144.4430 C   0  0  2  0  0  3  0  0  0  0  0  0
  193.4060  173.4010  145.7410 O   0  0  0  0  0  1  0  0  0  0  0  0
  188.4150  177.7200  145.4400 N   0  0  0  0  0  2  0  0  0  0  0  0
  190.1520  177.0740  147.0120 C   0  0  0  0  0  2  0  0  0  0  0  0
  192.1870  174.4750  144.0750 O   0  0  0  0  0  0  0  0  0  0  0  0
  188.9060  174.8960  140.4710 O   0  0  0  0  0  0  0  0  0  0  0  0
  187.8390  174.2150  141.0980 C   0  0  1  0  0  3  0  0  0  0  0  0
  189.6290  176.9200  145.5740 C   0  0  1  0  0  3  0  0  0  0  0  0
  189.9610  173.9530  143.3620 C   0  0  2  0  0  3  0  0  0  0  0  0
  192.4600  175.4930  146.1440 O   0  0  0  0  0  0  0  0  0  0  0  0
  187.3420  176.8020  143.4420 C   0  0  1  0  0  3  0  0  0  0  0  0
  194.3170  175.3050  144.6880 C   0  0  0  0  0  1  0  0  0  0  0  0
  189.1970  173.5840  140.9020 C   0  0  2  0  0  3  0  0  0  0  0  0
  190.3790  173.6900  141.9010 C   0  0  2  0  0  3  0  0  0  0  0  0
  188.1340  177.9710  144.0300 C   0  0  0  0  0  2  0  0  0  0  0  0
  186.6930  177.4880  141.1300 C   0  0  0  0  0  3  0  0  0  0  0  0
  186.3230  177.3000  142.4650 C   0  0  0  0  0  0  0  0  0  0  0  0
  185.0090  177.5880  142.8680 C   0  0  0  0  0  3  0  0  0  0  0  0
  182.7790  178.3430  142.3400 O   0  0  0  0  0  1  0  0  0  0  0  0
  184.4530  178.2460  140.6050 C   0  0  0  0  0  3  0  0  0  0  0  0
  184.0780  178.0590  141.9380 C   0  0  0  0  0  0  0  0  0  0  0  0
  185.7600  177.9600  140.2000 C   0  0  0  0  0  3  0  0  0  0  0  0
  191.1870  172.3830  141.7810 C   0  0  1  0  0  3  0  0  0  0  0  0
  192.0770  172.2850  140.5880 N   0  0  0  0  0  0  0  0  0  0  0  0
  192.6230  172.6160  141.9110 C   0  0  2  0  0  3  0  0  0  0  0  0
  193.4060  171.1440  142.6220 S   0  0  0  0  0  0  0  0  0  0  0  0
  194.9850  172.0090  142.8310 C   0  0  0  0  0  1  0  0  0  0  0  0
  192.0260  173.1930  138.3350 C   0  0  0  0  0  1  0  0  0  0  0  0
  192.1810  173.5130  139.8070 C   0  0  0  0  0  2  0  0  0  0  0  0
  1 20  1  6  0  0  0
  1 10  1  0  0  0  0
  1 18  1  0  0  0  0
  2 16  1  0  0  0  0
  2  6  1  0  0  0  0
  3  7  1  0  0  0  0
  4  8  1  0  0  0  0
  5  2  1  0  0  0  0
  6  4  1  0  0  0  0
  7 19  1  0  0  0  0
  7  5  1  0  0  0  0
  9  6  1  0  0  0  0
 11 16  1  0  0  0  0
 12  8  1  0  0  0  0
 13  9  1  0  0  0  0
 13  1  1  0  0  0  0
 14 21  1  0  0  0  0
 14 15  1  0  0  0  0
 15  3  1  0  0  0  0
 16 12  1  0  0  0  0
 17  5  1  0  0  0  0
 17  9  1  0  0  0  0
 18  4  1  0  0  0  0
 19 23  1  0  0  0  0
 21 15  1  0  0  0  0
 21 22  1  0  0  0  0
 22 17  1  0  0  0  0
 23 11  1  0  0  0  0
 24 25  1  0  0  0  0
 25 26  2  0  0  0  0
 25 19  1  0  0  0  0
 28 29  2  0  0  0  0
 29 27  1  0  0  0  0
 29 26  1  0  0  0  0
 30 28  1  0  0  0  0
 30 24  2  0  0  0  0
 31 22  1  0  0  0  0
 31 33  1  0  0  0  0
 32 31  1  0  0  0  0
 32 33  1  0  0  0  0
 33 34  1  0  0  0  0
 34 35  1  0  0  0  0
 36 37  1  0  0  0  0
 37 32  1  0  0  0  0
M  END
>  <MODEL>
3

>  <REMARK>
 VINA RESULT:      -7.6      2.199      4.855
  Name = 
  4 active torsions:
  status: ('A' for Active; 'I' for Inactive)
    1  A    between atoms: C_1  and  C_27
    2  A    between atoms: N_4  and  C_37
    3  A    between atoms: S_8  and  C_12
    4  A    between atoms: C_23  and  C_30
                            x       y       z     vdW  Elec       q    Type
                         _______ _______ _______ _____ _____    ______ ____

>  <TORSDO>
F 4

$$$$
=
 OpenBabel11112417283D

 37 44  0  0  1  0  0  0  0  0999 V2000
  192.5070  172.0850  142.0220 C   0  0  1  0  0  0  0  0  0  0  0  0
  189.8050  174.6360  141.3100 C   0  0  1  0  0  3  0  0  0  0  0  0
  190.0320  177.6550  142.7290 O   0  0  0  0  0  0  0  0  0  0  0  0
  191.0910  172.6170  140.2790 C   0  0  2  0  0  3  0  0  0  0  0  0
  190.2450  175.2720  142.6230 C   0  0  2  0  0  3  0  0  0  0  0  0
  191.1090  174.0840  140.7050 C   0  0  2  0  0  3  0  0  0  0  0  0
  189.4070  176.4570  143.1080 C   0  0  2  0  0  3  0  0  0  0  0  0
  189.7660  172.3130  139.6010 C   0  0  0  0  0  2  0  0  0  0  0  0
  192.2360  174.3800  141.6960 C   0  0  2  0  0  3  0  0  0  0  0  0
  193.6030  172.0680  141.1430 O   0  0  0  0  0  1  0  0  0  0  0  0
  187.3980  174.2760  141.6620 N   0  0  0  0  0  2  0  0  0  0  0  0
  188.5840  172.4620  140.5620 C   0  0  0  0  0  2  0  0  0  0  0  0
  192.3750  173.3430  142.6530 O   0  0  0  0  0  0  0  0  0  0  0  0
  190.9050  177.4030  144.9520 O   0  0  0  0  0  0  0  0  0  0  0  0
  190.7490  178.2270  143.8150 C   0  0  1  0  0  3  0  0  0  0  0  0
  188.6930  173.6050  141.5850 C   0  0  1  0  0  3  0  0  0  0  0  0
  191.7040  175.6270  142.3900 C   0  0  2  0  0  3  0  0  0  0  0  0
  191.3070  171.7370  141.3610 O   0  0  0  0  0  0  0  0  0  0  0  0
  187.9290  176.4310  142.6920 C   0  0  1  0  0  3  0  0  0  0  0  0
  192.7620  171.0510  143.0990 C   0  0  0  0  0  1  0  0  0  0  0  0
  192.0480  177.5270  144.1350 C   0  0  2  0  0  3  0  0  0  0  0  0
  192.4260  176.0950  143.6690 C   0  0  2  0  0  3  0  0  0  0  0  0
  187.3070  175.0490  142.8970 C   0  0  0  0  0  2  0  0  0  0  0  0
  186.5050  178.4830  142.7130 C   0  0  0  0  0  3  0  0  0  0  0  0
  187.1480  177.4710  143.4330 C   0  0  0  0  0  0  0  0  0  0  0  0
  187.0600  177.4520  144.8340 C   0  0  0  0  0  3  0  0  0  0  0  0
  186.2460  178.4180  146.8890 O   0  0  0  0  0  1  0  0  0  0  0  0
  185.6900  179.4490  144.7790 C   0  0  0  0  0  3  0  0  0  0  0  0
  186.3320  178.4400  145.5040 C   0  0  0  0  0  0  0  0  0  0  0  0
  185.7760  179.4710  143.3850 C   0  0  0  0  0  3  0  0  0  0  0  0
  193.9560  176.0720  143.4850 C   0  0  1  0  0  3  0  0  0  0  0  0
  194.7550  176.0150  144.7430 N   0  0  0  0  0  0  0  0  0  0  0  0
  194.5400  174.8100  143.9300 C   0  0  2  0  0  3  0  0  0  0  0  0
  196.0330  174.4660  142.9620 S   0  0  0  0  0  0  0  0  0  0  0  0
  196.6920  176.1260  143.2730 C   0  0  0  0  0  1  0  0  0  0  0  0
  194.2240  176.9450  146.9240 C   0  0  0  0  0  1  0  0  0  0  0  0
  193.9640  175.8120  145.9530 C   0  0  0  0  0  2  0  0  0  0  0  0
  1 13  1  0  0  0  0
  1 20  1  1  0  0  0
  2 16  1  0  0  0  0
  2  5  1  0  0  0  0
  3  7  1  0  0  0  0
  3 15  1  0  0  0  0
  4  6  1  0  0  0  0
  4 18  1  0  0  0  0
  5  7  1  0  0  0  0
  6  2  1  0  0  0  0
  6  9  1  0  0  0  0
  8  4  1  0  0  0  0
  8 12  1  0  0  0  0
  9 17  1  0  0  0  0
  9 13  1  0  0  0  0
 10  1  1  0  0  0  0
 11 23  1  0  0  0  0
 12 16  1  0  0  0  0
 15 21  1  0  0  0  0
 15 14  1  0  0  0  0
 16 11  1  0  0  0  0
 17  5  1  0  0  0  0
 17 22  1  0  0  0  0
 18  1  1  0  0  0  0
 19 23  1  0  0  0  0
 19  7  1  0  0  0  0
 19 25  1  0  0  0  0
 21 14  1  0  0  0  0
 22 21  1  0  0  0  0
 24 30  2  0  0  0  0
 24 25  1  0  0  0  0
 25 26  2  0  0  0  0
 26 29  1  0  0  0  0
 28 29  2  0  0  0  0
 29 27  1  0  0  0  0
 30 28  1  0  0  0  0
 31 22  1  0  0  0  0
 31 33  1  0  0  0  0
 31 32  1  0  0  0  0
 32 37  1  0  0  0  0
 33 32  1  0  0  0  0
 34 35  1  0  0  0  0
 34 33  1  0  0  0  0
 37 36  1  0  0  0  0
M  END
>  <MODEL>
4

>  <REMARK>
 VINA RESULT:      -7.4      1.645      1.956
  Name = 
  4 active torsions:
  status: ('A' for Active; 'I' for Inactive)
    1  A    between atoms: C_1  and  C_27
    2  A    between atoms: N_4  and  C_37
    3  A    between atoms: S_8  and  C_12
    4  A    between atoms: C_23  and  C_30
                            x       y       z     vdW  Elec       q    Type
                         _______ _______ _______ _____ _____    ______ ____

>  <TORSDO>
F 4

$$$$
=
 OpenBabel11112417283D

 37 44  0  0  1  0  0  0  0  0999 V2000
  194.4680  174.6550  141.6160 C   0  0  1  0  0  0  0  0  0  0  0  0
  191.6760  175.2100  144.1080 C   0  0  1  0  0  3  0  0  0  0  0  0
  188.5520  174.4060  143.2270 O   0  0  0  0  0  0  0  0  0  0  0  0
  194.2090  174.6280  143.9080 C   0  0  2  0  0  3  0  0  0  0  0  0
  190.7700  175.2450  142.8840 C   0  0  2  0  0  3  0  0  0  0  0  0
  192.7580  174.1770  143.7440 C   0  0  2  0  0  3  0  0  0  0  0  0
  189.3020  175.5900  143.1460 C   0  0  2  0  0  3  0  0  0  0  0  0
  194.3390  175.4250  145.1960 C   0  0  0  0  0  2  0  0  0  0  0  0
  192.4670  173.6870  142.3250 C   0  0  2  0  0  3  0  0  0  0  0  0
  195.1130  173.4080  141.6610 O   0  0  0  0  0  1  0  0  0  0  0  0
  191.1770  177.3500  145.2120 N   0  0  0  0  0  2  0  0  0  0  0  0
  193.5230  176.7190  145.1530 C   0  0  0  0  0  2  0  0  0  0  0  0
  193.0870  174.5100  141.3520 O   0  0  0  0  0  0  0  0  0  0  0  0
  188.2350  174.9540  140.9100 O   0  0  0  0  0  0  0  0  0  0  0  0
  187.8640  174.1490  142.0100 C   0  0  1  0  0  3  0  0  0  0  0  0
  192.1730  176.6350  144.4200 C   0  0  1  0  0  3  0  0  0  0  0  0
  190.9580  173.8780  142.2470 C   0  0  2  0  0  3  0  0  0  0  0  0
  194.6680  175.3860  142.8100 O   0  0  0  0  0  0  0  0  0  0  0  0
  189.0480  176.5070  144.3500 C   0  0  1  0  0  3  0  0  0  0  0  0
  195.0760  175.4490  140.4780 C   0  0  0  0  0  1  0  0  0  0  0  0
  188.7470  173.6390  140.8960 C   0  0  2  0  0  3  0  0  0  0  0  0
  190.2940  173.7570  140.8610 C   0  0  2  0  0  3  0  0  0  0  0  0
  190.0240  177.6850  144.3830 C   0  0  0  0  0  2  0  0  0  0  0  0
  186.8470  176.7990  145.4950 C   0  0  0  0  0  3  0  0  0  0  0  0
  187.6340  176.9990  144.3570 C   0  0  0  0  0  0  0  0  0  0  0  0
  187.0850  177.6470  143.2390 C   0  0  0  0  0  3  0  0  0  0  0  0
  185.2200  178.7300  142.1580 O   0  0  0  0  0  1  0  0  0  0  0  0
  184.9770  177.8880  144.4060 C   0  0  0  0  0  3  0  0  0  0  0  0
  185.7600  178.0900  143.2650 C   0  0  0  0  0  0  0  0  0  0  0  0
  185.5200  177.2430  145.5210 C   0  0  0  0  0  3  0  0  0  0  0  0
  190.8210  172.5280  140.0960 C   0  0  1  0  0  3  0  0  0  0  0  0
  190.5870  172.5380  138.6230 N   0  0  0  0  0  0  0  0  0  0  0  0
  191.9030  172.8780  139.1800 C   0  0  2  0  0  3  0  0  0  0  0  0
  193.0170  171.4600  138.9980 S   0  0  0  0  0  0  0  0  0  0  0  0
  192.1360  170.5250  140.2770 C   0  0  0  0  0  1  0  0  0  0  0  0
  188.9390  173.4960  137.1170 C   0  0  0  0  0  1  0  0  0  0  0  0
  190.0490  173.7910  138.1040 C   0  0  0  0  0  2  0  0  0  0  0  0
  1 20  1  6  0  0  0
  1 10  1  0  0  0  0
  1 18  1  0  0  0  0
  2 16  1  0  0  0  0
  4  8  1  0  0  0  0
  5  7  1  0  0  0  0
  5  2  1  0  0  0  0
  6  4  1  0  0  0  0
  6  2  1  0  0  0  0
  7  3  1  0  0  0  0
  7 19  1  0  0  0  0
  9  6  1  0  0  0  0
 12  8  1  0  0  0  0
 13  1  1  0  0  0  0
 13  9  1  0  0  0  0
 14 15  1  0  0  0  0
 15  3  1  0  0  0  0
 16 12  1  0  0  0  0
 16 11  1  0  0  0  0
 17  9  1  0  0  0  0
 17  5  1  0  0  0  0
 18  4  1  0  0  0  0
 19 25  1  0  0  0  0
 19 23  1  0  0  0  0
 21 14  1  0  0  0  0
 21 15  1  0  0  0  0
 22 21  1  0  0  0  0
 22 17  1  0  0  0  0
 23 11  1  0  0  0  0
 24 30  1  0  0  0  0
 25 24  2  0  0  0  0
 26 29  2  0  0  0  0
 26 25  1  0  0  0  0
 27 29  1  0  0  0  0
 28 30  2  0  0  0  0
 29 28  1  0  0  0  0
 31 22  1  0  0  0  0
 32 33  1  0  0  0  0
 32 31  1  0  0  0  0
 33 31  1  0  0  0  0
 34 33  1  0  0  0  0
 34 35  1  0  0  0  0
 36 37  1  0  0  0  0
 37 32  1  0  0  0  0
M  END
>  <MODEL>
5

>  <REMARK>
 VINA RESULT:      -7.4      2.367      5.335
  Name = 
  4 active torsions:
  status: ('A' for Active; 'I' for Inactive)
    1  A    between atoms: C_1  and  C_27
    2  A    between atoms: N_4  and  C_37
    3  A    between atoms: S_8  and  C_12
    4  A    between atoms: C_23  and  C_30
                            x       y       z     vdW  Elec       q    Type
                         _______ _______ _______ _____ _____    ______ ____

>  <TORSDO>
F 4

$$$$
=
 OpenBabel11112417283D

 37 44  0  0  1  0  0  0  0  0999 V2000
  194.2680  175.1440  142.4970 C   0  0  1  0  0  0  0  0  0  0  0  0
  191.3430  175.1740  144.8970 C   0  0  1  0  0  3  0  0  0  0  0  0
  188.2450  174.9500  143.6580 O   0  0  0  0  0  0  0  0  0  0  0  0
  193.8370  174.4580  144.6570 C   0  0  2  0  0  3  0  0  0  0  0  0
  190.5350  175.6530  143.6970 C   0  0  2  0  0  3  0  0  0  0  0  0
  192.3750  174.2060  144.2920 C   0  0  2  0  0  3  0  0  0  0  0  0
  189.0800  176.0320  143.9770 C   0  0  2  0  0  3  0  0  0  0  0  0
  193.9260  174.8190  146.1300 C   0  0  0  0  0  2  0  0  0  0  0  0
  192.1570  174.1890  142.7780 C   0  0  2  0  0  3  0  0  0  0  0  0
  194.8200  173.8880  142.1940 O   0  0  0  0  0  1  0  0  0  0  0  0
  190.9120  176.9230  146.5720 N   0  0  0  0  0  2  0  0  0  0  0  0
  193.2070  176.1340  146.4420 C   0  0  0  0  0  2  0  0  0  0  0  0
  192.9040  175.2070  142.1330 O   0  0  0  0  0  0  0  0  0  0  0  0
  188.1410  176.1890  141.6030 O   0  0  0  0  0  0  0  0  0  0  0  0
  187.6340  175.1290  142.3870 C   0  0  1  0  0  3  0  0  0  0  0  0
  191.9130  176.3920  145.6510 C   0  0  1  0  0  3  0  0  0  0  0  0
  190.6750  174.5270  142.6860 C   0  0  2  0  0  3  0  0  0  0  0  0
  194.4280  175.4640  143.8650 O   0  0  0  0  0  0  0  0  0  0  0  0
  188.8000  176.5670  145.3890 C   0  0  1  0  0  3  0  0  0  0  0  0
  195.0120  176.1840  141.6860 C   0  0  0  0  0  1  0  0  0  0  0  0
  188.5590  174.8990  141.2170 C   0  0  2  0  0  3  0  0  0  0  0  0
  190.1090  174.8850  141.2970 C   0  0  2  0  0  3  0  0  0  0  0  0
  189.8500  177.5900  145.8260 C   0  0  0  0  0  2  0  0  0  0  0  0
  186.5170  176.6400  146.4010 C   0  0  0  0  0  3  0  0  0  0  0  0
  187.4270  177.1580  145.4730 C   0  0  0  0  0  0  0  0  0  0  0  0
  187.0370  178.2130  144.6330 C   0  0  0  0  0  3  0  0  0  0  0  0
  185.3640  179.7850  143.8920 O   0  0  0  0  0  1  0  0  0  0  0  0
  184.8410  178.2210  145.6540 C   0  0  0  0  0  3  0  0  0  0  0  0
  185.7460  178.7420  144.7250 C   0  0  0  0  0  0  0  0  0  0  0  0
  185.2260  177.1710  146.4920 C   0  0  0  0  0  3  0  0  0  0  0  0
  190.6060  173.8980  140.2220 C   0  0  1  0  0  3  0  0  0  0  0  0
  190.3150  172.4590  140.4870 N   0  0  0  0  0  0  0  0  0  0  0  0
  189.5000  173.2320  139.5400 C   0  0  2  0  0  3  0  0  0  0  0  0
  189.9990  172.8240  137.8470 S   0  0  0  0  0  0  0  0  0  0  0  0
  189.1080  174.2520  137.1730 C   0  0  0  0  0  1  0  0  0  0  0  0
  190.0640  171.1520  142.5200 C   0  0  0  0  0  1  0  0  0  0  0  0
  189.4490  172.2180  141.6370 C   0  0  0  0  0  2  0  0  0  0  0  0
  1 20  1  6  0  0  0
  1 18  1  0  0  0  0
  2 16  1  0  0  0  0
  3  7  1  0  0  0  0
  4  8  1  0  0  0  0
  5  7  1  0  0  0  0
  5  2  1  0  0  0  0
  6  4  1  0  0  0  0
  6  2  1  0  0  0  0
  7 19  1  0  0  0  0
  8 12  1  0  0  0  0
  9  6  1  0  0  0  0
 10  1  1  0  0  0  0
 13  1  1  0  0  0  0
 13  9  1  0  0  0  0
 14 15  1  0  0  0  0
 15  3  1  0  0  0  0
 16 12  1  0  0  0  0
 16 11  1  0  0  0  0
 17  9  1  0  0  0  0
 17  5  1  0  0  0  0
 18  4  1  0  0  0  0
 19 25  1  0  0  0  0
 19 23  1  0  0  0  0
 21 22  1  0  0  0  0
 21 14  1  0  0  0  0
 21 15  1  0  0  0  0
 22 17  1  0  0  0  0
 23 11  1  0  0  0  0
 24 30  1  0  0  0  0
 25 24  2  0  0  0  0
 26 29  2  0  0  0  0
 26 25  1  0  0  0  0
 27 29  1  0  0  0  0
 28 30  2  0  0  0  0
 29 28  1  0  0  0  0
 31 32  1  0  0  0  0
 31 22  1  0  0  0  0
 32 37  1  0  0  0  0
 33 31  1  0  0  0  0
 33 32  1  0  0  0  0
 34 33  1  0  0  0  0
 35 34  1  0  0  0  0
 37 36  1  0  0  0  0
M  END
>  <MODEL>
6

>  <REMARK>
 VINA RESULT:      -7.2      2.623      5.306
  Name = 
  4 active torsions:
  status: ('A' for Active; 'I' for Inactive)
    1  A    between atoms: C_1  and  C_27
    2  A    between atoms: N_4  and  C_37
    3  A    between atoms: S_8  and  C_12
    4  A    between atoms: C_23  and  C_30
                            x       y       z     vdW  Elec       q    Type
                         _______ _______ _______ _____ _____    ______ ____

>  <TORSDO>
F 4

$$$$
=
 OpenBabel11112417283D

 37 44  0  0  1  0  0  0  0  0999 V2000
  194.6010  173.4040  143.0300 C   0  0  1  0  0  0  0  0  0  0  0  0
  191.6330  175.3360  144.3630 C   0  0  1  0  0  3  0  0  0  0  0  0
  188.5750  174.5410  143.2680 O   0  0  0  0  0  0  0  0  0  0  0  0
  194.0100  174.4720  144.9890 C   0  0  2  0  0  3  0  0  0  0  0  0
  190.9370  174.8920  143.0820 C   0  0  2  0  0  3  0  0  0  0  0  0
  192.5400  174.1480  144.7290 C   0  0  2  0  0  3  0  0  0  0  0  0
  189.5400  175.4680  142.8430 C   0  0  2  0  0  3  0  0  0  0  0  0
  194.1010  175.7560  145.7950 C   0  0  0  0  0  2  0  0  0  0  0  0
  192.3700  173.0880  143.6390 C   0  0  2  0  0  3  0  0  0  0  0  0
  194.9830  172.2620  143.7520 O   0  0  0  0  0  1  0  0  0  0  0  0
  191.3940  177.7830  144.2880 N   0  0  0  0  0  2  0  0  0  0  0  0
  193.5610  176.9590  145.0180 C   0  0  0  0  0  2  0  0  0  0  0  0
  193.2710  173.2960  142.5640 O   0  0  0  0  0  0  0  0  0  0  0  0
  188.7080  173.9800  140.9360 O   0  0  0  0  0  0  0  0  0  0  0  0
  188.0350  173.8210  142.1680 C   0  0  1  0  0  3  0  0  0  0  0  0
  192.3410  176.6840  144.1220 C   0  0  1  0  0  3  0  0  0  0  0  0
  190.9520  173.3740  143.1620 C   0  0  2  0  0  3  0  0  0  0  0  0
  194.7590  174.5810  143.7990 O   0  0  0  0  0  0  0  0  0  0  0  0
  189.2920  176.8600  143.4410 C   0  0  1  0  0  3  0  0  0  0  0  0
  195.5070  173.5130  141.8220 C   0  0  0  0  0  1  0  0  0  0  0  0
  188.9570  172.7640  141.6070 C   0  0  2  0  0  3  0  0  0  0  0  0
  190.4860  172.6930  141.8590 C   0  0  2  0  0  3  0  0  0  0  0  0
  190.4590  177.8110  143.1680 C   0  0  0  0  0  2  0  0  0  0  0  0
  187.1150  178.0210  143.8290 C   0  0  0  0  0  3  0  0  0  0  0  0
  188.0120  177.4410  142.9270 C   0  0  0  0  0  0  0  0  0  0  0  0
  187.6950  177.4050  141.5600 C   0  0  0  0  0  3  0  0  0  0  0  0
  186.1790  177.9080  139.7520 O   0  0  0  0  0  1  0  0  0  0  0  0
  185.5960  178.5250  142.0110 C   0  0  0  0  0  3  0  0  0  0  0  0
  186.4890  177.9460  141.1050 C   0  0  0  0  0  0  0  0  0  0  0  0
  185.9080  178.5630  143.3730 C   0  0  0  0  0  3  0  0  0  0  0  0
  190.8760  171.2020  141.8410 C   0  0  1  0  0  3  0  0  0  0  0  0
  190.7960  170.5330  140.5100 N   0  0  0  0  0  0  0  0  0  0  0  0
  192.0880  170.9650  141.0610 C   0  0  2  0  0  3  0  0  0  0  0  0
  192.9620  169.5280  141.7360 S   0  0  0  0  0  0  0  0  0  0  0  0
  191.4160  168.6020  141.9340 C   0  0  0  0  0  1  0  0  0  0  0  0
  189.7850  170.6890  138.3060 C   0  0  0  0  0  1  0  0  0  0  0  0
  190.5290  171.4350  139.3940 C   0  0  0  0  0  2  0  0  0  0  0  0
  1 20  1  6  0  0  0
  1 10  1  0  0  0  0
  1 18  1  0  0  0  0
  2  6  1  0  0  0  0
  4  8  1  0  0  0  0
  5 17  1  0  0  0  0
  5  2  1  0  0  0  0
  6  4  1  0  0  0  0
  7  5  1  0  0  0  0
  7  3  1  0  0  0  0
  7 19  1  0  0  0  0
  9  6  1  0  0  0  0
 12  8  1  0  0  0  0
 13  1  1  0  0  0  0
 13  9  1  0  0  0  0
 14 21  1  0  0  0  0
 14 15  1  0  0  0  0
 15  3  1  0  0  0  0
 16 11  1  0  0  0  0
 16  2  1  0  0  0  0
 16 12  1  0  0  0  0
 17  9  1  0  0  0  0
 18  4  1  0  0  0  0
 21 22  1  0  0  0  0
 21 15  1  0  0  0  0
 22 17  1  0  0  0  0
 23 19  1  0  0  0  0
 23 11  1  0  0  0  0
 25 19  1  0  0  0  0
 25 24  2  0  0  0  0
 26 25  1  0  0  0  0
 27 29  1  0  0  0  0
 28 30  2  0  0  0  0
 29 26  2  0  0  0  0
 29 28  1  0  0  0  0
 30 24  1  0  0  0  0
 31 22  1  0  0  0  0
 32 33  1  0  0  0  0
 32 31  1  0  0  0  0
 33 34  1  0  0  0  0
 33 31  1  0  0  0  0
 34 35  1  0  0  0  0
 36 37  1  0  0  0  0
 37 32  1  0  0  0  0
M  END
>  <MODEL>
7

>  <REMARK>
 VINA RESULT:      -7.2      2.316      5.191
  Name = 
  4 active torsions:
  status: ('A' for Active; 'I' for Inactive)
    1  A    between atoms: C_1  and  C_27
    2  A    between atoms: N_4  and  C_37
    3  A    between atoms: S_8  and  C_12
    4  A    between atoms: C_23  and  C_30
                            x       y       z     vdW  Elec       q    Type
                         _______ _______ _______ _____ _____    ______ ____

>  <TORSDO>
F 4

$$$$
=
 OpenBabel11112417283D

 37 44  0  0  1  0  0  0  0  0999 V2000
  193.5450  171.9790  141.7610 C   0  0  1  0  0  0  0  0  0  0  0  0
  190.4890  174.0570  140.9500 C   0  0  1  0  0  3  0  0  0  0  0  0
  190.1090  177.0150  142.4640 O   0  0  0  0  0  0  0  0  0  0  0  0
  192.1600  172.3280  139.9480 C   0  0  2  0  0  3  0  0  0  0  0  0
  190.7360  174.7080  142.3060 C   0  0  2  0  0  3  0  0  0  0  0  0
  191.9010  173.7590  140.4150 C   0  0  2  0  0  3  0  0  0  0  0  0
  189.6800  175.7140  142.7690 C   0  0  2  0  0  3  0  0  0  0  0  0
  190.9490  171.8280  139.1800 C   0  0  0  0  0  2  0  0  0  0  0  0
  192.9010  174.2050  141.4830 C   0  0  2  0  0  3  0  0  0  0  0  0
  194.6760  172.1820  140.9530 O   0  0  0  0  0  1  0  0  0  0  0  0
  188.1630  173.2800  141.1390 N   0  0  0  0  0  2  0  0  0  0  0  0
  189.7050  171.7370  140.0670 C   0  0  0  0  0  2  0  0  0  0  0  0
  193.1610  173.1710  142.4170 O   0  0  0  0  0  0  0  0  0  0  0  0
  190.8840  176.8310  144.7300 O   0  0  0  0  0  0  0  0  0  0  0  0
  190.6540  177.6590  143.6090 C   0  0  1  0  0  3  0  0  0  0  0  0
  189.5570  172.8420  141.1260 C   0  0  1  0  0  3  0  0  0  0  0  0
  192.1230  175.3160  142.1760 C   0  0  2  0  0  3  0  0  0  0  0  0
  192.4620  171.4560  141.0160 O   0  0  0  0  0  0  0  0  0  0  0  0
  188.2550  175.4520  142.2600 C   0  0  1  0  0  3  0  0  0  0  0  0
  193.9110  170.9640  142.8230 C   0  0  0  0  0  1  0  0  0  0  0  0
  192.0340  177.1780  143.9900 C   0  0  2  0  0  3  0  0  0  0  0  0
  192.6790  175.8510  143.5100 C   0  0  2  0  0  3  0  0  0  0  0  0
  187.8700  173.9770  142.3870 C   0  0  0  0  0  2  0  0  0  0  0  0
  187.3340  176.4190  144.3720 C   0  0  0  0  0  3  0  0  0  0  0  0
  187.2650  176.3150  142.9790 C   0  0  0  0  0  0  0  0  0  0  0  0
  186.2670  177.0120  142.2800 C   0  0  0  0  0  3  0  0  0  0  0  0
  184.3620  178.4930  142.2790 O   0  0  0  0  0  1  0  0  0  0  0  0
  185.4220  177.9050  144.3660 C   0  0  0  0  0  3  0  0  0  0  0  0
  185.3480  177.8050  142.9730 C   0  0  0  0  0  0  0  0  0  0  0  0
  186.4150  177.2130  145.0650 C   0  0  0  0  0  3  0  0  0  0  0  0
  194.1980  176.0960  143.4220 C   0  0  1  0  0  3  0  0  0  0  0  0
  194.9010  176.2510  144.7280 N   0  0  0  0  0  0  0  0  0  0  0  0
  194.9630  174.9860  143.9830 C   0  0  2  0  0  3  0  0  0  0  0  0
  196.5590  174.8680  143.1330 S   0  0  0  0  0  0  0  0  0  0  0  0
  196.5310  176.6290  142.7040 C   0  0  0  0  0  1  0  0  0  0  0  0
  194.1950  177.1120  146.8870 C   0  0  0  0  0  1  0  0  0  0  0  0
  194.0740  175.9720  145.8980 C   0  0  0  0  0  2  0  0  0  0  0  0
  1 13  1  0  0  0  0
  1 20  1  1  0  0  0
  2 16  1  0  0  0  0
  2  5  1  0  0  0  0
  3  7  1  0  0  0  0
  3 15  1  0  0  0  0
  4  6  1  0  0  0  0
  4 18  1  0  0  0  0
  5  7  1  0  0  0  0
  6  2  1  0  0  0  0
  6  9  1  0  0  0  0
  8  4  1  0  0  0  0
  8 12  1  0  0  0  0
  9 17  1  0  0  0  0
  9 13  1  0  0  0  0
 10  1  1  0  0  0  0
 11 23  1  0  0  0  0
 12 16  1  0  0  0  0
 15 21  1  0  0  0  0
 15 14  1  0  0  0  0
 16 11  1  0  0  0  0
 17  5  1  0  0  0  0
 17 22  1  0  0  0  0
 18  1  1  0  0  0  0
 19 23  1  0  0  0  0
 19  7  1  0  0  0  0
 19 25  1  0  0  0  0
 21 14  1  0  0  0  0
 22 21  1  0  0  0  0
 24 30  1  0  0  0  0
 25 24  2  0  0  0  0
 26 29  2  0  0  0  0
 26 25  1  0  0  0  0
 27 29  1  0  0  0  0
 28 30  2  0  0  0  0
 29 28  1  0  0  0  0
 31 22  1  0  0  0  0
 31 33  1  0  0  0  0
 31 32  1  0  0  0  0
 32 37  1  0  0  0  0
 33 32  1  0  0  0  0
 34 33  1  0  0  0  0
 35 34  1  0  0  0  0
 37 36  1  0  0  0  0
M  END
>  <MODEL>
8

>  <REMARK>
 VINA RESULT:      -7.1      1.474      1.886
  Name = 
  4 active torsions:
  status: ('A' for Active; 'I' for Inactive)
    1  A    between atoms: C_1  and  C_27
    2  A    between atoms: N_4  and  C_37
    3  A    between atoms: S_8  and  C_12
    4  A    between atoms: C_23  and  C_30
                            x       y       z     vdW  Elec       q    Type
                         _______ _______ _______ _____ _____    ______ ____

>  <TORSDO>
F 4

$$$$
=
 OpenBabel11112417283D

 37 44  0  0  1  0  0  0  0  0999 V2000
  190.5420  177.3380  144.0400 C   0  0  1  0  0  0  0  0  0  0  0  0
  189.2740  174.3020  142.1730 C   0  0  1  0  0  3  0  0  0  0  0  0
  191.4250  171.8450  141.4520 O   0  0  0  0  0  0  0  0  0  0  0  0
  188.5730  176.1460  143.8750 C   0  0  2  0  0  3  0  0  0  0  0  0
  190.7280  174.1160  141.7550 C   0  0  2  0  0  3  0  0  0  0  0  0
  189.3640  174.8680  143.6020 C   0  0  2  0  0  3  0  0  0  0  0  0
  191.0000  172.9880  140.7580 C   0  0  2  0  0  3  0  0  0  0  0  0
  187.2190  176.0490  143.1940 C   0  0  0  0  0  2  0  0  0  0  0  0
  190.8470  175.0270  143.9410 C   0  0  2  0  0  3  0  0  0  0  0  0
  190.4690  177.2910  145.4420 O   0  0  0  0  0  1  0  0  0  0  0  0
  188.0950  174.3630  140.0160 N   0  0  0  0  0  2  0  0  0  0  0  0
  187.3480  175.9790  141.6700 C   0  0  0  0  0  2  0  0  0  0  0  0
  191.3430  176.2900  143.5320 O   0  0  0  0  0  0  0  0  0  0  0  0
  193.5490  172.8140  140.8890 O   0  0  0  0  0  0  0  0  0  0  0  0
  192.8380  171.7030  141.3940 C   0  0  1  0  0  3  0  0  0  0  0  0
  188.5500  175.1820  141.1360 C   0  0  1  0  0  3  0  0  0  0  0  0
  191.4700  173.9430  143.0710 C   0  0  2  0  0  3  0  0  0  0  0  0
  189.2570  177.3060  143.4520 O   0  0  0  0  0  0  0  0  0  0  0  0
  189.8490  172.6720  139.7930 C   0  0  1  0  0  3  0  0  0  0  0  0
  191.1970  178.6490  143.6560 C   0  0  0  0  0  1  0  0  0  0  0  0
  193.5930  172.6570  142.2900 C   0  0  2  0  0  3  0  0  0  0  0  0
  193.0030  173.9520  142.9080 C   0  0  2  0  0  3  0  0  0  0  0  0
  189.2350  173.9450  139.2070 C   0  0  0  0  0  2  0  0  0  0  0  0
  189.6840  170.5170  138.5410 C   0  0  0  0  0  3  0  0  0  0  0  0
  190.3060  171.7590  138.6980 C   0  0  0  0  0  0  0  0  0  0  0  0
  191.3520  172.1250  137.8370 C   0  0  0  0  0  3  0  0  0  0  0  0
  192.8020  171.6170  135.9760 O   0  0  0  0  0  1  0  0  0  0  0  0
  191.1410  170.0120  136.6740 C   0  0  0  0  0  3  0  0  0  0  0  0
  191.7670  171.2520  136.8270 C   0  0  0  0  0  0  0  0  0  0  0  0
  190.1000  169.6440  137.5300 C   0  0  0  0  0  3  0  0  0  0  0  0
  193.7060  174.1630  144.2640 C   0  0  1  0  0  3  0  0  0  0  0  0
  195.0900  174.7130  144.1920 N   0  0  0  0  0  0  0  0  0  0  0  0
  193.9520  175.5760  144.5360 C   0  0  2  0  0  3  0  0  0  0  0  0
  193.9300  175.8540  146.3270 S   0  0  0  0  0  0  0  0  0  0  0  0
  194.5670  177.5410  146.1360 C   0  0  0  0  0  1  0  0  0  0  0  0
  196.3280  176.4010  142.9590 C   0  0  0  0  0  1  0  0  0  0  0  0
  195.5060  175.1330  142.8580 C   0  0  0  0  0  2  0  0  0  0  0  0
  1 20  1  6  0  0  0
  1 10  1  0  0  0  0
  2  6  1  0  0  0  0
  5  2  1  0  0  0  0
  5 17  1  0  0  0  0
  6  4  1  0  0  0  0
  6  9  1  0  0  0  0
  7  3  1  0  0  0  0
  7  5  1  0  0  0  0
  8  4  1  0  0  0  0
 11 16  1  0  0  0  0
 12  8  1  0  0  0  0
 13  9  1  0  0  0  0
 13  1  1  0  0  0  0
 14 15  1  0  0  0  0
 14 21  1  0  0  0  0
 15  3  1  0  0  0  0
 15 21  1  0  0  0  0
 16 12  1  0  0  0  0
 16  2  1  0  0  0  0
 17  9  1  0  0  0  0
 18  4  1  0  0  0  0
 18  1  1  0  0  0  0
 19  7  1  0  0  0  0
 21 22  1  0  0  0  0
 22 17  1  0  0  0  0
 22 31  1  0  0  0  0
 23 19  1  0  0  0  0
 23 11  1  0  0  0  0
 24 25  1  0  0  0  0
 25 19  1  0  0  0  0
 26 25  2  0  0  0  0
 27 29  1  0  0  0  0
 28 29  2  0  0  0  0
 28 30  1  0  0  0  0
 29 26  1  0  0  0  0
 30 24  2  0  0  0  0
 31 33  1  0  0  0  0
 32 31  1  0  0  0  0
 32 33  1  0  0  0  0
 33 34  1  0  0  0  0
 35 34  1  0  0  0  0
 37 36  1  0  0  0  0
 37 32  1  0  0  0  0
M  END
>  <MODEL>
9

>  <REMARK>
 VINA RESULT:      -6.6      2.101      6.108
  Name = 
  4 active torsions:
  status: ('A' for Active; 'I' for Inactive)
    1  A    between atoms: C_1  and  C_27
    2  A    between atoms: N_4  and  C_37
    3  A    between atoms: S_8  and  C_12
    4  A    between atoms: C_23  and  C_30
                            x       y       z     vdW  Elec       q    Type
                         _______ _______ _______ _____ _____    ______ ____

>  <TORSDO>
F 4

$$$$
