=
 OpenBabel11112418053D

 34 40  0  0  1  0  0  0  0  0999 V2000
  189.8790  175.1610  142.5650 C   0  0  0  0  0  0  0  0  0  0  0  0
  192.3100  175.6950  142.2880 C   0  0  0  0  0  2  0  0  0  0  0  0
  184.9250  178.1730  145.7310 C   0  0  0  0  0  0  0  0  0  0  0  0
  187.7010  176.1340  142.9650 C   0  0  0  0  0  0  0  0  0  0  0  0
  187.1840  177.0460  145.2920 C   0  0  2  0  0  3  0  0  0  0  0  0
  186.6210  178.0230  147.4120 O   0  0  0  0  0  1  0  0  0  0  0  0
  184.0890  177.9280  146.6390 O   0  0  0  0  0  0  0  0  0  0  0  0
  185.0150  178.1380  143.2340 C   0  0  0  0  0  2  0  0  0  0  0  0
  191.5820  175.0110  144.4550 C   0  0  2  0  0  3  0  0  0  0  0  0
  193.1870  175.9130  146.9050 C   0  0  0  0  0  2  0  0  0  0  0  0
  188.6690  177.3940  145.3530 C   0  0  0  0  0  2  0  0  0  0  0  0
  186.4140  178.1310  143.2670 O   0  0  0  0  0  0  0  0  0  0  0  0
  190.8400  176.1780  145.1470 C   0  0  1  0  0  3  0  0  0  0  0  0
  193.5150  175.6470  143.1070 N   0  0  0  0  0  2  0  0  0  0  0  0
  186.7290  176.8890  143.8290 C   0  0  1  0  0  3  0  0  0  0  0  0
  184.4590  178.5800  144.4740 O   0  0  0  0  0  0  0  0  0  0  0  0
  193.7130  176.1620  145.4990 C   0  0  2  0  0  3  0  0  0  0  0  0
  189.0230  175.9010  143.3890 C   0  0  0  0  0  0  0  0  0  0  0  0
  186.4020  178.1350  146.0370 C   0  0  2  0  0  3  0  0  0  0  0  0
  189.4690  176.3820  144.6690 N   0  0  0  0  0  0  0  0  0  0  0  0
  188.1090  174.9650  140.9370 C   0  0  0  0  0  3  0  0  0  0  0  0
  191.8670  176.6530  147.0830 C   0  0  0  0  0  2  0  0  0  0  0  0
  187.2850  175.6680  141.7570 N   0  0  0  0  0  0  0  0  0  0  0  0
  190.8160  175.9180  146.5250 O   0  0  0  0  0  0  0  0  0  0  0  0
  193.1100  175.2150  144.4460 C   0  0  1  0  0  3  0  0  0  0  0  0
  189.4210  174.6960  141.3300 C   0  0  0  0  0  3  0  0  0  0  0  0
  191.2790  174.8480  142.9830 C   0  0  1  0  0  3  0  0  0  0  0  0
  195.1050  176.0340  145.4990 O   0  0  0  0  0  0  0  0  0  0  0  0
  195.3540  174.8400  146.1810 C   0  0  0  0  0  2  0  0  0  0  0  0
  197.6710  172.0150  144.4720 S   0  0  0  0  0  0  0  0  0  0  0  0
  196.8750  174.5890  144.2230 C   0  0  0  0  0  2  0  0  0  0  0  0
  196.6350  174.2090  145.6640 C   0  0  2  0  0  3  0  0  0  0  0  0
  197.9340  173.6440  143.7030 C   0  0  0  0  0  2  0  0  0  0  0  0
  196.5170  172.7030  145.7000 C   0  0  0  0  0  2  0  0  0  0  0  0
  1 27  1  0  0  0  0
  1 18  1  0  0  0  0
  2 27  1  0  0  0  0
  2 14  1  0  0  0  0
  3 19  1  0  0  0  0
  3  7  2  0  0  0  0
  4 18  2  0  0  0  0
  4 15  1  0  0  0  0
  5 11  1  6  0  0  0
  5 19  1  0  0  0  0
  8 12  1  0  0  0  0
  8 16  1  0  0  0  0
  9 13  1  0  0  0  0
 10 22  1  0  0  0  0
 12 15  1  0  0  0  0
 13 24  1  0  0  0  0
 14 25  1  0  0  0  0
 15  5  1  0  0  0  0
 16  3  1  0  0  0  0
 17 28  1  0  0  0  0
 17 10  1  0  0  0  0
 18 20  1  0  0  0  0
 19  6  1  0  0  0  0
 20 13  1  0  0  0  0
 20 11  1  0  0  0  0
 21 26  1  0  0  0  0
 21 23  2  0  0  0  0
 23  4  1  0  0  0  0
 24 22  1  0  0  0  0
 25  9  1  0  0  0  0
 25 17  1  0  0  0  0
 26  1  2  0  0  0  0
 27  9  1  0  0  0  0
 28 29  1  0  0  0  0
 30 34  1  0  0  0  0
 31 32  1  0  0  0  0
 32 34  1  0  0  0  0
 32 29  1  0  0  0  0
 33 31  1  0  0  0  0
 33 30  1  0  0  0  0
M  END
>  <MODEL>
1

>  <REMARK>
 VINA RESULT:      -8.4      0.000      0.000
  Name = 
  3 active torsions:
  status: ('A' for Active; 'I' for Inactive)
    1  A    between atoms: C_17  and  O_28
    2  A    between atoms: O_28  and  C_29
    3  A    between atoms: C_29  and  C_32
                            x       y       z     vdW  Elec       q    Type
                         _______ _______ _______ _____ _____    ______ ____

>  <TORSDO>
F 3

$$$$
=
 OpenBabel11112418053D

 34 40  0  0  1  0  0  0  0  0999 V2000
  192.0310  176.0310  145.5260 C   0  0  0  0  0  0  0  0  0  0  0  0
  189.8120  177.1740  145.3250 C   0  0  0  0  0  2  0  0  0  0  0  0
  196.8150  174.6570  141.1830 C   0  0  0  0  0  0  0  0  0  0  0  0
  194.2440  175.8800  144.5590 C   0  0  0  0  0  0  0  0  0  0  0  0
  194.5040  174.7490  142.2860 C   0  0  2  0  0  3  0  0  0  0  0  0
  194.8560  173.7950  140.1110 O   0  0  0  0  0  1  0  0  0  0  0  0
  197.4290  173.6560  140.7290 O   0  0  0  0  0  0  0  0  0  0  0  0
  197.1490  176.3940  142.9470 C   0  0  0  0  0  2  0  0  0  0  0  0
  190.0310  175.0260  144.3090 C   0  0  2  0  0  3  0  0  0  0  0  0
  188.2100  174.3180  141.9470 C   0  0  0  0  0  2  0  0  0  0  0  0
  193.1130  175.3030  141.9870 C   0  0  0  0  0  2  0  0  0  0  0  0
  195.7840  176.7060  142.9230 O   0  0  0  0  0  0  0  0  0  0  0  0
  190.8330  175.1520  142.9940 C   0  0  1  0  0  3  0  0  0  0  0  0
  188.4950  176.8640  144.7830 N   0  0  0  0  0  2  0  0  0  0  0  0
  195.1690  175.5520  143.4200 C   0  0  1  0  0  3  0  0  0  0  0  0
  197.5520  175.6940  141.7690 O   0  0  0  0  0  0  0  0  0  0  0  0
  187.9820  175.5930  142.7460 C   0  0  2  0  0  3  0  0  0  0  0  0
  192.8480  175.7480  144.4250 C   0  0  0  0  0  0  0  0  0  0  0  0
  195.3230  174.7760  140.9900 C   0  0  2  0  0  3  0  0  0  0  0  0
  192.2800  175.2900  143.1870 N   0  0  0  0  0  0  0  0  0  0  0  0
  193.9920  176.6030  146.8090 C   0  0  0  0  0  3  0  0  0  0  0  0
  189.5870  174.3730  141.2990 C   0  0  0  0  0  2  0  0  0  0  0  0
  194.7730  176.3060  145.7370 N   0  0  0  0  0  0  0  0  0  0  0  0
  190.5750  174.0110  142.2200 O   0  0  0  0  0  0  0  0  0  0  0  0
  188.5850  175.5400  144.1620 C   0  0  1  0  0  3  0  0  0  0  0  0
  192.6070  176.4660  146.7220 C   0  0  0  0  0  3  0  0  0  0  0  0
  190.5480  175.8680  145.4530 C   0  0  1  0  0  3  0  0  0  0  0  0
  186.6110  175.8440  142.8320 O   0  0  0  0  0  0  0  0  0  0  0  0
  186.3960  176.9520  142.0100 C   0  0  0  0  0  2  0  0  0  0  0  0
  184.5340  178.7100  145.1260 S   0  0  0  0  0  0  0  0  0  0  0  0
  186.2950  179.1780  143.1270 C   0  0  0  0  0  2  0  0  0  0  0  0
  185.5060  177.9570  142.7180 C   0  0  2  0  0  3  0  0  0  0  0  0
  185.4390  179.9280  144.1200 C   0  0  0  0  0  2  0  0  0  0  0  0
  184.9570  177.3520  143.9900 C   0  0  0  0  0  2  0  0  0  0  0  0
  1 26  1  0  0  0  0
  2 27  1  0  0  0  0
  3 16  1  0  0  0  0
  4 23  2  0  0  0  0
  5 11  1  6  0  0  0
  5 15  1  0  0  0  0
  6 19  1  0  0  0  0
  7  3  2  0  0  0  0
  9 27  1  0  0  0  0
 10 17  1  0  0  0  0
 11 20  1  0  0  0  0
 12  8  1  0  0  0  0
 12 15  1  0  0  0  0
 13 20  1  0  0  0  0
 13  9  1  0  0  0  0
 14  2  1  0  0  0  0
 15  4  1  0  0  0  0
 16  8  1  0  0  0  0
 17 28  1  0  0  0  0
 17 25  1  0  0  0  0
 18  4  1  0  0  0  0
 18  1  2  0  0  0  0
 19  3  1  0  0  0  0
 19  5  1  0  0  0  0
 20 18  1  0  0  0  0
 22 10  1  0  0  0  0
 22 24  1  0  0  0  0
 23 21  1  0  0  0  0
 24 13  1  0  0  0  0
 25  9  1  0  0  0  0
 25 14  1  0  0  0  0
 26 21  2  0  0  0  0
 27  1  1  0  0  0  0
 29 32  1  0  0  0  0
 29 28  1  0  0  0  0
 31 33  1  0  0  0  0
 32 31  1  0  0  0  0
 32 34  1  0  0  0  0
 33 30  1  0  0  0  0
 34 30  1  0  0  0  0
M  END
>  <MODEL>
2

>  <REMARK>
 VINA RESULT:      -8.0      3.486      9.098
  Name = 
  3 active torsions:
  status: ('A' for Active; 'I' for Inactive)
    1  A    between atoms: C_17  and  O_28
    2  A    between atoms: O_28  and  C_29
    3  A    between atoms: C_29  and  C_32
                            x       y       z     vdW  Elec       q    Type
                         _______ _______ _______ _____ _____    ______ ____

>  <TORSDO>
F 3

$$$$
=
 OpenBabel11112418053D

 34 40  0  0  1  0  0  0  0  0999 V2000
  186.7030  176.8220  145.3510 C   0  0  0  0  0  0  0  0  0  0  0  0
  185.1560  178.6170  144.5410 C   0  0  0  0  0  2  0  0  0  0  0  0
  192.9170  175.1840  143.8200 C   0  0  0  0  0  0  0  0  0  0  0  0
  189.0330  176.2380  145.6400 C   0  0  0  0  0  0  0  0  0  0  0  0
  190.4230  175.7110  143.5650 C   0  0  2  0  0  3  0  0  0  0  0  0
  191.8500  175.2910  141.6800 O   0  0  0  0  0  1  0  0  0  0  0  0
  193.5590  174.1940  143.3810 O   0  0  0  0  0  0  0  0  0  0  0  0
  192.3720  176.2090  146.0320 C   0  0  0  0  0  2  0  0  0  0  0  0
  185.6700  176.8480  143.0220 C   0  0  2  0  0  3  0  0  0  0  0  0
  185.4750  177.3860  140.0110 C   0  0  0  0  0  2  0  0  0  0  0  0
  189.5330  176.7310  142.8590 C   0  0  0  0  0  2  0  0  0  0  0  0
  191.3180  176.9300  145.4580 O   0  0  0  0  0  0  0  0  0  0  0  0
  187.0910  177.0510  142.4500 C   0  0  1  0  0  3  0  0  0  0  0  0
  184.3660  178.8880  143.3460 N   0  0  0  0  0  2  0  0  0  0  0  0
  190.4000  175.9420  145.0880 C   0  0  1  0  0  3  0  0  0  0  0  0
  193.2960  175.7480  145.0450 O   0  0  0  0  0  0  0  0  0  0  0  0
  184.9780  178.4160  141.0160 C   0  0  2  0  0  3  0  0  0  0  0  0
  187.9660  176.5910  144.7920 C   0  0  0  0  0  0  0  0  0  0  0  0
  191.8350  175.8120  142.9760 C   0  0  2  0  0  3  0  0  0  0  0  0
  188.1660  176.6720  143.3710 N   0  0  0  0  0  0  0  0  0  0  0  0
  187.6170  176.3950  147.5430 C   0  0  0  0  0  3  0  0  0  0  0  0
  186.9690  177.1700  140.2130 C   0  0  0  0  0  2  0  0  0  0  0  0
  188.8320  176.1550  146.9830 N   0  0  0  0  0  0  0  0  0  0  0  0
  187.1960  176.2900  141.2760 O   0  0  0  0  0  0  0  0  0  0  0  0
  184.6440  177.8110  142.3920 C   0  0  1  0  0  3  0  0  0  0  0  0
  186.5310  176.7280  146.7340 C   0  0  0  0  0  3  0  0  0  0  0  0
  185.5260  177.1580  144.4950 C   0  0  1  0  0  3  0  0  0  0  0  0
  183.8480  179.0540  140.5000 O   0  0  0  0  0  0  0  0  0  0  0  0
  182.8510  178.0750  140.5000 C   0  0  0  0  0  2  0  0  0  0  0  0
  178.8240  178.2540  140.6320 S   0  0  0  0  0  0  0  0  0  0  0  0
  181.0540  178.8180  142.0570 C   0  0  0  0  0  2  0  0  0  0  0  0
  181.4850  178.7280  140.6130 C   0  0  2  0  0  3  0  0  0  0  0  0
  179.5740  179.1280  142.0430 C   0  0  0  0  0  2  0  0  0  0  0  0
  180.4510  177.8850  139.9050 C   0  0  0  0  0  2  0  0  0  0  0  0
  1 26  1  0  0  0  0
  3 16  1  0  0  0  0
  4 23  2  0  0  0  0
  5 11  1  6  0  0  0
  5 15  1  0  0  0  0
  6 19  1  0  0  0  0
  7  3  2  0  0  0  0
  9 27  1  0  0  0  0
 10 22  1  0  0  0  0
 10 17  1  0  0  0  0
 11 20  1  0  0  0  0
 12  8  1  0  0  0  0
 13  9  1  0  0  0  0
 13 20  1  0  0  0  0
 14  2  1  0  0  0  0
 15 12  1  0  0  0  0
 15  4  1  0  0  0  0
 16  8  1  0  0  0  0
 17 25  1  0  0  0  0
 18  1  2  0  0  0  0
 18  4  1  0  0  0  0
 19  5  1  0  0  0  0
 19  3  1  0  0  0  0
 20 18  1  0  0  0  0
 22 24  1  0  0  0  0
 23 21  1  0  0  0  0
 24 13  1  0  0  0  0
 25  9  1  0  0  0  0
 25 14  1  0  0  0  0
 26 21  2  0  0  0  0
 27  2  1  0  0  0  0
 27  1  1  0  0  0  0
 28 29  1  0  0  0  0
 28 17  1  0  0  0  0
 29 32  1  0  0  0  0
 30 33  1  0  0  0  0
 32 31  1  0  0  0  0
 33 31  1  0  0  0  0
 34 32  1  0  0  0  0
 34 30  1  0  0  0  0
M  END
>  <MODEL>
3

>  <REMARK>
 VINA RESULT:      -8.0      4.453      9.928
  Name = 
  3 active torsions:
  status: ('A' for Active; 'I' for Inactive)
    1  A    between atoms: C_17  and  O_28
    2  A    between atoms: O_28  and  C_29
    3  A    between atoms: C_29  and  C_32
                            x       y       z     vdW  Elec       q    Type
                         _______ _______ _______ _____ _____    ______ ____

>  <TORSDO>
F 3

$$$$
=
 OpenBabel11112418053D

 34 40  0  0  1  0  0  0  0  0999 V2000
  188.6650  177.5200  146.5640 C   0  0  0  0  0  0  0  0  0  0  0  0
  190.0800  175.6610  147.4660 C   0  0  0  0  0  2  0  0  0  0  0  0
  185.1120  178.2190  141.0390 C   0  0  0  0  0  0  0  0  0  0  0  0
  186.7890  178.0200  145.1200 C   0  0  0  0  0  0  0  0  0  0  0  0
  187.1010  177.7940  142.5970 C   0  0  2  0  0  3  0  0  0  0  0  0
  187.2490  177.5220  140.2160 O   0  0  0  0  0  1  0  0  0  0  0  0
  185.0460  178.9830  140.0410 O   0  0  0  0  0  0  0  0  0  0  0  0
  183.9910  177.9620  143.2570 C   0  0  0  0  0  2  0  0  0  0  0  0
  190.9070  176.8390  145.5610 C   0  0  2  0  0  3  0  0  0  0  0  0
  192.8530  175.4110  143.6740 C   0  0  0  0  0  2  0  0  0  0  0  0
  188.0670  176.6620  142.9400 C   0  0  0  0  0  2  0  0  0  0  0  0
  185.0460  177.1660  143.7170 O   0  0  0  0  0  0  0  0  0  0  0  0
  190.1440  176.3820  144.2970 C   0  0  1  0  0  3  0  0  0  0  0  0
  191.3900  175.0830  147.1880 N   0  0  0  0  0  2  0  0  0  0  0  0
  186.1330  178.0460  143.7670 C   0  0  1  0  0  3  0  0  0  0  0  0
  183.9700  178.0390  141.8300 O   0  0  0  0  0  0  0  0  0  0  0  0
  192.4480  174.7740  144.9950 C   0  0  2  0  0  3  0  0  0  0  0  0
  188.0820  177.4880  145.2910 C   0  0  0  0  0  0  0  0  0  0  0  0
  186.3710  177.4280  141.2990 C   0  0  2  0  0  3  0  0  0  0  0  0
  188.8030  176.9600  144.1660 N   0  0  0  0  0  0  0  0  0  0  0  0
  186.6620  178.5460  147.4340 C   0  0  0  0  0  3  0  0  0  0  0  0
  191.6150  175.5860  142.8030 C   0  0  0  0  0  2  0  0  0  0  0  0
  186.1170  178.5250  146.1890 N   0  0  0  0  0  0  0  0  0  0  0  0
  190.9130  176.7360  143.1780 O   0  0  0  0  0  0  0  0  0  0  0  0
  191.9380  175.7940  146.0300 C   0  0  1  0  0  3  0  0  0  0  0  0
  187.9480  178.0460  147.6410 C   0  0  0  0  0  3  0  0  0  0  0  0
  190.0490  177.0080  146.7950 C   0  0  1  0  0  3  0  0  0  0  0  0
  193.5380  174.0790  145.5240 O   0  0  0  0  0  0  0  0  0  0  0  0
  194.5510  175.0340  145.6410 C   0  0  0  0  0  2  0  0  0  0  0  0
  197.2810  172.1380  144.9840 S   0  0  0  0  0  0  0  0  0  0  0  0
  196.7720  174.7600  144.5470 C   0  0  0  0  0  2  0  0  0  0  0  0
  195.9030  174.3480  145.7110 C   0  0  2  0  0  3  0  0  0  0  0  0
  197.9170  173.7740  144.4990 C   0  0  0  0  0  2  0  0  0  0  0  0
  195.7270  172.8510  145.6110 C   0  0  0  0  0  2  0  0  0  0  0  0
  1 27  1  0  0  0  0
  1 26  1  0  0  0  0
  3 19  1  0  0  0  0
  3 16  1  0  0  0  0
  4 18  1  0  0  0  0
  4 23  2  0  0  0  0
  5 11  1  1  0  0  0
  5 15  1  0  0  0  0
  6 19  1  0  0  0  0
  7  3  2  0  0  0  0
  8 12  1  0  0  0  0
  9 25  1  0  0  0  0
  9 27  1  0  0  0  0
 10 17  1  0  0  0  0
 11 20  1  0  0  0  0
 12 15  1  0  0  0  0
 13  9  1  0  0  0  0
 14  2  1  0  0  0  0
 15  4  1  0  0  0  0
 16  8  1  0  0  0  0
 17 28  1  0  0  0  0
 17 25  1  0  0  0  0
 18  1  2  0  0  0  0
 19  5  1  0  0  0  0
 20 13  1  0  0  0  0
 20 18  1  0  0  0  0
 21 26  2  0  0  0  0
 22 24  1  0  0  0  0
 22 10  1  0  0  0  0
 23 21  1  0  0  0  0
 24 13  1  0  0  0  0
 25 14  1  0  0  0  0
 27  2  1  0  0  0  0
 28 29  1  0  0  0  0
 29 32  1  0  0  0  0
 30 34  1  0  0  0  0
 31 32  1  0  0  0  0
 33 31  1  0  0  0  0
 33 30  1  0  0  0  0
 34 32  1  0  0  0  0
M  END
>  <MODEL>
4

>  <REMARK>
 VINA RESULT:      -7.9      1.930      3.799
  Name = 
  3 active torsions:
  status: ('A' for Active; 'I' for Inactive)
    1  A    between atoms: C_17  and  O_28
    2  A    between atoms: O_28  and  C_29
    3  A    between atoms: C_29  and  C_32
                            x       y       z     vdW  Elec       q    Type
                         _______ _______ _______ _____ _____    ______ ____

>  <TORSDO>
F 3

$$$$
=
 OpenBabel11112418053D

 34 40  0  0  1  0  0  0  0  0999 V2000
  194.6310  174.6830  145.2460 C   0  0  0  0  0  0  0  0  0  0  0  0
  193.2220  176.1700  146.6870 C   0  0  0  0  0  2  0  0  0  0  0  0
  196.2400  174.8070  138.8400 C   0  0  0  0  0  0  0  0  0  0  0  0
  195.9910  174.6230  143.2460 C   0  0  0  0  0  0  0  0  0  0  0  0
  194.8290  174.7680  140.9790 C   0  0  2  0  0  3  0  0  0  0  0  0
  193.8540  174.9960  138.7960 O   0  0  0  0  0  1  0  0  0  0  0  0
  196.1390  174.0770  137.8200 O   0  0  0  0  0  0  0  0  0  0  0  0
  197.9410  175.3170  140.5970 C   0  0  0  0  0  2  0  0  0  0  0  0
  192.0930  174.8310  145.0650 C   0  0  2  0  0  3  0  0  0  0  0  0
  189.3760  175.7730  144.0080 C   0  0  0  0  0  2  0  0  0  0  0  0
  193.8080  175.6500  141.6950 C   0  0  0  0  0  2  0  0  0  0  0  0
  196.9490  175.8510  141.4280 O   0  0  0  0  0  0  0  0  0  0  0  0
  192.2820  175.4480  143.6600 C   0  0  1  0  0  3  0  0  0  0  0  0
  191.8010  176.4320  146.8850 N   0  0  0  0  0  2  0  0  0  0  0  0
  196.1580  174.7460  141.7570 C   0  0  1  0  0  3  0  0  0  0  0  0
  197.5100  175.2450  139.2370 O   0  0  0  0  0  0  0  0  0  0  0  0
  190.0430  176.4870  145.1740 C   0  0  2  0  0  3  0  0  0  0  0  0
  194.7430  174.8450  143.8600 C   0  0  0  0  0  0  0  0  0  0  0  0
  194.9960  175.2890  139.5460 C   0  0  2  0  0  3  0  0  0  0  0  0
  193.5970  175.1920  143.0660 N   0  0  0  0  0  0  0  0  0  0  0  0
  196.9800  174.1440  145.3540 C   0  0  0  0  0  3  0  0  0  0  0  0
  190.2660  175.8850  142.7770 C   0  0  0  0  0  2  0  0  0  0  0  0
  197.0690  174.2860  144.0050 N   0  0  0  0  0  0  0  0  0  0  0  0
  191.2840  174.9270  142.8230 O   0  0  0  0  0  0  0  0  0  0  0  0
  191.0720  175.6130  145.9140 C   0  0  1  0  0  3  0  0  0  0  0  0
  195.7570  174.3360  145.9970 C   0  0  0  0  0  3  0  0  0  0  0  0
  193.3230  174.8640  145.9450 C   0  0  1  0  0  3  0  0  0  0  0  0
  189.0630  176.9160  146.0730 O   0  0  0  0  0  0  0  0  0  0  0  0
  187.8490  176.6130  145.4500 C   0  0  0  0  0  2  0  0  0  0  0  0
  184.6420  179.0190  145.0110 S   0  0  0  0  0  0  0  0  0  0  0  0
  185.5800  176.9180  146.4340 C   0  0  0  0  0  2  0  0  0  0  0  0
  186.7910  177.6190  145.8660 C   0  0  2  0  0  3  0  0  0  0  0  0
  184.4700  177.9430  146.4700 C   0  0  0  0  0  2  0  0  0  0  0  0
  186.3150  178.3940  144.6590 C   0  0  0  0  0  2  0  0  0  0  0  0
  1 27  1  0  0  0  0
  1 26  1  0  0  0  0
  2 14  1  0  0  0  0
  3 16  1  0  0  0  0
  3 19  1  0  0  0  0
  4 18  1  0  0  0  0
  4 23  2  0  0  0  0
  5 11  1  1  0  0  0
  5 15  1  0  0  0  0
  6 19  1  0  0  0  0
  7  3  2  0  0  0  0
  8 12  1  0  0  0  0
  9 25  1  0  0  0  0
  9 27  1  0  0  0  0
 10 17  1  0  0  0  0
 11 20  1  0  0  0  0
 12 15  1  0  0  0  0
 13  9  1  0  0  0  0
 15  4  1  0  0  0  0
 16  8  1  0  0  0  0
 17 25  1  0  0  0  0
 17 28  1  0  0  0  0
 18  1  2  0  0  0  0
 19  5  1  0  0  0  0
 20 13  1  0  0  0  0
 20 18  1  0  0  0  0
 21 26  2  0  0  0  0
 22 24  1  0  0  0  0
 22 10  1  0  0  0  0
 23 21  1  0  0  0  0
 24 13  1  0  0  0  0
 25 14  1  0  0  0  0
 27  2  1  0  0  0  0
 29 32  1  0  0  0  0
 29 28  1  0  0  0  0
 30 33  1  0  0  0  0
 31 33  1  0  0  0  0
 32 31  1  0  0  0  0
 34 30  1  0  0  0  0
 34 32  1  0  0  0  0
M  END
>  <MODEL>
5

>  <REMARK>
 VINA RESULT:      -7.8      3.966      9.207
  Name = 
  3 active torsions:
  status: ('A' for Active; 'I' for Inactive)
    1  A    between atoms: C_17  and  O_28
    2  A    between atoms: O_28  and  C_29
    3  A    between atoms: C_29  and  C_32
                            x       y       z     vdW  Elec       q    Type
                         _______ _______ _______ _____ _____    ______ ____

>  <TORSDO>
F 3

$$$$
=
 OpenBabel11112418053D

 34 40  0  0  1  0  0  0  0  0999 V2000
  190.0630  174.0460  141.4160 C   0  0  0  0  0  0  0  0  0  0  0  0
  192.5250  174.1060  141.8720 C   0  0  0  0  0  2  0  0  0  0  0  0
  185.1430  178.2910  142.6070 C   0  0  0  0  0  0  0  0  0  0  0  0
  188.1150  175.4290  141.0310 C   0  0  0  0  0  0  0  0  0  0  0  0
  187.1450  176.7390  142.9940 C   0  0  2  0  0  3  0  0  0  0  0  0
  186.2060  178.0910  144.7430 O   0  0  0  0  0  1  0  0  0  0  0  0
  184.0470  178.3270  143.2250 O   0  0  0  0  0  0  0  0  0  0  0  0
  185.9470  177.8850  140.2770 C   0  0  0  0  0  2  0  0  0  0  0  0
  191.0700  173.8750  143.7500 C   0  0  2  0  0  3  0  0  0  0  0  0
  192.0440  174.8260  146.4960 C   0  0  0  0  0  2  0  0  0  0  0  0
  188.5870  176.8300  143.4890 C   0  0  0  0  0  2  0  0  0  0  0  0
  187.2420  177.6400  140.7470 O   0  0  0  0  0  0  0  0  0  0  0  0
  190.4190  175.2390  144.0750 C   0  0  1  0  0  3  0  0  0  0  0  0
  193.4010  173.9680  143.0280 N   0  0  0  0  0  2  0  0  0  0  0  0
  187.1140  176.4560  141.4810 C   0  0  1  0  0  3  0  0  0  0  0  0
  185.1590  178.5890  141.2380 O   0  0  0  0  0  0  0  0  0  0  0  0
  192.9970  174.7760  145.3100 C   0  0  2  0  0  3  0  0  0  0  0  0
  189.1770  175.0330  141.8660 C   0  0  0  0  0  0  0  0  0  0  0  0
  186.4250  178.0420  143.3640 C   0  0  2  0  0  3  0  0  0  0  0  0
  189.3220  175.6070  143.1760 N   0  0  0  0  0  0  0  0  0  0  0  0
  188.8430  173.9290  139.3370 C   0  0  0  0  0  3  0  0  0  0  0  0
  190.9140  175.8010  146.1890 C   0  0  0  0  0  2  0  0  0  0  0  0
  187.9810  174.8740  139.7960 N   0  0  0  0  0  0  0  0  0  0  0  0
  189.9420  175.1870  145.3930 O   0  0  0  0  0  0  0  0  0  0  0  0
  192.5420  173.8070  144.2040 C   0  0  1  0  0  3  0  0  0  0  0  0
  189.8970  173.4960  140.1420 C   0  0  0  0  0  3  0  0  0  0  0  0
  191.1820  173.5580  142.2760 C   0  0  1  0  0  3  0  0  0  0  0  0
  194.2690  174.4100  145.7570 O   0  0  0  0  0  0  0  0  0  0  0  0
  194.9810  175.6090  145.8340 C   0  0  0  0  0  2  0  0  0  0  0  0
  197.4840  174.0740  143.0690 S   0  0  0  0  0  0  0  0  0  0  0  0
  196.0310  176.2740  143.6750 C   0  0  0  0  0  2  0  0  0  0  0  0
  196.2270  175.5260  144.9710 C   0  0  2  0  0  3  0  0  0  0  0  0
  197.1470  175.8350  142.7550 C   0  0  0  0  0  2  0  0  0  0  0  0
  196.5030  174.0870  144.6020 C   0  0  0  0  0  2  0  0  0  0  0  0
  1 18  1  0  0  0  0
  1 27  1  0  0  0  0
  2 27  1  0  0  0  0
  2 14  1  0  0  0  0
  3  7  2  0  0  0  0
  3 19  1  0  0  0  0
  4 15  1  0  0  0  0
  4 18  2  0  0  0  0
  5 19  1  0  0  0  0
  5 11  1  6  0  0  0
  8 12  1  0  0  0  0
  8 16  1  0  0  0  0
  9 13  1  0  0  0  0
  9 25  1  0  0  0  0
 12 15  1  0  0  0  0
 13 24  1  0  0  0  0
 14 25  1  0  0  0  0
 15  5  1  0  0  0  0
 16  3  1  0  0  0  0
 17 28  1  0  0  0  0
 17 10  1  0  0  0  0
 18 20  1  0  0  0  0
 19  6  1  0  0  0  0
 20 11  1  0  0  0  0
 20 13  1  0  0  0  0
 21 23  2  0  0  0  0
 21 26  1  0  0  0  0
 22 10  1  0  0  0  0
 23  4  1  0  0  0  0
 24 22  1  0  0  0  0
 25 17  1  0  0  0  0
 26  1  2  0  0  0  0
 27  9  1  0  0  0  0
 28 29  1  0  0  0  0
 30 34  1  0  0  0  0
 31 32  1  0  0  0  0
 32 29  1  0  0  0  0
 33 30  1  0  0  0  0
 33 31  1  0  0  0  0
 34 32  1  0  0  0  0
M  END
>  <MODEL>
6

>  <REMARK>
 VINA RESULT:      -7.6      1.672      2.134
  Name = 
  3 active torsions:
  status: ('A' for Active; 'I' for Inactive)
    1  A    between atoms: C_17  and  O_28
    2  A    between atoms: O_28  and  C_29
    3  A    between atoms: C_29  and  C_32
                            x       y       z     vdW  Elec       q    Type
                         _______ _______ _______ _____ _____    ______ ____

>  <TORSDO>
F 3

$$$$
=
 OpenBabel11112418053D

 34 40  0  0  1  0  0  0  0  0999 V2000
  192.4420  176.1010  145.3370 C   0  0  0  0  0  0  0  0  0  0  0  0
  191.3070  177.7990  143.8880 C   0  0  0  0  0  2  0  0  0  0  0  0
  194.6650  169.9790  144.2310 C   0  0  0  0  0  0  0  0  0  0  0  0
  193.9390  174.2000  145.3110 C   0  0  0  0  0  0  0  0  0  0  0  0
  193.0820  171.9890  144.3670 C   0  0  2  0  0  3  0  0  0  0  0  0
  192.4170  169.8870  143.4150 O   0  0  0  0  0  1  0  0  0  0  0  0
  194.4900  168.8110  144.6650 O   0  0  0  0  0  0  0  0  0  0  0  0
  196.2550  171.8730  144.5890 C   0  0  0  0  0  2  0  0  0  0  0  0
  190.0510  175.8600  144.4890 C   0  0  2  0  0  3  0  0  0  0  0  0
  187.7710  174.9520  142.6540 C   0  0  0  0  0  2  0  0  0  0  0  0
  192.2440  172.8540  143.4290 C   0  0  0  0  0  2  0  0  0  0  0  0
  195.3480  172.7670  144.0090 O   0  0  0  0  0  0  0  0  0  0  0  0
  190.5260  174.6520  143.6490 C   0  0  1  0  0  3  0  0  0  0  0  0
  189.9830  177.9970  143.3110 N   0  0  0  0  0  2  0  0  0  0  0  0
  194.2790  172.7910  144.9110 C   0  0  1  0  0  3  0  0  0  0  0  0
  195.9580  170.5190  144.2420 O   0  0  0  0  0  0  0  0  0  0  0  0
  188.4740  176.2810  142.4170 C   0  0  2  0  0  3  0  0  0  0  0  0
  192.7300  174.7990  144.9090 C   0  0  0  0  0  0  0  0  0  0  0  0
  193.5150  170.7300  143.6060 C   0  0  2  0  0  3  0  0  0  0  0  0
  191.7900  174.0660  144.1050 N   0  0  0  0  0  0  0  0  0  0  0  0
  194.5620  176.1690  146.4870 C   0  0  0  0  0  3  0  0  0  0  0  0
  188.7800  173.8200  142.5120 C   0  0  0  0  0  2  0  0  0  0  0  0
  194.8180  174.8980  146.0790 N   0  0  0  0  0  0  0  0  0  0  0  0
  189.5200  173.6750  143.6900 O   0  0  0  0  0  0  0  0  0  0  0  0
  189.1750  176.8300  143.6720 C   0  0  1  0  0  3  0  0  0  0  0  0
  193.3670  176.7900  146.1260 C   0  0  0  0  0  3  0  0  0  0  0  0
  191.1560  176.7700  144.9760 C   0  0  1  0  0  3  0  0  0  0  0  0
  187.5450  177.2160  141.9540 O   0  0  0  0  0  0  0  0  0  0  0  0
  186.2990  176.6750  142.2790 C   0  0  0  0  0  2  0  0  0  0  0  0
  185.2260  178.7930  145.5390 S   0  0  0  0  0  0  0  0  0  0  0  0
  186.1040  179.0540  142.9930 C   0  0  0  0  0  2  0  0  0  0  0  0
  185.4980  177.6750  143.0930 C   0  0  2  0  0  3  0  0  0  0  0  0
  185.4800  179.8760  144.0980 C   0  0  0  0  0  2  0  0  0  0  0  0
  185.5310  177.2930  144.5540 C   0  0  0  0  0  2  0  0  0  0  0  0
  1 26  1  0  0  0  0
  2 27  1  0  0  0  0
  3 16  1  0  0  0  0
  3  7  2  0  0  0  0
  4 23  2  0  0  0  0
  5 11  1  6  0  0  0
  5 15  1  0  0  0  0
  6 19  1  0  0  0  0
  9 27  1  0  0  0  0
 11 20  1  0  0  0  0
 12  8  1  0  0  0  0
 12 15  1  0  0  0  0
 13 24  1  0  0  0  0
 13 20  1  0  0  0  0
 13  9  1  0  0  0  0
 14 25  1  0  0  0  0
 14  2  1  0  0  0  0
 15  4  1  0  0  0  0
 16  8  1  0  0  0  0
 17 10  1  0  0  0  0
 17 25  1  0  0  0  0
 18  4  1  0  0  0  0
 18  1  2  0  0  0  0
 19  3  1  0  0  0  0
 19  5  1  0  0  0  0
 20 18  1  0  0  0  0
 22 10  1  0  0  0  0
 22 24  1  0  0  0  0
 23 21  1  0  0  0  0
 25  9  1  0  0  0  0
 26 21  2  0  0  0  0
 27  1  1  0  0  0  0
 28 29  1  0  0  0  0
 28 17  1  0  0  0  0
 29 32  1  0  0  0  0
 31 32  1  0  0  0  0
 31 33  1  0  0  0  0
 32 34  1  0  0  0  0
 33 30  1  0  0  0  0
 34 30  1  0  0  0  0
M  END
>  <MODEL>
7

>  <REMARK>
 VINA RESULT:      -7.6      3.739      8.924
  Name = 
  3 active torsions:
  status: ('A' for Active; 'I' for Inactive)
    1  A    between atoms: C_17  and  O_28
    2  A    between atoms: O_28  and  C_29
    3  A    between atoms: C_29  and  C_32
                            x       y       z     vdW  Elec       q    Type
                         _______ _______ _______ _____ _____    ______ ____

>  <TORSDO>
F 3

$$$$
=
 OpenBabel11112418053D

 34 40  0  0  1  0  0  0  0  0999 V2000
  190.3440  174.7590  145.1700 C   0  0  0  0  0  0  0  0  0  0  0  0
  190.5000  172.3690  144.4360 C   0  0  0  0  0  2  0  0  0  0  0  0
  185.6250  179.3500  144.6330 C   0  0  0  0  0  0  0  0  0  0  0  0
  188.7980  176.5090  145.8030 C   0  0  0  0  0  0  0  0  0  0  0  0
  187.3440  177.5630  143.9890 C   0  0  2  0  0  3  0  0  0  0  0  0
  185.8580  178.5580  142.3870 O   0  0  0  0  0  1  0  0  0  0  0  0
  185.4680  180.5000  144.1460 O   0  0  0  0  0  0  0  0  0  0  0  0
  186.1750  178.3330  146.8480 C   0  0  0  0  0  2  0  0  0  0  0  0
  190.5370  174.0410  142.7320 C   0  0  2  0  0  3  0  0  0  0  0  0
  189.5980  173.2940  139.9120 C   0  0  0  0  0  2  0  0  0  0  0  0
  187.3730  176.1840  143.3350 C   0  0  0  0  0  2  0  0  0  0  0  0
  186.5250  177.1280  146.2280 O   0  0  0  0  0  0  0  0  0  0  0  0
  189.1090  174.5900  142.5110 C   0  0  1  0  0  3  0  0  0  0  0  0
  190.6840  171.6460  143.1840 N   0  0  0  0  0  2  0  0  0  0  0  0
  187.6690  177.4510  145.4900 C   0  0  1  0  0  3  0  0  0  0  0  0
  185.3720  179.1530  145.9970 O   0  0  0  0  0  0  0  0  0  0  0  0
  189.7720  172.2230  140.9800 C   0  0  2  0  0  3  0  0  0  0  0  0
  189.2660  175.5900  144.8440 C   0  0  0  0  0  0  0  0  0  0  0  0
  185.9690  178.1910  143.7300 C   0  0  2  0  0  3  0  0  0  0  0  0
  188.6680  175.5390  143.5370 N   0  0  0  0  0  0  0  0  0  0  0  0
  190.4110  175.7430  147.3710 C   0  0  0  0  0  3  0  0  0  0  0  0
  188.5320  174.2830  140.3650 C   0  0  0  0  0  2  0  0  0  0  0  0
  189.3760  176.5560  147.0330 N   0  0  0  0  0  0  0  0  0  0  0  0
  189.0770  175.2140  141.2560 O   0  0  0  0  0  0  0  0  0  0  0  0
  190.7280  172.6420  142.1120 C   0  0  1  0  0  3  0  0  0  0  0  0
  190.9150  174.8320  146.4430 C   0  0  0  0  0  3  0  0  0  0  0  0
  190.9080  173.7950  144.1770 C   0  0  1  0  0  3  0  0  0  0  0  0
  190.2410  171.0510  140.3830 O   0  0  0  0  0  0  0  0  0  0  0  0
  190.8880  171.4750  139.2200 C   0  0  0  0  0  2  0  0  0  0  0  0
  194.7680  170.9190  140.1700 S   0  0  0  0  0  0  0  0  0  0  0  0
  192.3740  169.6630  140.0660 C   0  0  0  0  0  2  0  0  0  0  0  0
  192.2700  170.8510  139.1400 C   0  0  2  0  0  3  0  0  0  0  0  0
  193.8470  169.3480  140.1940 C   0  0  0  0  0  2  0  0  0  0  0  0
  193.3110  171.8460  139.5950 C   0  0  0  0  0  2  0  0  0  0  0  0
  1 26  1  0  0  0  0
  3 16  1  0  0  0  0
  4 23  2  0  0  0  0
  5 11  1  1  0  0  0
  5 15  1  0  0  0  0
  6 19  1  0  0  0  0
  7  3  2  0  0  0  0
  9 27  1  0  0  0  0
 10 22  1  0  0  0  0
 10 17  1  0  0  0  0
 11 20  1  0  0  0  0
 12  8  1  0  0  0  0
 13  9  1  0  0  0  0
 13 20  1  0  0  0  0
 14  2  1  0  0  0  0
 15  4  1  0  0  0  0
 15 12  1  0  0  0  0
 16  8  1  0  0  0  0
 17 25  1  0  0  0  0
 18  1  2  0  0  0  0
 18  4  1  0  0  0  0
 19  5  1  0  0  0  0
 19  3  1  0  0  0  0
 20 18  1  0  0  0  0
 22 24  1  0  0  0  0
 23 21  1  0  0  0  0
 24 13  1  0  0  0  0
 25  9  1  0  0  0  0
 25 14  1  0  0  0  0
 26 21  2  0  0  0  0
 27  2  1  0  0  0  0
 27  1  1  0  0  0  0
 28 17  1  0  0  0  0
 29 28  1  0  0  0  0
 30 33  1  0  0  0  0
 31 33  1  0  0  0  0
 32 29  1  0  0  0  0
 32 34  1  0  0  0  0
 32 31  1  0  0  0  0
 34 30  1  0  0  0  0
M  END
>  <MODEL>
8

>  <REMARK>
 VINA RESULT:      -7.5      3.267      5.223
  Name = 
  3 active torsions:
  status: ('A' for Active; 'I' for Inactive)
    1  A    between atoms: C_17  and  O_28
    2  A    between atoms: O_28  and  C_29
    3  A    between atoms: C_29  and  C_32
                            x       y       z     vdW  Elec       q    Type
                         _______ _______ _______ _____ _____    ______ ____

>  <TORSDO>
F 3

$$$$
=
 OpenBabel11112418053D

 34 40  0  0  1  0  0  0  0  0999 V2000
  189.1780  175.9660  146.1140 C   0  0  0  0  0  0  0  0  0  0  0  0
  187.3840  177.7130  146.1720 C   0  0  0  0  0  2  0  0  0  0  0  0
  194.9390  175.5140  142.9130 C   0  0  0  0  0  0  0  0  0  0  0  0
  191.5400  175.6070  145.7320 C   0  0  0  0  0  0  0  0  0  0  0  0
  192.4290  175.7900  143.3470 C   0  0  2  0  0  3  0  0  0  0  0  0
  193.3930  176.0340  141.1610 O   0  0  0  0  0  1  0  0  0  0  0  0
  195.5150  174.7500  142.0950 O   0  0  0  0  0  0  0  0  0  0  0  0
  194.8730  175.8740  145.3850 C   0  0  0  0  0  2  0  0  0  0  0  0
  187.6250  176.4600  144.1550 C   0  0  2  0  0  3  0  0  0  0  0  0
  186.6960  177.7170  141.5180 C   0  0  0  0  0  2  0  0  0  0  0  0
  191.3420  176.8440  143.1520 C   0  0  0  0  0  2  0  0  0  0  0  0
  193.6740  176.5870  145.2670 O   0  0  0  0  0  0  0  0  0  0  0  0
  188.8580  176.9670  143.3720 C   0  0  1  0  0  3  0  0  0  0  0  0
  186.3210  178.1830  145.2920 N   0  0  0  0  0  2  0  0  0  0  0  0
  192.7520  175.6240  144.8430 C   0  0  1  0  0  3  0  0  0  0  0  0
  195.5640  175.7890  144.1370 O   0  0  0  0  0  0  0  0  0  0  0  0
  186.3920  178.3920  142.8480 C   0  0  2  0  0  3  0  0  0  0  0  0
  190.2850  176.0360  145.2590 C   0  0  0  0  0  0  0  0  0  0  0  0
  193.6550  176.2040  142.5230 C   0  0  2  0  0  3  0  0  0  0  0  0
  190.1390  176.4970  143.9050 N   0  0  0  0  0  0  0  0  0  0  0  0
  190.6050  175.1090  147.8600 C   0  0  0  0  0  3  0  0  0  0  0  0
  188.2060  177.6350  141.3320 C   0  0  0  0  0  2  0  0  0  0  0  0
  191.6660  175.1640  147.0120 N   0  0  0  0  0  0  0  0  0  0  0  0
  188.7260  176.5470  142.0410 O   0  0  0  0  0  0  0  0  0  0  0  0
  186.4260  177.4240  144.0440 C   0  0  1  0  0  3  0  0  0  0  0  0
  189.3410  175.5060  147.4230 C   0  0  0  0  0  3  0  0  0  0  0  0
  187.8150  176.3680  145.6520 C   0  0  1  0  0  3  0  0  0  0  0  0
  185.1380  179.0030  142.7780 O   0  0  0  0  0  0  0  0  0  0  0  0
  184.3100  178.0530  142.1740 C   0  0  0  0  0  2  0  0  0  0  0  0
  180.6880  178.2890  140.4160 S   0  0  0  0  0  0  0  0  0  0  0  0
  182.0140  178.8640  142.7020 C   0  0  0  0  0  2  0  0  0  0  0  0
  183.0640  178.7270  141.6270 C   0  0  2  0  0  3  0  0  0  0  0  0
  180.7190  179.1930  141.9960 C   0  0  0  0  0  2  0  0  0  0  0  0
  182.4570  177.8770  140.5350 C   0  0  0  0  0  2  0  0  0  0  0  0
  1 26  1  0  0  0  0
  3 16  1  0  0  0  0
  4 23  2  0  0  0  0
  5 11  1  1  0  0  0
  5 15  1  0  0  0  0
  6 19  1  0  0  0  0
  7  3  2  0  0  0  0
  9 27  1  0  0  0  0
 10 17  1  0  0  0  0
 11 20  1  0  0  0  0
 12  8  1  0  0  0  0
 13 20  1  0  0  0  0
 13  9  1  0  0  0  0
 14  2  1  0  0  0  0
 15 12  1  0  0  0  0
 15  4  1  0  0  0  0
 16  8  1  0  0  0  0
 17 25  1  0  0  0  0
 18  4  1  0  0  0  0
 18  1  2  0  0  0  0
 19  3  1  0  0  0  0
 19  5  1  0  0  0  0
 20 18  1  0  0  0  0
 22 10  1  0  0  0  0
 22 24  1  0  0  0  0
 23 21  1  0  0  0  0
 24 13  1  0  0  0  0
 25  9  1  0  0  0  0
 25 14  1  0  0  0  0
 26 21  2  0  0  0  0
 27  1  1  0  0  0  0
 27  2  1  0  0  0  0
 28 17  1  0  0  0  0
 29 28  1  0  0  0  0
 30 34  1  0  0  0  0
 30 33  1  0  0  0  0
 32 29  1  0  0  0  0
 32 31  1  0  0  0  0
 33 31  1  0  0  0  0
 34 32  1  0  0  0  0
M  END
>  <MODEL>
9

>  <REMARK>
 VINA RESULT:      -7.5      3.925      9.493
  Name = 
  3 active torsions:
  status: ('A' for Active; 'I' for Inactive)
    1  A    between atoms: C_17  and  O_28
    2  A    between atoms: O_28  and  C_29
    3  A    between atoms: C_29  and  C_32
                            x       y       z     vdW  Elec       q    Type
                         _______ _______ _______ _____ _____    ______ ____

>  <TORSDO>
F 3

$$$$
