=
 OpenBabel11112417203D

 37 44  0  0  1  0  0  0  0  0999 V2000
  191.3300  172.3550  141.9070 C   0  0  0  0  0  2  0  0  0  0  0  0
  195.5200  173.2220  143.7750 C   0  0  0  0  0  0  0  0  0  0  0  0
  192.3560  175.6390  145.0250 C   0  0  0  0  0  0  0  0  0  0  0  0
  191.0940  171.6980  140.5580 C   0  0  0  0  0  0  0  0  0  0  0  0
  189.0120  175.5810  143.0200 C   0  0  0  0  0  2  0  0  0  0  0  0
  194.6960  175.0810  145.2970 C   0  0  0  0  0  0  0  0  0  0  0  0
  191.3680  175.3390  144.0840 C   0  0  0  0  0  0  0  0  0  0  0  0
  188.8200  172.6980  140.1870 C   0  0  0  0  0  0  0  0  0  0  0  0
  193.4950  175.0060  144.6150 C   0  0  0  0  0  0  0  0  0  0  0  0
  189.9770  175.8180  144.1210 N   0  0  0  0  0  0  0  0  0  0  0  0
  194.7410  175.8660  146.4600 C   0  0  0  0  0  3  0  0  0  0  0  0
  189.9440  171.8010  139.8630 C   0  0  0  0  0  3  0  0  0  0  0  0
  193.3090  174.3030  143.4960 N   0  0  0  0  0  0  0  0  0  0  0  0
  195.0930  172.0190  144.5990 C   0  0  0  0  0  1  0  0  0  0  0  0
  191.1310  177.0850  146.7220 C   0  0  0  0  0  2  0  0  0  0  0  0
  193.5740  176.5280  146.9080 C   0  0  0  0  0  3  0  0  0  0  0  0
  194.3850  173.6020  142.7970 C   0  0  0  0  0  2  0  0  0  0  0  0
  189.0520  173.7920  141.0520 N   0  0  0  0  0  0  0  0  0  0  0  0
  189.2590  174.2090  142.4870 C   0  0  1  0  0  3  0  0  0  0  0  0
  192.3640  176.4300  146.1870 C   0  0  0  0  0  0  0  0  0  0  0  0
  192.0210  174.4900  143.1260 C   0  0  0  0  0  0  0  0  0  0  0  0
  195.9010  174.3890  144.7210 C   0  0  0  0  0  2  0  0  0  0  0  0
  189.5020  176.4660  145.3580 C   0  0  1  0  0  3  0  0  0  0  0  0
  196.7410  172.8350  142.9700 C   0  0  0  0  0  1  0  0  0  0  0  0
  190.1660  174.6180  141.5430 C   0  0  1  0  0  3  0  0  0  0  0  0
  187.6920  172.5300  139.6560 O   0  0  0  0  0  0  0  0  0  0  0  0
  191.4570  173.8930  141.8450 C   0  0  2  0  0  3  0  0  0  0  0  0
  190.3250  177.5520  145.6790 O   0  0  0  0  0  0  0  0  0  0  0  0
  187.1360  176.2690  146.1580 C   0  0  0  0  0  3  0  0  0  0  0  0
  188.0620  176.8970  145.3180 C   0  0  0  0  0  0  0  0  0  0  0  0
  187.6310  177.8930  144.4300 C   0  0  0  0  0  3  0  0  0  0  0  0
  185.7500  179.5070  143.2840 Cl  0  0  0  0  0  0  0  0  0  0  0  0
  185.3620  177.6370  145.2370 C   0  0  0  0  0  3  0  0  0  0  0  0
  186.2840  178.2630  144.3920 C   0  0  0  0  0  0  0  0  0  0  0  0
  185.7890  176.6400  146.1200 C   0  0  0  0  0  3  0  0  0  0  0  0
  193.3520  170.9050  140.6590 O   0  0  0  0  0  1  0  0  0  0  0  0
  192.1230  170.7590  140.0100 C   0  0  0  0  0  2  0  0  0  0  0  0
  2 14  1  0  0  0  0
  2 22  1  0  0  0  0
  3 20  1  0  0  0  0
  4  1  1  0  0  0  0
  5 10  1  0  0  0  0
  6 11  2  0  0  0  0
  7 10  1  0  0  0  0
  7  3  1  0  0  0  0
  8 18  1  0  0  0  0
  9  3  2  0  0  0  0
  9  6  1  0  0  0  0
 10 23  1  0  0  0  0
 11 16  1  0  0  0  0
 12  8  1  0  0  0  0
 12  4  2  0  0  0  0
 13  9  1  0  0  0  0
 17 13  1  0  0  0  0
 17  2  1  0  0  0  0
 18 19  1  0  0  0  0
 19  5  1  6  0  0  0
 20 15  1  0  0  0  0
 20 16  2  0  0  0  0
 21 13  1  0  0  0  0
 21  7  2  0  0  0  0
 22  6  1  0  0  0  0
 23 30  1  6  0  0  0
 23 28  1  0  0  0  0
 24  2  1  0  0  0  0
 25 18  1  6  0  0  0
 25 27  1  0  0  0  0
 25 19  1  0  0  0  0
 26  8  2  0  0  0  0
 27  1  1  1  0  0  0
 27 21  1  0  0  0  0
 28 15  1  0  0  0  0
 30 29  2  0  0  0  0
 31 30  1  0  0  0  0
 32 34  1  0  0  0  0
 33 35  2  0  0  0  0
 34 31  2  0  0  0  0
 34 33  1  0  0  0  0
 35 29  1  0  0  0  0
 37  4  1  0  0  0  0
 37 36  1  0  0  0  0
M  END
>  <MODEL>
1

>  <REMARK>
 VINA RESULT:      -8.8      0.000      0.000
  Name = 
  2 active torsions:
  status: ('A' for Active; 'I' for Inactive)
    1  A    between atoms: C_4  and  C_37
    2  A    between atoms: C_23  and  C_30
                            x       y       z     vdW  Elec       q    Type
                         _______ _______ _______ _____ _____    ______ ____

>  <TORSDO>
F 2

$$$$
=
 OpenBabel11112417203D

 37 44  0  0  1  0  0  0  0  0999 V2000
  192.7030  175.7420  144.8180 C   0  0  0  0  0  2  0  0  0  0  0  0
  193.0830  172.9280  141.1120 C   0  0  0  0  0  0  0  0  0  0  0  0
  189.4000  174.8020  141.6930 C   0  0  0  0  0  0  0  0  0  0  0  0
  193.5360  175.6370  146.0830 C   0  0  0  0  0  0  0  0  0  0  0  0
  188.6640  176.5310  145.1100 C   0  0  0  0  0  2  0  0  0  0  0  0
  190.7310  173.3720  140.2630 C   0  0  0  0  0  0  0  0  0  0  0  0
  189.5220  175.2910  142.9970 C   0  0  0  0  0  0  0  0  0  0  0  0
  191.8640  176.7690  147.5780 C   0  0  0  0  0  0  0  0  0  0  0  0
  190.5060  174.0350  141.4560 C   0  0  0  0  0  0  0  0  0  0  0  0
  188.5490  176.1590  143.6790 N   0  0  0  0  0  0  0  0  0  0  0  0
  189.7580  173.4850  139.2570 C   0  0  0  0  0  3  0  0  0  0  0  0
  193.1750  176.1720  147.2670 C   0  0  0  0  0  3  0  0  0  0  0  0
  191.3390  174.0130  142.4970 N   0  0  0  0  0  0  0  0  0  0  0  0
  193.7760  174.1730  140.5860 C   0  0  0  0  0  1  0  0  0  0  0  0
  187.2140  175.8230  140.8850 C   0  0  0  0  0  2  0  0  0  0  0  0
  188.6070  174.2760  139.4760 C   0  0  0  0  0  3  0  0  0  0  0  0
  192.5550  173.2000  142.5390 C   0  0  0  0  0  2  0  0  0  0  0  0
  190.7640  176.4640  146.7420 N   0  0  0  0  0  0  0  0  0  0  0  0
  190.1120  176.7390  145.4100 C   0  0  1  0  0  3  0  0  0  0  0  0
  188.4080  174.9390  140.7070 C   0  0  0  0  0  0  0  0  0  0  0  0
  190.7700  174.7580  143.4720 C   0  0  0  0  0  0  0  0  0  0  0  0
  191.9570  172.5100  140.1340 C   0  0  0  0  0  2  0  0  0  0  0  0
  187.4780  176.7680  142.8680 C   0  0  1  0  0  3  0  0  0  0  0  0
  194.1020  171.8110  141.1810 C   0  0  0  0  0  1  0  0  0  0  0  0
  190.3380  175.4380  145.7780 C   0  0  1  0  0  3  0  0  0  0  0  0
  191.7100  177.4840  148.6010 O   0  0  0  0  0  0  0  0  0  0  0  0
  191.4040  174.9090  144.8460 C   0  0  2  0  0  3  0  0  0  0  0  0
  186.7530  175.7730  142.2040 O   0  0  0  0  0  0  0  0  0  0  0  0
  186.3910  178.9940  143.2410 C   0  0  0  0  0  3  0  0  0  0  0  0
  186.5490  177.6630  143.6410 C   0  0  0  0  0  0  0  0  0  0  0  0
  185.8680  177.1910  144.7730 C   0  0  0  0  0  3  0  0  0  0  0  0
  184.1770  177.4550  146.9010 Cl  0  0  0  0  0  0  0  0  0  0  0  0
  184.8670  179.3740  145.0850 C   0  0  0  0  0  3  0  0  0  0  0  0
  185.0270  178.0460  145.4910 C   0  0  0  0  0  0  0  0  0  0  0  0
  185.5490  179.8480  143.9590 C   0  0  0  0  0  3  0  0  0  0  0  0
  195.6770  175.6300  145.0110 O   0  0  0  0  0  1  0  0  0  0  0  0
  194.9050  175.0370  146.0130 C   0  0  0  0  0  2  0  0  0  0  0  0
  1  4  1  0  0  0  0
  2 24  1  0  0  0  0
  2 17  1  0  0  0  0
  3  7  1  0  0  0  0
  4 12  2  0  0  0  0
  6  9  2  0  0  0  0
  7 21  2  0  0  0  0
  7 10  1  0  0  0  0
  8 26  2  0  0  0  0
  9  3  1  0  0  0  0
  9 13  1  0  0  0  0
 10  5  1  0  0  0  0
 11 16  2  0  0  0  0
 11  6  1  0  0  0  0
 12  8  1  0  0  0  0
 13 17  1  0  0  0  0
 13 21  1  0  0  0  0
 14  2  1  0  0  0  0
 15 28  1  0  0  0  0
 16 20  1  0  0  0  0
 18  8  1  0  0  0  0
 19  5  1  1  0  0  0
 19 25  1  0  0  0  0
 19 18  1  0  0  0  0
 20 15  1  0  0  0  0
 20  3  2  0  0  0  0
 21 27  1  0  0  0  0
 22  6  1  0  0  0  0
 22  2  1  0  0  0  0
 23 30  1  1  0  0  0
 23 10  1  0  0  0  0
 25 18  1  1  0  0  0
 27  1  1  6  0  0  0
 27 25  1  0  0  0  0
 28 23  1  0  0  0  0
 29 30  2  0  0  0  0
 29 35  1  0  0  0  0
 30 31  1  0  0  0  0
 31 34  2  0  0  0  0
 33 34  1  0  0  0  0
 34 32  1  0  0  0  0
 35 33  2  0  0  0  0
 36 37  1  0  0  0  0
 37  4  1  0  0  0  0
M  END
>  <MODEL>
2

>  <REMARK>
 VINA RESULT:      -8.6      2.217      5.503
  Name = 
  2 active torsions:
  status: ('A' for Active; 'I' for Inactive)
    1  A    between atoms: C_4  and  C_37
    2  A    between atoms: C_23  and  C_30
                            x       y       z     vdW  Elec       q    Type
                         _______ _______ _______ _____ _____    ______ ____

>  <TORSDO>
F 2

$$$$
=
 OpenBabel11112417203D

 37 44  0  0  1  0  0  0  0  0999 V2000
  189.8760  174.2140  140.7080 C   0  0  0  0  0  2  0  0  0  0  0  0
  187.0760  176.9600  143.2400 C   0  0  0  0  0  0  0  0  0  0  0  0
  190.4860  175.4790  145.1350 C   0  0  0  0  0  0  0  0  0  0  0  0
  189.4400  173.3860  139.5130 C   0  0  0  0  0  0  0  0  0  0  0  0
  192.4880  172.5840  143.4550 C   0  0  0  0  0  2  0  0  0  0  0  0
  188.5440  176.9130  145.3130 C   0  0  0  0  0  0  0  0  0  0  0  0
  190.9100  174.4880  144.2440 C   0  0  0  0  0  0  0  0  0  0  0  0
  191.2830  171.6890  139.6960 C   0  0  0  0  0  0  0  0  0  0  0  0
  189.2800  175.9290  144.6770 C   0  0  0  0  0  0  0  0  0  0  0  0
  192.1590  173.7190  144.3510 N   0  0  0  0  0  0  0  0  0  0  0  0
  189.0640  177.4580  146.4970 C   0  0  0  0  0  3  0  0  0  0  0  0
  190.1270  172.3270  139.0410 C   0  0  0  0  0  3  0  0  0  0  0  0
  188.9070  175.3220  143.5500 N   0  0  0  0  0  0  0  0  0  0  0  0
  187.8250  178.0030  142.4290 C   0  0  0  0  0  1  0  0  0  0  0  0
  192.3850  175.6020  146.8230 C   0  0  0  0  0  2  0  0  0  0  0  0
  190.3120  177.0120  146.9890 C   0  0  0  0  0  3  0  0  0  0  0  0
  187.6190  175.5550  142.8960 C   0  0  0  0  0  2  0  0  0  0  0  0
  191.5000  171.9310  141.0730 N   0  0  0  0  0  0  0  0  0  0  0  0
  192.0000  172.9290  142.0870 C   0  0  1  0  0  3  0  0  0  0  0  0
  191.0370  176.0050  146.3160 C   0  0  0  0  0  0  0  0  0  0  0  0
  189.8700  174.4190  143.2540 C   0  0  0  0  0  0  0  0  0  0  0  0
  187.2010  177.2910  144.7490 C   0  0  0  0  0  2  0  0  0  0  0  0
  193.1700  174.1740  145.3240 C   0  0  1  0  0  3  0  0  0  0  0  0
  185.6140  177.0200  142.8540 C   0  0  0  0  0  1  0  0  0  0  0  0
  190.7610  172.3700  142.2660 C   0  0  1  0  0  3  0  0  0  0  0  0
  192.0250  170.8970  139.0610 O   0  0  0  0  0  0  0  0  0  0  0  0
  189.7560  173.4800  142.0620 C   0  0  2  0  0  3  0  0  0  0  0  0
  192.6110  174.2390  146.6050 O   0  0  0  0  0  0  0  0  0  0  0  0
  195.6270  173.9170  144.9070 C   0  0  0  0  0  3  0  0  0  0  0  0
  194.4270  173.3480  145.3450 C   0  0  0  0  0  0  0  0  0  0  0  0
  194.4040  172.0100  145.7650 C   0  0  0  0  0  3  0  0  0  0  0  0
  195.5470  169.5850  146.2810 Cl  0  0  0  0  0  0  0  0  0  0  0  0
  196.7770  171.8270  145.3210 C   0  0  0  0  0  3  0  0  0  0  0  0
  195.5780  171.2530  145.7540 C   0  0  0  0  0  0  0  0  0  0  0  0
  196.8010  173.1590  144.8970 C   0  0  0  0  0  3  0  0  0  0  0  0
  188.6350  174.1920  137.4060 O   0  0  0  0  0  1  0  0  0  0  0  0
  188.2620  173.8310  138.7030 C   0  0  0  0  0  2  0  0  0  0  0  0
  2 22  1  0  0  0  0
  3 20  1  0  0  0  0
  4  1  1  0  0  0  0
  5 10  1  0  0  0  0
  6 11  2  0  0  0  0
  7 10  1  0  0  0  0
  7  3  1  0  0  0  0
  8 18  1  0  0  0  0
  9  3  2  0  0  0  0
  9  6  1  0  0  0  0
 10 23  1  0  0  0  0
 11 16  1  0  0  0  0
 12  4  2  0  0  0  0
 12  8  1  0  0  0  0
 13  9  1  0  0  0  0
 14  2  1  0  0  0  0
 17  2  1  0  0  0  0
 17 13  1  0  0  0  0
 18 19  1  0  0  0  0
 19 25  1  0  0  0  0
 19  5  1  1  0  0  0
 20 15  1  0  0  0  0
 20 16  2  0  0  0  0
 21 13  1  0  0  0  0
 21  7  2  0  0  0  0
 22  6  1  0  0  0  0
 23 30  1  1  0  0  0
 23 28  1  0  0  0  0
 24  2  1  0  0  0  0
 25 18  1  6  0  0  0
 26  8  2  0  0  0  0
 27  1  1  6  0  0  0
 27 25  1  0  0  0  0
 27 21  1  0  0  0  0
 28 15  1  0  0  0  0
 29 30  1  0  0  0  0
 30 31  2  0  0  0  0
 33 34  2  0  0  0  0
 34 31  1  0  0  0  0
 34 32  1  0  0  0  0
 35 29  2  0  0  0  0
 35 33  1  0  0  0  0
 36 37  1  0  0  0  0
 37  4  1  0  0  0  0
M  END
>  <MODEL>
3

>  <REMARK>
 VINA RESULT:      -8.4      2.866      6.691
  Name = 
  2 active torsions:
  status: ('A' for Active; 'I' for Inactive)
    1  A    between atoms: C_4  and  C_37
    2  A    between atoms: C_23  and  C_30
                            x       y       z     vdW  Elec       q    Type
                         _______ _______ _______ _____ _____    ______ ____

>  <TORSDO>
F 2

$$$$
=
 OpenBabel11112417203D

 37 44  0  0  1  0  0  0  0  0999 V2000
  191.3790  171.8890  141.5850 C   0  0  0  0  0  2  0  0  0  0  0  0
  195.5190  172.4430  143.6700 C   0  0  0  0  0  0  0  0  0  0  0  0
  192.5460  175.2210  144.6020 C   0  0  0  0  0  0  0  0  0  0  0  0
  191.1570  171.1860  140.2570 C   0  0  0  0  0  0  0  0  0  0  0  0
  189.3350  175.3800  142.3950 C   0  0  0  0  0  2  0  0  0  0  0  0
  194.7990  174.4530  145.0470 C   0  0  0  0  0  0  0  0  0  0  0  0
  191.5890  174.9680  143.6160 C   0  0  0  0  0  0  0  0  0  0  0  0
  189.0190  172.3810  139.6960 C   0  0  0  0  0  0  0  0  0  0  0  0
  193.6380  174.4580  144.2950 C   0  0  0  0  0  0  0  0  0  0  0  0
  190.2540  175.5810  143.5420 N   0  0  0  0  0  0  0  0  0  0  0  0
  194.8550  175.2910  146.1710 C   0  0  0  0  0  3  0  0  0  0  0  0
  190.0650  171.3630  139.4870 C   0  0  0  0  0  3  0  0  0  0  0  0
  193.4480  173.7180  143.2010 N   0  0  0  0  0  0  0  0  0  0  0  0
  194.9260  171.3340  144.5220 C   0  0  0  0  0  1  0  0  0  0  0  0
  191.3770  176.8680  146.1470 C   0  0  0  0  0  2  0  0  0  0  0  0
  193.7370  176.0860  146.5130 C   0  0  0  0  0  3  0  0  0  0  0  0
  194.4870  172.8780  142.6050 C   0  0  0  0  0  2  0  0  0  0  0  0
  189.3100  173.4920  140.5210 N   0  0  0  0  0  0  0  0  0  0  0  0
  189.4740  173.9630  141.9440 C   0  0  1  0  0  3  0  0  0  0  0  0
  192.5670  176.0680  145.7230 C   0  0  0  0  0  0  0  0  0  0  0  0
  192.2090  174.0080  142.7420 C   0  0  0  0  0  0  0  0  0  0  0  0
  195.9600  173.6170  144.5810 C   0  0  0  0  0  2  0  0  0  0  0  0
  189.7760  176.3380  144.7140 C   0  0  1  0  0  3  0  0  0  0  0  0
  196.7400  171.8970  142.9630 C   0  0  0  0  0  1  0  0  0  0  0  0
  190.4700  174.2310  141.0410 C   0  0  1  0  0  3  0  0  0  0  0  0
  187.9130  172.2960  139.1050 O   0  0  0  0  0  0  0  0  0  0  0  0
  191.6620  173.4020  141.4580 C   0  0  2  0  0  3  0  0  0  0  0  0
  190.6830  177.3540  145.0340 O   0  0  0  0  0  0  0  0  0  0  0  0
  188.1140  177.7640  143.4950 C   0  0  0  0  0  3  0  0  0  0  0  0
  188.3900  176.9040  144.5630 C   0  0  0  0  0  0  0  0  0  0  0  0
  187.3850  176.6080  145.4950 C   0  0  0  0  0  3  0  0  0  0  0  0
  184.8570  176.7900  146.5120 Cl  0  0  0  0  0  0  0  0  0  0  0  0
  185.8370  178.0170  144.2770 C   0  0  0  0  0  3  0  0  0  0  0  0
  186.1100  177.1630  145.3500 C   0  0  0  0  0  0  0  0  0  0  0  0
  186.8390  178.3170  143.3500 C   0  0  0  0  0  3  0  0  0  0  0  0
  191.4680  168.9070  139.5930 O   0  0  0  0  0  1  0  0  0  0  0  0
  192.1160  170.1230  139.8210 C   0  0  0  0  0  2  0  0  0  0  0  0
  2 14  1  0  0  0  0
  2 22  1  0  0  0  0
  3 20  1  0  0  0  0
  4  1  1  0  0  0  0
  5 10  1  0  0  0  0
  6 11  2  0  0  0  0
  7  3  1  0  0  0  0
  8 18  1  0  0  0  0
  9  3  2  0  0  0  0
  9  6  1  0  0  0  0
 10  7  1  0  0  0  0
 10 23  1  0  0  0  0
 11 16  1  0  0  0  0
 12  8  1  0  0  0  0
 12  4  2  0  0  0  0
 13  9  1  0  0  0  0
 17 13  1  0  0  0  0
 17  2  1  0  0  0  0
 18 19  1  0  0  0  0
 19  5  1  6  0  0  0
 20 15  1  0  0  0  0
 20 16  2  0  0  0  0
 21 13  1  0  0  0  0
 21  7  2  0  0  0  0
 22  6  1  0  0  0  0
 23 30  1  6  0  0  0
 23 28  1  0  0  0  0
 24  2  1  0  0  0  0
 25 18  1  6  0  0  0
 25 27  1  0  0  0  0
 25 19  1  0  0  0  0
 26  8  2  0  0  0  0
 27  1  1  1  0  0  0
 27 21  1  0  0  0  0
 28 15  1  0  0  0  0
 29 30  1  0  0  0  0
 30 31  2  0  0  0  0
 33 34  2  0  0  0  0
 34 31  1  0  0  0  0
 34 32  1  0  0  0  0
 35 29  2  0  0  0  0
 35 33  1  0  0  0  0
 36 37  1  0  0  0  0
 37  4  1  0  0  0  0
M  END
>  <MODEL>
4

>  <REMARK>
 VINA RESULT:      -8.2      1.110      1.372
  Name = 
  2 active torsions:
  status: ('A' for Active; 'I' for Inactive)
    1  A    between atoms: C_4  and  C_37
    2  A    between atoms: C_23  and  C_30
                            x       y       z     vdW  Elec       q    Type
                         _______ _______ _______ _____ _____    ______ ____

>  <TORSDO>
F 2

$$$$
=
 OpenBabel11112417203D

 37 44  0  0  1  0  0  0  0  0999 V2000
  193.6590  173.9610  144.5960 C   0  0  0  0  0  2  0  0  0  0  0  0
  191.0550  176.6540  147.3820 C   0  0  0  0  0  0  0  0  0  0  0  0
  189.4190  175.6210  143.6840 C   0  0  0  0  0  0  0  0  0  0  0  0
  195.1740  173.8730  144.6340 C   0  0  0  0  0  0  0  0  0  0  0  0
  191.7270  174.0670  140.9520 C   0  0  0  0  0  2  0  0  0  0  0  0
  189.0670  176.7380  145.8030 C   0  0  0  0  0  0  0  0  0  0  0  0
  190.5280  175.1070  143.0060 C   0  0  0  0  0  0  0  0  0  0  0  0
  195.4410  173.1200  142.2520 C   0  0  0  0  0  0  0  0  0  0  0  0
  189.8820  176.1310  144.8650 C   0  0  0  0  0  0  0  0  0  0  0  0
  190.4990  174.4660  141.6820 N   0  0  0  0  0  0  0  0  0  0  0  0
  187.6980  176.8470  145.5110 C   0  0  0  0  0  3  0  0  0  0  0  0
  195.9260  173.4200  143.6110 C   0  0  0  0  0  3  0  0  0  0  0  0
  191.1970  175.9630  145.0080 N   0  0  0  0  0  0  0  0  0  0  0  0
  190.8150  175.2920  148.0110 C   0  0  0  0  0  1  0  0  0  0  0  0
  187.4820  175.1060  142.1180 C   0  0  0  0  0  2  0  0  0  0  0  0
  187.1940  176.3240  144.2980 C   0  0  0  0  0  3  0  0  0  0  0  0
  191.9590  176.4920  146.1390 C   0  0  0  0  0  2  0  0  0  0  0  0
  194.2020  173.6640  141.8390 N   0  0  0  0  0  0  0  0  0  0  0  0
  192.7030  173.5460  141.9550 C   0  0  1  0  0  3  0  0  0  0  0  0
  188.0540  175.7100  143.3610 C   0  0  0  0  0  0  0  0  0  0  0  0
  191.6390  175.3520  143.8850 C   0  0  0  0  0  0  0  0  0  0  0  0
  189.6950  177.3140  147.0430 C   0  0  0  0  0  2  0  0  0  0  0  0
  189.1850  174.1110  141.1150 C   0  0  1  0  0  3  0  0  0  0  0  0
  191.7740  177.5220  148.3920 C   0  0  0  0  0  1  0  0  0  0  0  0
  193.2890  174.7650  142.1820 C   0  0  1  0  0  3  0  0  0  0  0  0
  196.1420  172.4480  141.4530 O   0  0  0  0  0  0  0  0  0  0  0  0
  193.1140  175.0570  143.6540 C   0  0  2  0  0  3  0  0  0  0  0  0
  188.3680  175.2440  141.0450 O   0  0  0  0  0  0  0  0  0  0  0  0
  188.9530  174.1650  138.6200 C   0  0  0  0  0  3  0  0  0  0  0  0
  189.2520  173.4330  139.7740 C   0  0  0  0  0  0  0  0  0  0  0  0
  189.5770  172.0720  139.6690 C   0  0  0  0  0  3  0  0  0  0  0  0
  190.0180  169.7590  138.2870 Cl  0  0  0  0  0  0  0  0  0  0  0  0
  189.3170  172.1920  137.2640 C   0  0  0  0  0  3  0  0  0  0  0  0
  189.6100  171.4550  138.4150 C   0  0  0  0  0  0  0  0  0  0  0  0
  188.9890  173.5480  137.3670 C   0  0  0  0  0  3  0  0  0  0  0  0
  196.9170  173.2390  146.1500 O   0  0  0  0  0  1  0  0  0  0  0  0
  195.8940  174.1620  145.9140 C   0  0  0  0  0  2  0  0  0  0  0  0
  1  4  1  0  0  0  0
  2 14  1  0  0  0  0
  2 24  1  0  0  0  0
  3  9  1  0  0  0  0
  4 37  1  0  0  0  0
  5 10  1  0  0  0  0
  6 22  1  0  0  0  0
  7  3  1  0  0  0  0
  7 21  2  0  0  0  0
  8 12  1  0  0  0  0
  9 13  1  0  0  0  0
  9  6  2  0  0  0  0
 10  7  1  0  0  0  0
 11  6  1  0  0  0  0
 12  4  2  0  0  0  0
 13 17  1  0  0  0  0
 15 20  1  0  0  0  0
 16 11  2  0  0  0  0
 17  2  1  0  0  0  0
 18 19  1  0  0  0  0
 18  8  1  0  0  0  0
 19  5  1  6  0  0  0
 19 25  1  0  0  0  0
 20  3  2  0  0  0  0
 20 16  1  0  0  0  0
 21 13  1  0  0  0  0
 22  2  1  0  0  0  0
 23 30  1  6  0  0  0
 23 10  1  0  0  0  0
 25 18  1  1  0  0  0
 25 27  1  0  0  0  0
 26  8  2  0  0  0  0
 27 21  1  0  0  0  0
 27  1  1  1  0  0  0
 28 23  1  0  0  0  0
 28 15  1  0  0  0  0
 29 30  1  0  0  0  0
 31 30  2  0  0  0  0
 32 34  1  0  0  0  0
 33 35  1  0  0  0  0
 33 34  2  0  0  0  0
 34 31  1  0  0  0  0
 35 29  2  0  0  0  0
 37 36  1  0  0  0  0
M  END
>  <MODEL>
5

>  <REMARK>
 VINA RESULT:      -8.1      2.726      6.479
  Name = 
  2 active torsions:
  status: ('A' for Active; 'I' for Inactive)
    1  A    between atoms: C_4  and  C_37
    2  A    between atoms: C_23  and  C_30
                            x       y       z     vdW  Elec       q    Type
                         _______ _______ _______ _____ _____    ______ ____

>  <TORSDO>
F 2

$$$$
=
 OpenBabel11112417203D

 37 44  0  0  1  0  0  0  0  0999 V2000
  187.8160  176.1130  140.3740 C   0  0  0  0  0  2  0  0  0  0  0  0
  185.2580  178.2350  143.6530 C   0  0  0  0  0  0  0  0  0  0  0  0
  188.5670  176.0510  144.9570 C   0  0  0  0  0  0  0  0  0  0  0  0
  187.3060  175.6820  139.0110 C   0  0  0  0  0  0  0  0  0  0  0  0
  190.3260  173.6060  142.4810 C   0  0  0  0  0  2  0  0  0  0  0  0
  186.7400  177.5110  145.5840 C   0  0  0  0  0  0  0  0  0  0  0  0
  188.9040  175.3210  143.8140 C   0  0  0  0  0  0  0  0  0  0  0  0
  189.0170  173.8770  138.6610 C   0  0  0  0  0  0  0  0  0  0  0  0
  187.3930  176.6940  144.6790 C   0  0  0  0  0  0  0  0  0  0  0  0
  190.0940  174.4670  143.6650 N   0  0  0  0  0  0  0  0  0  0  0  0
  187.3110  177.6680  146.8570 C   0  0  0  0  0  3  0  0  0  0  0  0
  187.9060  174.7510  138.2430 C   0  0  0  0  0  3  0  0  0  0  0  0
  186.9630  176.4510  143.4400 N   0  0  0  0  0  0  0  0  0  0  0  0
  186.0750  179.4070  143.1380 C   0  0  0  0  0  1  0  0  0  0  0  0
  190.4870  175.5680  146.5530 C   0  0  0  0  0  2  0  0  0  0  0  0
  188.5280  177.0170  147.1670 C   0  0  0  0  0  3  0  0  0  0  0  0
  185.6900  176.9460  142.9170 C   0  0  0  0  0  2  0  0  0  0  0  0
  189.2670  173.7110  140.0430 N   0  0  0  0  0  0  0  0  0  0  0  0
  189.8510  174.3510  141.2770 C   0  0  1  0  0  3  0  0  0  0  0  0
  189.1680  176.1890  146.2200 C   0  0  0  0  0  0  0  0  0  0  0  0
  187.8520  175.6020  142.8760 C   0  0  0  0  0  0  0  0  0  0  0  0
  185.4230  178.1230  145.1890 C   0  0  0  0  0  2  0  0  0  0  0  0
  191.1460  174.5620  144.6950 C   0  0  1  0  0  3  0  0  0  0  0  0
  183.8000  178.5000  143.3430 C   0  0  0  0  0  1  0  0  0  0  0  0
  188.5750  173.8520  141.3330 C   0  0  1  0  0  3  0  0  0  0  0  0
  189.6910  173.2430  137.8080 O   0  0  0  0  0  0  0  0  0  0  0  0
  187.6550  175.0420  141.4750 C   0  0  2  0  0  3  0  0  0  0  0  0
  190.6060  174.3070  145.9600 O   0  0  0  0  0  0  0  0  0  0  0  0
  193.5290  174.2480  143.9880 C   0  0  0  0  0  3  0  0  0  0  0  0
  192.3370  173.6780  144.4470 C   0  0  0  0  0  0  0  0  0  0  0  0
  192.2570  172.2910  144.6380 C   0  0  0  0  0  3  0  0  0  0  0  0
  193.2670  169.7540  144.6200 Cl  0  0  0  0  0  0  0  0  0  0  0  0
  194.5600  172.0570  143.9270 C   0  0  0  0  0  3  0  0  0  0  0  0
  193.3690  171.4830  144.3790 C   0  0  0  0  0  0  0  0  0  0  0  0
  194.6400  173.4400  143.7310 C   0  0  0  0  0  3  0  0  0  0  0  0
  185.9630  176.0410  137.0600 O   0  0  0  0  0  1  0  0  0  0  0  0
  186.1560  176.4160  138.3930 C   0  0  0  0  0  2  0  0  0  0  0  0
  2 22  1  0  0  0  0
  3 20  1  0  0  0  0
  4  1  1  0  0  0  0
  5 10  1  0  0  0  0
  6 11  2  0  0  0  0
  7  3  1  0  0  0  0
  8 18  1  0  0  0  0
  9  3  2  0  0  0  0
  9  6  1  0  0  0  0
 10  7  1  0  0  0  0
 10 23  1  0  0  0  0
 11 16  1  0  0  0  0
 12  8  1  0  0  0  0
 12  4  2  0  0  0  0
 13  9  1  0  0  0  0
 14  2  1  0  0  0  0
 17 13  1  0  0  0  0
 17  2  1  0  0  0  0
 18 19  1  0  0  0  0
 19 25  1  0  0  0  0
 19  5  1  1  0  0  0
 20 15  1  0  0  0  0
 20 16  2  0  0  0  0
 21 13  1  0  0  0  0
 21  7  2  0  0  0  0
 22  6  1  0  0  0  0
 23 30  1  6  0  0  0
 23 28  1  0  0  0  0
 24  2  1  0  0  0  0
 25 18  1  6  0  0  0
 25 27  1  0  0  0  0
 26  8  2  0  0  0  0
 27  1  1  6  0  0  0
 27 21  1  0  0  0  0
 28 15  1  0  0  0  0
 29 30  1  0  0  0  0
 30 31  2  0  0  0  0
 33 34  2  0  0  0  0
 34 32  1  0  0  0  0
 34 31  1  0  0  0  0
 35 33  1  0  0  0  0
 35 29  2  0  0  0  0
 36 37  1  0  0  0  0
 37  4  1  0  0  0  0
M  END
>  <MODEL>
6

>  <REMARK>
 VINA RESULT:      -8.1      2.946      7.096
  Name = 
  2 active torsions:
  status: ('A' for Active; 'I' for Inactive)
    1  A    between atoms: C_4  and  C_37
    2  A    between atoms: C_23  and  C_30
                            x       y       z     vdW  Elec       q    Type
                         _______ _______ _______ _____ _____    ______ ____

>  <TORSDO>
F 2

$$$$
=
 OpenBabel11112417203D

 37 44  0  0  1  0  0  0  0  0999 V2000
  194.0890  175.8990  143.1340 C   0  0  0  0  0  2  0  0  0  0  0  0
  193.6120  173.1040  139.4250 C   0  0  0  0  0  0  0  0  0  0  0  0
  190.1060  174.3760  141.2960 C   0  0  0  0  0  0  0  0  0  0  0  0
  195.3100  175.9550  144.0340 C   0  0  0  0  0  0  0  0  0  0  0  0
  190.3250  176.0360  144.8180 C   0  0  0  0  0  2  0  0  0  0  0  0
  191.0730  173.1480  139.4470 C   0  0  0  0  0  0  0  0  0  0  0  0
  190.5890  174.9050  142.4960 C   0  0  0  0  0  0  0  0  0  0  0  0
  194.0960  176.8350  146.0500 C   0  0  0  0  0  0  0  0  0  0  0  0
  191.1690  173.7910  140.6680 C   0  0  0  0  0  0  0  0  0  0  0  0
  189.7860  175.6210  143.5000 N   0  0  0  0  0  0  0  0  0  0  0  0
  189.8100  173.0820  138.8390 C   0  0  0  0  0  3  0  0  0  0  0  0
  195.2980  176.4500  145.2880 C   0  0  0  0  0  3  0  0  0  0  0  0
  192.3020  173.9250  141.3600 N   0  0  0  0  0  0  0  0  0  0  0  0
  193.8780  174.4330  138.7380 C   0  0  0  0  0  1  0  0  0  0  0  0
  187.6440  175.0160  141.3210 C   0  0  0  0  0  2  0  0  0  0  0  0
  188.6940  173.6830  139.4670 C   0  0  0  0  0  3  0  0  0  0  0  0
  193.5700  173.3180  140.9550 C   0  0  0  0  0  2  0  0  0  0  0  0
  192.8400  176.3400  145.6300 N   0  0  0  0  0  0  0  0  0  0  0  0
  191.7360  176.4800  144.6120 C   0  0  1  0  0  3  0  0  0  0  0  0
  188.8270  174.3320  140.7140 C   0  0  0  0  0  0  0  0  0  0  0  0
  191.9920  174.5900  142.4960 C   0  0  0  0  0  0  0  0  0  0  0  0
  192.3000  172.4900  138.8760 C   0  0  0  0  0  2  0  0  0  0  0  0
  188.4200  176.0330  143.1260 C   0  0  1  0  0  3  0  0  0  0  0  0
  194.7550  172.1660  139.1010 C   0  0  0  0  0  1  0  0  0  0  0  0
  192.2760  175.2400  144.8340 C   0  0  1  0  0  3  0  0  0  0  0  0
  194.1920  177.5380  147.0880 O   0  0  0  0  0  0  0  0  0  0  0  0
  193.0270  174.8680  143.5760 C   0  0  2  0  0  3  0  0  0  0  0  0
  187.6770  174.9210  142.7150 O   0  0  0  0  0  0  0  0  0  0  0  0
  187.6290  176.2520  145.4940 C   0  0  0  0  0  3  0  0  0  0  0  0
  187.6840  176.7840  144.2020 C   0  0  0  0  0  0  0  0  0  0  0  0
  187.0260  177.9900  143.9180 C   0  0  0  0  0  3  0  0  0  0  0  0
  185.5100  180.1660  144.5690 Cl  0  0  0  0  0  0  0  0  0  0  0  0
  186.2800  178.1290  146.2170 C   0  0  0  0  0  3  0  0  0  0  0  0
  186.3280  178.6610  144.9250 C   0  0  0  0  0  0  0  0  0  0  0  0
  186.9310  176.9240  146.5010 C   0  0  0  0  0  3  0  0  0  0  0  0
  197.4000  176.7080  143.1380 O   0  0  0  0  0  1  0  0  0  0  0  0
  196.6490  175.5800  143.4790 C   0  0  0  0  0  2  0  0  0  0  0  0
  1  4  1  0  0  0  0
  2 17  1  0  0  0  0
  3  7  1  0  0  0  0
  4 12  2  0  0  0  0
  6  9  1  0  0  0  0
  7 21  2  0  0  0  0
  7 10  1  0  0  0  0
  8 26  2  0  0  0  0
  9  3  2  0  0  0  0
  9 13  1  0  0  0  0
 10  5  1  0  0  0  0
 11  6  2  0  0  0  0
 11 16  1  0  0  0  0
 12  8  1  0  0  0  0
 13 21  1  0  0  0  0
 14  2  1  0  0  0  0
 15 28  1  0  0  0  0
 16 20  2  0  0  0  0
 17 13  1  0  0  0  0
 18  8  1  0  0  0  0
 19  5  1  1  0  0  0
 19 25  1  0  0  0  0
 19 18  1  0  0  0  0
 20  3  1  0  0  0  0
 20 15  1  0  0  0  0
 21 27  1  0  0  0  0
 22  2  1  0  0  0  0
 22  6  1  0  0  0  0
 23 10  1  0  0  0  0
 23 30  1  1  0  0  0
 24  2  1  0  0  0  0
 25 18  1  1  0  0  0
 27  1  1  6  0  0  0
 27 25  1  0  0  0  0
 28 23  1  0  0  0  0
 29 35  1  0  0  0  0
 30 29  2  0  0  0  0
 31 30  1  0  0  0  0
 31 34  2  0  0  0  0
 32 34  1  0  0  0  0
 33 35  2  0  0  0  0
 34 33  1  0  0  0  0
 36 37  1  0  0  0  0
 37  4  1  0  0  0  0
M  END
>  <MODEL>
7

>  <REMARK>
 VINA RESULT:      -8.1      2.255      5.449
  Name = 
  2 active torsions:
  status: ('A' for Active; 'I' for Inactive)
    1  A    between atoms: C_4  and  C_37
    2  A    between atoms: C_23  and  C_30
                            x       y       z     vdW  Elec       q    Type
                         _______ _______ _______ _____ _____    ______ ____

>  <TORSDO>
F 2

$$$$
=
 OpenBabel11112417203D

 37 44  0  0  1  0  0  0  0  0999 V2000
  189.0880  174.6900  142.9560 C   0  0  0  0  0  2  0  0  0  0  0  0
  190.4650  176.3710  147.0880 C   0  0  0  0  0  0  0  0  0  0  0  0
  186.9690  177.9720  145.4670 C   0  0  0  0  0  0  0  0  0  0  0  0
  190.0030  174.0590  141.9210 C   0  0  0  0  0  0  0  0  0  0  0  0
  186.1140  177.2710  141.7270 C   0  0  0  0  0  2  0  0  0  0  0  0
  188.4790  177.9310  147.3590 C   0  0  0  0  0  0  0  0  0  0  0  0
  187.0160  177.5050  144.1500 C   0  0  0  0  0  0  0  0  0  0  0  0
  188.5250  174.5490  139.9500 C   0  0  0  0  0  0  0  0  0  0  0  0
  188.1550  177.6240  146.0490 C   0  0  0  0  0  0  0  0  0  0  0  0
  185.9510  177.6630  143.1480 N   0  0  0  0  0  0  0  0  0  0  0  0
  187.5410  178.6520  148.1140 C   0  0  0  0  0  3  0  0  0  0  0  0
  189.6900  173.9390  140.6160 C   0  0  0  0  0  3  0  0  0  0  0  0
  188.9510  176.9500  145.2170 N   0  0  0  0  0  0  0  0  0  0  0  0
  189.8180  175.0670  147.5220 C   0  0  0  0  0  1  0  0  0  0  0  0
  184.6630  179.0330  145.6320 C   0  0  0  0  0  2  0  0  0  0  0  0
  186.3040  179.0190  147.5360 C   0  0  0  0  0  3  0  0  0  0  0  0
  190.3110  176.5360  145.5600 C   0  0  0  0  0  2  0  0  0  0  0  0
  187.8670  175.6270  140.5870 N   0  0  0  0  0  0  0  0  0  0  0  0
  186.9170  176.0130  141.6930 C   0  0  1  0  0  3  0  0  0  0  0  0
  186.0060  178.6900  146.1950 C   0  0  0  0  0  0  0  0  0  0  0  0
  188.2980  176.8650  144.0340 C   0  0  0  0  0  0  0  0  0  0  0  0
  189.8390  177.5480  147.8770 C   0  0  0  0  0  2  0  0  0  0  0  0
  184.6310  178.1340  143.6100 C   0  0  1  0  0  3  0  0  0  0  0  0
  191.9410  176.3000  147.4190 C   0  0  0  0  0  1  0  0  0  0  0  0
  188.1260  176.6540  141.6070 C   0  0  1  0  0  3  0  0  0  0  0  0
  188.1610  174.1620  138.8100 O   0  0  0  0  0  0  0  0  0  0  0  0
  188.9290  176.2190  142.8100 C   0  0  2  0  0  3  0  0  0  0  0  0
  184.7620  179.3570  144.2760 O   0  0  0  0  0  0  0  0  0  0  0  0
  183.9670  177.9960  141.1980 C   0  0  0  0  0  3  0  0  0  0  0  0
  183.5950  178.2380  142.5250 C   0  0  0  0  0  0  0  0  0  0  0  0
  182.2750  178.6050  142.8210 C   0  0  0  0  0  3  0  0  0  0  0  0
  179.6850  179.1760  142.1680 Cl  0  0  0  0  0  0  0  0  0  0  0  0
  181.7060  178.4710  140.4710 C   0  0  0  0  0  3  0  0  0  0  0  0
  181.3320  178.7200  141.7950 C   0  0  0  0  0  0  0  0  0  0  0  0
  183.0240  178.1090  140.1730 C   0  0  0  0  0  3  0  0  0  0  0  0
  191.6000  173.7490  143.6780 O   0  0  0  0  0  1  0  0  0  0  0  0
  191.2690  173.3960  142.3670 C   0  0  0  0  0  2  0  0  0  0  0  0
  2 24  1  0  0  0  0
  2 14  1  0  0  0  0
  2 22  1  0  0  0  0
  3  9  2  0  0  0  0
  3 20  1  0  0  0  0
  4 37  1  0  0  0  0
  4  1  1  0  0  0  0
  5 10  1  0  0  0  0
  6 22  1  0  0  0  0
  6 11  2  0  0  0  0
  7  3  1  0  0  0  0
  8 18  1  0  0  0  0
  8 12  1  0  0  0  0
  9  6  1  0  0  0  0
 10 23  1  0  0  0  0
 10  7  1  0  0  0  0
 12  4  2  0  0  0  0
 13 17  1  0  0  0  0
 13  9  1  0  0  0  0
 15 20  1  0  0  0  0
 16 11  1  0  0  0  0
 17  2  1  0  0  0  0
 18 19  1  0  0  0  0
 19  5  1  6  0  0  0
 20 16  2  0  0  0  0
 21  7  2  0  0  0  0
 21 13  1  0  0  0  0
 23 30  1  6  0  0  0
 23 28  1  0  0  0  0
 25 18  1  6  0  0  0
 25 19  1  0  0  0  0
 25 27  1  0  0  0  0
 26  8  2  0  0  0  0
 27  1  1  1  0  0  0
 27 21  1  0  0  0  0
 28 15  1  0  0  0  0
 29 30  1  0  0  0  0
 30 31  2  0  0  0  0
 33 34  2  0  0  0  0
 34 32  1  0  0  0  0
 34 31  1  0  0  0  0
 35 33  1  0  0  0  0
 35 29  2  0  0  0  0
 37 36  1  0  0  0  0
M  END
>  <MODEL>
8

>  <REMARK>
 VINA RESULT:      -8.1      3.026      5.447
  Name = 
  2 active torsions:
  status: ('A' for Active; 'I' for Inactive)
    1  A    between atoms: C_4  and  C_37
    2  A    between atoms: C_23  and  C_30
                            x       y       z     vdW  Elec       q    Type
                         _______ _______ _______ _____ _____    ______ ____

>  <TORSDO>
F 2

$$$$
=
 OpenBabel11112417203D

 37 44  0  0  1  0  0  0  0  0999 V2000
  189.6390  175.4430  145.8380 C   0  0  0  0  0  2  0  0  0  0  0  0
  186.5900  178.5400  147.5440 C   0  0  0  0  0  0  0  0  0  0  0  0
  186.3940  177.7530  143.4500 C   0  0  0  0  0  0  0  0  0  0  0  0
  190.9870  175.1140  146.4540 C   0  0  0  0  0  0  0  0  0  0  0  0
  189.3240  175.8280  141.7420 C   0  0  0  0  0  2  0  0  0  0  0  0
  185.4140  178.9280  145.3260 C   0  0  0  0  0  0  0  0  0  0  0  0
  187.5890  177.0630  143.2270 C   0  0  0  0  0  0  0  0  0  0  0  0
  192.0470  174.3100  144.3230 C   0  0  0  0  0  0  0  0  0  0  0  0
  186.4300  178.1910  144.7440 C   0  0  0  0  0  0  0  0  0  0  0  0
  187.9840  176.4240  141.9620 N   0  0  0  0  0  0  0  0  0  0  0  0
  184.3020  179.2530  144.5340 C   0  0  0  0  0  3  0  0  0  0  0  0
  192.0020  174.5380  145.7790 C   0  0  0  0  0  3  0  0  0  0  0  0
  187.5430  177.8170  145.3760 N   0  0  0  0  0  0  0  0  0  0  0  0
  185.9220  177.2390  147.9550 C   0  0  0  0  0  1  0  0  0  0  0  0
  185.1700  177.5420  141.2310 C   0  0  0  0  0  2  0  0  0  0  0  0
  184.2400  178.8070  143.1930 C   0  0  0  0  0  3  0  0  0  0  0  0
  187.8730  178.2260  146.7410 C   0  0  0  0  0  2  0  0  0  0  0  0
  191.1650  175.0410  143.4940 N   0  0  0  0  0  0  0  0  0  0  0  0
  189.7400  175.1660  143.0140 C   0  0  1  0  0  3  0  0  0  0  0  0
  185.2940  178.0570  142.6290 C   0  0  0  0  0  0  0  0  0  0  0  0
  188.2920  177.1340  144.4790 C   0  0  0  0  0  0  0  0  0  0  0  0
  185.5870  179.4070  146.7430 C   0  0  0  0  0  2  0  0  0  0  0  0
  186.9590  176.2790  140.9110 C   0  0  1  0  0  3  0  0  0  0  0  0
  186.9800  179.2890  148.8000 C   0  0  0  0  0  1  0  0  0  0  0  0
  190.3670  176.2770  143.5180 C   0  0  1  0  0  3  0  0  0  0  0  0
  192.8950  173.5280  143.8220 O   0  0  0  0  0  0  0  0  0  0  0  0
  189.6760  176.6050  144.8210 C   0  0  2  0  0  3  0  0  0  0  0  0
  186.4140  177.5290  140.5940 O   0  0  0  0  0  0  0  0  0  0  0  0
  187.1030  176.1170  138.4150 C   0  0  0  0  0  3  0  0  0  0  0  0
  187.4420  175.5890  139.6650 C   0  0  0  0  0  0  0  0  0  0  0  0
  188.1970  174.4090  139.7410 C   0  0  0  0  0  3  0  0  0  0  0  0
  189.5590  172.3000  138.6680 Cl  0  0  0  0  0  0  0  0  0  0  0  0
  188.2800  174.3040  137.3230 C   0  0  0  0  0  3  0  0  0  0  0  0
  188.6160  173.7700  138.5710 C   0  0  0  0  0  0  0  0  0  0  0  0
  187.5230  175.4770  137.2450 C   0  0  0  0  0  3  0  0  0  0  0  0
  191.5070  176.6160  148.2450 O   0  0  0  0  0  1  0  0  0  0  0  0
  191.1840  175.2940  147.9270 C   0  0  0  0  0  2  0  0  0  0  0  0
  1  4  1  0  0  0  0
  2 14  1  0  0  0  0
  2 24  1  0  0  0  0
  3  9  1  0  0  0  0
  4 37  1  0  0  0  0
  5 10  1  0  0  0  0
  6 22  1  0  0  0  0
  7  3  1  0  0  0  0
  7 21  2  0  0  0  0
  8 12  1  0  0  0  0
  9  6  2  0  0  0  0
  9 13  1  0  0  0  0
 10  7  1  0  0  0  0
 11  6  1  0  0  0  0
 12  4  2  0  0  0  0
 13 17  1  0  0  0  0
 15 20  1  0  0  0  0
 16 11  2  0  0  0  0
 17  2  1  0  0  0  0
 18  8  1  0  0  0  0
 19  5  1  6  0  0  0
 19 18  1  0  0  0  0
 19 25  1  0  0  0  0
 20 16  1  0  0  0  0
 20  3  2  0  0  0  0
 21 27  1  0  0  0  0
 21 13  1  0  0  0  0
 22  2  1  0  0  0  0
 23 30  1  6  0  0  0
 23 10  1  0  0  0  0
 25 18  1  1  0  0  0
 25 27  1  0  0  0  0
 26  8  2  0  0  0  0
 27  1  1  1  0  0  0
 28 23  1  0  0  0  0
 28 15  1  0  0  0  0
 29 30  1  0  0  0  0
 30 31  2  0  0  0  0
 33 34  2  0  0  0  0
 34 32  1  0  0  0  0
 34 31  1  0  0  0  0
 35 33  1  0  0  0  0
 35 29  2  0  0  0  0
 37 36  1  0  0  0  0
M  END
>  <MODEL>
9

>  <REMARK>
 VINA RESULT:      -8.0      3.107      7.744
  Name = 
  2 active torsions:
  status: ('A' for Active; 'I' for Inactive)
    1  A    between atoms: C_4  and  C_37
    2  A    between atoms: C_23  and  C_30
                            x       y       z     vdW  Elec       q    Type
                         _______ _______ _______ _____ _____    ______ ____

>  <TORSDO>
F 2

$$$$
