=
 OpenBabel11112417363D

 28 32  0  0  1  0  0  0  0  0999 V2000
  191.7260  176.4020  145.1860 C   0  0  0  0  0  0  0  0  0  0  0  0
  189.8520  174.5740  141.1780 O   0  0  0  0  0  1  0  0  0  0  0  0
  185.5250  177.4160  146.2110 O   0  0  0  0  0  0  0  0  0  0  0  0
  193.1690  176.0830  142.8070 C   0  0  0  0  0  3  0  0  0  0  0  0
  186.7250  178.3850  144.4360 N   0  0  0  0  0  0  0  0  0  0  0  0
  191.0580  176.6060  146.5020 C   0  0  0  0  0  2  0  0  0  0  0  0
  187.7280  174.2000  142.1460 C   0  0  0  0  0  1  0  0  0  0  0  0
  188.6650  175.2260  141.5070 C   0  0  1  0  0  0  0  0  0  0  0  0
  186.9920  176.6110  140.5930 C   0  0  2  0  0  3  0  0  0  0  0  0
  188.9780  176.3890  142.4590 C   0  0  1  0  0  3  0  0  0  0  0  0
  188.6210  174.2990  147.7700 O   0  0  0  0  0  0  0  0  0  0  0  0
  188.7790  177.2200  144.7180 C   0  0  1  0  0  3  0  0  0  0  0  0
  187.3790  177.7240  141.3770 O   0  0  0  0  0  0  0  0  0  0  0  0
  188.0950  175.7510  140.3090 O   0  0  0  0  0  0  0  0  0  0  0  0
  189.1080  175.3640  147.3100 C   0  0  0  0  0  0  0  0  0  0  0  0
  191.0160  176.2390  143.9630 C   0  0  0  0  0  0  0  0  0  0  0  0
  186.5730  177.4850  145.5130 C   0  0  0  0  0  0  0  0  0  0  0  0
  186.3840  177.0950  139.2940 C   0  0  0  0  0  1  0  0  0  0  0  0
  188.2190  176.5490  147.1060 C   0  0  0  0  0  2  0  0  0  0  0  0
  191.7740  176.0690  142.7890 C   0  0  0  0  0  3  0  0  0  0  0  0
  193.1260  176.4130  145.1930 C   0  0  0  0  0  3  0  0  0  0  0  0
  193.8460  176.2560  144.0100 C   0  0  0  0  0  3  0  0  0  0  0  0
  190.4540  175.4020  146.9460 O   0  0  0  0  0  0  0  0  0  0  0  0
  187.9710  178.1100  143.7440 C   0  0  1  0  0  3  0  0  0  0  0  0
  187.7370  176.5850  145.6650 C   0  0  2  0  0  3  0  0  0  0  0  0
  187.7100  177.1570  142.6070 C   0  0  2  0  0  3  0  0  0  0  0  0
  185.6730  179.2440  143.9190 C   0  0  0  0  0  1  0  0  0  0  0  0
  189.4890  176.1340  143.8820 C   0  0  2  0  0  3  0  0  0  0  0  0
  1 21  1  0  0  0  0
  1  6  1  0  0  0  0
  2  8  1  0  0  0  0
  4 22  1  0  0  0  0
  5 17  1  0  0  0  0
  6 23  1  0  0  0  0
  8  7  1  1  0  0  0
  8 10  1  0  0  0  0
  9 18  1  6  0  0  0
  9 13  1  0  0  0  0
 10 26  1  0  0  0  0
 10 28  1  0  0  0  0
 12 25  1  0  0  0  0
 13 26  1  0  0  0  0
 14  9  1  0  0  0  0
 14  8  1  0  0  0  0
 15 11  2  0  0  0  0
 16  1  2  0  0  0  0
 17 25  1  0  0  0  0
 17  3  2  0  0  0  0
 19 15  1  0  0  0  0
 20  4  2  0  0  0  0
 20 16  1  0  0  0  0
 22 21  2  0  0  0  0
 23 15  1  0  0  0  0
 24  5  1  0  0  0  0
 24 12  1  0  0  0  0
 25 19  1  0  0  0  0
 26 24  1  0  0  0  0
 27  5  1  0  0  0  0
 28 16  1  0  0  0  0
 28 12  1  0  0  0  0
M  END
>  <MODEL>
1

>  <REMARK>
 VINA RESULT:      -8.4      0.000      0.000
  Name = 
  0 active torsions:
  status: ('A' for Active; 'I' for Inactive)
                            x       y       z     vdW  Elec       q    Type
                         _______ _______ _______ _____ _____    ______ ____

>  <TORSDO>
F 0

$$$$
=
 OpenBabel11112417363D

 28 32  0  0  1  0  0  0  0  0999 V2000
  189.7650  176.3190  145.6280 C   0  0  0  0  0  0  0  0  0  0  0  0
  189.5110  172.2890  143.0550 O   0  0  0  0  0  1  0  0  0  0  0  0
  184.7530  177.6000  141.9170 O   0  0  0  0  0  0  0  0  0  0  0  0
  191.9260  174.5750  145.2620 C   0  0  0  0  0  3  0  0  0  0  0  0
  186.9220  177.2240  141.0890 N   0  0  0  0  0  0  0  0  0  0  0  0
  188.6830  177.3070  145.8950 C   0  0  0  0  0  2  0  0  0  0  0  0
  187.2240  172.5760  142.5270 C   0  0  0  0  0  1  0  0  0  0  0  0
  188.6610  172.9700  142.1840 C   0  0  1  0  0  0  0  0  0  0  0  0
  188.3020  173.3950  139.8940 C   0  0  2  0  0  3  0  0  0  0  0  0
  188.8940  174.4800  142.3340 C   0  0  1  0  0  3  0  0  0  0  0  0
  185.2710  176.3040  146.3640 O   0  0  0  0  0  0  0  0  0  0  0  0
  187.9690  176.5670  143.1210 C   0  0  1  0  0  3  0  0  0  0  0  0
  188.6540  174.7610  140.0150 O   0  0  0  0  0  0  0  0  0  0  0  0
  188.9840  172.5830  140.8490 O   0  0  0  0  0  0  0  0  0  0  0  0
  186.2810  176.8330  145.8330 C   0  0  0  0  0  0  0  0  0  0  0  0
  189.7280  175.3870  144.5520 C   0  0  0  0  0  0  0  0  0  0  0  0
  185.9430  177.2280  142.1060 C   0  0  0  0  0  0  0  0  0  0  0  0
  188.6270  172.9120  138.4970 C   0  0  0  0  0  1  0  0  0  0  0  0
  186.1260  177.5830  144.5490 C   0  0  0  0  0  2  0  0  0  0  0  0
  190.8260  174.5180  144.4060 C   0  0  0  0  0  3  0  0  0  0  0  0
  190.8740  176.3660  146.4810 C   0  0  0  0  0  3  0  0  0  0  0  0
  191.9510  175.5010  146.3000 C   0  0  0  0  0  3  0  0  0  0  0  0
  187.5350  176.6590  146.4180 O   0  0  0  0  0  0  0  0  0  0  0  0
  188.1340  176.5980  141.5820 C   0  0  1  0  0  3  0  0  0  0  0  0
  186.4490  176.6680  143.3790 C   0  0  2  0  0  3  0  0  0  0  0  0
  188.1110  175.1300  141.2460 C   0  0  2  0  0  3  0  0  0  0  0  0
  186.6640  177.5200  139.6900 C   0  0  0  0  0  1  0  0  0  0  0  0
  188.5190  175.2160  143.6250 C   0  0  2  0  0  3  0  0  0  0  0  0
  1  6  1  0  0  0  0
  1 21  1  0  0  0  0
  3 17  2  0  0  0  0
  4 22  1  0  0  0  0
  5 24  1  0  0  0  0
  5 17  1  0  0  0  0
  6 23  1  0  0  0  0
  8 10  1  0  0  0  0
  8  7  1  1  0  0  0
  8  2  1  0  0  0  0
  9 18  1  6  0  0  0
  9 13  1  0  0  0  0
  9 14  1  0  0  0  0
 10 28  1  0  0  0  0
 12 25  1  0  0  0  0
 12 28  1  0  0  0  0
 13 26  1  0  0  0  0
 14  8  1  0  0  0  0
 15 11  2  0  0  0  0
 15 23  1  0  0  0  0
 16  1  2  0  0  0  0
 17 25  1  0  0  0  0
 19 15  1  0  0  0  0
 20 16  1  0  0  0  0
 20  4  2  0  0  0  0
 22 21  2  0  0  0  0
 24 12  1  0  0  0  0
 25 19  1  0  0  0  0
 26 24  1  0  0  0  0
 26 10  1  0  0  0  0
 27  5  1  0  0  0  0
 28 16  1  0  0  0  0
M  END
>  <MODEL>
2

>  <REMARK>
 VINA RESULT:      -8.1      1.888      3.096
  Name = 
  0 active torsions:
  status: ('A' for Active; 'I' for Inactive)
                            x       y       z     vdW  Elec       q    Type
                         _______ _______ _______ _____ _____    ______ ____

>  <TORSDO>
F 0

$$$$
=
 OpenBabel11112417363D

 28 32  0  0  1  0  0  0  0  0999 V2000
  187.2680  176.4720  146.4690 C   0  0  0  0  0  0  0  0  0  0  0  0
  186.6580  179.0430  142.4760 O   0  0  0  0  0  1  0  0  0  0  0  0
  191.5570  173.7410  142.6390 O   0  0  0  0  0  0  0  0  0  0  0  0
  184.9300  177.9030  145.8880 C   0  0  0  0  0  3  0  0  0  0  0  0
  189.2440  173.7360  142.2130 N   0  0  0  0  0  0  0  0  0  0  0  0
  188.4650  175.6880  146.8810 C   0  0  0  0  0  2  0  0  0  0  0  0
  188.8150  178.5580  141.6380 C   0  0  0  0  0  1  0  0  0  0  0  0
  187.3800  178.0580  141.8030 C   0  0  1  0  0  0  0  0  0  0  0  0
  187.3240  176.7070  139.8730 C   0  0  2  0  0  3  0  0  0  0  0  0
  187.3150  176.7510  142.6070 C   0  0  1  0  0  3  0  0  0  0  0  0
  191.8000  176.7910  146.1550 O   0  0  0  0  0  0  0  0  0  0  0  0
  188.5580  175.1890  143.9660 C   0  0  1  0  0  3  0  0  0  0  0  0
  187.1240  175.5200  140.6180 O   0  0  0  0  0  0  0  0  0  0  0  0
  186.7700  177.8470  140.5300 O   0  0  0  0  0  0  0  0  0  0  0  0
  190.7570  176.0890  146.1170 C   0  0  0  0  0  0  0  0  0  0  0  0
  187.0120  176.8650  145.1240 C   0  0  0  0  0  0  0  0  0  0  0  0
  190.3990  174.1600  142.9070 C   0  0  0  0  0  0  0  0  0  0  0  0
  186.6910  176.5580  138.5060 C   0  0  0  0  0  1  0  0  0  0  0  0
  190.7250  174.8670  145.2560 C   0  0  0  0  0  2  0  0  0  0  0  0
  185.8340  177.5920  144.8720 C   0  0  0  0  0  3  0  0  0  0  0  0
  186.3550  176.7900  147.4810 C   0  0  0  0  0  3  0  0  0  0  0  0
  185.1900  177.5000  147.1940 C   0  0  0  0  0  3  0  0  0  0  0  0
  189.6300  176.4940  146.8330 O   0  0  0  0  0  0  0  0  0  0  0  0
  188.1000  174.5130  142.6520 C   0  0  1  0  0  3  0  0  0  0  0  0
  190.1020  175.2040  143.9120 C   0  0  2  0  0  3  0  0  0  0  0  0
  187.9270  175.7020  141.7440 C   0  0  2  0  0  3  0  0  0  0  0  0
  189.2510  172.8780  141.0400 C   0  0  0  0  0  1  0  0  0  0  0  0
  187.9980  176.6270  143.9740 C   0  0  2  0  0  3  0  0  0  0  0  0
  1  6  1  0  0  0  0
  1 21  1  0  0  0  0
  3 17  2  0  0  0  0
  4 22  1  0  0  0  0
  5 24  1  0  0  0  0
  5 17  1  0  0  0  0
  8  7  1  6  0  0  0
  8  2  1  0  0  0  0
  8 10  1  0  0  0  0
  9 18  1  6  0  0  0
  9 14  1  0  0  0  0
  9 13  1  0  0  0  0
 10 28  1  0  0  0  0
 12 28  1  0  0  0  0
 13 26  1  0  0  0  0
 14  8  1  0  0  0  0
 15 11  2  0  0  0  0
 15 23  1  0  0  0  0
 16  1  2  0  0  0  0
 17 25  1  0  0  0  0
 19 15  1  0  0  0  0
 20 16  1  0  0  0  0
 20  4  2  0  0  0  0
 22 21  2  0  0  0  0
 23  6  1  0  0  0  0
 24 12  1  0  0  0  0
 25 12  1  0  0  0  0
 25 19  1  0  0  0  0
 26 10  1  0  0  0  0
 26 24  1  0  0  0  0
 27  5  1  0  0  0  0
 28 16  1  0  0  0  0
M  END
>  <MODEL>
3

>  <REMARK>
 VINA RESULT:      -7.9      2.111      4.812
  Name = 
  0 active torsions:
  status: ('A' for Active; 'I' for Inactive)
                            x       y       z     vdW  Elec       q    Type
                         _______ _______ _______ _____ _____    ______ ____

>  <TORSDO>
F 0

$$$$
=
 OpenBabel11112417363D

 28 32  0  0  1  0  0  0  0  0999 V2000
  187.1520  176.8130  143.0220 C   0  0  0  0  0  0  0  0  0  0  0  0
  189.4950  176.3850  147.1750 O   0  0  0  0  0  1  0  0  0  0  0  0
  192.2910  173.5560  141.1480 O   0  0  0  0  0  0  0  0  0  0  0  0
  186.7490  178.5140  145.2110 C   0  0  0  0  0  3  0  0  0  0  0  0
  192.3850  175.7200  142.0640 N   0  0  0  0  0  0  0  0  0  0  0  0
  187.2790  175.9630  141.8040 C   0  0  0  0  0  2  0  0  0  0  0  0
  190.7200  174.4870  146.4770 C   0  0  0  0  0  1  0  0  0  0  0  0
  190.6160  176.0120  146.4350 C   0  0  1  0  0  0  0  0  0  0  0  0
  192.9200  176.4500  146.2080 C   0  0  2  0  0  3  0  0  0  0  0  0
  190.4680  176.5390  145.0000 C   0  0  1  0  0  3  0  0  0  0  0  0
  187.8510  172.4290  142.0080 O   0  0  0  0  0  0  0  0  0  0  0  0
  190.1020  175.9410  142.6890 C   0  0  1  0  0  3  0  0  0  0  0  0
  192.7560  177.0620  144.9420 O   0  0  0  0  0  0  0  0  0  0  0  0
  191.7650  176.6120  147.0310 O   0  0  0  0  0  0  0  0  0  0  0  0
  188.0650  173.6450  141.7680 C   0  0  0  0  0  0  0  0  0  0  0  0
  188.1430  176.8750  144.0410 C   0  0  0  0  0  0  0  0  0  0  0  0
  191.7250  174.5160  141.7380 C   0  0  0  0  0  0  0  0  0  0  0  0
  194.1240  177.0470  146.9050 C   0  0  0  0  0  1  0  0  0  0  0  0
  189.3650  174.0540  141.1530 C   0  0  0  0  0  2  0  0  0  0  0  0
  187.9010  177.7310  145.1320 C   0  0  0  0  0  3  0  0  0  0  0  0
  185.9980  177.6020  143.1110 C   0  0  0  0  0  3  0  0  0  0  0  0
  185.7970  178.4500  144.1980 C   0  0  0  0  0  3  0  0  0  0  0  0
  187.1100  174.5940  142.1330 O   0  0  0  0  0  0  0  0  0  0  0  0
  191.5120  176.5520  142.8700 C   0  0  1  0  0  3  0  0  0  0  0  0
  190.3340  174.4810  142.2430 C   0  0  2  0  0  3  0  0  0  0  0  0
  191.7740  176.2850  144.3290 C   0  0  2  0  0  3  0  0  0  0  0  0
  193.8070  175.9610  141.8820 C   0  0  0  0  0  1  0  0  0  0  0  0
  189.3920  175.9860  144.0590 C   0  0  2  0  0  3  0  0  0  0  0  0
  1 21  2  0  0  0  0
  1 16  1  0  0  0  0
  3 17  2  0  0  0  0
  5 24  1  0  0  0  0
  6 23  1  0  0  0  0
  6  1  1  0  0  0  0
  8  7  1  6  0  0  0
  8 14  1  0  0  0  0
  8  2  1  0  0  0  0
  9 18  1  1  0  0  0
  9 14  1  0  0  0  0
 10  8  1  0  0  0  0
 12 24  1  0  0  0  0
 12 28  1  0  0  0  0
 13  9  1  0  0  0  0
 15 11  2  0  0  0  0
 15 23  1  0  0  0  0
 16 28  1  0  0  0  0
 16 20  2  0  0  0  0
 17  5  1  0  0  0  0
 17 25  1  0  0  0  0
 19 15  1  0  0  0  0
 19 25  1  0  0  0  0
 20  4  1  0  0  0  0
 21 22  1  0  0  0  0
 22  4  2  0  0  0  0
 24 26  1  0  0  0  0
 25 12  1  0  0  0  0
 26 13  1  0  0  0  0
 26 10  1  0  0  0  0
 27  5  1  0  0  0  0
 28 10  1  0  0  0  0
M  END
>  <MODEL>
4

>  <REMARK>
 VINA RESULT:      -7.9      2.172      6.387
  Name = 
  0 active torsions:
  status: ('A' for Active; 'I' for Inactive)
                            x       y       z     vdW  Elec       q    Type
                         _______ _______ _______ _____ _____    ______ ____

>  <TORSDO>
F 0

$$$$
=
 OpenBabel11112417363D

 28 32  0  0  1  0  0  0  0  0999 V2000
  187.2220  177.1090  142.2390 C   0  0  0  0  0  0  0  0  0  0  0  0
  187.5330  176.7640  147.0040 O   0  0  0  0  0  1  0  0  0  0  0  0
  192.5370  173.6550  142.8300 O   0  0  0  0  0  0  0  0  0  0  0  0
  185.9830  178.8950  144.0060 C   0  0  0  0  0  3  0  0  0  0  0  0
  192.3120  175.8470  143.6530 N   0  0  0  0  0  0  0  0  0  0  0  0
  187.8270  176.2140  141.2120 C   0  0  0  0  0  2  0  0  0  0  0  0
  188.8650  174.8120  146.9410 C   0  0  0  0  0  1  0  0  0  0  0  0
  188.8480  176.3370  146.8270 C   0  0  1  0  0  0  0  0  0  0  0  0
  191.0410  176.7060  147.6070 C   0  0  2  0  0  3  0  0  0  0  0  0
  189.3520  176.8180  145.4590 C   0  0  1  0  0  3  0  0  0  0  0  0
  188.1190  172.6750  141.7140 O   0  0  0  0  0  0  0  0  0  0  0  0
  189.9920  176.1490  143.2280 C   0  0  1  0  0  3  0  0  0  0  0  0
  191.4600  177.2780  146.3820 O   0  0  0  0  0  0  0  0  0  0  0  0
  189.6510  176.9270  147.8480 O   0  0  0  0  0  0  0  0  0  0  0  0
  188.4620  173.8760  141.5650 C   0  0  0  0  0  0  0  0  0  0  0  0
  187.6800  177.1800  143.5850 C   0  0  0  0  0  0  0  0  0  0  0  0
  191.8100  174.6490  143.0990 C   0  0  0  0  0  0  0  0  0  0  0  0
  191.8490  177.2960  148.7430 C   0  0  0  0  0  1  0  0  0  0  0  0
  189.9150  174.2290  141.5630 C   0  0  0  0  0  2  0  0  0  0  0  0
  187.0260  178.0810  144.4470 C   0  0  0  0  0  3  0  0  0  0  0  0
  186.1740  177.9300  141.8060 C   0  0  0  0  0  3  0  0  0  0  0  0
  185.5570  178.8210  142.6830 C   0  0  0  0  0  3  0  0  0  0  0  0
  187.4820  174.8630  141.4640 O   0  0  0  0  0  0  0  0  0  0  0  0
  191.2100  176.7290  143.9870 C   0  0  1  0  0  3  0  0  0  0  0  0
  190.3370  174.6680  142.9550 C   0  0  2  0  0  3  0  0  0  0  0  0
  190.8080  176.5060  145.4210 C   0  0  2  0  0  3  0  0  0  0  0  0
  193.6820  176.0430  144.0970 C   0  0  0  0  0  1  0  0  0  0  0  0
  188.7640  176.2600  144.1570 C   0  0  2  0  0  3  0  0  0  0  0  0
  1 16  1  0  0  0  0
  3 17  2  0  0  0  0
  4 20  1  0  0  0  0
  5 24  1  0  0  0  0
  5 27  1  0  0  0  0
  6 23  1  0  0  0  0
  6  1  1  0  0  0  0
  8  7  1  1  0  0  0
  8  2  1  0  0  0  0
  8 14  1  0  0  0  0
  9 14  1  0  0  0  0
  9 18  1  1  0  0  0
 10  8  1  0  0  0  0
 12 24  1  0  0  0  0
 12 28  1  0  0  0  0
 13  9  1  0  0  0  0
 15 11  2  0  0  0  0
 16 28  1  0  0  0  0
 16 20  2  0  0  0  0
 17  5  1  0  0  0  0
 19 15  1  0  0  0  0
 19 25  1  0  0  0  0
 21  1  2  0  0  0  0
 21 22  1  0  0  0  0
 22  4  2  0  0  0  0
 23 15  1  0  0  0  0
 24 26  1  0  0  0  0
 25 17  1  0  0  0  0
 25 12  1  0  0  0  0
 26 10  1  0  0  0  0
 26 13  1  0  0  0  0
 28 10  1  0  0  0  0
M  END
>  <MODEL>
5

>  <REMARK>
 VINA RESULT:      -7.8      1.918      6.382
  Name = 
  0 active torsions:
  status: ('A' for Active; 'I' for Inactive)
                            x       y       z     vdW  Elec       q    Type
                         _______ _______ _______ _____ _____    ______ ____

>  <TORSDO>
F 0

$$$$
=
 OpenBabel11112417363D

 28 32  0  0  1  0  0  0  0  0999 V2000
  191.7910  176.2300  144.8790 C   0  0  0  0  0  0  0  0  0  0  0  0
  190.9960  172.3050  142.2540 O   0  0  0  0  0  1  0  0  0  0  0  0
  185.5970  176.9150  143.5750 O   0  0  0  0  0  0  0  0  0  0  0  0
  193.8100  174.8300  143.5330 C   0  0  0  0  0  3  0  0  0  0  0  0
  187.2770  176.8860  141.9300 N   0  0  0  0  0  0  0  0  0  0  0  0
  190.8000  177.0410  145.6410 C   0  0  0  0  0  2  0  0  0  0  0  0
  188.6730  172.2790  142.6980 C   0  0  0  0  0  1  0  0  0  0  0  0
  189.7940  172.8890  141.8550 C   0  0  1  0  0  0  0  0  0  0  0  0
  188.4970  173.3440  139.9410 C   0  0  2  0  0  3  0  0  0  0  0  0
  189.8900  174.4100  142.0390 C   0  0  1  0  0  3  0  0  0  0  0  0
  188.0080  175.5400  147.3200 O   0  0  0  0  0  0  0  0  0  0  0  0
  189.1220  176.3110  143.3150 C   0  0  1  0  0  3  0  0  0  0  0  0
  188.7060  174.7400  140.0390 O   0  0  0  0  0  0  0  0  0  0  0  0
  189.5960  172.6030  140.4710 O   0  0  0  0  0  0  0  0  0  0  0  0
  188.6500  176.2280  146.4840 C   0  0  0  0  0  0  0  0  0  0  0  0
  191.4330  175.3430  143.8240 C   0  0  0  0  0  0  0  0  0  0  0  0
  186.7970  176.7110  143.2460 C   0  0  0  0  0  0  0  0  0  0  0  0
  188.2870  172.9650  138.4900 C   0  0  0  0  0  1  0  0  0  0  0  0
  187.9050  176.9970  145.4400 C   0  0  0  0  0  2  0  0  0  0  0  0
  192.4730  174.6480  143.1780 C   0  0  0  0  0  3  0  0  0  0  0  0
  193.1350  176.4040  145.2280 C   0  0  0  0  0  3  0  0  0  0  0  0
  194.1410  175.7100  144.5590 C   0  0  0  0  0  3  0  0  0  0  0  0
  190.0440  176.2150  146.5110 O   0  0  0  0  0  0  0  0  0  0  0  0
  188.6500  176.4230  141.8460 C   0  0  1  0  0  3  0  0  0  0  0  0
  187.8340  176.1820  144.1590 C   0  0  2  0  0  3  0  0  0  0  0  0
  188.6650  174.9810  141.4120 C   0  0  2  0  0  3  0  0  0  0  0  0
  186.4450  177.1940  140.7780 C   0  0  0  0  0  1  0  0  0  0  0  0
  189.9830  175.0350  143.4360 C   0  0  2  0  0  3  0  0  0  0  0  0
  1 21  1  0  0  0  0
  1  6  1  0  0  0  0
  4 22  1  0  0  0  0
  5 17  1  0  0  0  0
  6 23  1  0  0  0  0
  8 10  1  0  0  0  0
  8  2  1  0  0  0  0
  8  7  1  1  0  0  0
  9 18  1  6  0  0  0
  9 13  1  0  0  0  0
  9 14  1  0  0  0  0
 10 28  1  0  0  0  0
 12 28  1  0  0  0  0
 12 25  1  0  0  0  0
 13 26  1  0  0  0  0
 14  8  1  0  0  0  0
 15 23  1  0  0  0  0
 15 11  2  0  0  0  0
 16  1  2  0  0  0  0
 17  3  2  0  0  0  0
 17 25  1  0  0  0  0
 19 15  1  0  0  0  0
 20  4  2  0  0  0  0
 20 16  1  0  0  0  0
 22 21  2  0  0  0  0
 24  5  1  0  0  0  0
 24 12  1  0  0  0  0
 25 19  1  0  0  0  0
 26 24  1  0  0  0  0
 26 10  1  0  0  0  0
 27  5  1  0  0  0  0
 28 16  1  0  0  0  0
M  END
>  <MODEL>
6

>  <REMARK>
 VINA RESULT:      -7.7      1.714      2.367
  Name = 
  0 active torsions:
  status: ('A' for Active; 'I' for Inactive)
                            x       y       z     vdW  Elec       q    Type
                         _______ _______ _______ _____ _____    ______ ____

>  <TORSDO>
F 0

$$$$
=
 OpenBabel11112417363D

 28 32  0  0  1  0  0  0  0  0999 V2000
  193.8690  175.9870  144.7370 C   0  0  0  0  0  0  0  0  0  0  0  0
  192.0440  172.1880  142.4650 O   0  0  0  0  0  1  0  0  0  0  0  0
  187.6490  176.8680  145.7690 O   0  0  0  0  0  0  0  0  0  0  0  0
  195.2190  174.5940  142.7170 C   0  0  0  0  0  3  0  0  0  0  0  0
  188.6240  176.8640  143.6290 N   0  0  0  0  0  0  0  0  0  0  0  0
  193.2470  176.7910  145.8270 C   0  0  0  0  0  2  0  0  0  0  0  0
  190.0360  172.1990  143.7140 C   0  0  0  0  0  1  0  0  0  0  0  0
  190.8010  172.8150  142.5420 C   0  0  1  0  0  0  0  0  0  0  0  0
  188.9210  173.3750  141.2360 C   0  0  2  0  0  3  0  0  0  0  0  0
  191.0110  174.3250  142.7220 C   0  0  1  0  0  3  0  0  0  0  0  0
  191.1910  175.2910  148.3550 O   0  0  0  0  0  0  0  0  0  0  0  0
  190.8210  176.1920  144.2420 C   0  0  1  0  0  3  0  0  0  0  0  0
  189.2020  174.7610  141.2910 O   0  0  0  0  0  0  0  0  0  0  0  0
  190.1100  172.5880  141.3140 O   0  0  0  0  0  0  0  0  0  0  0  0
  191.5150  175.9960  147.3650 C   0  0  0  0  0  0  0  0  0  0  0  0
  193.1250  175.1510  143.8570 C   0  0  0  0  0  0  0  0  0  0  0  0
  188.6420  176.6490  145.0240 C   0  0  0  0  0  0  0  0  0  0  0  0
  188.1910  173.0580  139.9480 C   0  0  0  0  0  1  0  0  0  0  0  0
  190.4730  176.8220  146.6800 C   0  0  0  0  0  2  0  0  0  0  0  0
  193.8380  174.4570  142.8610 C   0  0  0  0  0  3  0  0  0  0  0  0
  195.2540  176.1160  144.5840 C   0  0  0  0  0  3  0  0  0  0  0  0
  195.9280  175.4250  143.5780 C   0  0  0  0  0  3  0  0  0  0  0  0
  192.8240  175.9490  146.8880 O   0  0  0  0  0  0  0  0  0  0  0  0
  189.8580  176.3730  143.0440 C   0  0  1  0  0  3  0  0  0  0  0  0
  189.9180  176.0600  145.4880 C   0  0  2  0  0  3  0  0  0  0  0  0
  189.6640  174.9490  142.5940 C   0  0  2  0  0  3  0  0  0  0  0  0
  187.4460  177.2370  142.8640 C   0  0  0  0  0  1  0  0  0  0  0  0
  191.6210  174.8930  144.0080 C   0  0  2  0  0  3  0  0  0  0  0  0
  1  6  1  0  0  0  0
  2  8  1  0  0  0  0
  4 20  2  0  0  0  0
  4 22  1  0  0  0  0
  5 17  1  0  0  0  0
  6 23  1  0  0  0  0
  8 10  1  0  0  0  0
  8  7  1  1  0  0  0
  9 18  1  6  0  0  0
  9 13  1  0  0  0  0
  9 14  1  0  0  0  0
 10 28  1  0  0  0  0
 12 25  1  0  0  0  0
 13 26  1  0  0  0  0
 14  8  1  0  0  0  0
 15 11  2  0  0  0  0
 16 28  1  0  0  0  0
 16  1  2  0  0  0  0
 17 25  1  0  0  0  0
 17  3  2  0  0  0  0
 19 15  1  0  0  0  0
 20 16  1  0  0  0  0
 21  1  1  0  0  0  0
 22 21  2  0  0  0  0
 23 15  1  0  0  0  0
 24  5  1  0  0  0  0
 24 12  1  0  0  0  0
 25 19  1  0  0  0  0
 26 10  1  0  0  0  0
 26 24  1  0  0  0  0
 27  5  1  0  0  0  0
 28 12  1  0  0  0  0
M  END
>  <MODEL>
7

>  <REMARK>
 VINA RESULT:      -7.0      1.919      2.853
  Name = 
  0 active torsions:
  status: ('A' for Active; 'I' for Inactive)
                            x       y       z     vdW  Elec       q    Type
                         _______ _______ _______ _____ _____    ______ ____

>  <TORSDO>
F 0

$$$$
=
 OpenBabel11112417363D

 28 32  0  0  1  0  0  0  0  0999 V2000
  192.0520  175.3570  146.3310 C   0  0  0  0  0  0  0  0  0  0  0  0
  190.5050  172.5350  142.7860 O   0  0  0  0  0  1  0  0  0  0  0  0
  197.4880  172.5190  144.6210 O   0  0  0  0  0  0  0  0  0  0  0  0
  189.3850  174.5460  146.0460 C   0  0  0  0  0  3  0  0  0  0  0  0
  195.6310  171.3600  145.4800 N   0  0  0  0  0  0  0  0  0  0  0  0
  193.4360  175.8540  146.5710 C   0  0  0  0  0  2  0  0  0  0  0  0
  192.6330  172.3670  141.7700 C   0  0  0  0  0  1  0  0  0  0  0  0
  191.7170  171.8530  142.8810 C   0  0  1  0  0  0  0  0  0  0  0  0
  192.6180  169.6790  143.0130 C   0  0  2  0  0  3  0  0  0  0  0  0
  192.3160  172.0870  144.2750 C   0  0  1  0  0  3  0  0  0  0  0  0
  195.6310  176.7280  143.8730 O   0  0  0  0  0  0  0  0  0  0  0  0
  194.0790  173.1620  145.5270 C   0  0  1  0  0  3  0  0  0  0  0  0
  193.0450  169.8570  144.3500 O   0  0  0  0  0  0  0  0  0  0  0  0
  191.4590  170.4590  142.7170 O   0  0  0  0  0  0  0  0  0  0  0  0
  195.1710  176.1000  144.8610 C   0  0  0  0  0  0  0  0  0  0  0  0
  191.7550  174.2270  145.5170 C   0  0  0  0  0  0  0  0  0  0  0  0
  196.2740  172.5050  144.9610 C   0  0  0  0  0  0  0  0  0  0  0  0
  192.3160  168.2160  142.7680 C   0  0  0  0  0  1  0  0  0  0  0  0
  195.9150  174.9160  145.3890 C   0  0  0  0  0  2  0  0  0  0  0  0
  190.4030  173.8560  145.3880 C   0  0  0  0  0  3  0  0  0  0  0  0
  191.0230  176.0430  146.9870 C   0  0  0  0  0  3  0  0  0  0  0  0
  189.6960  175.6410  146.8480 C   0  0  0  0  0  3  0  0  0  0  0  0
  193.9460  176.4840  145.4080 O   0  0  0  0  0  0  0  0  0  0  0  0
  194.2110  171.6230  145.6240 C   0  0  1  0  0  3  0  0  0  0  0  0
  195.3450  173.6430  144.7850 C   0  0  2  0  0  3  0  0  0  0  0  0
  193.4920  171.1780  144.3780 C   0  0  2  0  0  3  0  0  0  0  0  0
  196.2330  170.0410  145.5700 C   0  0  0  0  0  1  0  0  0  0  0  0
  192.8120  173.4730  144.7020 C   0  0  2  0  0  3  0  0  0  0  0  0
  1  6  1  0  0  0  0
  1 21  1  0  0  0  0
  2  8  1  0  0  0  0
  3 17  2  0  0  0  0
  4 22  1  0  0  0  0
  5 27  1  0  0  0  0
  5 24  1  0  0  0  0
  8  7  1  6  0  0  0
  8 10  1  0  0  0  0
  9 18  1  1  0  0  0
  9 13  1  0  0  0  0
 10 26  1  0  0  0  0
 10 28  1  0  0  0  0
 11 15  2  0  0  0  0
 12 24  1  0  0  0  0
 13 26  1  0  0  0  0
 14  8  1  0  0  0  0
 14  9  1  0  0  0  0
 15 19  1  0  0  0  0
 15 23  1  0  0  0  0
 16  1  2  0  0  0  0
 17  5  1  0  0  0  0
 20 16  1  0  0  0  0
 20  4  2  0  0  0  0
 22 21  2  0  0  0  0
 23  6  1  0  0  0  0
 25 17  1  0  0  0  0
 25 19  1  0  0  0  0
 25 12  1  0  0  0  0
 26 24  1  0  0  0  0
 28 16  1  0  0  0  0
 28 12  1  0  0  0  0
M  END
>  <MODEL>
8

>  <REMARK>
 VINA RESULT:      -7.0      4.809      7.652
  Name = 
  0 active torsions:
  status: ('A' for Active; 'I' for Inactive)
                            x       y       z     vdW  Elec       q    Type
                         _______ _______ _______ _____ _____    ______ ____

>  <TORSDO>
F 0

$$$$
=
 OpenBabel11112417363D

 28 32  0  0  1  0  0  0  0  0999 V2000
  188.5910  173.9390  141.3690 C   0  0  0  0  0  0  0  0  0  0  0  0
  193.3010  174.7910  141.4620 O   0  0  0  0  0  1  0  0  0  0  0  0
  189.0440  177.4990  146.6270 O   0  0  0  0  0  0  0  0  0  0  0  0
  190.4820  172.3360  140.0640 C   0  0  0  0  0  3  0  0  0  0  0  0
  190.0850  175.4050  146.3810 N   0  0  0  0  0  0  0  0  0  0  0  0
  187.5030  174.7270  142.0140 C   0  0  0  0  0  2  0  0  0  0  0  0
  193.0890  176.7410  142.7820 C   0  0  0  0  0  1  0  0  0  0  0  0
  193.1380  175.2130  142.7810 C   0  0  1  0  0  0  0  0  0  0  0  0
  194.0480  174.9550  144.9390 C   0  0  2  0  0  3  0  0  0  0  0  0
  191.8520  174.5960  143.3500 C   0  0  1  0  0  3  0  0  0  0  0  0
  187.6370  178.3020  142.2570 O   0  0  0  0  0  0  0  0  0  0  0  0
  189.5930  175.0310  144.0850 C   0  0  1  0  0  3  0  0  0  0  0  0
  192.9110  174.2610  145.4180 O   0  0  0  0  0  0  0  0  0  0  0  0
  194.2500  174.7440  143.5420 O   0  0  0  0  0  0  0  0  0  0  0  0
  187.6320  177.0970  142.6150 C   0  0  0  0  0  0  0  0  0  0  0  0
  189.9560  174.0170  141.7660 C   0  0  0  0  0  0  0  0  0  0  0  0
  189.3840  176.5300  145.8960 C   0  0  0  0  0  0  0  0  0  0  0  0
  195.2750  174.4990  145.7000 C   0  0  0  0  0  1  0  0  0  0  0  0
  187.7310  176.7620  144.0700 C   0  0  0  0  0  2  0  0  0  0  0  0
  190.8800  173.2050  141.0800 C   0  0  0  0  0  3  0  0  0  0  0  0
  188.2030  173.0640  140.3480 C   0  0  0  0  0  3  0  0  0  0  0  0
  189.1410  172.2640  139.6980 C   0  0  0  0  0  3  0  0  0  0  0  0
  187.5930  176.0930  141.6470 O   0  0  0  0  0  0  0  0  0  0  0  0
  190.4620  174.5500  145.2710 C   0  0  1  0  0  3  0  0  0  0  0  0
  189.1790  176.4790  144.4320 C   0  0  2  0  0  3  0  0  0  0  0  0
  191.8450  174.9190  144.8040 C   0  0  2  0  0  3  0  0  0  0  0  0
  190.6070  175.2730  147.7310 C   0  0  0  0  0  1  0  0  0  0  0  0
  190.4740  175.0050  142.8170 C   0  0  2  0  0  3  0  0  0  0  0  0
  1 16  1  0  0  0  0
  1  6  1  0  0  0  0
  2  8  1  0  0  0  0
  4 20  1  0  0  0  0
  5 27  1  0  0  0  0
  8  7  1  1  0  0  0
  8 10  1  0  0  0  0
  8 14  1  0  0  0  0
  9 13  1  0  0  0  0
  9 18  1  1  0  0  0
 10 26  1  0  0  0  0
 11 15  2  0  0  0  0
 12 25  1  0  0  0  0
 12 24  1  0  0  0  0
 14  9  1  0  0  0  0
 15 19  1  0  0  0  0
 16 28  1  0  0  0  0
 17  5  1  0  0  0  0
 17  3  2  0  0  0  0
 19 25  1  0  0  0  0
 20 16  2  0  0  0  0
 21  1  2  0  0  0  0
 22  4  2  0  0  0  0
 22 21  1  0  0  0  0
 23  6  1  0  0  0  0
 23 15  1  0  0  0  0
 24  5  1  0  0  0  0
 25 17  1  0  0  0  0
 26 24  1  0  0  0  0
 26 13  1  0  0  0  0
 28 10  1  0  0  0  0
 28 12  1  0  0  0  0
M  END
>  <MODEL>
9

>  <REMARK>
 VINA RESULT:      -6.9      2.370      5.682
  Name = 
  0 active torsions:
  status: ('A' for Active; 'I' for Inactive)
                            x       y       z     vdW  Elec       q    Type
                         _______ _______ _______ _____ _____    ______ ____

>  <TORSDO>
F 0

$$$$
