=
 OpenBabel11112416333D

 32 38  0  0  1  0  0  0  0  0999 V2000
  185.2670  179.1290  143.2390 C   0  0  1  0  0  3  0  0  0  0  0  0
  188.8860  175.2900  143.1850 C   0  0  0  0  0  0  0  0  0  0  0  0
  191.6740  176.3960  147.0060 C   0  0  0  0  0  3  0  0  0  0  0  0
  192.5080  175.2050  146.7670 C   0  0  0  0  0  3  0  0  0  0  0  0
  189.4510  173.3380  141.7150 C   0  0  0  0  0  0  0  0  0  0  0  0
  190.3980  172.2530  141.4750 C   0  0  0  0  0  0  0  0  0  0  0  0
  186.7940  176.6370  142.7880 C   0  0  1  0  0  3  0  0  0  0  0  0
  188.1090  177.0500  144.8340 C   0  0  0  0  0  2  0  0  0  0  0  0
  192.1000  171.0050  141.7310 C   0  0  0  0  0  0  0  0  0  0  0  0
  186.4190  178.7760  144.1870 C   0  0  2  0  0  3  0  0  0  0  0  0
  190.5080  176.5580  146.3740 C   0  0  0  0  0  3  0  0  0  0  0  0
  189.0940  176.0470  144.4070 N   0  0  0  0  0  0  0  0  0  0  0  0
  189.9400  175.4870  145.4690 C   0  0  1  0  0  3  0  0  0  0  0  0
  190.8450  173.9070  143.7830 C   0  0  0  0  0  0  0  0  0  0  0  0
  191.3700  170.5300  140.6580 C   0  0  0  0  0  3  0  0  0  0  0  0
  185.2470  178.3580  141.9350 C   0  0  0  0  0  3  0  0  0  0  0  0
  187.4170  177.7220  143.6600 C   0  0  2  0  0  3  0  0  0  0  0  0
  190.2880  171.3270  140.5000 N   0  0  0  0  0  0  0  0  0  0  0  0
  185.9540  177.2440  141.7120 C   0  0  0  0  0  3  0  0  0  0  0  0
  185.0230  178.2180  144.4340 C   0  0  1  0  0  3  0  0  0  0  0  0
  192.2110  174.3500  145.7860 C   0  0  0  0  0  3  0  0  0  0  0  0
  191.0150  174.5680  144.9400 C   0  0  0  0  0  0  0  0  0  0  0  0
  191.9350  172.9640  143.3090 C   0  0  0  0  0  2  0  0  0  0  0  0
  187.8950  175.8020  142.1640 C   0  0  0  0  0  2  0  0  0  0  0  0
  188.4570  173.4670  140.9510 O   0  0  0  0  0  0  0  0  0  0  0  0
  193.3840  170.4380  142.2290 C   0  0  0  0  0  1  0  0  0  0  0  0
  189.6750  174.2220  142.8990 C   0  0  0  0  0  0  0  0  0  0  0  0
  191.4780  172.0760  142.2450 N   0  0  0  0  0  0  0  0  0  0  0  0
  184.3810  178.9810  145.5010 N   0  0  0  0  0  2  0  0  0  0  0  0
  184.6190  178.3560  146.8060 C   0  0  0  0  0  3  0  0  0  0  0  0
  184.8910  176.8650  146.6820 C   0  0  0  0  0  1  0  0  0  0  0  0
  185.7250  179.0570  147.5810 C   0  0  0  0  0  1  0  0  0  0  0  0
  1 16  1  6  0  0  0
  1 10  1  0  0  0  0
  1 20  1  0  0  0  0
  2 12  1  0  0  0  0
  4  3  1  0  0  0  0
  5 27  1  0  0  0  0
  6  5  1  0  0  0  0
  6 28  1  0  0  0  0
  7 19  1  6  0  0  0
  7 17  1  0  0  0  0
  9 26  1  0  0  0  0
  9 28  1  0  0  0  0
 10 20  1  0  0  0  0
 11  3  2  0  0  0  0
 12  8  1  0  0  0  0
 12 13  1  0  0  0  0
 13 11  1  0  0  0  0
 14 22  2  0  0  0  0
 15  9  2  0  0  0  0
 17 10  1  0  0  0  0
 17  8  1  0  0  0  0
 18 15  1  0  0  0  0
 18  6  2  0  0  0  0
 19 16  2  0  0  0  0
 20 29  1  0  0  0  0
 21  4  2  0  0  0  0
 22 13  1  0  0  0  0
 22 21  1  0  0  0  0
 23 14  1  0  0  0  0
 24  7  1  0  0  0  0
 24  2  1  0  0  0  0
 25  5  2  0  0  0  0
 27  2  2  0  0  0  0
 27 14  1  0  0  0  0
 28 23  1  0  0  0  0
 29 30  1  0  0  0  0
 30 32  1  0  0  0  0
 31 30  1  0  0  0  0
M  END
>  <MODEL>
1

>  <REMARK>
 VINA RESULT:      -9.0      0.000      0.000
  Name = 
  2 active torsions:
  status: ('A' for Active; 'I' for Inactive)
    1  A    between atoms: C_20  and  N_29
    2  A    between atoms: N_29  and  C_30
                            x       y       z     vdW  Elec       q    Type
                         _______ _______ _______ _____ _____    ______ ____

>  <TORSDO>
F 2

$$$$
=
 OpenBabel11112416333D

 32 38  0  0  1  0  0  0  0  0999 V2000
  184.7770  177.9870  145.9820 C   0  0  1  0  0  3  0  0  0  0  0  0
  189.5030  175.9440  144.8290 C   0  0  0  0  0  0  0  0  0  0  0  0
  188.5600  173.2020  140.9310 C   0  0  0  0  0  3  0  0  0  0  0  0
  189.9810  172.8230  140.8310 C   0  0  0  0  0  3  0  0  0  0  0  0
  191.8050  176.0000  145.8230 C   0  0  0  0  0  0  0  0  0  0  0  0
  193.1650  175.4790  145.7260 C   0  0  0  0  0  0  0  0  0  0  0  0
  187.6670  177.4010  145.7510 C   0  0  1  0  0  3  0  0  0  0  0  0
  187.2690  176.1620  143.6560 C   0  0  0  0  0  2  0  0  0  0  0  0
  194.8140  174.3420  145.0140 C   0  0  0  0  0  0  0  0  0  0  0  0
  185.2700  177.0960  144.8350 C   0  0  2  0  0  3  0  0  0  0  0  0
  188.1680  174.1940  141.7370 C   0  0  0  0  0  3  0  0  0  0  0  0
  188.6070  175.5640  143.7520 N   0  0  0  0  0  0  0  0  0  0  0  0
  189.1650  175.0390  142.4990 C   0  0  1  0  0  3  0  0  0  0  0  0
  191.2850  174.6350  143.7240 C   0  0  0  0  0  0  0  0  0  0  0  0
  195.2470  175.1190  146.0710 C   0  0  0  0  0  3  0  0  0  0  0  0
  185.7660  178.1900  147.1110 C   0  0  0  0  0  3  0  0  0  0  0  0
  186.6830  176.4970  145.0170 C   0  0  2  0  0  3  0  0  0  0  0  0
  194.1940  175.8420  146.5210 N   0  0  0  0  0  0  0  0  0  0  0  0
  187.0710  177.9040  147.0260 C   0  0  0  0  0  3  0  0  0  0  0  0
  185.2710  178.6120  144.6830 C   0  0  1  0  0  3  0  0  0  0  0  0
  190.8850  173.3350  141.6680 C   0  0  0  0  0  3  0  0  0  0  0  0
  190.4790  174.3210  142.6960 C   0  0  0  0  0  0  0  0  0  0  0  0
  192.6130  173.9150  143.8620 C   0  0  0  0  0  2  0  0  0  0  0  0
  188.9330  176.6230  146.0530 C   0  0  0  0  0  2  0  0  0  0  0  0
  191.5290  176.8350  146.7270 O   0  0  0  0  0  0  0  0  0  0  0  0
  195.6460  173.3720  144.2490 C   0  0  0  0  0  1  0  0  0  0  0  0
  190.8050  175.5600  144.8030 C   0  0  0  0  0  0  0  0  0  0  0  0
  193.5130  174.5820  144.7960 N   0  0  0  0  0  0  0  0  0  0  0  0
  184.1240  179.0150  143.8740 N   0  0  0  0  0  2  0  0  0  0  0  0
  184.0460  178.2170  142.6470 C   0  0  0  0  0  3  0  0  0  0  0  0
  182.7000  178.3660  141.9550 C   0  0  0  0  0  1  0  0  0  0  0  0
  185.1930  178.5210  141.6940 C   0  0  0  0  0  1  0  0  0  0  0  0
  1 16  1  1  0  0  0
  2 24  1  0  0  0  0
  3 11  2  0  0  0  0
  4  3  1  0  0  0  0
  4 21  2  0  0  0  0
  5 25  2  0  0  0  0
  6  5  1  0  0  0  0
  6 18  2  0  0  0  0
  7 24  1  1  0  0  0
  7 19  1  0  0  0  0
  8 12  1  0  0  0  0
  8 17  1  0  0  0  0
  9 15  2  0  0  0  0
 10 17  1  0  0  0  0
 10  1  1  0  0  0  0
 11 13  1  0  0  0  0
 12  2  1  0  0  0  0
 13 22  1  0  0  0  0
 13 12  1  0  0  0  0
 14 23  1  0  0  0  0
 14 27  1  0  0  0  0
 15 18  1  0  0  0  0
 17  7  1  0  0  0  0
 19 16  2  0  0  0  0
 20 10  1  0  0  0  0
 20  1  1  0  0  0  0
 21 22  1  0  0  0  0
 22 14  2  0  0  0  0
 23 28  1  0  0  0  0
 26  9  1  0  0  0  0
 27  2  2  0  0  0  0
 27  5  1  0  0  0  0
 28  9  1  0  0  0  0
 28  6  1  0  0  0  0
 29 20  1  0  0  0  0
 30 29  1  0  0  0  0
 31 30  1  0  0  0  0
 32 30  1  0  0  0  0
M  END
>  <MODEL>
2

>  <REMARK>
 VINA RESULT:      -8.8      2.325      4.663
  Name = 
  2 active torsions:
  status: ('A' for Active; 'I' for Inactive)
    1  A    between atoms: C_20  and  N_29
    2  A    between atoms: N_29  and  C_30
                            x       y       z     vdW  Elec       q    Type
                         _______ _______ _______ _____ _____    ______ ____

>  <TORSDO>
F 2

$$$$
=
 OpenBabel11112416333D

 32 38  0  0  1  0  0  0  0  0999 V2000
  185.8370  177.6240  146.8070 C   0  0  1  0  0  3  0  0  0  0  0  0
  190.2210  176.0610  144.3220 C   0  0  0  0  0  0  0  0  0  0  0  0
  188.4850  173.2560  140.7560 C   0  0  0  0  0  3  0  0  0  0  0  0
  189.8500  173.0190  140.2520 C   0  0  0  0  0  3  0  0  0  0  0  0
  192.6930  176.3410  144.6380 C   0  0  0  0  0  0  0  0  0  0  0  0
  194.0150  175.9560  144.1500 C   0  0  0  0  0  0  0  0  0  0  0  0
  188.5880  177.3270  145.7640 C   0  0  1  0  0  3  0  0  0  0  0  0
  187.7370  176.0630  143.8240 C   0  0  0  0  0  2  0  0  0  0  0  0
  195.4970  174.9900  142.9720 C   0  0  0  0  0  0  0  0  0  0  0  0
  186.0700  176.7910  145.5410 C   0  0  2  0  0  3  0  0  0  0  0  0
  188.2430  174.2000  141.6690 C   0  0  0  0  0  3  0  0  0  0  0  0
  189.0990  175.6000  143.5250 N   0  0  0  0  0  0  0  0  0  0  0  0
  189.3300  175.1370  142.1500 C   0  0  1  0  0  3  0  0  0  0  0  0
  191.7360  174.9390  142.7240 C   0  0  0  0  0  0  0  0  0  0  0  0
  196.1330  175.8020  143.8910 C   0  0  0  0  0  3  0  0  0  0  0  0
  187.0790  177.9190  147.6230 C   0  0  0  0  0  3  0  0  0  0  0  0
  187.5270  176.3330  145.3040 C   0  0  2  0  0  3  0  0  0  0  0  0
  195.1860  176.4150  144.6380 N   0  0  0  0  0  0  0  0  0  0  0  0
  188.3280  177.7630  147.1690 C   0  0  0  0  0  3  0  0  0  0  0  0
  185.8870  178.3000  145.4430 C   0  0  1  0  0  3  0  0  0  0  0  0
  190.9000  173.6140  140.8210 C   0  0  0  0  0  3  0  0  0  0  0  0
  190.7080  174.5510  141.9520 C   0  0  0  0  0  0  0  0  0  0  0  0
  193.1110  174.3530  142.4650 C   0  0  0  0  0  2  0  0  0  0  0  0
  189.9550  176.6760  145.6770 C   0  0  0  0  0  2  0  0  0  0  0  0
  192.6040  177.1400  145.6090 O   0  0  0  0  0  0  0  0  0  0  0  0
  196.1680  174.1100  141.9750 C   0  0  0  0  0  1  0  0  0  0  0  0
  191.4940  175.8080  143.9220 C   0  0  0  0  0  0  0  0  0  0  0  0
  194.1700  175.1020  143.1320 N   0  0  0  0  0  0  0  0  0  0  0  0
  184.5270  178.5920  144.9980 N   0  0  0  0  0  2  0  0  0  0  0  0
  184.5310  179.1540  143.6440 C   0  0  0  0  0  3  0  0  0  0  0  0
  185.9410  179.4160  143.1390 C   0  0  0  0  0  1  0  0  0  0  0  0
  183.7470  178.2910  142.6660 C   0  0  0  0  0  1  0  0  0  0  0  0
  1 16  1  1  0  0  0
  2 24  1  0  0  0  0
  3 11  2  0  0  0  0
  4  3  1  0  0  0  0
  4 21  2  0  0  0  0
  5 25  2  0  0  0  0
  6 18  2  0  0  0  0
  6  5  1  0  0  0  0
  7 24  1  1  0  0  0
  7 19  1  0  0  0  0
  8 17  1  0  0  0  0
  9 28  1  0  0  0  0
  9 15  2  0  0  0  0
 10  1  1  0  0  0  0
 11 13  1  0  0  0  0
 12  8  1  0  0  0  0
 12  2  1  0  0  0  0
 13 12  1  0  0  0  0
 14 27  1  0  0  0  0
 15 18  1  0  0  0  0
 17 10  1  0  0  0  0
 17  7  1  0  0  0  0
 19 16  2  0  0  0  0
 20 10  1  0  0  0  0
 20  1  1  0  0  0  0
 21 22  1  0  0  0  0
 22 13  1  0  0  0  0
 22 14  2  0  0  0  0
 23 14  1  0  0  0  0
 23 28  1  0  0  0  0
 26  9  1  0  0  0  0
 27  2  2  0  0  0  0
 27  5  1  0  0  0  0
 28  6  1  0  0  0  0
 29 20  1  0  0  0  0
 30 29  1  0  0  0  0
 31 30  1  0  0  0  0
 32 30  1  0  0  0  0
M  END
>  <MODEL>
3

>  <REMARK>
 VINA RESULT:      -8.5      2.678      4.721
  Name = 
  2 active torsions:
  status: ('A' for Active; 'I' for Inactive)
    1  A    between atoms: C_20  and  N_29
    2  A    between atoms: N_29  and  C_30
                            x       y       z     vdW  Elec       q    Type
                         _______ _______ _______ _____ _____    ______ ____

>  <TORSDO>
F 2

$$$$
=
 OpenBabel11112416333D

 32 38  0  0  1  0  0  0  0  0999 V2000
  186.2610  178.5390  143.0860 C   0  0  1  0  0  3  0  0  0  0  0  0
  189.6990  174.5630  143.5370 C   0  0  0  0  0  0  0  0  0  0  0  0
  193.0950  176.4150  146.4760 C   0  0  0  0  0  3  0  0  0  0  0  0
  193.8420  175.1440  146.4460 C   0  0  0  0  0  3  0  0  0  0  0  0
  189.9600  172.2610  142.5760 C   0  0  0  0  0  0  0  0  0  0  0  0
  190.8220  171.0840  142.5010 C   0  0  0  0  0  0  0  0  0  0  0  0
  187.6160  175.9100  143.1020 C   0  0  1  0  0  3  0  0  0  0  0  0
  189.2530  176.7420  144.7490 C   0  0  0  0  0  2  0  0  0  0  0  0
  192.5010  169.8230  142.8320 C   0  0  0  0  0  0  0  0  0  0  0  0
  187.5370  178.3610  143.9170 C   0  0  2  0  0  3  0  0  0  0  0  0
  191.8490  176.4920  146.0000 C   0  0  0  0  0  3  0  0  0  0  0  0
  190.1240  175.5930  144.4670 N   0  0  0  0  0  0  0  0  0  0  0  0
  191.1100  175.2670  145.5060 C   0  0  1  0  0  3  0  0  0  0  0  0
  191.6830  173.2420  144.1920 C   0  0  0  0  0  0  0  0  0  0  0  0
  191.5940  169.1420  142.0420 C   0  0  0  0  0  3  0  0  0  0  0  0
  186.0080  177.4600  142.0530 C   0  0  0  0  0  3  0  0  0  0  0  0
  188.4040  177.1350  143.5520 C   0  0  2  0  0  3  0  0  0  0  0  0
  190.5270  169.9480  141.8350 N   0  0  0  0  0  0  0  0  0  0  0  0
  186.6340  176.2770  142.0360 C   0  0  0  0  0  3  0  0  0  0  0  0
  186.1820  177.9890  144.5040 C   0  0  1  0  0  3  0  0  0  0  0  0
  193.3650  174.0880  145.7830 C   0  0  0  0  0  3  0  0  0  0  0  0
  192.0570  174.1660  145.0920 C   0  0  0  0  0  0  0  0  0  0  0  0
  192.6530  172.1310  143.8340 C   0  0  0  0  0  2  0  0  0  0  0  0
  188.5760  174.8630  142.5710 C   0  0  0  0  0  2  0  0  0  0  0  0
  188.8610  172.2590  141.9580 O   0  0  0  0  0  0  0  0  0  0  0  0
  193.8290  169.3130  143.2710 C   0  0  0  0  0  1  0  0  0  0  0  0
  190.3980  173.4030  143.4360 C   0  0  0  0  0  0  0  0  0  0  0  0
  192.0040  171.0340  143.1250 N   0  0  0  0  0  0  0  0  0  0  0  0
  185.7430  179.0480  145.4090 N   0  0  0  0  0  2  0  0  0  0  0  0
  185.2870  178.4880  146.6850 C   0  0  0  0  0  3  0  0  0  0  0  0
  185.0570  176.9870  146.5990 C   0  0  0  0  0  1  0  0  0  0  0  0
  186.2270  178.8380  147.8290 C   0  0  0  0  0  1  0  0  0  0  0  0
  1 16  1  6  0  0  0
  1 10  1  0  0  0  0
  1 20  1  0  0  0  0
  2 12  1  0  0  0  0
  4  3  1  0  0  0  0
  5 27  1  0  0  0  0
  6  5  1  0  0  0  0
  6 28  1  0  0  0  0
  7 19  1  6  0  0  0
  7 17  1  0  0  0  0
  9 28  1  0  0  0  0
  9 26  1  0  0  0  0
 10 20  1  0  0  0  0
 11  3  2  0  0  0  0
 12  8  1  0  0  0  0
 12 13  1  0  0  0  0
 13 11  1  0  0  0  0
 14 22  2  0  0  0  0
 15  9  2  0  0  0  0
 17 10  1  0  0  0  0
 17  8  1  0  0  0  0
 18 15  1  0  0  0  0
 18  6  2  0  0  0  0
 19 16  2  0  0  0  0
 20 29  1  0  0  0  0
 21  4  2  0  0  0  0
 22 13  1  0  0  0  0
 22 21  1  0  0  0  0
 23 14  1  0  0  0  0
 24  7  1  0  0  0  0
 24  2  1  0  0  0  0
 25  5  2  0  0  0  0
 27  2  2  0  0  0  0
 27 14  1  0  0  0  0
 28 23  1  0  0  0  0
 29 30  1  0  0  0  0
 30 32  1  0  0  0  0
 31 30  1  0  0  0  0
M  END
>  <MODEL>
4

>  <REMARK>
 VINA RESULT:      -8.3      1.159      1.312
  Name = 
  2 active torsions:
  status: ('A' for Active; 'I' for Inactive)
    1  A    between atoms: C_20  and  N_29
    2  A    between atoms: N_29  and  C_30
                            x       y       z     vdW  Elec       q    Type
                         _______ _______ _______ _____ _____    ______ ____

>  <TORSDO>
F 2

$$$$
=
 OpenBabel11112416333D

 32 38  0  0  1  0  0  0  0  0999 V2000
  192.3390  174.5900  143.8030 C   0  0  1  0  0  3  0  0  0  0  0  0
  187.5980  176.8770  143.4630 C   0  0  0  0  0  0  0  0  0  0  0  0
  186.6500  178.0620  148.0780 C   0  0  0  0  0  3  0  0  0  0  0  0
  185.3700  178.6740  147.6780 C   0  0  0  0  0  3  0  0  0  0  0  0
  185.9090  177.3130  141.6610 C   0  0  0  0  0  0  0  0  0  0  0  0
  184.5740  177.8270  141.3680 C   0  0  0  0  0  0  0  0  0  0  0  0
  189.8660  175.9360  142.9010 C   0  0  1  0  0  3  0  0  0  0  0  0
  189.4390  176.7330  145.1960 C   0  0  0  0  0  2  0  0  0  0  0  0
  182.6480  178.6650  141.6980 C   0  0  0  0  0  0  0  0  0  0  0  0
  191.4460  175.2840  144.8380 C   0  0  2  0  0  3  0  0  0  0  0  0
  187.5620  177.7170  147.1650 C   0  0  0  0  0  3  0  0  0  0  0  0
  188.0550  177.0590  144.8290 N   0  0  0  0  0  0  0  0  0  0  0  0
  187.3740  178.0290  145.6960 C   0  0  1  0  0  3  0  0  0  0  0  0
  185.4840  177.9950  144.0890 C   0  0  0  0  0  0  0  0  0  0  0  0
  182.8010  178.4470  140.3420 C   0  0  0  0  0  3  0  0  0  0  0  0
  191.6910  174.3370  142.4580 C   0  0  0  0  0  3  0  0  0  0  0  0
  190.0020  175.5830  144.3780 C   0  0  2  0  0  3  0  0  0  0  0  0
  184.0280  177.9150  140.1370 N   0  0  0  0  0  0  0  0  0  0  0  0
  190.5570  174.9210  142.0500 C   0  0  0  0  0  3  0  0  0  0  0  0
  192.5000  176.0790  144.0780 C   0  0  1  0  0  3  0  0  0  0  0  0
  185.0140  178.7340  146.3930 C   0  0  0  0  0  3  0  0  0  0  0  0
  185.9180  178.2140  145.3410 C   0  0  0  0  0  0  0  0  0  0  0  0
  184.0190  178.2300  143.7670 C   0  0  0  0  0  2  0  0  0  0  0  0
  188.3960  175.9920  142.5330 C   0  0  0  0  0  2  0  0  0  0  0  0
  186.6220  176.8810  140.7150 O   0  0  0  0  0  0  0  0  0  0  0  0
  181.4310  179.2100  142.3600 C   0  0  0  0  0  1  0  0  0  0  0  0
  186.3950  177.3730  143.0730 C   0  0  0  0  0  0  0  0  0  0  0  0
  183.7670  178.2860  142.3320 N   0  0  0  0  0  0  0  0  0  0  0  0
  193.6600  176.2890  144.9400 N   0  0  0  0  0  2  0  0  0  0  0  0
  194.7790  175.4380  144.5250 C   0  0  0  0  0  3  0  0  0  0  0  0
  195.5940  176.0710  143.4090 C   0  0  0  0  0  1  0  0  0  0  0  0
  195.6630  175.0450  145.7000 C   0  0  0  0  0  1  0  0  0  0  0  0
  1 16  1  6  0  0  0
  1 20  1  0  0  0  0
  1 10  1  0  0  0  0
  2 12  1  0  0  0  0
  4  3  1  0  0  0  0
  5 27  1  0  0  0  0
  6  5  1  0  0  0  0
  6 28  1  0  0  0  0
  7 19  1  6  0  0  0
  7 17  1  0  0  0  0
  9 28  1  0  0  0  0
  9 26  1  0  0  0  0
 11  3  2  0  0  0  0
 12  8  1  0  0  0  0
 12 13  1  0  0  0  0
 13 11  1  0  0  0  0
 14 22  2  0  0  0  0
 15  9  2  0  0  0  0
 17 10  1  0  0  0  0
 17  8  1  0  0  0  0
 18 15  1  0  0  0  0
 18  6  2  0  0  0  0
 19 16  2  0  0  0  0
 20 10  1  0  0  0  0
 20 29  1  0  0  0  0
 21  4  2  0  0  0  0
 22 13  1  0  0  0  0
 22 21  1  0  0  0  0
 23 14  1  0  0  0  0
 24  7  1  0  0  0  0
 24  2  1  0  0  0  0
 25  5  2  0  0  0  0
 27  2  2  0  0  0  0
 27 14  1  0  0  0  0
 28 23  1  0  0  0  0
 30 29  1  0  0  0  0
 30 32  1  0  0  0  0
 31 30  1  0  0  0  0
M  END
>  <MODEL>
5

>  <REMARK>
 VINA RESULT:      -8.2      2.573      7.741
  Name = 
  2 active torsions:
  status: ('A' for Active; 'I' for Inactive)
    1  A    between atoms: C_20  and  N_29
    2  A    between atoms: N_29  and  C_30
                            x       y       z     vdW  Elec       q    Type
                         _______ _______ _______ _____ _____    ______ ____

>  <TORSDO>
F 2

$$$$
=
 OpenBabel11112416333D

 32 38  0  0  1  0  0  0  0  0999 V2000
  185.6710  178.8800  143.5100 C   0  0  1  0  0  3  0  0  0  0  0  0
  188.9490  174.8830  142.4600 C   0  0  0  0  0  0  0  0  0  0  0  0
  192.1230  175.1110  146.1300 C   0  0  0  0  0  3  0  0  0  0  0  0
  192.8360  173.9290  145.6130 C   0  0  0  0  0  3  0  0  0  0  0  0
  189.2320  173.1890  140.6320 C   0  0  0  0  0  0  0  0  0  0  0  0
  190.0650  172.1030  140.1220 C   0  0  0  0  0  0  0  0  0  0  0  0
  186.9490  176.4120  142.4990 C   0  0  1  0  0  3  0  0  0  0  0  0
  188.4570  176.3700  144.4500 C   0  0  0  0  0  2  0  0  0  0  0  0
  191.6750  170.7210  139.9980 C   0  0  0  0  0  0  0  0  0  0  0  0
  186.8650  178.2910  144.2710 C   0  0  2  0  0  3  0  0  0  0  0  0
  190.9270  175.4580  145.6490 C   0  0  0  0  0  3  0  0  0  0  0  0
  189.3190  175.3960  143.7660 N   0  0  0  0  0  0  0  0  0  0  0  0
  190.2010  174.6030  144.6320 C   0  0  1  0  0  3  0  0  0  0  0  0
  190.8330  173.2900  142.6240 C   0  0  0  0  0  0  0  0  0  0  0  0
  190.8230  170.4920  138.9340 C   0  0  0  0  0  3  0  0  0  0  0  0
  185.4800  178.3550  142.1020 C   0  0  0  0  0  3  0  0  0  0  0  0
  187.7270  177.2830  143.4790 C   0  0  2  0  0  3  0  0  0  0  0  0
  189.8000  171.3740  139.0180 N   0  0  0  0  0  0  0  0  0  0  0  0
  186.0740  177.2530  141.6260 C   0  0  0  0  0  3  0  0  0  0  0  0
  185.4530  177.7900  144.5510 C   0  0  1  0  0  3  0  0  0  0  0  0
  192.3910  173.2820  144.5340 C   0  0  0  0  0  3  0  0  0  0  0  0
  191.1510  173.7240  143.8550 C   0  0  0  0  0  0  0  0  0  0  0  0
  191.8000  172.3760  141.8940 C   0  0  0  0  0  2  0  0  0  0  0  0
  187.9230  175.6300  141.6400 C   0  0  0  0  0  2  0  0  0  0  0  0
  188.1920  173.5150  139.9980 O   0  0  0  0  0  0  0  0  0  0  0  0
  192.9460  169.9920  140.2680 C   0  0  0  0  0  1  0  0  0  0  0  0
  189.6230  173.8330  141.9220 C   0  0  0  0  0  0  0  0  0  0  0  0
  191.1870  171.7230  140.7440 N   0  0  0  0  0  0  0  0  0  0  0  0
  184.9650  178.3930  145.7880 N   0  0  0  0  0  2  0  0  0  0  0  0
  185.9970  178.3540  146.8300 C   0  0  0  0  0  3  0  0  0  0  0  0
  185.9410  179.5740  147.7340 C   0  0  0  0  0  1  0  0  0  0  0  0
  185.9420  177.0650  147.6380 C   0  0  0  0  0  1  0  0  0  0  0  0
  1 16  1  6  0  0  0
  1 10  1  0  0  0  0
  1 20  1  0  0  0  0
  2 12  1  0  0  0  0
  4  3  1  0  0  0  0
  5 27  1  0  0  0  0
  6  5  1  0  0  0  0
  6 28  1  0  0  0  0
  7 19  1  6  0  0  0
  7 17  1  0  0  0  0
  9 26  1  0  0  0  0
  9 28  1  0  0  0  0
 10 20  1  0  0  0  0
 11  3  2  0  0  0  0
 12  8  1  0  0  0  0
 12 13  1  0  0  0  0
 13 11  1  0  0  0  0
 14 22  2  0  0  0  0
 15 18  1  0  0  0  0
 15  9  2  0  0  0  0
 17 10  1  0  0  0  0
 17  8  1  0  0  0  0
 18  6  2  0  0  0  0
 19 16  2  0  0  0  0
 20 29  1  0  0  0  0
 21  4  2  0  0  0  0
 22 21  1  0  0  0  0
 22 13  1  0  0  0  0
 23 14  1  0  0  0  0
 24  2  1  0  0  0  0
 24  7  1  0  0  0  0
 25  5  2  0  0  0  0
 27  2  2  0  0  0  0
 27 14  1  0  0  0  0
 28 23  1  0  0  0  0
 29 30  1  0  0  0  0
 30 32  1  0  0  0  0
 30 31  1  0  0  0  0
M  END
>  <MODEL>
6

>  <REMARK>
 VINA RESULT:      -8.2      1.017      1.363
  Name = 
  2 active torsions:
  status: ('A' for Active; 'I' for Inactive)
    1  A    between atoms: C_20  and  N_29
    2  A    between atoms: N_29  and  C_30
                            x       y       z     vdW  Elec       q    Type
                         _______ _______ _______ _____ _____    ______ ____

>  <TORSDO>
F 2

$$$$
=
 OpenBabel11112416333D

 32 38  0  0  1  0  0  0  0  0999 V2000
  190.5890  171.8260  139.5230 C   0  0  1  0  0  3  0  0  0  0  0  0
  188.8200  175.1820  143.1900 C   0  0  0  0  0  0  0  0  0  0  0  0
  192.3140  175.0200  146.5610 C   0  0  0  0  0  3  0  0  0  0  0  0
  191.6000  176.0200  147.3760 C   0  0  0  0  0  3  0  0  0  0  0  0
  186.7610  176.5680  143.5510 C   0  0  0  0  0  0  0  0  0  0  0  0
  186.0620  177.4580  144.4740 C   0  0  0  0  0  0  0  0  0  0  0  0
  189.1770  173.9490  141.0220 C   0  0  1  0  0  3  0  0  0  0  0  0
  191.0210  174.0470  142.6580 C   0  0  0  0  0  2  0  0  0  0  0  0
  185.6610  178.5870  146.2300 C   0  0  0  0  0  0  0  0  0  0  0  0
  191.1960  172.3470  140.8310 C   0  0  2  0  0  3  0  0  0  0  0  0
  191.9490  174.7740  145.3000 C   0  0  0  0  0  3  0  0  0  0  0  0
  190.1640  174.8000  143.5830 N   0  0  0  0  0  0  0  0  0  0  0  0
  190.8630  175.5760  144.6160 C   0  0  1  0  0  3  0  0  0  0  0  0
  188.6610  176.5190  145.2620 C   0  0  0  0  0  0  0  0  0  0  0  0
  184.6230  178.7840  145.3400 C   0  0  0  0  0  3  0  0  0  0  0  0
  189.1340  172.1830  139.3010 C   0  0  0  0  0  3  0  0  0  0  0  0
  190.2270  173.1190  141.7540 C   0  0  2  0  0  3  0  0  0  0  0  0
  184.8820  178.0640  144.2240 N   0  0  0  0  0  0  0  0  0  0  0  0
  188.4780  173.1230  139.9920 C   0  0  0  0  0  3  0  0  0  0  0  0
  191.4780  173.0630  139.5160 C   0  0  1  0  0  3  0  0  0  0  0  0
  190.4660  176.5720  146.9400 C   0  0  0  0  0  3  0  0  0  0  0  0
  189.9220  176.2130  145.6100 C   0  0  0  0  0  0  0  0  0  0  0  0
  187.7610  177.1930  146.2820 C   0  0  0  0  0  2  0  0  0  0  0  0
  188.1670  174.4750  142.0230 C   0  0  0  0  0  2  0  0  0  0  0  0
  186.2360  176.3020  142.4360 O   0  0  0  0  0  0  0  0  0  0  0  0
  185.7600  179.1700  147.5970 C   0  0  0  0  0  1  0  0  0  0  0  0
  188.1070  176.0530  143.9490 C   0  0  0  0  0  0  0  0  0  0  0  0
  186.5640  177.7650  145.6750 N   0  0  0  0  0  0  0  0  0  0  0  0
  192.8110  172.6970  139.0450 N   0  0  0  0  0  2  0  0  0  0  0  0
  193.5900  173.8930  138.7050 C   0  0  0  0  0  3  0  0  0  0  0  0
  192.9400  174.6990  137.5930 C   0  0  0  0  0  1  0  0  0  0  0  0
  193.8660  174.7590  139.9260 C   0  0  0  0  0  1  0  0  0  0  0  0
  1 16  1  1  0  0  0
  1 10  1  0  0  0  0
  2 12  1  0  0  0  0
  2 27  2  0  0  0  0
  3  4  1  0  0  0  0
  5 27  1  0  0  0  0
  5  6  1  0  0  0  0
  6 28  1  0  0  0  0
  7 19  1  6  0  0  0
  7 17  1  0  0  0  0
  7 24  1  0  0  0  0
  8 12  1  0  0  0  0
  9 26  1  0  0  0  0
 10 17  1  0  0  0  0
 11  3  2  0  0  0  0
 12 13  1  0  0  0  0
 13 11  1  0  0  0  0
 13 22  1  0  0  0  0
 14 22  2  0  0  0  0
 14 23  1  0  0  0  0
 15  9  2  0  0  0  0
 16 19  2  0  0  0  0
 17  8  1  0  0  0  0
 18  6  2  0  0  0  0
 18 15  1  0  0  0  0
 20  1  1  0  0  0  0
 20 10  1  0  0  0  0
 21  4  2  0  0  0  0
 22 21  1  0  0  0  0
 24  2  1  0  0  0  0
 25  5  2  0  0  0  0
 27 14  1  0  0  0  0
 28  9  1  0  0  0  0
 28 23  1  0  0  0  0
 29 20  1  0  0  0  0
 30 29  1  0  0  0  0
 30 32  1  0  0  0  0
 31 30  1  0  0  0  0
M  END
>  <MODEL>
7

>  <REMARK>
 VINA RESULT:      -8.2      2.104      7.492
  Name = 
  2 active torsions:
  status: ('A' for Active; 'I' for Inactive)
    1  A    between atoms: C_20  and  N_29
    2  A    between atoms: N_29  and  C_30
                            x       y       z     vdW  Elec       q    Type
                         _______ _______ _______ _____ _____    ______ ____

>  <TORSDO>
F 2

$$$$
=
 OpenBabel11112416333D

 32 38  0  0  1  0  0  0  0  0999 V2000
  185.6930  178.9460  143.6970 C   0  0  1  0  0  3  0  0  0  0  0  0
  188.7040  175.1120  141.6780 C   0  0  0  0  0  0  0  0  0  0  0  0
  191.7790  174.1440  145.3110 C   0  0  0  0  0  3  0  0  0  0  0  0
  192.4190  173.0830  144.5130 C   0  0  0  0  0  3  0  0  0  0  0  0
  188.9160  173.9290  139.4770 C   0  0  0  0  0  0  0  0  0  0  0  0
  189.6830  172.9500  138.7120 C   0  0  0  0  0  0  0  0  0  0  0  0
  186.8180  176.7300  142.0930 C   0  0  1  0  0  3  0  0  0  0  0  0
  188.2630  176.0710  143.9810 C   0  0  0  0  0  2  0  0  0  0  0  0
  191.1920  171.5260  138.2490 C   0  0  0  0  0  0  0  0  0  0  0  0
  186.8190  178.0900  144.2900 C   0  0  2  0  0  3  0  0  0  0  0  0
  190.6250  174.6940  144.9250 C   0  0  0  0  0  3  0  0  0  0  0  0
  189.0710  175.2420  143.0770 N   0  0  0  0  0  0  0  0  0  0  0  0
  189.8690  174.1880  143.7160 C   0  0  1  0  0  3  0  0  0  0  0  0
  190.4620  173.3910  141.4420 C   0  0  0  0  0  0  0  0  0  0  0  0
  190.3560  171.6450  137.1550 C   0  0  0  0  0  3  0  0  0  0  0  0
  185.5060  178.8160  142.2000 C   0  0  0  0  0  3  0  0  0  0  0  0
  187.6290  177.2560  143.2720 C   0  0  2  0  0  3  0  0  0  0  0  0
  189.3970  172.5520  137.4540 N   0  0  0  0  0  0  0  0  0  0  0  0
  186.0320  177.8320  141.4600 C   0  0  0  0  0  3  0  0  0  0  0  0
  185.3680  177.6440  144.4180 C   0  0  1  0  0  3  0  0  0  0  0  0
  191.9600  172.7720  143.2990 C   0  0  0  0  0  3  0  0  0  0  0  0
  190.7750  173.4680  142.7460 C   0  0  0  0  0  0  0  0  0  0  0  0
  191.3810  172.6240  140.5100 C   0  0  0  0  0  2  0  0  0  0  0  0
  187.7580  176.1220  141.0700 C   0  0  0  0  0  2  0  0  0  0  0  0
  187.9200  174.4860  138.9410 O   0  0  0  0  0  0  0  0  0  0  0  0
  192.3980  170.6570  138.3330 C   0  0  0  0  0  1  0  0  0  0  0  0
  189.3150  174.1870  140.8940 C   0  0  0  0  0  0  0  0  0  0  0  0
  190.7560  172.3370  139.2240 N   0  0  0  0  0  0  0  0  0  0  0  0
  184.8890  177.9450  145.7650 N   0  0  0  0  0  2  0  0  0  0  0  0
  186.0120  178.0770  146.7000 C   0  0  0  0  0  3  0  0  0  0  0  0
  185.8570  179.2860  147.6090 C   0  0  0  0  0  1  0  0  0  0  0  0
  186.2360  176.8060  147.5050 C   0  0  0  0  0  1  0  0  0  0  0  0
  1 16  1  6  0  0  0
  1 10  1  0  0  0  0
  1 20  1  0  0  0  0
  2 12  1  0  0  0  0
  4  3  1  0  0  0  0
  5 27  1  0  0  0  0
  6 28  1  0  0  0  0
  6  5  1  0  0  0  0
  7 24  1  6  0  0  0
  7 17  1  0  0  0  0
  9 26  1  0  0  0  0
  9 28  1  0  0  0  0
 10 20  1  0  0  0  0
 11  3  2  0  0  0  0
 12 13  1  0  0  0  0
 12  8  1  0  0  0  0
 13 11  1  0  0  0  0
 14 22  2  0  0  0  0
 15 18  1  0  0  0  0
 15  9  2  0  0  0  0
 17  8  1  0  0  0  0
 17 10  1  0  0  0  0
 18  6  2  0  0  0  0
 19  7  1  0  0  0  0
 19 16  2  0  0  0  0
 20 29  1  0  0  0  0
 21  4  2  0  0  0  0
 22 21  1  0  0  0  0
 22 13  1  0  0  0  0
 23 14  1  0  0  0  0
 24  2  1  0  0  0  0
 25  5  2  0  0  0  0
 27 14  1  0  0  0  0
 27  2  2  0  0  0  0
 28 23  1  0  0  0  0
 29 30  1  0  0  0  0
 30 32  1  0  0  0  0
 30 31  1  0  0  0  0
M  END
>  <MODEL>
8

>  <REMARK>
 VINA RESULT:      -8.1      1.644      2.327
  Name = 
  2 active torsions:
  status: ('A' for Active; 'I' for Inactive)
    1  A    between atoms: C_20  and  N_29
    2  A    between atoms: N_29  and  C_30
                            x       y       z     vdW  Elec       q    Type
                         _______ _______ _______ _____ _____    ______ ____

>  <TORSDO>
F 2

$$$$
=
 OpenBabel11112416333D

 32 38  0  0  1  0  0  0  0  0999 V2000
  192.3090  170.0120  142.9980 C   0  0  1  0  0  3  0  0  0  0  0  0
  189.6270  174.5040  143.6790 C   0  0  0  0  0  0  0  0  0  0  0  0
  191.2890  176.1030  147.9540 C   0  0  0  0  0  3  0  0  0  0  0  0
  190.4420  177.3050  147.8550 C   0  0  0  0  0  3  0  0  0  0  0  0
  187.8250  175.7530  142.4620 C   0  0  0  0  0  0  0  0  0  0  0  0
  186.9290  176.9050  142.5020 C   0  0  0  0  0  0  0  0  0  0  0  0
  190.7010  172.4690  142.6520 C   0  0  1  0  0  3  0  0  0  0  0  0
  191.6650  173.4140  144.7160 C   0  0  0  0  0  2  0  0  0  0  0  0
  185.9770  178.6620  143.2290 C   0  0  0  0  0  0  0  0  0  0  0  0
  192.3660  171.1000  144.0770 C   0  0  2  0  0  3  0  0  0  0  0  0
  191.4680  175.3000  146.9020 C   0  0  0  0  0  3  0  0  0  0  0  0
  190.6080  174.4340  144.7470 N   0  0  0  0  0  0  0  0  0  0  0  0
  190.9000  175.6350  145.5400 C   0  0  1  0  0  3  0  0  0  0  0  0
  188.7860  176.6040  144.6740 C   0  0  0  0  0  0  0  0  0  0  0  0
  185.4560  178.3690  141.9830 C   0  0  0  0  0  3  0  0  0  0  0  0
  191.1530  170.1260  142.0270 C   0  0  0  0  0  3  0  0  0  0  0  0
  191.2120  172.1280  144.0470 C   0  0  2  0  0  3  0  0  0  0  0  0
  186.0650  177.2510  141.5240 N   0  0  0  0  0  0  0  0  0  0  0  0
  190.4020  171.2250  141.8810 C   0  0  0  0  0  3  0  0  0  0  0  0
  193.2770  171.1790  142.8590 C   0  0  1  0  0  3  0  0  0  0  0  0
  189.6910  177.5240  146.7740 C   0  0  0  0  0  3  0  0  0  0  0  0
  189.7220  176.5750  145.6370 C   0  0  0  0  0  0  0  0  0  0  0  0
  187.6390  177.5910  144.7930 C   0  0  0  0  0  2  0  0  0  0  0  0
  189.4440  173.3090  142.7710 C   0  0  0  0  0  2  0  0  0  0  0  0
  187.7940  174.9840  141.4630 O   0  0  0  0  0  0  0  0  0  0  0  0
  185.5630  179.7940  144.1030 C   0  0  0  0  0  1  0  0  0  0  0  0
  188.7860  175.5660  143.5910 C   0  0  0  0  0  0  0  0  0  0  0  0
  186.9080  177.7470  143.5410 N   0  0  0  0  0  0  0  0  0  0  0  0
  194.6190  170.7410  143.2330 N   0  0  0  0  0  2  0  0  0  0  0  0
  195.5150  171.8900  143.4010 C   0  0  0  0  0  3  0  0  0  0  0  0
  195.0210  173.1130  142.6450 C   0  0  0  0  0  1  0  0  0  0  0  0
  195.7630  172.2100  144.8680 C   0  0  0  0  0  1  0  0  0  0  0  0
  1 16  1  6  0  0  0
  1 10  1  0  0  0  0
  2 12  1  0  0  0  0
  4  3  1  0  0  0  0
  5  6  1  0  0  0  0
  5 27  1  0  0  0  0
  6 28  1  0  0  0  0
  7 19  1  1  0  0  0
  7 24  1  0  0  0  0
  7 17  1  0  0  0  0
  8 12  1  0  0  0  0
  9 28  1  0  0  0  0
  9 26  1  0  0  0  0
 11  3  2  0  0  0  0
 12 13  1  0  0  0  0
 13 22  1  0  0  0  0
 13 11  1  0  0  0  0
 14 23  1  0  0  0  0
 14 22  2  0  0  0  0
 15  9  2  0  0  0  0
 17 10  1  0  0  0  0
 17  8  1  0  0  0  0
 18 15  1  0  0  0  0
 18  6  2  0  0  0  0
 19 16  2  0  0  0  0
 20  1  1  0  0  0  0
 20 29  1  0  0  0  0
 20 10  1  0  0  0  0
 21  4  2  0  0  0  0
 22 21  1  0  0  0  0
 24  2  1  0  0  0  0
 25  5  2  0  0  0  0
 27  2  2  0  0  0  0
 27 14  1  0  0  0  0
 28 23  1  0  0  0  0
 29 30  1  0  0  0  0
 30 32  1  0  0  0  0
 31 30  1  0  0  0  0
M  END
>  <MODEL>
9

>  <REMARK>
 VINA RESULT:      -8.0      1.948      7.631
  Name = 
  2 active torsions:
  status: ('A' for Active; 'I' for Inactive)
    1  A    between atoms: C_20  and  N_29
    2  A    between atoms: N_29  and  C_30
                            x       y       z     vdW  Elec       q    Type
                         _______ _______ _______ _____ _____    ______ ____

>  <TORSDO>
F 2

$$$$
