=
 OpenBabel11112417163D

 37 44  0  0  1  0  0  0  0  0999 V2000
  191.8690  173.8170  141.3410 C   0  0  0  0  0  2  0  0  0  0  0  0
  195.4750  176.0820  142.7590 C   0  0  0  0  0  0  0  0  0  0  0  0
  192.1050  176.2200  145.2820 C   0  0  0  0  0  0  0  0  0  0  0  0
  191.5740  173.5430  139.9300 N   0  0  0  0  0  0  0  0  0  0  0  0
  189.0530  174.3890  144.2980 C   0  0  0  0  0  3  0  0  0  0  0  0
  194.4640  176.7200  144.9580 C   0  0  0  0  0  0  0  0  0  0  0  0
  191.1320  175.7540  144.4880 C   0  0  0  0  0  0  0  0  0  0  0  0
  189.4450  172.6830  140.8960 C   0  0  0  0  0  0  0  0  0  0  0  0
  193.2700  176.4240  144.4930 C   0  0  0  0  0  0  0  0  0  0  0  0
  189.7540  175.3320  144.9530 C   0  0  0  0  0  0  0  0  0  0  0  0
  194.6230  177.0400  146.4310 C   0  0  0  0  0  2  0  0  0  0  0  0
  190.1590  173.2180  139.6860 C   0  0  0  0  0  2  0  0  0  0  0  0
  193.0030  176.0500  143.1550 C   0  0  0  0  0  0  0  0  0  0  0  0
  195.8740  174.6260  142.9190 C   0  0  0  0  0  1  0  0  0  0  0  0
  191.0350  176.0760  147.6200 C   0  0  0  0  0  2  0  0  0  0  0  0
  193.3830  176.7220  147.2730 C   0  0  0  0  0  3  0  0  0  0  0  0
  194.0670  176.1430  142.1060 C   0  0  0  0  0  2  0  0  0  0  0  0
  188.8290  173.6320  141.8790 C   0  0  1  0  0  3  0  0  0  0  0  0
  189.6220  173.7520  143.0920 C   0  0  1  0  0  3  0  0  0  0  0  0
  192.1990  176.3620  146.7410 C   0  0  0  0  0  0  0  0  0  0  0  0
  191.7380  175.6300  143.0980 C   0  0  0  0  0  0  0  0  0  0  0  0
  195.5390  176.7320  144.0520 O   0  0  0  0  0  0  0  0  0  0  0  0
  189.0170  176.0080  146.0970 C   0  0  1  0  0  3  0  0  0  0  0  0
  196.4690  176.7450  141.8300 C   0  0  0  0  0  1  0  0  0  0  0  0
  189.6490  174.8530  142.1050 N   0  0  1  0  0  0  0  0  0  0  0  0
  189.3740  171.4780  141.0780 O   0  0  0  0  0  0  0  0  0  0  0  0
  191.0920  175.0420  141.8570 C   0  0  2  0  0  3  0  0  0  0  0  0
  189.8360  176.8330  147.0900 C   0  0  0  0  0  2  0  0  0  0  0  0
  188.0250  177.5930  144.4330 C   0  0  0  0  0  3  0  0  0  0  0  0
  187.8670  176.8290  145.5950 C   0  0  0  0  0  0  0  0  0  0  0  0
  186.6410  176.8460  146.2770 C   0  0  0  0  0  3  0  0  0  0  0  0
  184.3410  177.6390  146.4910 N   0  0  0  0  0  1  0  0  0  0  0  0
  185.7450  178.3850  144.6360 C   0  0  0  0  0  3  0  0  0  0  0  0
  185.5830  177.6230  145.7970 C   0  0  0  0  0  0  0  0  0  0  0  0
  186.9650  178.3690  143.9540 C   0  0  0  0  0  3  0  0  0  0  0  0
  193.1940  171.9100  140.7190 C   0  0  0  0  0  1  0  0  0  0  0  0
  192.3560  172.3790  139.5450 C   0  0  0  0  0  2  0  0  0  0  0  0
  1 27  1  0  0  0  0
  2 14  1  0  0  0  0
  2 22  1  0  0  0  0
  3 20  1  0  0  0  0
  4  1  1  0  0  0  0
  5 10  2  0  0  0  0
  6 11  1  0  0  0  0
  7 10  1  0  0  0  0
  7  3  2  0  0  0  0
  8 26  2  0  0  0  0
  9  6  2  0  0  0  0
  9  3  1  0  0  0  0
 10 23  1  0  0  0  0
 11 16  1  0  0  0  0
 12  4  1  0  0  0  0
 12  8  1  0  0  0  0
 13  9  1  0  0  0  0
 17  2  1  0  0  0  0
 17 13  1  0  0  0  0
 18  8  1  6  0  0  0
 18 25  1  0  0  0  0
 18 19  1  0  0  0  0
 19  5  1  1  0  0  0
 20 16  2  0  0  0  0
 20 15  1  0  0  0  0
 21 13  2  0  0  0  0
 21  7  1  0  0  0  0
 22  6  1  0  0  0  0
 23 30  1  6  0  0  0
 23 28  1  0  0  0  0
 24  2  1  0  0  0  0
 25 19  1  0  0  0  0
 27 25  1  0  0  0  0
 27 21  1  0  0  0  0
 28 15  1  0  0  0  0
 29 30  1  0  0  0  0
 30 31  2  0  0  0  0
 33 34  2  0  0  0  0
 34 31  1  0  0  0  0
 34 32  1  0  0  0  0
 35 29  2  0  0  0  0
 35 33  1  0  0  0  0
 37  4  1  0  0  0  0
 37 36  1  0  0  0  0
M  END
>  <MODEL>
1

>  <REMARK>
 VINA RESULT:      -9.4      0.000      0.000
  Name = 
  2 active torsions:
  status: ('A' for Active; 'I' for Inactive)
    1  A    between atoms: N_4  and  C_37
    2  A    between atoms: C_23  and  C_30
                            x       y       z     vdW  Elec       q    Type
                         _______ _______ _______ _____ _____    ______ ____

>  <TORSDO>
F 2

$$$$
=
 OpenBabel11112417163D

 37 44  0  0  1  0  0  0  0  0999 V2000
  192.1120  174.3700  144.5820 C   0  0  0  0  0  2  0  0  0  0  0  0
  190.6470  171.5100  141.4480 C   0  0  0  0  0  0  0  0  0  0  0  0
  188.5560  175.1550  141.7360 C   0  0  0  0  0  0  0  0  0  0  0  0
  192.8110  173.9610  145.8050 N   0  0  0  0  0  0  0  0  0  0  0  0
  189.6380  177.6500  144.2350 C   0  0  0  0  0  3  0  0  0  0  0  0
  188.9400  173.0850  140.5160 C   0  0  0  0  0  0  0  0  0  0  0  0
  188.9830  175.6400  142.9080 C   0  0  2  0  0  3  0  0  0  0  0  0
  192.5610  176.3780  146.3490 C   0  0  0  0  0  0  0  0  0  0  0  0
  189.0270  173.8200  141.6030 C   0  0  0  0  0  0  0  0  0  0  0  0
  188.7660  177.0570  143.3980 C   0  0  0  0  0  0  0  0  0  0  0  0
  188.1370  173.6010  139.3390 C   0  0  0  0  0  3  0  0  0  0  0  0
  192.7720  174.9820  146.8640 C   0  0  0  0  0  2  0  0  0  0  0  0
  189.7930  173.4770  142.7420 C   0  0  0  0  0  0  0  0  0  0  0  0
  191.9740  172.0010  140.9000 C   0  0  0  0  0  1  0  0  0  0  0  0
  187.4610  177.2140  140.6450 C   0  0  0  0  0  2  0  0  0  0  0  0
  187.7230  175.0710  139.4670 C   0  0  0  0  0  3  0  0  0  0  0  0
  190.4310  172.1280  142.8580 C   0  0  0  0  0  2  0  0  0  0  0  0
  191.1690  176.8840  146.1160 C   0  0  1  0  0  3  0  0  0  0  0  0
  190.8280  176.9110  144.7020 C   0  0  1  0  0  3  0  0  0  0  0  0
  187.8940  175.7940  140.5910 C   0  0  0  0  0  0  0  0  0  0  0  0
  189.8090  174.5360  143.5520 C   0  0  0  0  0  0  0  0  0  0  0  0
  189.5970  171.8420  140.5080 O   0  0  0  0  0  0  0  0  0  0  0  0
  187.5150  177.8630  143.0890 C   0  0  1  0  0  3  0  0  0  0  0  0
  190.7210  170.0040  141.5860 C   0  0  0  0  0  1  0  0  0  0  0  0
  190.2570  175.8500  145.5590 N   0  0  1  0  0  0  0  0  0  0  0  0
  193.5220  177.0940  146.1170 O   0  0  0  0  0  0  0  0  0  0  0  0
  190.6130  174.6120  144.8370 C   0  0  2  0  0  3  0  0  0  0  0  0
  186.6510  177.4210  141.9070 C   0  0  0  0  0  2  0  0  0  0  0  0
  185.6590  179.0050  144.3210 C   0  0  0  0  0  3  0  0  0  0  0  0
  186.6540  178.0190  144.3060 C   0  0  0  0  0  0  0  0  0  0  0  0
  186.8340  177.1960  145.4280 C   0  0  0  0  0  3  0  0  0  0  0  0
  186.2110  176.5270  147.6920 N   0  0  0  0  0  1  0  0  0  0  0  0
  185.0340  178.3480  146.5670 C   0  0  0  0  0  3  0  0  0  0  0  0
  186.0250  177.3610  146.5560 C   0  0  0  0  0  0  0  0  0  0  0  0
  184.8510  179.1680  145.4500 C   0  0  0  0  0  3  0  0  0  0  0  0
  194.4150  174.0360  143.9780 C   0  0  0  0  0  1  0  0  0  0  0  0
  194.2070  173.7560  145.4550 C   0  0  0  0  0  2  0  0  0  0  0  0
  1 27  1  0  0  0  0
  1  4  1  0  0  0  0
  2 24  1  0  0  0  0
  2 17  1  0  0  0  0
  4 12  1  0  0  0  0
  6  9  1  0  0  0  0
  7  3  1  6  0  0  0
  7 10  1  0  0  0  0
  7 21  1  0  0  0  0
  8 12  1  0  0  0  0
  9  3  2  0  0  0  0
  9 13  1  0  0  0  0
 10  5  2  0  0  0  0
 11 16  1  0  0  0  0
 11  6  2  0  0  0  0
 13 17  1  0  0  0  0
 13 21  2  0  0  0  0
 14  2  1  0  0  0  0
 15 28  1  0  0  0  0
 16 20  2  0  0  0  0
 18  8  1  6  0  0  0
 19  5  1  1  0  0  0
 19 25  1  0  0  0  0
 19 18  1  0  0  0  0
 20 15  1  0  0  0  0
 20  3  1  0  0  0  0
 21 27  1  0  0  0  0
 22  6  1  0  0  0  0
 22  2  1  0  0  0  0
 23 10  1  0  0  0  0
 23 30  1  1  0  0  0
 25 18  1  0  0  0  0
 26  8  2  0  0  0  0
 27 25  1  0  0  0  0
 28 23  1  0  0  0  0
 29 35  1  0  0  0  0
 30 29  2  0  0  0  0
 30 31  1  0  0  0  0
 31 34  2  0  0  0  0
 34 33  1  0  0  0  0
 34 32  1  0  0  0  0
 35 33  2  0  0  0  0
 36 37  1  0  0  0  0
 37  4  1  0  0  0  0
M  END
>  <MODEL>
2

>  <REMARK>
 VINA RESULT:      -9.0      2.093      5.667
  Name = 
  2 active torsions:
  status: ('A' for Active; 'I' for Inactive)
    1  A    between atoms: N_4  and  C_37
    2  A    between atoms: C_23  and  C_30
                            x       y       z     vdW  Elec       q    Type
                         _______ _______ _______ _____ _____    ______ ____

>  <TORSDO>
F 2

$$$$
=
 OpenBabel11112417163D

 37 44  0  0  1  0  0  0  0  0999 V2000
  192.3700  172.8940  141.7880 C   0  0  0  0  0  2  0  0  0  0  0  0
  195.6670  175.8710  142.4310 C   0  0  0  0  0  0  0  0  0  0  0  0
  192.5240  175.9710  145.2330 C   0  0  0  0  0  0  0  0  0  0  0  0
  192.0140  172.3330  140.4800 N   0  0  0  0  0  0  0  0  0  0  0  0
  189.7370  173.5740  144.8870 C   0  0  0  0  0  3  0  0  0  0  0  0
  194.7410  176.7390  144.5880 C   0  0  0  0  0  0  0  0  0  0  0  0
  191.5800  175.2360  144.6330 C   0  0  0  0  0  0  0  0  0  0  0  0
  190.1320  171.3620  141.7900 C   0  0  0  0  0  0  0  0  0  0  0  0
  193.5770  176.1960  144.3050 C   0  0  0  0  0  0  0  0  0  0  0  0
  190.3270  174.7100  145.3010 C   0  0  0  0  0  0  0  0  0  0  0  0
  194.9610  177.3360  145.9640 C   0  0  0  0  0  2  0  0  0  0  0  0
  190.6540  171.7700  140.4410 C   0  0  0  0  0  2  0  0  0  0  0  0
  193.2700  175.5540  143.0820 C   0  0  0  0  0  0  0  0  0  0  0  0
  196.3040  174.5400  142.7860 C   0  0  0  0  0  1  0  0  0  0  0  0
  191.6760  176.0950  147.6610 C   0  0  0  0  0  2  0  0  0  0  0  0
  193.8560  176.9990  146.9710 C   0  0  0  0  0  3  0  0  0  0  0  0
  194.2210  175.6110  141.9270 C   0  0  0  0  0  2  0  0  0  0  0  0
  189.4500  172.3730  142.6620 C   0  0  1  0  0  3  0  0  0  0  0  0
  190.3050  172.8200  143.7500 C   0  0  1  0  0  3  0  0  0  0  0  0
  192.7070  176.3840  146.6310 C   0  0  0  0  0  0  0  0  0  0  0  0
  192.0880  174.9540  143.2270 C   0  0  0  0  0  0  0  0  0  0  0  0
  195.7260  176.7430  143.5850 O   0  0  0  0  0  0  0  0  0  0  0  0
  189.5820  175.4660  146.3890 C   0  0  1  0  0  3  0  0  0  0  0  0
  196.4680  176.4930  141.3070 C   0  0  0  0  0  1  0  0  0  0  0  0
  190.0790  173.7200  142.5980 N   0  0  1  0  0  0  0  0  0  0  0  0
  190.2670  170.2120  142.1740 O   0  0  0  0  0  0  0  0  0  0  0  0
  191.4500  174.0670  142.1730 C   0  0  2  0  0  3  0  0  0  0  0  0
  190.3340  176.5640  147.1420 C   0  0  0  0  0  2  0  0  0  0  0  0
  187.2590  176.3070  146.7910 C   0  0  0  0  0  3  0  0  0  0  0  0
  188.2810  176.0100  145.8810 C   0  0  0  0  0  0  0  0  0  0  0  0
  188.0730  176.2210  144.5100 C   0  0  0  0  0  3  0  0  0  0  0  0
  186.6430  176.9340  142.6630 N   0  0  0  0  0  1  0  0  0  0  0  0
  185.8320  177.0160  144.9660 C   0  0  0  0  0  3  0  0  0  0  0  0
  186.8510  176.7230  144.0540 C   0  0  0  0  0  0  0  0  0  0  0  0
  186.0360  176.8090  146.3330 C   0  0  0  0  0  3  0  0  0  0  0  0
  193.5730  171.4290  138.8460 C   0  0  0  0  0  1  0  0  0  0  0  0
  192.9390  171.2440  140.2120 C   0  0  0  0  0  2  0  0  0  0  0  0
  1 27  1  0  0  0  0
  2 14  1  0  0  0  0
  2 22  1  0  0  0  0
  3 20  1  0  0  0  0
  4  1  1  0  0  0  0
  5 10  2  0  0  0  0
  6 11  1  0  0  0  0
  7  3  2  0  0  0  0
  7 10  1  0  0  0  0
  8 26  2  0  0  0  0
  9  6  2  0  0  0  0
  9  3  1  0  0  0  0
 10 23  1  0  0  0  0
 11 16  1  0  0  0  0
 12  4  1  0  0  0  0
 12  8  1  0  0  0  0
 13 21  2  0  0  0  0
 13  9  1  0  0  0  0
 17  2  1  0  0  0  0
 17 13  1  0  0  0  0
 18  8  1  6  0  0  0
 18 19  1  0  0  0  0
 19  5  1  1  0  0  0
 20 16  2  0  0  0  0
 20 15  1  0  0  0  0
 21  7  1  0  0  0  0
 22  6  1  0  0  0  0
 23 30  1  6  0  0  0
 23 28  1  0  0  0  0
 24  2  1  0  0  0  0
 25 18  1  0  0  0  0
 25 19  1  0  0  0  0
 27 25  1  0  0  0  0
 27 21  1  0  0  0  0
 28 15  1  0  0  0  0
 30 29  2  0  0  0  0
 31 30  1  0  0  0  0
 32 34  1  0  0  0  0
 33 35  2  0  0  0  0
 34 31  2  0  0  0  0
 34 33  1  0  0  0  0
 35 29  1  0  0  0  0
 36 37  1  0  0  0  0
 37  4  1  0  0  0  0
M  END
>  <MODEL>
3

>  <REMARK>
 VINA RESULT:      -9.0      1.269      1.519
  Name = 
  2 active torsions:
  status: ('A' for Active; 'I' for Inactive)
    1  A    between atoms: N_4  and  C_37
    2  A    between atoms: C_23  and  C_30
                            x       y       z     vdW  Elec       q    Type
                         _______ _______ _______ _____ _____    ______ ____

>  <TORSDO>
F 2

$$$$
=
 OpenBabel11112417163D

 37 44  0  0  1  0  0  0  0  0999 V2000
  190.8730  172.4710  142.4650 C   0  0  0  0  0  2  0  0  0  0  0  0
  189.9070  175.7140  145.4140 C   0  0  0  0  0  0  0  0  0  0  0  0
  193.8500  174.2390  145.5260 C   0  0  0  0  0  0  0  0  0  0  0  0
  189.8820  171.5420  141.9120 N   0  0  0  0  0  0  0  0  0  0  0  0
  194.8420  171.5900  143.1520 C   0  0  0  0  0  3  0  0  0  0  0  0
  192.2470  175.9070  146.2800 C   0  0  0  0  0  0  0  0  0  0  0  0
  193.7590  173.1170  144.8010 C   0  0  0  0  0  0  0  0  0  0  0  0
  191.9170  170.4780  140.9500 C   0  0  0  0  0  0  0  0  0  0  0  0
  192.5380  174.7410  145.7470 C   0  0  0  0  0  0  0  0  0  0  0  0
  194.9340  172.3150  144.2810 C   0  0  0  0  0  0  0  0  0  0  0  0
  193.3620  176.7470  146.8700 C   0  0  0  0  0  2  0  0  0  0  0  0
  190.4800  170.3160  141.3600 C   0  0  0  0  0  2  0  0  0  0  0  0
  191.5990  173.8940  145.1130 C   0  0  0  0  0  0  0  0  0  0  0  0
  189.9240  176.4320  144.0760 C   0  0  0  0  0  1  0  0  0  0  0  0
  196.3940  174.6200  145.6470 C   0  0  0  0  0  2  0  0  0  0  0  0
  194.7680  176.2360  146.5370 C   0  0  0  0  0  3  0  0  0  0  0  0
  190.1340  174.1970  145.1670 C   0  0  0  0  0  2  0  0  0  0  0  0
  193.0060  170.2900  141.9630 C   0  0  1  0  0  3  0  0  0  0  0  0
  193.5710  171.5570  142.3990 C   0  0  1  0  0  3  0  0  0  0  0  0
  195.0020  175.0550  145.9320 C   0  0  0  0  0  0  0  0  0  0  0  0
  192.2780  172.9090  144.5210 C   0  0  0  0  0  0  0  0  0  0  0  0
  190.9010  176.3120  146.2810 O   0  0  0  0  0  0  0  0  0  0  0  0
  196.2440  172.1690  145.0390 C   0  0  1  0  0  3  0  0  0  0  0  0
  188.5390  175.9050  146.0350 C   0  0  0  0  0  1  0  0  0  0  0  0
  192.6560  170.8280  143.3050 N   0  0  1  0  0  0  0  0  0  0  0  0
  192.1940  170.7670  139.7970 O   0  0  0  0  0  0  0  0  0  0  0  0
  191.6420  171.8460  143.6430 C   0  0  2  0  0  3  0  0  0  0  0  0
  196.5600  173.1950  146.1290 C   0  0  0  0  0  2  0  0  0  0  0  0
  197.5870  170.0820  145.3600 C   0  0  0  0  0  3  0  0  0  0  0  0
  196.4000  170.7860  145.5950 C   0  0  0  0  0  0  0  0  0  0  0  0
  195.3730  170.1880  146.3420 C   0  0  0  0  0  3  0  0  0  0  0  0
  194.4920  168.2910  147.6010 N   0  0  0  0  0  1  0  0  0  0  0  0
  196.7220  168.1950  146.6090 C   0  0  0  0  0  3  0  0  0  0  0  0
  195.5350  168.8950  146.8460 C   0  0  0  0  0  0  0  0  0  0  0  0
  197.7470  168.7880  145.8670 C   0  0  0  0  0  3  0  0  0  0  0  0
  189.5450  173.7070  140.8560 C   0  0  0  0  0  1  0  0  0  0  0  0
  189.2130  172.2270  140.8170 C   0  0  0  0  0  2  0  0  0  0  0  0
  1 27  1  0  0  0  0
  2 24  1  0  0  0  0
  2 22  1  0  0  0  0
  3  9  1  0  0  0  0
  3 20  1  0  0  0  0
  4  1  1  0  0  0  0
  5 10  2  0  0  0  0
  6 22  1  0  0  0  0
  6 11  1  0  0  0  0
  7  3  2  0  0  0  0
  8 12  1  0  0  0  0
  9  6  2  0  0  0  0
 10  7  1  0  0  0  0
 10 23  1  0  0  0  0
 12  4  1  0  0  0  0
 13 17  1  0  0  0  0
 13  9  1  0  0  0  0
 14  2  1  0  0  0  0
 15 20  1  0  0  0  0
 15 28  1  0  0  0  0
 16 11  1  0  0  0  0
 17  2  1  0  0  0  0
 18  8  1  6  0  0  0
 18 19  1  0  0  0  0
 18 25  1  0  0  0  0
 19  5  1  1  0  0  0
 19 25  1  0  0  0  0
 20 16  2  0  0  0  0
 21  7  1  0  0  0  0
 21 13  2  0  0  0  0
 23 30  1  1  0  0  0
 23 28  1  0  0  0  0
 25 27  1  0  0  0  0
 26  8  2  0  0  0  0
 27 21  1  0  0  0  0
 29 30  2  0  0  0  0
 29 35  1  0  0  0  0
 30 31  1  0  0  0  0
 31 34  2  0  0  0  0
 33 34  1  0  0  0  0
 34 32  1  0  0  0  0
 35 33  2  0  0  0  0
 37 36  1  0  0  0  0
 37  4  1  0  0  0  0
M  END
>  <MODEL>
4

>  <REMARK>
 VINA RESULT:      -8.3      3.738      7.120
  Name = 
  2 active torsions:
  status: ('A' for Active; 'I' for Inactive)
    1  A    between atoms: N_4  and  C_37
    2  A    between atoms: C_23  and  C_30
                            x       y       z     vdW  Elec       q    Type
                         _______ _______ _______ _____ _____    ______ ____

>  <TORSDO>
F 2

$$$$
=
 OpenBabel11112417163D

 37 44  0  0  1  0  0  0  0  0999 V2000
  191.8040  173.2710  141.0150 C   0  0  0  0  0  2  0  0  0  0  0  0
  194.5050  175.4690  143.8480 C   0  0  0  0  0  0  0  0  0  0  0  0
  190.3720  175.9280  144.5160 C   0  0  0  0  0  0  0  0  0  0  0  0
  192.1710  172.9140  139.6410 N   0  0  0  0  0  0  0  0  0  0  0  0
  187.9930  174.1680  142.3070 C   0  0  0  0  0  3  0  0  0  0  0  0
  192.6450  176.3010  145.3010 C   0  0  0  0  0  0  0  0  0  0  0  0
  189.8420  175.4510  143.3820 C   0  0  0  0  0  0  0  0  0  0  0  0
  189.7830  172.2160  139.5460 C   0  0  0  0  0  0  0  0  0  0  0  0
  191.7800  176.0260  144.3480 C   0  0  0  0  0  0  0  0  0  0  0  0
  188.3790  175.1230  143.1730 C   0  0  0  0  0  0  0  0  0  0  0  0
  192.1310  176.7140  146.6660 C   0  0  0  0  0  2  0  0  0  0  0  0
  191.0080  172.6350  138.7840 C   0  0  0  0  0  2  0  0  0  0  0  0
  192.1320  175.5720  143.0550 C   0  0  0  0  0  0  0  0  0  0  0  0
  194.6820  174.0120  144.2330 C   0  0  0  0  0  1  0  0  0  0  0  0
  188.3400  175.9930  146.0970 C   0  0  0  0  0  2  0  0  0  0  0  0
  190.6240  176.5100  146.8500 C   0  0  0  0  0  3  0  0  0  0  0  0
  193.5620  175.5470  142.6150 C   0  0  0  0  0  2  0  0  0  0  0  0
  188.8520  173.2570  140.0930 C   0  0  1  0  0  3  0  0  0  0  0  0
  189.0060  173.4250  141.5290 C   0  0  1  0  0  3  0  0  0  0  0  0
  189.7950  176.1660  145.8450 C   0  0  0  0  0  0  0  0  0  0  0  0
  191.0080  175.2050  142.4360 C   0  0  0  0  0  0  0  0  0  0  0  0
  194.0130  176.2030  144.9950 O   0  0  0  0  0  0  0  0  0  0  0  0
  187.2480  175.9070  143.8170 C   0  0  1  0  0  3  0  0  0  0  0  0
  195.8590  176.0220  143.4580 C   0  0  0  0  0  1  0  0  0  0  0  0
  189.5610  174.4530  140.6220 N   0  0  1  0  0  0  0  0  0  0  0  0
  189.5510  171.0310  139.7240 O   0  0  0  0  0  0  0  0  0  0  0  0
  190.9660  174.5620  141.0620 C   0  0  2  0  0  3  0  0  0  0  0  0
  187.5750  176.7630  145.0420 C   0  0  0  0  0  2  0  0  0  0  0  0
  187.1230  177.0100  141.5730 C   0  0  0  0  0  3  0  0  0  0  0  0
  186.5190  176.7410  142.8070 C   0  0  0  0  0  0  0  0  0  0  0  0
  185.2440  177.2580  143.0840 C   0  0  0  0  0  3  0  0  0  0  0  0
  183.2910  178.5640  142.4160 N   0  0  0  0  0  1  0  0  0  0  0  0
  185.1910  178.3060  140.9010 C   0  0  0  0  0  3  0  0  0  0  0  0
  184.5830  178.0400  142.1320 C   0  0  0  0  0  0  0  0  0  0  0  0
  186.4600  177.7910  140.6220 C   0  0  0  0  0  3  0  0  0  0  0  0
  193.0710  171.2320  141.1510 C   0  0  0  0  0  1  0  0  0  0  0  0
  192.9590  171.6930  139.7090 C   0  0  0  0  0  2  0  0  0  0  0  0
  1 27  1  0  0  0  0
  2 14  1  0  0  0  0
  2 22  1  0  0  0  0
  3 20  1  0  0  0  0
  4 37  1  0  0  0  0
  4  1  1  0  0  0  0
  5 10  2  0  0  0  0
  6 11  1  0  0  0  0
  7  3  2  0  0  0  0
  8 26  2  0  0  0  0
  9  3  1  0  0  0  0
  9  6  2  0  0  0  0
 10  7  1  0  0  0  0
 10 23  1  0  0  0  0
 11 16  1  0  0  0  0
 12  8  1  0  0  0  0
 12  4  1  0  0  0  0
 13  9  1  0  0  0  0
 17 13  1  0  0  0  0
 17  2  1  0  0  0  0
 18  8  1  6  0  0  0
 18 25  1  0  0  0  0
 18 19  1  0  0  0  0
 19  5  1  1  0  0  0
 20 15  1  0  0  0  0
 20 16  2  0  0  0  0
 21 13  2  0  0  0  0
 21  7  1  0  0  0  0
 22  6  1  0  0  0  0
 23 30  1  6  0  0  0
 23 28  1  0  0  0  0
 24  2  1  0  0  0  0
 25 27  1  0  0  0  0
 25 19  1  0  0  0  0
 27 21  1  0  0  0  0
 28 15  1  0  0  0  0
 29 30  1  0  0  0  0
 30 31  2  0  0  0  0
 33 34  2  0  0  0  0
 34 32  1  0  0  0  0
 34 31  1  0  0  0  0
 35 33  1  0  0  0  0
 35 29  2  0  0  0  0
 37 36  1  0  0  0  0
M  END
>  <MODEL>
5

>  <REMARK>
 VINA RESULT:      -7.8      1.676      2.300
  Name = 
  2 active torsions:
  status: ('A' for Active; 'I' for Inactive)
    1  A    between atoms: N_4  and  C_37
    2  A    between atoms: C_23  and  C_30
                            x       y       z     vdW  Elec       q    Type
                         _______ _______ _______ _____ _____    ______ ____

>  <TORSDO>
F 2

$$$$
=
 OpenBabel11112417163D

 37 44  0  0  1  0  0  0  0  0999 V2000
  189.9520  174.0520  142.1870 C   0  0  0  0  0  2  0  0  0  0  0  0
  189.2930  176.6120  145.8140 C   0  0  0  0  0  0  0  0  0  0  0  0
  193.0980  174.8360  145.4810 C   0  0  0  0  0  0  0  0  0  0  0  0
  188.8810  173.3550  141.4680 N   0  0  0  0  0  0  0  0  0  0  0  0
  193.8380  172.7210  142.5450 C   0  0  0  0  0  3  0  0  0  0  0  0
  191.6490  176.4140  146.6350 C   0  0  0  0  0  0  0  0  0  0  0  0
  192.9040  173.9180  144.5260 C   0  0  0  0  0  0  0  0  0  0  0  0
  190.8090  172.3760  140.2340 C   0  0  0  0  0  0  0  0  0  0  0  0
  191.8350  175.3790  145.8460 C   0  0  0  0  0  0  0  0  0  0  0  0
  194.0020  173.1630  143.8060 C   0  0  0  0  0  0  0  0  0  0  0  0
  192.8370  177.0070  147.3670 C   0  0  0  0  0  2  0  0  0  0  0  0
  189.3680  172.2420  140.6370 C   0  0  0  0  0  2  0  0  0  0  0  0
  190.8210  174.7760  145.0650 C   0  0  0  0  0  0  0  0  0  0  0  0
  189.3590  177.6100  144.6720 C   0  0  0  0  0  1  0  0  0  0  0  0
  195.6660  174.9740  145.6120 C   0  0  0  0  0  2  0  0  0  0  0  0
  194.1910  176.4720  146.8880 C   0  0  0  0  0  3  0  0  0  0  0  0
  189.3880  175.1760  145.2270 C   0  0  0  0  0  2  0  0  0  0  0  0
  191.8880  171.8760  141.1470 C   0  0  1  0  0  3  0  0  0  0  0  0
  192.5620  172.9620  141.8410 C   0  0  1  0  0  3  0  0  0  0  0  0
  194.3180  175.4440  146.0270 C   0  0  0  0  0  0  0  0  0  0  0  0
  191.4090  173.8990  144.2480 C   0  0  0  0  0  0  0  0  0  0  0  0
  190.3420  176.9160  146.7650 O   0  0  0  0  0  0  0  0  0  0  0  0
  195.3020  172.7440  144.4740 C   0  0  1  0  0  3  0  0  0  0  0  0
  187.9530  176.7670  146.5010 C   0  0  0  0  0  1  0  0  0  0  0  0
  191.5980  172.1240  142.5850 N   0  0  1  0  0  0  0  0  0  0  0  0
  191.0990  172.8950  139.1680 O   0  0  0  0  0  0  0  0  0  0  0  0
  190.6770  173.1170  143.1720 C   0  0  2  0  0  3  0  0  0  0  0  0
  195.7140  173.4680  145.7570 C   0  0  0  0  0  2  0  0  0  0  0  0
  194.5390  170.6970  145.6950 C   0  0  0  0  0  3  0  0  0  0  0  0
  195.3450  171.2630  144.7010 C   0  0  0  0  0  0  0  0  0  0  0  0
  196.1860  170.4400  143.9350 C   0  0  0  0  0  3  0  0  0  0  0  0
  197.0720  168.2310  143.3900 N   0  0  0  0  0  1  0  0  0  0  0  0
  195.4110  168.5010  145.1610 C   0  0  0  0  0  3  0  0  0  0  0  0
  196.2170  169.0620  144.1660 C   0  0  0  0  0  0  0  0  0  0  0  0
  194.5710  169.3180  145.9240 C   0  0  0  0  0  3  0  0  0  0  0  0
  188.1620  175.6700  141.2620 C   0  0  0  0  0  1  0  0  0  0  0  0
  188.2630  174.3210  140.5740 C   0  0  0  0  0  2  0  0  0  0  0  0
  1 27  1  0  0  0  0
  2 24  1  0  0  0  0
  2 22  1  0  0  0  0
  3  9  1  0  0  0  0
  3 20  1  0  0  0  0
  4  1  1  0  0  0  0
  5 10  2  0  0  0  0
  6 22  1  0  0  0  0
  6 11  1  0  0  0  0
  7  3  2  0  0  0  0
  8 12  1  0  0  0  0
  9  6  2  0  0  0  0
 10 23  1  0  0  0  0
 10  7  1  0  0  0  0
 12  4  1  0  0  0  0
 13 17  1  0  0  0  0
 13  9  1  0  0  0  0
 14  2  1  0  0  0  0
 15 28  1  0  0  0  0
 15 20  1  0  0  0  0
 16 11  1  0  0  0  0
 17  2  1  0  0  0  0
 18  8  1  6  0  0  0
 18 19  1  0  0  0  0
 18 25  1  0  0  0  0
 19  5  1  1  0  0  0
 19 25  1  0  0  0  0
 20 16  2  0  0  0  0
 21  7  1  0  0  0  0
 21 13  2  0  0  0  0
 23 30  1  1  0  0  0
 23 28  1  0  0  0  0
 25 27  1  0  0  0  0
 26  8  2  0  0  0  0
 27 21  1  0  0  0  0
 29 35  1  0  0  0  0
 30 29  2  0  0  0  0
 31 34  2  0  0  0  0
 31 30  1  0  0  0  0
 32 34  1  0  0  0  0
 33 35  2  0  0  0  0
 34 33  1  0  0  0  0
 37 36  1  0  0  0  0
 37  4  1  0  0  0  0
M  END
>  <MODEL>
6

>  <REMARK>
 VINA RESULT:      -7.8      3.096      6.828
  Name = 
  2 active torsions:
  status: ('A' for Active; 'I' for Inactive)
    1  A    between atoms: N_4  and  C_37
    2  A    between atoms: C_23  and  C_30
                            x       y       z     vdW  Elec       q    Type
                         _______ _______ _______ _____ _____    ______ ____

>  <TORSDO>
F 2

$$$$
=
 OpenBabel11112417163D

 37 44  0  0  1  0  0  0  0  0999 V2000
  189.6180  176.4600  145.6030 C   0  0  0  0  0  2  0  0  0  0  0  0
  187.2380  176.7330  141.8070 C   0  0  0  0  0  0  0  0  0  0  0  0
  190.5160  174.0880  141.7390 C   0  0  0  0  0  0  0  0  0  0  0  0
  189.7180  177.5400  146.5890 N   0  0  0  0  0  0  0  0  0  0  0  0
  192.5730  173.7040  144.7810 C   0  0  0  0  0  3  0  0  0  0  0  0
  188.5200  174.9330  140.6320 C   0  0  0  0  0  0  0  0  0  0  0  0
  191.1940  174.4420  142.8370 C   0  0  2  0  0  3  0  0  0  0  0  0
  191.3920  176.0000  147.6040 C   0  0  0  0  0  0  0  0  0  0  0  0
  189.4830  175.0410  141.5200 C   0  0  0  0  0  0  0  0  0  0  0  0
  192.3230  173.6470  143.4600 C   0  0  0  0  0  0  0  0  0  0  0  0
  188.5660  173.7980  139.6290 C   0  0  0  0  0  3  0  0  0  0  0  0
  190.8840  177.4090  147.4780 C   0  0  0  0  0  2  0  0  0  0  0  0
  189.5220  176.0170  142.5440 C   0  0  0  0  0  0  0  0  0  0  0  0
  186.3160  175.9970  142.7630 C   0  0  0  0  0  1  0  0  0  0  0  0
  191.5550  171.8070  141.1510 C   0  0  0  0  0  2  0  0  0  0  0  0
  189.6260  172.7360  139.9410 C   0  0  0  0  0  3  0  0  0  0  0  0
  188.5290  177.1370  142.5730 C   0  0  0  0  0  2  0  0  0  0  0  0
  192.3730  175.4690  146.6020 C   0  0  1  0  0  3  0  0  0  0  0  0
  191.7460  174.5640  145.6510 C   0  0  1  0  0  3  0  0  0  0  0  0
  190.5530  172.8770  140.9090 C   0  0  0  0  0  0  0  0  0  0  0  0
  190.5230  175.7000  143.3670 C   0  0  0  0  0  0  0  0  0  0  0  0
  187.4920  175.8910  140.6570 O   0  0  0  0  0  0  0  0  0  0  0  0
  193.3170  172.8330  142.6480 C   0  0  1  0  0  3  0  0  0  0  0  0
  186.5350  177.9910  141.3460 C   0  0  0  0  0  1  0  0  0  0  0  0
  192.1000  175.9320  145.2150 N   0  0  1  0  0  0  0  0  0  0  0  0
  191.0010  175.2910  148.5160 O   0  0  0  0  0  0  0  0  0  0  0  0
  190.8320  176.4410  144.6550 C   0  0  2  0  0  3  0  0  0  0  0  0
  192.9280  172.4420  141.2220 C   0  0  0  0  0  2  0  0  0  0  0  0
  195.7720  172.7760  143.1330 C   0  0  0  0  0  3  0  0  0  0  0  0
  194.6690  173.4800  142.6360 C   0  0  0  0  0  0  0  0  0  0  0  0
  194.8420  174.7810  142.1390 C   0  0  0  0  0  3  0  0  0  0  0  0
  196.2810  176.6890  141.6400 N   0  0  0  0  0  1  0  0  0  0  0  0
  197.2080  174.6630  142.6410 C   0  0  0  0  0  3  0  0  0  0  0  0
  196.1100  175.3700  142.1430 C   0  0  0  0  0  0  0  0  0  0  0  0
  197.0390  173.3660  143.1360 C   0  0  0  0  0  3  0  0  0  0  0  0
  187.5710  176.4320  146.8740 C   0  0  0  0  0  1  0  0  0  0  0  0
  188.5300  177.4710  147.4250 C   0  0  0  0  0  2  0  0  0  0  0  0
  1  4  1  0  0  0  0
  2 17  1  0  0  0  0
  2 14  1  0  0  0  0
  4 37  1  0  0  0  0
  4 12  1  0  0  0  0
  6 22  1  0  0  0  0
  6  9  1  0  0  0  0
  7  3  1  1  0  0  0
  7 21  1  0  0  0  0
  7 10  1  0  0  0  0
  8 26  2  0  0  0  0
  9  3  2  0  0  0  0
  9 13  1  0  0  0  0
 10  5  2  0  0  0  0
 11 16  1  0  0  0  0
 11  6  2  0  0  0  0
 12  8  1  0  0  0  0
 13 17  1  0  0  0  0
 13 21  2  0  0  0  0
 15 28  1  0  0  0  0
 16 20  2  0  0  0  0
 18  8  1  1  0  0  0
 19  5  1  6  0  0  0
 19 18  1  0  0  0  0
 20 15  1  0  0  0  0
 20  3  1  0  0  0  0
 21 27  1  0  0  0  0
 22  2  1  0  0  0  0
 23 30  1  6  0  0  0
 23 10  1  0  0  0  0
 24  2  1  0  0  0  0
 25 19  1  0  0  0  0
 25 18  1  0  0  0  0
 27 25  1  0  0  0  0
 27  1  1  0  0  0  0
 28 23  1  0  0  0  0
 29 35  1  0  0  0  0
 30 29  2  0  0  0  0
 31 34  2  0  0  0  0
 31 30  1  0  0  0  0
 32 34  1  0  0  0  0
 33 35  2  0  0  0  0
 34 33  1  0  0  0  0
 36 37  1  0  0  0  0
M  END
>  <MODEL>
7

>  <REMARK>
 VINA RESULT:      -7.7      2.551      7.874
  Name = 
  2 active torsions:
  status: ('A' for Active; 'I' for Inactive)
    1  A    between atoms: N_4  and  C_37
    2  A    between atoms: C_23  and  C_30
                            x       y       z     vdW  Elec       q    Type
                         _______ _______ _______ _____ _____    ______ ____

>  <TORSDO>
F 2

$$$$
=
 OpenBabel11112417163D

 37 44  0  0  1  0  0  0  0  0999 V2000
  194.1010  173.9010  142.8910 C   0  0  0  0  0  2  0  0  0  0  0  0
  192.1820  170.7340  140.3540 C   0  0  0  0  0  0  0  0  0  0  0  0
  189.7150  173.9730  141.4340 C   0  0  0  0  0  0  0  0  0  0  0  0
  195.2300  173.6570  143.7950 N   0  0  0  0  0  0  0  0  0  0  0  0
  191.1280  176.6940  143.4920 C   0  0  0  0  0  3  0  0  0  0  0  0
  190.0170  171.9620  140.0970 C   0  0  0  0  0  0  0  0  0  0  0  0
  190.4220  174.5610  142.4070 C   0  0  2  0  0  3  0  0  0  0  0  0
  194.7660  176.0110  144.4610 C   0  0  0  0  0  0  0  0  0  0  0  0
  190.3360  172.7350  141.1120 C   0  0  0  0  0  0  0  0  0  0  0  0
  190.1420  175.9340  142.9820 C   0  0  0  0  0  0  0  0  0  0  0  0
  188.7880  172.2960  139.2750 C   0  0  0  0  0  3  0  0  0  0  0  0
  195.3750  174.6890  144.8340 C   0  0  0  0  0  2  0  0  0  0  0  0
  191.4890  172.5650  141.9150 C   0  0  0  0  0  0  0  0  0  0  0  0
  193.1420  171.4290  139.4050 C   0  0  0  0  0  1  0  0  0  0  0  0
  187.9790  175.7780  140.8350 C   0  0  0  0  0  2  0  0  0  0  0  0
  188.1940  173.6760  139.5770 C   0  0  0  0  0  3  0  0  0  0  0  0
  192.3510  171.3500  141.7710 C   0  0  0  0  0  2  0  0  0  0  0  0
  193.3120  176.2630  144.7250 C   0  0  1  0  0  3  0  0  0  0  0  0
  192.5150  176.1860  143.5100 C   0  0  1  0  0  3  0  0  0  0  0  0
  188.6070  174.4520  140.5980 C   0  0  0  0  0  0  0  0  0  0  0  0
  191.5930  173.6360  142.7030 C   0  0  0  0  0  0  0  0  0  0  0  0
  190.8360  170.8510  139.8330 O   0  0  0  0  0  0  0  0  0  0  0  0
  188.7410  176.5030  143.1350 C   0  0  1  0  0  3  0  0  0  0  0  0
  192.5560  169.2680  140.4160 C   0  0  0  0  0  1  0  0  0  0  0  0
  192.4580  175.0700  144.4780 N   0  0  1  0  0  0  0  0  0  0  0  0
  195.4530  176.8740  143.9390 O   0  0  0  0  0  0  0  0  0  0  0  0
  192.7580  173.8900  143.6440 C   0  0  2  0  0  3  0  0  0  0  0  0
  187.6190  175.8830  142.3020 C   0  0  0  0  0  2  0  0  0  0  0  0
  188.8850  175.6360  145.4790 C   0  0  0  0  0  3  0  0  0  0  0  0
  188.3260  176.5480  144.5760 C   0  0  0  0  0  0  0  0  0  0  0  0
  187.3850  177.4850  145.0270 C   0  0  0  0  0  3  0  0  0  0  0  0
  186.0500  178.4570  146.8250 N   0  0  0  0  0  1  0  0  0  0  0  0
  187.5650  176.5930  147.2700 C   0  0  0  0  0  3  0  0  0  0  0  0
  187.0060  177.5060  146.3720 C   0  0  0  0  0  0  0  0  0  0  0  0
  188.5050  175.6590  146.8250 C   0  0  0  0  0  3  0  0  0  0  0  0
  197.6600  173.7230  143.8910 C   0  0  0  0  0  1  0  0  0  0  0  0
  196.4400  173.6840  142.9890 C   0  0  0  0  0  2  0  0  0  0  0  0
  1 27  1  0  0  0  0
  1  4  1  0  0  0  0
  2 24  1  0  0  0  0
  2 17  1  0  0  0  0
  4 12  1  0  0  0  0
  6  9  1  0  0  0  0
  7  3  1  6  0  0  0
  7 21  1  0  0  0  0
  7 10  1  0  0  0  0
  8 12  1  0  0  0  0
  9  3  2  0  0  0  0
  9 13  1  0  0  0  0
 10 23  1  0  0  0  0
 10  5  2  0  0  0  0
 11 16  1  0  0  0  0
 11  6  2  0  0  0  0
 13 21  2  0  0  0  0
 14  2  1  0  0  0  0
 15 28  1  0  0  0  0
 16 20  2  0  0  0  0
 17 13  1  0  0  0  0
 18  8  1  6  0  0  0
 19  5  1  1  0  0  0
 19 25  1  0  0  0  0
 19 18  1  0  0  0  0
 20 15  1  0  0  0  0
 20  3  1  0  0  0  0
 21 27  1  0  0  0  0
 22  6  1  0  0  0  0
 22  2  1  0  0  0  0
 23 30  1  1  0  0  0
 25 18  1  0  0  0  0
 26  8  2  0  0  0  0
 27 25  1  0  0  0  0
 28 23  1  0  0  0  0
 29 35  1  0  0  0  0
 30 31  1  0  0  0  0
 30 29  2  0  0  0  0
 31 34  2  0  0  0  0
 34 32  1  0  0  0  0
 34 33  1  0  0  0  0
 35 33  2  0  0  0  0
 37  4  1  0  0  0  0
 37 36  1  0  0  0  0
M  END
>  <MODEL>
8

>  <REMARK>
 VINA RESULT:      -7.7      1.855      5.611
  Name = 
  2 active torsions:
  status: ('A' for Active; 'I' for Inactive)
    1  A    between atoms: N_4  and  C_37
    2  A    between atoms: C_23  and  C_30
                            x       y       z     vdW  Elec       q    Type
                         _______ _______ _______ _____ _____    ______ ____

>  <TORSDO>
F 2

$$$$
=
 OpenBabel11112417163D

 37 44  0  0  1  0  0  0  0  0999 V2000
  189.6480  175.7540  143.7440 C   0  0  0  0  0  2  0  0  0  0  0  0
  188.7330  173.0740  140.2620 C   0  0  0  0  0  0  0  0  0  0  0  0
  191.9180  171.8560  142.7360 C   0  0  0  0  0  0  0  0  0  0  0  0
  189.3610  177.1920  143.7710 N   0  0  0  0  0  0  0  0  0  0  0  0
  192.7970  173.9180  145.6710 C   0  0  0  0  0  3  0  0  0  0  0  0
  190.4050  171.3260  140.9040 C   0  0  0  0  0  0  0  0  0  0  0  0
  192.1580  172.9570  143.4580 C   0  0  2  0  0  3  0  0  0  0  0  0
  190.6270  177.0600  145.9110 C   0  0  0  0  0  0  0  0  0  0  0  0
  190.9940  172.1860  141.7060 C   0  0  0  0  0  0  0  0  0  0  0  0
  193.0250  173.0150  144.6990 C   0  0  0  0  0  0  0  0  0  0  0  0
  190.8380  169.8730  140.9360 C   0  0  0  0  0  3  0  0  0  0  0  0
  190.1480  177.9230  144.7780 C   0  0  0  0  0  2  0  0  0  0  0  0
  190.6400  173.5520  141.8130 C   0  0  0  0  0  0  0  0  0  0  0  0
  187.5620  172.8600  141.2030 C   0  0  0  0  0  1  0  0  0  0  0  0
  193.1750  170.0370  144.0540 C   0  0  0  0  0  2  0  0  0  0  0  0
  191.7580  169.5250  142.1110 C   0  0  0  0  0  3  0  0  0  0  0  0
  189.6610  174.1660  140.8620 C   0  0  0  0  0  2  0  0  0  0  0  0
  191.9140  176.3010  145.7770 C   0  0  1  0  0  3  0  0  0  0  0  0
  191.6890  174.8850  145.5320 C   0  0  1  0  0  3  0  0  0  0  0  0
  192.2840  170.4480  142.9390 C   0  0  0  0  0  0  0  0  0  0  0  0
  191.3010  174.0600  142.8540 C   0  0  0  0  0  0  0  0  0  0  0  0
  189.4010  171.8070  140.0470 O   0  0  0  0  0  0  0  0  0  0  0  0
  194.2670  172.1610  144.8880 C   0  0  1  0  0  3  0  0  0  0  0  0
  188.1920  173.5710  138.9390 C   0  0  0  0  0  1  0  0  0  0  0  0
  192.1260  175.7470  144.4130 N   0  0  1  0  0  0  0  0  0  0  0  0
  189.9680  176.9740  146.9340 O   0  0  0  0  0  0  0  0  0  0  0  0
  191.1160  175.4750  143.3700 C   0  0  2  0  0  3  0  0  0  0  0  0
  194.4140  170.9070  144.0250 C   0  0  0  0  0  2  0  0  0  0  0  0
  196.4030  173.0220  145.8690 C   0  0  0  0  0  3  0  0  0  0  0  0
  195.5160  172.9840  144.7860 C   0  0  0  0  0  0  0  0  0  0  0  0
  195.8030  173.7200  143.6260 C   0  0  0  0  0  3  0  0  0  0  0  0
  197.2550  175.2330  142.3760 N   0  0  0  0  0  1  0  0  0  0  0  0
  197.8510  174.5230  144.6360 C   0  0  0  0  0  3  0  0  0  0  0  0
  196.9680  174.4870  143.5530 C   0  0  0  0  0  0  0  0  0  0  0  0
  197.5700  173.7910  145.7930 C   0  0  0  0  0  3  0  0  0  0  0  0
  187.1120  176.3870  143.3080 C   0  0  0  0  0  1  0  0  0  0  0  0
  187.9590  177.3440  144.1270 C   0  0  0  0  0  2  0  0  0  0  0  0
  1  4  1  0  0  0  0
  2 17  1  0  0  0  0
  2 14  1  0  0  0  0
  3 20  1  0  0  0  0
  4 37  1  0  0  0  0
  4 12  1  0  0  0  0
  6 11  2  0  0  0  0
  6  9  1  0  0  0  0
  7  3  1  1  0  0  0
  7 10  1  0  0  0  0
  8 26  2  0  0  0  0
  9 13  1  0  0  0  0
  9  3  2  0  0  0  0
 10 23  1  0  0  0  0
 10  5  2  0  0  0  0
 11 16  1  0  0  0  0
 12  8  1  0  0  0  0
 13 21  2  0  0  0  0
 16 20  2  0  0  0  0
 17 13  1  0  0  0  0
 18  8  1  6  0  0  0
 19  5  1  1  0  0  0
 19 18  1  0  0  0  0
 20 15  1  0  0  0  0
 21 27  1  0  0  0  0
 21  7  1  0  0  0  0
 22  2  1  0  0  0  0
 22  6  1  0  0  0  0
 23 30  1  6  0  0  0
 24  2  1  0  0  0  0
 25 19  1  0  0  0  0
 25 18  1  0  0  0  0
 27  1  1  0  0  0  0
 27 25  1  0  0  0  0
 28 15  1  0  0  0  0
 28 23  1  0  0  0  0
 30 29  2  0  0  0  0
 31 30  1  0  0  0  0
 32 34  1  0  0  0  0
 33 35  2  0  0  0  0
 34 31  2  0  0  0  0
 34 33  1  0  0  0  0
 35 29  1  0  0  0  0
 36 37  1  0  0  0  0
M  END
>  <MODEL>
9

>  <REMARK>
 VINA RESULT:      -7.4      2.715      7.685
  Name = 
  2 active torsions:
  status: ('A' for Active; 'I' for Inactive)
    1  A    between atoms: N_4  and  C_37
    2  A    between atoms: C_23  and  C_30
                            x       y       z     vdW  Elec       q    Type
                         _______ _______ _______ _____ _____    ______ ____

>  <TORSDO>
F 2

$$$$
