=
 OpenBabel11112417383D

 28 33  0  0  1  0  0  0  0  0999 V2000
  186.0340  178.4630  144.3400 C   0  0  0  0  0  0  0  0  0  0  0  0
  189.5590  177.8240  146.2970 C   0  0  0  0  0  2  0  0  0  0  0  0
  188.4680  174.9400  139.6630 O   0  0  0  0  0  0  0  0  0  0  0  0
  184.9300  177.0450  146.4930 C   0  0  0  0  0  3  0  0  0  0  0  0
  188.2390  173.7110  141.7360 C   0  0  2  0  0  3  0  0  0  0  0  0
  186.5360  179.2210  143.1550 C   0  0  0  0  0  2  0  0  0  0  0  0
  190.1970  176.5180  146.7600 C   0  0  0  0  0  2  0  0  0  0  0  0
  189.8320  176.7150  145.3100 C   0  0  0  0  0  0  0  0  0  0  0  0
  191.1730  176.1500  143.4110 C   0  0  0  0  0  0  0  0  0  0  0  0
  188.6860  175.8430  144.8100 C   0  0  2  0  0  3  0  0  0  0  0  0
  185.3480  177.5930  140.0980 O   0  0  0  0  0  0  0  0  0  0  0  0
  187.1870  175.6030  142.9040 C   0  0  2  0  0  3  0  0  0  0  0  0
  190.2550  175.1460  143.0770 O   0  0  0  0  0  0  0  0  0  0  0  0
  190.9900  176.9030  144.4490 N   0  0  0  0  0  0  0  0  0  0  0  0
  186.1500  177.9390  141.0040 C   0  0  0  0  0  0  0  0  0  0  0  0
  186.5730  177.2110  144.7040 C   0  0  0  0  0  0  0  0  0  0  0  0
  188.1060  174.9000  140.8690 C   0  0  0  0  0  0  0  0  0  0  0  0
  192.3530  176.3800  142.5380 C   0  0  0  0  0  1  0  0  0  0  0  0
  187.5270  177.3600  141.0240 C   0  0  0  0  0  2  0  0  0  0  0  0
  186.0000  176.5050  145.7770 C   0  0  0  0  0  3  0  0  0  0  0  0
  184.9570  178.9920  145.0610 C   0  0  0  0  0  3  0  0  0  0  0  0
  184.4110  178.2900  146.1370 C   0  0  0  0  0  3  0  0  0  0  0  0
  185.7350  178.8900  141.9860 N   0  0  0  0  0  2  0  0  0  0  0  0
  187.9600  174.2940  143.1380 C   0  0  2  0  0  3  0  0  0  0  0  0
  187.5060  175.9940  141.5350 N   0  0  0  0  0  0  0  0  0  0  0  0
  189.2020  174.7010  143.9470 C   0  0  2  0  0  3  0  0  0  0  0  0
  189.4880  173.1250  141.6240 F   0  0  0  0  0  0  0  0  0  0  0  0
  187.7120  176.6090  143.9230 C   0  0  1  0  0  3  0  0  0  0  0  0
  1 16  2  0  0  0  0
  1 21  1  0  0  0  0
  2  7  1  0  0  0  0
  3 17  2  0  0  0  0
  5 27  1  1  0  0  0
  5 24  1  0  0  0  0
  6  1  1  0  0  0  0
  8  2  1  0  0  0  0
  8  7  1  0  0  0  0
  9 14  2  0  0  0  0
 10  8  1  6  0  0  0
 11 15  2  0  0  0  0
 12 25  1  6  0  0  0
 12 24  1  0  0  0  0
 12 28  1  0  0  0  0
 13  9  1  0  0  0  0
 13 26  1  0  0  0  0
 14  8  1  0  0  0  0
 15 19  1  0  0  0  0
 15 23  1  0  0  0  0
 16 20  1  0  0  0  0
 17 25  1  0  0  0  0
 17  5  1  0  0  0  0
 18  9  1  0  0  0  0
 19 25  1  0  0  0  0
 20  4  2  0  0  0  0
 21 22  2  0  0  0  0
 22  4  1  0  0  0  0
 23  6  1  0  0  0  0
 24 26  1  0  0  0  0
 26 10  1  0  0  0  0
 28 16  1  0  0  0  0
 28 10  1  0  0  0  0
M  END
>  <MODEL>
1

>  <REMARK>
 VINA RESULT:      -8.6      0.000      0.000
  Name = 
  0 active torsions:
  status: ('A' for Active; 'I' for Inactive)
                            x       y       z     vdW  Elec       q    Type
                         _______ _______ _______ _____ _____    ______ ____

>  <TORSDO>
F 0

$$$$
=
 OpenBabel11112417383D

 28 33  0  0  1  0  0  0  0  0999 V2000
  190.6630  172.8550  143.8680 C   0  0  0  0  0  0  0  0  0  0  0  0
  189.6900  174.9550  147.2290 C   0  0  0  0  0  2  0  0  0  0  0  0
  186.6780  176.7170  140.8000 O   0  0  0  0  0  0  0  0  0  0  0  0
  193.2330  173.8720  144.3400 C   0  0  0  0  0  3  0  0  0  0  0  0
  188.5390  177.8990  141.8000 C   0  0  2  0  0  3  0  0  0  0  0  0
  189.3270  172.2740  143.5370 C   0  0  0  0  0  2  0  0  0  0  0  0
  189.8810  176.4360  147.5470 C   0  0  0  0  0  2  0  0  0  0  0  0
  189.1060  176.0130  146.3230 C   0  0  0  0  0  0  0  0  0  0  0  0
  187.0310  176.9250  145.5610 C   0  0  0  0  0  0  0  0  0  0  0  0
  189.7800  176.3290  144.9930 C   0  0  2  0  0  3  0  0  0  0  0  0
  188.4890  173.0910  140.0680 O   0  0  0  0  0  0  0  0  0  0  0  0
  189.5940  175.8310  142.6150 C   0  0  2  0  0  3  0  0  0  0  0  0
  187.6900  177.4640  144.4490 O   0  0  0  0  0  0  0  0  0  0  0  0
  187.6740  176.2340  146.4480 N   0  0  0  0  0  0  0  0  0  0  0  0
  188.4570  173.1500  141.3250 C   0  0  0  0  0  0  0  0  0  0  0  0
  190.8410  174.2390  144.0690 C   0  0  0  0  0  0  0  0  0  0  0  0
  187.7530  176.6950  141.4550 C   0  0  0  0  0  0  0  0  0  0  0  0
  185.5640  177.1160  145.7030 C   0  0  0  0  0  1  0  0  0  0  0  0
  187.6560  174.2220  141.9880 C   0  0  0  0  0  2  0  0  0  0  0  0
  192.1380  174.7370  144.2910 C   0  0  0  0  0  3  0  0  0  0  0  0
  191.7680  171.9970  143.9130 C   0  0  0  0  0  3  0  0  0  0  0  0
  193.0470  172.5010  144.1550 C   0  0  0  0  0  3  0  0  0  0  0  0
  189.1760  172.1830  142.0920 N   0  0  0  0  0  2  0  0  0  0  0  0
  189.5360  177.3510  142.8440 C   0  0  2  0  0  3  0  0  0  0  0  0
  188.3520  175.5030  141.9240 N   0  0  0  0  0  0  0  0  0  0  0  0
  189.1200  177.5190  144.3140 C   0  0  2  0  0  3  0  0  0  0  0  0
  187.7390  178.9170  142.2880 F   0  0  0  0  0  0  0  0  0  0  0  0
  189.6700  175.1830  143.9940 C   0  0  1  0  0  3  0  0  0  0  0  0
  1 21  2  0  0  0  0
  1 16  1  0  0  0  0
  2  7  1  0  0  0  0
  3 17  2  0  0  0  0
  5 27  1  1  0  0  0
  5 24  1  0  0  0  0
  6  1  1  0  0  0  0
  8 14  1  0  0  0  0
  8  2  1  0  0  0  0
  8  7  1  0  0  0  0
  9 18  1  0  0  0  0
  9 14  2  0  0  0  0
 10  8  1  1  0  0  0
 11 15  2  0  0  0  0
 12 25  1  1  0  0  0
 12 24  1  0  0  0  0
 12 28  1  0  0  0  0
 13  9  1  0  0  0  0
 15 19  1  0  0  0  0
 15 23  1  0  0  0  0
 16 20  2  0  0  0  0
 17  5  1  0  0  0  0
 17 25  1  0  0  0  0
 20  4  1  0  0  0  0
 21 22  1  0  0  0  0
 22  4  2  0  0  0  0
 23  6  1  0  0  0  0
 24 26  1  0  0  0  0
 25 19  1  0  0  0  0
 26 13  1  0  0  0  0
 26 10  1  0  0  0  0
 28 16  1  0  0  0  0
 28 10  1  0  0  0  0
M  END
>  <MODEL>
2

>  <REMARK>
 VINA RESULT:      -8.2      2.483      5.408
  Name = 
  0 active torsions:
  status: ('A' for Active; 'I' for Inactive)
                            x       y       z     vdW  Elec       q    Type
                         _______ _______ _______ _____ _____    ______ ____

>  <TORSDO>
F 0

$$$$
=
 OpenBabel11112417383D

 28 33  0  0  1  0  0  0  0  0999 V2000
  187.2090  177.2150  144.6010 C   0  0  0  0  0  0  0  0  0  0  0  0
  187.8150  174.0490  142.0980 C   0  0  0  0  0  2  0  0  0  0  0  0
  193.1380  176.2250  146.6190 O   0  0  0  0  0  0  0  0  0  0  0  0
  186.9540  178.6660  142.2150 C   0  0  0  0  0  3  0  0  0  0  0  0
  193.0350  176.7910  144.2670 C   0  0  2  0  0  3  0  0  0  0  0  0
  187.3350  176.5230  145.9190 C   0  0  0  0  0  2  0  0  0  0  0  0
  188.8370  173.8680  140.9800 C   0  0  0  0  0  2  0  0  0  0  0  0
  189.2910  174.1880  142.3820 C   0  0  0  0  0  0  0  0  0  0  0  0
  191.1020  173.1660  143.5650 C   0  0  0  0  0  0  0  0  0  0  0  0
  189.9030  175.5720  142.5620 C   0  0  2  0  0  3  0  0  0  0  0  0
  189.8250  178.2720  147.9580 O   0  0  0  0  0  0  0  0  0  0  0  0
  190.5970  177.1200  144.3110 C   0  0  2  0  0  3  0  0  0  0  0  0
  191.8080  174.3740  143.5050 O   0  0  0  0  0  0  0  0  0  0  0  0
  189.9170  173.0590  143.0530 N   0  0  0  0  0  0  0  0  0  0  0  0
  189.3340  177.3740  147.2240 C   0  0  0  0  0  0  0  0  0  0  0  0
  188.2070  177.1120  143.6100 C   0  0  0  0  0  0  0  0  0  0  0  0
  192.4600  176.5450  145.6070 C   0  0  0  0  0  0  0  0  0  0  0  0
  191.7060  172.0020  144.2630 C   0  0  0  0  0  1  0  0  0  0  0  0
  190.2100  176.2680  146.7330 C   0  0  0  0  0  2  0  0  0  0  0  0
  188.0730  177.8570  142.4250 C   0  0  0  0  0  3  0  0  0  0  0  0
  186.0950  178.0340  144.3850 C   0  0  0  0  0  3  0  0  0  0  0  0
  185.9630  178.7510  143.1940 C   0  0  0  0  0  3  0  0  0  0  0  0
  187.9460  177.4220  146.8880 N   0  0  0  0  0  2  0  0  0  0  0  0
  191.7780  176.8190  143.3720 C   0  0  2  0  0  3  0  0  0  0  0  0
  191.0580  176.7280  145.6390 N   0  0  0  0  0  0  0  0  0  0  0  0
  191.4170  175.4910  142.6890 C   0  0  2  0  0  3  0  0  0  0  0  0
  193.9430  175.8110  143.9050 F   0  0  0  0  0  0  0  0  0  0  0  0
  189.4290  176.2610  143.8360 C   0  0  1  0  0  3  0  0  0  0  0  0
  1  6  1  0  0  0  0
  2  8  1  0  0  0  0
  4 20  2  0  0  0  0
  4 22  1  0  0  0  0
  5 27  1  6  0  0  0
  5 17  1  0  0  0  0
  6 23  1  0  0  0  0
  7  2  1  0  0  0  0
  7  8  1  0  0  0  0
  8 14  1  0  0  0  0
  9 18  1  0  0  0  0
 10  8  1  1  0  0  0
 10 26  1  0  0  0  0
 10 28  1  0  0  0  0
 12 25  1  1  0  0  0
 13  9  1  0  0  0  0
 14  9  2  0  0  0  0
 15 11  2  0  0  0  0
 16 28  1  0  0  0  0
 16  1  2  0  0  0  0
 17 25  1  0  0  0  0
 17  3  2  0  0  0  0
 19 15  1  0  0  0  0
 20 16  1  0  0  0  0
 21  1  1  0  0  0  0
 22 21  2  0  0  0  0
 23 15  1  0  0  0  0
 24  5  1  0  0  0  0
 24 12  1  0  0  0  0
 25 19  1  0  0  0  0
 26 24  1  0  0  0  0
 26 13  1  0  0  0  0
 28 12  1  0  0  0  0
M  END
>  <MODEL>
3

>  <REMARK>
 VINA RESULT:      -8.1      2.766      4.993
  Name = 
  0 active torsions:
  status: ('A' for Active; 'I' for Inactive)
                            x       y       z     vdW  Elec       q    Type
                         _______ _______ _______ _____ _____    ______ ____

>  <TORSDO>
F 0

$$$$
=
 OpenBabel11112417383D

 28 33  0  0  1  0  0  0  0  0999 V2000
  185.9370  176.9180  143.7800 C   0  0  0  0  0  0  0  0  0  0  0  0
  187.4420  173.8230  141.5860 C   0  0  0  0  0  2  0  0  0  0  0  0
  191.3250  176.6340  147.1110 O   0  0  0  0  0  0  0  0  0  0  0  0
  186.0720  178.3110  141.3500 C   0  0  0  0  0  3  0  0  0  0  0  0
  191.6960  177.1660  144.7780 C   0  0  2  0  0  3  0  0  0  0  0  0
  185.8360  176.2560  145.1150 C   0  0  0  0  0  2  0  0  0  0  0  0
  188.7050  173.7520  140.7330 C   0  0  0  0  0  2  0  0  0  0  0  0
  188.7900  174.1340  142.1890 C   0  0  0  0  0  0  0  0  0  0  0  0
  190.3860  173.3370  143.7830 C   0  0  0  0  0  0  0  0  0  0  0  0
  189.1880  175.5810  142.4550 C   0  0  2  0  0  3  0  0  0  0  0  0
  187.5880  178.2960  147.6000 O   0  0  0  0  0  0  0  0  0  0  0  0
  189.2910  177.2120  144.2620 C   0  0  2  0  0  3  0  0  0  0  0  0
  190.9490  174.6180  143.8420 O   0  0  0  0  0  0  0  0  0  0  0  0
  189.3680  173.0900  143.0210 N   0  0  0  0  0  0  0  0  0  0  0  0
  187.3790  177.3420  146.8060 C   0  0  0  0  0  0  0  0  0  0  0  0
  187.1390  176.9230  143.0420 C   0  0  0  0  0  0  0  0  0  0  0  0
  190.8630  176.8660  145.9620 C   0  0  0  0  0  0  0  0  0  0  0  0
  190.9410  172.2550  144.6380 C   0  0  0  0  0  1  0  0  0  0  0  0
  188.4600  176.3410  146.5630 C   0  0  0  0  0  2  0  0  0  0  0  0
  187.1960  177.6380  141.8320 C   0  0  0  0  0  3  0  0  0  0  0  0
  184.8170  177.6010  143.2910 C   0  0  0  0  0  3  0  0  0  0  0  0
  184.8810  178.2890  142.0770 C   0  0  0  0  0  3  0  0  0  0  0  0
  186.1070  177.2270  146.1660 N   0  0  0  0  0  2  0  0  0  0  0  0
  190.6800  177.0420  143.6230 C   0  0  2  0  0  3  0  0  0  0  0  0
  189.4790  176.8860  145.6720 N   0  0  0  0  0  0  0  0  0  0  0  0
  190.6330  175.6750  142.9210 C   0  0  2  0  0  3  0  0  0  0  0  0
  192.7650  176.2940  144.6630 F   0  0  0  0  0  0  0  0  0  0  0  0
  188.3640  176.2210  143.5660 C   0  0  1  0  0  3  0  0  0  0  0  0
  1  6  1  0  0  0  0
  2  8  1  0  0  0  0
  4 20  2  0  0  0  0
  4 22  1  0  0  0  0
  5 27  1  6  0  0  0
  5 17  1  0  0  0  0
  6 23  1  0  0  0  0
  7  2  1  0  0  0  0
  7  8  1  0  0  0  0
  8 14  1  0  0  0  0
  9 13  1  0  0  0  0
  9 18  1  0  0  0  0
 10  8  1  1  0  0  0
 10 26  1  0  0  0  0
 10 28  1  0  0  0  0
 12 25  1  1  0  0  0
 14  9  2  0  0  0  0
 15 11  2  0  0  0  0
 16 28  1  0  0  0  0
 16  1  2  0  0  0  0
 17  3  2  0  0  0  0
 19 15  1  0  0  0  0
 20 16  1  0  0  0  0
 21  1  1  0  0  0  0
 22 21  2  0  0  0  0
 23 15  1  0  0  0  0
 24 12  1  0  0  0  0
 24  5  1  0  0  0  0
 25 17  1  0  0  0  0
 25 19  1  0  0  0  0
 26 24  1  0  0  0  0
 26 13  1  0  0  0  0
 28 12  1  0  0  0  0
M  END
>  <MODEL>
4

>  <REMARK>
 VINA RESULT:      -7.6      2.634      4.710
  Name = 
  0 active torsions:
  status: ('A' for Active; 'I' for Inactive)
                            x       y       z     vdW  Elec       q    Type
                         _______ _______ _______ _____ _____    ______ ____

>  <TORSDO>
F 0

$$$$
=
 OpenBabel11112417383D

 28 33  0  0  1  0  0  0  0  0999 V2000
  192.6260  174.1910  141.7570 C   0  0  0  0  0  0  0  0  0  0  0  0
  193.4820  174.7100  145.7140 C   0  0  0  0  0  2  0  0  0  0  0  0
  186.7390  176.0420  143.2130 O   0  0  0  0  0  0  0  0  0  0  0  0
  194.5000  176.2450  141.3920 C   0  0  0  0  0  3  0  0  0  0  0  0
  188.3910  177.7560  143.6490 C   0  0  2  0  0  3  0  0  0  0  0  0
  191.6130  173.0980  141.8590 C   0  0  0  0  0  2  0  0  0  0  0  0
  193.4140  175.9690  146.5730 C   0  0  0  0  0  2  0  0  0  0  0  0
  192.1940  175.4890  145.8260 C   0  0  0  0  0  0  0  0  0  0  0  0
  189.9610  175.3560  146.6730 C   0  0  0  0  0  0  0  0  0  0  0  0
  191.7480  176.3860  144.6770 C   0  0  2  0  0  3  0  0  0  0  0  0
  188.5780  174.1080  140.0760 O   0  0  0  0  0  0  0  0  0  0  0  0
  190.2390  176.3960  142.7630 C   0  0  2  0  0  3  0  0  0  0  0  0
  189.5820  176.3830  145.8000 O   0  0  0  0  0  0  0  0  0  0  0  0
  191.1790  174.9160  146.6950 N   0  0  0  0  0  0  0  0  0  0  0  0
  189.3380  173.8670  141.0500 C   0  0  0  0  0  0  0  0  0  0  0  0
  192.5020  175.3900  142.4890 C   0  0  0  0  0  0  0  0  0  0  0  0
  187.9370  176.4290  143.1830 C   0  0  0  0  0  0  0  0  0  0  0  0
  188.9410  174.7360  147.5580 C   0  0  0  0  0  1  0  0  0  0  0  0
  188.8860  174.2050  142.4330 C   0  0  0  0  0  2  0  0  0  0  0  0
  193.4400  176.4160  142.2850 C   0  0  0  0  0  3  0  0  0  0  0  0
  193.6880  174.0300  140.8600 C   0  0  0  0  0  3  0  0  0  0  0  0
  194.6260  175.0500  140.6820 C   0  0  0  0  0  3  0  0  0  0  0  0
  190.6100  173.2600  140.8160 N   0  0  0  0  0  2  0  0  0  0  0  0
  189.9240  177.5810  143.6910 C   0  0  2  0  0  3  0  0  0  0  0  0
  188.9950  175.6390  142.6760 N   0  0  0  0  0  0  0  0  0  0  0  0
  190.5110  177.1880  145.0560 C   0  0  2  0  0  3  0  0  0  0  0  0
  187.8440  178.0890  144.8760 F   0  0  0  0  0  0  0  0  0  0  0  0
  191.3490  175.5950  143.4370 C   0  0  1  0  0  3  0  0  0  0  0  0
  1  6  1  0  0  0  0
  1 16  1  0  0  0  0
  2  8  1  0  0  0  0
  2  7  1  0  0  0  0
  4 20  1  0  0  0  0
  5 24  1  0  0  0  0
  5 27  1  1  0  0  0
  8  7  1  0  0  0  0
  8 14  1  0  0  0  0
  9 14  2  0  0  0  0
  9 18  1  0  0  0  0
 10 26  1  0  0  0  0
 10  8  1  1  0  0  0
 11 15  2  0  0  0  0
 12 25  1  1  0  0  0
 12 28  1  0  0  0  0
 12 24  1  0  0  0  0
 13  9  1  0  0  0  0
 15 19  1  0  0  0  0
 16 28  1  0  0  0  0
 17  3  2  0  0  0  0
 17  5  1  0  0  0  0
 19 25  1  0  0  0  0
 20 16  2  0  0  0  0
 21  1  2  0  0  0  0
 22 21  1  0  0  0  0
 22  4  2  0  0  0  0
 23 15  1  0  0  0  0
 23  6  1  0  0  0  0
 24 26  1  0  0  0  0
 25 17  1  0  0  0  0
 26 13  1  0  0  0  0
 28 10  1  0  0  0  0
M  END
>  <MODEL>
5

>  <REMARK>
 VINA RESULT:      -7.6      2.786      5.988
  Name = 
  0 active torsions:
  status: ('A' for Active; 'I' for Inactive)
                            x       y       z     vdW  Elec       q    Type
                         _______ _______ _______ _____ _____    ______ ____

>  <TORSDO>
F 0

$$$$
=
 OpenBabel11112417383D

 28 33  0  0  1  0  0  0  0  0999 V2000
  187.6450  177.6460  144.7070 C   0  0  0  0  0  0  0  0  0  0  0  0
  190.6870  177.7960  147.4250 C   0  0  0  0  0  2  0  0  0  0  0  0
  190.9060  172.9670  141.9350 O   0  0  0  0  0  0  0  0  0  0  0  0
  186.1000  176.9120  146.9280 C   0  0  0  0  0  3  0  0  0  0  0  0
  190.2370  172.4250  144.1970 C   0  0  2  0  0  3  0  0  0  0  0  0
  188.3930  178.0250  143.4700 C   0  0  0  0  0  2  0  0  0  0  0  0
  191.1910  176.7260  148.3880 C   0  0  0  0  0  2  0  0  0  0  0  0
  191.1320  176.4510  146.9060 C   0  0  0  0  0  0  0  0  0  0  0  0
  192.8190  175.3890  145.5830 C   0  0  0  0  0  0  0  0  0  0  0  0
  190.0940  175.4180  146.4830 C   0  0  2  0  0  3  0  0  0  0  0  0
  187.8170  175.4850  140.8960 O   0  0  0  0  0  0  0  0  0  0  0  0
  189.0080  174.5370  144.4880 C   0  0  2  0  0  3  0  0  0  0  0  0
  191.9680  174.2910  145.4010 O   0  0  0  0  0  0  0  0  0  0  0  0
  192.4440  176.4160  146.2780 N   0  0  0  0  0  0  0  0  0  0  0  0
  188.4250  176.1280  141.7900 C   0  0  0  0  0  0  0  0  0  0  0  0
  188.0750  176.5920  145.5400 C   0  0  0  0  0  0  0  0  0  0  0  0
  190.3070  173.2840  142.9960 C   0  0  0  0  0  0  0  0  0  0  0  0
  194.1560  175.3910  144.9350 C   0  0  0  0  0  1  0  0  0  0  0  0
  189.7580  175.6440  142.2620 C   0  0  0  0  0  2  0  0  0  0  0  0
  187.2820  176.2260  146.6420 C   0  0  0  0  0  3  0  0  0  0  0  0
  186.4560  178.3240  144.9980 C   0  0  0  0  0  3  0  0  0  0  0  0
  185.6890  177.9630  146.1070 C   0  0  0  0  0  3  0  0  0  0  0  0
  187.8390  177.3150  142.3260 N   0  0  0  0  0  2  0  0  0  0  0  0
  189.6910  173.3990  145.2640 C   0  0  2  0  0  3  0  0  0  0  0  0
  189.6060  174.5020  143.1570 N   0  0  0  0  0  0  0  0  0  0  0  0
  190.7510  174.0900  146.1380 C   0  0  2  0  0  3  0  0  0  0  0  0
  191.4710  171.8900  144.5240 F   0  0  0  0  0  0  0  0  0  0  0  0
  189.3350  175.8300  145.2270 C   0  0  1  0  0  3  0  0  0  0  0  0
  1 21  2  0  0  0  0
  1 16  1  0  0  0  0
  2  7  1  0  0  0  0
  3 17  2  0  0  0  0
  5 27  1  1  0  0  0
  5 24  1  0  0  0  0
  6  1  1  0  0  0  0
  8  2  1  0  0  0  0
  8  7  1  0  0  0  0
  9 14  2  0  0  0  0
 10  8  1  6  0  0  0
 11 15  2  0  0  0  0
 12 25  1  6  0  0  0
 12 28  1  0  0  0  0
 12 24  1  0  0  0  0
 13  9  1  0  0  0  0
 13 26  1  0  0  0  0
 14  8  1  0  0  0  0
 15 19  1  0  0  0  0
 15 23  1  0  0  0  0
 16 20  2  0  0  0  0
 17 25  1  0  0  0  0
 17  5  1  0  0  0  0
 18  9  1  0  0  0  0
 19 25  1  0  0  0  0
 20  4  1  0  0  0  0
 21 22  1  0  0  0  0
 22  4  2  0  0  0  0
 23  6  1  0  0  0  0
 24 26  1  0  0  0  0
 26 10  1  0  0  0  0
 28 16  1  0  0  0  0
 28 10  1  0  0  0  0
M  END
>  <MODEL>
6

>  <REMARK>
 VINA RESULT:      -7.6      2.023      2.637
  Name = 
  0 active torsions:
  status: ('A' for Active; 'I' for Inactive)
                            x       y       z     vdW  Elec       q    Type
                         _______ _______ _______ _____ _____    ______ ____

>  <TORSDO>
F 0

$$$$
=
 OpenBabel11112417383D

 28 33  0  0  1  0  0  0  0  0999 V2000
  188.5630  176.2410  145.3430 C   0  0  0  0  0  0  0  0  0  0  0  0
  189.0280  173.4440  142.4070 C   0  0  0  0  0  2  0  0  0  0  0  0
  194.7880  175.6050  146.3630 O   0  0  0  0  0  0  0  0  0  0  0  0
  187.8360  177.9160  143.2150 C   0  0  0  0  0  3  0  0  0  0  0  0
  194.2850  176.4160  144.1390 C   0  0  2  0  0  3  0  0  0  0  0  0
  188.9410  175.4220  146.5340 C   0  0  0  0  0  2  0  0  0  0  0  0
  189.8800  173.4870  141.1410 C   0  0  0  0  0  2  0  0  0  0  0  0
  190.5150  173.6910  142.4940 C   0  0  0  0  0  0  0  0  0  0  0  0
  192.5590  172.7230  143.2730 C   0  0  0  0  0  0  0  0  0  0  0  0
  191.0360  175.1000  142.7550 C   0  0  2  0  0  3  0  0  0  0  0  0
  191.5660  177.1640  148.4000 O   0  0  0  0  0  0  0  0  0  0  0  0
  191.8640  176.5030  144.5670 C   0  0  2  0  0  3  0  0  0  0  0  0
  193.1500  173.9920  143.2640 O   0  0  0  0  0  0  0  0  0  0  0  0
  191.3220  172.5600  142.9240 N   0  0  0  0  0  0  0  0  0  0  0  0
  191.0420  176.3110  147.6390 C   0  0  0  0  0  0  0  0  0  0  0  0
  189.4030  176.3440  144.2150 C   0  0  0  0  0  0  0  0  0  0  0  0
  193.9420  175.9690  145.5050 C   0  0  0  0  0  0  0  0  0  0  0  0
  193.3510  171.5520  143.7290 C   0  0  0  0  0  1  0  0  0  0  0  0
  191.9170  175.3550  146.8950 C   0  0  0  0  0  2  0  0  0  0  0  0
  189.0330  177.1990  143.1620 C   0  0  0  0  0  3  0  0  0  0  0  0
  187.3670  176.9670  145.3890 C   0  0  0  0  0  3  0  0  0  0  0  0
  187.0010  177.7970  144.3270 C   0  0  0  0  0  3  0  0  0  0  0  0
  189.6190  176.2620  147.5110 N   0  0  0  0  0  2  0  0  0  0  0  0
  192.9080  176.4230  143.4400 C   0  0  2  0  0  3  0  0  0  0  0  0
  192.5510  176.0120  145.7580 N   0  0  0  0  0  0  0  0  0  0  0  0
  192.5540  175.1500  142.6560 C   0  0  2  0  0  3  0  0  0  0  0  0
  195.2020  175.5730  143.5330 F   0  0  0  0  0  0  0  0  0  0  0  0
  190.7090  175.5950  144.1590 C   0  0  1  0  0  3  0  0  0  0  0  0
  1 21  1  0  0  0  0
  1  6  1  0  0  0  0
  2  8  1  0  0  0  0
  4 22  1  0  0  0  0
  5 27  1  6  0  0  0
  5 17  1  0  0  0  0
  6 23  1  0  0  0  0
  7  2  1  0  0  0  0
  7  8  1  0  0  0  0
  8 14  1  0  0  0  0
  9 18  1  0  0  0  0
 10  8  1  1  0  0  0
 10 28  1  0  0  0  0
 12 25  1  1  0  0  0
 13  9  1  0  0  0  0
 14  9  2  0  0  0  0
 15 11  2  0  0  0  0
 16  1  2  0  0  0  0
 17 25  1  0  0  0  0
 17  3  2  0  0  0  0
 19 15  1  0  0  0  0
 20  4  2  0  0  0  0
 20 16  1  0  0  0  0
 22 21  2  0  0  0  0
 23 15  1  0  0  0  0
 24  5  1  0  0  0  0
 24 12  1  0  0  0  0
 25 19  1  0  0  0  0
 26 10  1  0  0  0  0
 26 13  1  0  0  0  0
 26 24  1  0  0  0  0
 28 16  1  0  0  0  0
 28 12  1  0  0  0  0
M  END
>  <MODEL>
7

>  <REMARK>
 VINA RESULT:      -7.5      3.439      5.754
  Name = 
  0 active torsions:
  status: ('A' for Active; 'I' for Inactive)
                            x       y       z     vdW  Elec       q    Type
                         _______ _______ _______ _____ _____    ______ ____

>  <TORSDO>
F 0

$$$$
=
 OpenBabel11112417383D

 28 33  0  0  1  0  0  0  0  0999 V2000
  189.0590  176.0240  144.6070 C   0  0  0  0  0  0  0  0  0  0  0  0
  192.8980  176.6480  145.8440 C   0  0  0  0  0  2  0  0  0  0  0  0
  191.4630  171.6230  140.7260 O   0  0  0  0  0  0  0  0  0  0  0  0
  188.6520  175.2230  147.2630 C   0  0  0  0  0  3  0  0  0  0  0  0
  191.8430  171.1150  143.0620 C   0  0  2  0  0  3  0  0  0  0  0  0
  189.1870  176.4270  143.1740 C   0  0  0  0  0  2  0  0  0  0  0  0
  193.8790  175.6890  146.5130 C   0  0  0  0  0  2  0  0  0  0  0  0
  193.2570  175.3390  145.1830 C   0  0  0  0  0  0  0  0  0  0  0  0
  194.3780  174.4160  143.2820 C   0  0  0  0  0  0  0  0  0  0  0  0
  192.2730  174.1760  145.2180 C   0  0  2  0  0  3  0  0  0  0  0  0
  187.9330  173.7190  141.0500 O   0  0  0  0  0  0  0  0  0  0  0  0
  190.5880  173.0840  143.8380 C   0  0  2  0  0  3  0  0  0  0  0  0
  193.6690  173.2210  143.4600 O   0  0  0  0  0  0  0  0  0  0  0  0
  194.1940  175.4250  144.0740 N   0  0  0  0  0  0  0  0  0  0  0  0
  188.7680  174.4690  141.6200 C   0  0  0  0  0  0  0  0  0  0  0  0
  189.9160  175.0660  145.1880 C   0  0  0  0  0  0  0  0  0  0  0  0
  191.3130  171.9190  141.9410 C   0  0  0  0  0  0  0  0  0  0  0  0
  195.3250  174.5410  142.1440 C   0  0  0  0  0  1  0  0  0  0  0  0
  190.2260  174.1640  141.5040 C   0  0  0  0  0  2  0  0  0  0  0  0
  189.6910  174.6640  146.5160 C   0  0  0  0  0  3  0  0  0  0  0  0
  188.0170  176.5740  145.3610 C   0  0  0  0  0  3  0  0  0  0  0  0
  187.8170  176.1810  146.6860 C   0  0  0  0  0  3  0  0  0  0  0  0
  188.3080  175.6060  142.3530 N   0  0  0  0  0  2  0  0  0  0  0  0
  191.6630  172.0690  144.2630 C   0  0  2  0  0  3  0  0  0  0  0  0
  190.5930  173.0550  142.3790 N   0  0  0  0  0  0  0  0  0  0  0  0
  192.8910  172.9170  144.6290 C   0  0  2  0  0  3  0  0  0  0  0  0
  193.1590  170.7400  142.8540 F   0  0  0  0  0  0  0  0  0  0  0  0
  191.0250  174.4390  144.3840 C   0  0  1  0  0  3  0  0  0  0  0  0
  1 16  2  0  0  0  0
  1 21  1  0  0  0  0
  2  7  1  0  0  0  0
  3 17  2  0  0  0  0
  5 27  1  6  0  0  0
  5 24  1  0  0  0  0
  6  1  1  0  0  0  0
  8  2  1  0  0  0  0
  8  7  1  0  0  0  0
  9 13  1  0  0  0  0
  9 14  2  0  0  0  0
 10  8  1  6  0  0  0
 11 15  2  0  0  0  0
 12 25  1  6  0  0  0
 12 24  1  0  0  0  0
 12 28  1  0  0  0  0
 13 26  1  0  0  0  0
 14  8  1  0  0  0  0
 15 23  1  0  0  0  0
 16 20  1  0  0  0  0
 17 25  1  0  0  0  0
 17  5  1  0  0  0  0
 18  9  1  0  0  0  0
 19 15  1  0  0  0  0
 19 25  1  0  0  0  0
 20  4  2  0  0  0  0
 21 22  2  0  0  0  0
 22  4  1  0  0  0  0
 23  6  1  0  0  0  0
 24 26  1  0  0  0  0
 26 10  1  0  0  0  0
 28 16  1  0  0  0  0
 28 10  1  0  0  0  0
M  END
>  <MODEL>
8

>  <REMARK>
 VINA RESULT:      -7.2      2.960      4.118
  Name = 
  0 active torsions:
  status: ('A' for Active; 'I' for Inactive)
                            x       y       z     vdW  Elec       q    Type
                         _______ _______ _______ _____ _____    ______ ____

>  <TORSDO>
F 0

$$$$
=
 OpenBabel11112417383D

 28 33  0  0  1  0  0  0  0  0999 V2000
  190.2400  176.0750  143.3030 C   0  0  0  0  0  0  0  0  0  0  0  0
  187.4540  177.8950  140.9400 C   0  0  0  0  0  2  0  0  0  0  0  0
  186.7240  177.9960  148.2180 O   0  0  0  0  0  0  0  0  0  0  0  0
  189.3700  173.7430  142.0130 C   0  0  0  0  0  3  0  0  0  0  0  0
  185.5320  176.4830  146.7520 C   0  0  2  0  0  3  0  0  0  0  0  0
  190.7600  177.2650  144.0430 C   0  0  0  0  0  2  0  0  0  0  0  0
  185.9610  177.6140  140.7930 C   0  0  0  0  0  2  0  0  0  0  0  0
  186.5470  177.9320  142.1470 C   0  0  0  0  0  0  0  0  0  0  0  0
  185.6290  179.4110  143.7880 C   0  0  0  0  0  0  0  0  0  0  0  0
  186.5520  176.7730  143.1360 C   0  0  2  0  0  3  0  0  0  0  0  0
  190.5620  176.6180  147.6420 O   0  0  0  0  0  0  0  0  0  0  0  0
  187.4840  176.1350  145.2950 C   0  0  2  0  0  3  0  0  0  0  0  0
  185.3730  178.3110  144.6170 O   0  0  0  0  0  0  0  0  0  0  0  0
  186.1860  179.2560  142.6290 N   0  0  0  0  0  0  0  0  0  0  0  0
  190.2590  177.1050  146.5220 C   0  0  0  0  0  0  0  0  0  0  0  0
  188.8630  175.7760  143.2520 C   0  0  0  0  0  0  0  0  0  0  0  0
  186.7090  177.2580  147.1980 C   0  0  0  0  0  0  0  0  0  0  0  0
  185.2910  180.7770  144.2620 C   0  0  0  0  0  1  0  0  0  0  0  0
  189.0150  177.9220  146.3910 C   0  0  0  0  0  2  0  0  0  0  0  0
  188.4430  174.5950  142.6150 C   0  0  0  0  0  3  0  0  0  0  0  0
  191.1630  175.2110  142.7020 C   0  0  0  0  0  3  0  0  0  0  0  0
  190.7300  174.0530  142.0540 C   0  0  0  0  0  3  0  0  0  0  0  0
  191.1160  176.8800  145.4010 N   0  0  0  0  0  2  0  0  0  0  0  0
  185.9490  176.0410  145.3330 C   0  0  2  0  0  3  0  0  0  0  0  0
  187.8340  177.0660  146.3620 N   0  0  0  0  0  0  0  0  0  0  0  0
  185.4650  176.9430  144.1860 C   0  0  2  0  0  3  0  0  0  0  0  0
  184.3740  177.2420  146.7720 F   0  0  0  0  0  0  0  0  0  0  0  0
  187.8560  176.6760  143.9190 C   0  0  1  0  0  3  0  0  0  0  0  0
  1  6  1  0  0  0  0
  2  8  1  0  0  0  0
  4 22  2  0  0  0  0
  4 20  1  0  0  0  0
  5 27  1  6  0  0  0
  5 17  1  0  0  0  0
  6 23  1  0  0  0  0
  7  2  1  0  0  0  0
  7  8  1  0  0  0  0
  8 14  1  0  0  0  0
  9 18  1  0  0  0  0
  9 13  1  0  0  0  0
 10  8  1  6  0  0  0
 10 28  1  0  0  0  0
 10 26  1  0  0  0  0
 12 24  1  0  0  0  0
 12 25  1  1  0  0  0
 14  9  2  0  0  0  0
 15 11  2  0  0  0  0
 16  1  1  0  0  0  0
 16 28  1  0  0  0  0
 17  3  2  0  0  0  0
 19 15  1  0  0  0  0
 20 16  2  0  0  0  0
 21  1  2  0  0  0  0
 22 21  1  0  0  0  0
 23 15  1  0  0  0  0
 24  5  1  0  0  0  0
 25 19  1  0  0  0  0
 25 17  1  0  0  0  0
 26 13  1  0  0  0  0
 26 24  1  0  0  0  0
 28 12  1  0  0  0  0
M  END
>  <MODEL>
9

>  <REMARK>
 VINA RESULT:      -7.1      2.722      6.192
  Name = 
  0 active torsions:
  status: ('A' for Active; 'I' for Inactive)
                            x       y       z     vdW  Elec       q    Type
                         _______ _______ _______ _____ _____    ______ ____

>  <TORSDO>
F 0

$$$$
