=
 OpenBabel11112416313D

 32 37  0  0  1  0  0  0  0  0999 V2000
  187.0140  177.6280  141.4480 O   0  0  0  0  0  0  0  0  0  0  0  0
  190.2280  175.8680  144.6990 C   0  0  0  0  0  0  0  0  0  0  0  0
  190.2150  178.2990  148.9280 C   0  0  0  0  0  3  0  0  0  0  0  0
  191.5180  177.8680  149.1760 C   0  0  0  0  0  3  0  0  0  0  0  0
  192.2530  174.5160  144.0140 C   0  0  1  0  0  3  0  0  0  0  0  0
  193.7740  174.6140  144.1100 C   0  0  1  0  0  3  0  0  0  0  0  0
  188.0700  175.6280  143.4160 C   0  0  1  0  0  3  0  0  0  0  0  0
  188.1190  177.1280  145.3910 C   0  0  0  0  0  2  0  0  0  0  0  0
  195.6530  175.2380  145.3860 C   0  0  2  0  0  3  0  0  0  0  0  0
  186.2510  177.4180  143.7330 C   0  0  0  0  0  2  0  0  0  0  0  0
  189.5640  177.9180  147.7530 C   0  0  0  0  0  3  0  0  0  0  0  0
  189.5590  176.7160  145.6200 C   0  0  0  0  0  0  0  0  0  0  0  0
  190.2090  177.0990  146.8110 C   0  0  0  0  0  0  0  0  0  0  0  0
  192.1930  175.8400  146.1460 C   0  0  0  0  0  0  0  0  0  0  0  0
  195.5630  176.0820  144.1210 C   0  0  0  0  0  2  0  0  0  0  0  0
  187.4310  176.3530  140.9940 C   0  0  0  0  0  2  0  0  0  0  0  0
  187.7190  177.0280  143.9290 C   0  0  2  0  0  3  0  0  0  0  0  0
  194.2830  175.8150  143.4690 N   0  0  0  0  0  2  0  0  0  0  0  0
  187.4470  175.2410  142.0680 C   0  0  0  0  0  2  0  0  0  0  0  0
  185.8660  177.4770  142.2480 C   0  0  1  0  0  3  0  0  0  0  0  0
  192.1720  177.0520  148.2510 C   0  0  0  0  0  3  0  0  0  0  0  0
  191.5290  176.6600  147.0680 C   0  0  0  0  0  0  0  0  0  0  0  0
  193.5150  175.4450  146.4000 O   0  0  0  0  0  0  0  0  0  0  0  0
  189.5850  175.4880  143.3820 C   0  0  0  0  0  2  0  0  0  0  0  0
  191.8520  173.2030  144.2620 O   0  0  0  0  0  1  0  0  0  0  0  0
  196.6110  174.2400  145.2060 O   0  0  0  0  0  1  0  0  0  0  0  0
  191.5480  175.4470  144.9630 C   0  0  0  0  0  0  0  0  0  0  0  0
  194.2920  174.6090  145.5370 C   0  0  1  0  0  3  0  0  0  0  0  0
  184.9060  178.6320  142.0180 C   0  0  0  0  0  2  0  0  0  0  0  0
  183.7850  178.2120  141.1300 C   0  0  0  0  0  0  0  0  0  0  0  0
  184.0250  177.7920  139.9690 O   0  0  0  0  0  0  0  0  0  0  0  0
  182.4450  178.2550  141.6070 N   0  0  0  0  0  1  0  0  0  0  0  0
  1 20  1  0  0  0  0
  2 27  2  0  0  0  0
  2 12  1  0  0  0  0
  3  4  1  0  0  0  0
  5  6  1  0  0  0  0
  5 25  1  1  0  0  0
  5 27  1  0  0  0  0
  6 18  1  1  0  0  0
  6 28  1  0  0  0  0
  7 19  1  6  0  0  0
  7 17  1  0  0  0  0
  8 12  1  0  0  0  0
  9 26  1  6  0  0  0
  9 28  1  0  0  0  0
 11  3  2  0  0  0  0
 12 13  2  0  0  0  0
 13 22  1  0  0  0  0
 13 11  1  0  0  0  0
 14 23  1  0  0  0  0
 14 22  2  0  0  0  0
 15  9  1  0  0  0  0
 16  1  1  0  0  0  0
 16 19  1  0  0  0  0
 17 10  1  1  0  0  0
 17  8  1  0  0  0  0
 18 15  1  0  0  0  0
 20 29  1  1  0  0  0
 20 10  1  0  0  0  0
 21  4  2  0  0  0  0
 22 21  1  0  0  0  0
 24  7  1  0  0  0  0
 24  2  1  0  0  0  0
 27 14  1  0  0  0  0
 28 23  1  1  0  0  0
 30 32  1  0  0  0  0
 30 29  1  0  0  0  0
 31 30  2  0  0  0  0
M  END
>  <MODEL>
1

>  <REMARK>
 VINA RESULT:      -8.1      0.000      0.000
  Name = 
  2 active torsions:
  status: ('A' for Active; 'I' for Inactive)
    1  A    between atoms: C_20  and  C_29
    2  A    between atoms: C_29  and  C_30
                            x       y       z     vdW  Elec       q    Type
                         _______ _______ _______ _____ _____    ______ ____

>  <TORSDO>
F 2

$$$$
=
 OpenBabel11112416313D

 32 37  0  0  1  0  0  0  0  0999 V2000
  187.0270  178.0650  142.5990 O   0  0  0  0  0  0  0  0  0  0  0  0
  190.8890  175.0940  143.1070 C   0  0  0  0  0  0  0  0  0  0  0  0
  193.8220  176.3630  146.7920 C   0  0  0  0  0  3  0  0  0  0  0  0
  194.8800  175.6970  146.1750 C   0  0  0  0  0  3  0  0  0  0  0  0
  191.7720  173.6750  141.2080 C   0  0  1  0  0  3  0  0  0  0  0  0
  193.0600  173.5210  140.4050 C   0  0  1  0  0  3  0  0  0  0  0  0
  188.4090  175.5020  143.3170 C   0  0  1  0  0  3  0  0  0  0  0  0
  189.9180  176.4360  145.0490 C   0  0  0  0  0  2  0  0  0  0  0  0
  195.4160  173.5220  140.3980 C   0  0  2  0  0  3  0  0  0  0  0  0
  187.6060  177.4040  144.8520 C   0  0  0  0  0  2  0  0  0  0  0  0
  192.5630  176.3880  146.1880 C   0  0  0  0  0  3  0  0  0  0  0  0
  191.0810  175.7730  144.3390 C   0  0  0  0  0  0  0  0  0  0  0  0
  192.3470  175.7460  144.9570 C   0  0  0  0  0  0  0  0  0  0  0  0
  193.2330  174.4160  143.1100 C   0  0  0  0  0  0  0  0  0  0  0  0
  194.8790  174.6600  139.5390 C   0  0  0  0  0  2  0  0  0  0  0  0
  186.7740  176.8970  141.8390 C   0  0  0  0  0  2  0  0  0  0  0  0
  188.7780  176.7650  144.1010 C   0  0  2  0  0  3  0  0  0  0  0  0
  193.4350  174.7560  139.7360 N   0  0  0  0  0  2  0  0  0  0  0  0
  187.0770  175.5610  142.5570 C   0  0  0  0  0  2  0  0  0  0  0  0
  186.5070  177.8880  143.8960 C   0  0  1  0  0  3  0  0  0  0  0  0
  194.6820  175.0520  144.9530 C   0  0  0  0  0  3  0  0  0  0  0  0
  193.4230  175.0680  144.3360 C   0  0  0  0  0  0  0  0  0  0  0  0
  194.3190  173.7810  142.4900 O   0  0  0  0  0  0  0  0  0  0  0  0
  189.5600  175.1550  142.3840 C   0  0  0  0  0  2  0  0  0  0  0  0
  191.2390  172.4150  141.4850 O   0  0  0  0  0  1  0  0  0  0  0  0
  195.8170  172.4720  139.5730 O   0  0  0  0  0  1  0  0  0  0  0  0
  191.9720  174.4310  142.4930 C   0  0  0  0  0  0  0  0  0  0  0  0
  194.2480  173.0830  141.2430 C   0  0  1  0  0  3  0  0  0  0  0  0
  185.9240  179.1920  144.4130 C   0  0  0  0  0  2  0  0  0  0  0  0
  184.4750  179.0300  144.7220 C   0  0  0  0  0  0  0  0  0  0  0  0
  183.6240  179.0800  143.7960 O   0  0  0  0  0  0  0  0  0  0  0  0
  184.0550  178.7870  146.0600 N   0  0  0  0  0  1  0  0  0  0  0  0
  1 20  1  0  0  0  0
  2 12  1  0  0  0  0
  4  3  1  0  0  0  0
  5 25  1  1  0  0  0
  5 27  1  0  0  0  0
  6 18  1  1  0  0  0
  6  5  1  0  0  0  0
  6 28  1  0  0  0  0
  7 24  1  6  0  0  0
  7 17  1  0  0  0  0
  9 26  1  6  0  0  0
  9 28  1  0  0  0  0
 11  3  2  0  0  0  0
 12 13  2  0  0  0  0
 12  8  1  0  0  0  0
 13 11  1  0  0  0  0
 14 22  2  0  0  0  0
 15 18  1  0  0  0  0
 15  9  1  0  0  0  0
 16 19  1  0  0  0  0
 16  1  1  0  0  0  0
 17 10  1  1  0  0  0
 17  8  1  0  0  0  0
 19  7  1  0  0  0  0
 20 29  1  1  0  0  0
 20 10  1  0  0  0  0
 21  4  2  0  0  0  0
 22 21  1  0  0  0  0
 22 13  1  0  0  0  0
 23 14  1  0  0  0  0
 24  2  1  0  0  0  0
 27  2  2  0  0  0  0
 27 14  1  0  0  0  0
 28 23  1  1  0  0  0
 29 30  1  0  0  0  0
 30 32  1  0  0  0  0
 31 30  2  0  0  0  0
M  END
>  <MODEL>
2

>  <REMARK>
 VINA RESULT:      -8.0      2.585      3.465
  Name = 
  2 active torsions:
  status: ('A' for Active; 'I' for Inactive)
    1  A    between atoms: C_20  and  C_29
    2  A    between atoms: C_29  and  C_30
                            x       y       z     vdW  Elec       q    Type
                         _______ _______ _______ _____ _____    ______ ____

>  <TORSDO>
F 2

$$$$
=
 OpenBabel11112416313D

 32 37  0  0  1  0  0  0  0  0999 V2000
  194.7490  176.4510  145.1820 O   0  0  0  0  0  0  0  0  0  0  0  0
  190.1060  175.2450  144.1870 C   0  0  0  0  0  0  0  0  0  0  0  0
  189.6750  172.2310  140.3760 C   0  0  0  0  0  3  0  0  0  0  0  0
  188.3640  172.6660  140.1830 C   0  0  0  0  0  3  0  0  0  0  0  0
  188.1460  176.6710  144.9100 C   0  0  1  0  0  3  0  0  0  0  0  0
  187.0010  177.4460  144.2630 C   0  0  1  0  0  3  0  0  0  0  0  0
  192.1370  175.0620  145.6710 C   0  0  1  0  0  3  0  0  0  0  0  0
  192.0810  173.7500  143.5670 C   0  0  0  0  0  2  0  0  0  0  0  0
  185.3820  177.5520  142.5550 C   0  0  2  0  0  3  0  0  0  0  0  0
  194.3110  174.1290  144.6630 C   0  0  0  0  0  2  0  0  0  0  0  0
  190.4440  172.7620  141.4140 C   0  0  0  0  0  3  0  0  0  0  0  0
  190.6820  174.2800  143.3200 C   0  0  0  0  0  0  0  0  0  0  0  0
  189.9090  173.7360  142.2740 C   0  0  0  0  0  0  0  0  0  0  0  0
  188.0200  175.1390  142.9250 C   0  0  0  0  0  0  0  0  0  0  0  0
  186.3870  178.6870  142.4080 C   0  0  0  0  0  2  0  0  0  0  0  0
  193.9600  176.8180  146.3000 C   0  0  0  0  0  2  0  0  0  0  0  0
  192.9170  174.7050  144.4020 C   0  0  2  0  0  3  0  0  0  0  0  0
  187.4840  178.4670  143.3470 N   0  0  0  0  0  2  0  0  0  0  0  0
  192.9500  175.7480  146.7770 C   0  0  0  0  0  2  0  0  0  0  0  0
  195.2260  175.1390  145.3700 C   0  0  1  0  0  3  0  0  0  0  0  0
  187.8180  173.6310  141.0310 C   0  0  0  0  0  3  0  0  0  0  0  0
  188.5770  174.1720  142.0780 C   0  0  0  0  0  0  0  0  0  0  0  0
  186.7110  175.5870  142.6940 O   0  0  0  0  0  0  0  0  0  0  0  0
  190.9260  175.8960  145.2800 C   0  0  0  0  0  2  0  0  0  0  0  0
  187.6800  176.0100  146.0470 O   0  0  0  0  0  1  0  0  0  0  0  0
  184.2140  178.0430  143.1380 O   0  0  0  0  0  1  0  0  0  0  0  0
  188.7810  175.6790  143.9740 C   0  0  0  0  0  0  0  0  0  0  0  0
  186.0350  176.5660  143.4890 C   0  0  1  0  0  3  0  0  0  0  0  0
  196.6390  175.0090  144.8280 C   0  0  0  0  0  2  0  0  0  0  0  0
  197.2660  173.7420  145.2990 C   0  0  0  0  0  0  0  0  0  0  0  0
  197.1910  173.4160  146.5130 O   0  0  0  0  0  0  0  0  0  0  0  0
  197.9210  172.8830  144.3720 N   0  0  0  0  0  1  0  0  0  0  0  0
  1 20  1  0  0  0  0
  1 16  1  0  0  0  0
  2 24  1  0  0  0  0
  3 11  1  0  0  0  0
  4  3  2  0  0  0  0
  4 21  1  0  0  0  0
  5 25  1  1  0  0  0
  6 18  1  6  0  0  0
  6  5  1  0  0  0  0
  7 24  1  6  0  0  0
  7 19  1  0  0  0  0
  9 26  1  1  0  0  0
  9 28  1  0  0  0  0
 10 20  1  0  0  0  0
 11 13  2  0  0  0  0
 12  8  1  0  0  0  0
 12  2  2  0  0  0  0
 13 12  1  0  0  0  0
 14 27  2  0  0  0  0
 15  9  1  0  0  0  0
 15 18  1  0  0  0  0
 16 19  1  0  0  0  0
 17  8  1  1  0  0  0
 17 10  1  0  0  0  0
 17  7  1  0  0  0  0
 20 29  1  6  0  0  0
 21 22  2  0  0  0  0
 22 13  1  0  0  0  0
 22 14  1  0  0  0  0
 23 14  1  0  0  0  0
 27  2  1  0  0  0  0
 27  5  1  0  0  0  0
 28 23  1  6  0  0  0
 28  6  1  0  0  0  0
 29 30  1  0  0  0  0
 30 31  2  0  0  0  0
 32 30  1  0  0  0  0
M  END
>  <MODEL>
3

>  <REMARK>
 VINA RESULT:      -8.0      2.338      8.906
  Name = 
  2 active torsions:
  status: ('A' for Active; 'I' for Inactive)
    1  A    between atoms: C_20  and  C_29
    2  A    between atoms: C_29  and  C_30
                            x       y       z     vdW  Elec       q    Type
                         _______ _______ _______ _____ _____    ______ ____

>  <TORSDO>
F 2

$$$$
=
 OpenBabel11112416313D

 32 37  0  0  1  0  0  0  0  0999 V2000
  187.6270  176.3870  146.4540 O   0  0  0  0  0  0  0  0  0  0  0  0
  190.6890  175.2730  142.7960 C   0  0  0  0  0  0  0  0  0  0  0  0
  188.5670  172.7250  139.2180 C   0  0  0  0  0  3  0  0  0  0  0  0
  189.8120  172.2240  138.8400 C   0  0  0  0  0  3  0  0  0  0  0  0
  193.1990  175.1910  143.1010 C   0  0  1  0  0  3  0  0  0  0  0  0
  194.3280  174.1710  142.9830 C   0  0  1  0  0  3  0  0  0  0  0  0
  189.3290  176.9810  144.0580 C   0  0  1  0  0  3  0  0  0  0  0  0
  188.1660  175.4750  142.4670 C   0  0  0  0  0  2  0  0  0  0  0  0
  195.2420  172.3370  141.8220 C   0  0  2  0  0  3  0  0  0  0  0  0
  186.7820  176.6540  144.2040 C   0  0  0  0  0  2  0  0  0  0  0  0
  188.4650  173.6050  140.2980 C   0  0  0  0  0  3  0  0  0  0  0  0
  189.5120  174.8780  142.1080 C   0  0  0  0  0  0  0  0  0  0  0  0
  189.6090  173.9960  141.0140 C   0  0  0  0  0  0  0  0  0  0  0  0
  192.0280  173.8640  141.3200 C   0  0  0  0  0  0  0  0  0  0  0  0
  194.8740  171.9370  143.2450 C   0  0  0  0  0  2  0  0  0  0  0  0
  188.7820  177.1930  146.6000 C   0  0  0  0  0  2  0  0  0  0  0  0
  188.1420  176.0290  143.8810 C   0  0  2  0  0  3  0  0  0  0  0  0
  194.1240  173.0290  143.8600 N   0  0  0  0  0  2  0  0  0  0  0  0
  189.2810  177.8750  145.3040 C   0  0  0  0  0  2  0  0  0  0  0  0
  186.6800  177.0790  145.6760 C   0  0  1  0  0  3  0  0  0  0  0  0
  190.9590  172.6040  139.5400 C   0  0  0  0  0  3  0  0  0  0  0  0
  190.8710  173.4870  140.6250 C   0  0  0  0  0  0  0  0  0  0  0  0
  193.2670  173.3220  140.9450 O   0  0  0  0  0  0  0  0  0  0  0  0
  190.6150  176.1690  144.0140 C   0  0  0  0  0  2  0  0  0  0  0  0
  193.6180  176.4160  142.5790 O   0  0  0  0  0  1  0  0  0  0  0  0
  196.6180  172.5540  141.7450 O   0  0  0  0  0  1  0  0  0  0  0  0
  191.9400  174.7510  142.4050 C   0  0  0  0  0  0  0  0  0  0  0  0
  194.5130  173.6320  141.5760 C   0  0  1  0  0  3  0  0  0  0  0  0
  185.2760  176.8070  146.1860 C   0  0  0  0  0  2  0  0  0  0  0  0
  184.5890  178.0820  146.5350 C   0  0  0  0  0  0  0  0  0  0  0  0
  184.8220  178.6420  147.6380 O   0  0  0  0  0  0  0  0  0  0  0  0
  183.6940  178.6860  145.6080 N   0  0  0  0  0  1  0  0  0  0  0  0
  1 16  1  0  0  0  0
  2 24  1  0  0  0  0
  3 11  1  0  0  0  0
  4  3  2  0  0  0  0
  4 21  1  0  0  0  0
  5 25  1  6  0  0  0
  6  5  1  0  0  0  0
  6 18  1  1  0  0  0
  7 24  1  1  0  0  0
  7 19  1  0  0  0  0
  9 26  1  1  0  0  0
  9 15  1  0  0  0  0
 10 20  1  0  0  0  0
 11 13  2  0  0  0  0
 12  8  1  0  0  0  0
 12  2  2  0  0  0  0
 13 12  1  0  0  0  0
 14 27  2  0  0  0  0
 15 18  1  0  0  0  0
 17  8  1  6  0  0  0
 17  7  1  0  0  0  0
 17 10  1  0  0  0  0
 19 16  1  0  0  0  0
 20 29  1  1  0  0  0
 20  1  1  0  0  0  0
 21 22  2  0  0  0  0
 22 13  1  0  0  0  0
 22 14  1  0  0  0  0
 23 14  1  0  0  0  0
 27  2  1  0  0  0  0
 27  5  1  0  0  0  0
 28 23  1  1  0  0  0
 28  9  1  0  0  0  0
 28  6  1  0  0  0  0
 29 30  1  0  0  0  0
 30 31  2  0  0  0  0
 32 30  1  0  0  0  0
M  END
>  <MODEL>
4

>  <REMARK>
 VINA RESULT:      -7.6      3.112      5.500
  Name = 
  2 active torsions:
  status: ('A' for Active; 'I' for Inactive)
    1  A    between atoms: C_20  and  C_29
    2  A    between atoms: C_29  and  C_30
                            x       y       z     vdW  Elec       q    Type
                         _______ _______ _______ _____ _____    ______ ____

>  <TORSDO>
F 2

$$$$
=
 OpenBabel11112416313D

 32 37  0  0  1  0  0  0  0  0999 V2000
  188.9050  171.7160  139.9350 O   0  0  0  0  0  0  0  0  0  0  0  0
  189.1330  175.4850  143.0550 C   0  0  0  0  0  0  0  0  0  0  0  0
  192.5270  174.9200  146.5130 C   0  0  0  0  0  3  0  0  0  0  0  0
  191.8330  175.8070  147.3350 C   0  0  0  0  0  3  0  0  0  0  0  0
  187.1920  177.0650  143.4230 C   0  0  1  0  0  3  0  0  0  0  0  0
  186.2830  177.5060  144.5670 C   0  0  1  0  0  3  0  0  0  0  0  0
  189.5490  174.5260  140.7600 C   0  0  1  0  0  3  0  0  0  0  0  0
  191.1260  173.9610  142.5890 C   0  0  0  0  0  2  0  0  0  0  0  0
  186.0730  178.0390  146.8520 C   0  0  2  0  0  3  0  0  0  0  0  0
  191.1120  172.4940  140.5470 C   0  0  0  0  0  2  0  0  0  0  0  0
  192.0330  174.6090  145.2440 C   0  0  0  0  0  3  0  0  0  0  0  0
  190.3300  174.8700  143.5040 C   0  0  0  0  0  0  0  0  0  0  0  0
  190.8370  175.1840  144.7810 C   0  0  0  0  0  0  0  0  0  0  0  0
  188.9460  176.6770  145.1760 C   0  0  0  0  0  0  0  0  0  0  0  0
  185.2420  176.8070  146.5130 C   0  0  0  0  0  2  0  0  0  0  0  0
  188.1910  172.7950  139.3590 C   0  0  0  0  0  2  0  0  0  0  0  0
  190.2750  173.3800  141.4730 C   0  0  2  0  0  3  0  0  0  0  0  0
  185.5610  176.3870  145.1510 N   0  0  0  0  0  2  0  0  0  0  0  0
  188.9050  174.1650  139.4140 C   0  0  0  0  0  2  0  0  0  0  0  0
  190.2450  171.7720  139.5060 C   0  0  1  0  0  3  0  0  0  0  0  0
  190.6450  176.3890  146.8890 C   0  0  0  0  0  3  0  0  0  0  0  0
  190.1380  176.0870  145.6160 C   0  0  0  0  0  0  0  0  0  0  0  0
  188.2460  177.5410  146.0310 O   0  0  0  0  0  0  0  0  0  0  0  0
  188.5270  175.1240  141.7150 C   0  0  0  0  0  2  0  0  0  0  0  0
  187.5360  178.1720  142.6460 O   0  0  0  0  0  1  0  0  0  0  0  0
  185.2360  179.1520  146.9300 O   0  0  0  0  0  1  0  0  0  0  0  0
  188.4400  176.3760  143.9010 C   0  0  0  0  0  0  0  0  0  0  0  0
  187.0230  178.2030  145.6940 C   0  0  1  0  0  3  0  0  0  0  0  0
  190.7860  170.3700  139.2800 C   0  0  0  0  0  2  0  0  0  0  0  0
  190.2810  169.8160  137.9920 C   0  0  0  0  0  0  0  0  0  0  0  0
  190.0660  168.5800  137.8800 O   0  0  0  0  0  0  0  0  0  0  0  0
  190.0090  170.6860  136.9000 N   0  0  0  0  0  1  0  0  0  0  0  0
  2 12  2  0  0  0  0
  2 27  1  0  0  0  0
  3  4  1  0  0  0  0
  5 25  1  1  0  0  0
  5 27  1  0  0  0  0
  5  6  1  0  0  0  0
  6 18  1  1  0  0  0
  6 28  1  0  0  0  0
  7 19  1  6  0  0  0
  7 17  1  0  0  0  0
  7 24  1  0  0  0  0
  8 12  1  0  0  0  0
  9 26  1  6  0  0  0
 11  3  2  0  0  0  0
 12 13  1  0  0  0  0
 13 11  1  0  0  0  0
 13 22  2  0  0  0  0
 14 22  1  0  0  0  0
 14 23  1  0  0  0  0
 15  9  1  0  0  0  0
 16 19  1  0  0  0  0
 16  1  1  0  0  0  0
 17 10  1  6  0  0  0
 17  8  1  0  0  0  0
 18 15  1  0  0  0  0
 20 29  1  1  0  0  0
 20  1  1  0  0  0  0
 20 10  1  0  0  0  0
 21  4  2  0  0  0  0
 22 21  1  0  0  0  0
 24  2  1  0  0  0  0
 27 14  2  0  0  0  0
 28 23  1  1  0  0  0
 28  9  1  0  0  0  0
 30 29  1  0  0  0  0
 31 30  2  0  0  0  0
 32 30  1  0  0  0  0
M  END
>  <MODEL>
5

>  <REMARK>
 VINA RESULT:      -7.5      3.870      6.950
  Name = 
  2 active torsions:
  status: ('A' for Active; 'I' for Inactive)
    1  A    between atoms: C_20  and  C_29
    2  A    between atoms: C_29  and  C_30
                            x       y       z     vdW  Elec       q    Type
                         _______ _______ _______ _____ _____    ______ ____

>  <TORSDO>
F 2

$$$$
=
 OpenBabel11112416313D

 32 37  0  0  1  0  0  0  0  0999 V2000
  186.4280  178.0170  141.6760 O   0  0  0  0  0  0  0  0  0  0  0  0
  190.3420  175.8170  143.6360 C   0  0  0  0  0  0  0  0  0  0  0  0
  191.1910  177.1520  148.2500 C   0  0  0  0  0  3  0  0  0  0  0  0
  192.5310  176.7900  148.1050 C   0  0  0  0  0  3  0  0  0  0  0  0
  192.2070  174.8510  142.2260 C   0  0  1  0  0  3  0  0  0  0  0  0
  193.7060  175.0560  142.0250 C   0  0  1  0  0  3  0  0  0  0  0  0
  187.9610  175.7030  142.8110 C   0  0  1  0  0  3  0  0  0  0  0  0
  188.3990  176.6840  145.0460 C   0  0  0  0  0  2  0  0  0  0  0  0
  195.8010  175.5180  142.9990 C   0  0  2  0  0  3  0  0  0  0  0  0
  186.2010  177.1990  143.9410 C   0  0  0  0  0  2  0  0  0  0  0  0
  190.3080  177.0080  147.1780 C   0  0  0  0  0  3  0  0  0  0  0  0
  189.8670  176.3570  144.8590 C   0  0  0  0  0  0  0  0  0  0  0  0
  190.7530  176.4990  145.9460 C   0  0  0  0  0  0  0  0  0  0  0  0
  192.5790  175.6150  144.5880 C   0  0  0  0  0  0  0  0  0  0  0  0
  195.4030  176.6290  142.0360 C   0  0  0  0  0  2  0  0  0  0  0  0
  186.7750  176.9290  140.8380 C   0  0  0  0  0  2  0  0  0  0  0  0
  187.6870  176.9030  143.7230 C   0  0  2  0  0  3  0  0  0  0  0  0
  194.0200  176.4160  141.6180 N   0  0  0  0  0  2  0  0  0  0  0  0
  187.0670  175.5970  141.5680 C   0  0  0  0  0  2  0  0  0  0  0  0
  185.4920  177.5780  142.6320 C   0  0  1  0  0  3  0  0  0  0  0  0
  192.9880  176.2810  146.8880 C   0  0  0  0  0  3  0  0  0  0  0  0
  192.1120  176.1290  145.8050 C   0  0  0  0  0  0  0  0  0  0  0  0
  193.9370  175.2880  144.4530 O   0  0  0  0  0  0  0  0  0  0  0  0
  189.4340  175.7090  142.4290 C   0  0  0  0  0  2  0  0  0  0  0  0
  191.9150  173.4870  142.2100 O   0  0  0  0  0  1  0  0  0  0  0  0
  196.7270  174.6800  142.3780 O   0  0  0  0  0  1  0  0  0  0  0  0
  191.7000  175.4620  143.5040 C   0  0  0  0  0  0  0  0  0  0  0  0
  194.5290  174.7540  143.2650 C   0  0  1  0  0  3  0  0  0  0  0  0
  184.4680  178.6660  142.9070 C   0  0  0  0  0  2  0  0  0  0  0  0
  184.7520  179.3350  144.2070 C   0  0  0  0  0  0  0  0  0  0  0  0
  185.5840  180.2790  144.2620 O   0  0  0  0  0  0  0  0  0  0  0  0
  184.0590  178.9310  145.3830 N   0  0  0  0  0  1  0  0  0  0  0  0
  1 20  1  0  0  0  0
  2 12  1  0  0  0  0
  4  3  1  0  0  0  0
  5 25  1  1  0  0  0
  5 27  1  0  0  0  0
  6 18  1  1  0  0  0
  6  5  1  0  0  0  0
  6 28  1  0  0  0  0
  7 19  1  6  0  0  0
  7 17  1  0  0  0  0
  9 26  1  6  0  0  0
  9 28  1  0  0  0  0
 11  3  2  0  0  0  0
 12  8  1  0  0  0  0
 12 13  2  0  0  0  0
 13 11  1  0  0  0  0
 14 22  2  0  0  0  0
 15  9  1  0  0  0  0
 16 19  1  0  0  0  0
 16  1  1  0  0  0  0
 17 10  1  1  0  0  0
 17  8  1  0  0  0  0
 18 15  1  0  0  0  0
 20 29  1  1  0  0  0
 20 10  1  0  0  0  0
 21  4  2  0  0  0  0
 22 13  1  0  0  0  0
 22 21  1  0  0  0  0
 23 14  1  0  0  0  0
 24  7  1  0  0  0  0
 24  2  1  0  0  0  0
 27  2  2  0  0  0  0
 27 14  1  0  0  0  0
 28 23  1  1  0  0  0
 29 30  1  0  0  0  0
 30 31  2  0  0  0  0
 30 32  1  0  0  0  0
M  END
>  <MODEL>
6

>  <REMARK>
 VINA RESULT:      -7.4      1.664      1.986
  Name = 
  2 active torsions:
  status: ('A' for Active; 'I' for Inactive)
    1  A    between atoms: C_20  and  C_29
    2  A    between atoms: C_29  and  C_30
                            x       y       z     vdW  Elec       q    Type
                         _______ _______ _______ _____ _____    ______ ____

>  <TORSDO>
F 2

$$$$
=
 OpenBabel11112416313D

 32 37  0  0  1  0  0  0  0  0999 V2000
  187.4890  177.6270  142.9780 O   0  0  0  0  0  0  0  0  0  0  0  0
  191.4340  174.7290  142.8040 C   0  0  0  0  0  0  0  0  0  0  0  0
  194.5190  175.4530  146.5130 C   0  0  0  0  0  3  0  0  0  0  0  0
  195.5600  174.9300  145.7450 C   0  0  0  0  0  3  0  0  0  0  0  0
  192.2520  173.6720  140.6560 C   0  0  1  0  0  3  0  0  0  0  0  0
  193.5020  173.6920  139.7800 C   0  0  1  0  0  3  0  0  0  0  0  0
  188.9600  175.0230  143.1920 C   0  0  1  0  0  3  0  0  0  0  0  0
  190.5330  175.7000  144.9860 C   0  0  0  0  0  2  0  0  0  0  0  0
  195.8540  173.7640  139.6670 C   0  0  2  0  0  3  0  0  0  0  0  0
  188.1940  176.6180  145.0600 C   0  0  0  0  0  2  0  0  0  0  0  0
  193.2320  175.5410  145.9790 C   0  0  0  0  0  3  0  0  0  0  0  0
  191.6730  175.1980  144.1220 C   0  0  0  0  0  0  0  0  0  0  0  0
  192.9690  175.1060  144.6680 C   0  0  0  0  0  0  0  0  0  0  0  0
  193.7900  174.1290  142.5860 C   0  0  0  0  0  0  0  0  0  0  0  0
  195.2510  175.0130  139.0360 C   0  0  0  0  0  2  0  0  0  0  0  0
  187.2240  176.5950  142.0450 C   0  0  0  0  0  2  0  0  0  0  0  0
  189.3410  176.1480  144.1600 C   0  0  2  0  0  3  0  0  0  0  0  0
  193.8160  175.0320  139.3120 N   0  0  0  0  0  2  0  0  0  0  0  0
  187.5910  175.1680  142.5140 C   0  0  0  0  0  2  0  0  0  0  0  0
  187.0390  177.2220  144.2490 C   0  0  1  0  0  3  0  0  0  0  0  0
  195.3150  174.4920  144.4420 C   0  0  0  0  0  3  0  0  0  0  0  0
  194.0270  174.5730  143.8940 C   0  0  0  0  0  0  0  0  0  0  0  0
  194.8570  173.6380  141.8200 O   0  0  0  0  0  0  0  0  0  0  0  0
  190.0700  174.8700  142.1630 C   0  0  0  0  0  2  0  0  0  0  0  0
  191.7610  172.3680  140.7410 O   0  0  0  0  0  1  0  0  0  0  0  0
  196.2350  172.8780  138.6600 O   0  0  0  0  0  1  0  0  0  0  0  0
  192.4990  174.2090  142.0390 C   0  0  0  0  0  0  0  0  0  0  0  0
  194.7390  173.1560  140.4780 C   0  0  1  0  0  3  0  0  0  0  0  0
  186.4540  178.4030  145.0030 C   0  0  0  0  0  2  0  0  0  0  0  0
  185.4270  179.0970  144.1750 C   0  0  0  0  0  0  0  0  0  0  0  0
  185.5670  180.3140  143.8880 O   0  0  0  0  0  0  0  0  0  0  0  0
  184.3050  178.3750  143.6800 N   0  0  0  0  0  1  0  0  0  0  0  0
  1 20  1  0  0  0  0
  2 12  1  0  0  0  0
  4  3  1  0  0  0  0
  5 25  1  1  0  0  0
  5 27  1  0  0  0  0
  6 18  1  1  0  0  0
  6 28  1  0  0  0  0
  6  5  1  0  0  0  0
  7 24  1  6  0  0  0
  7 17  1  0  0  0  0
  9 26  1  6  0  0  0
  9 28  1  0  0  0  0
 11  3  2  0  0  0  0
 12 13  2  0  0  0  0
 12  8  1  0  0  0  0
 13 11  1  0  0  0  0
 14 22  2  0  0  0  0
 15 18  1  0  0  0  0
 15  9  1  0  0  0  0
 16 19  1  0  0  0  0
 16  1  1  0  0  0  0
 17  8  1  1  0  0  0
 17 10  1  0  0  0  0
 19  7  1  0  0  0  0
 20 29  1  1  0  0  0
 20 10  1  0  0  0  0
 21  4  2  0  0  0  0
 22 21  1  0  0  0  0
 22 13  1  0  0  0  0
 23 14  1  0  0  0  0
 24  2  1  0  0  0  0
 27 14  1  0  0  0  0
 27  2  2  0  0  0  0
 28 23  1  1  0  0  0
 30 29  1  0  0  0  0
 31 30  2  0  0  0  0
 32 30  1  0  0  0  0
M  END
>  <MODEL>
7

>  <REMARK>
 VINA RESULT:      -7.3      2.765      4.007
  Name = 
  2 active torsions:
  status: ('A' for Active; 'I' for Inactive)
    1  A    between atoms: C_20  and  C_29
    2  A    between atoms: C_29  and  C_30
                            x       y       z     vdW  Elec       q    Type
                         _______ _______ _______ _____ _____    ______ ____

>  <TORSDO>
F 2

$$$$
=
 OpenBabel11112416313D

 32 37  0  0  1  0  0  0  0  0999 V2000
  191.2010  172.8090  138.0110 O   0  0  0  0  0  0  0  0  0  0  0  0
  189.3380  174.2860  142.2940 C   0  0  0  0  0  0  0  0  0  0  0  0
  186.3790  178.1420  141.8800 C   0  0  0  0  0  3  0  0  0  0  0  0
  186.6180  178.4650  143.2150 C   0  0  0  0  0  3  0  0  0  0  0  0
  190.4400  173.7590  144.5100 C   0  0  1  0  0  3  0  0  0  0  0  0
  191.0490  174.5150  145.6870 C   0  0  1  0  0  3  0  0  0  0  0  0
  189.4270  172.6010  140.4200 C   0  0  1  0  0  3  0  0  0  0  0  0
  188.1690  174.7100  140.0650 C   0  0  0  0  0  2  0  0  0  0  0  0
  190.9500  176.3800  147.1230 C   0  0  2  0  0  3  0  0  0  0  0  0
  188.8520  173.3870  138.0390 C   0  0  0  0  0  2  0  0  0  0  0  0
  186.9960  177.0270  141.3090 C   0  0  0  0  0  3  0  0  0  0  0  0
  188.4900  175.0960  141.4950 C   0  0  0  0  0  0  0  0  0  0  0  0
  187.8600  176.2190  142.0680 C   0  0  0  0  0  0  0  0  0  0  0  0
  188.9510  175.7560  144.2030 C   0  0  0  0  0  0  0  0  0  0  0  0
  192.2260  176.4140  146.2910 C   0  0  0  0  0  2  0  0  0  0  0  0
  191.4210  171.7760  138.9550 C   0  0  0  0  0  2  0  0  0  0  0  0
  189.2190  173.7860  139.4710 C   0  0  2  0  0  3  0  0  0  0  0  0
  192.1510  175.3690  145.2740 N   0  0  0  0  0  2  0  0  0  0  0  0
  190.2020  171.4130  139.8350 C   0  0  0  0  0  2  0  0  0  0  0  0
  189.9710  172.5820  137.3630 C   0  0  1  0  0  3  0  0  0  0  0  0
  187.4720  177.6720  143.9840 C   0  0  0  0  0  3  0  0  0  0  0  0
  188.0960  176.5480  143.4230 C   0  0  0  0  0  0  0  0  0  0  0  0
  189.2040  176.1180  145.5340 O   0  0  0  0  0  0  0  0  0  0  0  0
  190.0800  173.1090  141.6960 C   0  0  0  0  0  2  0  0  0  0  0  0
  189.6910  172.6800  144.9830 O   0  0  0  0  0  1  0  0  0  0  0  0
  191.2490  175.9170  148.4050 O   0  0  0  0  0  1  0  0  0  0  0  0
  189.5740  174.6310  143.6410 C   0  0  0  0  0  0  0  0  0  0  0  0
  190.0530  175.3900  146.4260 C   0  0  1  0  0  3  0  0  0  0  0  0
  190.0650  172.9770  135.8990 C   0  0  0  0  0  2  0  0  0  0  0  0
  191.0360  172.1010  135.1820 C   0  0  0  0  0  0  0  0  0  0  0  0
  192.0560  172.6030  134.6410 O   0  0  0  0  0  0  0  0  0  0  0  0
  190.8280  170.6940  135.1380 N   0  0  0  0  0  1  0  0  0  0  0  0
  1 16  1  0  0  0  0
  2 27  1  0  0  0  0
  3  4  1  0  0  0  0
  4 21  2  0  0  0  0
  5 25  1  1  0  0  0
  5  6  1  0  0  0  0
  6 18  1  6  0  0  0
  6 28  1  0  0  0  0
  7 19  1  6  0  0  0
  7 24  1  0  0  0  0
  8 12  1  0  0  0  0
  9 26  1  1  0  0  0
 11  3  2  0  0  0  0
 11 13  1  0  0  0  0
 12 13  1  0  0  0  0
 12  2  2  0  0  0  0
 13 22  2  0  0  0  0
 14 23  1  0  0  0  0
 15  9  1  0  0  0  0
 16 19  1  0  0  0  0
 17 10  1  6  0  0  0
 17  8  1  0  0  0  0
 17  7  1  0  0  0  0
 18 15  1  0  0  0  0
 20 29  1  6  0  0  0
 20  1  1  0  0  0  0
 20 10  1  0  0  0  0
 22 21  1  0  0  0  0
 22 14  1  0  0  0  0
 24  2  1  0  0  0  0
 27 14  2  0  0  0  0
 27  5  1  0  0  0  0
 28 23  1  6  0  0  0
 28  9  1  0  0  0  0
 30 29  1  0  0  0  0
 31 30  2  0  0  0  0
 32 30  1  0  0  0  0
M  END
>  <MODEL>
8

>  <REMARK>
 VINA RESULT:      -7.2      4.194      6.413
  Name = 
  2 active torsions:
  status: ('A' for Active; 'I' for Inactive)
    1  A    between atoms: C_20  and  C_29
    2  A    between atoms: C_29  and  C_30
                            x       y       z     vdW  Elec       q    Type
                         _______ _______ _______ _____ _____    ______ ____

>  <TORSDO>
F 2

$$$$
=
 OpenBabel11112416313D

 32 37  0  0  1  0  0  0  0  0999 V2000
  187.3920  176.7720  146.0410 O   0  0  0  0  0  0  0  0  0  0  0  0
  190.5930  174.5880  143.0440 C   0  0  0  0  0  0  0  0  0  0  0  0
  188.5660  172.9750  138.9100 C   0  0  0  0  0  3  0  0  0  0  0  0
  189.6000  172.0480  138.7690 C   0  0  0  0  0  3  0  0  0  0  0  0
  192.7670  173.5930  143.8680 C   0  0  1  0  0  3  0  0  0  0  0  0
  193.4510  172.2300  143.9150 C   0  0  1  0  0  3  0  0  0  0  0  0
  189.6890  176.6850  144.1150 C   0  0  1  0  0  3  0  0  0  0  0  0
  188.4550  175.7010  142.2010 C   0  0  0  0  0  2  0  0  0  0  0  0
  193.8830  170.1800  142.8370 C   0  0  2  0  0  3  0  0  0  0  0  0
  187.2320  177.3160  143.6890 C   0  0  0  0  0  2  0  0  0  0  0  0
  188.5460  173.8370  140.0080 C   0  0  0  0  0  3  0  0  0  0  0  0
  189.5410  174.6490  142.0920 C   0  0  0  0  0  0  0  0  0  0  0  0
  189.5600  173.7850  140.9790 C   0  0  0  0  0  0  0  0  0  0  0  0
  191.6340  172.7770  141.7820 C   0  0  0  0  0  0  0  0  0  0  0  0
  193.0840  169.9530  144.1150 C   0  0  0  0  0  2  0  0  0  0  0  0
  188.6950  177.0990  146.4900 C   0  0  0  0  0  2  0  0  0  0  0  0
  188.3120  176.2340  143.6170 C   0  0  2  0  0  3  0  0  0  0  0  0
  192.6580  171.2480  144.6380 N   0  0  0  0  0  2  0  0  0  0  0  0
  189.6840  177.5430  145.3870 C   0  0  0  0  0  2  0  0  0  0  0  0
  186.9590  177.7590  145.1340 C   0  0  1  0  0  3  0  0  0  0  0  0
  190.6160  171.9850  139.7240 C   0  0  0  0  0  3  0  0  0  0  0  0
  190.6090  172.8470  140.8300 C   0  0  0  0  0  0  0  0  0  0  0  0
  192.6460  171.8160  141.6390 O   0  0  0  0  0  0  0  0  0  0  0  0
  190.5720  175.4570  144.2830 C   0  0  0  0  0  2  0  0  0  0  0  0
  193.7050  174.5750  143.5440 O   0  0  0  0  0  1  0  0  0  0  0  0
  195.2240  169.8770  143.0720 O   0  0  0  0  0  1  0  0  0  0  0  0
  191.6260  173.6420  142.8890 C   0  0  0  0  0  0  0  0  0  0  0  0
  193.7430  171.6510  142.5420 C   0  0  1  0  0  3  0  0  0  0  0  0
  185.4740  178.0240  145.3120 C   0  0  0  0  0  2  0  0  0  0  0  0
  184.9970  179.0200  144.3110 C   0  0  0  0  0  0  0  0  0  0  0  0
  185.5160  180.1660  144.2660 O   0  0  0  0  0  0  0  0  0  0  0  0
  183.9770  178.6660  143.3840 N   0  0  0  0  0  1  0  0  0  0  0  0
  1 16  1  0  0  0  0
  2 24  1  0  0  0  0
  3 11  1  0  0  0  0
  4  3  2  0  0  0  0
  4 21  1  0  0  0  0
  5 25  1  6  0  0  0
  5  6  1  0  0  0  0
  6 18  1  6  0  0  0
  7 24  1  1  0  0  0
  7 19  1  0  0  0  0
  9 26  1  1  0  0  0
  9 15  1  0  0  0  0
 10 20  1  0  0  0  0
 11 13  2  0  0  0  0
 12  8  1  0  0  0  0
 12  2  2  0  0  0  0
 13 12  1  0  0  0  0
 14 27  2  0  0  0  0
 15 18  1  0  0  0  0
 17  8  1  6  0  0  0
 17 10  1  0  0  0  0
 17  7  1  0  0  0  0
 19 16  1  0  0  0  0
 20 29  1  6  0  0  0
 20  1  1  0  0  0  0
 21 22  2  0  0  0  0
 22 13  1  0  0  0  0
 22 14  1  0  0  0  0
 23 14  1  0  0  0  0
 27  2  1  0  0  0  0
 27  5  1  0  0  0  0
 28 23  1  6  0  0  0
 28  9  1  0  0  0  0
 28  6  1  0  0  0  0
 30 29  1  0  0  0  0
 31 30  2  0  0  0  0
 32 30  1  0  0  0  0
M  END
>  <MODEL>
9

>  <REMARK>
 VINA RESULT:      -7.1      3.053      5.509
  Name = 
  2 active torsions:
  status: ('A' for Active; 'I' for Inactive)
    1  A    between atoms: C_20  and  C_29
    2  A    between atoms: C_29  and  C_30
                            x       y       z     vdW  Elec       q    Type
                         _______ _______ _______ _____ _____    ______ ____

>  <TORSDO>
F 2

$$$$
