=
 OpenBabel11112416563D

 31 35  0  0  1  0  0  0  0  0999 V2000
  184.9320  178.0480  146.8510 C   0  0  0  0  0  0  0  0  0  0  0  0
  186.7180  177.6150  143.5600 C   0  0  0  0  0  0  0  0  0  0  0  0
  185.7420  177.8200  142.5290 C   0  0  0  0  0  0  0  0  0  0  0  0
  183.4680  178.3180  141.7780 C   0  0  0  0  0  0  0  0  0  0  0  0
  186.4400  177.6920  144.9610 C   0  0  0  0  0  0  0  0  0  0  0  0
  185.9770  177.8240  147.7450 C   0  0  0  0  0  3  0  0  0  0  0  0
  184.3960  178.1230  142.8040 C   0  0  0  0  0  3  0  0  0  0  0  0
  189.0490  177.1040  144.1330 C   0  0  0  0  0  0  0  0  0  0  0  0
  183.6910  178.3300  147.3160 F   0  0  0  0  0  0  0  0  0  0  0  0
  187.4410  177.4240  140.8220 C   0  0  0  0  0  3  0  0  0  0  0  0
  182.1480  178.6160  142.0850 O   0  0  0  0  0  1  0  0  0  0  0  0
  188.7410  177.1850  145.4520 N   0  0  0  0  0  0  0  0  0  0  0  0
  188.0550  177.3140  143.1660 C   0  0  0  0  0  0  0  0  0  0  0  0
  190.3920  176.7970  143.7360 N   0  0  0  0  0  2  0  0  0  0  0  0
  185.1640  177.9820  145.4760 C   0  0  0  0  0  3  0  0  0  0  0  0
  183.8690  178.2140  140.4470 C   0  0  0  0  0  3  0  0  0  0  0  0
  187.4910  177.4680  145.8870 C   0  0  0  0  0  0  0  0  0  0  0  0
  187.2530  177.5350  147.2630 C   0  0  0  0  0  3  0  0  0  0  0  0
  188.3930  177.2230  141.8110 C   0  0  0  0  0  3  0  0  0  0  0  0
  186.1290  177.7200  141.1650 C   0  0  0  0  0  0  0  0  0  0  0  0
  185.1960  177.9160  140.1420 C   0  0  0  0  0  3  0  0  0  0  0  0
  192.6310  177.5410  144.3780 C   0  0  0  0  0  1  0  0  0  0  0  0
  191.4770  176.6020  144.6900 C   0  0  2  0  0  3  0  0  0  0  0  0
  192.8050  172.5110  144.6380 C   0  0  0  0  0  0  0  0  0  0  0  0
  191.5700  174.3230  143.6150 C   0  0  0  0  0  3  0  0  0  0  0  0
  193.1100  175.4880  146.7360 F   0  0  0  0  0  0  0  0  0  0  0  0
  193.2350  171.1910  144.6230 O   0  0  0  0  0  1  0  0  0  0  0  0
  192.0040  172.9950  143.6010 C   0  0  0  0  0  3  0  0  0  0  0  0
  192.7420  174.6840  145.7070 C   0  0  0  0  0  0  0  0  0  0  0  0
  191.9360  175.1760  144.6690 C   0  0  0  0  0  0  0  0  0  0  0  0
  193.1740  173.3540  145.6880 C   0  0  0  0  0  3  0  0  0  0  0  0
  1  9  1  0  0  0  0
  1  6  1  0  0  0  0
  2  5  1  0  0  0  0
  3  7  1  0  0  0  0
  3  2  2  0  0  0  0
  4 11  1  0  0  0  0
  4  7  2  0  0  0  0
  5 15  1  0  0  0  0
  5 17  2  0  0  0  0
  8 12  2  0  0  0  0
 10 20  2  0  0  0  0
 10 19  1  0  0  0  0
 12 17  1  0  0  0  0
 13  2  1  0  0  0  0
 13  8  1  0  0  0  0
 14  8  1  0  0  0  0
 14 23  1  0  0  0  0
 15  1  2  0  0  0  0
 16  4  1  0  0  0  0
 17 18  1  0  0  0  0
 18  6  2  0  0  0  0
 19 13  2  0  0  0  0
 20  3  1  0  0  0  0
 21 16  2  0  0  0  0
 21 20  1  0  0  0  0
 23 22  1  6  0  0  0
 24 31  1  0  0  0  0
 25 30  2  0  0  0  0
 27 24  1  0  0  0  0
 28 25  1  0  0  0  0
 28 24  2  0  0  0  0
 29 26  1  0  0  0  0
 30 23  1  0  0  0  0
 30 29  1  0  0  0  0
 31 29  2  0  0  0  0
M  END
>  <MODEL>
1

>  <REMARK>
 VINA RESULT:      -9.2      0.000      0.000
  Name = 
  2 active torsions:
  status: ('A' for Active; 'I' for Inactive)
    1  A    between atoms: C_5  and  N_16
    2  A    between atoms: C_5  and  C_30
                            x       y       z     vdW  Elec       q    Type
                         _______ _______ _______ _____ _____    ______ ____

>  <TORSDO>
F 2

$$$$
=
 OpenBabel11112416563D

 31 35  0  0  1  0  0  0  0  0999 V2000
  184.4820  178.4230  146.3170 C   0  0  0  0  0  0  0  0  0  0  0  0
  187.0180  177.1790  143.8230 C   0  0  0  0  0  0  0  0  0  0  0  0
  186.4550  177.3860  142.5200 C   0  0  0  0  0  0  0  0  0  0  0  0
  184.6620  178.1460  141.0410 C   0  0  0  0  0  0  0  0  0  0  0  0
  186.3650  177.5210  145.0490 C   0  0  0  0  0  0  0  0  0  0  0  0
  185.1460  178.1640  147.5150 C   0  0  0  0  0  3  0  0  0  0  0  0
  185.1850  177.9560  142.3220 C   0  0  0  0  0  3  0  0  0  0  0  0
  188.9140  176.3670  145.1540 C   0  0  0  0  0  0  0  0  0  0  0  0
  183.2490  178.9840  146.3340 F   0  0  0  0  0  0  0  0  0  0  0  0
  188.4550  176.4390  141.4890 C   0  0  0  0  0  3  0  0  0  0  0  0
  183.4050  178.7120  140.8810 O   0  0  0  0  0  1  0  0  0  0  0  0
  188.2580  176.7050  146.2920 N   0  0  0  0  0  0  0  0  0  0  0  0
  188.3160  176.5920  143.9050 C   0  0  0  0  0  0  0  0  0  0  0  0
  190.2170  175.7740  145.2370 N   0  0  0  0  0  2  0  0  0  0  0  0
  185.0870  178.1030  145.1010 C   0  0  0  0  0  3  0  0  0  0  0  0
  185.4030  177.7670  139.9230 C   0  0  0  0  0  3  0  0  0  0  0  0
  187.0260  177.2650  146.2770 C   0  0  0  0  0  0  0  0  0  0  0  0
  186.4140  177.5870  147.4940 C   0  0  0  0  0  3  0  0  0  0  0  0
  189.0090  176.2330  142.7430 C   0  0  0  0  0  3  0  0  0  0  0  0
  187.1940  177.0080  141.3670 C   0  0  0  0  0  0  0  0  0  0  0  0
  186.6660  177.2000  140.0860 C   0  0  0  0  0  3  0  0  0  0  0  0
  190.7330  176.7410  147.4220 C   0  0  0  0  0  1  0  0  0  0  0  0
  190.9070  175.5450  146.5000 C   0  0  2  0  0  3  0  0  0  0  0  0
  195.0750  174.7480  145.8000 C   0  0  0  0  0  0  0  0  0  0  0  0
  193.3370  176.1940  146.6630 C   0  0  0  0  0  3  0  0  0  0  0  0
  191.8260  173.1760  145.2200 F   0  0  0  0  0  0  0  0  0  0  0  0
  196.4200  174.4880  145.5730 O   0  0  0  0  0  1  0  0  0  0  0  0
  194.6910  175.9320  146.4340 C   0  0  0  0  0  3  0  0  0  0  0  0
  192.7520  174.0840  145.6210 C   0  0  0  0  0  0  0  0  0  0  0  0
  192.3590  175.2720  146.2560 C   0  0  0  0  0  0  0  0  0  0  0  0
  194.1080  173.8260  145.3950 C   0  0  0  0  0  3  0  0  0  0  0  0
  1  9  1  0  0  0  0
  1  6  1  0  0  0  0
  2 13  1  0  0  0  0
  2  5  1  0  0  0  0
  3  2  2  0  0  0  0
  4  7  2  0  0  0  0
  5 15  1  0  0  0  0
  5 17  2  0  0  0  0
  7  3  1  0  0  0  0
  8 14  1  0  0  0  0
  8 12  2  0  0  0  0
 10 19  1  0  0  0  0
 11  4  1  0  0  0  0
 13  8  1  0  0  0  0
 14 23  1  0  0  0  0
 15  1  2  0  0  0  0
 16 21  2  0  0  0  0
 16  4  1  0  0  0  0
 17 12  1  0  0  0  0
 17 18  1  0  0  0  0
 18  6  2  0  0  0  0
 19 13  2  0  0  0  0
 20 10  2  0  0  0  0
 20  3  1  0  0  0  0
 21 20  1  0  0  0  0
 23 22  1  1  0  0  0
 24 28  1  0  0  0  0
 26 29  1  0  0  0  0
 27 24  1  0  0  0  0
 28 25  2  0  0  0  0
 29 30  2  0  0  0  0
 30 23  1  0  0  0  0
 30 25  1  0  0  0  0
 31 29  1  0  0  0  0
 31 24  2  0  0  0  0
M  END
>  <MODEL>
2

>  <REMARK>
 VINA RESULT:      -9.1      1.636      2.091
  Name = 
  2 active torsions:
  status: ('A' for Active; 'I' for Inactive)
    1  A    between atoms: C_5  and  N_16
    2  A    between atoms: C_5  and  C_30
                            x       y       z     vdW  Elec       q    Type
                         _______ _______ _______ _____ _____    ______ ____

>  <TORSDO>
F 2

$$$$
=
 OpenBabel11112416563D

 31 35  0  0  1  0  0  0  0  0999 V2000
  185.4120  177.9960  140.9940 C   0  0  0  0  0  0  0  0  0  0  0  0
  187.2560  176.8620  144.0790 C   0  0  0  0  0  0  0  0  0  0  0  0
  186.4710  177.2750  145.2070 C   0  0  0  0  0  0  0  0  0  0  0  0
  184.5120  178.3580  146.1910 C   0  0  0  0  0  0  0  0  0  0  0  0
  186.8990  177.1040  142.7160 C   0  0  0  0  0  0  0  0  0  0  0  0
  186.2710  177.5400  139.9960 C   0  0  0  0  0  3  0  0  0  0  0  0
  185.2550  177.9690  145.0750 C   0  0  0  0  0  3  0  0  0  0  0  0
  189.2810  175.7370  143.2660 C   0  0  0  0  0  0  0  0  0  0  0  0
  184.2740  178.6510  140.6610 F   0  0  0  0  0  0  0  0  0  0  0  0
  188.1140  176.3000  146.7260 C   0  0  0  0  0  3  0  0  0  0  0  0
  183.3150  179.0410  146.0250 O   0  0  0  0  0  1  0  0  0  0  0  0
  188.9040  175.9890  141.9870 N   0  0  0  0  0  0  0  0  0  0  0  0
  188.4740  176.1640  144.3320 C   0  0  0  0  0  0  0  0  0  0  0  0
  190.5060  175.0390  143.5200 N   0  0  0  0  0  2  0  0  0  0  0  0
  185.7260  177.7800  142.3370 C   0  0  0  0  0  3  0  0  0  0  0  0
  184.9720  178.0610  147.4730 C   0  0  0  0  0  3  0  0  0  0  0  0
  187.7610  176.6460  141.6860 C   0  0  0  0  0  0  0  0  0  0  0  0
  187.4410  176.8660  140.3420 C   0  0  0  0  0  3  0  0  0  0  0  0
  188.8810  175.8970  145.6440 C   0  0  0  0  0  3  0  0  0  0  0  0
  186.9220  176.9820  146.5220 C   0  0  0  0  0  0  0  0  0  0  0  0
  186.1740  177.3740  147.6370 C   0  0  0  0  0  3  0  0  0  0  0  0
  191.4180  173.0200  142.4850 C   0  0  0  0  0  1  0  0  0  0  0  0
  191.3710  174.5390  142.4590 C   0  0  2  0  0  3  0  0  0  0  0  0
  195.3280  176.1810  142.8450 C   0  0  0  0  0  0  0  0  0  0  0  0
  193.2340  175.5080  143.8540 C   0  0  0  0  0  3  0  0  0  0  0  0
  193.1180  174.8810  140.2390 F   0  0  0  0  0  0  0  0  0  0  0  0
  196.6060  176.7100  142.9670 O   0  0  0  0  0  1  0  0  0  0  0  0
  194.5200  176.0400  143.9760 C   0  0  0  0  0  3  0  0  0  0  0  0
  193.5650  175.2550  141.4650 C   0  0  0  0  0  0  0  0  0  0  0  0
  192.7480  175.1140  142.5970 C   0  0  0  0  0  0  0  0  0  0  0  0
  194.8510  175.7880  141.5920 C   0  0  0  0  0  3  0  0  0  0  0  0
  1 15  1  0  0  0  0
  2 13  2  0  0  0  0
  2  3  1  0  0  0  0
  3 20  1  0  0  0  0
  4 16  2  0  0  0  0
  5  2  1  0  0  0  0
  6 18  1  0  0  0  0
  6  1  2  0  0  0  0
  7  3  2  0  0  0  0
  7  4  1  0  0  0  0
  8 14  1  0  0  0  0
  8 13  1  0  0  0  0
  9  1  1  0  0  0  0
 11  4  1  0  0  0  0
 12  8  2  0  0  0  0
 13 19  1  0  0  0  0
 15  5  2  0  0  0  0
 16 21  1  0  0  0  0
 17 12  1  0  0  0  0
 17  5  1  0  0  0  0
 18 17  2  0  0  0  0
 19 10  2  0  0  0  0
 20 10  1  0  0  0  0
 20 21  2  0  0  0  0
 23 22  1  1  0  0  0
 23 30  1  0  0  0  0
 23 14  1  0  0  0  0
 24 27  1  0  0  0  0
 24 28  1  0  0  0  0
 25 28  2  0  0  0  0
 26 29  1  0  0  0  0
 29 31  1  0  0  0  0
 29 30  2  0  0  0  0
 30 25  1  0  0  0  0
 31 24  2  0  0  0  0
M  END
>  <MODEL>
3

>  <REMARK>
 VINA RESULT:      -9.0      2.709      4.760
  Name = 
  2 active torsions:
  status: ('A' for Active; 'I' for Inactive)
    1  A    between atoms: C_5  and  N_16
    2  A    between atoms: C_5  and  C_30
                            x       y       z     vdW  Elec       q    Type
                         _______ _______ _______ _____ _____    ______ ____

>  <TORSDO>
F 2

$$$$
=
 OpenBabel11112416563D

 31 35  0  0  1  0  0  0  0  0999 V2000
  185.4210  177.9650  140.9790 C   0  0  0  0  0  0  0  0  0  0  0  0
  187.2160  176.8130  144.0860 C   0  0  0  0  0  0  0  0  0  0  0  0
  186.4250  177.2390  145.2040 C   0  0  0  0  0  0  0  0  0  0  0  0
  184.4700  178.3500  146.1650 C   0  0  0  0  0  0  0  0  0  0  0  0
  186.8780  177.0560  142.7190 C   0  0  0  0  0  0  0  0  0  0  0  0
  186.2840  177.4940  139.9910 C   0  0  0  0  0  3  0  0  0  0  0  0
  185.2190  177.9480  145.0580 C   0  0  0  0  0  3  0  0  0  0  0  0
  189.2340  175.6590  143.2970 C   0  0  0  0  0  0  0  0  0  0  0  0
  184.2950  178.6340  140.6330 F   0  0  0  0  0  0  0  0  0  0  0  0
  188.0380  176.2450  146.7440 C   0  0  0  0  0  3  0  0  0  0  0  0
  183.2840  179.0480  145.9840 O   0  0  0  0  0  1  0  0  0  0  0  0
  188.8750  175.9130  142.0140 N   0  0  0  0  0  0  0  0  0  0  0  0
  188.4220  176.0990  144.3540 C   0  0  0  0  0  0  0  0  0  0  0  0
  190.4480  174.9450  143.5660 N   0  0  0  0  0  2  0  0  0  0  0  0
  185.7180  177.7470  142.3260 C   0  0  0  0  0  3  0  0  0  0  0  0
  184.9120  178.0500  147.4530 C   0  0  0  0  0  3  0  0  0  0  0  0
  187.7430  176.5840  141.6990 C   0  0  0  0  0  0  0  0  0  0  0  0
  187.4420  176.8060  140.3510 C   0  0  0  0  0  3  0  0  0  0  0  0
  188.8110  175.8290  145.6700 C   0  0  0  0  0  3  0  0  0  0  0  0
  186.8580  176.9430  146.5250 C   0  0  0  0  0  0  0  0  0  0  0  0
  186.1030  177.3470  147.6310 C   0  0  0  0  0  3  0  0  0  0  0  0
  191.0170  172.9650  142.2490 C   0  0  0  0  0  1  0  0  0  0  0  0
  191.3160  174.4310  142.5150 C   0  0  2  0  0  3  0  0  0  0  0  0
  195.4440  174.9760  143.5960 C   0  0  0  0  0  0  0  0  0  0  0  0
  193.6390  173.5260  142.8910 C   0  0  0  0  0  3  0  0  0  0  0  0
  192.3920  176.9590  143.2550 F   0  0  0  0  0  0  0  0  0  0  0  0
  196.7760  175.1540  143.9450 O   0  0  0  0  0  1  0  0  0  0  0  0
  194.9800  173.7070  143.2430 C   0  0  0  0  0  3  0  0  0  0  0  0
  193.2270  175.8900  143.2470 C   0  0  0  0  0  0  0  0  0  0  0  0
  192.7540  174.6170  142.8930 C   0  0  0  0  0  0  0  0  0  0  0  0
  194.5690  176.0650  143.5970 C   0  0  0  0  0  3  0  0  0  0  0  0
  1 15  1  0  0  0  0
  2 13  2  0  0  0  0
  2  3  1  0  0  0  0
  3 20  1  0  0  0  0
  4 16  2  0  0  0  0
  5  2  1  0  0  0  0
  6 18  1  0  0  0  0
  6  1  2  0  0  0  0
  7  3  2  0  0  0  0
  7  4  1  0  0  0  0
  8 14  1  0  0  0  0
  8 13  1  0  0  0  0
  9  1  1  0  0  0  0
 11  4  1  0  0  0  0
 12  8  2  0  0  0  0
 13 19  1  0  0  0  0
 15  5  2  0  0  0  0
 16 21  1  0  0  0  0
 17 12  1  0  0  0  0
 17  5  1  0  0  0  0
 18 17  2  0  0  0  0
 19 10  2  0  0  0  0
 20 10  1  0  0  0  0
 20 21  2  0  0  0  0
 23 22  1  1  0  0  0
 23 30  1  0  0  0  0
 23 14  1  0  0  0  0
 24 31  1  0  0  0  0
 24 27  1  0  0  0  0
 25 30  2  0  0  0  0
 25 28  1  0  0  0  0
 28 24  2  0  0  0  0
 29 26  1  0  0  0  0
 29 31  2  0  0  0  0
 30 29  1  0  0  0  0
M  END
>  <MODEL>
4

>  <REMARK>
 VINA RESULT:      -8.8      2.401      4.487
  Name = 
  2 active torsions:
  status: ('A' for Active; 'I' for Inactive)
    1  A    between atoms: C_5  and  N_16
    2  A    between atoms: C_5  and  C_30
                            x       y       z     vdW  Elec       q    Type
                         _______ _______ _______ _____ _____    ______ ____

>  <TORSDO>
F 2

$$$$
=
 OpenBabel11112416563D

 31 35  0  0  1  0  0  0  0  0999 V2000
  188.5800  174.4060  140.4420 C   0  0  0  0  0  0  0  0  0  0  0  0
  187.8680  176.4090  143.5540 C   0  0  0  0  0  0  0  0  0  0  0  0
  186.7250  177.2270  143.2690 C   0  0  0  0  0  0  0  0  0  0  0  0
  184.9550  178.0160  141.7760 C   0  0  0  0  0  0  0  0  0  0  0  0
  188.4600  175.4970  142.6260 C   0  0  0  0  0  0  0  0  0  0  0  0
  189.6920  173.6740  140.8530 C   0  0  0  0  0  3  0  0  0  0  0  0
  186.0660  177.2080  142.0260 C   0  0  0  0  0  3  0  0  0  0  0  0
  189.5760  175.7330  145.1830 C   0  0  0  0  0  0  0  0  0  0  0  0
  188.0880  174.2450  139.1900 F   0  0  0  0  0  0  0  0  0  0  0  0
  186.8190  178.1700  145.5180 C   0  0  0  0  0  3  0  0  0  0  0  0
  184.3290  177.9720  140.5390 O   0  0  0  0  0  1  0  0  0  0  0  0
  190.1060  174.8810  144.2700 N   0  0  0  0  0  0  0  0  0  0  0  0
  188.4560  176.5100  144.8500 C   0  0  0  0  0  0  0  0  0  0  0  0
  190.1690  175.8370  146.4840 N   0  0  0  0  0  2  0  0  0  0  0  0
  187.9740  175.3070  141.3200 C   0  0  0  0  0  3  0  0  0  0  0  0
  184.4740  178.8670  142.7710 C   0  0  0  0  0  3  0  0  0  0  0  0
  189.5920  174.7420  143.0260 C   0  0  0  0  0  0  0  0  0  0  0  0
  190.1960  173.8420  142.1420 C   0  0  0  0  0  3  0  0  0  0  0  0
  187.9250  177.3850  145.8050 C   0  0  0  0  0  3  0  0  0  0  0  0
  186.2180  178.1010  144.2690 C   0  0  0  0  0  0  0  0  0  0  0  0
  185.1050  178.9080  144.0140 C   0  0  0  0  0  3  0  0  0  0  0  0
  191.5300  175.1680  148.4010 C   0  0  0  0  0  1  0  0  0  0  0  0
  191.3100  175.0350  146.9030 C   0  0  2  0  0  3  0  0  0  0  0  0
  194.8410  176.2010  144.7420 C   0  0  0  0  0  0  0  0  0  0  0  0
  192.9940  176.7730  146.1980 C   0  0  0  0  0  3  0  0  0  0  0  0
  192.8270  173.2090  145.3340 F   0  0  0  0  0  0  0  0  0  0  0  0
  195.9820  176.5750  144.0440 O   0  0  0  0  0  1  0  0  0  0  0  0
  194.1420  177.1480  145.4940 C   0  0  0  0  0  3  0  0  0  0  0  0
  193.2460  174.4980  145.3950 C   0  0  0  0  0  0  0  0  0  0  0  0
  192.5380  175.4450  146.1500 C   0  0  0  0  0  0  0  0  0  0  0  0
  194.3950  174.8790  144.6940 C   0  0  0  0  0  3  0  0  0  0  0  0
  1  6  2  0  0  0  0
  1 15  1  0  0  0  0
  2 13  1  0  0  0  0
  3  2  2  0  0  0  0
  3 20  1  0  0  0  0
  4  7  2  0  0  0  0
  4 16  1  0  0  0  0
  5 17  1  0  0  0  0
  5  2  1  0  0  0  0
  6 18  1  0  0  0  0
  7  3  1  0  0  0  0
  8 14  1  0  0  0  0
  9  1  1  0  0  0  0
 10 19  1  0  0  0  0
 11  4  1  0  0  0  0
 12  8  2  0  0  0  0
 13  8  1  0  0  0  0
 13 19  2  0  0  0  0
 14 23  1  0  0  0  0
 15  5  2  0  0  0  0
 16 21  2  0  0  0  0
 17 12  1  0  0  0  0
 18 17  2  0  0  0  0
 20 10  2  0  0  0  0
 21 20  1  0  0  0  0
 23 22  1  1  0  0  0
 24 28  1  0  0  0  0
 26 29  1  0  0  0  0
 27 24  1  0  0  0  0
 28 25  2  0  0  0  0
 29 30  2  0  0  0  0
 30 25  1  0  0  0  0
 30 23  1  0  0  0  0
 31 24  2  0  0  0  0
 31 29  1  0  0  0  0
M  END
>  <MODEL>
5

>  <REMARK>
 VINA RESULT:      -8.5      2.709      4.463
  Name = 
  2 active torsions:
  status: ('A' for Active; 'I' for Inactive)
    1  A    between atoms: C_5  and  N_16
    2  A    between atoms: C_5  and  C_30
                            x       y       z     vdW  Elec       q    Type
                         _______ _______ _______ _____ _____    ______ ____

>  <TORSDO>
F 2

$$$$
=
 OpenBabel11112416563D

 31 35  0  0  1  0  0  0  0  0999 V2000
  190.8160  177.1330  147.6990 C   0  0  0  0  0  0  0  0  0  0  0  0
  188.4890  176.4630  144.8110 C   0  0  0  0  0  0  0  0  0  0  0  0
  187.2770  177.1820  145.0800 C   0  0  0  0  0  0  0  0  0  0  0  0
  185.9040  178.6530  146.4700 C   0  0  0  0  0  0  0  0  0  0  0  0
  189.6310  176.4560  145.6720 C   0  0  0  0  0  0  0  0  0  0  0  0
  191.9290  176.3870  147.3140 C   0  0  0  0  0  3  0  0  0  0  0  0
  187.0960  177.9640  146.2350 C   0  0  0  0  0  3  0  0  0  0  0  0
  189.7230  174.9790  143.2950 C   0  0  0  0  0  0  0  0  0  0  0  0
  190.8350  177.8270  148.8620 F   0  0  0  0  0  0  0  0  0  0  0  0
  186.3120  176.3660  142.9910 C   0  0  0  0  0  3  0  0  0  0  0  0
  185.7590  179.4160  147.6200 O   0  0  0  0  0  1  0  0  0  0  0  0
  190.7830  175.0000  144.1410 N   0  0  0  0  0  0  0  0  0  0  0  0
  188.5620  175.7020  143.6070 C   0  0  0  0  0  0  0  0  0  0  0  0
  189.7960  174.2120  142.0860 N   0  0  0  0  0  2  0  0  0  0  0  0
  189.6820  177.1640  146.8850 C   0  0  0  0  0  3  0  0  0  0  0  0
  184.8610  178.5770  145.5480 C   0  0  0  0  0  3  0  0  0  0  0  0
  190.7730  175.7030  145.2970 C   0  0  0  0  0  0  0  0  0  0  0  0
  191.9060  175.6740  146.1160 C   0  0  0  0  0  3  0  0  0  0  0  0
  187.4780  175.6660  142.7220 C   0  0  0  0  0  3  0  0  0  0  0  0
  186.2020  177.1180  144.1530 C   0  0  0  0  0  0  0  0  0  0  0  0
  185.0110  177.8110  144.3930 C   0  0  0  0  0  3  0  0  0  0  0  0
  192.0650  174.4180  141.1990 C   0  0  0  0  0  1  0  0  0  0  0  0
  190.9830  173.4680  141.6870 C   0  0  2  0  0  3  0  0  0  0  0  0
  190.0050  170.5960  138.6380 C   0  0  0  0  0  0  0  0  0  0  0  0
  189.6860  172.7760  139.6390 C   0  0  0  0  0  3  0  0  0  0  0  0
  192.1970  170.8980  141.5480 F   0  0  0  0  0  0  0  0  0  0  0  0
  189.6910  169.6670  137.6550 O   0  0  0  0  0  1  0  0  0  0  0  0
  189.3720  171.8400  138.6500 C   0  0  0  0  0  3  0  0  0  0  0  0
  191.2730  171.2180  140.6070 C   0  0  0  0  0  0  0  0  0  0  0  0
  190.6380  172.4690  140.6250 C   0  0  0  0  0  0  0  0  0  0  0  0
  190.9540  170.2860  139.6150 C   0  0  0  0  0  3  0  0  0  0  0  0
  1  9  1  0  0  0  0
  2  3  1  0  0  0  0
  2  5  1  0  0  0  0
  3  7  1  0  0  0  0
  4 11  1  0  0  0  0
  5 15  1  0  0  0  0
  6  1  1  0  0  0  0
  7  4  2  0  0  0  0
  8 13  1  0  0  0  0
  8 12  2  0  0  0  0
 10 20  1  0  0  0  0
 12 17  1  0  0  0  0
 13  2  2  0  0  0  0
 14  8  1  0  0  0  0
 15  1  2  0  0  0  0
 16  4  1  0  0  0  0
 17  5  2  0  0  0  0
 17 18  1  0  0  0  0
 18  6  2  0  0  0  0
 19 10  2  0  0  0  0
 19 13  1  0  0  0  0
 20 21  1  0  0  0  0
 20  3  2  0  0  0  0
 21 16  2  0  0  0  0
 23 22  1  6  0  0  0
 23 14  1  0  0  0  0
 24 28  2  0  0  0  0
 24 31  1  0  0  0  0
 25 30  2  0  0  0  0
 27 24  1  0  0  0  0
 28 25  1  0  0  0  0
 29 30  1  0  0  0  0
 29 26  1  0  0  0  0
 30 23  1  0  0  0  0
 31 29  2  0  0  0  0
M  END
>  <MODEL>
6

>  <REMARK>
 VINA RESULT:      -8.3      3.496      5.001
  Name = 
  2 active torsions:
  status: ('A' for Active; 'I' for Inactive)
    1  A    between atoms: C_5  and  N_16
    2  A    between atoms: C_5  and  C_30
                            x       y       z     vdW  Elec       q    Type
                         _______ _______ _______ _____ _____    ______ ____

>  <TORSDO>
F 2

$$$$
=
 OpenBabel11112416563D

 31 35  0  0  1  0  0  0  0  0999 V2000
  191.3930  170.9440  142.7900 C   0  0  0  0  0  0  0  0  0  0  0  0
  192.1240  174.2980  144.3460 C   0  0  0  0  0  0  0  0  0  0  0  0
  193.4420  174.2170  144.9060 C   0  0  0  0  0  0  0  0  0  0  0  0
  195.5110  173.0050  145.3880 C   0  0  0  0  0  0  0  0  0  0  0  0
  191.4710  173.2270  143.6610 C   0  0  0  0  0  0  0  0  0  0  0  0
  190.1080  171.1620  142.2970 C   0  0  0  0  0  3  0  0  0  0  0  0
  194.2310  173.0550  144.8330 C   0  0  0  0  0  3  0  0  0  0  0  0
  190.1230  175.6640  143.9510 C   0  0  0  0  0  0  0  0  0  0  0  0
  191.9910  169.7410  142.6170 F   0  0  0  0  0  0  0  0  0  0  0  0
  193.2730  176.5270  145.6770 C   0  0  0  0  0  3  0  0  0  0  0  0
  196.2620  171.8420  145.2960 O   0  0  0  0  0  1  0  0  0  0  0  0
  189.5400  174.6200  143.3090 N   0  0  0  0  0  0  0  0  0  0  0  0
  191.4160  175.5290  144.4800 C   0  0  0  0  0  0  0  0  0  0  0  0
  189.4090  176.8990  144.0880 N   0  0  0  0  0  2  0  0  0  0  0  0
  192.0630  171.9660  143.4650 C   0  0  0  0  0  3  0  0  0  0  0  0
  196.0350  174.1240  146.0330 C   0  0  0  0  0  3  0  0  0  0  0  0
  190.1630  173.4290  143.1510 C   0  0  0  0  0  0  0  0  0  0  0  0
  189.4960  172.4010  142.4770 C   0  0  0  0  0  3  0  0  0  0  0  0
  191.9980  176.6170  145.1400 C   0  0  0  0  0  3  0  0  0  0  0  0
  193.9960  175.3470  145.5680 C   0  0  0  0  0  0  0  0  0  0  0  0
  195.2790  175.2920  146.1220 C   0  0  0  0  0  3  0  0  0  0  0  0
  188.1290  178.1600  142.4310 C   0  0  0  0  0  1  0  0  0  0  0  0
  188.0800  177.1140  143.5320 C   0  0  2  0  0  3  0  0  0  0  0  0
  185.3420  178.2890  146.6350 C   0  0  0  0  0  0  0  0  0  0  0  0
  186.3160  178.6640  144.4520 C   0  0  0  0  0  3  0  0  0  0  0  0
  187.8050  175.6710  145.9690 F   0  0  0  0  0  0  0  0  0  0  0  0
  184.4590  178.6660  147.6380 O   0  0  0  0  0  1  0  0  0  0  0  0
  185.4280  179.0420  145.4620 C   0  0  0  0  0  3  0  0  0  0  0  0
  187.0340  176.7740  145.7910 C   0  0  0  0  0  0  0  0  0  0  0  0
  187.1260  177.5280  144.6120 C   0  0  0  0  0  0  0  0  0  0  0  0
  186.1430  177.1570  146.7990 C   0  0  0  0  0  3  0  0  0  0  0  0
  1 15  1  0  0  0  0
  2 13  2  0  0  0  0
  2  3  1  0  0  0  0
  3 20  1  0  0  0  0
  4 16  2  0  0  0  0
  5  2  1  0  0  0  0
  6 18  1  0  0  0  0
  6  1  2  0  0  0  0
  7  3  2  0  0  0  0
  7  4  1  0  0  0  0
  8 14  1  0  0  0  0
  8 13  1  0  0  0  0
  9  1  1  0  0  0  0
 11  4  1  0  0  0  0
 12  8  2  0  0  0  0
 13 19  1  0  0  0  0
 15  5  2  0  0  0  0
 16 21  1  0  0  0  0
 17 12  1  0  0  0  0
 17  5  1  0  0  0  0
 18 17  2  0  0  0  0
 19 10  2  0  0  0  0
 20 10  1  0  0  0  0
 20 21  2  0  0  0  0
 23 22  1  6  0  0  0
 23 14  1  0  0  0  0
 23 30  1  0  0  0  0
 24 31  1  0  0  0  0
 24 27  1  0  0  0  0
 25 30  2  0  0  0  0
 25 28  1  0  0  0  0
 28 24  2  0  0  0  0
 29 26  1  0  0  0  0
 29 31  2  0  0  0  0
 30 29  1  0  0  0  0
M  END
>  <MODEL>
7

>  <REMARK>
 VINA RESULT:      -8.2      2.528      8.756
  Name = 
  2 active torsions:
  status: ('A' for Active; 'I' for Inactive)
    1  A    between atoms: C_5  and  N_16
    2  A    between atoms: C_5  and  C_30
                            x       y       z     vdW  Elec       q    Type
                         _______ _______ _______ _____ _____    ______ ____

>  <TORSDO>
F 2

$$$$
=
 OpenBabel11112416563D

 31 35  0  0  1  0  0  0  0  0999 V2000
  195.3810  176.1950  144.1270 C   0  0  0  0  0  0  0  0  0  0  0  0
  192.0650  174.9980  142.7920 C   0  0  0  0  0  0  0  0  0  0  0  0
  192.3320  174.3500  141.5410 C   0  0  0  0  0  0  0  0  0  0  0  0
  193.8560  173.5990  139.7810 C   0  0  0  0  0  0  0  0  0  0  0  0
  193.0660  175.5930  143.6220 C   0  0  0  0  0  0  0  0  0  0  0  0
  194.9800  176.7940  145.3190 C   0  0  0  0  0  3  0  0  0  0  0  0
  193.6260  174.2360  141.0020 C   0  0  0  0  0  3  0  0  0  0  0  0
  190.3950  175.6780  144.4580 C   0  0  0  0  0  0  0  0  0  0  0  0
  196.6900  176.1870  143.7790 F   0  0  0  0  0  0  0  0  0  0  0  0
  189.9550  173.8670  141.2680 C   0  0  0  0  0  3  0  0  0  0  0  0
  195.1460  173.5030  139.2800 O   0  0  0  0  0  1  0  0  0  0  0  0
  191.3770  176.2310  145.2130 N   0  0  0  0  0  0  0  0  0  0  0  0
  190.7130  175.0550  143.2410 C   0  0  0  0  0  0  0  0  0  0  0  0
  189.0360  175.7380  144.9080 N   0  0  0  0  0  2  0  0  0  0  0  0
  194.4330  175.6030  143.2900 C   0  0  0  0  0  3  0  0  0  0  0  0
  192.7880  173.0570  139.0660 C   0  0  0  0  0  3  0  0  0  0  0  0
  192.6770  176.2080  144.8400 C   0  0  0  0  0  0  0  0  0  0  0  0
  193.6320  176.8000  145.6740 C   0  0  0  0  0  3  0  0  0  0  0  0
  189.6850  174.4920  142.4760 C   0  0  0  0  0  3  0  0  0  0  0  0
  191.2580  173.7910  140.7960 C   0  0  0  0  0  0  0  0  0  0  0  0
  191.4930  173.1540  139.5730 C   0  0  0  0  0  3  0  0  0  0  0  0
  188.5670  175.2790  147.2630 C   0  0  0  0  0  1  0  0  0  0  0  0
  188.6450  176.3390  146.1760 C   0  0  2  0  0  3  0  0  0  0  0  0
  184.8810  178.3800  145.7590 C   0  0  0  0  0  0  0  0  0  0  0  0
  186.2710  176.7680  146.9100 C   0  0  0  0  0  3  0  0  0  0  0  0
  188.1670  178.2870  144.1580 F   0  0  0  0  0  0  0  0  0  0  0  0
  183.6680  179.0410  145.6220 O   0  0  0  0  0  1  0  0  0  0  0  0
  185.0500  177.4340  146.7720 C   0  0  0  0  0  3  0  0  0  0  0  0
  187.1570  178.0000  145.0180 C   0  0  0  0  0  0  0  0  0  0  0  0
  187.3320  177.0460  146.0330 C   0  0  0  0  0  0  0  0  0  0  0  0
  185.9330  178.6630  144.8840 C   0  0  0  0  0  3  0  0  0  0  0  0
  1  6  1  0  0  0  0
  2 13  1  0  0  0  0
  2  5  1  0  0  0  0
  3  2  2  0  0  0  0
  4  7  2  0  0  0  0
  5 17  2  0  0  0  0
  6 18  2  0  0  0  0
  7  3  1  0  0  0  0
  8 14  1  0  0  0  0
  8 12  2  0  0  0  0
  9  1  1  0  0  0  0
 10 19  1  0  0  0  0
 11  4  1  0  0  0  0
 13  8  1  0  0  0  0
 14 23  1  0  0  0  0
 15  5  1  0  0  0  0
 15  1  2  0  0  0  0
 16 21  2  0  0  0  0
 16  4  1  0  0  0  0
 17 12  1  0  0  0  0
 17 18  1  0  0  0  0
 19 13  2  0  0  0  0
 20 10  2  0  0  0  0
 20  3  1  0  0  0  0
 21 20  1  0  0  0  0
 23 22  1  1  0  0  0
 24 28  1  0  0  0  0
 26 29  1  0  0  0  0
 27 24  1  0  0  0  0
 28 25  2  0  0  0  0
 29 30  2  0  0  0  0
 30 23  1  0  0  0  0
 30 25  1  0  0  0  0
 31 29  1  0  0  0  0
 31 24  2  0  0  0  0
M  END
>  <MODEL>
8

>  <REMARK>
 VINA RESULT:      -8.1      2.995      8.076
  Name = 
  2 active torsions:
  status: ('A' for Active; 'I' for Inactive)
    1  A    between atoms: C_5  and  N_16
    2  A    between atoms: C_5  and  C_30
                            x       y       z     vdW  Elec       q    Type
                         _______ _______ _______ _____ _____    ______ ____

>  <TORSDO>
F 2

$$$$
=
 OpenBabel11112416563D

 31 35  0  0  1  0  0  0  0  0999 V2000
  191.4590  176.5470  147.5160 C   0  0  0  0  0  0  0  0  0  0  0  0
  189.0250  176.0630  144.6780 C   0  0  0  0  0  0  0  0  0  0  0  0
  187.7850  176.6520  145.0910 C   0  0  0  0  0  0  0  0  0  0  0  0
  186.3940  177.8380  146.7170 C   0  0  0  0  0  0  0  0  0  0  0  0
  190.2110  176.0360  145.4770 C   0  0  0  0  0  0  0  0  0  0  0  0
  192.5960  175.9370  146.9890 C   0  0  0  0  0  3  0  0  0  0  0  0
  187.6150  177.2720  146.3420 C   0  0  0  0  0  3  0  0  0  0  0  0
  190.2720  174.8700  142.9320 C   0  0  0  0  0  0  0  0  0  0  0  0
  191.4950  177.0930  148.7550 F   0  0  0  0  0  0  0  0  0  0  0  0
  186.7630  176.0280  142.9640 C   0  0  0  0  0  3  0  0  0  0  0  0
  186.2620  178.4410  147.9590 O   0  0  0  0  0  1  0  0  0  0  0  0
  191.3730  174.8660  143.7240 N   0  0  0  0  0  0  0  0  0  0  0  0
  189.0830  175.4620  143.3860 C   0  0  0  0  0  0  0  0  0  0  0  0
  190.3290  174.2640  141.6340 N   0  0  0  0  0  2  0  0  0  0  0  0
  190.2820  176.5930  146.7660 C   0  0  0  0  0  3  0  0  0  0  0  0
  185.3100  177.7970  145.8420 C   0  0  0  0  0  3  0  0  0  0  0  0
  191.3790  175.4200  144.9580 C   0  0  0  0  0  0  0  0  0  0  0  0
  192.5550  175.3760  145.7140 C   0  0  0  0  0  3  0  0  0  0  0  0
  187.9570  175.4540  142.5550 C   0  0  0  0  0  3  0  0  0  0  0  0
  186.6660  176.6220  144.2140 C   0  0  0  0  0  0  0  0  0  0  0  0
  185.4460  177.1910  144.5940 C   0  0  0  0  0  3  0  0  0  0  0  0
  191.5260  173.7250  139.5720 C   0  0  0  0  0  1  0  0  0  0  0  0
  191.5410  173.6630  141.0910 C   0  0  2  0  0  3  0  0  0  0  0  0
  191.9130  169.5970  142.4430 C   0  0  0  0  0  0  0  0  0  0  0  0
  192.8080  171.8400  142.2850 C   0  0  0  0  0  3  0  0  0  0  0  0
  189.5560  171.6870  140.5890 F   0  0  0  0  0  0  0  0  0  0  0  0
  192.0300  168.2840  142.8780 O   0  0  0  0  0  1  0  0  0  0  0  0
  192.9250  170.5180  142.7230 C   0  0  0  0  0  3  0  0  0  0  0  0
  190.6600  171.3180  141.2850 C   0  0  0  0  0  0  0  0  0  0  0  0
  191.6750  172.2470  141.5620 C   0  0  0  0  0  0  0  0  0  0  0  0
  190.7830  169.9970  141.7260 C   0  0  0  0  0  3  0  0  0  0  0  0
  1  9  1  0  0  0  0
  2  3  1  0  0  0  0
  2  5  1  0  0  0  0
  3  7  1  0  0  0  0
  4 11  1  0  0  0  0
  5 15  1  0  0  0  0
  6  1  1  0  0  0  0
  7  4  2  0  0  0  0
  8 13  1  0  0  0  0
  8 12  2  0  0  0  0
 10 20  1  0  0  0  0
 12 17  1  0  0  0  0
 13  2  2  0  0  0  0
 14  8  1  0  0  0  0
 15  1  2  0  0  0  0
 16  4  1  0  0  0  0
 17  5  2  0  0  0  0
 17 18  1  0  0  0  0
 18  6  2  0  0  0  0
 19 10  2  0  0  0  0
 19 13  1  0  0  0  0
 20 21  1  0  0  0  0
 20  3  2  0  0  0  0
 21 16  2  0  0  0  0
 23 22  1  6  0  0  0
 23 30  1  0  0  0  0
 23 14  1  0  0  0  0
 24 28  1  0  0  0  0
 24 27  1  0  0  0  0
 25 28  2  0  0  0  0
 26 29  1  0  0  0  0
 29 30  2  0  0  0  0
 29 31  1  0  0  0  0
 30 25  1  0  0  0  0
 31 24  2  0  0  0  0
M  END
>  <MODEL>
9

>  <REMARK>
 VINA RESULT:      -7.9      2.955      4.942
  Name = 
  2 active torsions:
  status: ('A' for Active; 'I' for Inactive)
    1  A    between atoms: C_5  and  N_16
    2  A    between atoms: C_5  and  C_30
                            x       y       z     vdW  Elec       q    Type
                         _______ _______ _______ _____ _____    ______ ____

>  <TORSDO>
F 2

$$$$
