=
 OpenBabel11112416263D

 30 35  0  0  1  0  0  0  0  0999 V2000
  186.7740  177.8770  143.9630 C   0  0  0  0  0  0  0  0  0  0  0  0
  184.7950  178.4620  145.2950 C   0  0  0  0  0  0  0  0  0  0  0  0
  189.0040  177.2370  147.5080 N   0  0  0  0  0  0  0  0  0  0  0  0
  188.2480  177.4790  143.8370 C   0  0  0  0  0  0  0  0  0  0  0  0
  186.0250  178.0550  142.6580 C   0  0  0  0  0  2  0  0  0  0  0  0
  187.7540  175.6600  140.7040 O   0  0  0  0  0  0  0  0  0  0  0  0
  190.9920  176.7710  143.1370 C   0  0  1  0  0  3  0  0  0  0  0  0
  187.6900  176.4950  141.5940 C   0  0  0  0  0  0  0  0  0  0  0  0
  191.1580  176.6660  144.5760 N   0  0  0  0  0  0  0  0  0  0  0  0
  190.1500  176.9210  146.9830 C   0  0  2  0  0  3  0  0  0  0  0  0
  186.8730  177.7570  141.4150 C   0  0  1  0  0  3  0  0  0  0  0  0
  188.4170  176.2640  142.9000 C   0  0  1  0  0  3  0  0  0  0  0  0
  184.2260  178.6410  146.5160 N   0  0  0  0  0  0  0  0  0  0  0  0
  192.5210  176.3750  144.9700 C   0  0  0  0  0  2  0  0  0  0  0  0
  192.3360  176.3830  142.5380 C   0  0  0  0  0  2  0  0  0  0  0  0
  184.0180  178.6890  144.2070 F   0  0  0  0  0  0  0  0  0  0  0  0
  188.1440  177.4610  146.3920 C   0  0  0  0  0  0  0  0  0  0  0  0
  184.9060  178.4480  147.6730 C   0  0  0  0  0  3  0  0  0  0  0  0
  186.1580  178.0620  145.1830 C   0  0  0  0  0  0  0  0  0  0  0  0
  188.8560  177.2420  145.1760 C   0  0  0  0  0  0  0  0  0  0  0  0
  191.3450  176.6040  147.8120 C   0  0  0  0  0  1  0  0  0  0  0  0
  190.0960  176.9280  145.5080 C   0  0  0  0  0  0  0  0  0  0  0  0
  193.3340  176.3910  143.6880 C   0  0  0  0  0  2  0  0  0  0  0  0
  190.1110  174.7890  142.1700 O   0  0  0  0  0  0  0  0  0  0  0  0
  186.2350  178.0520  147.6380 C   0  0  0  0  0  3  0  0  0  0  0  0
  186.8690  177.8530  146.4110 C   0  0  0  0  0  0  0  0  0  0  0  0
  189.8650  175.8790  142.6670 C   0  0  0  0  0  0  0  0  0  0  0  0
  186.0240  177.7820  140.1410 C   0  0  0  0  0  2  0  0  0  0  0  0
  183.5470  177.7990  140.1880 C   0  0  0  0  0  1  0  0  0  0  0  0
  184.7890  178.6590  140.2860 C   0  0  0  0  0  2  0  0  0  0  0  0
  1 19  1  0  0  0  0
  2 13  1  0  0  0  0
  4  1  2  0  0  0  0
  4 20  1  0  0  0  0
  5  1  1  0  0  0  0
  6  8  2  0  0  0  0
  7 15  1  6  0  0  0
  7  9  1  0  0  0  0
  9 14  1  0  0  0  0
  9 22  1  0  0  0  0
 10  3  1  0  0  0  0
 10 21  1  6  0  0  0
 11 28  1  6  0  0  0
 11  8  1  0  0  0  0
 11  5  1  0  0  0  0
 12  8  1  6  0  0  0
 12  4  1  0  0  0  0
 13 18  2  0  0  0  0
 15 23  1  0  0  0  0
 16  2  1  0  0  0  0
 17 26  1  0  0  0  0
 17  3  2  0  0  0  0
 19  2  2  0  0  0  0
 19 26  1  0  0  0  0
 20 22  2  0  0  0  0
 20 17  1  0  0  0  0
 22 10  1  0  0  0  0
 23 14  1  0  0  0  0
 24 27  2  0  0  0  0
 25 18  1  0  0  0  0
 26 25  2  0  0  0  0
 27 12  1  0  0  0  0
 27  7  1  0  0  0  0
 28 30  1  0  0  0  0
 29 30  1  0  0  0  0
M  END
>  <MODEL>
1

>  <REMARK>
 VINA RESULT:      -9.1      0.000      0.000
  Name = 
  2 active torsions:
  status: ('A' for Active; 'I' for Inactive)
    1  A    between atoms: C_11  and  C_28
    2  A    between atoms: C_28  and  C_30
                            x       y       z     vdW  Elec       q    Type
                         _______ _______ _______ _____ _____    ______ ____

>  <TORSDO>
F 2

$$$$
=
 OpenBabel11112416263D

 30 35  0  0  1  0  0  0  0  0999 V2000
  187.8530  176.5050  144.3400 C   0  0  0  0  0  0  0  0  0  0  0  0
  186.6790  178.3600  145.4400 C   0  0  0  0  0  0  0  0  0  0  0  0
  186.2970  177.7110  140.5880 N   0  0  0  0  0  0  0  0  0  0  0  0
  188.2050  175.6750  143.1010 C   0  0  0  0  0  0  0  0  0  0  0  0
  188.4710  176.0410  145.6420 C   0  0  0  0  0  2  0  0  0  0  0  0
  191.4950  174.7080  144.3700 O   0  0  0  0  0  0  0  0  0  0  0  0
  189.0980  173.8090  141.0410 C   0  0  1  0  0  3  0  0  0  0  0  0
  190.3050  174.9750  144.2880 C   0  0  0  0  0  0  0  0  0  0  0  0
  188.3620  174.6930  140.1540 N   0  0  0  0  0  0  0  0  0  0  0  0
  186.8180  176.7890  139.8360 C   0  0  0  0  0  0  0  0  0  0  0  0
  189.3950  174.8270  145.4890 C   0  0  1  0  0  3  0  0  0  0  0  0
  189.7310  175.4750  142.9820 C   0  0  1  0  0  3  0  0  0  0  0  0
  185.8570  179.4380  145.3430 N   0  0  0  0  0  0  0  0  0  0  0  0
  188.3350  174.2260  138.7830 C   0  0  0  0  0  2  0  0  0  0  0  0
  189.7140  172.7460  140.1440 C   0  0  0  0  0  2  0  0  0  0  0  0
  187.1350  178.0350  146.6750 F   0  0  0  0  0  0  0  0  0  0  0  0
  186.7730  177.4200  141.9000 C   0  0  2  0  0  3  0  0  0  0  0  0
  185.3370  179.8540  144.1620 C   0  0  0  0  0  3  0  0  0  0  0  0
  187.0280  177.6100  144.2810 C   0  0  0  0  0  0  0  0  0  0  0  0
  187.6210  176.2740  141.8690 C   0  0  0  0  0  0  0  0  0  0  0  0
  186.5700  176.7220  138.3700 C   0  0  0  0  0  1  0  0  0  0  0  0
  187.6510  175.8530  140.6170 C   0  0  0  0  0  0  0  0  0  0  0  0
  189.0240  172.8730  138.7940 C   0  0  0  0  0  2  0  0  0  0  0  0
  191.3050  174.5730  141.4690 O   0  0  0  0  0  0  0  0  0  0  0  0
  185.6400  179.1730  142.9920 C   0  0  0  0  0  3  0  0  0  0  0  0
  186.4810  178.0600  143.0350 C   0  0  0  0  0  0  0  0  0  0  0  0
  190.1340  174.5850  141.8230 C   0  0  0  0  0  0  0  0  0  0  0  0
  190.1240  174.5100  146.7970 C   0  0  0  0  0  2  0  0  0  0  0  0
  191.9060  176.0910  147.4810 C   0  0  0  0  0  1  0  0  0  0  0  0
  190.4340  175.7630  147.6040 C   0  0  0  0  0  2  0  0  0  0  0  0
  1  5  1  0  0  0  0
  2 16  1  0  0  0  0
  4  1  2  0  0  0  0
  7 15  1  6  0  0  0
  7 27  1  0  0  0  0
  8  6  2  0  0  0  0
  8 11  1  0  0  0  0
  9 22  1  0  0  0  0
  9  7  1  0  0  0  0
 10  3  2  0  0  0  0
 10 22  1  0  0  0  0
 11  5  1  0  0  0  0
 11 28  1  1  0  0  0
 12 27  1  6  0  0  0
 12  4  1  0  0  0  0
 12  8  1  0  0  0  0
 13  2  1  0  0  0  0
 14 23  1  0  0  0  0
 14  9  1  0  0  0  0
 17  3  1  1  0  0  0
 17 26  1  0  0  0  0
 18 13  2  0  0  0  0
 19  1  1  0  0  0  0
 19  2  2  0  0  0  0
 20 17  1  0  0  0  0
 20  4  1  0  0  0  0
 21 10  1  0  0  0  0
 22 20  2  0  0  0  0
 23 15  1  0  0  0  0
 24 27  2  0  0  0  0
 25 26  2  0  0  0  0
 25 18  1  0  0  0  0
 26 19  1  0  0  0  0
 28 30  1  0  0  0  0
 29 30  1  0  0  0  0
M  END
>  <MODEL>
2

>  <REMARK>
 VINA RESULT:      -8.6      2.571      5.661
  Name = 
  2 active torsions:
  status: ('A' for Active; 'I' for Inactive)
    1  A    between atoms: C_11  and  C_28
    2  A    between atoms: C_28  and  C_30
                            x       y       z     vdW  Elec       q    Type
                         _______ _______ _______ _____ _____    ______ ____

>  <TORSDO>
F 2

$$$$
=
 OpenBabel11112416263D

 30 35  0  0  1  0  0  0  0  0999 V2000
  188.0540  175.8600  143.4540 C   0  0  0  0  0  0  0  0  0  0  0  0
  185.9010  177.0200  143.6810 C   0  0  0  0  0  0  0  0  0  0  0  0
  189.3080  177.3950  147.1980 N   0  0  0  0  0  0  0  0  0  0  0  0
  189.4600  175.5120  143.9530 C   0  0  0  0  0  0  0  0  0  0  0  0
  187.6550  175.2490  142.1260 C   0  0  0  0  0  2  0  0  0  0  0  0
  189.5010  172.2330  142.3340 O   0  0  0  0  0  0  0  0  0  0  0  0
  192.1900  174.6310  144.4920 C   0  0  1  0  0  3  0  0  0  0  0  0
  189.3280  173.4210  142.5670 C   0  0  0  0  0  0  0  0  0  0  0  0
  192.0040  175.3560  145.7370 N   0  0  0  0  0  0  0  0  0  0  0  0
  190.4990  176.8800  147.2500 C   0  0  2  0  0  3  0  0  0  0  0  0
  188.7280  174.3360  141.5210 C   0  0  1  0  0  3  0  0  0  0  0  0
  189.7000  173.9870  143.9190 C   0  0  1  0  0  3  0  0  0  0  0  0
  185.0880  177.8320  144.4070 N   0  0  0  0  0  0  0  0  0  0  0  0
  193.1940  175.3840  146.5610 C   0  0  0  0  0  2  0  0  0  0  0  0
  193.5820  174.0210  144.5760 C   0  0  0  0  0  2  0  0  0  0  0  0
  185.4310  176.5700  142.4920 F   0  0  0  0  0  0  0  0  0  0  0  0
  188.7630  176.9250  145.9670 C   0  0  0  0  0  0  0  0  0  0  0  0
  185.4530  178.3450  145.6080 C   0  0  0  0  0  3  0  0  0  0  0  0
  187.1960  176.6740  144.1640 C   0  0  0  0  0  0  0  0  0  0  0  0
  189.7080  176.0880  145.3040 C   0  0  0  0  0  0  0  0  0  0  0  0
  191.4240  177.1260  148.3910 C   0  0  0  0  0  1  0  0  0  0  0  0
  190.7920  176.0580  146.0600 C   0  0  0  0  0  0  0  0  0  0  0  0
  194.2790  174.7070  145.7420 C   0  0  0  0  0  2  0  0  0  0  0  0
  191.3340  172.4180  144.5860 O   0  0  0  0  0  0  0  0  0  0  0  0
  186.6980  178.0460  146.1400 C   0  0  0  0  0  3  0  0  0  0  0  0
  187.5730  177.2150  145.4380 C   0  0  0  0  0  0  0  0  0  0  0  0
  191.1070  173.5900  144.3180 C   0  0  0  0  0  0  0  0  0  0  0  0
  188.2080  173.6120  140.2760 C   0  0  0  0  0  2  0  0  0  0  0  0
  188.2490  174.1980  137.8680 C   0  0  0  0  0  1  0  0  0  0  0  0
  189.1020  173.8310  139.0630 C   0  0  0  0  0  2  0  0  0  0  0  0
  1  4  2  0  0  0  0
  1 19  1  0  0  0  0
  2 19  2  0  0  0  0
  2 13  1  0  0  0  0
  3 10  1  0  0  0  0
  4 20  1  0  0  0  0
  5  1  1  0  0  0  0
  6  8  2  0  0  0  0
  7 15  1  1  0  0  0
  7  9  1  0  0  0  0
  9 22  1  0  0  0  0
  9 14  1  0  0  0  0
 10 21  1  6  0  0  0
 11 28  1  6  0  0  0
 11  5  1  0  0  0  0
 11  8  1  0  0  0  0
 12  8  1  6  0  0  0
 12  4  1  0  0  0  0
 12 27  1  0  0  0  0
 13 18  2  0  0  0  0
 15 23  1  0  0  0  0
 16  2  1  0  0  0  0
 17  3  2  0  0  0  0
 18 25  1  0  0  0  0
 19 26  1  0  0  0  0
 20 17  1  0  0  0  0
 20 22  2  0  0  0  0
 22 10  1  0  0  0  0
 23 14  1  0  0  0  0
 26 17  1  0  0  0  0
 26 25  2  0  0  0  0
 27  7  1  0  0  0  0
 27 24  2  0  0  0  0
 29 30  1  0  0  0  0
 30 28  1  0  0  0  0
M  END
>  <MODEL>
3

>  <REMARK>
 VINA RESULT:      -8.1      2.193      3.047
  Name = 
  2 active torsions:
  status: ('A' for Active; 'I' for Inactive)
    1  A    between atoms: C_11  and  C_28
    2  A    between atoms: C_28  and  C_30
                            x       y       z     vdW  Elec       q    Type
                         _______ _______ _______ _____ _____    ______ ____

>  <TORSDO>
F 2

$$$$
=
 OpenBabel11112416263D

 30 35  0  0  1  0  0  0  0  0999 V2000
  186.1770  177.0140  144.0660 C   0  0  0  0  0  0  0  0  0  0  0  0
  184.4800  178.2930  142.8350 C   0  0  0  0  0  0  0  0  0  0  0  0
  187.8570  175.6760  140.4140 N   0  0  0  0  0  0  0  0  0  0  0  0
  187.3750  176.0590  144.1180 C   0  0  2  0  0  3  0  0  0  0  0  0
  185.6490  177.4820  145.4060 C   0  0  0  0  0  2  0  0  0  0  0  0
  188.6840  177.4620  147.2310 O   0  0  0  0  0  0  0  0  0  0  0  0
  189.5960  174.2510  144.6820 C   0  0  1  0  0  3  0  0  0  0  0  0
  187.9350  177.0400  146.3620 C   0  0  0  0  0  0  0  0  0  0  0  0
  189.7170  174.2120  143.2350 N   0  0  0  0  0  0  0  0  0  0  0  0
  188.8110  174.9290  140.8810 C   0  0  0  0  0  0  0  0  0  0  0  0
  186.4440  176.9480  146.6040 C   0  0  1  0  0  3  0  0  0  0  0  0
  188.4940  176.6200  145.0210 C   0  0  1  0  0  3  0  0  0  0  0  0
  183.9470  178.6740  141.6440 N   0  0  0  0  0  0  0  0  0  0  0  0
  190.7390  173.2950  142.7750 C   0  0  0  0  0  2  0  0  0  0  0  0
  190.7290  173.3840  145.2120 C   0  0  0  0  0  2  0  0  0  0  0  0
  183.8860  178.7600  143.9610 F   0  0  0  0  0  0  0  0  0  0  0  0
  187.2170  176.2110  141.5700 C   0  0  0  0  0  0  0  0  0  0  0  0
  184.4530  178.2660  140.4550 C   0  0  0  0  0  3  0  0  0  0  0  0
  185.6120  177.4290  142.8780 C   0  0  0  0  0  0  0  0  0  0  0  0
  187.8670  175.7400  142.7490 C   0  0  0  0  0  0  0  0  0  0  0  0
  189.7360  174.1720  139.9930 C   0  0  0  0  0  1  0  0  0  0  0  0
  188.8370  174.9340  142.3560 C   0  0  0  0  0  0  0  0  0  0  0  0
  191.2620  172.6020  144.0200 C   0  0  0  0  0  2  0  0  0  0  0  0
  190.7150  176.1110  145.6430 O   0  0  0  0  0  0  0  0  0  0  0  0
  185.5590  177.4280  140.4220 C   0  0  0  0  0  3  0  0  0  0  0  0
  186.1470  177.0080  141.6160 C   0  0  0  0  0  0  0  0  0  0  0  0
  189.6690  175.6760  145.1820 C   0  0  0  0  0  0  0  0  0  0  0  0
  185.9770  177.5880  147.9140 C   0  0  0  0  0  2  0  0  0  0  0  0
  186.3230  180.0370  148.0610 C   0  0  0  0  0  1  0  0  0  0  0  0
  185.3350  178.9500  147.6960 C   0  0  0  0  0  2  0  0  0  0  0  0
  1  4  1  0  0  0  0
  1  5  1  0  0  0  0
  2 19  1  0  0  0  0
  2 16  1  0  0  0  0
  3 10  2  0  0  0  0
  3 17  1  0  0  0  0
  4 20  1  6  0  0  0
  4 12  1  0  0  0  0
  5 11  1  0  0  0  0
  7 27  1  0  0  0  0
  7 15  1  1  0  0  0
  8 11  1  0  0  0  0
  8  6  2  0  0  0  0
  9  7  1  0  0  0  0
 10 22  1  0  0  0  0
 11 28  1  1  0  0  0
 12 27  1  1  0  0  0
 12  8  1  0  0  0  0
 13  2  2  0  0  0  0
 14  9  1  0  0  0  0
 14 23  1  0  0  0  0
 17 26  2  0  0  0  0
 17 20  1  0  0  0  0
 18 13  1  0  0  0  0
 19  1  2  0  0  0  0
 21 10  1  0  0  0  0
 22 20  2  0  0  0  0
 22  9  1  0  0  0  0
 23 15  1  0  0  0  0
 25 18  2  0  0  0  0
 25 26  1  0  0  0  0
 26 19  1  0  0  0  0
 27 24  2  0  0  0  0
 30 28  1  0  0  0  0
 30 29  1  0  0  0  0
M  END
>  <MODEL>
4

>  <REMARK>
 VINA RESULT:      -8.0      2.504      5.110
  Name = 
  2 active torsions:
  status: ('A' for Active; 'I' for Inactive)
    1  A    between atoms: C_11  and  C_28
    2  A    between atoms: C_28  and  C_30
                            x       y       z     vdW  Elec       q    Type
                         _______ _______ _______ _____ _____    ______ ____

>  <TORSDO>
F 2

$$$$
=
 OpenBabel11112416263D

 30 35  0  0  1  0  0  0  0  0999 V2000
  189.3180  175.4880  143.9370 C   0  0  0  0  0  0  0  0  0  0  0  0
  191.4750  174.5700  144.6660 C   0  0  0  0  0  0  0  0  0  0  0  0
  188.9370  177.5760  147.6050 N   0  0  0  0  0  0  0  0  0  0  0  0
  188.0550  176.3220  144.1770 C   0  0  0  0  0  0  0  0  0  0  0  0
  189.4070  174.7980  142.5930 C   0  0  0  0  0  2  0  0  0  0  0  0
  187.6310  177.1620  140.6430 O   0  0  0  0  0  0  0  0  0  0  0  0
  185.5050  177.7450  144.2180 C   0  0  1  0  0  3  0  0  0  0  0  0
  187.8600  176.5630  141.6840 C   0  0  0  0  0  0  0  0  0  0  0  0
  185.9690  178.2020  145.5170 N   0  0  0  0  0  0  0  0  0  0  0  0
  187.7830  178.1390  147.4090 C   0  0  2  0  0  3  0  0  0  0  0  0
  188.2200  175.0930  141.6680 C   0  0  1  0  0  3  0  0  0  0  0  0
  187.8010  177.2960  143.0050 C   0  0  1  0  0  3  0  0  0  0  0  0
  192.4360  174.4740  145.6240 N   0  0  0  0  0  0  0  0  0  0  0  0
  184.9920  179.0090  146.2160 C   0  0  0  0  0  2  0  0  0  0  0  0
  184.1630  178.4250  143.9980 C   0  0  0  0  0  2  0  0  0  0  0  0
  191.6670  173.8710  143.5200 F   0  0  0  0  0  0  0  0  0  0  0  0
  189.1910  176.8450  146.4070 C   0  0  0  0  0  0  0  0  0  0  0  0
  192.3500  175.1230  146.8100 C   0  0  0  0  0  3  0  0  0  0  0  0
  190.3180  175.3710  144.8810 C   0  0  0  0  0  0  0  0  0  0  0  0
  188.1170  177.0280  145.4870 C   0  0  0  0  0  0  0  0  0  0  0  0
  187.1370  179.0060  148.4320 C   0  0  0  0  0  1  0  0  0  0  0  0
  187.2280  177.8020  146.0840 C   0  0  0  0  0  0  0  0  0  0  0  0
  183.7470  178.9960  145.3460 C   0  0  0  0  0  2  0  0  0  0  0  0
  186.3450  179.0640  142.4310 O   0  0  0  0  0  0  0  0  0  0  0  0
  191.2520  175.9250  147.0840 C   0  0  0  0  0  3  0  0  0  0  0  0
  190.2370  176.0610  146.1350 C   0  0  0  0  0  0  0  0  0  0  0  0
  186.5150  178.0850  143.1450 C   0  0  0  0  0  0  0  0  0  0  0  0
  188.4450  174.5150  140.2680 C   0  0  0  0  0  2  0  0  0  0  0  0
  188.4490  172.4270  138.9330 C   0  0  0  0  0  1  0  0  0  0  0  0
  188.7290  173.0200  140.2970 C   0  0  0  0  0  2  0  0  0  0  0  0
  1  4  2  0  0  0  0
  1 19  1  0  0  0  0
  2 19  2  0  0  0  0
  2 13  1  0  0  0  0
  4 20  1  0  0  0  0
  5  1  1  0  0  0  0
  6  8  2  0  0  0  0
  7 15  1  6  0  0  0
  7  9  1  0  0  0  0
  9 22  1  0  0  0  0
  9 14  1  0  0  0  0
 10  3  1  0  0  0  0
 10 21  1  1  0  0  0
 11 28  1  6  0  0  0
 11  8  1  0  0  0  0
 11  5  1  0  0  0  0
 12  8  1  6  0  0  0
 12 27  1  0  0  0  0
 12  4  1  0  0  0  0
 13 18  2  0  0  0  0
 15 23  1  0  0  0  0
 16  2  1  0  0  0  0
 17  3  2  0  0  0  0
 18 25  1  0  0  0  0
 19 26  1  0  0  0  0
 20 22  2  0  0  0  0
 20 17  1  0  0  0  0
 22 10  1  0  0  0  0
 23 14  1  0  0  0  0
 24 27  2  0  0  0  0
 26 17  1  0  0  0  0
 26 25  2  0  0  0  0
 27  7  1  0  0  0  0
 28 30  1  0  0  0  0
 29 30  1  0  0  0  0
M  END
>  <MODEL>
5

>  <REMARK>
 VINA RESULT:      -8.0      2.535      5.552
  Name = 
  2 active torsions:
  status: ('A' for Active; 'I' for Inactive)
    1  A    between atoms: C_11  and  C_28
    2  A    between atoms: C_28  and  C_30
                            x       y       z     vdW  Elec       q    Type
                         _______ _______ _______ _____ _____    ______ ____

>  <TORSDO>
F 2

$$$$
=
 OpenBabel11112416263D

 30 35  0  0  1  0  0  0  0  0999 V2000
  188.8960  176.3560  145.3730 C   0  0  0  0  0  0  0  0  0  0  0  0
  186.8470  177.6280  145.8330 C   0  0  0  0  0  0  0  0  0  0  0  0
  187.5320  175.5260  141.4480 N   0  0  0  0  0  0  0  0  0  0  0  0
  189.7720  175.4900  144.4620 C   0  0  0  0  0  0  0  0  0  0  0  0
  189.4580  176.6440  146.7490 C   0  0  0  0  0  2  0  0  0  0  0  0
  192.9070  176.6560  145.9400 O   0  0  0  0  0  0  0  0  0  0  0  0
  191.7230  173.7990  143.0990 C   0  0  1  0  0  3  0  0  0  0  0  0
  191.7560  176.2730  145.7900 C   0  0  0  0  0  0  0  0  0  0  0  0
  190.8010  173.9180  141.9830 N   0  0  0  0  0  0  0  0  0  0  0  0
  188.5270  174.8050  141.0260 C   0  0  0  0  0  0  0  0  0  0  0  0
  190.8520  176.0490  146.9830 C   0  0  1  0  0  3  0  0  0  0  0  0
  191.2150  176.0350  144.3970 C   0  0  1  0  0  3  0  0  0  0  0  0
  185.6420  178.0890  145.4030 N   0  0  0  0  0  0  0  0  0  0  0  0
  191.1970  173.1300  140.8340 C   0  0  0  0  0  2  0  0  0  0  0  0
  192.8880  172.9670  142.5840 C   0  0  0  0  0  2  0  0  0  0  0  0
  187.2130  177.9330  147.1020 F   0  0  0  0  0  0  0  0  0  0  0  0
  187.8880  175.8910  142.7800 C   0  0  2  0  0  3  0  0  0  0  0  0
  185.1690  177.8440  144.1570 C   0  0  0  0  0  3  0  0  0  0  0  0
  187.6710  176.8490  144.9720 C   0  0  0  0  0  0  0  0  0  0  0  0
  189.1660  175.3490  143.1080 C   0  0  0  0  0  0  0  0  0  0  0  0
  188.5580  174.2120  139.6610 C   0  0  0  0  0  1  0  0  0  0  0  0
  189.5730  174.6600  142.0570 C   0  0  0  0  0  0  0  0  0  0  0  0
  192.4260  172.3510  141.2710 C   0  0  0  0  0  2  0  0  0  0  0  0
  193.2320  175.6270  143.2380 O   0  0  0  0  0  0  0  0  0  0  0  0
  185.9230  177.0960  143.2640 C   0  0  0  0  0  3  0  0  0  0  0  0
  187.1690  176.5990  143.6520 C   0  0  0  0  0  0  0  0  0  0  0  0
  192.1520  175.1670  143.5800 C   0  0  0  0  0  0  0  0  0  0  0  0
  191.4430  176.5150  148.3160 C   0  0  0  0  0  2  0  0  0  0  0  0
  191.5650  178.2900  150.0420 C   0  0  0  0  0  1  0  0  0  0  0  0
  190.9340  177.8900  148.7250 C   0  0  0  0  0  2  0  0  0  0  0  0
  1  5  1  0  0  0  0
  2 16  1  0  0  0  0
  4  1  2  0  0  0  0
  5 11  1  0  0  0  0
  7 15  1  6  0  0  0
  7 27  1  0  0  0  0
  8  6  2  0  0  0  0
  8 11  1  0  0  0  0
  9 22  1  0  0  0  0
  9  7  1  0  0  0  0
 10  3  2  0  0  0  0
 10 22  1  0  0  0  0
 11 28  1  1  0  0  0
 12 27  1  1  0  0  0
 12  4  1  0  0  0  0
 12  8  1  0  0  0  0
 13  2  1  0  0  0  0
 14 23  1  0  0  0  0
 14  9  1  0  0  0  0
 17  3  1  1  0  0  0
 17 20  1  0  0  0  0
 17 26  1  0  0  0  0
 18 13  2  0  0  0  0
 19  1  1  0  0  0  0
 19  2  2  0  0  0  0
 20  4  1  0  0  0  0
 21 10  1  0  0  0  0
 22 20  2  0  0  0  0
 23 15  1  0  0  0  0
 24 27  2  0  0  0  0
 25 26  2  0  0  0  0
 25 18  1  0  0  0  0
 26 19  1  0  0  0  0
 28 30  1  0  0  0  0
 30 29  1  0  0  0  0
M  END
>  <MODEL>
6

>  <REMARK>
 VINA RESULT:      -7.9      2.550      5.626
  Name = 
  2 active torsions:
  status: ('A' for Active; 'I' for Inactive)
    1  A    between atoms: C_11  and  C_28
    2  A    between atoms: C_28  and  C_30
                            x       y       z     vdW  Elec       q    Type
                         _______ _______ _______ _____ _____    ______ ____

>  <TORSDO>
F 2

$$$$
=
 OpenBabel11112416263D

 30 35  0  0  1  0  0  0  0  0999 V2000
  188.2970  175.9070  142.1040 C   0  0  0  0  0  0  0  0  0  0  0  0
  186.3990  177.3880  141.6210 C   0  0  0  0  0  0  0  0  0  0  0  0
  188.7690  177.7080  145.9100 N   0  0  0  0  0  0  0  0  0  0  0  0
  189.4380  175.4240  143.0060 C   0  0  2  0  0  3  0  0  0  0  0  0
  188.1620  175.1970  140.7730 C   0  0  0  0  0  2  0  0  0  0  0  0
  189.3300  171.9960  141.7390 O   0  0  0  0  0  0  0  0  0  0  0  0
  191.7320  174.2300  144.3610 C   0  0  1  0  0  3  0  0  0  0  0  0
  189.3130  173.2160  141.8160 C   0  0  0  0  0  0  0  0  0  0  0  0
  191.3540  175.1280  145.4390 N   0  0  0  0  0  0  0  0  0  0  0  0
  189.7950  177.0360  146.3370 C   0  0  0  0  0  0  0  0  0  0  0  0
  189.1800  174.0670  140.5710 C   0  0  1  0  0  3  0  0  0  0  0  0
  189.4080  173.8890  143.1660 C   0  0  1  0  0  3  0  0  0  0  0  0
  185.5790  178.3960  142.0200 N   0  0  0  0  0  0  0  0  0  0  0  0
  192.2700  175.0870  146.5590 C   0  0  0  0  0  2  0  0  0  0  0  0
  192.9230  173.4400  144.8830 C   0  0  0  0  0  2  0  0  0  0  0  0
  186.1880  176.8640  140.3890 F   0  0  0  0  0  0  0  0  0  0  0  0
  188.4950  177.1700  144.6190 C   0  0  0  0  0  0  0  0  0  0  0  0
  185.6980  179.0000  143.2280 C   0  0  0  0  0  3  0  0  0  0  0  0
  187.4390  176.9220  142.4750 C   0  0  0  0  0  0  0  0  0  0  0  0
  189.4190  176.1250  144.3200 C   0  0  0  0  0  0  0  0  0  0  0  0
  190.4140  177.2870  147.6680 C   0  0  0  0  0  1  0  0  0  0  0  0
  190.2420  176.0350  145.3490 C   0  0  0  0  0  0  0  0  0  0  0  0
  193.3970  174.1600  146.1370 C   0  0  0  0  0  2  0  0  0  0  0  0
  190.5070  172.1960  144.3930 O   0  0  0  0  0  0  0  0  0  0  0  0
  186.6860  178.5920  144.1120 C   0  0  0  0  0  3  0  0  0  0  0  0
  187.5550  177.5590  143.7540 C   0  0  0  0  0  0  0  0  0  0  0  0
  190.5680  173.3450  143.9760 C   0  0  0  0  0  0  0  0  0  0  0  0
  188.8880  173.2750  139.2940 C   0  0  0  0  0  2  0  0  0  0  0  0
  189.0450  174.1660  136.9870 C   0  0  0  0  0  1  0  0  0  0  0  0
  188.1910  174.1180  138.2360 C   0  0  0  0  0  2  0  0  0  0  0  0
  1 19  2  0  0  0  0
  2 13  2  0  0  0  0
  2 19  1  0  0  0  0
  3 10  2  0  0  0  0
  4  1  1  6  0  0  0
  4 12  1  0  0  0  0
  4 20  1  0  0  0  0
  5  1  1  0  0  0  0
  6  8  2  0  0  0  0
  7 15  1  1  0  0  0
  7  9  1  0  0  0  0
  9 14  1  0  0  0  0
 10 21  1  0  0  0  0
 11 28  1  6  0  0  0
 11  5  1  0  0  0  0
 11  8  1  0  0  0  0
 12  8  1  6  0  0  0
 12 27  1  0  0  0  0
 13 18  1  0  0  0  0
 15 23  1  0  0  0  0
 16  2  1  0  0  0  0
 17  3  1  0  0  0  0
 18 25  2  0  0  0  0
 19 26  1  0  0  0  0
 20 17  1  0  0  0  0
 20 22  2  0  0  0  0
 22  9  1  0  0  0  0
 22 10  1  0  0  0  0
 23 14  1  0  0  0  0
 26 25  1  0  0  0  0
 26 17  2  0  0  0  0
 27  7  1  0  0  0  0
 27 24  2  0  0  0  0
 29 30  1  0  0  0  0
 30 28  1  0  0  0  0
M  END
>  <MODEL>
7

>  <REMARK>
 VINA RESULT:      -7.7      2.590      3.628
  Name = 
  2 active torsions:
  status: ('A' for Active; 'I' for Inactive)
    1  A    between atoms: C_11  and  C_28
    2  A    between atoms: C_28  and  C_30
                            x       y       z     vdW  Elec       q    Type
                         _______ _______ _______ _____ _____    ______ ____

>  <TORSDO>
F 2

$$$$
=
 OpenBabel11112416263D

 30 35  0  0  1  0  0  0  0  0999 V2000
  188.5170  175.6730  143.6580 C   0  0  0  0  0  0  0  0  0  0  0  0
  187.1530  177.6990  143.4030 C   0  0  0  0  0  0  0  0  0  0  0  0
  188.1100  174.8450  139.5230 N   0  0  0  0  0  0  0  0  0  0  0  0
  189.1680  174.4040  143.0990 C   0  0  2  0  0  3  0  0  0  0  0  0
  188.7310  175.9280  145.1360 C   0  0  0  0  0  2  0  0  0  0  0  0
  191.9380  174.4660  145.4850 O   0  0  0  0  0  0  0  0  0  0  0  0
  190.5270  171.8950  142.4780 C   0  0  1  0  0  3  0  0  0  0  0  0
  190.8280  174.5450  144.9790 C   0  0  0  0  0  0  0  0  0  0  0  0
  190.1000  172.1910  141.1210 N   0  0  0  0  0  0  0  0  0  0  0  0
  188.7850  173.7360  139.4610 C   0  0  0  0  0  0  0  0  0  0  0  0
  189.6150  174.8790  145.8210 C   0  0  1  0  0  3  0  0  0  0  0  0
  190.6590  174.3240  143.4920 C   0  0  1  0  0  3  0  0  0  0  0  0
  186.4310  178.5220  142.5960 N   0  0  0  0  0  0  0  0  0  0  0  0
  190.4370  171.1430  140.1800 C   0  0  0  0  0  2  0  0  0  0  0  0
  191.3290  170.6050  142.3860 C   0  0  0  0  0  2  0  0  0  0  0  0
  187.2360  178.0290  144.7150 F   0  0  0  0  0  0  0  0  0  0  0  0
  188.1920  175.2430  140.8900 C   0  0  0  0  0  0  0  0  0  0  0  0
  186.2760  178.2910  141.2700 C   0  0  0  0  0  3  0  0  0  0  0  0
  187.7820  176.5360  142.8720 C   0  0  0  0  0  0  0  0  0  0  0  0
  188.9720  174.3030  141.6260 C   0  0  0  0  0  0  0  0  0  0  0  0
  188.9510  172.9750  138.1930 C   0  0  0  0  0  1  0  0  0  0  0  0
  189.3320  173.3560  140.7780 C   0  0  0  0  0  0  0  0  0  0  0  0
  191.0450  170.0250  141.0080 C   0  0  0  0  0  2  0  0  0  0  0  0
  192.5560  172.9860  143.0570 O   0  0  0  0  0  0  0  0  0  0  0  0
  186.8660  177.1800  140.6860 C   0  0  0  0  0  3  0  0  0  0  0  0
  187.6200  176.3020  141.4670 C   0  0  0  0  0  0  0  0  0  0  0  0
  191.3340  173.0440  143.0420 C   0  0  0  0  0  0  0  0  0  0  0  0
  189.9400  175.2770  147.2630 C   0  0  0  0  0  2  0  0  0  0  0  0
  191.5660  176.8740  148.2370 C   0  0  0  0  0  1  0  0  0  0  0  0
  190.3220  176.7460  147.3850 C   0  0  0  0  0  2  0  0  0  0  0  0
  1  5  1  0  0  0  0
  2 16  1  0  0  0  0
  3 17  1  0  0  0  0
  4 20  1  6  0  0  0
  4 12  1  0  0  0  0
  4  1  1  0  0  0  0
  5 11  1  0  0  0  0
  7 15  1  6  0  0  0
  7 27  1  0  0  0  0
  8  6  2  0  0  0  0
  8 11  1  0  0  0  0
  9  7  1  0  0  0  0
 10  3  2  0  0  0  0
 10 22  1  0  0  0  0
 11 28  1  1  0  0  0
 12 27  1  1  0  0  0
 12  8  1  0  0  0  0
 13  2  2  0  0  0  0
 14 23  1  0  0  0  0
 14  9  1  0  0  0  0
 17 26  2  0  0  0  0
 17 20  1  0  0  0  0
 18 13  1  0  0  0  0
 19  2  1  0  0  0  0
 19  1  2  0  0  0  0
 21 10  1  0  0  0  0
 22  9  1  0  0  0  0
 22 20  2  0  0  0  0
 23 15  1  0  0  0  0
 25 18  2  0  0  0  0
 25 26  1  0  0  0  0
 26 19  1  0  0  0  0
 27 24  2  0  0  0  0
 28 30  1  0  0  0  0
 30 29  1  0  0  0  0
M  END
>  <MODEL>
8

>  <REMARK>
 VINA RESULT:      -7.7      3.330      6.241
  Name = 
  2 active torsions:
  status: ('A' for Active; 'I' for Inactive)
    1  A    between atoms: C_11  and  C_28
    2  A    between atoms: C_28  and  C_30
                            x       y       z     vdW  Elec       q    Type
                         _______ _______ _______ _____ _____    ______ ____

>  <TORSDO>
F 2

$$$$
=
 OpenBabel11112416263D

 30 35  0  0  1  0  0  0  0  0999 V2000
  189.3620  176.6500  144.9970 C   0  0  0  0  0  0  0  0  0  0  0  0
  190.0650  177.3080  147.2550 C   0  0  0  0  0  0  0  0  0  0  0  0
  192.2620  173.5610  144.9650 N   0  0  0  0  0  0  0  0  0  0  0  0
  189.4930  175.7830  143.7410 C   0  0  0  0  0  0  0  0  0  0  0  0
  188.2830  177.7120  144.9560 C   0  0  0  0  0  2  0  0  0  0  0  0
  185.9480  176.0390  142.8830 O   0  0  0  0  0  0  0  0  0  0  0  0
  189.4170  174.4140  141.1630 C   0  0  1  0  0  3  0  0  0  0  0  0
  187.0840  176.2990  143.2520 C   0  0  0  0  0  0  0  0  0  0  0  0
  190.4550  173.5890  141.7560 N   0  0  0  0  0  0  0  0  0  0  0  0
  192.0480  173.0820  143.7760 C   0  0  0  0  0  0  0  0  0  0  0  0
  187.4620  177.7070  143.6600 C   0  0  1  0  0  3  0  0  0  0  0  0
  188.1250  175.2050  143.3190 C   0  0  1  0  0  3  0  0  0  0  0  0
  190.8850  177.1140  148.3220 N   0  0  0  0  0  0  0  0  0  0  0  0
  190.9950  172.6090  140.8370 C   0  0  0  0  0  2  0  0  0  0  0  0
  189.1680  173.8300  139.7800 C   0  0  0  0  0  2  0  0  0  0  0  0
  189.1640  178.3180  147.3390 F   0  0  0  0  0  0  0  0  0  0  0  0
  191.3130  174.6170  145.1060 C   0  0  2  0  0  3  0  0  0  0  0  0
  191.8260  176.1390  148.3500 C   0  0  0  0  0  3  0  0  0  0  0  0
  190.1700  176.4800  146.1020 C   0  0  0  0  0  0  0  0  0  0  0  0
  190.5180  174.7180  143.9270 C   0  0  0  0  0  0  0  0  0  0  0  0
  192.8370  171.9490  143.2210 C   0  0  0  0  0  1  0  0  0  0  0  0
  190.9600  173.8010  143.0850 C   0  0  0  0  0  0  0  0  0  0  0  0
  190.3250  172.8820  139.5020 C   0  0  0  0  0  2  0  0  0  0  0  0
  187.2310  173.6900  141.7430 O   0  0  0  0  0  0  0  0  0  0  0  0
  191.9800  175.2910  147.2620 C   0  0  0  0  0  3  0  0  0  0  0  0
  191.1630  175.4460  146.1410 C   0  0  0  0  0  0  0  0  0  0  0  0
  188.1780  174.4100  142.0300 C   0  0  0  0  0  0  0  0  0  0  0  0
  186.2800  178.6770  143.7440 C   0  0  0  0  0  2  0  0  0  0  0  0
  184.5080  178.5990  145.4740 C   0  0  0  0  0  1  0  0  0  0  0  0
  185.9270  179.0360  145.1800 C   0  0  0  0  0  2  0  0  0  0  0  0
  1 19  1  0  0  0  0
  2 16  1  0  0  0  0
  2 13  1  0  0  0  0
  3 17  1  0  0  0  0
  4 20  1  0  0  0  0
  4  1  2  0  0  0  0
  5  1  1  0  0  0  0
  6  8  2  0  0  0  0
  7 15  1  6  0  0  0
  7  9  1  0  0  0  0
  7 27  1  0  0  0  0
  8 12  1  0  0  0  0
  8 11  1  0  0  0  0
  9 22  1  0  0  0  0
 10  3  2  0  0  0  0
 11 28  1  1  0  0  0
 11  5  1  0  0  0  0
 12 27  1  6  0  0  0
 12  4  1  0  0  0  0
 13 18  2  0  0  0  0
 14  9  1  0  0  0  0
 17 20  1  6  0  0  0
 17 26  1  0  0  0  0
 19 26  1  0  0  0  0
 19  2  2  0  0  0  0
 21 10  1  0  0  0  0
 22 10  1  0  0  0  0
 22 20  2  0  0  0  0
 23 15  1  0  0  0  0
 23 14  1  0  0  0  0
 24 27  2  0  0  0  0
 25 18  1  0  0  0  0
 26 25  2  0  0  0  0
 28 30  1  0  0  0  0
 30 29  1  0  0  0  0
M  END
>  <MODEL>
9

>  <REMARK>
 VINA RESULT:      -7.5      2.739      4.695
  Name = 
  2 active torsions:
  status: ('A' for Active; 'I' for Inactive)
    1  A    between atoms: C_11  and  C_28
    2  A    between atoms: C_28  and  C_30
                            x       y       z     vdW  Elec       q    Type
                         _______ _______ _______ _____ _____    ______ ____

>  <TORSDO>
F 2

$$$$
