=
 OpenBabel11112417023D

 31 35  0  0  1  0  0  0  0  0999 V2000
  195.2800  175.7650  144.7500 C   0  0  0  0  0  0  0  0  0  0  0  0
  191.8660  176.4590  143.2300 C   0  0  2  0  0  3  0  0  0  0  0  0
  191.1570  175.2230  142.7130 C   0  0  0  0  0  0  0  0  0  0  0  0
  191.1900  172.8880  142.0380 C   0  0  0  0  0  0  0  0  0  0  0  0
  192.9470  176.1570  144.2260 C   0  0  0  0  0  0  0  0  0  0  0  0
  194.9500  175.5930  146.0970 C   0  0  0  0  0  3  0  0  0  0  0  0
  191.8440  174.0090  142.5550 C   0  0  0  0  0  3  0  0  0  0  0  0
  190.4000  177.1700  145.2850 C   0  0  1  0  0  3  0  0  0  0  0  0
  196.5700  175.6570  144.3490 F   0  0  0  0  0  0  0  0  0  0  0  0
  189.0930  176.5410  142.4230 N   0  0  0  0  0  2  0  0  0  0  0  0
  191.8930  171.6590  141.8950 N   0  0  0  0  0  1  0  0  0  0  0  0
  191.1880  176.0600  146.0050 C   0  0  0  0  0  2  0  0  0  0  0  0
  190.8760  177.4800  143.8300 C   0  0  2  0  0  3  0  0  0  0  0  0
  194.2800  176.0440  143.8130 C   0  0  0  0  0  3  0  0  0  0  0  0
  189.8490  172.9730  141.6590 C   0  0  0  0  0  3  0  0  0  0  0  0
  192.6190  175.9980  145.5810 C   0  0  0  0  0  0  0  0  0  0  0  0
  193.6190  175.7050  146.5130 C   0  0  0  0  0  3  0  0  0  0  0  0
  189.7540  177.7780  142.8300 C   0  0  0  0  0  2  0  0  0  0  0  0
  189.8120  175.3100  142.2960 C   0  0  0  0  0  0  0  0  0  0  0  0
  189.1610  174.1820  141.7870 C   0  0  0  0  0  3  0  0  0  0  0  0
  188.6060  177.8540  147.4240 O   0  0  0  0  0  0  0  0  0  0  0  0
  188.1390  177.2110  146.4470 C   0  0  0  0  0  0  0  0  0  0  0  0
  188.9760  176.8630  145.3410 N   0  0  0  0  0  2  0  0  0  0  0  0
  184.7250  178.4840  144.9660 C   0  0  1  0  0  3  0  0  0  0  0  0
  186.2110  176.4940  145.0370 C   0  0  0  0  0  2  0  0  0  0  0  0
  185.8980  177.9660  148.3880 O   0  0  0  0  0  0  0  0  0  0  0  0
  184.4230  179.7890  144.2630 C   0  0  0  0  0  1  0  0  0  0  0  0
  185.8750  177.7700  144.2680 C   0  0  0  0  0  2  0  0  0  0  0  0
  185.8500  177.8420  147.1360 C   0  0  0  0  0  0  0  0  0  0  0  0
  186.7000  176.8020  146.4560 C   0  0  2  0  0  3  0  0  0  0  0  0
  185.0480  178.7430  146.3660 N   0  0  0  0  0  2  0  0  0  0  0  0
  1  6  1  0  0  0  0
  2  3  1  1  0  0  0
  2 13  1  0  0  0  0
  2  5  1  0  0  0  0
  4  7  2  0  0  0  0
  5 16  2  0  0  0  0
  6 17  2  0  0  0  0
  7  3  1  0  0  0  0
  8 23  1  6  0  0  0
  8 12  1  0  0  0  0
  9  1  1  0  0  0  0
 10 18  1  0  0  0  0
 11  4  1  0  0  0  0
 13 18  1  6  0  0  0
 13  8  1  0  0  0  0
 14  5  1  0  0  0  0
 14  1  2  0  0  0  0
 15 20  2  0  0  0  0
 15  4  1  0  0  0  0
 16 12  1  0  0  0  0
 16 17  1  0  0  0  0
 19 10  1  0  0  0  0
 19  3  2  0  0  0  0
 20 19  1  0  0  0  0
 22 21  2  0  0  0  0
 23 22  1  0  0  0  0
 24 27  1  6  0  0  0
 24 31  1  0  0  0  0
 25 30  1  0  0  0  0
 28 24  1  0  0  0  0
 28 25  1  0  0  0  0
 29 26  2  0  0  0  0
 30 22  1  6  0  0  0
 30 29  1  0  0  0  0
 31 29  1  0  0  0  0
M  END
>  <MODEL>
1

>  <REMARK>
 VINA RESULT:      -8.7      0.000      0.000
  Name = 
  2 active torsions:
  status: ('A' for Active; 'I' for Inactive)
    1  A    between atoms: C_5  and  C_30
    2  A    between atoms: C_10  and  N_16
                            x       y       z     vdW  Elec       q    Type
                         _______ _______ _______ _____ _____    ______ ____

>  <TORSDO>
F 2

$$$$
=
 OpenBabel11112417023D

 31 35  0  0  1  0  0  0  0  0999 V2000
  196.5110  170.5260  146.1040 C   0  0  0  0  0  0  0  0  0  0  0  0
  195.7310  174.2080  145.5710 C   0  0  2  0  0  3  0  0  0  0  0  0
  196.0530  174.7120  144.1780 C   0  0  0  0  0  0  0  0  0  0  0  0
  197.1600  174.4430  142.0310 C   0  0  0  0  0  0  0  0  0  0  0  0
  195.5810  172.7160  145.6480 C   0  0  0  0  0  0  0  0  0  0  0  0
  195.2830  169.9380  145.7870 C   0  0  0  0  0  3  0  0  0  0  0  0
  196.8350  173.9490  143.2960 C   0  0  0  0  0  3  0  0  0  0  0  0
  193.1120  174.3100  145.6500 C   0  0  1  0  0  3  0  0  0  0  0  0
  197.5580  169.7510  146.4770 F   0  0  0  0  0  0  0  0  0  0  0  0
  194.8640  176.8150  144.6760 N   0  0  0  0  0  2  0  0  0  0  0  0
  197.9410  173.6550  141.1400 N   0  0  0  0  0  1  0  0  0  0  0  0
  193.2140  172.9820  144.8760 C   0  0  0  0  0  2  0  0  0  0  0  0
  194.4730  174.8880  146.1510 C   0  0  2  0  0  3  0  0  0  0  0  0
  196.6620  171.9140  146.0330 C   0  0  0  0  0  3  0  0  0  0  0  0
  196.7210  175.7100  141.6390 C   0  0  0  0  0  3  0  0  0  0  0  0
  194.3460  172.1250  145.3440 C   0  0  0  0  0  0  0  0  0  0  0  0
  194.2020  170.7360  145.4020 C   0  0  0  0  0  3  0  0  0  0  0  0
  194.6050  176.4120  146.0550 C   0  0  0  0  0  2  0  0  0  0  0  0
  195.6420  176.0040  143.7890 C   0  0  0  0  0  0  0  0  0  0  0  0
  195.9640  176.4890  142.5170 C   0  0  0  0  0  3  0  0  0  0  0  0
  190.2560  174.6310  145.6140 O   0  0  0  0  0  0  0  0  0  0  0  0
  190.9410  175.3710  144.8600 C   0  0  0  0  0  0  0  0  0  0  0  0
  192.3670  175.2760  144.8510 N   0  0  0  0  0  2  0  0  0  0  0  0
  187.5260  177.3180  144.7310 C   0  0  1  0  0  3  0  0  0  0  0  0
  189.9850  177.6690  144.6900 C   0  0  0  0  0  2  0  0  0  0  0  0
  189.0640  174.8700  142.4970 O   0  0  0  0  0  0  0  0  0  0  0  0
  186.3060  177.1540  145.6090 C   0  0  0  0  0  1  0  0  0  0  0  0
  188.7550  177.5790  145.5910 C   0  0  0  0  0  2  0  0  0  0  0  0
  188.9890  175.7520  143.3920 C   0  0  0  0  0  0  0  0  0  0  0  0
  190.2490  176.3460  143.9610 C   0  0  2  0  0  3  0  0  0  0  0  0
  187.7090  176.1230  143.9130 N   0  0  0  0  0  2  0  0  0  0  0  0
  1  9  1  0  0  0  0
  2  3  1  6  0  0  0
  2  5  1  0  0  0  0
  2 13  1  0  0  0  0
  4  7  1  0  0  0  0
  5 14  2  0  0  0  0
  6  1  2  0  0  0  0
  7  3  2  0  0  0  0
  8 23  1  6  0  0  0
  8 13  1  0  0  0  0
 10 18  1  0  0  0  0
 11  4  1  0  0  0  0
 12 16  1  0  0  0  0
 12  8  1  0  0  0  0
 13 18  1  6  0  0  0
 14  1  1  0  0  0  0
 15  4  2  0  0  0  0
 15 20  1  0  0  0  0
 16 17  2  0  0  0  0
 16  5  1  0  0  0  0
 17  6  1  0  0  0  0
 19  3  1  0  0  0  0
 19 10  1  0  0  0  0
 20 19  2  0  0  0  0
 22 21  2  0  0  0  0
 23 22  1  0  0  0  0
 24 28  1  0  0  0  0
 24 27  1  1  0  0  0
 25 28  1  0  0  0  0
 26 29  2  0  0  0  0
 29 31  1  0  0  0  0
 29 30  1  0  0  0  0
 30 25  1  0  0  0  0
 30 22  1  1  0  0  0
 31 24  1  0  0  0  0
M  END
>  <MODEL>
2

>  <REMARK>
 VINA RESULT:      -8.1      3.471      5.203
  Name = 
  2 active torsions:
  status: ('A' for Active; 'I' for Inactive)
    1  A    between atoms: C_5  and  C_30
    2  A    between atoms: C_10  and  N_16
                            x       y       z     vdW  Elec       q    Type
                         _______ _______ _______ _____ _____    ______ ____

>  <TORSDO>
F 2

$$$$
=
 OpenBabel11112417023D

 31 35  0  0  1  0  0  0  0  0999 V2000
  186.4530  177.8520  140.5280 C   0  0  0  0  0  0  0  0  0  0  0  0
  188.8240  177.9060  143.4970 C   0  0  2  0  0  3  0  0  0  0  0  0
  188.1930  177.4550  144.8000 C   0  0  0  0  0  0  0  0  0  0  0  0
  186.2280  176.9500  146.1390 C   0  0  0  0  0  0  0  0  0  0  0  0
  188.0770  177.4470  142.2800 C   0  0  0  0  0  0  0  0  0  0  0  0
  186.6930  176.5750  140.0100 C   0  0  0  0  0  3  0  0  0  0  0  0
  186.8010  177.3260  144.9220 C   0  0  0  0  0  3  0  0  0  0  0  0
  190.5330  175.9890  142.9690 C   0  0  1  0  0  3  0  0  0  0  0  0
  185.5490  178.6660  139.9320 F   0  0  0  0  0  0  0  0  0  0  0  0
  190.4250  177.3980  145.8490 N   0  0  0  0  0  2  0  0  0  0  0  0
  184.8170  176.8080  146.2470 N   0  0  0  0  0  1  0  0  0  0  0  0
  189.2810  175.2590  142.4480 C   0  0  0  0  0  2  0  0  0  0  0  0
  190.3020  177.4730  143.3960 C   0  0  2  0  0  3  0  0  0  0  0  0
  187.1420  178.2880  141.6630 C   0  0  0  0  0  3  0  0  0  0  0  0
  187.0400  176.7160  147.2520 C   0  0  0  0  0  3  0  0  0  0  0  0
  188.3260  176.1720  141.7510 C   0  0  0  0  0  0  0  0  0  0  0  0
  187.6250  175.7340  140.6240 C   0  0  0  0  0  3  0  0  0  0  0  0
  191.0700  177.9160  144.6460 C   0  0  0  0  0  2  0  0  0  0  0  0
  189.0040  177.2500  145.9370 C   0  0  0  0  0  0  0  0  0  0  0  0
  188.4250  176.8660  147.1510 C   0  0  0  0  0  3  0  0  0  0  0  0
  193.1760  174.8590  142.9410 O   0  0  0  0  0  0  0  0  0  0  0  0
  192.4560  174.6450  143.9520 C   0  0  0  0  0  0  0  0  0  0  0  0
  191.1400  175.2010  144.0350 N   0  0  0  0  0  2  0  0  0  0  0  0
  195.9250  173.7990  145.5990 C   0  0  1  0  0  3  0  0  0  0  0  0
  193.6550  174.6530  146.1380 C   0  0  0  0  0  2  0  0  0  0  0  0
  193.4210  171.7430  143.9090 O   0  0  0  0  0  0  0  0  0  0  0  0
  197.3150  174.1660  145.1270 C   0  0  0  0  0  1  0  0  0  0  0  0
  195.0720  175.0530  145.7330 C   0  0  0  0  0  2  0  0  0  0  0  0
  193.9010  172.7260  144.5320 C   0  0  0  0  0  0  0  0  0  0  0  0
  192.9820  173.7930  145.0630 C   0  0  2  0  0  3  0  0  0  0  0  0
  195.3200  172.8570  144.6620 N   0  0  0  0  0  2  0  0  0  0  0  0
  1 14  1  0  0  0  0
  2  5  1  6  0  0  0
  2  3  1  0  0  0  0
  3  7  2  0  0  0  0
  3 19  1  0  0  0  0
  4 11  1  0  0  0  0
  4 15  2  0  0  0  0
  6  1  2  0  0  0  0
  6 17  1  0  0  0  0
  7  4  1  0  0  0  0
  8 13  1  0  0  0  0
  8 23  1  1  0  0  0
  9  1  1  0  0  0  0
 10 19  1  0  0  0  0
 12  8  1  0  0  0  0
 13  2  1  0  0  0  0
 13 18  1  1  0  0  0
 14  5  2  0  0  0  0
 16  5  1  0  0  0  0
 16 12  1  0  0  0  0
 17 16  2  0  0  0  0
 18 10  1  0  0  0  0
 19 20  2  0  0  0  0
 20 15  1  0  0  0  0
 21 22  2  0  0  0  0
 22 23  1  0  0  0  0
 24 27  1  6  0  0  0
 24 28  1  0  0  0  0
 26 29  2  0  0  0  0
 28 25  1  0  0  0  0
 29 31  1  0  0  0  0
 29 30  1  0  0  0  0
 30 22  1  6  0  0  0
 30 25  1  0  0  0  0
 31 24  1  0  0  0  0
M  END
>  <MODEL>
3

>  <REMARK>
 VINA RESULT:      -8.0      3.594      7.877
  Name = 
  2 active torsions:
  status: ('A' for Active; 'I' for Inactive)
    1  A    between atoms: C_5  and  C_30
    2  A    between atoms: C_10  and  N_16
                            x       y       z     vdW  Elec       q    Type
                         _______ _______ _______ _____ _____    ______ ____

>  <TORSDO>
F 2

$$$$
=
 OpenBabel11112417023D

 31 35  0  0  1  0  0  0  0  0999 V2000
  192.9840  170.8600  141.8130 C   0  0  0  0  0  0  0  0  0  0  0  0
  191.5060  172.9260  144.6400 C   0  0  2  0  0  3  0  0  0  0  0  0
  192.4580  173.9570  145.2140 C   0  0  0  0  0  0  0  0  0  0  0  0
  194.7020  174.8510  145.4840 C   0  0  0  0  0  0  0  0  0  0  0  0
  191.8880  172.4590  143.2660 C   0  0  0  0  0  0  0  0  0  0  0  0
  192.5910  171.6040  140.6960 C   0  0  0  0  0  3  0  0  0  0  0  0
  193.8280  173.9210  144.9150 C   0  0  0  0  0  3  0  0  0  0  0  0
  189.6850  174.3940  143.4550 C   0  0  1  0  0  3  0  0  0  0  0  0
  193.7080  169.7260  141.6520 F   0  0  0  0  0  0  0  0  0  0  0  0
  190.5920  174.9580  146.4800 N   0  0  0  0  0  2  0  0  0  0  0  0
  196.0880  174.8140  145.1630 N   0  0  0  0  0  1  0  0  0  0  0  0
  190.7360  174.4770  142.3330 C   0  0  0  0  0  2  0  0  0  0  0  0
  190.0490  173.4330  144.6310 C   0  0  2  0  0  3  0  0  0  0  0  0
  192.6360  171.2880  143.0980 C   0  0  0  0  0  3  0  0  0  0  0  0
  194.2170  175.8150  146.3710 C   0  0  0  0  0  3  0  0  0  0  0  0
  191.4830  173.1970  142.1430 C   0  0  0  0  0  0  0  0  0  0  0  0
  191.8450  172.7750  140.8610 C   0  0  0  0  0  3  0  0  0  0  0  0
  189.6540  173.9350  146.0250 C   0  0  0  0  0  2  0  0  0  0  0  0
  191.9810  174.9120  146.1370 C   0  0  0  0  0  0  0  0  0  0  0  0
  192.8590  175.8450  146.6970 C   0  0  0  0  0  3  0  0  0  0  0  0
  187.2200  175.8080  143.0230 O   0  0  0  0  0  0  0  0  0  0  0  0
  188.1340  176.3990  143.6560 C   0  0  0  0  0  0  0  0  0  0  0  0
  189.3740  175.7400  143.9240 N   0  0  0  0  0  2  0  0  0  0  0  0
  185.5740  178.3890  145.8820 C   0  0  1  0  0  3  0  0  0  0  0  0
  187.9980  177.8980  145.6450 C   0  0  0  0  0  2  0  0  0  0  0  0
  186.5290  178.6620  142.3650 O   0  0  0  0  0  0  0  0  0  0  0  0
  184.2590  177.9210  146.4660 C   0  0  0  0  0  1  0  0  0  0  0  0
  186.6960  177.4500  146.3040 C   0  0  0  0  0  2  0  0  0  0  0  0
  186.6220  178.3530  143.5830 C   0  0  0  0  0  0  0  0  0  0  0  0
  187.9180  177.8060  144.1170 C   0  0  2  0  0  3  0  0  0  0  0  0
  185.4710  178.4540  144.4270 N   0  0  0  0  0  2  0  0  0  0  0  0
  1 14  1  0  0  0  0
  2  5  1  6  0  0  0
  2  3  1  0  0  0  0
  3 19  1  0  0  0  0
  4 15  2  0  0  0  0
  6 17  1  0  0  0  0
  6  1  2  0  0  0  0
  7  3  2  0  0  0  0
  7  4  1  0  0  0  0
  8 23  1  1  0  0  0
  8 13  1  0  0  0  0
  9  1  1  0  0  0  0
 11  4  1  0  0  0  0
 12  8  1  0  0  0  0
 13  2  1  0  0  0  0
 13 18  1  1  0  0  0
 14  5  2  0  0  0  0
 15 20  1  0  0  0  0
 16 12  1  0  0  0  0
 16  5  1  0  0  0  0
 17 16  2  0  0  0  0
 18 10  1  0  0  0  0
 19 10  1  0  0  0  0
 19 20  2  0  0  0  0
 21 22  2  0  0  0  0
 22 23  1  0  0  0  0
 24 28  1  0  0  0  0
 24 27  1  1  0  0  0
 25 28  1  0  0  0  0
 26 29  2  0  0  0  0
 29 30  1  0  0  0  0
 29 31  1  0  0  0  0
 30 22  1  1  0  0  0
 30 25  1  0  0  0  0
 31 24  1  0  0  0  0
M  END
>  <MODEL>
4

>  <REMARK>
 VINA RESULT:      -7.9      2.759      4.638
  Name = 
  2 active torsions:
  status: ('A' for Active; 'I' for Inactive)
    1  A    between atoms: C_5  and  C_30
    2  A    between atoms: C_10  and  N_16
                            x       y       z     vdW  Elec       q    Type
                         _______ _______ _______ _____ _____    ______ ____

>  <TORSDO>
F 2

$$$$
=
 OpenBabel11112417023D

 31 35  0  0  1  0  0  0  0  0999 V2000
  185.0460  179.3800  143.8530 C   0  0  0  0  0  0  0  0  0  0  0  0
  188.4650  177.7290  144.0280 C   0  0  2  0  0  3  0  0  0  0  0  0
  188.6070  176.7210  145.1520 C   0  0  0  0  0  0  0  0  0  0  0  0
  187.8220  175.7460  147.2360 C   0  0  0  0  0  0  0  0  0  0  0  0
  187.0390  178.0160  143.6590 C   0  0  0  0  0  0  0  0  0  0  0  0
  184.3800  178.5370  142.9590 C   0  0  0  0  0  3  0  0  0  0  0  0
  187.6580  176.6500  146.1840 C   0  0  0  0  0  3  0  0  0  0  0  0
  188.5480  176.2340  141.8760 C   0  0  1  0  0  3  0  0  0  0  0  0
  184.4040  180.4490  144.3830 F   0  0  0  0  0  0  0  0  0  0  0  0
  190.7510  175.9700  144.1930 N   0  0  0  0  0  2  0  0  0  0  0  0
  186.8460  175.6730  148.2690 N   0  0  0  0  0  1  0  0  0  0  0  0
  187.0700  175.9690  142.2180 C   0  0  0  0  0  2  0  0  0  0  0  0
  189.2520  177.3020  142.7720 C   0  0  2  0  0  3  0  0  0  0  0  0
  186.3740  179.1200  144.2060 C   0  0  0  0  0  3  0  0  0  0  0  0
  188.9440  174.9150  147.2770 C   0  0  0  0  0  3  0  0  0  0  0  0
  186.3740  177.1790  142.7510 C   0  0  0  0  0  0  0  0  0  0  0  0
  185.0420  177.4330  142.4110 C   0  0  0  0  0  3  0  0  0  0  0  0
  190.7050  176.9820  143.1410 C   0  0  0  0  0  2  0  0  0  0  0  0
  189.7540  175.9030  145.2180 C   0  0  0  0  0  0  0  0  0  0  0  0
  189.9090  174.9940  146.2700 C   0  0  0  0  0  3  0  0  0  0  0  0
  188.5630  174.3210  139.7300 O   0  0  0  0  0  0  0  0  0  0  0  0
  189.2220  174.0460  140.7680 C   0  0  0  0  0  0  0  0  0  0  0  0
  189.2730  174.9680  141.8600 N   0  0  0  0  0  2  0  0  0  0  0  0
  191.5540  172.1590  143.3090 C   0  0  1  0  0  3  0  0  0  0  0  0
  189.4310  171.9130  142.0440 C   0  0  0  0  0  2  0  0  0  0  0  0
  192.0510  173.3010  139.8740 O   0  0  0  0  0  0  0  0  0  0  0  0
  192.1970  172.6800  144.5760 C   0  0  0  0  0  1  0  0  0  0  0  0
  190.0490  172.3790  143.3600 C   0  0  0  0  0  2  0  0  0  0  0  0
  191.4310  172.9490  140.9120 C   0  0  0  0  0  0  0  0  0  0  0  0
  189.9420  172.7390  140.8570 C   0  0  2  0  0  3  0  0  0  0  0  0
  192.1380  172.8270  142.1500 N   0  0  0  0  0  2  0  0  0  0  0  0
  1 14  1  0  0  0  0
  1  9  1  0  0  0  0
  2  5  1  6  0  0  0
  2  3  1  0  0  0  0
  3 19  2  0  0  0  0
  3  7  1  0  0  0  0
  4 15  1  0  0  0  0
  4 11  1  0  0  0  0
  5 14  2  0  0  0  0
  6  1  2  0  0  0  0
  7  4  2  0  0  0  0
  8 23  1  1  0  0  0
  8 12  1  0  0  0  0
  8 13  1  0  0  0  0
 10 19  1  0  0  0  0
 12 16  1  0  0  0  0
 13 18  1  1  0  0  0
 13  2  1  0  0  0  0
 16  5  1  0  0  0  0
 17 16  2  0  0  0  0
 17  6  1  0  0  0  0
 18 10  1  0  0  0  0
 19 20  1  0  0  0  0
 20 15  2  0  0  0  0
 21 22  2  0  0  0  0
 22 23  1  0  0  0  0
 24 28  1  0  0  0  0
 24 27  1  1  0  0  0
 25 28  1  0  0  0  0
 26 29  2  0  0  0  0
 29 31  1  0  0  0  0
 30 22  1  1  0  0  0
 30 29  1  0  0  0  0
 30 25  1  0  0  0  0
 31 24  1  0  0  0  0
M  END
>  <MODEL>
5

>  <REMARK>
 VINA RESULT:      -7.9      3.939      7.618
  Name = 
  2 active torsions:
  status: ('A' for Active; 'I' for Inactive)
    1  A    between atoms: C_5  and  C_30
    2  A    between atoms: C_10  and  N_16
                            x       y       z     vdW  Elec       q    Type
                         _______ _______ _______ _____ _____    ______ ____

>  <TORSDO>
F 2

$$$$
=
 OpenBabel11112417023D

 31 35  0  0  1  0  0  0  0  0999 V2000
  185.6690  178.1050  147.6380 C   0  0  0  0  0  0  0  0  0  0  0  0
  187.6350  175.7810  145.3620 C   0  0  2  0  0  3  0  0  0  0  0  0
  187.6900  176.2340  143.9160 C   0  0  0  0  0  0  0  0  0  0  0  0
  186.8720  177.6260  142.0990 C   0  0  0  0  0  0  0  0  0  0  0  0
  187.2950  176.8840  146.3220 C   0  0  0  0  0  0  0  0  0  0  0  0
  186.6810  178.9450  148.1120 C   0  0  0  0  0  3  0  0  0  0  0  0
  186.8410  177.2470  143.4430 C   0  0  0  0  0  3  0  0  0  0  0  0
  190.1140  176.0670  146.1680 C   0  0  1  0  0  3  0  0  0  0  0  0
  184.3900  178.2900  148.0440 F   0  0  0  0  0  0  0  0  0  0  0  0
  189.3960  174.5140  143.4540 N   0  0  0  0  0  2  0  0  0  0  0  0
  186.0170  178.6650  141.6340 N   0  0  0  0  0  1  0  0  0  0  0  0
  189.7100  177.5460  146.3100 C   0  0  0  0  0  2  0  0  0  0  0  0
  188.9470  175.0970  145.7990 C   0  0  2  0  0  3  0  0  0  0  0  0
  185.9740  177.0770  146.7410 C   0  0  0  0  0  3  0  0  0  0  0  0
  187.7380  176.9850  141.2100 C   0  0  0  0  0  3  0  0  0  0  0  0
  188.3120  177.7190  146.8090 C   0  0  0  0  0  0  0  0  0  0  0  0
  188.0020  178.7560  147.6940 C   0  0  0  0  0  3  0  0  0  0  0  0
  189.3170  173.9830  144.8120 C   0  0  0  0  0  2  0  0  0  0  0  0
  188.5370  175.5680  143.0060 C   0  0  0  0  0  0  0  0  0  0  0  0
  188.5680  175.9570  141.6630 C   0  0  0  0  0  3  0  0  0  0  0  0
  192.7790  175.2060  146.8140 O   0  0  0  0  0  0  0  0  0  0  0  0
  192.5430  175.5460  145.6250 C   0  0  0  0  0  0  0  0  0  0  0  0
  191.2300  175.9600  145.2360 N   0  0  0  0  0  2  0  0  0  0  0  0
  196.0310  173.7940  145.1510 C   0  0  1  0  0  3  0  0  0  0  0  0
  193.8340  174.1190  144.0380 C   0  0  0  0  0  2  0  0  0  0  0  0
  195.0410  177.3000  145.4240 O   0  0  0  0  0  0  0  0  0  0  0  0
  196.8160  172.9580  146.1380 C   0  0  0  0  0  1  0  0  0  0  0  0
  194.6310  173.2200  144.9810 C   0  0  0  0  0  2  0  0  0  0  0  0
  194.9240  176.0640  145.2130 C   0  0  0  0  0  0  0  0  0  0  0  0
  193.6500  175.5260  144.6200 C   0  0  2  0  0  3  0  0  0  0  0  0
  195.9730  175.1770  145.6130 N   0  0  0  0  0  2  0  0  0  0  0  0
  1  9  1  0  0  0  0
  1  6  1  0  0  0  0
  2  3  1  6  0  0  0
  2 13  1  0  0  0  0
  2  5  1  0  0  0  0
  4  7  2  0  0  0  0
  5 14  1  0  0  0  0
  5 16  2  0  0  0  0
  7  3  1  0  0  0  0
  8 23  1  6  0  0  0
  8 12  1  0  0  0  0
 10 18  1  0  0  0  0
 11  4  1  0  0  0  0
 12 16  1  0  0  0  0
 13 18  1  6  0  0  0
 13  8  1  0  0  0  0
 14  1  2  0  0  0  0
 15 20  2  0  0  0  0
 15  4  1  0  0  0  0
 16 17  1  0  0  0  0
 17  6  2  0  0  0  0
 19 10  1  0  0  0  0
 19  3  2  0  0  0  0
 20 19  1  0  0  0  0
 22 21  2  0  0  0  0
 23 22  1  0  0  0  0
 24 31  1  0  0  0  0
 24 27  1  1  0  0  0
 25 30  1  0  0  0  0
 25 28  1  0  0  0  0
 28 24  1  0  0  0  0
 29 26  2  0  0  0  0
 29 31  1  0  0  0  0
 30 29  1  0  0  0  0
 30 22  1  1  0  0  0
M  END
>  <MODEL>
6

>  <REMARK>
 VINA RESULT:      -7.9      3.583      7.505
  Name = 
  2 active torsions:
  status: ('A' for Active; 'I' for Inactive)
    1  A    between atoms: C_5  and  C_30
    2  A    between atoms: C_10  and  N_16
                            x       y       z     vdW  Elec       q    Type
                         _______ _______ _______ _____ _____    ______ ____

>  <TORSDO>
F 2

$$$$
=
 OpenBabel11112417023D

 31 35  0  0  1  0  0  0  0  0999 V2000
  189.9280  171.3710  138.6040 C   0  0  0  0  0  0  0  0  0  0  0  0
  190.5050  172.9820  141.9970 C   0  0  2  0  0  3  0  0  0  0  0  0
  191.6300  174.0000  142.0140 C   0  0  0  0  0  0  0  0  0  0  0  0
  193.5940  175.0050  140.9940 C   0  0  0  0  0  0  0  0  0  0  0  0
  189.9670  172.7090  140.6230 C   0  0  0  0  0  0  0  0  0  0  0  0
  188.9520  172.2140  138.0630 C   0  0  0  0  0  3  0  0  0  0  0  0
  192.5370  174.0920  140.9480 C   0  0  0  0  0  3  0  0  0  0  0  0
  188.3660  174.4540  142.3620 C   0  0  1  0  0  3  0  0  0  0  0  0
  190.3840  170.3160  137.8870 F   0  0  0  0  0  0  0  0  0  0  0  0
  190.9330  174.7150  144.2700 N   0  0  0  0  0  2  0  0  0  0  0  0
  194.5000  175.1000  139.9010 N   0  0  0  0  0  1  0  0  0  0  0  0
  188.5230  174.7400  140.8570 C   0  0  0  0  0  2  0  0  0  0  0  0
  189.3510  173.3870  142.9370 C   0  0  2  0  0  3  0  0  0  0  0  0
  190.4380  171.6190  139.8810 C   0  0  0  0  0  3  0  0  0  0  0  0
  193.7640  175.8220  142.1140 C   0  0  0  0  0  3  0  0  0  0  0  0
  188.9780  173.5450  140.0850 C   0  0  0  0  0  0  0  0  0  0  0  0
  188.4800  173.3030  138.8010 C   0  0  0  0  0  3  0  0  0  0  0  0
  189.8920  173.6930  144.3380 C   0  0  0  0  0  2  0  0  0  0  0  0
  191.8280  174.8040  143.1560 C   0  0  0  0  0  0  0  0  0  0  0  0
  192.8830  175.7210  143.1930 C   0  0  0  0  0  3  0  0  0  0  0  0
  186.1210  176.0730  143.1370 O   0  0  0  0  0  0  0  0  0  0  0  0
  187.2730  176.4830  143.4370 C   0  0  0  0  0  0  0  0  0  0  0  0
  188.4280  175.7110  143.1000 N   0  0  0  0  0  2  0  0  0  0  0  0
  185.4130  178.5500  146.2170 C   0  0  1  0  0  3  0  0  0  0  0  0
  187.6300  177.5880  145.6440 C   0  0  0  0  0  2  0  0  0  0  0  0
  186.1640  179.2400  142.7080 O   0  0  0  0  0  0  0  0  0  0  0  0
  184.0670  178.2850  146.8570 C   0  0  0  0  0  1  0  0  0  0  0  0
  186.3070  177.3260  146.3590 C   0  0  0  0  0  2  0  0  0  0  0  0
  186.2640  178.7030  143.8430 C   0  0  0  0  0  0  0  0  0  0  0  0
  187.4270  177.7950  144.1390 C   0  0  2  0  0  3  0  0  0  0  0  0
  185.2290  178.8990  144.8120 N   0  0  0  0  0  2  0  0  0  0  0  0
  1 14  1  0  0  0  0
  2  5  1  6  0  0  0
  2  3  1  0  0  0  0
  2 13  1  0  0  0  0
  3 19  1  0  0  0  0
  4 15  2  0  0  0  0
  6  1  2  0  0  0  0
  6 17  1  0  0  0  0
  7  4  1  0  0  0  0
  7  3  2  0  0  0  0
  8 13  1  0  0  0  0
  8 23  1  1  0  0  0
  9  1  1  0  0  0  0
 10 18  1  0  0  0  0
 11  4  1  0  0  0  0
 12  8  1  0  0  0  0
 13 18  1  1  0  0  0
 14  5  2  0  0  0  0
 15 20  1  0  0  0  0
 16  5  1  0  0  0  0
 16 12  1  0  0  0  0
 17 16  2  0  0  0  0
 19 20  2  0  0  0  0
 19 10  1  0  0  0  0
 21 22  2  0  0  0  0
 23 22  1  0  0  0  0
 24 28  1  0  0  0  0
 24 27  1  6  0  0  0
 25 28  1  0  0  0  0
 26 29  2  0  0  0  0
 29 30  1  0  0  0  0
 29 31  1  0  0  0  0
 30 22  1  6  0  0  0
 30 25  1  0  0  0  0
 31 24  1  0  0  0  0
M  END
>  <MODEL>
7

>  <REMARK>
 VINA RESULT:      -7.9      3.056      5.255
  Name = 
  2 active torsions:
  status: ('A' for Active; 'I' for Inactive)
    1  A    between atoms: C_5  and  C_30
    2  A    between atoms: C_10  and  N_16
                            x       y       z     vdW  Elec       q    Type
                         _______ _______ _______ _____ _____    ______ ____

>  <TORSDO>
F 2

$$$$
=
 OpenBabel11112417023D

 31 35  0  0  1  0  0  0  0  0999 V2000
  186.6980  177.1530  141.1140 C   0  0  0  0  0  0  0  0  0  0  0  0
  188.7790  174.6430  143.0650 C   0  0  2  0  0  3  0  0  0  0  0  0
  189.7870  173.8880  142.2210 C   0  0  0  0  0  0  0  0  0  0  0  0
  190.6330  173.1850  140.0530 C   0  0  0  0  0  0  0  0  0  0  0  0
  188.3110  175.9230  142.4360 C   0  0  0  0  0  0  0  0  0  0  0  0
  187.4550  178.3180  141.2710 C   0  0  0  0  0  3  0  0  0  0  0  0
  189.7240  173.9190  140.8190 C   0  0  0  0  0  3  0  0  0  0  0  0
  190.2910  176.1410  144.5970 C   0  0  1  0  0  3  0  0  0  0  0  0
  185.5500  177.1840  140.3950 F   0  0  0  0  0  0  0  0  0  0  0  0
  190.8200  172.9930  144.2740 N   0  0  0  0  0  2  0  0  0  0  0  0
  190.5690  173.2370  138.6320 N   0  0  0  0  0  1  0  0  0  0  0  0
  190.3570  177.0400  143.3490 C   0  0  0  0  0  2  0  0  0  0  0  0
  189.3160  174.9260  144.4840 C   0  0  2  0  0  3  0  0  0  0  0  0
  187.1260  175.9550  141.6930 C   0  0  0  0  0  3  0  0  0  0  0  0
  191.6020  172.3990  140.6790 C   0  0  0  0  0  3  0  0  0  0  0  0
  189.0630  177.0950  142.6050 C   0  0  0  0  0  0  0  0  0  0  0  0
  188.6400  178.2880  142.0130 C   0  0  0  0  0  3  0  0  0  0  0  0
  189.8190  173.6280  145.1270 C   0  0  0  0  0  2  0  0  0  0  0  0
  190.7470  173.0650  142.8470 C   0  0  0  0  0  0  0  0  0  0  0  0
  191.6590  172.3380  142.0740 C   0  0  0  0  0  3  0  0  0  0  0  0
  191.5500  176.5590  147.1470 O   0  0  0  0  0  0  0  0  0  0  0  0
  192.2190  175.9860  146.2470 C   0  0  0  0  0  0  0  0  0  0  0  0
  191.6400  175.7280  144.9660 N   0  0  0  0  0  2  0  0  0  0  0  0
  195.6850  176.0140  144.3880 C   0  0  1  0  0  3  0  0  0  0  0  0
  194.5660  176.8020  146.4610 C   0  0  0  0  0  2  0  0  0  0  0  0
  193.6360  173.3180  145.7630 O   0  0  0  0  0  0  0  0  0  0  0  0
  195.9810  176.3230  142.9370 C   0  0  0  0  0  1  0  0  0  0  0  0
  194.9190  177.1670  145.0210 C   0  0  0  0  0  2  0  0  0  0  0  0
  194.0740  174.4870  145.5960 C   0  0  0  0  0  0  0  0  0  0  0  0
  193.6340  175.5870  146.5240 C   0  0  2  0  0  3  0  0  0  0  0  0
  194.9230  174.7720  144.4810 N   0  0  0  0  0  2  0  0  0  0  0  0
  1  6  2  0  0  0  0
  1 14  1  0  0  0  0
  2  3  1  6  0  0  0
  2 13  1  0  0  0  0
  3 19  1  0  0  0  0
  4 15  2  0  0  0  0
  4  7  1  0  0  0  0
  5 16  1  0  0  0  0
  5  2  1  0  0  0  0
  6 17  1  0  0  0  0
  7  3  2  0  0  0  0
  8 23  1  6  0  0  0
  9  1  1  0  0  0  0
 10 18  1  0  0  0  0
 11  4  1  0  0  0  0
 12  8  1  0  0  0  0
 13  8  1  0  0  0  0
 13 18  1  6  0  0  0
 14  5  2  0  0  0  0
 15 20  1  0  0  0  0
 16 12  1  0  0  0  0
 17 16  2  0  0  0  0
 19 10  1  0  0  0  0
 20 19  2  0  0  0  0
 22 21  2  0  0  0  0
 23 22  1  0  0  0  0
 24 27  1  6  0  0  0
 24 31  1  0  0  0  0
 24 28  1  0  0  0  0
 25 30  1  0  0  0  0
 28 25  1  0  0  0  0
 29 26  2  0  0  0  0
 29 30  1  0  0  0  0
 30 22  1  6  0  0  0
 31 29  1  0  0  0  0
M  END
>  <MODEL>
8

>  <REMARK>
 VINA RESULT:      -7.7      3.645      6.712
  Name = 
  2 active torsions:
  status: ('A' for Active; 'I' for Inactive)
    1  A    between atoms: C_5  and  C_30
    2  A    between atoms: C_10  and  N_16
                            x       y       z     vdW  Elec       q    Type
                         _______ _______ _______ _____ _____    ______ ____

>  <TORSDO>
F 2

$$$$
=
 OpenBabel11112417023D

 31 35  0  0  1  0  0  0  0  0999 V2000
  187.6550  176.7070  145.9940 C   0  0  0  0  0  0  0  0  0  0  0  0
  190.9320  174.7830  145.9810 C   0  0  2  0  0  3  0  0  0  0  0  0
  191.0210  173.7220  144.9010 C   0  0  0  0  0  0  0  0  0  0  0  0
  189.9680  172.3070  143.2290 C   0  0  0  0  0  0  0  0  0  0  0  0
  189.8950  175.8320  145.7050 C   0  0  0  0  0  0  0  0  0  0  0  0
  187.9750  177.7980  145.1800 C   0  0  0  0  0  3  0  0  0  0  0  0
  189.8810  173.3150  144.1920 C   0  0  0  0  0  3  0  0  0  0  0  0
  192.6990  176.5610  145.2140 C   0  0  1  0  0  3  0  0  0  0  0  0
  186.4140  176.6010  146.5260 F   0  0  0  0  0  0  0  0  0  0  0  0
  193.4220  173.4410  145.3910 N   0  0  0  0  0  2  0  0  0  0  0  0
  188.8070  171.9130  142.5060 N   0  0  0  0  0  1  0  0  0  0  0  0
  191.5710  177.0130  144.2680 C   0  0  0  0  0  2  0  0  0  0  0  0
  192.2970  175.4540  146.2390 C   0  0  2  0  0  3  0  0  0  0  0  0
  188.6130  175.7230  146.2550 C   0  0  0  0  0  3  0  0  0  0  0  0
  191.1920  171.6840  142.9770 C   0  0  0  0  0  3  0  0  0  0  0  0
  190.2190  176.9340  144.9000 C   0  0  0  0  0  0  0  0  0  0  0  0
  189.2560  177.9090  144.6290 C   0  0  0  0  0  3  0  0  0  0  0  0
  193.3700  174.3910  146.4990 C   0  0  0  0  0  2  0  0  0  0  0  0
  192.2470  173.0640  144.6660 C   0  0  0  0  0  0  0  0  0  0  0  0
  192.3300  172.0610  143.6950 C   0  0  0  0  0  3  0  0  0  0  0  0
  195.3180  177.7340  145.3900 O   0  0  0  0  0  0  0  0  0  0  0  0
  195.1390  176.8190  144.5430 C   0  0  0  0  0  0  0  0  0  0  0  0
  193.8650  176.1800  144.4250 N   0  0  0  0  0  2  0  0  0  0  0  0
  195.7290  174.4200  141.4840 C   0  0  1  0  0  3  0  0  0  0  0  0
  195.9740  176.7880  142.1940 C   0  0  0  0  0  2  0  0  0  0  0  0
  197.1540  174.5380  144.8460 O   0  0  0  0  0  0  0  0  0  0  0  0
  194.7960  173.3860  140.8930 C   0  0  0  0  0  1  0  0  0  0  0  0
  195.0420  175.7780  141.5280 C   0  0  0  0  0  2  0  0  0  0  0  0
  196.5740  174.9460  143.8070 C   0  0  0  0  0  0  0  0  0  0  0  0
  196.2670  176.4110  143.6500 C   0  0  2  0  0  3  0  0  0  0  0  0
  196.1430  174.0030  142.8200 N   0  0  0  0  0  2  0  0  0  0  0  0
  1 14  1  0  0  0  0
  1  9  1  0  0  0  0
  2  3  1  6  0  0  0
  2 13  1  0  0  0  0
  4  7  1  0  0  0  0
  5  2  1  0  0  0  0
  5 14  2  0  0  0  0
  6  1  2  0  0  0  0
  7  3  2  0  0  0  0
  8 23  1  6  0  0  0
  8 13  1  0  0  0  0
 10 18  1  0  0  0  0
 11  4  1  0  0  0  0
 12 16  1  0  0  0  0
 12  8  1  0  0  0  0
 13 18  1  6  0  0  0
 15  4  2  0  0  0  0
 15 20  1  0  0  0  0
 16  5  1  0  0  0  0
 17 16  2  0  0  0  0
 17  6  1  0  0  0  0
 19  3  1  0  0  0  0
 19 10  1  0  0  0  0
 20 19  2  0  0  0  0
 22 21  2  0  0  0  0
 23 22  1  0  0  0  0
 24 27  1  1  0  0  0
 24 28  1  0  0  0  0
 24 31  1  0  0  0  0
 25 30  1  0  0  0  0
 28 25  1  0  0  0  0
 29 26  2  0  0  0  0
 30 29  1  0  0  0  0
 30 22  1  1  0  0  0
 31 29  1  0  0  0  0
M  END
>  <MODEL>
9

>  <REMARK>
 VINA RESULT:      -7.7      3.939      7.323
  Name = 
  2 active torsions:
  status: ('A' for Active; 'I' for Inactive)
    1  A    between atoms: C_5  and  C_30
    2  A    between atoms: C_10  and  N_16
                            x       y       z     vdW  Elec       q    Type
                         _______ _______ _______ _____ _____    ______ ____

>  <TORSDO>
F 2

$$$$
