=
 OpenBabel11112416383D

 32 38  0  0  1  0  0  0  0  0999 V2000
  185.0030  177.6110  146.9680 C   0  0  1  0  0  3  0  0  0  0  0  0
  189.7040  176.0600  145.0960 C   0  0  0  0  0  0  0  0  0  0  0  0
  188.6520  174.1080  140.7420 C   0  0  0  0  0  3  0  0  0  0  0  0
  189.9840  173.7300  140.5840 C   0  0  0  0  0  3  0  0  0  0  0  0
  192.1080  175.9910  145.9830 C   0  0  0  0  0  0  0  0  0  0  0  0
  193.4680  175.5400  145.7100 C   0  0  0  0  0  0  0  0  0  0  0  0
  187.9270  177.4480  146.2490 C   0  0  1  0  0  3  0  0  0  0  0  0
  187.3230  176.2190  144.1820 C   0  0  0  0  0  2  0  0  0  0  0  0
  195.2040  174.6090  144.6410 C   0  0  0  0  0  0  0  0  0  0  0  0
  185.4390  177.0400  145.6190 C   0  0  2  0  0  3  0  0  0  0  0  0
  188.2510  174.7760  141.8990 C   0  0  0  0  0  3  0  0  0  0  0  0
  188.7600  175.7470  144.0830 C   0  0  0  0  0  0  0  0  0  0  0  0
  189.1750  175.0770  142.9170 C   0  0  0  0  0  0  0  0  0  0  0  0
  191.4710  174.9950  143.7530 C   0  0  0  0  0  0  0  0  0  0  0  0
  195.6080  175.0970  145.7720 N   0  0  0  0  0  0  0  0  0  0  0  0
  186.1020  177.5580  148.0520 C   0  0  0  0  0  2  0  0  0  0  0  0
  186.8910  176.5210  145.6070 C   0  0  2  0  0  3  0  0  0  0  0  0
  194.5190  175.6840  146.4470 N   0  0  0  0  0  2  0  0  0  0  0  0
  187.4980  178.0110  147.6070 C   0  0  0  0  0  2  0  0  0  0  0  0
  185.3140  178.5470  145.8060 C   0  0  1  0  0  3  0  0  0  0  0  0
  190.9140  174.0230  141.5820 C   0  0  0  0  0  3  0  0  0  0  0  0
  190.5270  174.6960  142.7540 C   0  0  0  0  0  0  0  0  0  0  0  0
  192.8960  174.5770  143.5590 C   0  0  0  0  0  2  0  0  0  0  0  0
  189.2340  176.6880  146.3910 C   0  0  0  0  0  2  0  0  0  0  0  0
  191.8530  176.6150  147.0470 O   0  0  0  0  0  0  0  0  0  0  0  0
  196.0910  173.9160  143.6680 C   0  0  0  0  0  1  0  0  0  0  0  0
  191.0640  175.6850  144.9410 C   0  0  0  0  0  0  0  0  0  0  0  0
  193.7850  174.8540  144.5030 C   0  0  0  0  0  0  0  0  0  0  0  0
  184.0150  179.0210  145.1850 C   0  0  0  0  0  2  0  0  0  0  0  0
  184.2220  179.3510  143.7170 C   0  0  2  0  0  3  0  0  0  0  0  0
  183.7420  178.3090  142.9230 O   0  0  0  0  0  1  0  0  0  0  0  0
  185.7000  179.5420  143.4510 C   0  0  0  0  0  1  0  0  0  0  0  0
  1 16  1  1  0  0  0
  2 24  1  0  0  0  0
  3 11  1  0  0  0  0
  4  3  2  0  0  0  0
  4 21  1  0  0  0  0
  5 25  2  0  0  0  0
  6  5  1  0  0  0  0
  6 18  1  0  0  0  0
  7 24  1  1  0  0  0
  7 19  1  0  0  0  0
  8 17  1  0  0  0  0
  9 15  2  0  0  0  0
 10 20  1  0  0  0  0
 10  1  1  0  0  0  0
 11 13  2  0  0  0  0
 12  8  1  0  0  0  0
 12  2  2  0  0  0  0
 13 12  1  0  0  0  0
 14 27  2  0  0  0  0
 15 18  1  0  0  0  0
 17 10  1  0  0  0  0
 17  7  1  0  0  0  0
 19 16  1  0  0  0  0
 20  1  1  0  0  0  0
 21 22  2  0  0  0  0
 22 13  1  0  0  0  0
 22 14  1  0  0  0  0
 23 14  1  0  0  0  0
 23 28  1  0  0  0  0
 26  9  1  0  0  0  0
 27  2  1  0  0  0  0
 27  5  1  0  0  0  0
 28  9  1  0  0  0  0
 28  6  2  0  0  0  0
 29 20  1  0  0  0  0
 30 29  1  0  0  0  0
 31 30  1  0  0  0  0
 32 30  1  0  0  0  0
M  END
>  <MODEL>
1

>  <REMARK>
 VINA RESULT:      -9.3      0.000      0.000
  Name = 
  2 active torsions:
  status: ('A' for Active; 'I' for Inactive)
    1  A    between atoms: C_20  and  C_29
    2  A    between atoms: C_29  and  C_30
                            x       y       z     vdW  Elec       q    Type
                         _______ _______ _______ _____ _____    ______ ____

>  <TORSDO>
F 2

$$$$
=
 OpenBabel11112416383D

 32 38  0  0  1  0  0  0  0  0999 V2000
  192.4340  175.0790  144.0590 C   0  0  1  0  0  3  0  0  0  0  0  0
  187.5690  177.0970  143.5340 C   0  0  0  0  0  0  0  0  0  0  0  0
  186.2920  178.2930  148.0960 C   0  0  0  0  0  3  0  0  0  0  0  0
  185.0230  178.6600  147.6500 C   0  0  0  0  0  3  0  0  0  0  0  0
  185.8910  177.3840  141.6170 C   0  0  0  0  0  0  0  0  0  0  0  0
  184.5340  177.7890  141.2710 C   0  0  0  0  0  0  0  0  0  0  0  0
  190.0000  176.5620  143.0710 C   0  0  1  0  0  3  0  0  0  0  0  0
  189.2810  176.8940  145.4200 C   0  0  0  0  0  2  0  0  0  0  0  0
  182.4380  178.5500  141.5030 C   0  0  0  0  0  0  0  0  0  0  0  0
  191.4880  175.7630  145.0460 C   0  0  2  0  0  3  0  0  0  0  0  0
  187.2360  177.8130  147.1880 C   0  0  0  0  0  3  0  0  0  0  0  0
  187.8860  177.2000  144.9140 C   0  0  0  0  0  0  0  0  0  0  0  0
  186.9280  177.6900  145.8210 C   0  0  0  0  0  0  0  0  0  0  0  0
  185.3130  177.9620  144.0050 C   0  0  0  0  0  0  0  0  0  0  0  0
  182.6600  178.2760  140.2550 N   0  0  0  0  0  0  0  0  0  0  0  0
  191.7830  174.7510  142.6980 C   0  0  0  0  0  2  0  0  0  0  0  0
  190.0680  175.9870  144.4880 C   0  0  2  0  0  3  0  0  0  0  0  0
  183.9760  177.7980  140.1050 N   0  0  0  0  0  0  0  0  0  0  0  0
  190.9370  175.8700  142.0760 C   0  0  0  0  0  2  0  0  0  0  0  0
  192.5720  176.5710  144.3430 C   0  0  1  0  0  3  0  0  0  0  0  0
  184.7010  178.5480  146.2970 C   0  0  0  0  0  3  0  0  0  0  0  0
  185.6420  178.0650  145.3690 C   0  0  0  0  0  0  0  0  0  0  0  0
  183.9430  178.3620  143.5520 C   0  0  0  0  0  3  0  0  0  0  0  0
  188.5660  176.4730  142.5800 C   0  0  0  0  0  2  0  0  0  0  0  0
  186.6810  176.9920  140.7170 O   0  0  0  0  0  0  0  0  0  0  0  0
  181.1490  179.0780  142.0230 C   0  0  0  0  0  1  0  0  0  0  0  0
  186.2820  177.4730  143.0690 C   0  0  0  0  0  0  0  0  0  0  0  0
  183.6320  178.2590  142.2670 C   0  0  0  0  0  0  0  0  0  0  0  0
  193.7280  176.7920  145.2990 C   0  0  0  0  0  2  0  0  0  0  0  0
  194.8140  175.7590  145.0610 C   0  0  2  0  0  3  0  0  0  0  0  0
  195.3160  175.3070  146.2830 O   0  0  0  0  0  1  0  0  0  0  0  0
  195.9360  176.3860  144.2610 C   0  0  0  0  0  1  0  0  0  0  0  0
  1 16  1  6  0  0  0
  1 20  1  0  0  0  0
  1 10  1  0  0  0  0
  2 12  1  0  0  0  0
  4  3  1  0  0  0  0
  5 27  1  0  0  0  0
  6  5  1  0  0  0  0
  6 28  1  0  0  0  0
  7 19  1  6  0  0  0
  7 17  1  0  0  0  0
  9 26  1  0  0  0  0
  9 28  1  0  0  0  0
 11  3  2  0  0  0  0
 12  8  1  0  0  0  0
 12 13  2  0  0  0  0
 13 11  1  0  0  0  0
 14 22  2  0  0  0  0
 15  9  2  0  0  0  0
 17 10  1  0  0  0  0
 17  8  1  0  0  0  0
 18 15  1  0  0  0  0
 18  6  2  0  0  0  0
 19 16  1  0  0  0  0
 20 10  1  0  0  0  0
 20 29  1  0  0  0  0
 21  4  2  0  0  0  0
 22 13  1  0  0  0  0
 22 21  1  0  0  0  0
 23 14  1  0  0  0  0
 24  7  1  0  0  0  0
 24  2  1  0  0  0  0
 25  5  2  0  0  0  0
 27  2  2  0  0  0  0
 27 14  1  0  0  0  0
 28 23  2  0  0  0  0
 30 29  1  0  0  0  0
 30 31  1  0  0  0  0
 32 30  1  0  0  0  0
M  END
>  <MODEL>
2

>  <REMARK>
 VINA RESULT:      -9.3      3.749      8.879
  Name = 
  2 active torsions:
  status: ('A' for Active; 'I' for Inactive)
    1  A    between atoms: C_20  and  C_29
    2  A    between atoms: C_29  and  C_30
                            x       y       z     vdW  Elec       q    Type
                         _______ _______ _______ _____ _____    ______ ____

>  <TORSDO>
F 2

$$$$
=
 OpenBabel11112416383D

 32 38  0  0  1  0  0  0  0  0999 V2000
  185.3190  179.2520  143.4230 C   0  0  1  0  0  3  0  0  0  0  0  0
  189.0850  175.5400  143.1930 C   0  0  0  0  0  0  0  0  0  0  0  0
  191.5990  176.1550  147.3370 C   0  0  0  0  0  3  0  0  0  0  0  0
  192.5060  175.1760  146.9370 C   0  0  0  0  0  3  0  0  0  0  0  0
  189.8560  173.8040  141.4720 C   0  0  0  0  0  0  0  0  0  0  0  0
  190.8710  172.8050  141.1580 C   0  0  0  0  0  0  0  0  0  0  0  0
  186.8370  176.6850  142.9730 C   0  0  1  0  0  3  0  0  0  0  0  0
  188.2520  177.2070  144.9410 C   0  0  0  0  0  2  0  0  0  0  0  0
  192.6810  171.5000  141.3750 C   0  0  0  0  0  0  0  0  0  0  0  0
  186.3740  178.7890  144.4270 C   0  0  2  0  0  3  0  0  0  0  0  0
  190.5280  176.4900  146.5080 C   0  0  0  0  0  3  0  0  0  0  0  0
  189.2660  176.2010  144.4360 C   0  0  0  0  0  0  0  0  0  0  0  0
  190.3470  175.8530  145.2670 C   0  0  0  0  0  0  0  0  0  0  0  0
  191.1020  174.1990  143.6320 C   0  0  0  0  0  0  0  0  0  0  0  0
  192.0970  171.2400  140.2470 N   0  0  0  0  0  0  0  0  0  0  0  0
  185.4970  178.6540  142.0110 C   0  0  0  0  0  2  0  0  0  0  0  0
  187.4110  177.8160  143.8300 C   0  0  2  0  0  3  0  0  0  0  0  0
  190.9590  172.0580  140.1080 N   0  0  0  0  0  0  0  0  0  0  0  0
  185.7890  177.1490  141.9570 C   0  0  0  0  0  2  0  0  0  0  0  0
  184.9570  178.2300  144.4940 C   0  0  1  0  0  3  0  0  0  0  0  0
  192.3410  174.5310  145.7110 C   0  0  0  0  0  3  0  0  0  0  0  0
  191.2670  174.8580  144.8640 C   0  0  0  0  0  0  0  0  0  0  0  0
  192.0910  173.1510  143.2250 C   0  0  0  0  0  3  0  0  0  0  0  0
  187.9820  175.9900  142.2570 C   0  0  0  0  0  2  0  0  0  0  0  0
  188.9080  174.0120  140.6690 O   0  0  0  0  0  0  0  0  0  0  0  0
  193.9160  170.8200  141.8490 C   0  0  0  0  0  1  0  0  0  0  0  0
  190.0000  174.5370  142.7800 C   0  0  0  0  0  0  0  0  0  0  0  0
  191.9380  172.5340  142.0620 C   0  0  0  0  0  0  0  0  0  0  0  0
  184.2010  178.9230  145.6110 C   0  0  0  0  0  2  0  0  0  0  0  0
  184.4580  178.2250  146.9340 C   0  0  2  0  0  3  0  0  0  0  0  0
  185.4220  178.9250  147.6610 O   0  0  0  0  0  1  0  0  0  0  0  0
  184.9540  176.8190  146.6710 C   0  0  0  0  0  1  0  0  0  0  0  0
  1 16  1  6  0  0  0
  1 10  1  0  0  0  0
  1 20  1  0  0  0  0
  2 12  1  0  0  0  0
  4  3  1  0  0  0  0
  5 27  1  0  0  0  0
  6  5  1  0  0  0  0
  6 28  1  0  0  0  0
  7 19  1  6  0  0  0
  7 17  1  0  0  0  0
  9 26  1  0  0  0  0
  9 28  1  0  0  0  0
 10 20  1  0  0  0  0
 11  3  2  0  0  0  0
 12  8  1  0  0  0  0
 12 13  2  0  0  0  0
 13 11  1  0  0  0  0
 14 22  2  0  0  0  0
 15  9  2  0  0  0  0
 17 10  1  0  0  0  0
 17  8  1  0  0  0  0
 18 15  1  0  0  0  0
 18  6  2  0  0  0  0
 19 16  1  0  0  0  0
 20 29  1  0  0  0  0
 21  4  2  0  0  0  0
 22 13  1  0  0  0  0
 22 21  1  0  0  0  0
 23 14  1  0  0  0  0
 24  7  1  0  0  0  0
 24  2  1  0  0  0  0
 25  5  2  0  0  0  0
 27  2  2  0  0  0  0
 27 14  1  0  0  0  0
 28 23  2  0  0  0  0
 29 30  1  0  0  0  0
 30 31  1  0  0  0  0
 32 30  1  0  0  0  0
M  END
>  <MODEL>
3

>  <REMARK>
 VINA RESULT:      -9.2      2.896      4.601
  Name = 
  2 active torsions:
  status: ('A' for Active; 'I' for Inactive)
    1  A    between atoms: C_20  and  C_29
    2  A    between atoms: C_29  and  C_30
                            x       y       z     vdW  Elec       q    Type
                         _______ _______ _______ _____ _____    ______ ____

>  <TORSDO>
F 2

$$$$
=
 OpenBabel11112416383D

 32 38  0  0  1  0  0  0  0  0999 V2000
  195.2080  174.9150  145.5390 C   0  0  1  0  0  3  0  0  0  0  0  0
  190.2590  175.9080  143.9470 C   0  0  0  0  0  0  0  0  0  0  0  0
  189.8600  173.4560  139.7400 C   0  0  0  0  0  3  0  0  0  0  0  0
  188.5830  173.9800  139.5500 C   0  0  0  0  0  3  0  0  0  0  0  0
  188.3220  177.3740  144.7640 C   0  0  0  0  0  0  0  0  0  0  0  0
  186.9830  177.8640  144.4540 C   0  0  0  0  0  0  0  0  0  0  0  0
  192.2320  175.3980  145.4490 C   0  0  1  0  0  3  0  0  0  0  0  0
  192.1600  174.3770  143.1910 C   0  0  0  0  0  2  0  0  0  0  0  0
  185.0470  178.1570  143.3620 C   0  0  0  0  0  0  0  0  0  0  0  0
  194.3690  174.3770  144.3790 C   0  0  2  0  0  3  0  0  0  0  0  0
  190.5940  173.8050  140.8740 C   0  0  0  0  0  3  0  0  0  0  0  0
  190.8120  175.0330  142.9750 C   0  0  0  0  0  0  0  0  0  0  0  0
  190.0630  174.6830  141.8360 C   0  0  0  0  0  0  0  0  0  0  0  0
  188.2090  176.0850  142.5960 C   0  0  0  0  0  0  0  0  0  0  0  0
  185.0300  178.8470  144.4600 N   0  0  0  0  0  0  0  0  0  0  0  0
  194.5590  176.1040  146.2780 C   0  0  0  0  0  2  0  0  0  0  0  0
  193.0390  175.1310  144.1760 C   0  0  2  0  0  3  0  0  0  0  0  0
  186.2450  178.6650  145.1490 N   0  0  0  0  0  2  0  0  0  0  0  0
  193.0680  175.9500  146.6080 C   0  0  0  0  0  2  0  0  0  0  0  0
  194.4550  173.5980  145.6870 C   0  0  1  0  0  3  0  0  0  0  0  0
  188.0390  174.8500  140.4950 C   0  0  0  0  0  3  0  0  0  0  0  0
  188.7650  175.2120  141.6440 C   0  0  0  0  0  0  0  0  0  0  0  0
  186.8340  176.6350  142.3680 C   0  0  0  0  0  2  0  0  0  0  0  0
  191.1070  176.3620  145.1160 C   0  0  0  0  0  2  0  0  0  0  0  0
  188.8880  177.7260  145.8320 O   0  0  0  0  0  0  0  0  0  0  0  0
  183.9240  178.1140  142.3870 C   0  0  0  0  0  1  0  0  0  0  0  0
  188.9570  176.4420  143.7660 C   0  0  0  0  0  0  0  0  0  0  0  0
  186.3120  177.4610  143.2640 C   0  0  0  0  0  0  0  0  0  0  0  0
  195.4240  172.4450  145.5180 C   0  0  0  0  0  2  0  0  0  0  0  0
  194.7180  171.1230  145.7570 C   0  0  2  0  0  3  0  0  0  0  0  0
  195.6520  170.0880  145.8090 O   0  0  0  0  0  1  0  0  0  0  0  0
  193.7460  170.8630  144.6260 C   0  0  0  0  0  1  0  0  0  0  0  0
  1 20  1  0  0  0  0
  1 16  1  1  0  0  0
  2 24  1  0  0  0  0
  3 11  1  0  0  0  0
  4  3  2  0  0  0  0
  4 21  1  0  0  0  0
  5 25  2  0  0  0  0
  6  5  1  0  0  0  0
  6 18  1  0  0  0  0
  7 24  1  6  0  0  0
  7 19  1  0  0  0  0
  8 17  1  0  0  0  0
  9 15  2  0  0  0  0
 10  1  1  0  0  0  0
 10 20  1  0  0  0  0
 11 13  2  0  0  0  0
 12  8  1  0  0  0  0
 12  2  2  0  0  0  0
 13 12  1  0  0  0  0
 14 27  2  0  0  0  0
 15 18  1  0  0  0  0
 16 19  1  0  0  0  0
 17 10  1  0  0  0  0
 17  7  1  0  0  0  0
 21 22  2  0  0  0  0
 22 13  1  0  0  0  0
 22 14  1  0  0  0  0
 23 14  1  0  0  0  0
 23 28  1  0  0  0  0
 26  9  1  0  0  0  0
 27  2  1  0  0  0  0
 27  5  1  0  0  0  0
 28  9  1  0  0  0  0
 28  6  2  0  0  0  0
 29 20  1  0  0  0  0
 29 30  1  0  0  0  0
 30 31  1  0  0  0  0
 32 30  1  0  0  0  0
M  END
>  <MODEL>
4

>  <REMARK>
 VINA RESULT:      -8.5      3.189      7.845
  Name = 
  2 active torsions:
  status: ('A' for Active; 'I' for Inactive)
    1  A    between atoms: C_20  and  C_29
    2  A    between atoms: C_29  and  C_30
                            x       y       z     vdW  Elec       q    Type
                         _______ _______ _______ _____ _____    ______ ____

>  <TORSDO>
F 2

$$$$
=
 OpenBabel11112416383D

 32 38  0  0  1  0  0  0  0  0999 V2000
  186.5050  178.4370  142.9690 C   0  0  1  0  0  3  0  0  0  0  0  0
  190.0000  174.5250  143.6720 C   0  0  0  0  0  0  0  0  0  0  0  0
  193.4700  176.5330  146.4640 C   0  0  0  0  0  3  0  0  0  0  0  0
  194.2260  175.3660  146.3730 C   0  0  0  0  0  3  0  0  0  0  0  0
  190.2790  172.1280  142.8070 C   0  0  0  0  0  0  0  0  0  0  0  0
  191.1590  170.9650  142.7780 C   0  0  0  0  0  0  0  0  0  0  0  0
  187.7980  175.7510  143.4290 C   0  0  1  0  0  3  0  0  0  0  0  0
  189.6660  176.8800  144.6040 C   0  0  0  0  0  2  0  0  0  0  0  0
  192.9320  169.6540  143.1820 C   0  0  0  0  0  0  0  0  0  0  0  0
  187.7620  178.3180  143.8310 C   0  0  2  0  0  3  0  0  0  0  0  0
  192.2380  176.6160  145.8150 C   0  0  0  0  0  3  0  0  0  0  0  0
  190.4990  175.6290  144.4120 C   0  0  0  0  0  0  0  0  0  0  0  0
  191.7410  175.5340  145.0660 C   0  0  0  0  0  0  0  0  0  0  0  0
  192.0270  173.2500  144.2420 C   0  0  0  0  0  0  0  0  0  0  0  0
  192.0820  169.0110  142.4430 N   0  0  0  0  0  0  0  0  0  0  0  0
  186.3150  177.2670  141.9790 C   0  0  0  0  0  2  0  0  0  0  0  0
  188.5950  177.0530  143.5390 C   0  0  2  0  0  3  0  0  0  0  0  0
  190.9660  169.8320  142.1880 N   0  0  0  0  0  0  0  0  0  0  0  0
  186.5450  175.8640  142.5550 C   0  0  0  0  0  2  0  0  0  0  0  0
  186.3910  178.0400  144.4370 C   0  0  1  0  0  3  0  0  0  0  0  0
  193.7480  174.2820  145.6360 C   0  0  0  0  0  3  0  0  0  0  0  0
  192.5070  174.3490  144.9770 C   0  0  0  0  0  0  0  0  0  0  0  0
  192.8590  172.0070  144.1590 C   0  0  0  0  0  3  0  0  0  0  0  0
  188.7130  174.6680  142.8860 C   0  0  0  0  0  2  0  0  0  0  0  0
  189.1690  172.0920  142.2130 O   0  0  0  0  0  0  0  0  0  0  0  0
  194.2280  169.0880  143.6450 C   0  0  0  0  0  1  0  0  0  0  0  0
  190.7590  173.3290  143.5780 C   0  0  0  0  0  0  0  0  0  0  0  0
  192.4080  170.9730  143.4620 C   0  0  0  0  0  0  0  0  0  0  0  0
  185.9510  179.2430  145.2470 C   0  0  0  0  0  2  0  0  0  0  0  0
  185.4670  178.8070  146.6180 C   0  0  2  0  0  3  0  0  0  0  0  0
  186.5550  178.4420  147.4120 O   0  0  0  0  0  1  0  0  0  0  0  0
  184.5380  177.6210  146.4680 C   0  0  0  0  0  1  0  0  0  0  0  0
  1 16  1  6  0  0  0
  1 10  1  0  0  0  0
  1 20  1  0  0  0  0
  2 12  1  0  0  0  0
  4  3  1  0  0  0  0
  5 27  1  0  0  0  0
  6  5  1  0  0  0  0
  6 28  1  0  0  0  0
  7 19  1  6  0  0  0
  7 17  1  0  0  0  0
  9 28  1  0  0  0  0
  9 26  1  0  0  0  0
 10 20  1  0  0  0  0
 11  3  2  0  0  0  0
 12  8  1  0  0  0  0
 12 13  2  0  0  0  0
 13 11  1  0  0  0  0
 14 22  2  0  0  0  0
 15  9  2  0  0  0  0
 16 19  1  0  0  0  0
 17 10  1  0  0  0  0
 17  8  1  0  0  0  0
 18 15  1  0  0  0  0
 18  6  2  0  0  0  0
 20 29  1  0  0  0  0
 21  4  2  0  0  0  0
 22 13  1  0  0  0  0
 22 21  1  0  0  0  0
 23 14  1  0  0  0  0
 24  7  1  0  0  0  0
 24  2  1  0  0  0  0
 25  5  2  0  0  0  0
 27  2  2  0  0  0  0
 27 14  1  0  0  0  0
 28 23  2  0  0  0  0
 29 30  1  0  0  0  0
 30 31  1  0  0  0  0
 32 30  1  0  0  0  0
M  END
>  <MODEL>
5

>  <REMARK>
 VINA RESULT:      -8.4      3.218      4.794
  Name = 
  2 active torsions:
  status: ('A' for Active; 'I' for Inactive)
    1  A    between atoms: C_20  and  C_29
    2  A    between atoms: C_29  and  C_30
                            x       y       z     vdW  Elec       q    Type
                         _______ _______ _______ _____ _____    ______ ____

>  <TORSDO>
F 2

$$$$
=
 OpenBabel11112416383D

 32 38  0  0  1  0  0  0  0  0999 V2000
  190.0570  172.0840  139.1270 C   0  0  1  0  0  3  0  0  0  0  0  0
  188.6380  175.3220  143.0660 C   0  0  0  0  0  0  0  0  0  0  0  0
  192.2500  174.8650  146.3250 C   0  0  0  0  0  3  0  0  0  0  0  0
  191.5620  175.6940  147.2100 C   0  0  0  0  0  3  0  0  0  0  0  0
  186.6000  176.7790  143.6080 C   0  0  0  0  0  0  0  0  0  0  0  0
  185.9730  177.6250  144.6180 C   0  0  0  0  0  0  0  0  0  0  0  0
  189.0070  174.4110  140.7320 C   0  0  1  0  0  3  0  0  0  0  0  0
  190.7060  173.9430  142.4750 C   0  0  0  0  0  2  0  0  0  0  0  0
  185.6680  178.7400  146.5380 C   0  0  0  0  0  0  0  0  0  0  0  0
  190.7690  172.5310  140.4040 C   0  0  2  0  0  3  0  0  0  0  0  0
  191.6950  174.5650  145.0800 C   0  0  0  0  0  3  0  0  0  0  0  0
  189.8930  174.7750  143.4450 C   0  0  0  0  0  0  0  0  0  0  0  0
  190.4450  175.0880  144.7000 C   0  0  0  0  0  0  0  0  0  0  0  0
  188.5040  176.4740  145.2370 C   0  0  0  0  0  0  0  0  0  0  0  0
  184.6530  178.9450  145.7570 N   0  0  0  0  0  0  0  0  0  0  0  0
  188.5750  172.5120  139.0580 C   0  0  0  0  0  2  0  0  0  0  0  0
  189.8660  173.3180  141.3730 C   0  0  2  0  0  3  0  0  0  0  0  0
  184.8420  178.2460  144.5480 N   0  0  0  0  0  0  0  0  0  0  0  0
  188.2810  173.9630  139.4600 C   0  0  0  0  0  2  0  0  0  0  0  0
  191.0460  173.2430  139.0850 C   0  0  1  0  0  3  0  0  0  0  0  0
  190.3230  176.2230  146.8490 C   0  0  0  0  0  3  0  0  0  0  0  0
  189.7510  175.9310  145.5980 C   0  0  0  0  0  0  0  0  0  0  0  0
  187.7860  177.3610  146.2070 C   0  0  0  0  0  3  0  0  0  0  0  0
  188.0000  174.9010  141.7580 C   0  0  0  0  0  2  0  0  0  0  0  0
  186.0310  176.5940  142.5000 O   0  0  0  0  0  0  0  0  0  0  0  0
  185.8030  179.3270  147.8980 C   0  0  0  0  0  1  0  0  0  0  0  0
  187.9330  176.1720  143.9580 C   0  0  0  0  0  0  0  0  0  0  0  0
  186.6090  177.8680  145.8680 C   0  0  0  0  0  0  0  0  0  0  0  0
  192.3650  172.7550  138.5210 C   0  0  0  0  0  2  0  0  0  0  0  0
  192.9110  173.7530  137.5160 C   0  0  2  0  0  3  0  0  0  0  0  0
  193.6250  174.7520  138.1790 O   0  0  0  0  0  1  0  0  0  0  0  0
  191.7610  174.3810  136.7580 C   0  0  0  0  0  1  0  0  0  0  0  0
  1 16  1  1  0  0  0
  1 10  1  0  0  0  0
  2 12  2  0  0  0  0
  2 27  1  0  0  0  0
  3  4  1  0  0  0  0
  5 27  1  0  0  0  0
  5  6  1  0  0  0  0
  6 28  1  0  0  0  0
  7 19  1  6  0  0  0
  7 17  1  0  0  0  0
  7 24  1  0  0  0  0
  8 12  1  0  0  0  0
  9 26  1  0  0  0  0
 10 17  1  0  0  0  0
 11  3  2  0  0  0  0
 12 13  1  0  0  0  0
 13 11  1  0  0  0  0
 13 22  2  0  0  0  0
 14 22  1  0  0  0  0
 14 23  1  0  0  0  0
 15  9  2  0  0  0  0
 16 19  1  0  0  0  0
 17  8  1  0  0  0  0
 18  6  2  0  0  0  0
 18 15  1  0  0  0  0
 20  1  1  0  0  0  0
 20 10  1  0  0  0  0
 21  4  2  0  0  0  0
 22 21  1  0  0  0  0
 24  2  1  0  0  0  0
 25  5  2  0  0  0  0
 27 14  2  0  0  0  0
 28 23  2  0  0  0  0
 28  9  1  0  0  0  0
 29 20  1  0  0  0  0
 30 31  1  0  0  0  0
 30 29  1  0  0  0  0
 32 30  1  0  0  0  0
M  END
>  <MODEL>
6

>  <REMARK>
 VINA RESULT:      -8.4      3.501      8.131
  Name = 
  2 active torsions:
  status: ('A' for Active; 'I' for Inactive)
    1  A    between atoms: C_20  and  C_29
    2  A    between atoms: C_29  and  C_30
                            x       y       z     vdW  Elec       q    Type
                         _______ _______ _______ _____ _____    ______ ____

>  <TORSDO>
F 2

$$$$
=
 OpenBabel11112416383D

 32 38  0  0  1  0  0  0  0  0999 V2000
  192.1530  170.0790  142.8480 C   0  0  1  0  0  3  0  0  0  0  0  0
  189.5740  174.6210  143.7030 C   0  0  0  0  0  0  0  0  0  0  0  0
  191.4060  176.2370  147.9340 C   0  0  0  0  0  3  0  0  0  0  0  0
  190.5060  177.3010  147.9230 C   0  0  0  0  0  3  0  0  0  0  0  0
  187.6710  175.9010  142.5590 C   0  0  0  0  0  0  0  0  0  0  0  0
  186.7740  177.0470  142.6600 C   0  0  0  0  0  0  0  0  0  0  0  0
  190.7880  172.7470  142.5090 C   0  0  1  0  0  3  0  0  0  0  0  0
  191.5340  173.3890  144.7840 C   0  0  0  0  0  2  0  0  0  0  0  0
  185.8140  178.9070  143.4630 C   0  0  0  0  0  0  0  0  0  0  0  0
  192.3070  171.1700  143.9080 C   0  0  2  0  0  3  0  0  0  0  0  0
  191.3970  175.3080  146.8940 C   0  0  0  0  0  3  0  0  0  0  0  0
  190.4850  174.4820  144.7830 C   0  0  0  0  0  0  0  0  0  0  0  0
  190.4890  175.4270  145.8260 C   0  0  0  0  0  0  0  0  0  0  0  0
  188.6670  176.6540  144.7520 C   0  0  0  0  0  0  0  0  0  0  0  0
  185.2520  178.5840  142.3400 N   0  0  0  0  0  0  0  0  0  0  0  0
  190.8940  170.2380  141.9680 C   0  0  0  0  0  2  0  0  0  0  0  0
  191.1720  172.2130  143.8910 C   0  0  2  0  0  3  0  0  0  0  0  0
  185.8530  177.4160  141.8320 N   0  0  0  0  0  0  0  0  0  0  0  0
  190.6200  171.6550  141.4480 C   0  0  0  0  0  2  0  0  0  0  0  0
  193.1890  171.1820  142.6650 C   0  0  1  0  0  3  0  0  0  0  0  0
  189.6000  177.4360  146.8710 C   0  0  0  0  0  3  0  0  0  0  0  0
  189.5780  176.5080  145.8140 C   0  0  0  0  0  0  0  0  0  0  0  0
  187.7100  177.8060  144.7640 C   0  0  0  0  0  3  0  0  0  0  0  0
  189.5040  173.5470  142.6380 C   0  0  0  0  0  2  0  0  0  0  0  0
  187.6040  175.1350  141.5610 O   0  0  0  0  0  0  0  0  0  0  0  0
  185.4280  180.0900  144.2780 C   0  0  0  0  0  1  0  0  0  0  0  0
  188.6580  175.7040  143.6790 C   0  0  0  0  0  0  0  0  0  0  0  0
  186.8480  177.9400  143.7660 C   0  0  0  0  0  0  0  0  0  0  0  0
  194.5610  170.6450  143.0210 C   0  0  0  0  0  2  0  0  0  0  0  0
  195.0050  171.1840  144.3680 C   0  0  2  0  0  3  0  0  0  0  0  0
  195.7150  172.3730  144.1930 O   0  0  0  0  0  1  0  0  0  0  0  0
  195.8960  170.1660  145.0470 C   0  0  0  0  0  1  0  0  0  0  0  0
  1 16  1  6  0  0  0
  1 10  1  0  0  0  0
  2 12  1  0  0  0  0
  4  3  1  0  0  0  0
  5  6  1  0  0  0  0
  5 27  1  0  0  0  0
  6 28  1  0  0  0  0
  7 19  1  6  0  0  0
  7 24  1  0  0  0  0
  7 17  1  0  0  0  0
  9 28  1  0  0  0  0
  9 26  1  0  0  0  0
 11  3  2  0  0  0  0
 12  8  1  0  0  0  0
 12 13  2  0  0  0  0
 13 11  1  0  0  0  0
 14 23  1  0  0  0  0
 14 22  2  0  0  0  0
 15  9  2  0  0  0  0
 17 10  1  0  0  0  0
 17  8  1  0  0  0  0
 18 15  1  0  0  0  0
 18  6  2  0  0  0  0
 19 16  1  0  0  0  0
 20  1  1  0  0  0  0
 20 29  1  0  0  0  0
 20 10  1  0  0  0  0
 21  4  2  0  0  0  0
 22 13  1  0  0  0  0
 22 21  1  0  0  0  0
 24  2  1  0  0  0  0
 25  5  2  0  0  0  0
 27  2  2  0  0  0  0
 27 14  1  0  0  0  0
 28 23  2  0  0  0  0
 29 30  1  0  0  0  0
 30 32  1  0  0  0  0
 31 30  1  0  0  0  0
M  END
>  <MODEL>
7

>  <REMARK>
 VINA RESULT:      -8.2      3.651      8.661
  Name = 
  2 active torsions:
  status: ('A' for Active; 'I' for Inactive)
    1  A    between atoms: C_20  and  C_29
    2  A    between atoms: C_29  and  C_30
                            x       y       z     vdW  Elec       q    Type
                         _______ _______ _______ _____ _____    ______ ____

>  <TORSDO>
F 2

$$$$
=
 OpenBabel11112416383D

 32 38  0  0  1  0  0  0  0  0999 V2000
  186.4520  177.8690  144.2110 C   0  0  1  0  0  3  0  0  0  0  0  0
  190.8690  175.2290  142.9730 C   0  0  0  0  0  0  0  0  0  0  0  0
  193.9490  176.3180  146.6070 C   0  0  0  0  0  3  0  0  0  0  0  0
  194.9640  175.6120  145.9650 C   0  0  0  0  0  3  0  0  0  0  0  0
  191.6690  173.7990  141.0020 C   0  0  0  0  0  0  0  0  0  0  0  0
  192.8080  173.0970  140.4220 C   0  0  0  0  0  0  0  0  0  0  0  0
  188.4170  175.7810  143.2750 C   0  0  1  0  0  3  0  0  0  0  0  0
  190.0340  176.5760  144.9780 C   0  0  0  0  0  2  0  0  0  0  0  0
  194.8830  172.2820  140.1870 C   0  0  0  0  0  0  0  0  0  0  0  0
  187.7680  177.6520  144.9580 C   0  0  2  0  0  3  0  0  0  0  0  0
  192.6840  176.4020  146.0250 C   0  0  0  0  0  3  0  0  0  0  0  0
  191.1350  175.8740  144.2100 C   0  0  0  0  0  0  0  0  0  0  0  0
  192.4130  175.7800  144.7920 C   0  0  0  0  0  0  0  0  0  0  0  0
  193.1950  174.4230  142.9140 C   0  0  0  0  0  0  0  0  0  0  0  0
  194.1620  171.9210  139.1710 N   0  0  0  0  0  0  0  0  0  0  0  0
  186.4790  177.3810  142.7460 C   0  0  0  0  0  2  0  0  0  0  0  0
  188.8650  176.9910  144.0990 C   0  0  2  0  0  3  0  0  0  0  0  0
  192.8570  172.4310  139.3160 N   0  0  0  0  0  0  0  0  0  0  0  0
  187.1050  176.0000  142.5160 C   0  0  0  0  0  2  0  0  0  0  0  0
  186.5700  176.7540  145.2440 C   0  0  1  0  0  3  0  0  0  0  0  0
  194.7130  174.9870  144.7430 C   0  0  0  0  0  3  0  0  0  0  0  0
  193.4430  175.0610  144.1430 C   0  0  0  0  0  0  0  0  0  0  0  0
  194.3030  173.6700  142.2440 C   0  0  0  0  0  3  0  0  0  0  0  0
  189.5250  175.4190  142.3020 C   0  0  0  0  0  2  0  0  0  0  0  0
  190.5560  173.7890  140.4110 O   0  0  0  0  0  0  0  0  0  0  0  0
  196.3150  171.9180  140.3630 C   0  0  0  0  0  1  0  0  0  0  0  0
  191.8950  174.5020  142.3150 C   0  0  0  0  0  0  0  0  0  0  0  0
  194.0690  173.0730  141.0840 C   0  0  0  0  0  0  0  0  0  0  0  0
  185.9120  177.1980  146.5360 C   0  0  0  0  0  2  0  0  0  0  0  0
  185.4130  178.6260  146.4100 C   0  0  2  0  0  3  0  0  0  0  0  0
  185.7850  179.3610  147.5360 O   0  0  0  0  0  1  0  0  0  0  0  0
  183.9040  178.6210  146.2920 C   0  0  0  0  0  1  0  0  0  0  0  0
  1 16  1  6  0  0  0
  1 10  1  0  0  0  0
  1 20  1  0  0  0  0
  2 12  1  0  0  0  0
  4  3  1  0  0  0  0
  5 27  1  0  0  0  0
  6  5  1  0  0  0  0
  6 28  1  0  0  0  0
  7 24  1  6  0  0  0
  7 17  1  0  0  0  0
  9 26  1  0  0  0  0
  9 28  1  0  0  0  0
 10 20  1  0  0  0  0
 11  3  2  0  0  0  0
 12 13  2  0  0  0  0
 12  8  1  0  0  0  0
 13 11  1  0  0  0  0
 14 22  2  0  0  0  0
 15 18  1  0  0  0  0
 15  9  2  0  0  0  0
 17 10  1  0  0  0  0
 17  8  1  0  0  0  0
 18  6  2  0  0  0  0
 19 16  1  0  0  0  0
 19  7  1  0  0  0  0
 20 29  1  0  0  0  0
 21  4  2  0  0  0  0
 22 21  1  0  0  0  0
 22 13  1  0  0  0  0
 23 14  1  0  0  0  0
 24  2  1  0  0  0  0
 25  5  2  0  0  0  0
 27 14  1  0  0  0  0
 27  2  2  0  0  0  0
 28 23  2  0  0  0  0
 30 29  1  0  0  0  0
 30 31  1  0  0  0  0
 32 30  1  0  0  0  0
M  END
>  <MODEL>
8

>  <REMARK>
 VINA RESULT:      -8.1      2.923      4.737
  Name = 
  2 active torsions:
  status: ('A' for Active; 'I' for Inactive)
    1  A    between atoms: C_20  and  C_29
    2  A    between atoms: C_29  and  C_30
                            x       y       z     vdW  Elec       q    Type
                         _______ _______ _______ _____ _____    ______ ____

>  <TORSDO>
F 2

$$$$
=
 OpenBabel11112416383D

 32 38  0  0  1  0  0  0  0  0999 V2000
  186.0790  178.7100  144.0640 C   0  0  1  0  0  3  0  0  0  0  0  0
  188.6940  174.8380  141.5770 C   0  0  0  0  0  0  0  0  0  0  0  0
  191.7190  173.0810  144.9880 C   0  0  0  0  0  3  0  0  0  0  0  0
  192.2900  172.2250  144.0480 C   0  0  0  0  0  3  0  0  0  0  0  0
  188.7920  173.9230  139.1850 C   0  0  0  0  0  0  0  0  0  0  0  0
  189.4700  172.9910  138.2910 C   0  0  0  0  0  0  0  0  0  0  0  0
  186.8140  176.3650  142.3140 C   0  0  1  0  0  3  0  0  0  0  0  0
  188.5230  175.6920  143.9790 C   0  0  0  0  0  2  0  0  0  0  0  0
  190.8880  171.4080  137.5790 C   0  0  0  0  0  0  0  0  0  0  0  0
  187.0790  177.6610  144.5510 C   0  0  2  0  0  3  0  0  0  0  0  0
  190.6890  173.9420  144.6100 C   0  0  0  0  0  3  0  0  0  0  0  0
  189.1770  174.8380  142.9120 C   0  0  0  0  0  0  0  0  0  0  0  0
  190.2130  173.9620  143.2860 C   0  0  0  0  0  0  0  0  0  0  0  0
  190.3260  173.0850  141.0060 C   0  0  0  0  0  0  0  0  0  0  0  0
  190.1360  171.7860  136.5920 N   0  0  0  0  0  0  0  0  0  0  0  0
  185.9390  178.7710  142.5270 C   0  0  0  0  0  2  0  0  0  0  0  0
  187.7540  176.8730  143.4100 C   0  0  2  0  0  3  0  0  0  0  0  0
  189.2430  172.7810  137.0360 N   0  0  0  0  0  0  0  0  0  0  0  0
  185.8190  177.4170  141.8150 C   0  0  0  0  0  2  0  0  0  0  0  0
  185.5820  177.4100  144.6860 C   0  0  1  0  0  3  0  0  0  0  0  0
  191.8290  172.2290  142.7310 C   0  0  0  0  0  3  0  0  0  0  0  0
  190.7910  173.0910  142.3330 C   0  0  0  0  0  0  0  0  0  0  0  0
  190.9560  172.1560  140.0150 C   0  0  0  0  0  3  0  0  0  0  0  0
  187.6520  175.8530  141.1560 C   0  0  0  0  0  2  0  0  0  0  0  0
  187.8500  174.6380  138.7520 O   0  0  0  0  0  0  0  0  0  0  0  0
  191.9460  170.3680  137.4690 C   0  0  0  0  0  1  0  0  0  0  0  0
  189.2650  173.9650  140.6140 C   0  0  0  0  0  0  0  0  0  0  0  0
  190.5210  172.1550  138.7630 C   0  0  0  0  0  0  0  0  0  0  0  0
  185.1600  177.6710  146.1190 C   0  0  0  0  0  2  0  0  0  0  0  0
  186.3740  177.6940  147.0300 C   0  0  2  0  0  3  0  0  0  0  0  0
  186.4400  176.5090  147.7630 O   0  0  0  0  0  1  0  0  0  0  0  0
  186.2630  178.8650  147.9830 C   0  0  0  0  0  1  0  0  0  0  0  0
  1 16  1  6  0  0  0
  1 10  1  0  0  0  0
  1 20  1  0  0  0  0
  2 12  1  0  0  0  0
  4  3  1  0  0  0  0
  5 27  1  0  0  0  0
  6 28  1  0  0  0  0
  6  5  1  0  0  0  0
  7 24  1  6  0  0  0
  7 17  1  0  0  0  0
  9 28  1  0  0  0  0
 10 20  1  0  0  0  0
 11  3  2  0  0  0  0
 12 13  2  0  0  0  0
 12  8  1  0  0  0  0
 13 11  1  0  0  0  0
 14 22  2  0  0  0  0
 15 18  1  0  0  0  0
 15  9  2  0  0  0  0
 17  8  1  0  0  0  0
 17 10  1  0  0  0  0
 18  6  2  0  0  0  0
 19  7  1  0  0  0  0
 19 16  1  0  0  0  0
 20 29  1  0  0  0  0
 21  4  2  0  0  0  0
 22 21  1  0  0  0  0
 22 13  1  0  0  0  0
 23 14  1  0  0  0  0
 24  2  1  0  0  0  0
 25  5  2  0  0  0  0
 26  9  1  0  0  0  0
 27 14  1  0  0  0  0
 27  2  2  0  0  0  0
 28 23  2  0  0  0  0
 29 30  1  0  0  0  0
 30 31  1  0  0  0  0
 30 32  1  0  0  0  0
M  END
>  <MODEL>
9

>  <REMARK>
 VINA RESULT:      -8.1      3.668      5.715
  Name = 
  2 active torsions:
  status: ('A' for Active; 'I' for Inactive)
    1  A    between atoms: C_20  and  C_29
    2  A    between atoms: C_29  and  C_30
                            x       y       z     vdW  Elec       q    Type
                         _______ _______ _______ _____ _____    ______ ____

>  <TORSDO>
F 2

$$$$
