=
 OpenBabel11112417063D

 31 35  0  0  1  0  0  0  0  0999 V2000
  184.8960  178.2300  146.8710 C   0  0  0  0  0  0  0  0  0  0  0  0
  187.4510  175.8070  145.4230 C   0  0  2  0  0  3  0  0  0  0  0  0
  187.5750  176.1560  143.9460 C   0  0  0  0  0  0  0  0  0  0  0  0
  186.6900  177.1880  141.9280 C   0  0  0  0  0  0  0  0  0  0  0  0
  186.8410  176.9240  146.2360 C   0  0  0  0  0  0  0  0  0  0  0  0
  185.7020  179.0470  147.6690 C   0  0  0  0  0  3  0  0  0  0  0  0
  186.5800  176.9000  143.2890 C   0  0  0  0  0  3  0  0  0  0  0  0
  189.6580  176.5860  146.2040 N   0  0  0  0  0  0  0  0  0  0  0  0
  183.5660  178.4670  146.7860 F   0  0  0  0  0  0  0  0  0  0  0  0
  189.6450  174.8790  143.8060 O   0  0  0  0  0  0  0  0  0  0  0  0
  185.6370  177.9900  141.2520 C   0  0  0  0  0  1  0  0  0  0  0  0
  189.0950  177.4130  147.2760 C   0  0  0  0  0  2  0  0  0  0  0  0
  188.8100  175.3950  146.0310 C   0  0  2  0  0  3  0  0  0  0  0  0
  185.4640  177.1710  146.1600 C   0  0  0  0  0  3  0  0  0  0  0  0
  187.7900  176.7260  141.2020 C   0  0  0  0  0  3  0  0  0  0  0  0
  187.6500  177.7480  147.0430 C   0  0  0  0  0  0  0  0  0  0  0  0
  187.0740  178.8000  147.7630 C   0  0  0  0  0  3  0  0  0  0  0  0
  189.4700  174.3530  145.1190 C   0  0  0  0  0  2  0  0  0  0  0  0
  188.6620  175.6610  143.1950 C   0  0  0  0  0  0  0  0  0  0  0  0
  188.7730  175.9610  141.8350 C   0  0  0  0  0  3  0  0  0  0  0  0
  192.0420  177.0420  144.8140 O   0  0  0  0  0  0  0  0  0  0  0  0
  192.1080  176.4270  145.9130 C   0  0  0  0  0  0  0  0  0  0  0  0
  190.9190  176.1630  146.6590 N   0  0  0  0  0  2  0  0  0  0  0  0
  195.6080  176.2330  144.4800 C   0  0  1  0  0  3  0  0  0  0  0  0
  194.4550  177.0810  146.5420 C   0  0  0  0  0  2  0  0  0  0  0  0
  193.0400  173.7400  145.5380 O   0  0  0  0  0  1  0  0  0  0  0  0
  196.0970  176.5980  143.2270 O   0  0  0  0  0  1  0  0  0  0  0  0
  195.0080  177.4570  145.1670 C   0  0  0  0  0  2  0  0  0  0  0  0
  193.9990  174.7430  145.6830 C   0  0  2  0  0  3  0  0  0  0  0  0
  193.4270  175.9480  146.4470 C   0  0  2  0  0  3  0  0  0  0  0  0
  194.5490  175.1480  144.3150 C   0  0  0  0  0  2  0  0  0  0  0  0
  1  6  1  0  0  0  0
  2  3  1  6  0  0  0
  2 13  1  0  0  0  0
  2  5  1  0  0  0  0
  4  7  2  0  0  0  0
  5 16  2  0  0  0  0
  6 17  2  0  0  0  0
  7  3  1  0  0  0  0
  8 23  1  0  0  0  0
  8 12  1  0  0  0  0
  9  1  1  0  0  0  0
 10 18  1  0  0  0  0
 11  4  1  0  0  0  0
 13 18  1  6  0  0  0
 13  8  1  0  0  0  0
 14  5  1  0  0  0  0
 14  1  2  0  0  0  0
 15 20  2  0  0  0  0
 15  4  1  0  0  0  0
 16 12  1  0  0  0  0
 16 17  1  0  0  0  0
 19 10  1  0  0  0  0
 19  3  2  0  0  0  0
 20 19  1  0  0  0  0
 21 22  2  0  0  0  0
 22 23  1  0  0  0  0
 24 27  1  6  0  0  0
 24 28  1  0  0  0  0
 28 25  1  0  0  0  0
 29 26  1  6  0  0  0
 29 30  1  0  0  0  0
 30 22  1  6  0  0  0
 30 25  1  0  0  0  0
 31 24  1  0  0  0  0
 31 29  1  0  0  0  0
M  END
>  <MODEL>
1

>  <REMARK>
 VINA RESULT:      -8.9      0.000      0.000
  Name = 
  2 active torsions:
  status: ('A' for Active; 'I' for Inactive)
    1  A    between atoms: C_5  and  C_30
    2  A    between atoms: N_10  and  N_16
                            x       y       z     vdW  Elec       q    Type
                         _______ _______ _______ _____ _____    ______ ____

>  <TORSDO>
F 2

$$$$
=
 OpenBabel11112417063D

 31 35  0  0  1  0  0  0  0  0999 V2000
  184.9090  177.8470  146.8520 C   0  0  0  0  0  0  0  0  0  0  0  0
  187.2910  175.8730  144.6340 C   0  0  2  0  0  3  0  0  0  0  0  0
  187.0940  176.4060  143.2220 C   0  0  0  0  0  0  0  0  0  0  0  0
  185.7550  177.5820  141.5650 C   0  0  0  0  0  0  0  0  0  0  0  0
  186.7770  176.8200  145.6920 C   0  0  0  0  0  0  0  0  0  0  0  0
  185.7960  178.6370  147.5880 C   0  0  0  0  0  3  0  0  0  0  0  0
  185.9390  177.1240  142.8710 C   0  0  0  0  0  3  0  0  0  0  0  0
  189.5480  176.7620  145.0850 N   0  0  0  0  0  0  0  0  0  0  0  0
  183.5740  177.9640  147.0510 F   0  0  0  0  0  0  0  0  0  0  0  0
  189.1810  175.3600  142.5230 O   0  0  0  0  0  0  0  0  0  0  0  0
  184.5340  178.3540  141.2140 C   0  0  0  0  0  1  0  0  0  0  0  0
  189.1520  177.3970  146.3470 C   0  0  0  0  0  2  0  0  0  0  0  0
  188.7700  175.5240  144.9150 C   0  0  2  0  0  3  0  0  0  0  0  0
  185.3980  176.9410  145.9100 C   0  0  0  0  0  3  0  0  0  0  0  0
  186.7190  177.3180  140.5890 C   0  0  0  0  0  3  0  0  0  0  0  0
  187.6690  177.6160  146.4370 C   0  0  0  0  0  0  0  0  0  0  0  0
  187.1740  178.5140  147.3890 C   0  0  0  0  0  3  0  0  0  0  0  0
  189.3080  174.6670  143.7620 C   0  0  0  0  0  2  0  0  0  0  0  0
  188.0430  176.1110  142.2200 C   0  0  0  0  0  0  0  0  0  0  0  0
  187.8600  176.5820  140.9170 C   0  0  0  0  0  3  0  0  0  0  0  0
  191.6370  178.0260  143.7220 O   0  0  0  0  0  0  0  0  0  0  0  0
  191.9310  177.0930  144.5180 C   0  0  0  0  0  0  0  0  0  0  0  0
  190.9010  176.4110  145.2340 N   0  0  0  0  0  2  0  0  0  0  0  0
  193.6430  173.7490  144.9940 C   0  0  1  0  0  3  0  0  0  0  0  0
  193.8640  175.7980  143.5600 C   0  0  0  0  0  2  0  0  0  0  0  0
  193.1020  176.7710  147.1170 O   0  0  0  0  0  1  0  0  0  0  0  0
  193.1180  172.4600  145.0510 O   0  0  0  0  0  1  0  0  0  0  0  0
  193.3060  174.3770  143.6450 C   0  0  0  0  0  2  0  0  0  0  0  0
  193.6240  176.0050  146.0730 C   0  0  2  0  0  3  0  0  0  0  0  0
  193.3590  176.6730  144.7140 C   0  0  2  0  0  3  0  0  0  0  0  0
  193.0590  174.5860  146.1270 C   0  0  0  0  0  2  0  0  0  0  0  0
  1  9  1  0  0  0  0
  1  6  1  0  0  0  0
  2  3  1  6  0  0  0
  2 13  1  0  0  0  0
  2  5  1  0  0  0  0
  4  7  2  0  0  0  0
  5 14  1  0  0  0  0
  5 16  2  0  0  0  0
  7  3  1  0  0  0  0
  8 23  1  0  0  0  0
  8 12  1  0  0  0  0
 10 18  1  0  0  0  0
 11  4  1  0  0  0  0
 12 16  1  0  0  0  0
 13 18  1  6  0  0  0
 13  8  1  0  0  0  0
 14  1  2  0  0  0  0
 15 20  2  0  0  0  0
 15  4  1  0  0  0  0
 16 17  1  0  0  0  0
 17  6  2  0  0  0  0
 19 10  1  0  0  0  0
 19  3  2  0  0  0  0
 20 19  1  0  0  0  0
 21 22  2  0  0  0  0
 22 23  1  0  0  0  0
 24 27  1  6  0  0  0
 24 31  1  0  0  0  0
 25 28  1  0  0  0  0
 25 30  1  0  0  0  0
 28 24  1  0  0  0  0
 29 31  1  0  0  0  0
 29 26  1  1  0  0  0
 30 22  1  6  0  0  0
 30 29  1  0  0  0  0
M  END
>  <MODEL>
2

>  <REMARK>
 VINA RESULT:      -8.6      1.368      1.920
  Name = 
  2 active torsions:
  status: ('A' for Active; 'I' for Inactive)
    1  A    between atoms: C_5  and  C_30
    2  A    between atoms: N_10  and  N_16
                            x       y       z     vdW  Elec       q    Type
                         _______ _______ _______ _____ _____    ______ ____

>  <TORSDO>
F 2

$$$$
=
 OpenBabel11112417063D

 31 35  0  0  1  0  0  0  0  0999 V2000
  194.3040  176.4520  145.1450 C   0  0  0  0  0  0  0  0  0  0  0  0
  190.9150  177.0760  143.5270 C   0  0  2  0  0  3  0  0  0  0  0  0
  190.6060  175.8350  142.7000 C   0  0  0  0  0  0  0  0  0  0  0  0
  191.3330  173.8230  141.5400 C   0  0  0  0  0  0  0  0  0  0  0  0
  191.9750  176.8300  144.5730 C   0  0  0  0  0  0  0  0  0  0  0  0
  193.9510  176.2850  146.4870 C   0  0  0  0  0  3  0  0  0  0  0  0
  191.6230  174.9420  142.3230 C   0  0  0  0  0  3  0  0  0  0  0  0
  189.2360  176.7930  145.3130 N   0  0  0  0  0  0  0  0  0  0  0  0
  195.6000  176.3450  144.7690 F   0  0  0  0  0  0  0  0  0  0  0  0
  188.2680  176.5030  142.5490 O   0  0  0  0  0  0  0  0  0  0  0  0
  192.4170  172.8800  141.1620 C   0  0  0  0  0  1  0  0  0  0  0  0
  190.2200  176.9290  146.3930 C   0  0  0  0  0  2  0  0  0  0  0  0
  189.6450  177.6530  144.1910 C   0  0  2  0  0  3  0  0  0  0  0  0
  193.3210  176.7260  144.1930 C   0  0  0  0  0  3  0  0  0  0  0  0
  190.0240  173.5890  141.1120 C   0  0  0  0  0  3  0  0  0  0  0  0
  191.6230  176.6630  145.9270 C   0  0  0  0  0  0  0  0  0  0  0  0
  192.6140  176.4020  146.8780 C   0  0  0  0  0  3  0  0  0  0  0  0
  188.5400  177.7740  143.1340 C   0  0  0  0  0  2  0  0  0  0  0  0
  189.2950  175.6110  142.2310 C   0  0  0  0  0  0  0  0  0  0  0  0
  189.0070  174.4830  141.4560 C   0  0  0  0  0  3  0  0  0  0  0  0
  187.7570  175.5090  147.3090 O   0  0  0  0  0  0  0  0  0  0  0  0
  187.3110  176.5960  146.8500 C   0  0  0  0  0  0  0  0  0  0  0  0
  188.0250  177.2880  145.8260 N   0  0  0  0  0  2  0  0  0  0  0  0
  184.8580  179.1430  145.4950 C   0  0  1  0  0  3  0  0  0  0  0  0
  184.8370  176.8190  146.4450 C   0  0  0  0  0  2  0  0  0  0  0  0
  187.1970  179.0070  148.4000 O   0  0  0  0  0  1  0  0  0  0  0  0
  184.8750  179.8810  144.3130 O   0  0  0  0  0  1  0  0  0  0  0  0
  184.8470  177.6530  145.1630 C   0  0  0  0  0  2  0  0  0  0  0  0
  186.0810  178.6820  147.6260 C   0  0  2  0  0  3  0  0  0  0  0  0
  186.0190  177.1700  147.3560 C   0  0  2  0  0  3  0  0  0  0  0  0
  186.0860  179.4900  146.3290 C   0  0  0  0  0  2  0  0  0  0  0  0
  1  6  1  0  0  0  0
  2  3  1  1  0  0  0
  2 13  1  0  0  0  0
  2  5  1  0  0  0  0
  4  7  2  0  0  0  0
  5 16  2  0  0  0  0
  6 17  2  0  0  0  0
  7  3  1  0  0  0  0
  8 23  1  0  0  0  0
  8 12  1  0  0  0  0
  9  1  1  0  0  0  0
 10 18  1  0  0  0  0
 11  4  1  0  0  0  0
 13 18  1  6  0  0  0
 13  8  1  0  0  0  0
 14  5  1  0  0  0  0
 14  1  2  0  0  0  0
 15 20  2  0  0  0  0
 15  4  1  0  0  0  0
 16 12  1  0  0  0  0
 16 17  1  0  0  0  0
 19 10  1  0  0  0  0
 19  3  2  0  0  0  0
 20 19  1  0  0  0  0
 22 21  2  0  0  0  0
 23 22  1  0  0  0  0
 24 27  1  6  0  0  0
 24 31  1  0  0  0  0
 25 30  1  0  0  0  0
 28 24  1  0  0  0  0
 28 25  1  0  0  0  0
 29 26  1  6  0  0  0
 30 22  1  6  0  0  0
 30 29  1  0  0  0  0
 31 29  1  0  0  0  0
M  END
>  <MODEL>
3

>  <REMARK>
 VINA RESULT:      -8.4      3.417      6.994
  Name = 
  2 active torsions:
  status: ('A' for Active; 'I' for Inactive)
    1  A    between atoms: C_5  and  C_30
    2  A    between atoms: N_10  and  N_16
                            x       y       z     vdW  Elec       q    Type
                         _______ _______ _______ _____ _____    ______ ____

>  <TORSDO>
F 2

$$$$
=
 OpenBabel11112417063D

 31 35  0  0  1  0  0  0  0  0999 V2000
  186.4120  177.9160  140.7620 C   0  0  0  0  0  0  0  0  0  0  0  0
  188.8620  177.7770  143.6720 C   0  0  2  0  0  3  0  0  0  0  0  0
  188.0230  177.5510  144.9220 C   0  0  0  0  0  0  0  0  0  0  0  0
  185.8900  177.6380  146.0900 C   0  0  0  0  0  0  0  0  0  0  0  0
  188.1290  177.4150  142.4030 C   0  0  0  0  0  0  0  0  0  0  0  0
  186.6920  176.7180  140.0980 C   0  0  0  0  0  3  0  0  0  0  0  0
  186.6440  177.8220  144.9300 C   0  0  0  0  0  3  0  0  0  0  0  0
  189.9730  175.5780  143.5330 N   0  0  0  0  0  0  0  0  0  0  0  0
  185.4420  178.7370  140.2940 F   0  0  0  0  0  0  0  0  0  0  0  0
  190.0190  176.9040  146.1600 O   0  0  0  0  0  0  0  0  0  0  0  0
  184.4300  177.9150  146.0770 C   0  0  0  0  0  1  0  0  0  0  0  0
  189.5800  175.3590  142.1370 C   0  0  0  0  0  2  0  0  0  0  0  0
  190.2060  177.0170  143.7380 C   0  0  2  0  0  3  0  0  0  0  0  0
  187.1290  178.2640  141.9080 C   0  0  0  0  0  3  0  0  0  0  0  0
  186.5060  177.1930  147.2620 C   0  0  0  0  0  3  0  0  0  0  0  0
  188.4100  176.2090  141.7300 C   0  0  0  0  0  0  0  0  0  0  0  0
  187.6970  175.8720  140.5760 C   0  0  0  0  0  3  0  0  0  0  0  0
  190.8730  177.2990  145.0900 C   0  0  0  0  0  2  0  0  0  0  0  0
  188.6420  177.1380  146.1200 C   0  0  0  0  0  0  0  0  0  0  0  0
  187.8810  176.9460  147.2760 C   0  0  0  0  0  3  0  0  0  0  0  0
  190.2590  173.2220  145.0130 O   0  0  0  0  0  0  0  0  0  0  0  0
  191.2880  173.7040  144.4640 C   0  0  0  0  0  0  0  0  0  0  0  0
  191.1960  174.9080  143.7020 N   0  0  0  0  0  2  0  0  0  0  0  0
  194.8720  174.8770  144.1150 C   0  0  1  0  0  3  0  0  0  0  0  0
  193.4420  173.6350  145.7630 C   0  0  0  0  0  2  0  0  0  0  0  0
  192.6700  172.5050  142.2550 O   0  0  0  0  0  1  0  0  0  0  0  0
  195.3890  176.1280  143.7840 O   0  0  0  0  0  1  0  0  0  0  0  0
  194.0300  174.9950  145.3830 C   0  0  0  0  0  2  0  0  0  0  0  0
  193.4400  172.9900  143.3140 C   0  0  2  0  0  3  0  0  0  0  0  0
  192.6220  173.0330  144.6150 C   0  0  2  0  0  3  0  0  0  0  0  0
  194.0190  174.3590  142.9620 C   0  0  0  0  0  2  0  0  0  0  0  0
  1 14  1  0  0  0  0
  2  5  1  6  0  0  0
  2 13  1  0  0  0  0
  2  3  1  0  0  0  0
  3  7  2  0  0  0  0
  3 19  1  0  0  0  0
  4 15  2  0  0  0  0
  6 17  1  0  0  0  0
  6  1  2  0  0  0  0
  7  4  1  0  0  0  0
  8 23  1  0  0  0  0
  8 13  1  0  0  0  0
  9  1  1  0  0  0  0
 11  4  1  0  0  0  0
 12  8  1  0  0  0  0
 13 18  1  1  0  0  0
 14  5  2  0  0  0  0
 15 20  1  0  0  0  0
 16 12  1  0  0  0  0
 16  5  1  0  0  0  0
 17 16  2  0  0  0  0
 18 10  1  0  0  0  0
 19 10  1  0  0  0  0
 19 20  2  0  0  0  0
 22 21  2  0  0  0  0
 23 22  1  0  0  0  0
 24 27  1  6  0  0  0
 24 28  1  0  0  0  0
 28 25  1  0  0  0  0
 29 26  1  6  0  0  0
 29 30  1  0  0  0  0
 30 22  1  6  0  0  0
 30 25  1  0  0  0  0
 31 29  1  0  0  0  0
 31 24  1  0  0  0  0
M  END
>  <MODEL>
4

>  <REMARK>
 VINA RESULT:      -8.2      2.137      4.353
  Name = 
  2 active torsions:
  status: ('A' for Active; 'I' for Inactive)
    1  A    between atoms: C_5  and  C_30
    2  A    between atoms: N_10  and  N_16
                            x       y       z     vdW  Elec       q    Type
                         _______ _______ _______ _____ _____    ______ ____

>  <TORSDO>
F 2

$$$$
=
 OpenBabel11112417063D

 31 35  0  0  1  0  0  0  0  0999 V2000
  186.3040  178.4480  147.6410 C   0  0  0  0  0  0  0  0  0  0  0  0
  188.0430  175.7580  145.5840 C   0  0  2  0  0  3  0  0  0  0  0  0
  187.8970  176.1780  144.1280 C   0  0  0  0  0  0  0  0  0  0  0  0
  186.7760  177.4640  142.3920 C   0  0  0  0  0  0  0  0  0  0  0  0
  187.8190  176.9000  146.5450 C   0  0  0  0  0  0  0  0  0  0  0  0
  187.3880  179.0770  148.2590 C   0  0  0  0  0  3  0  0  0  0  0  0
  186.9200  177.1080  143.7350 C   0  0  0  0  0  3  0  0  0  0  0  0
  190.4660  176.1320  145.8660 N   0  0  0  0  0  0  0  0  0  0  0  0
  185.0450  178.8930  147.8660 F   0  0  0  0  0  0  0  0  0  0  0  0
  189.6460  174.6070  143.4860 O   0  0  0  0  0  0  0  0  0  0  0  0
  185.7480  178.4620  141.9950 C   0  0  0  0  0  1  0  0  0  0  0  0
  190.2950  176.9660  147.0610 C   0  0  0  0  0  2  0  0  0  0  0  0
  189.4150  175.1010  145.8560 C   0  0  2  0  0  3  0  0  0  0  0  0
  186.5190  177.3620  146.7900 C   0  0  0  0  0  3  0  0  0  0  0  0
  187.5980  176.8850  141.4230 C   0  0  0  0  0  3  0  0  0  0  0  0
  188.9100  177.5350  147.1720 C   0  0  0  0  0  0  0  0  0  0  0  0
  188.6880  178.6140  148.0330 C   0  0  0  0  0  3  0  0  0  0  0  0
  189.6780  174.0310  144.7900 C   0  0  0  0  0  2  0  0  0  0  0  0
  188.6960  175.5700  143.1360 C   0  0  0  0  0  0  0  0  0  0  0  0
  188.5550  175.9380  141.7950 C   0  0  0  0  0  3  0  0  0  0  0  0
  192.5510  176.3500  144.0160 O   0  0  0  0  0  0  0  0  0  0  0  0
  192.7420  175.6400  145.0400 C   0  0  0  0  0  0  0  0  0  0  0  0
  191.7070  175.4910  146.0130 N   0  0  0  0  0  2  0  0  0  0  0  0
  196.0580  175.6480  143.2110 C   0  0  1  0  0  3  0  0  0  0  0  0
  195.1920  175.9010  145.5540 C   0  0  0  0  0  2  0  0  0  0  0  0
  193.3530  173.1400  143.7730 O   0  0  0  0  0  1  0  0  0  0  0  0
  196.4670  176.3450  142.0750 O   0  0  0  0  0  1  0  0  0  0  0  0
  195.6540  176.6410  144.2980 C   0  0  0  0  0  2  0  0  0  0  0  0
  194.4200  173.9790  144.0960 C   0  0  2  0  0  3  0  0  0  0  0  0
  194.0470  174.9270  145.2470 C   0  0  2  0  0  3  0  0  0  0  0  0
  194.8820  174.7450  142.8570 C   0  0  0  0  0  2  0  0  0  0  0  0
  1  9  1  0  0  0  0
  1  6  1  0  0  0  0
  2  3  1  6  0  0  0
  2 13  1  0  0  0  0
  2  5  1  0  0  0  0
  4  7  2  0  0  0  0
  5 14  1  0  0  0  0
  5 16  2  0  0  0  0
  7  3  1  0  0  0  0
  8 23  1  0  0  0  0
  8 12  1  0  0  0  0
 10 18  1  0  0  0  0
 11  4  1  0  0  0  0
 12 16  1  0  0  0  0
 13 18  1  6  0  0  0
 13  8  1  0  0  0  0
 14  1  2  0  0  0  0
 15 20  2  0  0  0  0
 15  4  1  0  0  0  0
 16 17  1  0  0  0  0
 17  6  2  0  0  0  0
 19 10  1  0  0  0  0
 19  3  2  0  0  0  0
 20 19  1  0  0  0  0
 21 22  2  0  0  0  0
 22 23  1  0  0  0  0
 24 27  1  6  0  0  0
 24 28  1  0  0  0  0
 28 25  1  0  0  0  0
 29 26  1  6  0  0  0
 29 30  1  0  0  0  0
 30 22  1  6  0  0  0
 30 25  1  0  0  0  0
 31 24  1  0  0  0  0
 31 29  1  0  0  0  0
M  END
>  <MODEL>
5

>  <REMARK>
 VINA RESULT:      -7.7      1.024      1.234
  Name = 
  2 active torsions:
  status: ('A' for Active; 'I' for Inactive)
    1  A    between atoms: C_5  and  C_30
    2  A    between atoms: N_10  and  N_16
                            x       y       z     vdW  Elec       q    Type
                         _______ _______ _______ _____ _____    ______ ____

>  <TORSDO>
F 2

$$$$
=
 OpenBabel11112417063D

 31 35  0  0  1  0  0  0  0  0999 V2000
  191.8280  173.2900  141.5420 C   0  0  0  0  0  0  0  0  0  0  0  0
  191.0490  174.0580  145.1880 C   0  0  2  0  0  3  0  0  0  0  0  0
  192.0910  175.0720  145.6390 C   0  0  0  0  0  0  0  0  0  0  0  0
  194.2520  176.1580  145.3670 C   0  0  0  0  0  0  0  0  0  0  0  0
  190.9230  173.9800  143.6860 C   0  0  0  0  0  0  0  0  0  0  0  0
  190.7550  173.9010  140.8880 C   0  0  0  0  0  3  0  0  0  0  0  0
  193.2910  175.2460  144.9280 C   0  0  0  0  0  3  0  0  0  0  0  0
  189.0560  175.5130  145.1750 N   0  0  0  0  0  0  0  0  0  0  0  0
  192.7900  172.6640  140.8230 F   0  0  0  0  0  0  0  0  0  0  0  0
  190.7360  175.6160  147.5890 O   0  0  0  0  0  0  0  0  0  0  0  0
  195.5090  176.3410  144.5950 C   0  0  0  0  0  1  0  0  0  0  0  0
  188.6860  175.1580  143.8000 C   0  0  0  0  0  2  0  0  0  0  0  0
  189.6660  174.3380  145.8180 C   0  0  2  0  0  3  0  0  0  0  0  0
  191.9100  173.3270  142.9350 C   0  0  0  0  0  3  0  0  0  0  0  0
  194.0330  176.9000  146.5300 C   0  0  0  0  0  3  0  0  0  0  0  0
  189.8410  174.5940  143.0230 C   0  0  0  0  0  0  0  0  0  0  0  0
  189.7580  174.5420  141.6280 C   0  0  0  0  0  3  0  0  0  0  0  0
  189.8380  174.5410  147.3290 C   0  0  0  0  0  2  0  0  0  0  0  0
  191.8960  175.7980  146.8330 C   0  0  0  0  0  0  0  0  0  0  0  0
  192.8570  176.7180  147.2630 C   0  0  0  0  0  3  0  0  0  0  0  0
  188.6380  177.8210  146.6970 O   0  0  0  0  0  0  0  0  0  0  0  0
  187.6870  176.9970  146.6010 C   0  0  0  0  0  0  0  0  0  0  0  0
  187.8520  175.8000  145.8400 N   0  0  0  0  0  2  0  0  0  0  0  0
  184.5990  179.0090  145.7320 C   0  0  1  0  0  3  0  0  0  0  0  0
  185.1920  176.6940  146.5000 C   0  0  0  0  0  2  0  0  0  0  0  0
  187.2670  179.2460  148.3310 O   0  0  0  0  0  1  0  0  0  0  0  0
  184.3090  179.7900  144.6150 O   0  0  0  0  0  1  0  0  0  0  0  0
  184.8610  177.5710  145.2920 C   0  0  0  0  0  2  0  0  0  0  0  0
  186.1550  178.7230  147.6680 C   0  0  2  0  0  3  0  0  0  0  0  0
  186.3800  177.2490  147.2940 C   0  0  2  0  0  3  0  0  0  0  0  0
  185.8230  179.5750  146.4440 C   0  0  0  0  0  2  0  0  0  0  0  0
  1 14  1  0  0  0  0
  2  5  1  6  0  0  0
  2  3  1  0  0  0  0
  2 13  1  0  0  0  0
  3 19  1  0  0  0  0
  4 15  2  0  0  0  0
  6  1  2  0  0  0  0
  6 17  1  0  0  0  0
  7  4  1  0  0  0  0
  7  3  2  0  0  0  0
  8 13  1  0  0  0  0
  8 23  1  0  0  0  0
  9  1  1  0  0  0  0
 11  4  1  0  0  0  0
 12  8  1  0  0  0  0
 13 18  1  1  0  0  0
 14  5  2  0  0  0  0
 15 20  1  0  0  0  0
 16  5  1  0  0  0  0
 16 12  1  0  0  0  0
 17 16  2  0  0  0  0
 18 10  1  0  0  0  0
 19 20  2  0  0  0  0
 19 10  1  0  0  0  0
 22 21  2  0  0  0  0
 23 22  1  0  0  0  0
 24 27  1  6  0  0  0
 24 31  1  0  0  0  0
 25 30  1  0  0  0  0
 28 24  1  0  0  0  0
 28 25  1  0  0  0  0
 29 26  1  6  0  0  0
 30 22  1  6  0  0  0
 30 29  1  0  0  0  0
 31 29  1  0  0  0  0
M  END
>  <MODEL>
6

>  <REMARK>
 VINA RESULT:      -7.6      3.370      7.663
  Name = 
  2 active torsions:
  status: ('A' for Active; 'I' for Inactive)
    1  A    between atoms: C_5  and  C_30
    2  A    between atoms: N_10  and  N_16
                            x       y       z     vdW  Elec       q    Type
                         _______ _______ _______ _____ _____    ______ ____

>  <TORSDO>
F 2

$$$$
=
 OpenBabel11112417063D

 31 35  0  0  1  0  0  0  0  0999 V2000
  185.7630  177.4700  142.3430 C   0  0  0  0  0  0  0  0  0  0  0  0
  188.3940  174.8150  143.0650 C   0  0  2  0  0  3  0  0  0  0  0  0
  188.9360  174.3780  141.7110 C   0  0  0  0  0  0  0  0  0  0  0  0
  188.7130  174.1920  139.2950 C   0  0  0  0  0  0  0  0  0  0  0  0
  187.6870  176.1480  143.0060 C   0  0  0  0  0  0  0  0  0  0  0  0
  186.3930  178.6270  142.8070 C   0  0  0  0  0  3  0  0  0  0  0  0
  188.2200  174.6240  140.5280 C   0  0  0  0  0  3  0  0  0  0  0  0
  190.3720  176.0190  143.9170 N   0  0  0  0  0  0  0  0  0  0  0  0
  184.5280  177.5470  141.7910 F   0  0  0  0  0  0  0  0  0  0  0  0
  190.8520  173.3390  142.8010 O   0  0  0  0  0  0  0  0  0  0  0  0
  187.9500  174.4740  138.0510 C   0  0  0  0  0  1  0  0  0  0  0  0
  189.6160  177.2370  144.2290 C   0  0  0  0  0  2  0  0  0  0  0  0
  189.5020  174.8530  144.1410 C   0  0  2  0  0  3  0  0  0  0  0  0
  186.4060  176.2350  142.4440 C   0  0  0  0  0  3  0  0  0  0  0  0
  189.9220  173.4970  139.2300 C   0  0  0  0  0  3  0  0  0  0  0  0
  188.3190  177.3170  143.4760 C   0  0  0  0  0  0  0  0  0  0  0  0
  187.6640  178.5490  143.3830 C   0  0  0  0  0  3  0  0  0  0  0  0
  190.2890  173.5380  144.0950 C   0  0  0  0  0  2  0  0  0  0  0  0
  190.1370  173.6410  141.6390 C   0  0  0  0  0  0  0  0  0  0  0  0
  190.6320  173.2210  140.4010 C   0  0  0  0  0  3  0  0  0  0  0  0
  193.0730  175.9300  143.1970 O   0  0  0  0  0  0  0  0  0  0  0  0
  192.7880  175.9260  144.4260 C   0  0  0  0  0  0  0  0  0  0  0  0
  191.4240  175.9650  144.8460 N   0  0  0  0  0  2  0  0  0  0  0  0
  196.4840  175.1050  144.3210 C   0  0  1  0  0  3  0  0  0  0  0  0
  194.9720  176.9020  145.2090 C   0  0  0  0  0  2  0  0  0  0  0  0
  193.4590  173.5080  145.8150 O   0  0  0  0  0  1  0  0  0  0  0  0
  197.3030  174.7420  143.2540 O   0  0  0  0  0  1  0  0  0  0  0  0
  195.8840  176.4830  144.0550 C   0  0  0  0  0  2  0  0  0  0  0  0
  194.4670  174.4600  145.6510 C   0  0  2  0  0  3  0  0  0  0  0  0
  193.8710  175.8650  145.4640 C   0  0  2  0  0  3  0  0  0  0  0  0
  195.3760  174.0700  144.4860 C   0  0  0  0  0  2  0  0  0  0  0  0
  1 14  2  0  0  0  0
  1  6  1  0  0  0  0
  2  3  1  6  0  0  0
  2 13  1  0  0  0  0
  4  7  1  0  0  0  0
  5  2  1  0  0  0  0
  5 16  2  0  0  0  0
  6 17  2  0  0  0  0
  7  3  2  0  0  0  0
  8 13  1  0  0  0  0
  8 12  1  0  0  0  0
  8 23  1  0  0  0  0
  9  1  1  0  0  0  0
 10 18  1  0  0  0  0
 11  4  1  0  0  0  0
 13 18  1  6  0  0  0
 14  5  1  0  0  0  0
 15  4  2  0  0  0  0
 15 20  1  0  0  0  0
 16 12  1  0  0  0  0
 17 16  1  0  0  0  0
 19  3  1  0  0  0  0
 19 10  1  0  0  0  0
 20 19  2  0  0  0  0
 21 22  2  0  0  0  0
 22 23  1  0  0  0  0
 24 27  1  6  0  0  0
 24 31  1  0  0  0  0
 25 30  1  0  0  0  0
 28 24  1  0  0  0  0
 28 25  1  0  0  0  0
 29 26  1  6  0  0  0
 30 22  1  6  0  0  0
 30 29  1  0  0  0  0
 31 29  1  0  0  0  0
M  END
>  <MODEL>
7

>  <REMARK>
 VINA RESULT:      -7.4      2.473      3.156
  Name = 
  2 active torsions:
  status: ('A' for Active; 'I' for Inactive)
    1  A    between atoms: C_5  and  C_30
    2  A    between atoms: N_10  and  N_16
                            x       y       z     vdW  Elec       q    Type
                         _______ _______ _______ _____ _____    ______ ____

>  <TORSDO>
F 2

$$$$
=
 OpenBabel11112417063D

 31 35  0  0  1  0  0  0  0  0999 V2000
  185.1180  179.0900  143.4130 C   0  0  0  0  0  0  0  0  0  0  0  0
  188.5660  177.4940  143.6490 C   0  0  2  0  0  3  0  0  0  0  0  0
  188.5570  176.6530  144.9180 C   0  0  0  0  0  0  0  0  0  0  0  0
  187.6260  176.1150  147.1010 C   0  0  0  0  0  0  0  0  0  0  0  0
  187.1770  177.8290  143.1620 C   0  0  0  0  0  0  0  0  0  0  0  0
  184.5620  178.4050  142.3300 C   0  0  0  0  0  3  0  0  0  0  0  0
  187.6070  176.8730  145.9280 C   0  0  0  0  0  3  0  0  0  0  0  0
  188.6040  175.6850  141.9710 N   0  0  0  0  0  0  0  0  0  0  0  0
  184.3910  180.0290  144.0650 F   0  0  0  0  0  0  0  0  0  0  0  0
  190.5540  175.4760  144.1660 O   0  0  0  0  0  0  0  0  0  0  0  0
  186.6040  176.3500  148.1530 C   0  0  0  0  0  1  0  0  0  0  0  0
  187.4480  176.2110  141.2360 C   0  0  0  0  0  2  0  0  0  0  0  0
  189.3710  176.8170  142.5170 C   0  0  2  0  0  3  0  0  0  0  0  0
  186.4210  178.8060  143.8260 C   0  0  0  0  0  3  0  0  0  0  0  0
  188.6050  175.1370  147.2840 C   0  0  0  0  0  3  0  0  0  0  0  0
  186.6130  177.1420  142.0690 C   0  0  0  0  0  0  0  0  0  0  0  0
  185.3120  177.4400  141.6530 C   0  0  0  0  0  3  0  0  0  0  0  0
  190.7300  176.3700  143.0690 C   0  0  0  0  0  2  0  0  0  0  0  0
  189.5650  175.6890  145.1300 C   0  0  0  0  0  0  0  0  0  0  0  0
  189.5740  174.9260  146.3000 C   0  0  0  0  0  3  0  0  0  0  0  0
  189.4310  173.0240  142.2070 O   0  0  0  0  0  0  0  0  0  0  0  0
  189.7960  173.6680  141.1850 C   0  0  0  0  0  0  0  0  0  0  0  0
  189.4050  175.0310  141.0200 N   0  0  0  0  0  2  0  0  0  0  0  0
  192.2200  170.7590  141.2070 C   0  0  1  0  0  3  0  0  0  0  0  0
  190.2500  171.5670  139.8780 C   0  0  0  0  0  2  0  0  0  0  0  0
  192.5190  174.4480  140.7300 O   0  0  0  0  0  1  0  0  0  0  0  0
  192.6160  169.9140  142.2420 O   0  0  0  0  0  1  0  0  0  0  0  0
  190.7120  170.6410  141.0040 C   0  0  0  0  0  2  0  0  0  0  0  0
  192.1630  173.1330  140.4250 C   0  0  2  0  0  3  0  0  0  0  0  0
  190.6570  173.0220  140.1390 C   0  0  2  0  0  3  0  0  0  0  0  0
  192.5970  172.1960  141.5510 C   0  0  0  0  0  2  0  0  0  0  0  0
  1 14  1  0  0  0  0
  1  9  1  0  0  0  0
  2  5  1  6  0  0  0
  2  3  1  0  0  0  0
  3 19  2  0  0  0  0
  3  7  1  0  0  0  0
  4 15  1  0  0  0  0
  4 11  1  0  0  0  0
  5 14  2  0  0  0  0
  6  1  2  0  0  0  0
  7  4  2  0  0  0  0
  8 13  1  0  0  0  0
 10 19  1  0  0  0  0
 12  8  1  0  0  0  0
 12 16  1  0  0  0  0
 13 18  1  1  0  0  0
 13  2  1  0  0  0  0
 16  5  1  0  0  0  0
 17 16  2  0  0  0  0
 17  6  1  0  0  0  0
 18 10  1  0  0  0  0
 19 20  1  0  0  0  0
 20 15  2  0  0  0  0
 22 21  2  0  0  0  0
 23 22  1  0  0  0  0
 23  8  1  0  0  0  0
 24 31  1  0  0  0  0
 24 27  1  1  0  0  0
 25 30  1  0  0  0  0
 25 28  1  0  0  0  0
 28 24  1  0  0  0  0
 29 26  1  1  0  0  0
 29 31  1  0  0  0  0
 30 29  1  0  0  0  0
 30 22  1  1  0  0  0
M  END
>  <MODEL>
8

>  <REMARK>
 VINA RESULT:      -7.3      3.126      5.419
  Name = 
  2 active torsions:
  status: ('A' for Active; 'I' for Inactive)
    1  A    between atoms: C_5  and  C_30
    2  A    between atoms: N_10  and  N_16
                            x       y       z     vdW  Elec       q    Type
                         _______ _______ _______ _____ _____    ______ ____

>  <TORSDO>
F 2

$$$$
=
 OpenBabel11112417063D

 31 35  0  0  1  0  0  0  0  0999 V2000
  185.6110  178.2990  141.0390 C   0  0  0  0  0  0  0  0  0  0  0  0
  188.4790  178.0930  143.5340 C   0  0  2  0  0  3  0  0  0  0  0  0
  187.8710  177.5900  144.8370 C   0  0  0  0  0  0  0  0  0  0  0  0
  185.9460  177.2360  146.2830 C   0  0  0  0  0  0  0  0  0  0  0  0
  187.6040  177.8120  142.3370 C   0  0  0  0  0  0  0  0  0  0  0  0
  185.9170  177.2510  140.1680 C   0  0  0  0  0  3  0  0  0  0  0  0
  186.4890  177.6730  145.0730 C   0  0  0  0  0  3  0  0  0  0  0  0
  189.7930  176.1000  142.9100 N   0  0  0  0  0  0  0  0  0  0  0  0
  184.4950  179.0410  140.8390 F   0  0  0  0  0  0  0  0  0  0  0  0
  190.0930  177.0520  145.6790 O   0  0  0  0  0  0  0  0  0  0  0  0
  184.4800  177.3160  146.5110 C   0  0  0  0  0  1  0  0  0  0  0  0
  189.2160  176.0220  141.5640 C   0  0  0  0  0  2  0  0  0  0  0  0
  189.8930  177.5160  143.3010 C   0  0  2  0  0  3  0  0  0  0  0  0
  186.4520  178.5810  142.1180 C   0  0  0  0  0  3  0  0  0  0  0  0
  186.7810  176.7220  147.2780 C   0  0  0  0  0  3  0  0  0  0  0  0
  187.9110  176.7570  141.4550 C   0  0  0  0  0  0  0  0  0  0  0  0
  187.0710  176.4890  140.3690 C   0  0  0  0  0  3  0  0  0  0  0  0
  190.7240  177.6980  144.5760 C   0  0  0  0  0  2  0  0  0  0  0  0
  188.7090  177.1050  145.8630 C   0  0  0  0  0  0  0  0  0  0  0  0
  188.1600  176.6590  147.0680 C   0  0  0  0  0  3  0  0  0  0  0  0
  190.4970  173.5110  143.6990 O   0  0  0  0  0  0  0  0  0  0  0  0
  191.4010  174.2490  143.2200 C   0  0  0  0  0  0  0  0  0  0  0  0
  191.0940  175.5810  142.8080 N   0  0  0  0  0  2  0  0  0  0  0  0
  192.9800  170.8070  143.2340 C   0  0  1  0  0  3  0  0  0  0  0  0
  193.0030  172.8910  141.8350 C   0  0  0  0  0  2  0  0  0  0  0  0
  193.0840  173.7750  145.4940 O   0  0  0  0  0  1  0  0  0  0  0  0
  192.4050  169.5450  143.3740 O   0  0  0  0  0  1  0  0  0  0  0  0
  192.3950  171.4980  142.0050 C   0  0  0  0  0  2  0  0  0  0  0  0
  193.3230  173.0210  144.3430 C   0  0  2  0  0  3  0  0  0  0  0  0
  192.8100  173.7490  143.0910 C   0  0  2  0  0  3  0  0  0  0  0  0
  192.7020  171.6320  144.4860 C   0  0  0  0  0  2  0  0  0  0  0  0
  1 14  1  0  0  0  0
  2  5  1  6  0  0  0
  2  3  1  0  0  0  0
  3  7  2  0  0  0  0
  3 19  1  0  0  0  0
  4 11  1  0  0  0  0
  4 15  2  0  0  0  0
  6 17  1  0  0  0  0
  6  1  2  0  0  0  0
  7  4  1  0  0  0  0
  8 13  1  0  0  0  0
  9  1  1  0  0  0  0
 10 19  1  0  0  0  0
 12  8  1  0  0  0  0
 13  2  1  0  0  0  0
 13 18  1  1  0  0  0
 14  5  2  0  0  0  0
 16 12  1  0  0  0  0
 16  5  1  0  0  0  0
 17 16  2  0  0  0  0
 18 10  1  0  0  0  0
 19 20  2  0  0  0  0
 20 15  1  0  0  0  0
 22 21  2  0  0  0  0
 23  8  1  0  0  0  0
 23 22  1  0  0  0  0
 24 27  1  1  0  0  0
 24 31  1  0  0  0  0
 25 28  1  0  0  0  0
 25 30  1  0  0  0  0
 28 24  1  0  0  0  0
 29 31  1  0  0  0  0
 29 26  1  1  0  0  0
 30 22  1  1  0  0  0
 30 29  1  0  0  0  0
M  END
>  <MODEL>
9

>  <REMARK>
 VINA RESULT:      -7.2      2.641      4.941
  Name = 
  2 active torsions:
  status: ('A' for Active; 'I' for Inactive)
    1  A    between atoms: C_5  and  C_30
    2  A    between atoms: N_10  and  N_16
                            x       y       z     vdW  Elec       q    Type
                         _______ _______ _______ _____ _____    ______ ____

>  <TORSDO>
F 2

$$$$
