=
 OpenBabel11112416273D

 32 38  0  0  1  0  0  0  0  0999 V2000
  191.3770  173.7920  144.9870 C   0  0  1  0  0  3  0  0  0  0  0  0
  187.6400  177.0900  143.2270 C   0  0  1  0  0  3  0  0  0  0  0  0
  186.6460  178.6850  147.9470 C   0  0  0  0  0  2  0  0  0  0  0  0
  185.2350  178.1700  147.7390 C   0  0  0  0  0  2  0  0  0  0  0  0
  185.8060  177.4800  141.4610 C   0  0  0  0  0  0  0  0  0  0  0  0
  184.4300  177.8730  141.1840 C   0  0  0  0  0  0  0  0  0  0  0  0
  189.2300  175.1810  143.4140 C   0  0  1  0  0  3  0  0  0  0  0  0
  189.4460  177.1770  144.9260 C   0  0  0  0  0  2  0  0  0  0  0  0
  182.3450  178.5770  141.5580 C   0  0  0  0  0  0  0  0  0  0  0  0
  191.0660  175.2690  145.2390 C   0  0  2  0  0  3  0  0  0  0  0  0
  187.5870  177.9100  147.0350 C   0  0  0  0  0  2  0  0  0  0  0  0
  188.0670  177.5030  144.5690 N   0  0  0  0  0  0  0  0  0  0  0  0
  187.1180  177.8570  145.5950 C   0  0  0  0  0  0  0  0  0  0  0  0
  185.3760  177.9470  143.8610 C   0  0  0  0  0  0  0  0  0  0  0  0
  182.4950  178.3590  140.2890 N   0  0  0  0  0  0  0  0  0  0  0  0
  190.2090  172.9960  144.3590 C   0  0  0  0  0  2  0  0  0  0  0  0
  189.6380  175.6670  144.8190 C   0  0  2  0  0  3  0  0  0  0  0  0
  183.8100  177.9140  140.0500 N   0  0  0  0  0  0  0  0  0  0  0  0
  189.4410  173.6790  143.2160 C   0  0  0  0  0  2  0  0  0  0  0  0
  191.9680  174.8590  144.0780 C   0  0  1  0  0  3  0  0  0  0  0  0
  184.8070  178.4840  146.3120 C   0  0  0  0  0  2  0  0  0  0  0  0
  185.8170  178.0390  145.2750 C   0  0  0  0  0  0  0  0  0  0  0  0
  183.9700  178.3400  143.5200 C   0  0  0  0  0  3  0  0  0  0  0  0
  187.7890  175.5750  143.0940 C   0  0  0  0  0  2  0  0  0  0  0  0
  186.5830  177.1190  140.5370 O   0  0  0  0  0  0  0  0  0  0  0  0
  181.1350  179.0380  142.1470 N   0  0  0  0  0  1  0  0  0  0  0  0
  186.2420  177.5320  142.8870 C   0  0  0  0  0  0  0  0  0  0  0  0
  183.5780  178.2830  142.2500 C   0  0  0  0  0  0  0  0  0  0  0  0
  193.3240  175.0840  144.4370 O   0  0  0  0  0  0  0  0  0  0  0  0
  193.7220  176.1900  145.1910 C   0  0  0  0  0  0  0  0  0  0  0  0
  194.4430  176.0330  146.4890 C   0  0  0  0  0  1  0  0  0  0  0  0
  193.4680  177.3470  144.7690 O   0  0  0  0  0  0  0  0  0  0  0  0
  1 16  1  6  0  0  0
  1 10  1  0  0  0  0
  2 24  1  1  0  0  0
  2 12  1  0  0  0  0
  4  3  1  0  0  0  0
  5 27  1  0  0  0  0
  6  5  1  0  0  0  0
  6 28  1  0  0  0  0
  7 24  1  1  0  0  0
  7 17  1  0  0  0  0
  9 26  1  0  0  0  0
  9 28  1  0  0  0  0
 11  3  1  0  0  0  0
 12  8  1  0  0  0  0
 12 13  1  0  0  0  0
 13 11  1  0  0  0  0
 14 22  1  0  0  0  0
 15  9  2  0  0  0  0
 17  8  1  0  0  0  0
 17 10  1  0  0  0  0
 18 15  1  0  0  0  0
 18  6  2  0  0  0  0
 19  7  1  0  0  0  0
 19 16  1  0  0  0  0
 20 29  1  0  0  0  0
 20  1  1  0  0  0  0
 20 10  1  0  0  0  0
 21  4  1  0  0  0  0
 22 13  2  0  0  0  0
 22 21  1  0  0  0  0
 23 14  1  0  0  0  0
 25  5  2  0  0  0  0
 27  2  1  0  0  0  0
 27 14  2  0  0  0  0
 28 23  2  0  0  0  0
 29 30  1  0  0  0  0
 30 31  1  0  0  0  0
 32 30  2  0  0  0  0
M  END
>  <MODEL>
1

>  <REMARK>
 VINA RESULT:      -9.5      0.000      0.000
  Name = 
  2 active torsions:
  status: ('A' for Active; 'I' for Inactive)
    1  A    between atoms: C_20  and  O_29
    2  A    between atoms: O_29  and  C_30
                            x       y       z     vdW  Elec       q    Type
                         _______ _______ _______ _____ _____    ______ ____

>  <TORSDO>
F 2

$$$$
=
 OpenBabel11112416273D

 32 38  0  0  1  0  0  0  0  0999 V2000
  191.3800  172.0750  139.9840 C   0  0  1  0  0  3  0  0  0  0  0  0
  188.7380  176.0390  142.2730 C   0  0  1  0  0  3  0  0  0  0  0  0
  190.9680  175.1140  146.7420 C   0  0  0  0  0  2  0  0  0  0  0  0
  189.5790  174.8620  147.2940 C   0  0  0  0  0  2  0  0  0  0  0  0
  186.5360  177.3760  142.3300 C   0  0  0  0  0  0  0  0  0  0  0  0
  185.4620  177.9400  143.1370 C   0  0  0  0  0  0  0  0  0  0  0  0
  189.3910  174.1970  140.7280 C   0  0  1  0  0  3  0  0  0  0  0  0
  191.0520  175.1490  142.3560 C   0  0  0  0  0  2  0  0  0  0  0  0
  184.2830  178.4920  144.9500 C   0  0  0  0  0  0  0  0  0  0  0  0
  191.7950  173.2430  140.8800 C   0  0  2  0  0  3  0  0  0  0  0  0
  190.9540  174.8430  145.2440 C   0  0  0  0  0  2  0  0  0  0  0  0
  189.9100  175.6960  143.0860 N   0  0  0  0  0  0  0  0  0  0  0  0
  189.8270  175.5470  144.5180 C   0  0  0  0  0  0  0  0  0  0  0  0
  187.6070  176.6030  144.4320 C   0  0  0  0  0  0  0  0  0  0  0  0
  183.6660  178.9300  143.8970 N   0  0  0  0  0  0  0  0  0  0  0  0
  189.8630  171.7760  139.9920 C   0  0  0  0  0  2  0  0  0  0  0  0
  190.6080  173.8870  141.6220 C   0  0  2  0  0  3  0  0  0  0  0  0
  184.4080  178.5830  142.7510 N   0  0  0  0  0  0  0  0  0  0  0  0
  188.9180  172.9860  139.9210 C   0  0  0  0  0  2  0  0  0  0  0  0
  191.7520  173.4140  139.3640 C   0  0  1  0  0  3  0  0  0  0  0  0
  188.6210  175.8750  146.6820 C   0  0  0  0  0  2  0  0  0  0  0  0
  188.7130  175.9480  145.1720 C   0  0  0  0  0  0  0  0  0  0  0  0
  186.4750  177.2020  145.2140 C   0  0  0  0  0  3  0  0  0  0  0  0
  188.2450  174.7880  141.5460 C   0  0  0  0  0  2  0  0  0  0  0  0
  186.5350  177.4780  141.0740 O   0  0  0  0  0  0  0  0  0  0  0  0
  183.8080  178.6710  146.2790 N   0  0  0  0  0  1  0  0  0  0  0  0
  187.6300  176.6780  143.0670 C   0  0  0  0  0  0  0  0  0  0  0  0
  185.4950  177.8140  144.5560 C   0  0  0  0  0  0  0  0  0  0  0  0
  193.0730  173.3430  138.8480 O   0  0  0  0  0  0  0  0  0  0  0  0
  193.7980  174.4840  138.4940 C   0  0  0  0  0  0  0  0  0  0  0  0
  195.0440  174.8730  139.2180 C   0  0  0  0  0  1  0  0  0  0  0  0
  193.3940  175.2010  137.5440 O   0  0  0  0  0  0  0  0  0  0  0  0
  1 16  1  1  0  0  0
  1 10  1  0  0  0  0
  2 24  1  1  0  0  0
  2 27  1  0  0  0  0
  2 12  1  0  0  0  0
  3  4  1  0  0  0  0
  5 27  1  0  0  0  0
  5  6  1  0  0  0  0
  6 28  1  0  0  0  0
  7 19  1  1  0  0  0
  7 24  1  0  0  0  0
  7 17  1  0  0  0  0
  8 12  1  0  0  0  0
  9 26  1  0  0  0  0
 10 17  1  0  0  0  0
 11  3  1  0  0  0  0
 12 13  1  0  0  0  0
 13 22  2  0  0  0  0
 13 11  1  0  0  0  0
 14 22  1  0  0  0  0
 14 23  1  0  0  0  0
 15  9  2  0  0  0  0
 17  8  1  0  0  0  0
 18  6  2  0  0  0  0
 18 15  1  0  0  0  0
 19 16  1  0  0  0  0
 20  1  1  0  0  0  0
 20 10  1  0  0  0  0
 21  4  1  0  0  0  0
 22 21  1  0  0  0  0
 25  5  2  0  0  0  0
 27 14  2  0  0  0  0
 28  9  1  0  0  0  0
 28 23  2  0  0  0  0
 29 20  1  0  0  0  0
 30 29  1  0  0  0  0
 30 31  1  0  0  0  0
 32 30  2  0  0  0  0
M  END
>  <MODEL>
2

>  <REMARK>
 VINA RESULT:      -8.5      3.130      4.280
  Name = 
  2 active torsions:
  status: ('A' for Active; 'I' for Inactive)
    1  A    between atoms: C_20  and  O_29
    2  A    between atoms: O_29  and  C_30
                            x       y       z     vdW  Elec       q    Type
                         _______ _______ _______ _____ _____    ______ ____

>  <TORSDO>
F 2

$$$$
=
 OpenBabel11112416273D

 32 38  0  0  1  0  0  0  0  0999 V2000
  195.1460  174.9210  143.8150 C   0  0  1  0  0  3  0  0  0  0  0  0
  190.1140  175.6300  145.2680 C   0  0  1  0  0  3  0  0  0  0  0  0
  188.4600  174.2750  140.6600 C   0  0  0  0  0  2  0  0  0  0  0  0
  187.8440  175.6560  140.5610 C   0  0  0  0  0  2  0  0  0  0  0  0
  188.4930  177.0040  146.7240 C   0  0  0  0  0  0  0  0  0  0  0  0
  187.2450  177.7530  146.8020 C   0  0  0  0  0  0  0  0  0  0  0  0
  192.5970  175.7900  145.1420 C   0  0  1  0  0  3  0  0  0  0  0  0
  191.3700  173.9630  143.9270 C   0  0  0  0  0  2  0  0  0  0  0  0
  185.3070  178.6520  146.1570 C   0  0  0  0  0  0  0  0  0  0  0  0
  193.8790  174.0750  143.6830 C   0  0  2  0  0  3  0  0  0  0  0  0
  189.6350  174.3330  141.6260 C   0  0  0  0  0  2  0  0  0  0  0  0
  190.1650  174.7760  144.0750 N   0  0  0  0  0  0  0  0  0  0  0  0
  189.2920  174.9890  142.9480 C   0  0  0  0  0  0  0  0  0  0  0  0
  187.9520  176.4970  144.3540 C   0  0  0  0  0  0  0  0  0  0  0  0
  185.5180  178.9550  147.3990 N   0  0  0  0  0  0  0  0  0  0  0  0
  194.8850  176.4100  144.1370 C   0  0  0  0  0  2  0  0  0  0  0  0
  192.5850  174.8860  143.8930 C   0  0  2  0  0  3  0  0  0  0  0  0
  186.7420  178.3890  147.8090 N   0  0  0  0  0  2  0  0  0  0  0  0
  193.8160  176.7120  145.2010 C   0  0  0  0  0  2  0  0  0  0  0  0
  194.7540  173.9600  144.9280 C   0  0  1  0  0  3  0  0  0  0  0  0
  187.2660  176.0300  141.9190 C   0  0  0  0  0  2  0  0  0  0  0  0
  188.2460  175.8390  143.0580 C   0  0  0  0  0  0  0  0  0  0  0  0
  186.6800  177.2810  144.4910 C   0  0  0  0  0  2  0  0  0  0  0  0
  191.3020  176.5920  145.2510 C   0  0  0  0  0  2  0  0  0  0  0  0
  189.2560  176.8960  147.7210 O   0  0  0  0  0  0  0  0  0  0  0  0
  184.1580  179.0640  145.4240 N   0  0  0  0  0  1  0  0  0  0  0  0
  188.8130  176.3740  145.4090 C   0  0  0  0  0  0  0  0  0  0  0  0
  186.4000  177.8510  145.6590 C   0  0  0  0  0  0  0  0  0  0  0  0
  195.5470  172.7850  144.8360 O   0  0  0  0  0  0  0  0  0  0  0  0
  196.4740  172.4320  145.8190 C   0  0  0  0  0  0  0  0  0  0  0  0
  196.7870  171.0030  146.1210 C   0  0  0  0  0  1  0  0  0  0  0  0
  197.0590  173.3360  146.4680 O   0  0  0  0  0  0  0  0  0  0  0  0
  1 16  1  1  0  0  0
  1 20  1  0  0  0  0
  2 24  1  6  0  0  0
  2 27  1  0  0  0  0
  3 11  1  0  0  0  0
  4  3  1  0  0  0  0
  4 21  1  0  0  0  0
  5  6  1  0  0  0  0
  5 25  2  0  0  0  0
  6 18  1  0  0  0  0
  7 19  1  6  0  0  0
  7 24  1  0  0  0  0
  8 12  1  0  0  0  0
  9 15  2  0  0  0  0
 10  1  1  0  0  0  0
 10 17  1  0  0  0  0
 10 20  1  0  0  0  0
 11 13  1  0  0  0  0
 12  2  1  0  0  0  0
 13 22  2  0  0  0  0
 13 12  1  0  0  0  0
 14 23  1  0  0  0  0
 14 27  2  0  0  0  0
 15 18  1  0  0  0  0
 16 19  1  0  0  0  0
 17  8  1  0  0  0  0
 17  7  1  0  0  0  0
 21 22  1  0  0  0  0
 22 14  1  0  0  0  0
 23 28  1  0  0  0  0
 26  9  1  0  0  0  0
 27  5  1  0  0  0  0
 28  9  1  0  0  0  0
 28  6  2  0  0  0  0
 29 20  1  0  0  0  0
 29 30  1  0  0  0  0
 30 31  1  0  0  0  0
 30 32  2  0  0  0  0
M  END
>  <MODEL>
3

>  <REMARK>
 VINA RESULT:      -8.5      2.969      5.303
  Name = 
  2 active torsions:
  status: ('A' for Active; 'I' for Inactive)
    1  A    between atoms: C_20  and  O_29
    2  A    between atoms: O_29  and  C_30
                            x       y       z     vdW  Elec       q    Type
                         _______ _______ _______ _____ _____    ______ ____

>  <TORSDO>
F 2

$$$$
=
 OpenBabel11112416273D

 32 38  0  0  1  0  0  0  0  0999 V2000
  191.1080  173.3130  143.8240 C   0  0  1  0  0  3  0  0  0  0  0  0
  187.4100  176.9450  142.7890 C   0  0  1  0  0  3  0  0  0  0  0  0
  187.0720  178.1860  147.7030 C   0  0  0  0  0  2  0  0  0  0  0  0
  185.6170  177.7670  147.6280 C   0  0  0  0  0  2  0  0  0  0  0  0
  185.4110  177.5810  141.2920 C   0  0  0  0  0  0  0  0  0  0  0  0
  184.0400  178.0690  141.2150 C   0  0  0  0  0  0  0  0  0  0  0  0
  188.8850  174.9430  142.6340 C   0  0  1  0  0  3  0  0  0  0  0  0
  189.4020  176.7900  144.2590 C   0  0  0  0  0  2  0  0  0  0  0  0
  182.0620  178.8500  141.8910 C   0  0  0  0  0  0  0  0  0  0  0  0
  190.9230  174.7780  144.2250 C   0  0  2  0  0  3  0  0  0  0  0  0
  187.8500  177.4420  146.6270 C   0  0  0  0  0  2  0  0  0  0  0  0
  188.0150  177.2190  144.0980 N   0  0  0  0  0  0  0  0  0  0  0  0
  187.2150  177.5350  145.2550 C   0  0  0  0  0  0  0  0  0  0  0  0
  185.2930  177.8650  143.7560 C   0  0  0  0  0  0  0  0  0  0  0  0
  182.0490  178.7320  140.6010 N   0  0  0  0  0  0  0  0  0  0  0  0
  189.8270  172.6370  143.2820 C   0  0  0  0  0  2  0  0  0  0  0  0
  189.4840  175.2860  144.0130 C   0  0  2  0  0  3  0  0  0  0  0  0
  183.2970  178.2390  140.1710 N   0  0  0  0  0  0  0  0  0  0  0  0
  188.9760  173.4540  142.2960 C   0  0  0  0  0  2  0  0  0  0  0  0
  191.6560  174.4200  142.9350 C   0  0  1  0  0  3  0  0  0  0  0  0
  185.0470  178.2230  146.2920 C   0  0  0  0  0  2  0  0  0  0  0  0
  185.9000  177.8140  145.1090 C   0  0  0  0  0  0  0  0  0  0  0  0
  183.8840  178.3610  143.6180 C   0  0  0  0  0  3  0  0  0  0  0  0
  187.4450  175.4400  142.5220 C   0  0  0  0  0  2  0  0  0  0  0  0
  186.0510  177.2570  140.2560 O   0  0  0  0  0  0  0  0  0  0  0  0
  180.9590  179.3240  142.6550 N   0  0  0  0  0  1  0  0  0  0  0  0
  186.0120  177.4880  142.6550 C   0  0  0  0  0  0  0  0  0  0  0  0
  183.3450  178.4330  142.4050 C   0  0  0  0  0  0  0  0  0  0  0  0
  193.0560  174.5400  143.1450 O   0  0  0  0  0  0  0  0  0  0  0  0
  193.9390  173.4850  142.9080 C   0  0  0  0  0  0  0  0  0  0  0  0
  194.9480  173.0670  143.9270 C   0  0  0  0  0  1  0  0  0  0  0  0
  193.8870  172.8700  141.8130 O   0  0  0  0  0  0  0  0  0  0  0  0
  1 16  1  6  0  0  0
  1 10  1  0  0  0  0
  2 24  1  1  0  0  0
  2 12  1  0  0  0  0
  4  3  1  0  0  0  0
  5 27  1  0  0  0  0
  6  5  1  0  0  0  0
  6 28  1  0  0  0  0
  7 19  1  1  0  0  0
  7 17  1  0  0  0  0
  9 28  1  0  0  0  0
  9 26  1  0  0  0  0
 11  3  1  0  0  0  0
 12  8  1  0  0  0  0
 12 13  1  0  0  0  0
 13 11  1  0  0  0  0
 14 22  1  0  0  0  0
 15  9  2  0  0  0  0
 17 10  1  0  0  0  0
 17  8  1  0  0  0  0
 18 15  1  0  0  0  0
 18  6  2  0  0  0  0
 19 16  1  0  0  0  0
 20 29  1  0  0  0  0
 20  1  1  0  0  0  0
 20 10  1  0  0  0  0
 21  4  1  0  0  0  0
 22 13  2  0  0  0  0
 22 21  1  0  0  0  0
 23 14  1  0  0  0  0
 24  7  1  0  0  0  0
 25  5  2  0  0  0  0
 27  2  1  0  0  0  0
 27 14  2  0  0  0  0
 28 23  2  0  0  0  0
 30 29  1  0  0  0  0
 30 31  1  0  0  0  0
 32 30  2  0  0  0  0
M  END
>  <MODEL>
4

>  <REMARK>
 VINA RESULT:      -8.4      1.281      1.518
  Name = 
  2 active torsions:
  status: ('A' for Active; 'I' for Inactive)
    1  A    between atoms: C_20  and  O_29
    2  A    between atoms: O_29  and  C_30
                            x       y       z     vdW  Elec       q    Type
                         _______ _______ _______ _____ _____    ______ ____

>  <TORSDO>
F 2

$$$$
=
 OpenBabel11112416273D

 32 38  0  0  1  0  0  0  0  0999 V2000
  186.8070  178.3420  142.9390 C   0  0  1  0  0  3  0  0  0  0  0  0
  189.6590  174.0790  144.2160 C   0  0  1  0  0  3  0  0  0  0  0  0
  192.5050  176.7910  147.4340 C   0  0  0  0  0  2  0  0  0  0  0  0
  193.6960  176.4080  146.5790 C   0  0  0  0  0  2  0  0  0  0  0  0
  190.6550  171.8550  143.3790 C   0  0  0  0  0  0  0  0  0  0  0  0
  191.8220  170.9860  143.2930 C   0  0  0  0  0  0  0  0  0  0  0  0
  188.2040  175.6850  142.9870 C   0  0  1  0  0  3  0  0  0  0  0  0
  188.6810  176.0070  145.4330 C   0  0  0  0  0  2  0  0  0  0  0  0
  193.9080  170.2580  143.6030 C   0  0  0  0  0  0  0  0  0  0  0  0
  187.2470  177.7240  144.2670 C   0  0  2  0  0  3  0  0  0  0  0  0
  191.2500  176.7410  146.5730 C   0  0  0  0  0  2  0  0  0  0  0  0
  189.8160  175.1040  145.2550 N   0  0  0  0  0  0  0  0  0  0  0  0
  191.1070  175.4490  145.7960 C   0  0  0  0  0  0  0  0  0  0  0  0
  192.0190  173.4280  144.7320 C   0  0  0  0  0  0  0  0  0  0  0  0
  193.2600  169.3880  142.8960 N   0  0  0  0  0  0  0  0  0  0  0  0
  187.5990  177.8370  141.7100 C   0  0  0  0  0  2  0  0  0  0  0  0
  188.4050  176.7190  144.1120 C   0  0  2  0  0  3  0  0  0  0  0  0
  191.9420  169.8450  142.6980 N   0  0  0  0  0  0  0  0  0  0  0  0
  187.8750  176.3260  141.6370 C   0  0  0  0  0  2  0  0  0  0  0  0
  185.9440  177.2820  143.6070 C   0  0  1  0  0  3  0  0  0  0  0  0
  193.5340  174.9600  146.1380 C   0  0  0  0  0  2  0  0  0  0  0  0
  192.1800  174.6710  145.5250 C   0  0  0  0  0  0  0  0  0  0  0  0
  193.1890  172.4960  144.6120 C   0  0  0  0  0  3  0  0  0  0  0  0
  189.4130  174.7590  142.8690 C   0  0  0  0  0  2  0  0  0  0  0  0
  189.5620  171.5410  142.8360 O   0  0  0  0  0  0  0  0  0  0  0  0
  195.2700  170.1100  143.9900 N   0  0  0  0  0  1  0  0  0  0  0  0
  190.8230  173.1280  144.1410 C   0  0  0  0  0  0  0  0  0  0  0  0
  193.0420  171.3680  143.9240 C   0  0  0  0  0  0  0  0  0  0  0  0
  184.8510  177.9100  144.2630 O   0  0  0  0  0  0  0  0  0  0  0  0
  184.7520  177.9700  145.6550 C   0  0  0  0  0  0  0  0  0  0  0  0
  185.0720  176.7910  146.5130 C   0  0  0  0  0  1  0  0  0  0  0  0
  184.3830  179.0410  146.2010 O   0  0  0  0  0  0  0  0  0  0  0  0
  1 16  1  6  0  0  0
  1 20  1  0  0  0  0
  1 10  1  0  0  0  0
  2 24  1  6  0  0  0
  2 12  1  0  0  0  0
  4  3  1  0  0  0  0
  5 27  1  0  0  0  0
  6  5  1  0  0  0  0
  6 28  1  0  0  0  0
  7 19  1  6  0  0  0
  7 17  1  0  0  0  0
  9 28  1  0  0  0  0
  9 26  1  0  0  0  0
 11  3  1  0  0  0  0
 12  8  1  0  0  0  0
 12 13  1  0  0  0  0
 13 11  1  0  0  0  0
 14 22  1  0  0  0  0
 15  9  2  0  0  0  0
 17 10  1  0  0  0  0
 17  8  1  0  0  0  0
 18 15  1  0  0  0  0
 18  6  2  0  0  0  0
 19 16  1  0  0  0  0
 20 29  1  0  0  0  0
 20 10  1  0  0  0  0
 21  4  1  0  0  0  0
 22 13  2  0  0  0  0
 22 21  1  0  0  0  0
 23 14  1  0  0  0  0
 24  7  1  0  0  0  0
 25  5  2  0  0  0  0
 27  2  1  0  0  0  0
 27 14  2  0  0  0  0
 28 23  2  0  0  0  0
 29 30  1  0  0  0  0
 30 32  2  0  0  0  0
 30 31  1  0  0  0  0
M  END
>  <MODEL>
5

>  <REMARK>
 VINA RESULT:      -8.4      3.769      8.354
  Name = 
  2 active torsions:
  status: ('A' for Active; 'I' for Inactive)
    1  A    between atoms: C_20  and  O_29
    2  A    between atoms: O_29  and  C_30
                            x       y       z     vdW  Elec       q    Type
                         _______ _______ _______ _____ _____    ______ ____

>  <TORSDO>
F 2

$$$$
=
 OpenBabel11112416273D

 32 38  0  0  1  0  0  0  0  0999 V2000
  185.8210  177.2210  145.3960 C   0  0  1  0  0  3  0  0  0  0  0  0
  190.8320  175.8690  144.3990 C   0  0  1  0  0  3  0  0  0  0  0  0
  189.3390  172.0320  141.4240 C   0  0  0  0  0  2  0  0  0  0  0  0
  190.0660  171.1100  142.3820 C   0  0  0  0  0  2  0  0  0  0  0  0
  193.2300  175.7460  145.3340 C   0  0  0  0  0  0  0  0  0  0  0  0
  194.4350  174.9480  145.5270 C   0  0  0  0  0  0  0  0  0  0  0  0
  188.7910  176.7950  145.4870 C   0  0  1  0  0  3  0  0  0  0  0  0
  188.7330  176.0440  143.0890 C   0  0  0  0  0  2  0  0  0  0  0  0
  195.8270  173.2090  145.4040 C   0  0  0  0  0  0  0  0  0  0  0  0
  186.5970  176.9080  144.1150 C   0  0  2  0  0  3  0  0  0  0  0  0
  188.9370  173.2950  142.1730 C   0  0  0  0  0  2  0  0  0  0  0  0
  189.9550  175.2950  143.3720 N   0  0  0  0  0  0  0  0  0  0  0  0
  190.0800  173.9250  142.9420 C   0  0  0  0  0  0  0  0  0  0  0  0
  192.2510  173.8300  144.0950 C   0  0  0  0  0  0  0  0  0  0  0  0
  196.4060  174.1660  146.0590 N   0  0  0  0  0  0  0  0  0  0  0  0
  186.5170  176.7450  146.6920 C   0  0  0  0  0  2  0  0  0  0  0  0
  187.9240  176.1700  144.3760 C   0  0  2  0  0  3  0  0  0  0  0  0
  195.5290  175.2660  146.1380 N   0  0  0  0  0  2  0  0  0  0  0  0
  188.0300  176.9970  146.7980 C   0  0  0  0  0  2  0  0  0  0  0  0
  186.5550  178.3330  144.6620 C   0  0  1  0  0  3  0  0  0  0  0  0
  191.3610  171.7820  142.8170 C   0  0  0  0  0  2  0  0  0  0  0  0
  191.1610  173.2000  143.3110 C   0  0  0  0  0  0  0  0  0  0  0  0
  193.5140  173.0540  144.3230 C   0  0  0  0  0  2  0  0  0  0  0  0
  190.0620  175.9800  145.7150 C   0  0  0  0  0  2  0  0  0  0  0  0
  193.1430  176.9210  145.7820 O   0  0  0  0  0  0  0  0  0  0  0  0
  196.4330  171.9490  145.1390 N   0  0  0  0  0  1  0  0  0  0  0  0
  192.1140  175.1010  144.5820 C   0  0  0  0  0  0  0  0  0  0  0  0
  194.5040  173.6250  145.0030 C   0  0  0  0  0  0  0  0  0  0  0  0
  185.6230  179.0960  143.9090 O   0  0  0  0  0  0  0  0  0  0  0  0
  185.1730  178.6920  142.6500 C   0  0  0  0  0  0  0  0  0  0  0  0
  183.7540  178.2910  142.4180 C   0  0  0  0  0  1  0  0  0  0  0  0
  185.9810  178.6660  141.6860 O   0  0  0  0  0  0  0  0  0  0  0  0
  1 16  1  1  0  0  0
  2 27  1  0  0  0  0
  2 24  1  1  0  0  0
  3 11  1  0  0  0  0
  3  4  1  0  0  0  0
  4 21  1  0  0  0  0
  5  6  1  0  0  0  0
  5 25  2  0  0  0  0
  6 18  1  0  0  0  0
  7 24  1  1  0  0  0
  7 19  1  0  0  0  0
  8 12  1  0  0  0  0
  8 17  1  0  0  0  0
  9 15  2  0  0  0  0
 10 17  1  0  0  0  0
 10 20  1  0  0  0  0
 10  1  1  0  0  0  0
 11 13  1  0  0  0  0
 12  2  1  0  0  0  0
 13 22  2  0  0  0  0
 13 12  1  0  0  0  0
 14 23  1  0  0  0  0
 14 27  2  0  0  0  0
 15 18  1  0  0  0  0
 16 19  1  0  0  0  0
 17  7  1  0  0  0  0
 20  1  1  0  0  0  0
 21 22  1  0  0  0  0
 22 14  1  0  0  0  0
 23 28  1  0  0  0  0
 26  9  1  0  0  0  0
 27  5  1  0  0  0  0
 28  9  1  0  0  0  0
 28  6  2  0  0  0  0
 29 20  1  0  0  0  0
 30 29  1  0  0  0  0
 31 30  1  0  0  0  0
 32 30  2  0  0  0  0
M  END
>  <MODEL>
6

>  <REMARK>
 VINA RESULT:      -8.2      3.283      9.021
  Name = 
  2 active torsions:
  status: ('A' for Active; 'I' for Inactive)
    1  A    between atoms: C_20  and  O_29
    2  A    between atoms: O_29  and  C_30
                            x       y       z     vdW  Elec       q    Type
                         _______ _______ _______ _____ _____    ______ ____

>  <TORSDO>
F 2

$$$$
=
 OpenBabel11112416273D

 32 38  0  0  1  0  0  0  0  0999 V2000
  186.0340  176.8280  146.4180 C   0  0  1  0  0  3  0  0  0  0  0  0
  190.6750  176.5870  143.9020 C   0  0  1  0  0  3  0  0  0  0  0  0
  188.6470  173.8130  140.1600 C   0  0  0  0  0  2  0  0  0  0  0  0
  189.6410  172.7300  140.5310 C   0  0  0  0  0  2  0  0  0  0  0  0
  193.2360  176.4830  144.1650 C   0  0  0  0  0  0  0  0  0  0  0  0
  194.4860  175.8390  143.7800 C   0  0  0  0  0  0  0  0  0  0  0  0
  188.9430  176.8050  145.6790 C   0  0  1  0  0  3  0  0  0  0  0  0
  188.3030  176.9070  143.2510 C   0  0  0  0  0  2  0  0  0  0  0  0
  195.8800  174.4500  142.7290 C   0  0  0  0  0  0  0  0  0  0  0  0
  186.4660  177.0740  144.9710 C   0  0  2  0  0  3  0  0  0  0  0  0
  188.3930  174.6830  141.3840 C   0  0  0  0  0  2  0  0  0  0  0  0
  189.5910  176.2800  142.9620 N   0  0  0  0  0  0  0  0  0  0  0  0
  189.6650  175.1650  142.0500 C   0  0  0  0  0  0  0  0  0  0  0  0
  192.0620  174.9840  142.5720 C   0  0  0  0  0  0  0  0  0  0  0  0
  196.5630  175.1990  143.5370 N   0  0  0  0  0  0  0  0  0  0  0  0
  187.0630  176.0420  147.2630 C   0  0  0  0  0  2  0  0  0  0  0  0
  187.8490  176.4790  144.6430 C   0  0  2  0  0  3  0  0  0  0  0  0
  195.6850  176.0780  144.2020 N   0  0  0  0  0  2  0  0  0  0  0  0
  188.5380  176.4470  147.1100 C   0  0  0  0  0  2  0  0  0  0  0  0
  186.5000  178.2110  145.9890 C   0  0  1  0  0  3  0  0  0  0  0  0
  190.9700  173.3860  140.8760 C   0  0  0  0  0  2  0  0  0  0  0  0
  190.8370  174.5130  141.8800 C   0  0  0  0  0  0  0  0  0  0  0  0
  193.3770  174.3560  142.2140 C   0  0  0  0  0  2  0  0  0  0  0  0
  190.2670  176.1420  145.3060 C   0  0  0  0  0  2  0  0  0  0  0  0
  193.2130  177.4150  145.0130 O   0  0  0  0  0  0  0  0  0  0  0  0
  196.4570  173.4490  141.8980 N   0  0  0  0  0  1  0  0  0  0  0  0
  191.9960  175.9840  143.5020 C   0  0  0  0  0  0  0  0  0  0  0  0
  194.4800  174.7930  142.8130 C   0  0  0  0  0  0  0  0  0  0  0  0
  185.3690  179.0490  145.7930 O   0  0  0  0  0  0  0  0  0  0  0  0
  184.9760  179.4860  144.5260 C   0  0  0  0  0  0  0  0  0  0  0  0
  183.6910  179.0400  143.9090 C   0  0  0  0  0  1  0  0  0  0  0  0
  185.7200  180.2730  143.8870 O   0  0  0  0  0  0  0  0  0  0  0  0
  1 16  1  1  0  0  0
  2 24  1  1  0  0  0
  3  4  1  0  0  0  0
  3 11  1  0  0  0  0
  4 21  1  0  0  0  0
  5 25  2  0  0  0  0
  6  5  1  0  0  0  0
  6 18  1  0  0  0  0
  7 24  1  6  0  0  0
  7 19  1  0  0  0  0
  8 17  1  0  0  0  0
  9 28  1  0  0  0  0
  9 15  2  0  0  0  0
 10 20  1  0  0  0  0
 10  1  1  0  0  0  0
 11 13  1  0  0  0  0
 12  8  1  0  0  0  0
 12  2  1  0  0  0  0
 13 12  1  0  0  0  0
 14 27  2  0  0  0  0
 15 18  1  0  0  0  0
 17 10  1  0  0  0  0
 17  7  1  0  0  0  0
 19 16  1  0  0  0  0
 20  1  1  0  0  0  0
 21 22  1  0  0  0  0
 22 13  2  0  0  0  0
 22 14  1  0  0  0  0
 23 14  1  0  0  0  0
 23 28  1  0  0  0  0
 26  9  1  0  0  0  0
 27  2  1  0  0  0  0
 27  5  1  0  0  0  0
 28  6  2  0  0  0  0
 29 20  1  0  0  0  0
 30 29  1  0  0  0  0
 31 30  1  0  0  0  0
 32 30  2  0  0  0  0
M  END
>  <MODEL>
7

>  <REMARK>
 VINA RESULT:      -8.2      3.486      8.643
  Name = 
  2 active torsions:
  status: ('A' for Active; 'I' for Inactive)
    1  A    between atoms: C_20  and  O_29
    2  A    between atoms: O_29  and  C_30
                            x       y       z     vdW  Elec       q    Type
                         _______ _______ _______ _____ _____    ______ ____

>  <TORSDO>
F 2

$$$$
=
 OpenBabel11112416273D

 32 38  0  0  1  0  0  0  0  0999 V2000
  191.7530  172.0290  140.3660 C   0  0  1  0  0  3  0  0  0  0  0  0
  189.1200  175.8650  142.8730 C   0  0  1  0  0  3  0  0  0  0  0  0
  192.3080  175.6480  146.8220 C   0  0  0  0  0  2  0  0  0  0  0  0
  191.1050  175.2930  147.6730 C   0  0  0  0  0  2  0  0  0  0  0  0
  186.8160  176.9380  143.3000 C   0  0  0  0  0  0  0  0  0  0  0  0
  185.8610  177.4500  144.2740 C   0  0  0  0  0  0  0  0  0  0  0  0
  189.6890  173.9680  141.3610 C   0  0  1  0  0  3  0  0  0  0  0  0
  191.5010  175.2620  142.5270 C   0  0  0  0  0  2  0  0  0  0  0  0
  185.0080  178.0370  146.2510 C   0  0  0  0  0  0  0  0  0  0  0  0
  192.1800  173.3190  141.0680 C   0  0  2  0  0  3  0  0  0  0  0  0
  192.0290  175.2310  145.3840 C   0  0  0  0  0  2  0  0  0  0  0  0
  190.4670  175.7420  143.4410 N   0  0  0  0  0  0  0  0  0  0  0  0
  190.6950  175.7260  144.8650 C   0  0  0  0  0  0  0  0  0  0  0  0
  188.3820  176.5040  145.1770 C   0  0  0  0  0  0  0  0  0  0  0  0
  184.1390  178.2940  145.3250 N   0  0  0  0  0  0  0  0  0  0  0  0
  190.3230  171.5580  140.7180 C   0  0  0  0  0  2  0  0  0  0  0  0
  191.0910  173.8910  141.9970 C   0  0  2  0  0  3  0  0  0  0  0  0
  184.6750  177.9250  144.0750 N   0  0  0  0  0  0  0  0  0  0  0  0
  189.2290  172.6380  140.7630 C   0  0  0  0  0  2  0  0  0  0  0  0
  191.8090  173.3340  139.5870 C   0  0  1  0  0  3  0  0  0  0  0  0
  189.9170  176.1230  147.2070 C   0  0  0  0  0  2  0  0  0  0  0  0
  189.6930  176.0570  145.7110 C   0  0  0  0  0  0  0  0  0  0  0  0
  187.3620  177.0420  146.1360 C   0  0  0  0  0  3  0  0  0  0  0  0
  188.6620  174.5000  142.3590 C   0  0  0  0  0  2  0  0  0  0  0  0
  186.5490  176.9150  142.0690 O   0  0  0  0  0  0  0  0  0  0  0  0
  184.7910  178.2890  147.6350 N   0  0  0  0  0  1  0  0  0  0  0  0
  188.1200  176.4470  143.8360 C   0  0  0  0  0  0  0  0  0  0  0  0
  186.1960  177.4680  145.6590 C   0  0  0  0  0  0  0  0  0  0  0  0
  192.9970  173.3670  138.8090 O   0  0  0  0  0  0  0  0  0  0  0  0
  193.6280  174.5630  138.4600 C   0  0  0  0  0  0  0  0  0  0  0  0
  194.8780  175.0150  139.1410 C   0  0  0  0  0  1  0  0  0  0  0  0
  193.1340  175.2790  137.5520 O   0  0  0  0  0  0  0  0  0  0  0  0
  1 16  1  1  0  0  0
  1 10  1  0  0  0  0
  2 24  1  1  0  0  0
  2 12  1  0  0  0  0
  2 27  1  0  0  0  0
  3  4  1  0  0  0  0
  5 27  1  0  0  0  0
  5  6  1  0  0  0  0
  6 28  1  0  0  0  0
  7 19  1  1  0  0  0
  7 17  1  0  0  0  0
  7 24  1  0  0  0  0
  8 12  1  0  0  0  0
  9 26  1  0  0  0  0
 10 17  1  0  0  0  0
 11  3  1  0  0  0  0
 12 13  1  0  0  0  0
 13 11  1  0  0  0  0
 13 22  2  0  0  0  0
 14 22  1  0  0  0  0
 14 23  1  0  0  0  0
 15  9  2  0  0  0  0
 16 19  1  0  0  0  0
 17  8  1  0  0  0  0
 18  6  2  0  0  0  0
 18 15  1  0  0  0  0
 20  1  1  0  0  0  0
 20 10  1  0  0  0  0
 21  4  1  0  0  0  0
 22 21  1  0  0  0  0
 25  5  2  0  0  0  0
 27 14  2  0  0  0  0
 28 23  2  0  0  0  0
 28  9  1  0  0  0  0
 29 20  1  0  0  0  0
 30 29  1  0  0  0  0
 30 31  1  0  0  0  0
 32 30  2  0  0  0  0
M  END
>  <MODEL>
8

>  <REMARK>
 VINA RESULT:      -8.1      3.133      4.727
  Name = 
  2 active torsions:
  status: ('A' for Active; 'I' for Inactive)
    1  A    between atoms: C_20  and  O_29
    2  A    between atoms: O_29  and  C_30
                            x       y       z     vdW  Elec       q    Type
                         _______ _______ _______ _____ _____    ______ ____

>  <TORSDO>
F 2

$$$$
=
 OpenBabel11112416273D

 32 38  0  0  1  0  0  0  0  0999 V2000
  185.9620  179.0780  144.0770 C   0  0  1  0  0  3  0  0  0  0  0  0
  188.6660  174.7730  142.6330 C   0  0  1  0  0  3  0  0  0  0  0  0
  192.8410  176.4480  144.9950 C   0  0  0  0  0  2  0  0  0  0  0  0
  193.5230  176.4160  143.6420 C   0  0  0  0  0  2  0  0  0  0  0  0
  189.0040  172.9830  140.8110 C   0  0  0  0  0  0  0  0  0  0  0  0
  189.9410  172.2430  139.9730 C   0  0  0  0  0  0  0  0  0  0  0  0
  186.9910  176.6150  142.7030 C   0  0  1  0  0  3  0  0  0  0  0  0
  188.4750  176.1610  144.6800 C   0  0  0  0  0  2  0  0  0  0  0  0
  191.8860  171.5550  139.1240 C   0  0  0  0  0  0  0  0  0  0  0  0
  186.8560  178.0900  144.8280 C   0  0  2  0  0  3  0  0  0  0  0  0
  191.3420  176.6160  144.7820 C   0  0  0  0  0  2  0  0  0  0  0  0
  189.3400  175.4190  143.7660 N   0  0  0  0  0  0  0  0  0  0  0  0
  190.7650  175.6330  143.7830 C   0  0  0  0  0  0  0  0  0  0  0  0
  190.9520  174.1040  141.8660 C   0  0  0  0  0  0  0  0  0  0  0  0
  190.9210  170.9260  138.5300 N   0  0  0  0  0  0  0  0  0  0  0  0
  186.1150  179.0300  142.5390 C   0  0  0  0  0  2  0  0  0  0  0  0
  187.7410  177.2430  143.8930 C   0  0  2  0  0  3  0  0  0  0  0  0
  189.6910  171.3590  139.0640 N   0  0  0  0  0  0  0  0  0  0  0  0
  186.1910  177.6370  141.8930 C   0  0  0  0  0  2  0  0  0  0  0  0
  185.3600  177.8200  144.6860 C   0  0  1  0  0  3  0  0  0  0  0  0
  193.0550  175.1780  142.8890 C   0  0  0  0  0  2  0  0  0  0  0  0
  191.5470  175.0350  142.8560 C   0  0  0  0  0  0  0  0  0  0  0  0
  191.8700  173.3170  140.9780 C   0  0  0  0  0  3  0  0  0  0  0  0
  187.9460  175.8340  141.8030 C   0  0  0  0  0  2  0  0  0  0  0  0
  187.7600  172.8060  140.7180 O   0  0  0  0  0  0  0  0  0  0  0  0
  193.2630  171.3570  138.8270 N   0  0  0  0  0  1  0  0  0  0  0  0
  189.5960  173.9520  141.7800 C   0  0  0  0  0  0  0  0  0  0  0  0
  191.3420  172.4610  140.1080 C   0  0  0  0  0  0  0  0  0  0  0  0
  184.7070  178.1530  145.9030 O   0  0  0  0  0  0  0  0  0  0  0  0
  185.3970  178.2740  147.1110 C   0  0  0  0  0  0  0  0  0  0  0  0
  185.9410  177.0810  147.8240 C   0  0  0  0  0  1  0  0  0  0  0  0
  185.5660  179.4150  147.6120 O   0  0  0  0  0  0  0  0  0  0  0  0
  1 16  1  6  0  0  0
  1 20  1  0  0  0  0
  1 10  1  0  0  0  0
  2 24  1  6  0  0  0
  2 12  1  0  0  0  0
  4  3  1  0  0  0  0
  5 27  1  0  0  0  0
  6 28  1  0  0  0  0
  6  5  1  0  0  0  0
  7 24  1  6  0  0  0
  7 17  1  0  0  0  0
  9 28  1  0  0  0  0
 11  3  1  0  0  0  0
 12 13  1  0  0  0  0
 12  8  1  0  0  0  0
 13 11  1  0  0  0  0
 14 22  1  0  0  0  0
 15 18  1  0  0  0  0
 15  9  2  0  0  0  0
 17  8  1  0  0  0  0
 17 10  1  0  0  0  0
 18  6  2  0  0  0  0
 19 16  1  0  0  0  0
 19  7  1  0  0  0  0
 20 10  1  0  0  0  0
 20 29  1  0  0  0  0
 21  4  1  0  0  0  0
 22 21  1  0  0  0  0
 22 13  2  0  0  0  0
 23 14  1  0  0  0  0
 25  5  2  0  0  0  0
 26  9  1  0  0  0  0
 27 14  2  0  0  0  0
 27  2  1  0  0  0  0
 28 23  2  0  0  0  0
 29 30  1  0  0  0  0
 30 32  2  0  0  0  0
 30 31  1  0  0  0  0
M  END
>  <MODEL>
9

>  <REMARK>
 VINA RESULT:      -8.1      3.862      7.585
  Name = 
  2 active torsions:
  status: ('A' for Active; 'I' for Inactive)
    1  A    between atoms: C_20  and  O_29
    2  A    between atoms: O_29  and  C_30
                            x       y       z     vdW  Elec       q    Type
                         _______ _______ _______ _____ _____    ______ ____

>  <TORSDO>
F 2

$$$$
