=
 OpenBabel11112417033D

 31 35  0  0  1  0  0  0  0  0999 V2000
  195.6130  175.4580  144.4470 C   0  0  0  0  0  0  0  0  0  0  0  0
  192.1790  176.3850  143.1100 C   0  0  2  0  0  3  0  0  0  0  0  0
  191.3610  175.2000  142.6330 C   0  0  0  0  0  0  0  0  0  0  0  0
  191.1970  172.8690  141.9650 C   0  0  0  0  0  0  0  0  0  0  0  0
  193.2890  176.0090  144.0480 C   0  0  0  0  0  0  0  0  0  0  0  0
  195.3450  175.3110  145.8120 C   0  0  0  0  0  3  0  0  0  0  0  0
  191.9520  173.9420  142.4470 C   0  0  0  0  0  3  0  0  0  0  0  0
  190.8680  177.1860  145.2350 C   0  0  1  0  0  3  0  0  0  0  0  0
  196.9000  175.2570  143.9670 O   0  0  0  0  0  1  0  0  0  0  0  0
  189.3820  176.6610  142.4410 N   0  0  0  0  0  2  0  0  0  0  0  0
  191.8310  171.5380  141.7860 C   0  0  0  0  0  1  0  0  0  0  0  0
  191.6240  176.0330  145.9200 C   0  0  0  0  0  2  0  0  0  0  0  0
  191.2930  177.4680  143.7590 C   0  0  2  0  0  3  0  0  0  0  0  0
  194.5850  175.8050  143.5650 C   0  0  0  0  0  3  0  0  0  0  0  0
  189.8480  173.0480  141.6520 C   0  0  0  0  0  3  0  0  0  0  0  0
  193.0230  175.8740  145.4190 C   0  0  0  0  0  0  0  0  0  0  0  0
  194.0490  175.5130  146.2970 C   0  0  0  0  0  3  0  0  0  0  0  0
  190.1460  177.8470  142.8160 C   0  0  0  0  0  2  0  0  0  0  0  0
  190.0070  175.3820  142.2820 C   0  0  0  0  0  0  0  0  0  0  0  0
  189.2550  174.3040  141.8090 C   0  0  0  0  0  3  0  0  0  0  0  0
  189.2170  177.9750  147.4510 O   0  0  0  0  0  0  0  0  0  0  0  0
  188.6700  177.3560  146.4990 C   0  0  0  0  0  0  0  0  0  0  0  0
  189.4330  176.9600  145.3570 N   0  0  0  0  0  2  0  0  0  0  0  0
  185.3040  178.6470  144.9890 C   0  0  1  0  0  3  0  0  0  0  0  0
  186.6780  176.6010  145.2070 C   0  0  0  0  0  2  0  0  0  0  0  0
  186.5090  178.4440  148.3730 O   0  0  0  0  0  0  0  0  0  0  0  0
  185.0230  179.8820  144.1620 C   0  0  0  0  0  1  0  0  0  0  0  0
  186.3810  177.8050  144.3210 C   0  0  0  0  0  2  0  0  0  0  0  0
  186.4330  178.1870  147.1440 C   0  0  0  0  0  0  0  0  0  0  0  0
  187.2120  177.0300  146.5770 C   0  0  2  0  0  3  0  0  0  0  0  0
  185.6920  179.0300  146.3080 O   0  0  0  0  0  0  0  0  0  0  0  0
  1  6  1  0  0  0  0
  2  3  1  1  0  0  0
  2 13  1  0  0  0  0
  2  5  1  0  0  0  0
  4  7  2  0  0  0  0
  5 16  2  0  0  0  0
  6 17  2  0  0  0  0
  7  3  1  0  0  0  0
  8 23  1  6  0  0  0
  8 12  1  0  0  0  0
  9  1  1  0  0  0  0
 10 18  1  0  0  0  0
 11  4  1  0  0  0  0
 13 18  1  6  0  0  0
 13  8  1  0  0  0  0
 14  5  1  0  0  0  0
 14  1  2  0  0  0  0
 15 20  2  0  0  0  0
 15  4  1  0  0  0  0
 16 12  1  0  0  0  0
 16 17  1  0  0  0  0
 19 10  1  0  0  0  0
 19  3  2  0  0  0  0
 20 19  1  0  0  0  0
 22 21  2  0  0  0  0
 23 22  1  0  0  0  0
 24 27  1  6  0  0  0
 24 31  1  0  0  0  0
 25 30  1  0  0  0  0
 28 24  1  0  0  0  0
 28 25  1  0  0  0  0
 29 26  2  0  0  0  0
 30 22  1  6  0  0  0
 30 29  1  0  0  0  0
 31 29  1  0  0  0  0
M  END
>  <MODEL>
1

>  <REMARK>
 VINA RESULT:      -8.8      0.000      0.000
  Name = 
  2 active torsions:
  status: ('A' for Active; 'I' for Inactive)
    1  A    between atoms: C_5  and  C_30
    2  A    between atoms: C_10  and  N_16
                            x       y       z     vdW  Elec       q    Type
                         _______ _______ _______ _____ _____    ______ ____

>  <TORSDO>
F 2

$$$$
=
 OpenBabel11112417033D

 31 35  0  0  1  0  0  0  0  0999 V2000
  186.8500  177.1820  140.2200 C   0  0  0  0  0  0  0  0  0  0  0  0
  189.2130  177.6790  143.1540 C   0  0  2  0  0  3  0  0  0  0  0  0
  188.5880  177.3950  144.5070 C   0  0  0  0  0  0  0  0  0  0  0  0
  186.6310  177.0340  145.9020 C   0  0  0  0  0  0  0  0  0  0  0  0
  188.4770  177.0470  142.0090 C   0  0  0  0  0  0  0  0  0  0  0  0
  187.1180  175.8540  139.8750 C   0  0  0  0  0  3  0  0  0  0  0  0
  187.1980  177.2520  144.6440 C   0  0  0  0  0  3  0  0  0  0  0  0
  190.9580  175.7390  142.8970 C   0  0  1  0  0  3  0  0  0  0  0  0
  185.9090  177.9090  139.5040 O   0  0  0  0  0  1  0  0  0  0  0  0
  190.8170  177.5330  145.5530 N   0  0  0  0  0  2  0  0  0  0  0  0
  185.1600  176.8690  146.0330 C   0  0  0  0  0  1  0  0  0  0  0  0
  189.7240  174.9240  142.4660 C   0  0  0  0  0  2  0  0  0  0  0  0
  190.6980  177.2640  143.1120 C   0  0  2  0  0  3  0  0  0  0  0  0
  187.5280  177.7780  141.2870 C   0  0  0  0  0  3  0  0  0  0  0  0
  187.4440  176.9730  147.0360 C   0  0  0  0  0  3  0  0  0  0  0  0
  188.7550  175.7180  141.6530 C   0  0  0  0  0  0  0  0  0  0  0  0
  188.0660  175.1200  140.5950 C   0  0  0  0  0  3  0  0  0  0  0  0
  191.4550  177.8900  144.2880 C   0  0  0  0  0  2  0  0  0  0  0  0
  189.3990  177.3670  145.6600 C   0  0  0  0  0  0  0  0  0  0  0  0
  188.8260  177.1410  146.9140 C   0  0  0  0  0  3  0  0  0  0  0  0
  193.4520  174.3120  142.9550 O   0  0  0  0  0  0  0  0  0  0  0  0
  192.7970  174.3970  144.0280 C   0  0  0  0  0  0  0  0  0  0  0  0
  191.5620  175.1160  144.0680 N   0  0  0  0  0  2  0  0  0  0  0  0
  196.2380  173.7340  145.7580 C   0  0  1  0  0  3  0  0  0  0  0  0
  194.0180  174.7450  146.1720 C   0  0  0  0  0  2  0  0  0  0  0  0
  193.7220  171.5130  144.4620 O   0  0  0  0  0  0  0  0  0  0  0  0
  197.6420  173.9690  145.2450 C   0  0  0  0  0  1  0  0  0  0  0  0
  195.4400  175.0290  145.7020 C   0  0  0  0  0  2  0  0  0  0  0  0
  194.2200  172.5790  144.9080 C   0  0  0  0  0  0  0  0  0  0  0  0
  193.3180  173.7310  145.2610 C   0  0  2  0  0  3  0  0  0  0  0  0
  195.6110  172.7080  144.9910 O   0  0  0  0  0  0  0  0  0  0  0  0
  1 14  1  0  0  0  0
  2  5  1  6  0  0  0
  2  3  1  0  0  0  0
  3  7  2  0  0  0  0
  3 19  1  0  0  0  0
  4 11  1  0  0  0  0
  4 15  2  0  0  0  0
  6  1  2  0  0  0  0
  6 17  1  0  0  0  0
  7  4  1  0  0  0  0
  8 13  1  0  0  0  0
  8 23  1  1  0  0  0
  9  1  1  0  0  0  0
 10 19  1  0  0  0  0
 12  8  1  0  0  0  0
 13  2  1  0  0  0  0
 13 18  1  1  0  0  0
 14  5  2  0  0  0  0
 16  5  1  0  0  0  0
 16 12  1  0  0  0  0
 17 16  2  0  0  0  0
 18 10  1  0  0  0  0
 19 20  2  0  0  0  0
 20 15  1  0  0  0  0
 21 22  2  0  0  0  0
 22 23  1  0  0  0  0
 24 27  1  6  0  0  0
 26 29  2  0  0  0  0
 28 24  1  0  0  0  0
 28 25  1  0  0  0  0
 29 31  1  0  0  0  0
 29 30  1  0  0  0  0
 30 22  1  6  0  0  0
 30 25  1  0  0  0  0
 31 24  1  0  0  0  0
M  END
>  <MODEL>
2

>  <REMARK>
 VINA RESULT:      -8.1      2.982      7.773
  Name = 
  2 active torsions:
  status: ('A' for Active; 'I' for Inactive)
    1  A    between atoms: C_5  and  C_30
    2  A    between atoms: C_10  and  N_16
                            x       y       z     vdW  Elec       q    Type
                         _______ _______ _______ _____ _____    ______ ____

>  <TORSDO>
F 2

$$$$
=
 OpenBabel11112417033D

 31 35  0  0  1  0  0  0  0  0999 V2000
  192.6790  170.7160  142.3220 C   0  0  0  0  0  0  0  0  0  0  0  0
  191.2940  173.0340  144.9950 C   0  0  2  0  0  3  0  0  0  0  0  0
  192.2670  174.1050  145.4500 C   0  0  0  0  0  0  0  0  0  0  0  0
  194.5210  175.0050  145.5740 C   0  0  0  0  0  0  0  0  0  0  0  0
  191.6330  172.4450  143.6570 C   0  0  0  0  0  0  0  0  0  0  0  0
  192.2540  171.3590  141.1550 C   0  0  0  0  0  3  0  0  0  0  0  0
  193.6270  174.0360  145.1120 C   0  0  0  0  0  3  0  0  0  0  0  0
  189.4490  174.4130  143.7420 C   0  0  1  0  0  3  0  0  0  0  0  0
  193.4100  169.5390  142.2390 O   0  0  0  0  0  1  0  0  0  0  0  0
  190.4450  175.2200  146.6830 N   0  0  0  0  0  2  0  0  0  0  0  0
  195.9560  174.9290  145.1970 C   0  0  0  0  0  1  0  0  0  0  0  0
  190.4610  174.3790  142.5820 C   0  0  0  0  0  2  0  0  0  0  0  0
  189.8400  173.5500  144.9830 C   0  0  2  0  0  3  0  0  0  0  0  0
  192.3710  171.2590  143.5730 C   0  0  0  0  0  3  0  0  0  0  0  0
  194.0680  176.0430  146.3900 C   0  0  0  0  0  3  0  0  0  0  0  0
  191.1960  173.0820  142.4860 C   0  0  0  0  0  0  0  0  0  0  0  0
  191.5170  172.5440  141.2370 C   0  0  0  0  0  3  0  0  0  0  0  0
  189.4890  174.1710  146.3400 C   0  0  0  0  0  2  0  0  0  0  0  0
  191.8230  175.1360  146.3030 C   0  0  0  0  0  0  0  0  0  0  0  0
  192.7210  176.1070  146.7550 C   0  0  0  0  0  3  0  0  0  0  0  0
  187.0640  175.8870  143.1100 O   0  0  0  0  0  0  0  0  0  0  0  0
  187.9780  176.4860  143.7370 C   0  0  0  0  0  0  0  0  0  0  0  0
  189.1770  175.7990  144.1030 N   0  0  0  0  0  2  0  0  0  0  0  0
  185.4120  178.7360  145.6420 C   0  0  1  0  0  3  0  0  0  0  0  0
  187.8080  178.1210  145.6100 C   0  0  0  0  0  2  0  0  0  0  0  0
  186.5330  178.7180  142.2240 O   0  0  0  0  0  0  0  0  0  0  0  0
  184.0410  178.3960  146.1860 C   0  0  0  0  0  1  0  0  0  0  0  0
  186.4520  177.7870  146.2200 C   0  0  0  0  0  2  0  0  0  0  0  0
  186.5550  178.4870  143.4600 C   0  0  0  0  0  0  0  0  0  0  0  0
  187.8020  177.9290  144.0900 C   0  0  2  0  0  3  0  0  0  0  0  0
  185.3920  178.6740  144.2170 O   0  0  0  0  0  0  0  0  0  0  0  0
  1 14  1  0  0  0  0
  2  5  1  6  0  0  0
  2  3  1  0  0  0  0
  3 19  1  0  0  0  0
  4 15  2  0  0  0  0
  6 17  1  0  0  0  0
  6  1  2  0  0  0  0
  7  3  2  0  0  0  0
  7  4  1  0  0  0  0
  8 23  1  1  0  0  0
  8 13  1  0  0  0  0
  9  1  1  0  0  0  0
 11  4  1  0  0  0  0
 12  8  1  0  0  0  0
 13  2  1  0  0  0  0
 13 18  1  1  0  0  0
 14  5  2  0  0  0  0
 15 20  1  0  0  0  0
 16 12  1  0  0  0  0
 16  5  1  0  0  0  0
 17 16  2  0  0  0  0
 18 10  1  0  0  0  0
 19 10  1  0  0  0  0
 19 20  2  0  0  0  0
 21 22  2  0  0  0  0
 22 23  1  0  0  0  0
 24 27  1  1  0  0  0
 24 28  1  0  0  0  0
 25 28  1  0  0  0  0
 26 29  2  0  0  0  0
 29 30  1  0  0  0  0
 29 31  1  0  0  0  0
 30 22  1  1  0  0  0
 30 25  1  0  0  0  0
 31 24  1  0  0  0  0
M  END
>  <MODEL>
3

>  <REMARK>
 VINA RESULT:      -8.1      2.354      4.603
  Name = 
  2 active torsions:
  status: ('A' for Active; 'I' for Inactive)
    1  A    between atoms: C_5  and  C_30
    2  A    between atoms: C_10  and  N_16
                            x       y       z     vdW  Elec       q    Type
                         _______ _______ _______ _____ _____    ______ ____

>  <TORSDO>
F 2

$$$$
=
 OpenBabel11112417033D

 31 35  0  0  1  0  0  0  0  0999 V2000
  196.5050  170.4550  145.8630 C   0  0  0  0  0  0  0  0  0  0  0  0
  195.7030  174.1540  145.5240 C   0  0  2  0  0  3  0  0  0  0  0  0
  196.0220  174.7330  144.1580 C   0  0  0  0  0  0  0  0  0  0  0  0
  197.1260  174.5830  141.9980 C   0  0  0  0  0  0  0  0  0  0  0  0
  195.5620  172.6600  145.5230 C   0  0  0  0  0  0  0  0  0  0  0  0
  195.2790  169.8770  145.5200 C   0  0  0  0  0  3  0  0  0  0  0  0
  196.8030  174.0210  143.2350 C   0  0  0  0  0  3  0  0  0  0  0  0
  193.0840  174.2430  145.6010 C   0  0  1  0  0  3  0  0  0  0  0  0
  197.5830  169.6490  146.2020 O   0  0  0  0  0  1  0  0  0  0  0  0
  194.8290  176.8040  144.7720 N   0  0  0  0  0  2  0  0  0  0  0  0
  197.9410  173.8130  141.0240 C   0  0  0  0  0  1  0  0  0  0  0  0
  193.1910  172.9510  144.7700 C   0  0  0  0  0  2  0  0  0  0  0  0
  194.4420  174.7960  146.1370 C   0  0  2  0  0  3  0  0  0  0  0  0
  196.6470  171.8460  145.8630 C   0  0  0  0  0  3  0  0  0  0  0  0
  196.6840  175.8690  141.6770 C   0  0  0  0  0  3  0  0  0  0  0  0
  194.3290  172.0790  145.1910 C   0  0  0  0  0  0  0  0  0  0  0  0
  194.1930  170.6880  145.1780 C   0  0  0  0  0  3  0  0  0  0  0  0
  194.5680  176.3240  146.1260 C   0  0  0  0  0  2  0  0  0  0  0  0
  195.6090  176.0440  143.8410 C   0  0  0  0  0  0  0  0  0  0  0  0
  195.9280  176.5980  142.5990 C   0  0  0  0  0  3  0  0  0  0  0  0
  190.2230  174.4820  145.4490 O   0  0  0  0  0  0  0  0  0  0  0  0
  190.9190  175.2960  144.7860 C   0  0  0  0  0  0  0  0  0  0  0  0
  192.3470  175.2440  144.8410 N   0  0  0  0  0  2  0  0  0  0  0  0
  187.5720  177.3150  144.7500 C   0  0  1  0  0  3  0  0  0  0  0  0
  190.0270  177.6220  144.7030 C   0  0  0  0  0  2  0  0  0  0  0  0
  188.9710  174.9220  142.4560 O   0  0  0  0  0  0  0  0  0  0  0  0
  186.3470  177.1750  145.6260 C   0  0  0  0  0  1  0  0  0  0  0  0
  188.8060  177.5420  145.6120 C   0  0  0  0  0  2  0  0  0  0  0  0
  188.9450  175.7770  143.3790 C   0  0  0  0  0  0  0  0  0  0  0  0
  190.2380  176.3160  143.9300 C   0  0  2  0  0  3  0  0  0  0  0  0
  187.7170  176.1520  143.9370 O   0  0  0  0  0  0  0  0  0  0  0  0
  1 14  1  0  0  0  0
  1  9  1  0  0  0  0
  2  3  1  6  0  0  0
  2 13  1  0  0  0  0
  4  7  1  0  0  0  0
  5  2  1  0  0  0  0
  5 14  2  0  0  0  0
  6  1  2  0  0  0  0
  7  3  2  0  0  0  0
  8 23  1  6  0  0  0
  8 13  1  0  0  0  0
 10 18  1  0  0  0  0
 11  4  1  0  0  0  0
 12 16  1  0  0  0  0
 12  8  1  0  0  0  0
 13 18  1  6  0  0  0
 15  4  2  0  0  0  0
 15 20  1  0  0  0  0
 16  5  1  0  0  0  0
 17 16  2  0  0  0  0
 17  6  1  0  0  0  0
 19  3  1  0  0  0  0
 19 10  1  0  0  0  0
 20 19  2  0  0  0  0
 22 23  1  0  0  0  0
 22 21  2  0  0  0  0
 24 28  1  0  0  0  0
 24 27  1  1  0  0  0
 25 28  1  0  0  0  0
 26 29  2  0  0  0  0
 29 30  1  0  0  0  0
 29 31  1  0  0  0  0
 30 25  1  0  0  0  0
 30 22  1  1  0  0  0
 31 24  1  0  0  0  0
M  END
>  <MODEL>
4

>  <REMARK>
 VINA RESULT:      -8.1      3.231      5.024
  Name = 
  2 active torsions:
  status: ('A' for Active; 'I' for Inactive)
    1  A    between atoms: C_5  and  C_30
    2  A    between atoms: C_10  and  N_16
                            x       y       z     vdW  Elec       q    Type
                         _______ _______ _______ _____ _____    ______ ____

>  <TORSDO>
F 2

$$$$
=
 OpenBabel11112417033D

 31 35  0  0  1  0  0  0  0  0999 V2000
  190.1430  171.3970  138.6960 C   0  0  0  0  0  0  0  0  0  0  0  0
  190.6420  173.0280  142.0920 C   0  0  2  0  0  3  0  0  0  0  0  0
  191.7330  174.0820  142.1170 C   0  0  0  0  0  0  0  0  0  0  0  0
  193.6670  175.1550  141.1090 C   0  0  0  0  0  0  0  0  0  0  0  0
  190.1230  172.7350  140.7140 C   0  0  0  0  0  0  0  0  0  0  0  0
  189.1400  172.2030  138.1500 C   0  0  0  0  0  3  0  0  0  0  0  0
  192.6400  174.2090  141.0540 C   0  0  0  0  0  3  0  0  0  0  0  0
  188.4580  174.4350  142.4450 C   0  0  1  0  0  3  0  0  0  0  0  0
  190.6520  170.3320  137.9660 O   0  0  0  0  0  1  0  0  0  0  0  0
  191.0020  174.7660  144.3720 N   0  0  0  0  0  2  0  0  0  0  0  0
  194.6130  175.2890  139.9720 C   0  0  0  0  0  1  0  0  0  0  0  0
  188.6070  174.7170  140.9380 C   0  0  0  0  0  2  0  0  0  0  0  0
  189.4700  173.3950  143.0240 C   0  0  2  0  0  3  0  0  0  0  0  0
  190.6360  171.6630  139.9770 C   0  0  0  0  0  3  0  0  0  0  0  0
  193.8050  175.9730  142.2320 C   0  0  0  0  0  3  0  0  0  0  0  0
  189.1070  173.5360  140.1710 C   0  0  0  0  0  0  0  0  0  0  0  0
  188.6260  173.2760  138.8840 C   0  0  0  0  0  3  0  0  0  0  0  0
  189.9910  173.7130  144.4300 C   0  0  0  0  0  2  0  0  0  0  0  0
  191.9000  174.8880  143.2620 C   0  0  0  0  0  0  0  0  0  0  0  0
  192.9230  175.8380  143.3080 C   0  0  0  0  0  3  0  0  0  0  0  0
  186.1810  176.0460  143.1370 O   0  0  0  0  0  0  0  0  0  0  0  0
  187.3220  176.4650  143.4690 C   0  0  0  0  0  0  0  0  0  0  0  0
  188.4910  175.6950  143.1760 N   0  0  0  0  0  2  0  0  0  0  0  0
  185.3900  178.5370  146.1610 C   0  0  1  0  0  3  0  0  0  0  0  0
  187.6210  177.5820  145.6760 C   0  0  0  0  0  2  0  0  0  0  0  0
  186.1850  179.2040  142.7170 O   0  0  0  0  0  0  0  0  0  0  0  0
  184.0330  178.2910  146.7850 C   0  0  0  0  0  1  0  0  0  0  0  0
  186.2850  177.3230  146.3630 C   0  0  0  0  0  2  0  0  0  0  0  0
  186.2720  178.6690  143.8520 C   0  0  0  0  0  0  0  0  0  0  0  0
  187.4460  177.7820  144.1670 C   0  0  2  0  0  3  0  0  0  0  0  0
  185.2350  178.8400  144.7760 O   0  0  0  0  0  0  0  0  0  0  0  0
  1 14  1  0  0  0  0
  2  5  1  6  0  0  0
  2  3  1  0  0  0  0
  2 13  1  0  0  0  0
  3 19  1  0  0  0  0
  4 15  2  0  0  0  0
  6  1  2  0  0  0  0
  6 17  1  0  0  0  0
  7  4  1  0  0  0  0
  7  3  2  0  0  0  0
  8 13  1  0  0  0  0
  8 23  1  1  0  0  0
  9  1  1  0  0  0  0
 10 18  1  0  0  0  0
 11  4  1  0  0  0  0
 12  8  1  0  0  0  0
 13 18  1  1  0  0  0
 14  5  2  0  0  0  0
 15 20  1  0  0  0  0
 16  5  1  0  0  0  0
 16 12  1  0  0  0  0
 17 16  2  0  0  0  0
 19 20  2  0  0  0  0
 19 10  1  0  0  0  0
 21 22  2  0  0  0  0
 23 22  1  0  0  0  0
 24 28  1  0  0  0  0
 24 27  1  6  0  0  0
 25 28  1  0  0  0  0
 26 29  2  0  0  0  0
 29 30  1  0  0  0  0
 29 31  1  0  0  0  0
 30 22  1  6  0  0  0
 30 25  1  0  0  0  0
 31 24  1  0  0  0  0
M  END
>  <MODEL>
5

>  <REMARK>
 VINA RESULT:      -7.8      2.807      5.183
  Name = 
  2 active torsions:
  status: ('A' for Active; 'I' for Inactive)
    1  A    between atoms: C_5  and  C_30
    2  A    between atoms: C_10  and  N_16
                            x       y       z     vdW  Elec       q    Type
                         _______ _______ _______ _____ _____    ______ ____

>  <TORSDO>
F 2

$$$$
=
 OpenBabel11112417033D

 31 35  0  0  1  0  0  0  0  0999 V2000
  185.7420  178.0870  147.6120 C   0  0  0  0  0  0  0  0  0  0  0  0
  187.7440  175.6680  145.4720 C   0  0  2  0  0  3  0  0  0  0  0  0
  187.7750  176.0260  143.9980 C   0  0  0  0  0  0  0  0  0  0  0  0
  186.9100  177.2790  142.1040 C   0  0  0  0  0  0  0  0  0  0  0  0
  187.3860  176.8220  146.3620 C   0  0  0  0  0  0  0  0  0  0  0  0
  186.7390  178.9780  148.0240 C   0  0  0  0  0  3  0  0  0  0  0  0
  186.9020  176.9900  143.4710 C   0  0  0  0  0  3  0  0  0  0  0  0
  190.2250  176.0640  146.2230 C   0  0  1  0  0  3  0  0  0  0  0  0
  184.4310  178.2720  148.0280 O   0  0  0  0  0  1  0  0  0  0  0  0
  189.5110  174.3130  143.6310 N   0  0  0  0  0  2  0  0  0  0  0  0
  185.9920  178.3120  141.5590 C   0  0  0  0  0  1  0  0  0  0  0  0
  189.7860  177.5380  146.2870 C   0  0  0  0  0  2  0  0  0  0  0  0
  189.0760  175.0450  145.9380 C   0  0  2  0  0  3  0  0  0  0  0  0
  186.0650  177.0110  146.7800 C   0  0  0  0  0  3  0  0  0  0  0  0
  187.7800  176.5980  141.2500 C   0  0  0  0  0  3  0  0  0  0  0  0
  188.3880  177.7090  146.7860 C   0  0  0  0  0  0  0  0  0  0  0  0
  188.0600  178.7930  147.6070 C   0  0  0  0  0  3  0  0  0  0  0  0
  189.4600  173.8760  145.0240 C   0  0  0  0  0  2  0  0  0  0  0  0
  188.6250  175.3170  143.1250 C   0  0  0  0  0  0  0  0  0  0  0  0
  188.6350  175.6170  141.7600 C   0  0  0  0  0  3  0  0  0  0  0  0
  192.9760  175.5570  146.8850 O   0  0  0  0  0  0  0  0  0  0  0  0
  192.6790  175.7010  145.6690 C   0  0  0  0  0  0  0  0  0  0  0  0
  191.3240  175.9290  145.2750 N   0  0  0  0  0  2  0  0  0  0  0  0
  196.1250  173.9310  145.1510 C   0  0  1  0  0  3  0  0  0  0  0  0
  193.9080  174.2170  144.0890 C   0  0  0  0  0  2  0  0  0  0  0  0
  195.2040  177.4020  145.3640 O   0  0  0  0  0  0  0  0  0  0  0  0
  196.9510  173.1140  146.1200 C   0  0  0  0  0  1  0  0  0  0  0  0
  194.7290  173.3390  145.0280 C   0  0  0  0  0  2  0  0  0  0  0  0
  195.0580  176.1650  145.1890 C   0  0  0  0  0  0  0  0  0  0  0  0
  193.7600  175.6400  144.6370 C   0  0  2  0  0  3  0  0  0  0  0  0
  196.0740  175.2890  145.5870 O   0  0  0  0  0  0  0  0  0  0  0  0
  1  6  1  0  0  0  0
  1  9  1  0  0  0  0
  2  3  1  6  0  0  0
  2 13  1  0  0  0  0
  2  5  1  0  0  0  0
  4  7  2  0  0  0  0
  5 14  1  0  0  0  0
  5 16  2  0  0  0  0
  7  3  1  0  0  0  0
  8 23  1  6  0  0  0
  8 12  1  0  0  0  0
 10 18  1  0  0  0  0
 11  4  1  0  0  0  0
 12 16  1  0  0  0  0
 13 18  1  6  0  0  0
 13  8  1  0  0  0  0
 14  1  2  0  0  0  0
 15 20  2  0  0  0  0
 15  4  1  0  0  0  0
 16 17  1  0  0  0  0
 17  6  2  0  0  0  0
 19 10  1  0  0  0  0
 19  3  2  0  0  0  0
 20 19  1  0  0  0  0
 22 21  2  0  0  0  0
 23 22  1  0  0  0  0
 24 31  1  0  0  0  0
 24 27  1  1  0  0  0
 25 30  1  0  0  0  0
 25 28  1  0  0  0  0
 28 24  1  0  0  0  0
 29 26  2  0  0  0  0
 29 31  1  0  0  0  0
 30 29  1  0  0  0  0
 30 22  1  1  0  0  0
M  END
>  <MODEL>
6

>  <REMARK>
 VINA RESULT:      -7.7      2.249      7.450
  Name = 
  2 active torsions:
  status: ('A' for Active; 'I' for Inactive)
    1  A    between atoms: C_5  and  C_30
    2  A    between atoms: C_10  and  N_16
                            x       y       z     vdW  Elec       q    Type
                         _______ _______ _______ _____ _____    ______ ____

>  <TORSDO>
F 2

$$$$
=
 OpenBabel11112417033D

 31 35  0  0  1  0  0  0  0  0999 V2000
  185.8620  177.5650  142.4600 C   0  0  0  0  0  0  0  0  0  0  0  0
  188.2180  175.0900  144.1220 C   0  0  2  0  0  3  0  0  0  0  0  0
  189.0090  174.2380  143.1470 C   0  0  0  0  0  0  0  0  0  0  0  0
  189.3740  173.3680  140.9070 C   0  0  0  0  0  0  0  0  0  0  0  0
  187.6720  176.3480  143.5130 C   0  0  0  0  0  0  0  0  0  0  0  0
  186.6700  178.7040  142.3840 C   0  0  0  0  0  3  0  0  0  0  0  0
  188.6660  174.1900  141.7870 C   0  0  0  0  0  3  0  0  0  0  0  0
  190.0630  176.6040  145.2070 C   0  0  1  0  0  3  0  0  0  0  0  0
  184.5620  177.6030  141.9740 O   0  0  0  0  0  1  0  0  0  0  0  0
  190.4020  173.4190  145.0110 N   0  0  0  0  0  2  0  0  0  0  0  0
  189.0120  173.3370  139.4670 C   0  0  0  0  0  1  0  0  0  0  0  0
  189.8950  177.4290  143.9180 C   0  0  0  0  0  2  0  0  0  0  0  0
  189.0420  175.4350  145.3790 C   0  0  2  0  0  3  0  0  0  0  0  0
  186.3630  176.3870  143.0230 C   0  0  0  0  0  3  0  0  0  0  0  0
  190.4220  172.5750  141.3810 C   0  0  0  0  0  3  0  0  0  0  0  0
  188.4780  177.4950  143.4490 C   0  0  0  0  0  0  0  0  0  0  0  0
  187.9800  178.6670  142.8730 C   0  0  0  0  0  3  0  0  0  0  0  0
  189.6200  174.1570  145.9990 C   0  0  0  0  0  2  0  0  0  0  0  0
  190.0440  173.4080  143.6240 C   0  0  0  0  0  0  0  0  0  0  0  0
  190.7550  172.5950  142.7380 C   0  0  0  0  0  3  0  0  0  0  0  0
  191.7000  176.6780  147.5690 O   0  0  0  0  0  0  0  0  0  0  0  0
  192.2150  176.2310  146.5090 C   0  0  0  0  0  0  0  0  0  0  0  0
  191.4430  176.1450  145.3080 N   0  0  0  0  0  2  0  0  0  0  0  0
  195.1750  175.9060  143.9780 C   0  0  1  0  0  3  0  0  0  0  0  0
  194.5670  176.9620  146.1320 C   0  0  0  0  0  2  0  0  0  0  0  0
  193.4360  173.4760  145.9810 O   0  0  0  0  0  0  0  0  0  0  0  0
  195.1840  176.0530  142.4720 C   0  0  0  0  0  1  0  0  0  0  0  0
  194.6140  177.1650  144.6220 C   0  0  0  0  0  2  0  0  0  0  0  0
  193.8490  174.6070  145.6160 C   0  0  0  0  0  0  0  0  0  0  0  0
  193.6460  175.7980  146.5130 C   0  0  2  0  0  3  0  0  0  0  0  0
  194.4150  174.7560  144.3450 O   0  0  0  0  0  0  0  0  0  0  0  0
  1 14  1  0  0  0  0
  2  3  1  6  0  0  0
  2 13  1  0  0  0  0
  3 19  1  0  0  0  0
  4 15  2  0  0  0  0
  4  7  1  0  0  0  0
  5  2  1  0  0  0  0
  6  1  2  0  0  0  0
  6 17  1  0  0  0  0
  7  3  2  0  0  0  0
  8 23  1  6  0  0  0
  8 13  1  0  0  0  0
  9  1  1  0  0  0  0
 10 18  1  0  0  0  0
 11  4  1  0  0  0  0
 12  8  1  0  0  0  0
 13 18  1  6  0  0  0
 14  5  2  0  0  0  0
 15 20  1  0  0  0  0
 16  5  1  0  0  0  0
 16 12  1  0  0  0  0
 17 16  2  0  0  0  0
 19 10  1  0  0  0  0
 20 19  2  0  0  0  0
 22 21  2  0  0  0  0
 23 22  1  0  0  0  0
 24 27  1  6  0  0  0
 24 31  1  0  0  0  0
 24 28  1  0  0  0  0
 25 30  1  0  0  0  0
 28 25  1  0  0  0  0
 29 26  2  0  0  0  0
 29 30  1  0  0  0  0
 30 22  1  6  0  0  0
 31 29  1  0  0  0  0
M  END
>  <MODEL>
7

>  <REMARK>
 VINA RESULT:      -7.6      2.377      6.618
  Name = 
  2 active torsions:
  status: ('A' for Active; 'I' for Inactive)
    1  A    between atoms: C_5  and  C_30
    2  A    between atoms: C_10  and  N_16
                            x       y       z     vdW  Elec       q    Type
                         _______ _______ _______ _____ _____    ______ ____

>  <TORSDO>
F 2

$$$$
=
 OpenBabel11112417033D

 31 35  0  0  1  0  0  0  0  0999 V2000
  188.2330  176.4530  146.4810 C   0  0  0  0  0  0  0  0  0  0  0  0
  191.1610  174.2030  145.5830 C   0  0  2  0  0  3  0  0  0  0  0  0
  190.9940  173.4670  144.2670 C   0  0  0  0  0  0  0  0  0  0  0  0
  189.6000  172.7000  142.4300 C   0  0  0  0  0  0  0  0  0  0  0  0
  190.2790  175.4110  145.7100 C   0  0  0  0  0  0  0  0  0  0  0  0
  188.6500  177.6730  145.9410 C   0  0  0  0  0  3  0  0  0  0  0  0
  189.7510  173.4180  143.6190 C   0  0  0  0  0  3  0  0  0  0  0  0
  193.1120  175.8780  145.0750 C   0  0  1  0  0  3  0  0  0  0  0  0
  187.0100  176.3630  147.1310 O   0  0  0  0  0  1  0  0  0  0  0  0
  193.3530  172.7550  144.3820 N   0  0  0  0  0  2  0  0  0  0  0  0
  188.2820  172.6670  141.7460 C   0  0  0  0  0  1  0  0  0  0  0  0
  191.9920  176.7140  144.4290 C   0  0  0  0  0  2  0  0  0  0  0  0
  192.6290  174.6020  145.8340 C   0  0  2  0  0  3  0  0  0  0  0  0
  189.0460  175.3210  146.3650 C   0  0  0  0  0  3  0  0  0  0  0  0
  190.6870  172.0120  141.8860 C   0  0  0  0  0  3  0  0  0  0  0  0
  190.7020  176.6390  145.1800 C   0  0  0  0  0  0  0  0  0  0  0  0
  189.8820  177.7650  145.2850 C   0  0  0  0  0  3  0  0  0  0  0  0
  193.5410  173.3780  145.6890 C   0  0  0  0  0  2  0  0  0  0  0  0
  192.0780  172.7410  143.7300 C   0  0  0  0  0  0  0  0  0  0  0  0
  191.9230  172.0320  142.5370 C   0  0  0  0  0  3  0  0  0  0  0  0
  195.6800  177.1440  144.8100 O   0  0  0  0  0  0  0  0  0  0  0  0
  195.3730  176.2520  143.9750 C   0  0  0  0  0  0  0  0  0  0  0  0
  194.1210  175.5680  144.0700 N   0  0  0  0  0  2  0  0  0  0  0  0
  195.2520  174.8550  140.3270 C   0  0  1  0  0  3  0  0  0  0  0  0
  196.0620  176.7880  141.6410 C   0  0  0  0  0  2  0  0  0  0  0  0
  196.7920  173.6170  143.3330 O   0  0  0  0  0  0  0  0  0  0  0  0
  194.0930  174.2680  139.5510 C   0  0  0  0  0  1  0  0  0  0  0  0
  194.8970  176.2500  140.8190 C   0  0  0  0  0  2  0  0  0  0  0  0
  196.2760  174.4500  142.5440 C   0  0  0  0  0  0  0  0  0  0  0  0
  196.3290  175.9180  142.8730 C   0  0  2  0  0  3  0  0  0  0  0  0
  195.5890  173.9940  141.4130 O   0  0  0  0  0  0  0  0  0  0  0  0
  1  9  1  0  0  0  0
  2  3  1  6  0  0  0
  2  5  1  0  0  0  0
  2 13  1  0  0  0  0
  4  7  1  0  0  0  0
  5 14  2  0  0  0  0
  6  1  2  0  0  0  0
  7  3  2  0  0  0  0
  8 23  1  6  0  0  0
  8 13  1  0  0  0  0
 10 18  1  0  0  0  0
 11  4  1  0  0  0  0
 12  8  1  0  0  0  0
 12 16  1  0  0  0  0
 13 18  1  6  0  0  0
 14  1  1  0  0  0  0
 15  4  2  0  0  0  0
 15 20  1  0  0  0  0
 16 17  2  0  0  0  0
 16  5  1  0  0  0  0
 17  6  1  0  0  0  0
 19  3  1  0  0  0  0
 19 10  1  0  0  0  0
 20 19  2  0  0  0  0
 22 23  1  0  0  0  0
 22 21  2  0  0  0  0
 24 27  1  1  0  0  0
 24 28  1  0  0  0  0
 24 31  1  0  0  0  0
 25 30  1  0  0  0  0
 28 25  1  0  0  0  0
 29 30  1  0  0  0  0
 29 26  2  0  0  0  0
 30 22  1  1  0  0  0
 31 29  1  0  0  0  0
M  END
>  <MODEL>
8

>  <REMARK>
 VINA RESULT:      -7.6      2.373      7.149
  Name = 
  2 active torsions:
  status: ('A' for Active; 'I' for Inactive)
    1  A    between atoms: C_5  and  C_30
    2  A    between atoms: C_10  and  N_16
                            x       y       z     vdW  Elec       q    Type
                         _______ _______ _______ _____ _____    ______ ____

>  <TORSDO>
F 2

$$$$
=
 OpenBabel11112417033D

 31 35  0  0  1  0  0  0  0  0999 V2000
  186.0210  177.3930  142.7890 C   0  0  0  0  0  0  0  0  0  0  0  0
  188.5930  174.5970  142.7270 C   0  0  2  0  0  3  0  0  0  0  0  0
  188.9910  174.1530  141.3320 C   0  0  0  0  0  0  0  0  0  0  0  0
  188.6000  174.1000  138.9330 C   0  0  0  0  0  0  0  0  0  0  0  0
  187.9770  175.9640  142.7680 C   0  0  0  0  0  0  0  0  0  0  0  0
  186.8450  178.5220  142.8490 C   0  0  0  0  0  3  0  0  0  0  0  0
  188.2500  174.5510  140.2080 C   0  0  0  0  0  3  0  0  0  0  0  0
  190.7800  175.7290  143.6260 C   0  0  1  0  0  3  0  0  0  0  0  0
  184.6410  177.5410  142.7690 O   0  0  0  0  0  1  0  0  0  0  0  0
  190.8230  172.8110  142.2940 N   0  0  0  0  0  2  0  0  0  0  0  0
  187.8170  174.5400  137.7500 C   0  0  0  0  0  1  0  0  0  0  0  0
  190.2870  176.9320  142.8020 C   0  0  0  0  0  2  0  0  0  0  0  0
  189.7820  174.5320  143.7080 C   0  0  2  0  0  3  0  0  0  0  0  0
  186.5860  176.1150  142.7470 C   0  0  0  0  0  3  0  0  0  0  0  0
  189.6850  173.2360  138.7710 C   0  0  0  0  0  3  0  0  0  0  0  0
  188.8020  177.0970  142.8410 C   0  0  0  0  0  0  0  0  0  0  0  0
  188.2350  178.3740  142.8690 C   0  0  0  0  0  3  0  0  0  0  0  0
  190.4300  173.1440  143.6610 C   0  0  0  0  0  2  0  0  0  0  0  0
  190.0630  173.2520  141.1630 C   0  0  0  0  0  0  0  0  0  0  0  0
  190.4140  172.8110  139.8850 C   0  0  0  0  0  3  0  0  0  0  0  0
  193.2950  176.2040  144.9350 O   0  0  0  0  0  0  0  0  0  0  0  0
  193.3110  175.6050  143.8260 C   0  0  0  0  0  0  0  0  0  0  0  0
  192.0910  175.3170  143.1400 N   0  0  0  0  0  2  0  0  0  0  0  0
  196.4450  173.4860  144.8080 C   0  0  1  0  0  3  0  0  0  0  0  0
  194.7010  173.6830  143.0640 C   0  0  0  0  0  2  0  0  0  0  0  0
  196.0460  176.9670  143.9900 O   0  0  0  0  0  0  0  0  0  0  0  0
  196.8190  172.8680  146.1380 C   0  0  0  0  0  1  0  0  0  0  0  0
  195.0700  172.9990  144.3750 C   0  0  0  0  0  2  0  0  0  0  0  0
  195.7690  175.7410  144.0400 C   0  0  0  0  0  0  0  0  0  0  0  0
  194.6220  175.2040  143.2270 C   0  0  2  0  0  3  0  0  0  0  0  0
  196.4790  174.9090  144.9130 O   0  0  0  0  0  0  0  0  0  0  0  0
  1  6  1  0  0  0  0
  2  3  1  6  0  0  0
  2  5  1  0  0  0  0
  2 13  1  0  0  0  0
  4  7  1  0  0  0  0
  5 16  2  0  0  0  0
  6 17  2  0  0  0  0
  7  3  2  0  0  0  0
  8 23  1  6  0  0  0
  8 13  1  0  0  0  0
  9  1  1  0  0  0  0
 10 18  1  0  0  0  0
 11  4  1  0  0  0  0
 12 16  1  0  0  0  0
 12  8  1  0  0  0  0
 13 18  1  6  0  0  0
 14  5  1  0  0  0  0
 14  1  2  0  0  0  0
 15  4  2  0  0  0  0
 15 20  1  0  0  0  0
 16 17  1  0  0  0  0
 19  3  1  0  0  0  0
 19 10  1  0  0  0  0
 20 19  2  0  0  0  0
 22 21  2  0  0  0  0
 23 22  1  0  0  0  0
 24 31  1  0  0  0  0
 24 27  1  1  0  0  0
 25 30  1  0  0  0  0
 25 28  1  0  0  0  0
 26 29  2  0  0  0  0
 28 24  1  0  0  0  0
 29 31  1  0  0  0  0
 30 22  1  1  0  0  0
 30 29  1  0  0  0  0
M  END
>  <MODEL>
9

>  <REMARK>
 VINA RESULT:      -7.5      2.675      7.458
  Name = 
  2 active torsions:
  status: ('A' for Active; 'I' for Inactive)
    1  A    between atoms: C_5  and  C_30
    2  A    between atoms: C_10  and  N_16
                            x       y       z     vdW  Elec       q    Type
                         _______ _______ _______ _____ _____    ______ ____

>  <TORSDO>
F 2

$$$$
