=
 OpenBabel11112417453D

 34 41  0  0  1  0  0  0  0  0999 V2000
  189.5480  174.7620  142.6800 C   0  0  0  0  0  0  0  0  0  0  0  0
  191.7740  173.5730  142.3740 C   0  0  0  0  0  2  0  0  0  0  0  0
  185.1430  178.6550  146.0840 C   0  0  0  0  0  0  0  0  0  0  0  0
  187.6500  176.2040  143.0390 C   0  0  0  0  0  0  0  0  0  0  0  0
  187.2360  177.2890  145.1920 C   0  0  0  0  0  0  0  0  0  0  0  0
  186.6160  178.5170  147.4790 C   0  0  0  0  0  2  0  0  0  0  0  0
  185.3240  179.1340  147.4860 C   0  0  0  0  0  2  0  0  0  0  0  0
  184.4130  178.1100  143.8370 C   0  0  0  0  0  3  0  0  0  0  0  0
  190.9510  173.9590  144.6140 C   0  0  2  0  0  3  0  0  0  0  0  0
  193.2530  175.1840  146.5340 C   0  0  0  0  0  3  0  0  0  0  0  0
  188.6320  176.8980  145.6080 C   0  0  0  0  0  2  0  0  0  0  0  0
  185.4640  177.4170  143.3640 C   0  0  0  0  0  3  0  0  0  0  0  0
  190.5140  175.2430  145.3420 C   0  0  1  0  0  3  0  0  0  0  0  0
  192.8030  173.0360  143.3560 C   0  0  0  0  0  2  0  0  0  0  0  0
  186.7840  177.0110  143.9410 C   0  0  0  0  0  0  0  0  0  0  0  0
  184.2190  178.7280  145.1530 C   0  0  0  0  0  3  0  0  0  0  0  0
  193.3080  174.8300  145.0700 C   0  0  2  0  0  3  0  0  0  0  0  0
  188.7570  175.5170  143.5550 C   0  0  0  0  0  0  0  0  0  0  0  0
  186.4660  178.0370  146.1230 N   0  0  0  0  0  0  0  0  0  0  0  0
  189.0370  175.5380  145.0390 C   0  0  2  0  0  3  0  0  0  0  0  0
  188.1730  175.4040  140.8680 C   0  0  0  0  0  3  0  0  0  0  0  0
  192.1420  175.3160  147.2780 C   0  0  0  0  0  3  0  0  0  0  0  0
  187.3840  176.1290  141.7040 N   0  0  0  0  0  0  0  0  0  0  0  0
  190.7260  175.0500  146.8380 C   0  0  0  0  0  2  0  0  0  0  0  0
  192.4400  173.6020  144.7320 C   0  0  1  0  0  3  0  0  0  0  0  0
  189.2480  174.7300  141.3540 N   0  0  0  0  0  0  0  0  0  0  0  0
  190.6850  174.0590  143.1920 N   0  0  0  0  0  0  0  0  0  0  0  0
  194.6420  174.6140  144.7110 O   0  0  0  0  0  0  0  0  0  0  0  0
  195.3660  174.8080  145.8910 C   0  0  0  0  0  2  0  0  0  0  0  0
  196.9010  171.9450  144.5490 C   0  0  0  0  0  2  0  0  0  0  0  0
  197.4610  174.1840  144.7010 C   0  0  0  0  0  2  0  0  0  0  0  0
  196.5880  173.9070  145.9040 C   0  0  2  0  0  3  0  0  0  0  0  0
  197.9410  172.9040  144.2070 N   0  0  0  0  0  2  0  0  0  0  0  0
  196.1660  172.4660  145.7650 C   0  0  0  0  0  2  0  0  0  0  0  0
  1 27  1  0  0  0  0
  1 18  1  0  0  0  0
  2 27  1  0  0  0  0
  2 14  1  0  0  0  0
  3 19  1  0  0  0  0
  3  7  1  0  0  0  0
  4 18  2  0  0  0  0
  4 15  1  0  0  0  0
  5 11  1  0  0  0  0
  5 19  1  0  0  0  0
  6  7  1  0  0  0  0
  8 16  1  0  0  0  0
  9 27  1  6  0  0  0
  9 25  1  0  0  0  0
  9 13  1  0  0  0  0
 10 22  2  0  0  0  0
 12  8  2  0  0  0  0
 12 15  1  0  0  0  0
 13 24  1  1  0  0  0
 15  5  2  0  0  0  0
 16  3  2  0  0  0  0
 17 28  1  1  0  0  0
 17 10  1  0  0  0  0
 18 20  1  0  0  0  0
 19  6  1  0  0  0  0
 20 13  1  0  0  0  0
 20 11  1  6  0  0  0
 21 26  1  0  0  0  0
 21 23  2  0  0  0  0
 23  4  1  0  0  0  0
 24 22  1  0  0  0  0
 25 14  1  6  0  0  0
 25 17  1  0  0  0  0
 26  1  2  0  0  0  0
 28 29  1  0  0  0  0
 30 34  1  0  0  0  0
 31 32  1  0  0  0  0
 32 29  1  6  0  0  0
 33 30  1  0  0  0  0
 33 31  1  0  0  0  0
 34 32  1  0  0  0  0
M  END
>  <MODEL>
1

>  <REMARK>
 VINA RESULT:      -9.2      0.000      0.000
  Name = 
  3 active torsions:
  status: ('A' for Active; 'I' for Inactive)
    1  A    between atoms: C_17  and  O_28
    2  A    between atoms: O_28  and  C_29
    3  A    between atoms: C_29  and  C_32
                            x       y       z     vdW  Elec       q    Type
                         _______ _______ _______ _____ _____    ______ ____

>  <TORSDO>
F 3

$$$$
=
 OpenBabel11112417453D

 34 41  0  0  1  0  0  0  0  0999 V2000
  189.4240  174.9420  142.6380 C   0  0  0  0  0  0  0  0  0  0  0  0
  191.6560  173.7780  142.2800 C   0  0  0  0  0  2  0  0  0  0  0  0
  184.9980  178.6510  146.2140 C   0  0  0  0  0  0  0  0  0  0  0  0
  187.5190  176.3570  143.0610 C   0  0  0  0  0  0  0  0  0  0  0  0
  187.0980  177.3370  145.2630 C   0  0  0  0  0  0  0  0  0  0  0  0
  186.4690  178.4530  147.6040 C   0  0  0  0  0  2  0  0  0  0  0  0
  185.1740  179.0640  147.6380 C   0  0  0  0  0  2  0  0  0  0  0  0
  184.2730  178.2090  143.9420 C   0  0  0  0  0  3  0  0  0  0  0  0
  190.8280  174.0540  144.5340 C   0  0  2  0  0  3  0  0  0  0  0  0
  193.1220  175.1960  146.5140 C   0  0  0  0  0  3  0  0  0  0  0  0
  188.4950  176.9330  145.6620 C   0  0  0  0  0  2  0  0  0  0  0  0
  185.3280  177.5440  143.4400 C   0  0  0  0  0  3  0  0  0  0  0  0
  190.3840  175.3000  145.3220 C   0  0  1  0  0  3  0  0  0  0  0  0
  192.6860  173.2000  143.2370 C   0  0  0  0  0  2  0  0  0  0  0  0
  186.6490  177.1160  143.9990 C   0  0  0  0  0  0  0  0  0  0  0  0
  184.0750  178.7630  145.2870 C   0  0  0  0  0  3  0  0  0  0  0  0
  193.1800  174.9120  145.0350 C   0  0  2  0  0  3  0  0  0  0  0  0
  188.6280  175.6510  143.5460 C   0  0  0  0  0  0  0  0  0  0  0  0
  186.3230  178.0370  146.2260 N   0  0  0  0  0  0  0  0  0  0  0  0
  188.9060  175.6030  145.0300 C   0  0  2  0  0  3  0  0  0  0  0  0
  188.0500  175.6640  140.8560 C   0  0  0  0  0  3  0  0  0  0  0  0
  192.0090  175.2890  147.2620 C   0  0  0  0  0  3  0  0  0  0  0  0
  187.2570  176.3440  141.7240 N   0  0  0  0  0  0  0  0  0  0  0  0
  190.5950  175.0380  146.8060 C   0  0  0  0  0  2  0  0  0  0  0  0
  192.3180  173.6980  144.6380 C   0  0  1  0  0  3  0  0  0  0  0  0
  189.1270  174.9710  141.3110 N   0  0  0  0  0  0  0  0  0  0  0  0
  190.5630  174.2200  143.1180 N   0  0  0  0  0  0  0  0  0  0  0  0
  194.5160  174.7190  144.6690 O   0  0  0  0  0  0  0  0  0  0  0  0
  195.0080  176.0030  144.4160 C   0  0  0  0  0  2  0  0  0  0  0  0
  195.7810  174.2250  141.4830 C   0  0  0  0  0  2  0  0  0  0  0  0
  194.6820  176.2050  141.9570 C   0  0  0  0  0  2  0  0  0  0  0  0
  195.6980  176.0370  143.0640 C   0  0  2  0  0  3  0  0  0  0  0  0
  195.0860  175.3410  140.8590 N   0  0  0  0  0  2  0  0  0  0  0  0
  196.3630  174.7110  142.7930 C   0  0  0  0  0  2  0  0  0  0  0  0
  1 27  1  0  0  0  0
  1 18  1  0  0  0  0
  2 27  1  0  0  0  0
  2 14  1  0  0  0  0
  3 19  1  0  0  0  0
  3  7  1  0  0  0  0
  4 18  2  0  0  0  0
  4 15  1  0  0  0  0
  5 11  1  0  0  0  0
  5 19  1  0  0  0  0
  6  7  1  0  0  0  0
  8 16  1  0  0  0  0
  9 27  1  6  0  0  0
  9 25  1  0  0  0  0
  9 13  1  0  0  0  0
 10 22  2  0  0  0  0
 12  8  2  0  0  0  0
 12 15  1  0  0  0  0
 13 24  1  1  0  0  0
 15  5  2  0  0  0  0
 16  3  2  0  0  0  0
 17 28  1  1  0  0  0
 17 10  1  0  0  0  0
 18 20  1  0  0  0  0
 19  6  1  0  0  0  0
 20 13  1  0  0  0  0
 20 11  1  6  0  0  0
 21 26  1  0  0  0  0
 21 23  2  0  0  0  0
 23  4  1  0  0  0  0
 24 22  1  0  0  0  0
 25 14  1  6  0  0  0
 25 17  1  0  0  0  0
 26  1  2  0  0  0  0
 29 28  1  0  0  0  0
 30 34  1  0  0  0  0
 31 32  1  0  0  0  0
 32 29  1  1  0  0  0
 33 30  1  0  0  0  0
 33 31  1  0  0  0  0
 34 32  1  0  0  0  0
M  END
>  <MODEL>
2

>  <REMARK>
 VINA RESULT:      -8.9      1.446      1.650
  Name = 
  3 active torsions:
  status: ('A' for Active; 'I' for Inactive)
    1  A    between atoms: C_17  and  O_28
    2  A    between atoms: O_28  and  C_29
    3  A    between atoms: C_29  and  C_32
                            x       y       z     vdW  Elec       q    Type
                         _______ _______ _______ _____ _____    ______ ____

>  <TORSDO>
F 3

$$$$
=
 OpenBabel11112417453D

 34 41  0  0  1  0  0  0  0  0999 V2000
  192.2660  176.0960  145.8540 C   0  0  0  0  0  0  0  0  0  0  0  0
  189.9990  176.2280  146.9970 C   0  0  0  0  0  2  0  0  0  0  0  0
  196.3290  175.4460  140.4490 C   0  0  0  0  0  0  0  0  0  0  0  0
  194.2800  176.2480  144.5380 C   0  0  0  0  0  0  0  0  0  0  0  0
  194.3110  175.7160  142.1500 C   0  0  0  0  0  0  0  0  0  0  0  0
  194.5290  175.1390  139.5540 C   0  0  0  0  0  2  0  0  0  0  0  0
  195.8760  175.1020  139.0690 C   0  0  0  0  0  2  0  0  0  0  0  0
  197.5180  175.9940  142.4900 C   0  0  0  0  0  3  0  0  0  0  0  0
  190.2020  174.9720  144.9410 C   0  0  2  0  0  3  0  0  0  0  0  0
  187.8350  175.7090  142.8580 C   0  0  0  0  0  3  0  0  0  0  0  0
  192.8020  175.7300  142.1720 C   0  0  0  0  0  2  0  0  0  0  0  0
  196.5100  176.1380  143.3680 C   0  0  0  0  0  3  0  0  0  0  0  0
  190.7210  175.3610  143.5450 C   0  0  1  0  0  3  0  0  0  0  0  0
  188.6260  175.6820  146.6380 C   0  0  0  0  0  2  0  0  0  0  0  0
  195.0210  176.0230  143.2680 C   0  0  0  0  0  0  0  0  0  0  0  0
  197.4710  175.6580  141.0630 C   0  0  0  0  0  3  0  0  0  0  0  0
  188.1210  176.2690  144.2270 C   0  0  2  0  0  3  0  0  0  0  0  0
  192.9330  175.8760  144.6420 C   0  0  0  0  0  0  0  0  0  0  0  0
  194.9400  175.4690  140.9010 N   0  0  0  0  0  0  0  0  0  0  0  0
  192.2470  175.1840  143.4880 C   0  0  2  0  0  3  0  0  0  0  0  0
  194.2260  177.0440  146.7720 C   0  0  0  0  0  3  0  0  0  0  0  0
  188.6750  174.9750  142.1080 C   0  0  0  0  0  3  0  0  0  0  0  0
  194.8950  176.8230  145.6100 N   0  0  0  0  0  0  0  0  0  0  0  0
  190.0400  174.4790  142.5090 C   0  0  0  0  0  2  0  0  0  0  0  0
  188.7040  175.2100  145.1820 C   0  0  1  0  0  3  0  0  0  0  0  0
  192.9210  176.6850  146.8890 N   0  0  0  0  0  0  0  0  0  0  0  0
  190.8880  175.7250  145.9730 N   0  0  0  0  0  0  0  0  0  0  0  0
  186.9410  176.8140  144.7430 O   0  0  0  0  0  0  0  0  0  0  0  0
  186.8940  178.1140  144.2340 C   0  0  0  0  0  2  0  0  0  0  0  0
  183.9000  178.6640  145.9930 C   0  0  0  0  0  2  0  0  0  0  0  0
  186.1240  178.4220  146.5800 C   0  0  0  0  0  2  0  0  0  0  0  0
  186.1410  179.0200  145.1920 C   0  0  2  0  0  3  0  0  0  0  0  0
  184.8000  178.6460  147.1360 N   0  0  0  0  0  2  0  0  0  0  0  0
  184.6920  179.1110  144.7830 C   0  0  0  0  0  2  0  0  0  0  0  0
  1 27  1  0  0  0  0
  1 26  1  0  0  0  0
  3 19  1  0  0  0  0
  3 16  2  0  0  0  0
  4 18  1  0  0  0  0
  4 23  2  0  0  0  0
  5 11  1  0  0  0  0
  5 15  2  0  0  0  0
  6 19  1  0  0  0  0
  7  6  1  0  0  0  0
  7  3  1  0  0  0  0
  8 12  2  0  0  0  0
  9 25  1  0  0  0  0
  9 27  1  1  0  0  0
 10 17  1  0  0  0  0
 13 24  1  6  0  0  0
 13  9  1  0  0  0  0
 14  2  1  0  0  0  0
 15 12  1  0  0  0  0
 15  4  1  0  0  0  0
 16  8  1  0  0  0  0
 17 28  1  1  0  0  0
 17 25  1  0  0  0  0
 18  1  2  0  0  0  0
 19  5  1  0  0  0  0
 20 11  1  6  0  0  0
 20 13  1  0  0  0  0
 20 18  1  0  0  0  0
 21 26  2  0  0  0  0
 22 24  1  0  0  0  0
 22 10  2  0  0  0  0
 23 21  1  0  0  0  0
 25 14  1  1  0  0  0
 27  2  1  0  0  0  0
 29 28  1  0  0  0  0
 30 33  1  0  0  0  0
 31 33  1  0  0  0  0
 32 29  1  6  0  0  0
 32 31  1  0  0  0  0
 34 32  1  0  0  0  0
 34 30  1  0  0  0  0
M  END
>  <MODEL>
3

>  <REMARK>
 VINA RESULT:      -8.6      3.023      9.135
  Name = 
  3 active torsions:
  status: ('A' for Active; 'I' for Inactive)
    1  A    between atoms: C_17  and  O_28
    2  A    between atoms: O_28  and  C_29
    3  A    between atoms: C_29  and  C_32
                            x       y       z     vdW  Elec       q    Type
                         _______ _______ _______ _____ _____    ______ ____

>  <TORSDO>
F 3

$$$$
=
 OpenBabel11112417453D

 34 41  0  0  1  0  0  0  0  0999 V2000
  189.0010  175.1600  142.2360 C   0  0  0  0  0  0  0  0  0  0  0  0
  191.1470  173.9040  141.7070 C   0  0  0  0  0  2  0  0  0  0  0  0
  184.9020  178.7780  146.2660 C   0  0  0  0  0  0  0  0  0  0  0  0
  187.1980  176.6410  142.8430 C   0  0  0  0  0  0  0  0  0  0  0  0
  186.8930  177.4360  145.1370 C   0  0  0  0  0  0  0  0  0  0  0  0
  186.3910  178.3650  147.5870 C   0  0  0  0  0  2  0  0  0  0  0  0
  185.1380  179.0460  147.7150 C   0  0  0  0  0  2  0  0  0  0  0  0
  184.0960  178.5920  143.9860 C   0  0  0  0  0  3  0  0  0  0  0  0
  190.3930  174.0190  144.0010 C   0  0  2  0  0  3  0  0  0  0  0  0
  192.8010  174.8350  146.0060 C   0  0  0  0  0  3  0  0  0  0  0  0
  188.2710  176.9140  145.4550 C   0  0  0  0  0  2  0  0  0  0  0  0
  185.0940  177.9150  143.3940 C   0  0  0  0  0  3  0  0  0  0  0  0
  190.0470  175.2100  144.9110 C   0  0  1  0  0  3  0  0  0  0  0  0
  192.1620  173.1790  142.5760 C   0  0  0  0  0  2  0  0  0  0  0  0
  186.4000  177.3600  143.8720 C   0  0  0  0  0  0  0  0  0  0  0  0
  183.9650  179.0310  145.3810 C   0  0  0  0  0  3  0  0  0  0  0  0
  192.8050  174.6850  144.5060 C   0  0  2  0  0  3  0  0  0  0  0  0
  188.2730  175.8280  143.2280 C   0  0  0  0  0  0  0  0  0  0  0  0
  186.1860  178.0880  146.1820 N   0  0  0  0  0  0  0  0  0  0  0  0
  188.5840  175.6260  144.6930 C   0  0  2  0  0  3  0  0  0  0  0  0
  187.6310  176.1240  140.5690 C   0  0  0  0  0  3  0  0  0  0  0  0
  191.7150  174.9230  146.7920 C   0  0  0  0  0  3  0  0  0  0  0  0
  186.9030  176.7670  141.5190 N   0  0  0  0  0  0  0  0  0  0  0  0
  190.2770  174.8000  146.3590 C   0  0  0  0  0  2  0  0  0  0  0  0
  191.8610  173.5670  144.0270 C   0  0  1  0  0  3  0  0  0  0  0  0
  188.6740  175.3300  140.9270 N   0  0  0  0  0  0  0  0  0  0  0  0
  190.1050  174.3300  142.6140 N   0  0  0  0  0  0  0  0  0  0  0  0
  194.1180  174.4480  144.0840 O   0  0  0  0  0  0  0  0  0  0  0  0
  194.7470  173.8590  145.1850 C   0  0  0  0  0  2  0  0  0  0  0  0
  196.8090  171.1760  146.1410 C   0  0  0  0  0  2  0  0  0  0  0  0
  194.6070  171.3900  145.4640 C   0  0  0  0  0  2  0  0  0  0  0  0
  195.3450  172.5220  144.7860 C   0  0  2  0  0  3  0  0  0  0  0  0
  195.5980  170.4120  145.8830 N   0  0  0  0  0  2  0  0  0  0  0  0
  196.7650  172.4240  145.2840 C   0  0  0  0  0  2  0  0  0  0  0  0
  1 27  1  0  0  0  0
  1 18  1  0  0  0  0
  2 14  1  0  0  0  0
  2 27  1  0  0  0  0
  3  7  1  0  0  0  0
  4 18  2  0  0  0  0
  4 15  1  0  0  0  0
  5 11  1  0  0  0  0
  5 19  1  0  0  0  0
  6  7  1  0  0  0  0
  8 16  1  0  0  0  0
  9 27  1  6  0  0  0
  9 25  1  0  0  0  0
  9 13  1  0  0  0  0
 10 22  2  0  0  0  0
 12 15  1  0  0  0  0
 12  8  2  0  0  0  0
 13 24  1  1  0  0  0
 15  5  2  0  0  0  0
 16  3  2  0  0  0  0
 17 28  1  1  0  0  0
 17 10  1  0  0  0  0
 18 20  1  0  0  0  0
 19  3  1  0  0  0  0
 19  6  1  0  0  0  0
 20 13  1  0  0  0  0
 20 11  1  1  0  0  0
 21 26  1  0  0  0  0
 21 23  2  0  0  0  0
 23  4  1  0  0  0  0
 24 22  1  0  0  0  0
 25 14  1  6  0  0  0
 25 17  1  0  0  0  0
 26  1  2  0  0  0  0
 28 29  1  0  0  0  0
 31 33  1  0  0  0  0
 32 29  1  1  0  0  0
 32 34  1  0  0  0  0
 32 31  1  0  0  0  0
 33 30  1  0  0  0  0
 34 30  1  0  0  0  0
M  END
>  <MODEL>
4

>  <REMARK>
 VINA RESULT:      -8.5      1.051      1.273
  Name = 
  3 active torsions:
  status: ('A' for Active; 'I' for Inactive)
    1  A    between atoms: C_17  and  O_28
    2  A    between atoms: O_28  and  C_29
    3  A    between atoms: C_29  and  C_32
                            x       y       z     vdW  Elec       q    Type
                         _______ _______ _______ _____ _____    ______ ____

>  <TORSDO>
F 3

$$$$
=
 OpenBabel11112417453D

 34 41  0  0  1  0  0  0  0  0999 V2000
  188.7880  177.2640  146.3200 C   0  0  0  0  0  0  0  0  0  0  0  0
  190.8520  176.5850  147.6400 C   0  0  0  0  0  2  0  0  0  0  0  0
  185.1150  177.8380  140.6350 C   0  0  0  0  0  0  0  0  0  0  0  0
  186.8320  177.5430  144.9400 C   0  0  0  0  0  0  0  0  0  0  0  0
  186.9200  177.3050  142.5060 C   0  0  0  0  0  0  0  0  0  0  0  0
  186.8450  177.1200  139.8450 C   0  0  0  0  0  2  0  0  0  0  0  0
  185.6100  177.5450  139.2580 C   0  0  0  0  0  2  0  0  0  0  0  0
  183.8920  178.4450  142.6400 C   0  0  0  0  0  3  0  0  0  0  0  0
  191.0900  177.1430  145.2990 C   0  0  2  0  0  3  0  0  0  0  0  0
  192.8660  174.9390  143.7250 C   0  0  0  0  0  3  0  0  0  0  0  0
  188.2920  176.6980  142.6580 C   0  0  0  0  0  2  0  0  0  0  0  0
  184.7910  178.1790  143.6040 C   0  0  0  0  0  3  0  0  0  0  0  0
  190.4000  176.5970  144.0370 C   0  0  1  0  0  3  0  0  0  0  0  0
  192.3120  176.4040  147.2560 C   0  0  0  0  0  2  0  0  0  0  0  0
  186.1930  177.6550  143.6000 C   0  0  0  0  0  0  0  0  0  0  0  0
  184.0120  178.2920  141.1850 C   0  0  0  0  0  3  0  0  0  0  0  0
  192.4340  174.9760  145.1690 C   0  0  2  0  0  3  0  0  0  0  0  0
  188.2180  177.3600  145.0450 C   0  0  0  0  0  0  0  0  0  0  0  0
  186.3930  177.3990  141.1900 N   0  0  0  0  0  0  0  0  0  0  0  0
  189.0760  177.3420  143.8030 C   0  0  2  0  0  3  0  0  0  0  0  0
  186.6520  177.4970  147.3040 C   0  0  0  0  0  3  0  0  0  0  0  0
  192.3640  175.6880  142.7270 C   0  0  0  0  0  3  0  0  0  0  0  0
  186.0830  177.6090  146.0760 N   0  0  0  0  0  0  0  0  0  0  0  0
  191.3370  176.7820  142.8510 C   0  0  0  0  0  2  0  0  0  0  0  0
  192.3720  176.4110  145.7250 C   0  0  1  0  0  3  0  0  0  0  0  0
  187.9940  177.3220  147.4230 N   0  0  0  0  0  0  0  0  0  0  0  0
  190.2020  177.0710  146.4430 N   0  0  0  0  0  0  0  0  0  0  0  0
  193.3130  174.1860  145.9180 O   0  0  0  0  0  0  0  0  0  0  0  0
  194.2820  173.7620  145.0040 C   0  0  0  0  0  2  0  0  0  0  0  0
  197.5650  172.5060  145.0130 C   0  0  0  0  0  2  0  0  0  0  0  0
  196.6130  174.5960  144.7450 C   0  0  0  0  0  2  0  0  0  0  0  0
  195.6590  173.8340  145.6380 C   0  0  2  0  0  3  0  0  0  0  0  0
  197.8900  173.9050  144.7800 N   0  0  0  0  0  2  0  0  0  0  0  0
  196.2460  172.4500  145.7530 C   0  0  0  0  0  2  0  0  0  0  0  0
  1 27  1  0  0  0  0
  1 26  1  0  0  0  0
  3 16  2  0  0  0  0
  3 19  1  0  0  0  0
  4 18  1  0  0  0  0
  4 23  2  0  0  0  0
  5 11  1  0  0  0  0
  5 15  2  0  0  0  0
  6 19  1  0  0  0  0
  7  6  1  0  0  0  0
  7  3  1  0  0  0  0
  8 12  2  0  0  0  0
  9 25  1  0  0  0  0
  9 27  1  1  0  0  0
 10 17  1  0  0  0  0
 13 24  1  6  0  0  0
 13  9  1  0  0  0  0
 14  2  1  0  0  0  0
 15 12  1  0  0  0  0
 15  4  1  0  0  0  0
 16  8  1  0  0  0  0
 17 25  1  0  0  0  0
 17 28  1  1  0  0  0
 18  1  2  0  0  0  0
 19  5  1  0  0  0  0
 20 11  1  6  0  0  0
 20 13  1  0  0  0  0
 20 18  1  0  0  0  0
 21 26  2  0  0  0  0
 22 24  1  0  0  0  0
 22 10  2  0  0  0  0
 23 21  1  0  0  0  0
 25 14  1  1  0  0  0
 27  2  1  0  0  0  0
 29 28  1  0  0  0  0
 30 34  1  0  0  0  0
 31 33  1  0  0  0  0
 31 32  1  0  0  0  0
 32 29  1  6  0  0  0
 32 34  1  0  0  0  0
 33 30  1  0  0  0  0
M  END
>  <MODEL>
5

>  <REMARK>
 VINA RESULT:      -8.4      1.784      3.992
  Name = 
  3 active torsions:
  status: ('A' for Active; 'I' for Inactive)
    1  A    between atoms: C_17  and  O_28
    2  A    between atoms: O_28  and  C_29
    3  A    between atoms: C_29  and  C_32
                            x       y       z     vdW  Elec       q    Type
                         _______ _______ _______ _____ _____    ______ ____

>  <TORSDO>
F 3

$$$$
=
 OpenBabel11112417453D

 34 41  0  0  1  0  0  0  0  0999 V2000
  192.3680  175.7310  145.7370 C   0  0  0  0  0  0  0  0  0  0  0  0
  190.3950  177.3160  145.4970 C   0  0  0  0  0  2  0  0  0  0  0  0
  195.8290  170.0610  144.3180 C   0  0  0  0  0  0  0  0  0  0  0  0
  194.2600  174.2450  145.5810 C   0  0  0  0  0  0  0  0  0  0  0  0
  194.1210  172.0880  144.4340 C   0  0  0  0  0  0  0  0  0  0  0  0
  194.1330  169.6920  143.2590 C   0  0  0  0  0  2  0  0  0  0  0  0
  195.3170  168.9240  143.4980 C   0  0  0  0  0  2  0  0  0  0  0  0
  197.0620  171.6220  145.7050 C   0  0  0  0  0  3  0  0  0  0  0  0
  190.0530  174.9540  145.1130 C   0  0  2  0  0  3  0  0  0  0  0  0
  188.3940  174.4210  142.3830 C   0  0  0  0  0  3  0  0  0  0  0  0
  192.7990  172.5290  143.8560 C   0  0  0  0  0  2  0  0  0  0  0  0
  196.2120  172.6620  145.7750 C   0  0  0  0  0  3  0  0  0  0  0  0
  190.7440  173.9550  144.1680 C   0  0  1  0  0  3  0  0  0  0  0  0
  188.9420  177.1060  145.1030 C   0  0  0  0  0  2  0  0  0  0  0  0
  194.8510  172.9300  145.2120 C   0  0  0  0  0  0  0  0  0  0  0  0
  196.9120  170.3410  145.0070 C   0  0  0  0  0  3  0  0  0  0  0  0
  188.8630  175.7190  142.9870 C   0  0  2  0  0  3  0  0  0  0  0  0
  192.8940  174.4850  145.3750 C   0  0  0  0  0  0  0  0  0  0  0  0
  194.6020  170.8080  144.0520 N   0  0  0  0  0  0  0  0  0  0  0  0
  192.0050  173.3880  144.8410 C   0  0  2  0  0  3  0  0  0  0  0  0
  194.5090  176.4400  146.4440 C   0  0  0  0  0  3  0  0  0  0  0  0
  188.8130  173.1900  142.7240 C   0  0  0  0  0  3  0  0  0  0  0  0
  195.0340  175.2320  146.1130 N   0  0  0  0  0  0  0  0  0  0  0  0
  189.7640  172.8380  143.8380 C   0  0  0  0  0  2  0  0  0  0  0  0
  188.8390  175.6910  144.5270 C   0  0  1  0  0  3  0  0  0  0  0  0
  193.1870  176.6860  146.2530 N   0  0  0  0  0  0  0  0  0  0  0  0
  190.9760  175.9920  145.5290 N   0  0  0  0  0  0  0  0  0  0  0  0
  188.0640  176.7560  142.4930 O   0  0  0  0  0  0  0  0  0  0  0  0
  186.7950  176.1900  142.3420 C   0  0  0  0  0  2  0  0  0  0  0  0
  185.6290  178.6260  144.5920 C   0  0  0  0  0  2  0  0  0  0  0  0
  186.2500  178.6180  142.3640 C   0  0  0  0  0  2  0  0  0  0  0  0
  185.7260  177.2270  142.6380 C   0  0  2  0  0  3  0  0  0  0  0  0
  185.7630  179.4840  143.4250 N   0  0  0  0  0  2  0  0  0  0  0  0
  185.3890  177.2130  144.1070 C   0  0  0  0  0  2  0  0  0  0  0  0
  1 26  1  0  0  0  0
  2 27  1  0  0  0  0
  3 16  2  0  0  0  0
  4 23  2  0  0  0  0
  5 15  2  0  0  0  0
  6  7  1  0  0  0  0
  6 19  1  0  0  0  0
  7  3  1  0  0  0  0
  8 12  2  0  0  0  0
  9 27  1  6  0  0  0
 10 22  2  0  0  0  0
 10 17  1  0  0  0  0
 11  5  1  0  0  0  0
 13 24  1  1  0  0  0
 13 20  1  0  0  0  0
 13  9  1  0  0  0  0
 14  2  1  0  0  0  0
 15  4  1  0  0  0  0
 15 12  1  0  0  0  0
 16  8  1  0  0  0  0
 17 28  1  6  0  0  0
 17 25  1  0  0  0  0
 18  4  1  0  0  0  0
 18  1  2  0  0  0  0
 19  3  1  0  0  0  0
 19  5  1  0  0  0  0
 20 11  1  6  0  0  0
 20 18  1  0  0  0  0
 22 24  1  0  0  0  0
 23 21  1  0  0  0  0
 25 14  1  1  0  0  0
 25  9  1  0  0  0  0
 26 21  2  0  0  0  0
 27  1  1  0  0  0  0
 29 28  1  0  0  0  0
 31 32  1  0  0  0  0
 31 33  1  0  0  0  0
 32 29  1  1  0  0  0
 32 34  1  0  0  0  0
 33 30  1  0  0  0  0
 34 30  1  0  0  0  0
M  END
>  <MODEL>
6

>  <REMARK>
 VINA RESULT:      -8.2      2.404      9.256
  Name = 
  3 active torsions:
  status: ('A' for Active; 'I' for Inactive)
    1  A    between atoms: C_17  and  O_28
    2  A    between atoms: O_28  and  C_29
    3  A    between atoms: C_29  and  C_32
                            x       y       z     vdW  Elec       q    Type
                         _______ _______ _______ _____ _____    ______ ____

>  <TORSDO>
F 3

$$$$
=
 OpenBabel11112417453D

 34 41  0  0  1  0  0  0  0  0999 V2000
  189.9430  174.6710  144.8880 C   0  0  0  0  0  0  0  0  0  0  0  0
  191.5740  172.9810  143.9170 C   0  0  0  0  0  2  0  0  0  0  0  0
  184.4170  178.6160  144.6720 C   0  0  0  0  0  0  0  0  0  0  0  0
  188.1220  176.0180  145.7140 C   0  0  0  0  0  0  0  0  0  0  0  0
  186.3680  176.8710  144.2360 C   0  0  0  0  0  0  0  0  0  0  0  0
  184.4010  177.9120  142.7640 C   0  0  0  0  0  2  0  0  0  0  0  0
  183.5740  178.8490  143.4620 C   0  0  0  0  0  2  0  0  0  0  0  0
  185.4760  178.5570  146.8520 C   0  0  0  0  0  3  0  0  0  0  0  0
  190.3660  174.4390  142.4140 C   0  0  2  0  0  3  0  0  0  0  0  0
  189.0780  172.7940  139.9390 C   0  0  0  0  0  3  0  0  0  0  0  0
  186.8740  175.9350  143.1670 C   0  0  0  0  0  2  0  0  0  0  0  0
  186.4700  177.6740  146.6540 C   0  0  0  0  0  3  0  0  0  0  0  0
  188.8620  174.7040  142.2260 C   0  0  1  0  0  3  0  0  0  0  0  0
  191.9710  172.6270  142.4920 C   0  0  0  0  0  2  0  0  0  0  0  0
  186.9260  176.8700  145.4760 C   0  0  0  0  0  0  0  0  0  0  0  0
  184.4570  179.0410  145.9140 C   0  0  0  0  0  3  0  0  0  0  0  0
  189.8700  172.2940  141.1200 C   0  0  2  0  0  3  0  0  0  0  0  0
  188.8170  175.4640  144.6300 C   0  0  0  0  0  0  0  0  0  0  0  0
  185.2360  177.6690  143.9200 N   0  0  0  0  0  0  0  0  0  0  0  0
  188.3940  175.7830  143.2160 C   0  0  2  0  0  3  0  0  0  0  0  0
  189.6370  174.9750  147.2110 C   0  0  0  0  0  3  0  0  0  0  0  0
  188.5110  174.0070  139.8190 C   0  0  0  0  0  3  0  0  0  0  0  0
  188.5520  175.7600  146.9810 N   0  0  0  0  0  0  0  0  0  0  0  0
  188.6210  175.1520  140.7910 C   0  0  0  0  0  2  0  0  0  0  0  0
  190.9490  173.2970  141.5680 C   0  0  1  0  0  3  0  0  0  0  0  0
  190.3230  174.4330  146.1710 N   0  0  0  0  0  0  0  0  0  0  0  0
  190.6600  174.0940  143.7910 N   0  0  0  0  0  0  0  0  0  0  0  0
  190.4390  171.0600  140.7870 O   0  0  0  0  0  0  0  0  0  0  0  0
  190.4390  171.0310  139.3890 C   0  0  0  0  0  2  0  0  0  0  0  0
  193.8750  171.7730  139.3550 C   0  0  0  0  0  2  0  0  0  0  0  0
  192.6010  169.9430  139.9690 C   0  0  0  0  0  2  0  0  0  0  0  0
  191.8120  170.6320  138.8780 C   0  0  2  0  0  3  0  0  0  0  0  0
  193.9710  170.4210  139.8840 N   0  0  0  0  0  2  0  0  0  0  0  0
  192.6090  171.8630  138.5300 C   0  0  0  0  0  2  0  0  0  0  0  0
  1 26  1  0  0  0  0
  3 16  2  0  0  0  0
  4 23  2  0  0  0  0
  5 15  2  0  0  0  0
  6  7  1  0  0  0  0
  6 19  1  0  0  0  0
  7  3  1  0  0  0  0
  9 27  1  1  0  0  0
 10 17  1  0  0  0  0
 11  5  1  0  0  0  0
 12  8  2  0  0  0  0
 13 24  1  6  0  0  0
 13  9  1  0  0  0  0
 13 20  1  0  0  0  0
 14  2  1  0  0  0  0
 15  4  1  0  0  0  0
 15 12  1  0  0  0  0
 16  8  1  0  0  0  0
 17 28  1  6  0  0  0
 17 25  1  0  0  0  0
 18  1  2  0  0  0  0
 18  4  1  0  0  0  0
 19  5  1  0  0  0  0
 19  3  1  0  0  0  0
 20 11  1  1  0  0  0
 20 18  1  0  0  0  0
 22 10  2  0  0  0  0
 22 24  1  0  0  0  0
 23 21  1  0  0  0  0
 25  9  1  0  0  0  0
 25 14  1  1  0  0  0
 26 21  2  0  0  0  0
 27  2  1  0  0  0  0
 27  1  1  0  0  0  0
 29 28  1  0  0  0  0
 30 33  1  0  0  0  0
 32 29  1  1  0  0  0
 32 31  1  0  0  0  0
 33 31  1  0  0  0  0
 34 32  1  0  0  0  0
 34 30  1  0  0  0  0
M  END
>  <MODEL>
7

>  <REMARK>
 VINA RESULT:      -8.2      2.975      5.058
  Name = 
  3 active torsions:
  status: ('A' for Active; 'I' for Inactive)
    1  A    between atoms: C_17  and  O_28
    2  A    between atoms: O_28  and  C_29
    3  A    between atoms: C_29  and  C_32
                            x       y       z     vdW  Elec       q    Type
                         _______ _______ _______ _____ _____    ______ ____

>  <TORSDO>
F 3

$$$$
=
 OpenBabel11112417453D

 34 41  0  0  1  0  0  0  0  0999 V2000
  187.8260  176.2310  141.2240 C   0  0  0  0  0  0  0  0  0  0  0  0
  185.7780  176.9510  139.9010 C   0  0  0  0  0  2  0  0  0  0  0  0
  191.5640  175.7570  146.8750 C   0  0  0  0  0  0  0  0  0  0  0  0
  189.5150  175.3910  142.7250 C   0  0  0  0  0  0  0  0  0  0  0  0
  189.6960  176.1710  145.0370 C   0  0  0  0  0  0  0  0  0  0  0  0
  190.0600  176.9370  147.5670 C   0  0  0  0  0  2  0  0  0  0  0  0
  191.2640  176.4460  148.1650 C   0  0  0  0  0  2  0  0  0  0  0  0
  192.4550  174.4760  145.0190 C   0  0  0  0  0  3  0  0  0  0  0  0
  186.4480  178.2540  141.8230 C   0  0  2  0  0  3  0  0  0  0  0  0
  183.9300  178.9140  143.7500 C   0  0  0  0  0  3  0  0  0  0  0  0
  188.3420  176.8150  144.8800 C   0  0  0  0  0  2  0  0  0  0  0  0
  191.5190  174.6700  144.0740 C   0  0  0  0  0  3  0  0  0  0  0  0
  186.6910  177.8690  143.2930 C   0  0  1  0  0  3  0  0  0  0  0  0
  184.7800  178.0840  140.0750 C   0  0  0  0  0  2  0  0  0  0  0  0
  190.2340  175.4370  144.0260 C   0  0  0  0  0  0  0  0  0  0  0  0
  192.5130  174.9870  146.3930 C   0  0  0  0  0  3  0  0  0  0  0  0
  183.9840  178.1070  142.4780 C   0  0  2  0  0  3  0  0  0  0  0  0
  188.4790  176.2970  142.4610 C   0  0  0  0  0  0  0  0  0  0  0  0
  190.3270  176.2830  146.3050 N   0  0  0  0  0  0  0  0  0  0  0  0
  188.1330  177.3670  143.4690 C   0  0  2  0  0  3  0  0  0  0  0  0
  189.1900  174.4070  140.5910 C   0  0  0  0  0  3  0  0  0  0  0  0
  184.9830  179.3000  144.4910 C   0  0  0  0  0  3  0  0  0  0  0  0
  189.8460  174.4670  141.7790 N   0  0  0  0  0  0  0  0  0  0  0  0
  186.4380  179.0910  144.1650 C   0  0  0  0  0  2  0  0  0  0  0  0
  185.0100  178.6660  141.4740 C   0  0  1  0  0  3  0  0  0  0  0  0
  188.1860  175.2810  140.3190 N   0  0  0  0  0  0  0  0  0  0  0  0
  186.7620  177.1470  140.9420 N   0  0  0  0  0  0  0  0  0  0  0  0
  182.7030  178.0700  141.9170 O   0  0  0  0  0  0  0  0  0  0  0  0
  181.9490  178.9610  142.6860 C   0  0  0  0  0  2  0  0  0  0  0  0
  179.5100  178.0820  140.3120 C   0  0  0  0  0  2  0  0  0  0  0  0
  179.4710  178.8150  142.5050 C   0  0  0  0  0  2  0  0  0  0  0  0
  180.7260  179.4110  141.9070 C   0  0  2  0  0  3  0  0  0  0  0  0
  178.6090  178.4170  141.4050 N   0  0  0  0  0  2  0  0  0  0  0  0
  180.7860  178.8740  140.4990 C   0  0  0  0  0  2  0  0  0  0  0  0
  1 18  1  0  0  0  0
  2 14  1  0  0  0  0
  2 27  1  0  0  0  0
  3  7  1  0  0  0  0
  4 15  1  0  0  0  0
  5 19  1  0  0  0  0
  6  7  1  0  0  0  0
  8 16  1  0  0  0  0
  9 27  1  6  0  0  0
  9 13  1  0  0  0  0
 10 22  2  0  0  0  0
 11  5  1  0  0  0  0
 12  8  2  0  0  0  0
 13 20  1  0  0  0  0
 13 24  1  1  0  0  0
 15 12  1  0  0  0  0
 15  5  2  0  0  0  0
 16  3  2  0  0  0  0
 17 28  1  6  0  0  0
 17 10  1  0  0  0  0
 18  4  2  0  0  0  0
 18 20  1  0  0  0  0
 19  3  1  0  0  0  0
 19  6  1  0  0  0  0
 20 11  1  1  0  0  0
 21 23  2  0  0  0  0
 23  4  1  0  0  0  0
 24 22  1  0  0  0  0
 25 14  1  6  0  0  0
 25  9  1  0  0  0  0
 25 17  1  0  0  0  0
 26 21  1  0  0  0  0
 26  1  2  0  0  0  0
 27  1  1  0  0  0  0
 28 29  1  0  0  0  0
 30 34  1  0  0  0  0
 30 33  1  0  0  0  0
 32 31  1  0  0  0  0
 32 29  1  1  0  0  0
 33 31  1  0  0  0  0
 34 32  1  0  0  0  0
M  END
>  <MODEL>
8

>  <REMARK>
 VINA RESULT:      -8.1      3.597      9.641
  Name = 
  3 active torsions:
  status: ('A' for Active; 'I' for Inactive)
    1  A    between atoms: C_17  and  O_28
    2  A    between atoms: O_28  and  C_29
    3  A    between atoms: C_29  and  C_32
                            x       y       z     vdW  Elec       q    Type
                         _______ _______ _______ _____ _____    ______ ____

>  <TORSDO>
F 3

$$$$
=
 OpenBabel11112417453D

 34 41  0  0  1  0  0  0  0  0999 V2000
  189.6130  174.7830  142.2440 C   0  0  0  0  0  0  0  0  0  0  0  0
  187.2460  175.6310  142.6150 C   0  0  0  0  0  2  0  0  0  0  0  0
  196.0400  173.6520  144.1310 C   0  0  0  0  0  0  0  0  0  0  0  0
  191.8080  173.7870  142.2230 C   0  0  0  0  0  0  0  0  0  0  0  0
  193.4640  174.2660  143.9600 C   0  0  0  0  0  0  0  0  0  0  0  0
  195.3970  174.7060  145.7460 C   0  0  0  0  0  2  0  0  0  0  0  0
  196.6710  174.1640  145.3830 C   0  0  0  0  0  2  0  0  0  0  0  0
  195.4650  172.6360  142.0050 C   0  0  0  0  0  3  0  0  0  0  0  0
  189.0680  176.6880  143.8010 C   0  0  2  0  0  3  0  0  0  0  0  0
  188.3880  177.0500  146.9470 C   0  0  0  0  0  3  0  0  0  0  0  0
  192.3640  174.9010  144.7730 C   0  0  0  0  0  2  0  0  0  0  0  0
  194.1590  172.9350  141.9000 C   0  0  0  0  0  3  0  0  0  0  0  0
  190.1590  176.1210  144.7270 C   0  0  1  0  0  3  0  0  0  0  0  0
  186.6640  176.7150  143.5080 C   0  0  0  0  0  2  0  0  0  0  0  0
  193.1900  173.6780  142.7650 C   0  0  0  0  0  0  0  0  0  0  0  0
  196.4140  172.9670  143.0740 C   0  0  0  0  0  3  0  0  0  0  0  0
  187.5710  176.4140  145.8520 C   0  0  2  0  0  3  0  0  0  0  0  0
  190.9040  174.7010  142.7800 C   0  0  0  0  0  0  0  0  0  0  0  0
  194.7600  174.2250  144.5400 N   0  0  0  0  0  0  0  0  0  0  0  0
  191.3480  175.6260  143.8890 C   0  0  2  0  0  3  0  0  0  0  0  0
  190.1410  173.0810  140.6920 C   0  0  0  0  0  3  0  0  0  0  0  0
  189.6960  177.3550  146.8870 C   0  0  0  0  0  3  0  0  0  0  0  0
  191.4030  172.9990  141.1880 N   0  0  0  0  0  0  0  0  0  0  0  0
  190.5980  177.2160  145.6890 C   0  0  0  0  0  2  0  0  0  0  0  0
  187.7650  177.1160  144.4940 C   0  0  1  0  0  3  0  0  0  0  0  0
  189.2540  173.9640  141.2190 N   0  0  0  0  0  0  0  0  0  0  0  0
  188.6770  175.7090  142.8060 N   0  0  0  0  0  0  0  0  0  0  0  0
  186.2250  176.4260  146.2340 O   0  0  0  0  0  0  0  0  0  0  0  0
  186.1690  177.3040  147.3200 C   0  0  0  0  0  2  0  0  0  0  0  0
  185.0300  179.6860  144.9990 C   0  0  0  0  0  2  0  0  0  0  0  0
  184.0670  177.9180  146.1370 C   0  0  0  0  0  2  0  0  0  0  0  0
  185.1750  178.4160  147.0370 C   0  0  2  0  0  3  0  0  0  0  0  0
  183.7750  178.9710  145.1790 N   0  0  0  0  0  2  0  0  0  0  0  0
  185.8470  179.5220  146.2630 C   0  0  0  0  0  2  0  0  0  0  0  0
  1 18  1  0  0  0  0
  1 27  1  0  0  0  0
  2 27  1  0  0  0  0
  2 14  1  0  0  0  0
  3 19  1  0  0  0  0
  3  7  1  0  0  0  0
  4 15  1  0  0  0  0
  4 18  2  0  0  0  0
  5 19  1  0  0  0  0
  5 11  1  0  0  0  0
  7  6  1  0  0  0  0
  8 16  1  0  0  0  0
  9 27  1  6  0  0  0
  9 25  1  0  0  0  0
  9 13  1  0  0  0  0
 12  8  2  0  0  0  0
 12 15  1  0  0  0  0
 13 24  1  1  0  0  0
 15  5  2  0  0  0  0
 16  3  2  0  0  0  0
 17 28  1  1  0  0  0
 17 10  1  0  0  0  0
 18 20  1  0  0  0  0
 19  6  1  0  0  0  0
 20 13  1  0  0  0  0
 20 11  1  1  0  0  0
 21 23  2  0  0  0  0
 21 26  1  0  0  0  0
 22 10  2  0  0  0  0
 23  4  1  0  0  0  0
 24 22  1  0  0  0  0
 25 14  1  6  0  0  0
 25 17  1  0  0  0  0
 26  1  2  0  0  0  0
 28 29  1  0  0  0  0
 30 33  1  0  0  0  0
 30 34  1  0  0  0  0
 31 32  1  0  0  0  0
 32 29  1  6  0  0  0
 33 31  1  0  0  0  0
 34 32  1  0  0  0  0
M  END
>  <MODEL>
9

>  <REMARK>
 VINA RESULT:      -8.1      2.184      8.475
  Name = 
  3 active torsions:
  status: ('A' for Active; 'I' for Inactive)
    1  A    between atoms: C_17  and  O_28
    2  A    between atoms: O_28  and  C_29
    3  A    between atoms: C_29  and  C_32
                            x       y       z     vdW  Elec       q    Type
                         _______ _______ _______ _____ _____    ______ ____

>  <TORSDO>
F 3

$$$$
