=
 OpenBabel11112417133D

 37 43  0  0  1  0  0  0  0  0999 V2000
  193.4850  174.7420  143.8500 C   0  0  0  0  0  2  0  0  0  0  0  0
  192.2510  169.9880  142.4480 C   0  0  1  0  0  0  0  0  0  0  0  0
  190.0950  173.6350  142.7160 N   0  0  1  0  0  0  0  0  0  0  0  0
  194.9740  175.0550  144.0500 C   0  0  2  0  0  3  0  0  0  0  0  0
  190.6910  176.0090  145.5190 O   0  0  0  0  0  0  0  0  0  0  0  0
  190.3730  171.4460  141.5110 C   0  0  1  0  0  3  0  0  0  0  0  0
  190.3330  174.0790  144.0990 C   0  0  2  0  0  3  0  0  0  0  0  0
  194.3100  176.5570  145.9870 C   0  0  0  0  0  0  0  0  0  0  0  0
  190.4610  172.2400  142.8200 C   0  0  1  0  0  3  0  0  0  0  0  0
  190.5160  175.6130  144.1860 C   0  0  1  0  0  3  0  0  0  0  0  0
  189.8560  172.3270  140.3730 C   0  0  0  0  0  2  0  0  0  0  0  0
  195.3340  175.6000  145.4400 C   0  0  0  0  0  2  0  0  0  0  0  0
  191.7980  172.2610  143.4540 C   0  0  2  0  0  3  0  0  0  0  0  0
  193.5670  169.6120  142.1850 O   0  0  0  0  0  1  0  0  0  0  0  0
  188.0440  175.0050  142.3900 C   0  0  0  0  0  2  0  0  0  0  0  0
  188.6110  173.1320  140.8180 C   0  0  0  0  0  2  0  0  0  0  0  0
  192.2280  170.8340  143.7500 C   0  0  0  0  0  2  0  0  0  0  0  0
  192.9360  176.0810  146.3860 C   0  0  1  0  0  3  0  0  0  0  0  0
  191.8720  176.7550  145.5200 C   0  0  0  0  0  2  0  0  0  0  0  0
  188.6970  173.6360  142.2780 C   0  0  1  0  0  3  0  0  0  0  0  0
  191.5470  173.2090  144.6080 C   0  0  1  0  0  3  0  0  0  0  0  0
  191.6920  170.7240  141.1990 C   0  0  0  0  0  2  0  0  0  0  0  0
  189.3780  176.4460  143.5520 C   0  0  1  0  0  3  0  0  0  0  0  0
  191.5010  168.8470  142.6590 F   0  0  0  0  0  0  0  0  0  0  0  0
  192.8230  174.5440  146.3710 C   0  0  0  0  0  2  0  0  0  0  0  0
  194.6040  177.7340  146.1150 O   0  0  0  0  0  0  0  0  0  0  0  0
  192.8760  173.8940  144.9780 C   0  0  2  0  0  3  0  0  0  0  0  0
  188.9850  176.0390  142.2570 O   0  0  0  0  0  0  0  0  0  0  0  0
  188.0190  176.2130  145.6520 C   0  0  0  0  0  3  0  0  0  0  0  0
  188.2610  176.9060  144.4610 C   0  0  0  0  0  0  0  0  0  0  0  0
  187.4810  178.0280  144.1420 C   0  0  0  0  0  3  0  0  0  0  0  0
  185.4900  179.8400  144.5980 Cl  0  0  0  0  0  0  0  0  0  0  0  0
  186.2220  177.7440  146.1900 C   0  0  0  0  0  3  0  0  0  0  0  0
  186.4620  178.4430  145.0040 C   0  0  0  0  0  0  0  0  0  0  0  0
  187.0000  176.6300  146.5140 C   0  0  0  0  0  3  0  0  0  0  0  0
  196.7640  176.1060  143.2830 C   0  0  0  0  0  1  0  0  0  0  0  0
  195.3930  175.9560  143.0690 O   0  0  0  0  0  0  0  0  0  0  0  0
  1  4  1  0  0  0  0
  1 27  1  0  0  0  0
  2 14  1  6  0  0  0
  2 24  1  0  0  0  0
  2 17  1  0  0  0  0
  3  9  1  0  0  0  0
  3  7  1  0  0  0  0
  4 12  1  0  0  0  0
  5 19  1  0  0  0  0
  6  9  1  0  0  0  0
  7 10  1  0  0  0  0
  7 21  1  0  0  0  0
  8 26  2  0  0  0  0
  8 18  1  0  0  0  0
  9 13  1  0  0  0  0
 10  5  1  0  0  0  0
 11 16  1  0  0  0  0
 11  6  1  0  0  0  0
 12  8  1  0  0  0  0
 13 17  1  0  0  0  0
 13 21  1  0  0  0  0
 16 20  1  0  0  0  0
 19 18  1  0  0  0  0
 20 15  1  0  0  0  0
 20  3  1  0  0  0  0
 21 27  1  0  0  0  0
 22  6  1  0  0  0  0
 22  2  1  0  0  0  0
 23 10  1  0  0  0  0
 23 30  1  0  0  0  0
 25 18  1  0  0  0  0
 27 25  1  0  0  0  0
 28 15  1  0  0  0  0
 28 23  1  0  0  0  0
 29 35  1  0  0  0  0
 30 29  2  0  0  0  0
 31 30  1  0  0  0  0
 31 34  2  0  0  0  0
 32 34  1  0  0  0  0
 33 35  2  0  0  0  0
 34 33  1  0  0  0  0
 37 36  1  0  0  0  0
 37  4  1  0  0  0  0
M  END
>  <MODEL>
1

>  <REMARK>
 VINA RESULT:      -9.4      0.000      0.000
  Name = 
  2 active torsions:
  status: ('A' for Active; 'I' for Inactive)
    1  A    between atoms: C_4  and  O_37
    2  A    between atoms: C_23  and  C_30
                            x       y       z     vdW  Elec       q    Type
                         _______ _______ _______ _____ _____    ______ ____

>  <TORSDO>
F 2

$$$$
=
 OpenBabel11112417133D

 37 43  0  0  1  0  0  0  0  0999 V2000
  192.9630  174.8780  144.0440 C   0  0  0  0  0  2  0  0  0  0  0  0
  191.4460  170.5050  141.8840 C   0  0  1  0  0  0  0  0  0  0  0  0
  189.6840  174.3430  142.3190 N   0  0  1  0  0  0  0  0  0  0  0  0
  194.4280  174.9750  144.4870 C   0  0  2  0  0  3  0  0  0  0  0  0
  190.1020  176.2950  145.4610 O   0  0  0  0  0  0  0  0  0  0  0  0
  189.9020  172.2840  140.8920 C   0  0  1  0  0  3  0  0  0  0  0  0
  189.7560  174.5970  143.7680 C   0  0  2  0  0  3  0  0  0  0  0  0
  193.6450  176.3230  146.4900 C   0  0  0  0  0  0  0  0  0  0  0  0
  189.8760  172.9100  142.2920 C   0  0  1  0  0  3  0  0  0  0  0  0
  190.0900  176.0760  144.0760 C   0  0  1  0  0  3  0  0  0  0  0  0
  189.6640  173.3460  139.8170 C   0  0  0  0  0  2  0  0  0  0  0  0
  194.6290  175.3120  145.9720 C   0  0  0  0  0  2  0  0  0  0  0  0
  191.0950  172.6900  143.1020 C   0  0  2  0  0  3  0  0  0  0  0  0
  192.7380  169.9970  141.7590 O   0  0  0  0  0  1  0  0  0  0  0  0
  187.8690  175.9900  141.8930 C   0  0  0  0  0  2  0  0  0  0  0  0
  188.4610  174.2470  140.1860 C   0  0  0  0  0  2  0  0  0  0  0  0
  191.3170  171.1960  143.2680 C   0  0  0  0  0  2  0  0  0  0  0  0
  192.1820  175.9840  146.6310 C   0  0  1  0  0  3  0  0  0  0  0  0
  191.3430  176.8800  145.7200 C   0  0  0  0  0  2  0  0  0  0  0  0
  188.3780  174.5700  141.6970 C   0  0  1  0  0  3  0  0  0  0  0  0
  190.7760  173.5280  144.3240 C   0  0  1  0  0  3  0  0  0  0  0  0
  191.1670  171.4410  140.6750 C   0  0  0  0  0  2  0  0  0  0  0  0
  189.1590  177.1110  143.4040 C   0  0  1  0  0  3  0  0  0  0  0  0
  190.5520  169.4520  141.8400 F   0  0  0  0  0  0  0  0  0  0  0  0
  191.9060  174.4850  146.4030 C   0  0  0  0  0  2  0  0  0  0  0  0
  194.0420  177.4320  146.8080 O   0  0  0  0  0  0  0  0  0  0  0  0
  192.0990  173.9930  144.9580 C   0  0  2  0  0  3  0  0  0  0  0  0
  188.9260  176.9040  142.0250 O   0  0  0  0  0  0  0  0  0  0  0  0
  187.1610  178.6110  143.6690 C   0  0  0  0  0  3  0  0  0  0  0  0
  187.9730  177.6040  144.2020 C   0  0  0  0  0  0  0  0  0  0  0  0
  187.6610  177.0520  145.4540 C   0  0  0  0  0  3  0  0  0  0  0  0
  186.1730  176.8250  147.7310 Cl  0  0  0  0  0  0  0  0  0  0  0  0
  185.7480  178.5240  145.6340 C   0  0  0  0  0  3  0  0  0  0  0  0
  186.5530  177.5140  146.1690 C   0  0  0  0  0  0  0  0  0  0  0  0
  186.0520  179.0720  144.3850 C   0  0  0  0  0  3  0  0  0  0  0  0
  196.4450  175.6510  143.8770 C   0  0  0  0  0  1  0  0  0  0  0  0
  195.0870  175.9190  143.6970 O   0  0  0  0  0  0  0  0  0  0  0  0
  1  4  1  0  0  0  0
  1 27  1  0  0  0  0
  2 14  1  6  0  0  0
  2 17  1  0  0  0  0
  3  7  1  0  0  0  0
  4 12  1  0  0  0  0
  5 19  1  0  0  0  0
  6  9  1  0  0  0  0
  7 10  1  0  0  0  0
  7 21  1  0  0  0  0
  8 18  1  0  0  0  0
  8 26  2  0  0  0  0
  9  3  1  0  0  0  0
  9 13  1  0  0  0  0
 10  5  1  0  0  0  0
 11 16  1  0  0  0  0
 11  6  1  0  0  0  0
 12  8  1  0  0  0  0
 13 17  1  0  0  0  0
 13 21  1  0  0  0  0
 15 28  1  0  0  0  0
 16 20  1  0  0  0  0
 19 18  1  0  0  0  0
 20 15  1  0  0  0  0
 20  3  1  0  0  0  0
 21 27  1  0  0  0  0
 22  6  1  0  0  0  0
 22  2  1  0  0  0  0
 23 10  1  0  0  0  0
 23 30  1  0  0  0  0
 24  2  1  0  0  0  0
 25 18  1  0  0  0  0
 27 25  1  0  0  0  0
 28 23  1  0  0  0  0
 29 30  2  0  0  0  0
 29 35  1  0  0  0  0
 30 31  1  0  0  0  0
 31 34  2  0  0  0  0
 33 34  1  0  0  0  0
 34 32  1  0  0  0  0
 35 33  2  0  0  0  0
 37 36  1  0  0  0  0
 37  4  1  0  0  0  0
M  END
>  <MODEL>
2

>  <REMARK>
 VINA RESULT:      -9.1      1.132      1.419
  Name = 
  2 active torsions:
  status: ('A' for Active; 'I' for Inactive)
    1  A    between atoms: C_4  and  O_37
    2  A    between atoms: C_23  and  C_30
                            x       y       z     vdW  Elec       q    Type
                         _______ _______ _______ _____ _____    ______ ____

>  <TORSDO>
F 2

$$$$
=
 OpenBabel11112417133D

 37 43  0  0  1  0  0  0  0  0999 V2000
  190.3850  173.6620  143.0360 C   0  0  0  0  0  2  0  0  0  0  0  0
  194.6540  176.1210  144.3860 C   0  0  1  0  0  0  0  0  0  0  0  0
  190.6360  176.2220  145.7540 N   0  0  1  0  0  0  0  0  0  0  0  0
  190.5280  172.4800  142.0690 C   0  0  2  0  0  3  0  0  0  0  0  0
  187.7940  175.9810  143.3630 O   0  0  0  0  0  0  0  0  0  0  0  0
  193.0650  176.4530  146.3600 C   0  0  1  0  0  3  0  0  0  0  0  0
  189.8580  176.4770  144.5300 C   0  0  2  0  0  3  0  0  0  0  0  0
  188.3360  173.1940  141.0060 C   0  0  0  0  0  0  0  0  0  0  0  0
  191.9540  176.6280  145.3180 C   0  0  1  0  0  3  0  0  0  0  0  0
  188.5330  175.6790  144.5150 C   0  0  1  0  0  3  0  0  0  0  0  0
  192.4980  175.9190  147.6760 C   0  0  0  0  0  2  0  0  0  0  0  0
  189.6980  172.5990  140.7810 C   0  0  0  0  0  2  0  0  0  0  0  0
  192.1600  175.8940  144.0500 C   0  0  2  0  0  3  0  0  0  0  0  0
  195.5040  175.1700  143.8250 O   0  0  0  0  0  1  0  0  0  0  0  0
  188.8640  177.0080  147.3130 C   0  0  0  0  0  2  0  0  0  0  0  0
  191.2310  176.7040  148.0930 C   0  0  0  0  0  2  0  0  0  0  0  0
  193.4630  176.3540  143.4170 C   0  0  0  0  0  2  0  0  0  0  0  0
  188.1740  174.6410  141.4000 C   0  0  1  0  0  3  0  0  0  0  0  0
  187.5200  174.7430  142.7780 C   0  0  0  0  0  2  0  0  0  0  0  0
  190.3250  177.0830  146.8970 C   0  0  1  0  0  3  0  0  0  0  0  0
  190.8530  176.1860  143.3400 C   0  0  1  0  0  3  0  0  0  0  0  0
  194.2380  175.6340  145.8020 C   0  0  0  0  0  2  0  0  0  0  0  0
  187.6380  175.8730  145.7610 C   0  0  1  0  0  3  0  0  0  0  0  0
  195.3470  177.3100  144.5150 F   0  0  0  0  0  0  0  0  0  0  0  0
  189.5000  175.4210  141.3150 C   0  0  0  0  0  2  0  0  0  0  0  0
  187.3480  172.4940  140.8580 O   0  0  0  0  0  0  0  0  0  0  0  0
  190.5590  175.0340  142.3630 C   0  0  2  0  0  3  0  0  0  0  0  0
  188.3020  175.7590  147.0030 O   0  0  0  0  0  0  0  0  0  0  0  0
  185.4210  176.8050  146.4860 C   0  0  0  0  0  3  0  0  0  0  0  0
  186.5620  176.9330  145.6880 C   0  0  0  0  0  0  0  0  0  0  0  0
  186.7020  178.0520  144.8520 C   0  0  0  0  0  3  0  0  0  0  0  0
  185.8800  180.4160  143.7630 Cl  0  0  0  0  0  0  0  0  0  0  0  0
  184.5610  178.8920  145.6060 C   0  0  0  0  0  3  0  0  0  0  0  0
  185.7010  179.0270  144.8110 C   0  0  0  0  0  0  0  0  0  0  0  0
  184.4200  177.7820  146.4450 C   0  0  0  0  0  3  0  0  0  0  0  0
  190.7110  170.2790  141.9290 C   0  0  0  0  0  1  0  0  0  0  0  0
  190.1970  171.2970  142.7330 O   0  0  0  0  0  0  0  0  0  0  0  0
  2 14  1  6  0  0  0
  2 24  1  0  0  0  0
  2 22  1  0  0  0  0
  3 20  1  0  0  0  0
  4 37  1  0  0  0  0
  4  1  1  0  0  0  0
  5 10  1  0  0  0  0
  6 11  1  0  0  0  0
  7  3  1  0  0  0  0
  8 18  1  0  0  0  0
  9  3  1  0  0  0  0
  9  6  1  0  0  0  0
 10  7  1  0  0  0  0
 10 23  1  0  0  0  0
 11 16  1  0  0  0  0
 12  8  1  0  0  0  0
 12  4  1  0  0  0  0
 13  9  1  0  0  0  0
 17 13  1  0  0  0  0
 17  2  1  0  0  0  0
 18 19  1  0  0  0  0
 19  5  1  0  0  0  0
 20 15  1  0  0  0  0
 20 16  1  0  0  0  0
 21 13  1  0  0  0  0
 21  7  1  0  0  0  0
 22  6  1  0  0  0  0
 23 28  1  0  0  0  0
 25 18  1  0  0  0  0
 25 27  1  0  0  0  0
 26  8  2  0  0  0  0
 27  1  1  0  0  0  0
 27 21  1  0  0  0  0
 28 15  1  0  0  0  0
 30 23  1  0  0  0  0
 30 29  2  0  0  0  0
 31 30  1  0  0  0  0
 32 34  1  0  0  0  0
 33 35  2  0  0  0  0
 34 31  2  0  0  0  0
 34 33  1  0  0  0  0
 35 29  1  0  0  0  0
 36 37  1  0  0  0  0
M  END
>  <MODEL>
3

>  <REMARK>
 VINA RESULT:      -9.0      2.346      5.722
  Name = 
  2 active torsions:
  status: ('A' for Active; 'I' for Inactive)
    1  A    between atoms: C_4  and  O_37
    2  A    between atoms: C_23  and  C_30
                            x       y       z     vdW  Elec       q    Type
                         _______ _______ _______ _____ _____    ______ ____

>  <TORSDO>
F 2

$$$$
=
 OpenBabel11112417133D

 37 43  0  0  1  0  0  0  0  0999 V2000
  191.4360  175.0810  144.8680 C   0  0  0  0  0  2  0  0  0  0  0  0
  190.8680  170.8360  142.0840 C   0  0  1  0  0  0  0  0  0  0  0  0
  189.0080  174.6520  142.0530 N   0  0  1  0  0  0  0  0  0  0  0  0
  192.6430  175.1480  145.8140 C   0  0  2  0  0  3  0  0  0  0  0  0
  188.2350  176.4300  145.2300 O   0  0  0  0  0  0  0  0  0  0  0  0
  189.7570  172.6730  140.6960 C   0  0  1  0  0  3  0  0  0  0  0  0
  188.5490  174.8270  143.4410 C   0  0  2  0  0  3  0  0  0  0  0  0
  191.1700  176.3900  147.4670 C   0  0  0  0  0  0  0  0  0  0  0  0
  189.2190  173.2220  142.0230 C   0  0  1  0  0  3  0  0  0  0  0  0
  188.7260  176.2860  143.9250 C   0  0  1  0  0  3  0  0  0  0  0  0
  189.9050  173.7910  139.6640 C   0  0  0  0  0  2  0  0  0  0  0  0
  192.2900  175.4030  147.2870 C   0  0  0  0  0  2  0  0  0  0  0  0
  190.0680  172.9540  143.2050 C   0  0  2  0  0  3  0  0  0  0  0  0
  192.1260  170.3300  142.4070 O   0  0  0  0  0  1  0  0  0  0  0  0
  187.4420  176.3270  141.0870 C   0  0  0  0  0  2  0  0  0  0  0  0
  188.6360  174.6760  139.6200 C   0  0  0  0  0  2  0  0  0  0  0  0
  190.2380  171.4520  143.3620 C   0  0  0  0  0  2  0  0  0  0  0  0
  189.7600  176.0490  147.0530 C   0  0  1  0  0  3  0  0  0  0  0  0
  189.2900  176.9960  145.9490 C   0  0  0  0  0  2  0  0  0  0  0  0
  188.0100  174.9180  141.0140 C   0  0  1  0  0  3  0  0  0  0  0  0
  189.3170  173.7260  144.2710 C   0  0  1  0  0  3  0  0  0  0  0  0
  191.0280  171.8370  140.9060 C   0  0  0  0  0  2  0  0  0  0  0  0
  188.0840  177.3600  143.0160 C   0  0  1  0  0  3  0  0  0  0  0  0
  190.0670  169.7900  141.6670 F   0  0  0  0  0  0  0  0  0  0  0  0
  189.6080  174.5660  146.6640 C   0  0  0  0  0  2  0  0  0  0  0  0
  191.4080  177.4780  147.9640 O   0  0  0  0  0  0  0  0  0  0  0  0
  190.3160  174.1510  145.3620 C   0  0  2  0  0  3  0  0  0  0  0  0
  188.3660  177.2290  141.6380 O   0  0  0  0  0  0  0  0  0  0  0  0
  186.4410  178.4130  144.5990 C   0  0  0  0  0  3  0  0  0  0  0  0
  186.6830  177.8140  143.3580 C   0  0  0  0  0  0  0  0  0  0  0  0
  185.6290  177.6680  142.4430 C   0  0  0  0  0  3  0  0  0  0  0  0
  183.0350  177.9160  141.6300 Cl  0  0  0  0  0  0  0  0  0  0  0  0
  184.1070  178.6990  144.0170 C   0  0  0  0  0  3  0  0  0  0  0  0
  184.3440  178.1070  142.7740 C   0  0  0  0  0  0  0  0  0  0  0  0
  185.1560  178.8520  144.9300 C   0  0  0  0  0  3  0  0  0  0  0  0
  192.8520  176.7720  144.3250 C   0  0  0  0  0  1  0  0  0  0  0  0
  193.5270  176.1310  145.3640 O   0  0  0  0  0  0  0  0  0  0  0  0
  1 27  1  0  0  0  0
  1  4  1  0  0  0  0
  2 24  1  6  0  0  0
  2 14  1  0  0  0  0
  2 17  1  0  0  0  0
  3  7  1  0  0  0  0
  4 12  1  0  0  0  0
  5 19  1  0  0  0  0
  6 22  1  0  0  0  0
  6  9  1  0  0  0  0
  7 10  1  0  0  0  0
  7 21  1  0  0  0  0
  8 26  2  0  0  0  0
  9  3  1  0  0  0  0
  9 13  1  0  0  0  0
 10  5  1  0  0  0  0
 11  6  1  0  0  0  0
 12  8  1  0  0  0  0
 13 17  1  0  0  0  0
 13 21  1  0  0  0  0
 15 28  1  0  0  0  0
 16 11  1  0  0  0  0
 16 20  1  0  0  0  0
 18  8  1  0  0  0  0
 19 18  1  0  0  0  0
 20 15  1  0  0  0  0
 20  3  1  0  0  0  0
 21 27  1  0  0  0  0
 22  2  1  0  0  0  0
 23 30  1  0  0  0  0
 23 10  1  0  0  0  0
 25 18  1  0  0  0  0
 27 25  1  0  0  0  0
 28 23  1  0  0  0  0
 29 35  1  0  0  0  0
 30 29  2  0  0  0  0
 31 34  2  0  0  0  0
 31 30  1  0  0  0  0
 32 34  1  0  0  0  0
 33 35  2  0  0  0  0
 34 33  1  0  0  0  0
 36 37  1  0  0  0  0
 37  4  1  0  0  0  0
M  END
>  <MODEL>
4

>  <REMARK>
 VINA RESULT:      -8.3      1.906      2.584
  Name = 
  2 active torsions:
  status: ('A' for Active; 'I' for Inactive)
    1  A    between atoms: C_4  and  O_37
    2  A    between atoms: C_23  and  C_30
                            x       y       z     vdW  Elec       q    Type
                         _______ _______ _______ _____ _____    ______ ____

>  <TORSDO>
F 2

$$$$
=
 OpenBabel11112417133D

 37 43  0  0  1  0  0  0  0  0999 V2000
  191.6940  172.9250  142.7940 C   0  0  0  0  0  2  0  0  0  0  0  0
  194.8920  175.9930  145.3340 C   0  0  1  0  0  0  0  0  0  0  0  0
  190.7200  176.0820  144.5500 N   0  0  1  0  0  0  0  0  0  0  0  0
  192.2310  171.5590  142.3480 C   0  0  2  0  0  3  0  0  0  0  0  0
  189.3700  175.0240  141.2480 O   0  0  0  0  0  0  0  0  0  0  0  0
  192.5660  176.6600  146.1570 C   0  0  1  0  0  3  0  0  0  0  0  0
  190.6380  175.9640  143.0850 C   0  0  2  0  0  3  0  0  0  0  0  0
  190.8540  171.8030  140.2290 C   0  0  0  0  0  0  0  0  0  0  0  0
  192.1010  176.4800  144.7070 C   0  0  1  0  0  3  0  0  0  0  0  0
  189.4500  175.0760  142.6460 C   0  0  1  0  0  3  0  0  0  0  0  0
  191.4130  176.4160  147.1320 C   0  0  0  0  0  2  0  0  0  0  0  0
  192.1290  171.2900  140.8390 C   0  0  0  0  0  2  0  0  0  0  0  0
  192.8590  175.4800  143.9230 C   0  0  2  0  0  3  0  0  0  0  0  0
  195.8640  175.0090  145.5070 O   0  0  0  0  0  1  0  0  0  0  0  0
  188.4530  177.0710  144.8220 C   0  0  0  0  0  2  0  0  0  0  0  0
  190.1380  177.1690  146.6810 C   0  0  0  0  0  2  0  0  0  0  0  0
  194.3250  175.8810  143.8920 C   0  0  0  0  0  2  0  0  0  0  0  0
  190.5870  173.2830  140.1160 C   0  0  1  0  0  3  0  0  0  0  0  0
  189.3560  173.6620  140.9400 C   0  0  0  0  0  2  0  0  0  0  0  0
  189.9360  177.1670  145.1470 C   0  0  1  0  0  3  0  0  0  0  0  0
  192.0690  175.4770  142.6300 C   0  0  1  0  0  3  0  0  0  0  0  0
  193.8250  175.8330  146.4530 C   0  0  0  0  0  2  0  0  0  0  0  0
  188.0750  175.4910  143.2210 C   0  0  1  0  0  3  0  0  0  0  0  0
  195.4890  177.2310  145.4690 F   0  0  0  0  0  0  0  0  0  0  0  0
  191.8230  174.1290  140.4770 C   0  0  0  0  0  2  0  0  0  0  0  0
  190.0290  171.0060  139.8140 O   0  0  0  0  0  0  0  0  0  0  0  0
  192.2300  174.1000  141.9610 C   0  0  2  0  0  3  0  0  0  0  0  0
  188.0550  175.7410  144.6110 O   0  0  0  0  0  0  0  0  0  0  0  0
  187.6770  176.8140  141.1230 C   0  0  0  0  0  3  0  0  0  0  0  0
  187.2150  176.4060  142.3780 C   0  0  0  0  0  0  0  0  0  0  0  0
  185.9540  176.8310  142.8250 C   0  0  0  0  0  3  0  0  0  0  0  0
  183.6020  178.1960  142.5890 Cl  0  0  0  0  0  0  0  0  0  0  0  0
  185.6380  178.0750  140.7730 C   0  0  0  0  0  3  0  0  0  0  0  0
  185.1700  177.6660  142.0240 C   0  0  0  0  0  0  0  0  0  0  0  0
  186.8910  177.6490  140.3220 C   0  0  0  0  0  3  0  0  0  0  0  0
  192.3050  169.3920  142.7930 C   0  0  0  0  0  1  0  0  0  0  0  0
  191.5700  170.5500  143.0510 O   0  0  0  0  0  0  0  0  0  0  0  0
  2 24  1  1  0  0  0
  2 14  1  0  0  0  0
  2 22  1  0  0  0  0
  3  9  1  0  0  0  0
  3 20  1  0  0  0  0
  4  1  1  0  0  0  0
  4 37  1  0  0  0  0
  5 10  1  0  0  0  0
  6 22  1  0  0  0  0
  6 11  1  0  0  0  0
  7  3  1  0  0  0  0
  8 12  1  0  0  0  0
  9  6  1  0  0  0  0
 10  7  1  0  0  0  0
 10 23  1  0  0  0  0
 12  4  1  0  0  0  0
 13  9  1  0  0  0  0
 15 20  1  0  0  0  0
 16 11  1  0  0  0  0
 17 13  1  0  0  0  0
 17  2  1  0  0  0  0
 18  8  1  0  0  0  0
 18 25  1  0  0  0  0
 18 19  1  0  0  0  0
 19  5  1  0  0  0  0
 20 16  1  0  0  0  0
 21  7  1  0  0  0  0
 21 13  1  0  0  0  0
 23 28  1  0  0  0  0
 25 27  1  0  0  0  0
 26  8  2  0  0  0  0
 27 21  1  0  0  0  0
 27  1  1  0  0  0  0
 28 15  1  0  0  0  0
 29 30  1  0  0  0  0
 30 31  2  0  0  0  0
 30 23  1  0  0  0  0
 33 34  2  0  0  0  0
 34 32  1  0  0  0  0
 34 31  1  0  0  0  0
 35 33  1  0  0  0  0
 35 29  2  0  0  0  0
 36 37  1  0  0  0  0
M  END
>  <MODEL>
5

>  <REMARK>
 VINA RESULT:      -8.2      2.601      5.689
  Name = 
  2 active torsions:
  status: ('A' for Active; 'I' for Inactive)
    1  A    between atoms: C_4  and  O_37
    2  A    between atoms: C_23  and  C_30
                            x       y       z     vdW  Elec       q    Type
                         _______ _______ _______ _____ _____    ______ ____

>  <TORSDO>
F 2

$$$$
=
 OpenBabel11112417133D

 37 43  0  0  1  0  0  0  0  0999 V2000
  192.8590  172.4420  142.1870 C   0  0  0  0  0  2  0  0  0  0  0  0
  197.0790  175.0340  143.4390 C   0  0  1  0  0  0  0  0  0  0  0  0
  192.9440  175.5710  144.2390 N   0  0  1  0  0  0  0  0  0  0  0  0
  193.0440  171.0590  141.5490 C   0  0  2  0  0  3  0  0  0  0  0  0
  190.3820  174.8430  141.6400 O   0  0  0  0  0  0  0  0  0  0  0  0
  195.2990  175.8720  145.0690 C   0  0  1  0  0  3  0  0  0  0  0  0
  192.3250  175.5470  142.9040 C   0  0  2  0  0  3  0  0  0  0  0  0
  191.0290  171.5590  140.0870 C   0  0  0  0  0  0  0  0  0  0  0  0
  194.3240  175.8240  143.8870 C   0  0  1  0  0  3  0  0  0  0  0  0
  190.9680  174.8050  142.9130 C   0  0  1  0  0  3  0  0  0  0  0  0
  194.5570  175.6850  146.3940 C   0  0  0  0  0  2  0  0  0  0  0  0
  192.3730  170.8900  140.1770 C   0  0  0  0  0  2  0  0  0  0  0  0
  194.6300  174.8030  142.8600 C   0  0  2  0  0  3  0  0  0  0  0  0
  197.9330  173.9540  143.2250 O   0  0  0  0  0  1  0  0  0  0  0  0
  191.0540  176.7550  145.3410 C   0  0  0  0  0  2  0  0  0  0  0  0
  193.2970  176.5810  146.4550 C   0  0  0  0  0  2  0  0  0  0  0  0
  196.0200  175.0620  142.3030 C   0  0  0  0  0  2  0  0  0  0  0  0
  190.9050  173.0620  140.1080 C   0  0  1  0  0  3  0  0  0  0  0  0
  190.1070  173.5080  141.3320 C   0  0  0  0  0  2  0  0  0  0  0  0
  192.5550  176.6880  145.1020 C   0  0  1  0  0  3  0  0  0  0  0  0
  193.4300  174.9520  141.9470 C   0  0  1  0  0  3  0  0  0  0  0  0
  196.4790  174.9120  144.8670 C   0  0  0  0  0  2  0  0  0  0  0  0
  189.9490  175.3160  143.9590 C   0  0  1  0  0  3  0  0  0  0  0  0
  197.8180  176.2000  143.3700 F   0  0  0  0  0  0  0  0  0  0  0  0
  192.2740  173.7620  140.0070 C   0  0  0  0  0  2  0  0  0  0  0  0
  190.0270  170.8710  139.9870 O   0  0  0  0  0  0  0  0  0  0  0  0
  193.1840  173.6080  141.2380 C   0  0  2  0  0  3  0  0  0  0  0  0
  190.4620  175.4840  145.2650 O   0  0  0  0  0  0  0  0  0  0  0  0
  189.2940  177.2320  142.4730 C   0  0  0  0  0  3  0  0  0  0  0  0
  188.9500  176.3570  143.5080 C   0  0  0  0  0  0  0  0  0  0  0  0
  187.6770  176.4420  144.0930 C   0  0  0  0  0  3  0  0  0  0  0  0
  185.1810  177.5080  144.3890 Cl  0  0  0  0  0  0  0  0  0  0  0  0
  187.1150  178.2790  142.6210 C   0  0  0  0  0  3  0  0  0  0  0  0
  186.7640  177.4040  143.6510 C   0  0  0  0  0  0  0  0  0  0  0  0
  188.3800  178.1930  142.0310 C   0  0  0  0  0  3  0  0  0  0  0  0
  192.1390  170.7840  143.5490 C   0  0  0  0  0  1  0  0  0  0  0  0
  192.5740  170.0800  142.4260 O   0  0  0  0  0  0  0  0  0  0  0  0
  2 14  1  6  0  0  0
  2 22  1  0  0  0  0
  3 20  1  0  0  0  0
  4  1  1  0  0  0  0
  4 37  1  0  0  0  0
  5 10  1  0  0  0  0
  6 11  1  0  0  0  0
  7 10  1  0  0  0  0
  7  3  1  0  0  0  0
  8 18  1  0  0  0  0
  8 12  1  0  0  0  0
  9  3  1  0  0  0  0
  9  6  1  0  0  0  0
 10 23  1  0  0  0  0
 11 16  1  0  0  0  0
 12  4  1  0  0  0  0
 13  9  1  0  0  0  0
 17 13  1  0  0  0  0
 17  2  1  0  0  0  0
 18 19  1  0  0  0  0
 19  5  1  0  0  0  0
 20 15  1  0  0  0  0
 20 16  1  0  0  0  0
 21 13  1  0  0  0  0
 21  7  1  0  0  0  0
 22  6  1  0  0  0  0
 23 28  1  0  0  0  0
 24  2  1  0  0  0  0
 25 18  1  0  0  0  0
 25 27  1  0  0  0  0
 26  8  2  0  0  0  0
 27 21  1  0  0  0  0
 27  1  1  0  0  0  0
 28 15  1  0  0  0  0
 29 30  1  0  0  0  0
 30 23  1  0  0  0  0
 30 31  2  0  0  0  0
 33 34  2  0  0  0  0
 34 31  1  0  0  0  0
 34 32  1  0  0  0  0
 35 29  2  0  0  0  0
 35 33  1  0  0  0  0
 37 36  1  0  0  0  0
M  END
>  <MODEL>
6

>  <REMARK>
 VINA RESULT:      -8.1      2.454      5.678
  Name = 
  2 active torsions:
  status: ('A' for Active; 'I' for Inactive)
    1  A    between atoms: C_4  and  O_37
    2  A    between atoms: C_23  and  C_30
                            x       y       z     vdW  Elec       q    Type
                         _______ _______ _______ _____ _____    ______ ____

>  <TORSDO>
F 2

$$$$
=
 OpenBabel11112417133D

 37 43  0  0  1  0  0  0  0  0999 V2000
  192.6280  172.7310  142.2490 C   0  0  0  0  0  2  0  0  0  0  0  0
  196.6890  175.7730  142.8400 C   0  0  1  0  0  0  0  0  0  0  0  0
  192.8210  175.6470  144.5870 N   0  0  1  0  0  0  0  0  0  0  0  0
  192.8190  171.4500  141.4270 C   0  0  2  0  0  3  0  0  0  0  0  0
  189.8270  174.7960  142.5470 O   0  0  0  0  0  0  0  0  0  0  0  0
  195.2520  176.2040  144.9090 C   0  0  1  0  0  3  0  0  0  0  0  0
  191.9150  175.6540  143.4270 C   0  0  2  0  0  3  0  0  0  0  0  0
  190.4750  171.7870  140.5130 C   0  0  0  0  0  0  0  0  0  0  0  0
  194.0410  176.1230  143.9730 C   0  0  1  0  0  3  0  0  0  0  0  0
  190.6940  174.7290  143.6470 C   0  0  1  0  0  3  0  0  0  0  0  0
  194.8670  175.7970  146.3330 C   0  0  0  0  0  2  0  0  0  0  0  0
  191.8720  171.3100  140.2260 C   0  0  0  0  0  2  0  0  0  0  0  0
  194.2170  175.2500  142.7910 C   0  0  2  0  0  3  0  0  0  0  0  0
  197.5900  174.8470  142.3180 O   0  0  0  0  0  1  0  0  0  0  0  0
  191.1150  176.4500  146.2100 C   0  0  0  0  0  2  0  0  0  0  0  0
  193.5610  176.4980  146.7750 C   0  0  0  0  0  2  0  0  0  0  0  0
  195.3980  175.7510  141.9760 C   0  0  0  0  0  2  0  0  0  0  0  0
  190.1840  173.2500  140.7380 C   0  0  1  0  0  3  0  0  0  0  0  0
  189.6460  173.4690  142.1520 C   0  0  0  0  0  2  0  0  0  0  0  0
  192.5160  176.6180  145.6400 C   0  0  1  0  0  3  0  0  0  0  0  0
  192.8290  175.3080  142.1880 C   0  0  1  0  0  3  0  0  0  0  0  0
  196.4570  175.4420  144.3410 C   0  0  0  0  0  2  0  0  0  0  0  0
  189.8950  174.9970  144.9440 C   0  0  1  0  0  3  0  0  0  0  0  0
  197.2490  177.0330  142.7490 F   0  0  0  0  0  0  0  0  0  0  0  0
  191.4000  174.1430  140.4220 C   0  0  0  0  0  2  0  0  0  0  0  0
  189.5650  170.9760  140.5550 O   0  0  0  0  0  0  0  0  0  0  0  0
  192.5830  174.0100  141.3970 C   0  0  2  0  0  3  0  0  0  0  0  0
  190.6750  175.1200  146.1150 O   0  0  0  0  0  0  0  0  0  0  0  0
  187.8210  176.0140  145.9320 C   0  0  0  0  0  3  0  0  0  0  0  0
  188.7030  175.9220  144.8490 C   0  0  0  0  0  0  0  0  0  0  0  0
  188.4810  176.7060  143.7070 C   0  0  0  0  0  3  0  0  0  0  0  0
  187.1070  178.5350  142.2170 Cl  0  0  0  0  0  0  0  0  0  0  0  0
  186.4990  177.6480  144.7280 C   0  0  0  0  0  3  0  0  0  0  0  0
  187.3800  177.5640  143.6460 C   0  0  0  0  0  0  0  0  0  0  0  0
  186.7200  176.8740  145.8710 C   0  0  0  0  0  3  0  0  0  0  0  0
  192.3970  170.8730  143.5210 C   0  0  0  0  0  1  0  0  0  0  0  0
  192.6860  170.3410  142.2630 O   0  0  0  0  0  0  0  0  0  0  0  0
  2 14  1  6  0  0  0
  2 22  1  0  0  0  0
  3 20  1  0  0  0  0
  4  1  1  0  0  0  0
  4 37  1  0  0  0  0
  5 10  1  0  0  0  0
  6 11  1  0  0  0  0
  7 10  1  0  0  0  0
  7  3  1  0  0  0  0
  8 26  2  0  0  0  0
  8 18  1  0  0  0  0
  9  3  1  0  0  0  0
  9  6  1  0  0  0  0
 10 23  1  0  0  0  0
 11 16  1  0  0  0  0
 12  8  1  0  0  0  0
 12  4  1  0  0  0  0
 13  9  1  0  0  0  0
 17 13  1  0  0  0  0
 17  2  1  0  0  0  0
 18 19  1  0  0  0  0
 19  5  1  0  0  0  0
 20 15  1  0  0  0  0
 20 16  1  0  0  0  0
 21 13  1  0  0  0  0
 21  7  1  0  0  0  0
 22  6  1  0  0  0  0
 23 28  1  0  0  0  0
 24  2  1  0  0  0  0
 25 18  1  0  0  0  0
 25 27  1  0  0  0  0
 27 21  1  0  0  0  0
 27  1  1  0  0  0  0
 28 15  1  0  0  0  0
 30 23  1  0  0  0  0
 30 29  2  0  0  0  0
 31 30  1  0  0  0  0
 32 34  1  0  0  0  0
 33 35  2  0  0  0  0
 34 31  2  0  0  0  0
 34 33  1  0  0  0  0
 35 29  1  0  0  0  0
 37 36  1  0  0  0  0
M  END
>  <MODEL>
7

>  <REMARK>
 VINA RESULT:      -7.8      2.356      5.586
  Name = 
  2 active torsions:
  status: ('A' for Active; 'I' for Inactive)
    1  A    between atoms: C_4  and  O_37
    2  A    between atoms: C_23  and  C_30
                            x       y       z     vdW  Elec       q    Type
                         _______ _______ _______ _____ _____    ______ ____

>  <TORSDO>
F 2

$$$$
=
 OpenBabel11112417133D

 37 43  0  0  1  0  0  0  0  0999 V2000
  191.3640  173.3950  141.6950 C   0  0  0  0  0  2  0  0  0  0  0  0
  189.2280  176.5190  145.1250 C   0  0  1  0  0  0  0  0  0  0  0  0
  192.9700  174.5290  144.8790 N   0  0  1  0  0  0  0  0  0  0  0  0
  190.6540  173.2370  140.3450 C   0  0  2  0  0  3  0  0  0  0  0  0
  193.2130  171.0690  143.5320 O   0  0  0  0  0  0  0  0  0  0  0  0
  191.7220  176.5610  145.6790 C   0  0  1  0  0  3  0  0  0  0  0  0
  192.6010  173.1200  144.6670 C   0  0  2  0  0  3  0  0  0  0  0  0
  191.3400  170.7930  140.3640 C   0  0  0  0  0  0  0  0  0  0  0  0
  191.7200  175.0560  145.3800 C   0  0  1  0  0  3  0  0  0  0  0  0
  193.5600  172.4190  143.6740 C   0  0  1  0  0  3  0  0  0  0  0  0
  193.1020  177.1660  145.4170 C   0  0  0  0  0  2  0  0  0  0  0  0
  190.2850  171.7920  139.9780 C   0  0  0  0  0  2  0  0  0  0  0  0
  190.7150  174.6140  144.3880 C   0  0  2  0  0  3  0  0  0  0  0  0
  188.3070  177.0500  144.2230 O   0  0  0  0  0  1  0  0  0  0  0  0
  195.2580  174.0380  145.7240 C   0  0  0  0  0  2  0  0  0  0  0  0
  194.2160  176.2990  146.0510 C   0  0  0  0  0  2  0  0  0  0  0  0
  189.3290  174.9880  144.8870 C   0  0  0  0  0  2  0  0  0  0  0  0
  191.6310  170.4890  141.8130 C   0  0  1  0  0  3  0  0  0  0  0  0
  193.0680  170.8790  142.1560 C   0  0  0  0  0  2  0  0  0  0  0  0
  193.9470  174.7790  145.9410 C   0  0  1  0  0  3  0  0  0  0  0  0
  191.0790  173.1490  144.2530 C   0  0  1  0  0  3  0  0  0  0  0  0
  190.5720  177.2800  144.9600 C   0  0  0  0  0  2  0  0  0  0  0  0
  195.0610  172.5260  144.0280 C   0  0  1  0  0  3  0  0  0  0  0  0
  188.7580  176.7270  146.4080 F   0  0  0  0  0  0  0  0  0  0  0  0
  190.6010  171.1330  142.7620 C   0  0  0  0  0  2  0  0  0  0  0  0
  191.9630  170.2160  139.4890 O   0  0  0  0  0  0  0  0  0  0  0  0
  190.6590  172.6680  142.8520 C   0  0  2  0  0  3  0  0  0  0  0  0
  195.5100  173.8240  144.3590 O   0  0  0  0  0  0  0  0  0  0  0  0
  197.0210  171.0820  144.6480 C   0  0  0  0  0  3  0  0  0  0  0  0
  195.6710  171.3970  144.8280 C   0  0  0  0  0  0  0  0  0  0  0  0
  194.9110  170.6790  145.7650 C   0  0  0  0  0  3  0  0  0  0  0  0
  194.5430  168.7550  147.6660 Cl  0  0  0  0  0  0  0  0  0  0  0  0
  196.8460  169.3340  146.3150 C   0  0  0  0  0  3  0  0  0  0  0  0
  195.4980  169.6480  146.5040 C   0  0  0  0  0  0  0  0  0  0  0  0
  197.6080  170.0510  145.3880 C   0  0  0  0  0  3  0  0  0  0  0  0
  192.6370  174.1450  139.9750 C   0  0  0  0  0  1  0  0  0  0  0  0
  191.4470  173.7890  139.3380 O   0  0  0  0  0  0  0  0  0  0  0  0
  1 27  1  0  0  0  0
  2 14  1  6  0  0  0
  2 24  1  0  0  0  0
  3  9  1  0  0  0  0
  3 20  1  0  0  0  0
  4  1  1  0  0  0  0
  5 10  1  0  0  0  0
  7  3  1  0  0  0  0
  8 18  1  0  0  0  0
  9  6  1  0  0  0  0
 10 23  1  0  0  0  0
 10  7  1  0  0  0  0
 11  6  1  0  0  0  0
 11 16  1  0  0  0  0
 12  4  1  0  0  0  0
 12  8  1  0  0  0  0
 13 17  1  0  0  0  0
 13  9  1  0  0  0  0
 15 20  1  0  0  0  0
 17  2  1  0  0  0  0
 18 19  1  0  0  0  0
 18 25  1  0  0  0  0
 19  5  1  0  0  0  0
 20 16  1  0  0  0  0
 21 13  1  0  0  0  0
 21  7  1  0  0  0  0
 22  2  1  0  0  0  0
 22  6  1  0  0  0  0
 23 28  1  0  0  0  0
 23 30  1  0  0  0  0
 25 27  1  0  0  0  0
 26  8  2  0  0  0  0
 27 21  1  0  0  0  0
 28 15  1  0  0  0  0
 29 30  2  0  0  0  0
 29 35  1  0  0  0  0
 30 31  1  0  0  0  0
 31 34  2  0  0  0  0
 33 34  1  0  0  0  0
 34 32  1  0  0  0  0
 35 33  2  0  0  0  0
 37 36  1  0  0  0  0
 37  4  1  0  0  0  0
M  END
>  <MODEL>
8

>  <REMARK>
 VINA RESULT:      -7.7      3.788      7.919
  Name = 
  2 active torsions:
  status: ('A' for Active; 'I' for Inactive)
    1  A    between atoms: C_4  and  O_37
    2  A    between atoms: C_23  and  C_30
                            x       y       z     vdW  Elec       q    Type
                         _______ _______ _______ _____ _____    ______ ____

>  <TORSDO>
F 2

$$$$
=
 OpenBabel11112417133D

 37 43  0  0  1  0  0  0  0  0999 V2000
  189.9030  173.7910  140.0410 C   0  0  0  0  0  2  0  0  0  0  0  0
  186.8650  176.8650  142.7630 C   0  0  1  0  0  0  0  0  0  0  0  0
  190.9380  175.7100  143.0820 N   0  0  1  0  0  0  0  0  0  0  0  0
  189.3700  173.2830  138.6950 C   0  0  2  0  0  3  0  0  0  0  0  0
  192.0000  172.2190  142.3490 O   0  0  0  0  0  0  0  0  0  0  0  0
  189.2360  177.5230  143.4540 C   0  0  1  0  0  3  0  0  0  0  0  0
  190.8830  174.2390  143.0860 C   0  0  2  0  0  3  0  0  0  0  0  0
  190.5300  171.0750  139.1640 C   0  0  0  0  0  0  0  0  0  0  0  0
  189.5660  176.0260  143.4110 C   0  0  1  0  0  3  0  0  0  0  0  0
  192.0520  173.6180  142.2850 C   0  0  1  0  0  3  0  0  0  0  0  0
  190.4840  178.3630  143.1790 C   0  0  0  0  0  2  0  0  0  0  0  0
  189.3360  171.7540  138.5530 C   0  0  0  0  0  2  0  0  0  0  0  0
  188.7690  175.2340  142.4470 C   0  0  2  0  0  3  0  0  0  0  0  0
  185.9460  177.0450  141.7310 O   0  0  0  0  0  1  0  0  0  0  0  0
  193.1870  175.8530  144.1350 C   0  0  0  0  0  2  0  0  0  0  0  0
  191.6850  177.8610  144.0150 C   0  0  0  0  0  2  0  0  0  0  0  0
  187.2950  175.3740  142.7910 C   0  0  0  0  0  2  0  0  0  0  0  0
  190.7370  171.0620  140.6590 C   0  0  1  0  0  3  0  0  0  0  0  0
  192.0270  171.7980  141.0180 C   0  0  0  0  0  2  0  0  0  0  0  0
  191.7400  176.3200  144.1450 C   0  0  1  0  0  3  0  0  0  0  0  0
  189.4320  173.8790  142.5810 C   0  0  1  0  0  3  0  0  0  0  0  0
  188.0380  177.8630  142.5560 C   0  0  0  0  0  2  0  0  0  0  0  0
  193.4610  174.0960  142.7070 C   0  0  1  0  0  3  0  0  0  0  0  0
  186.2440  177.1590  143.9620 F   0  0  0  0  0  0  0  0  0  0  0  0
  189.5140  171.6050  141.4220 C   0  0  0  0  0  2  0  0  0  0  0  0
  191.3360  170.5190  138.4370 O   0  0  0  0  0  0  0  0  0  0  0  0
  189.2520  173.1130  141.2580 C   0  0  2  0  0  3  0  0  0  0  0  0
  193.6060  175.4950  142.8440 O   0  0  0  0  0  0  0  0  0  0  0  0
  193.5160  172.7390  144.8200 C   0  0  0  0  0  3  0  0  0  0  0  0
  194.2070  173.2580  143.7200 C   0  0  0  0  0  0  0  0  0  0  0  0
  195.5720  172.9730  143.5620 C   0  0  0  0  0  3  0  0  0  0  0  0
  197.9410  171.8370  144.3040 Cl  0  0  0  0  0  0  0  0  0  0  0  0
  195.5450  171.6730  145.6040 C   0  0  0  0  0  3  0  0  0  0  0  0
  196.2390  172.1840  144.5050 C   0  0  0  0  0  0  0  0  0  0  0  0
  194.1830  171.9500  145.7620 C   0  0  0  0  0  3  0  0  0  0  0  0
  189.3570  173.6450  136.5120 C   0  0  0  0  0  1  0  0  0  0  0  0
  190.1270  173.8350  137.6600 O   0  0  0  0  0  0  0  0  0  0  0  0
  1 27  1  0  0  0  0
  2 14  1  6  0  0  0
  2 17  1  0  0  0  0
  2 24  1  0  0  0  0
  3  7  1  0  0  0  0
  3  9  1  0  0  0  0
  3 20  1  0  0  0  0
  4  1  1  0  0  0  0
  8 18  1  0  0  0  0
  9  6  1  0  0  0  0
 10  5  1  0  0  0  0
 10 23  1  0  0  0  0
 10  7  1  0  0  0  0
 11  6  1  0  0  0  0
 11 16  1  0  0  0  0
 12  4  1  0  0  0  0
 12  8  1  0  0  0  0
 13 21  1  0  0  0  0
 13 17  1  0  0  0  0
 13  9  1  0  0  0  0
 15 20  1  0  0  0  0
 16 20  1  0  0  0  0
 18 19  1  0  0  0  0
 18 25  1  0  0  0  0
 19  5  1  0  0  0  0
 21  7  1  0  0  0  0
 22  2  1  0  0  0  0
 22  6  1  0  0  0  0
 23 28  1  0  0  0  0
 23 30  1  0  0  0  0
 26  8  2  0  0  0  0
 27 25  1  0  0  0  0
 27 21  1  0  0  0  0
 28 15  1  0  0  0  0
 29 35  1  0  0  0  0
 30 29  2  0  0  0  0
 31 30  1  0  0  0  0
 31 34  2  0  0  0  0
 32 34  1  0  0  0  0
 33 35  2  0  0  0  0
 34 33  1  0  0  0  0
 36 37  1  0  0  0  0
 37  4  1  0  0  0  0
M  END
>  <MODEL>
9

>  <REMARK>
 VINA RESULT:      -7.5      3.678      7.704
  Name = 
  2 active torsions:
  status: ('A' for Active; 'I' for Inactive)
    1  A    between atoms: C_4  and  O_37
    2  A    between atoms: C_23  and  C_30
                            x       y       z     vdW  Elec       q    Type
                         _______ _______ _______ _____ _____    ______ ____

>  <TORSDO>
F 2

$$$$
