=
 OpenBabel11112416263D

 30 36  0  0  1  0  0  0  0  0999 V2000
  187.4850  176.7660  141.6170 C   0  0  0  0  0  0  0  0  0  0  0  0
  188.0950  175.0080  140.0210 C   0  0  0  0  0  0  0  0  0  0  0  0
  189.3690  174.6620  144.7190 N   0  0  0  0  0  0  0  0  0  0  0  0
  187.6770  177.4880  142.9570 C   0  0  1  0  0  3  0  0  0  0  0  0
  186.4790  177.3630  140.6530 C   0  0  0  0  0  2  0  0  0  0  0  0
  184.2830  178.8410  143.0320 O   0  0  0  0  0  0  0  0  0  0  0  0
  185.7870  176.9830  145.7900 C   0  0  1  0  0  3  0  0  0  0  0  0
  185.4160  178.4790  142.6150 C   0  0  0  0  0  0  0  0  0  0  0  0
  187.2350  177.4740  145.8980 C   0  0  1  0  0  0  0  0  0  0  0  0
  188.8880  175.3680  145.6980 C   0  0  0  0  0  0  0  0  0  0  0  0
  185.7780  178.6230  141.1640 C   0  0  2  0  0  3  0  0  0  0  0  0
  186.4030  177.9700  143.5250 N   0  0  0  0  0  0  0  0  0  0  0  0
  188.7420  173.7960  139.7730 C   0  0  0  0  0  3  0  0  0  0  0  0
  187.4540  177.9660  147.3250 C   0  0  0  0  0  2  0  0  0  0  0  0
  185.2170  177.3330  147.1300 C   0  0  0  0  0  3  0  0  0  0  0  0
  187.4270  175.5750  138.9850 F   0  0  0  0  0  0  0  0  0  0  0  0
  189.0360  175.4010  143.5430 C   0  0  0  0  0  0  0  0  0  0  0  0
  189.4440  173.1700  140.7490 N   0  0  0  0  0  0  0  0  0  0  0  0
  188.1740  175.6100  141.3060 C   0  0  0  0  0  0  0  0  0  0  0  0
  188.3810  176.6080  143.9190 C   0  0  0  0  0  0  0  0  0  0  0  0
  188.9630  174.9320  147.1170 C   0  0  0  0  0  1  0  0  0  0  0  0
  188.2370  176.5980  145.2210 C   0  0  0  0  0  0  0  0  0  0  0  0
  186.1150  177.8440  147.9630 C   0  0  0  0  0  3  0  0  0  0  0  0
  185.8380  179.4670  145.3890 O   0  0  0  0  0  1  0  0  0  0  0  0
  189.5530  173.7000  141.9920 C   0  0  0  0  0  3  0  0  0  0  0  0
  188.9500  174.9230  142.3000 C   0  0  0  0  0  0  0  0  0  0  0  0
  186.2520  178.1950  144.9780 C   0  0  1  0  0  0  0  0  0  0  0  0
  184.6450  178.8750  140.3870 O   0  0  0  0  0  0  0  0  0  0  0  0
  182.5640  177.7360  140.2280 C   0  0  0  0  0  1  0  0  0  0  0  0
  184.0730  177.6200  140.1700 C   0  0  0  0  0  2  0  0  0  0  0  0
  2 19  1  0  0  0  0
  3 10  2  0  0  0  0
  4  1  1  6  0  0  0
  4 12  1  0  0  0  0
  4 20  1  0  0  0  0
  5 11  1  0  0  0  0
  5  1  1  0  0  0  0
  7  9  1  0  0  0  0
  7 15  1  1  0  0  0
  8  6  2  0  0  0  0
  8 12  1  0  0  0  0
  9 14  1  1  0  0  0
 10 21  1  0  0  0  0
 11 28  1  6  0  0  0
 11  8  1  0  0  0  0
 12 27  1  0  0  0  0
 13  2  2  0  0  0  0
 13 18  1  0  0  0  0
 14 23  1  0  0  0  0
 15 23  2  0  0  0  0
 16  2  1  0  0  0  0
 17 20  1  0  0  0  0
 17  3  1  0  0  0  0
 18 25  2  0  0  0  0
 19  1  2  0  0  0  0
 19 26  1  0  0  0  0
 20 22  2  0  0  0  0
 22 10  1  0  0  0  0
 22  9  1  0  0  0  0
 25 26  1  0  0  0  0
 26 17  2  0  0  0  0
 27 24  1  1  0  0  0
 27  7  1  0  0  0  0
 27  9  1  0  0  0  0
 30 29  1  0  0  0  0
 30 28  1  0  0  0  0
M  END
>  <MODEL>
1

>  <REMARK>
 VINA RESULT:      -8.7      0.000      0.000
  Name = 
  2 active torsions:
  status: ('A' for Active; 'I' for Inactive)
    1  A    between atoms: C_11  and  O_28
    2  A    between atoms: O_28  and  C_30
                            x       y       z     vdW  Elec       q    Type
                         _______ _______ _______ _____ _____    ______ ____

>  <TORSDO>
F 2

$$$$
=
 OpenBabel11112416263D

 30 36  0  0  1  0  0  0  0  0999 V2000
  188.5710  175.4090  141.6860 C   0  0  0  0  0  0  0  0  0  0  0  0
  189.4000  173.3720  140.6030 C   0  0  0  0  0  0  0  0  0  0  0  0
  189.7860  173.9620  145.4320 N   0  0  0  0  0  0  0  0  0  0  0  0
  188.5410  176.3810  142.8720 C   0  0  1  0  0  3  0  0  0  0  0  0
  187.7780  175.8030  140.4560 C   0  0  0  0  0  2  0  0  0  0  0  0
  185.2390  177.7160  142.0540 O   0  0  0  0  0  0  0  0  0  0  0  0
  186.1510  176.4420  145.3500 C   0  0  1  0  0  3  0  0  0  0  0  0
  186.4160  177.2820  141.9320 C   0  0  0  0  0  0  0  0  0  0  0  0
  187.5720  176.9480  145.6270 C   0  0  1  0  0  0  0  0  0  0  0  0
  189.1590  174.8470  146.1490 C   0  0  0  0  0  0  0  0  0  0  0  0
  187.0400  177.1370  140.5730 C   0  0  2  0  0  3  0  0  0  0  0  0
  187.2020  176.9640  143.0900 N   0  0  0  0  0  0  0  0  0  0  0  0
  190.0380  172.1360  140.7190 C   0  0  0  0  0  3  0  0  0  0  0  0
  187.5440  177.7120  146.9460 C   0  0  0  0  0  2  0  0  0  0  0  0
  185.3600  177.0490  146.4670 C   0  0  0  0  0  3  0  0  0  0  0  0
  188.9500  173.7220  139.3720 F   0  0  0  0  0  0  0  0  0  0  0  0
  189.6980  174.4540  144.0940 C   0  0  0  0  0  0  0  0  0  0  0  0
  190.5280  171.7170  141.9110 N   0  0  0  0  0  0  0  0  0  0  0  0
  189.2640  174.2160  141.7390 C   0  0  0  0  0  0  0  0  0  0  0  0
  189.0280  175.7100  144.1010 C   0  0  0  0  0  0  0  0  0  0  0  0
  188.9590  174.6990  147.6150 C   0  0  0  0  0  1  0  0  0  0  0  0
  188.6490  175.9570  145.3300 C   0  0  0  0  0  0  0  0  0  0  0  0
  186.1080  177.7160  147.3370 C   0  0  0  0  0  3  0  0  0  0  0  0
  186.3610  178.7990  144.4900 O   0  0  0  0  0  1  0  0  0  0  0  0
  190.4290  172.4810  143.0260 C   0  0  0  0  0  3  0  0  0  0  0  0
  189.8220  173.7390  142.9730 C   0  0  0  0  0  0  0  0  0  0  0  0
  186.7980  177.4710  144.4180 C   0  0  1  0  0  0  0  0  0  0  0  0
  186.0760  177.2280  139.5660 O   0  0  0  0  0  0  0  0  0  0  0  0
  185.7810  176.2150  137.4350 C   0  0  0  0  0  1  0  0  0  0  0  0
  186.7490  176.8780  138.3940 C   0  0  0  0  0  2  0  0  0  0  0  0
  1 19  2  0  0  0  0
  2 13  2  0  0  0  0
  2 19  1  0  0  0  0
  3 10  2  0  0  0  0
  4  1  1  6  0  0  0
  4 12  1  0  0  0  0
  4 20  1  0  0  0  0
  5 11  1  0  0  0  0
  5  1  1  0  0  0  0
  7  9  1  0  0  0  0
  7 15  1  1  0  0  0
  8  6  2  0  0  0  0
  8 12  1  0  0  0  0
  9 14  1  1  0  0  0
 10 21  1  0  0  0  0
 11 28  1  6  0  0  0
 11  8  1  0  0  0  0
 12 27  1  0  0  0  0
 13 18  1  0  0  0  0
 14 23  1  0  0  0  0
 15 23  2  0  0  0  0
 16  2  1  0  0  0  0
 17 20  1  0  0  0  0
 17  3  1  0  0  0  0
 18 25  2  0  0  0  0
 19 26  1  0  0  0  0
 20 22  2  0  0  0  0
 22  9  1  0  0  0  0
 22 10  1  0  0  0  0
 26 25  1  0  0  0  0
 26 17  2  0  0  0  0
 27 24  1  1  0  0  0
 27  7  1  0  0  0  0
 27  9  1  0  0  0  0
 29 30  1  0  0  0  0
 30 28  1  0  0  0  0
M  END
>  <MODEL>
2

>  <REMARK>
 VINA RESULT:      -8.3      1.516      1.809
  Name = 
  2 active torsions:
  status: ('A' for Active; 'I' for Inactive)
    1  A    between atoms: C_11  and  O_28
    2  A    between atoms: O_28  and  C_30
                            x       y       z     vdW  Elec       q    Type
                         _______ _______ _______ _____ _____    ______ ____

>  <TORSDO>
F 2

$$$$
=
 OpenBabel11112416263D

 30 36  0  0  1  0  0  0  0  0999 V2000
  187.5740  176.0710  143.6080 C   0  0  0  0  0  0  0  0  0  0  0  0
  185.5930  177.4920  143.3530 C   0  0  0  0  0  0  0  0  0  0  0  0
  188.4910  177.9330  147.2540 N   0  0  0  0  0  0  0  0  0  0  0  0
  188.6720  175.4420  144.4760 C   0  0  1  0  0  3  0  0  0  0  0  0
  187.5200  175.6450  142.1550 C   0  0  0  0  0  2  0  0  0  0  0  0
  190.9760  174.9360  141.6840 O   0  0  0  0  0  0  0  0  0  0  0  0
  191.8930  176.6180  144.7900 C   0  0  1  0  0  3  0  0  0  0  0  0
  189.9160  174.9830  142.3650 C   0  0  0  0  0  0  0  0  0  0  0  0
  191.2450  175.8120  145.9220 C   0  0  1  0  0  0  0  0  0  0  0  0
  189.6900  177.4460  147.3780 C   0  0  0  0  0  0  0  0  0  0  0  0
  188.5930  174.6340  141.7460 C   0  0  2  0  0  3  0  0  0  0  0  0
  189.9580  175.3230  143.7590 N   0  0  0  0  0  0  0  0  0  0  0  0
  184.7690  178.4920  143.8720 C   0  0  0  0  0  3  0  0  0  0  0  0
  192.3480  175.4070  146.8940 C   0  0  0  0  0  2  0  0  0  0  0  0
  193.3520  176.5290  145.1120 C   0  0  0  0  0  3  0  0  0  0  0  0
  185.2810  177.0110  142.1230 F   0  0  0  0  0  0  0  0  0  0  0  0
  187.9120  177.1940  146.1780 C   0  0  0  0  0  0  0  0  0  0  0  0
  185.0030  179.0170  145.0990 N   0  0  0  0  0  0  0  0  0  0  0  0
  186.6880  177.0010  144.1150 C   0  0  0  0  0  0  0  0  0  0  0  0
  188.8400  176.2110  145.7310 C   0  0  0  0  0  0  0  0  0  0  0  0
  190.6750  177.9730  148.3590 C   0  0  0  0  0  1  0  0  0  0  0  0
  189.9480  176.3660  146.4120 C   0  0  0  0  0  0  0  0  0  0  0  0
  193.5990  175.8950  146.2520 C   0  0  0  0  0  3  0  0  0  0  0  0
  192.0690  174.1660  144.2490 O   0  0  0  0  0  1  0  0  0  0  0  0
  186.0310  178.5860  145.8690 C   0  0  0  0  0  3  0  0  0  0  0  0
  186.8800  177.5700  145.4190 C   0  0  0  0  0  0  0  0  0  0  0  0
  191.2380  175.2660  144.4950 C   0  0  1  0  0  0  0  0  0  0  0  0
  188.6870  174.5900  140.3530 O   0  0  0  0  0  0  0  0  0  0  0  0
  188.3650  173.1230  138.5090 C   0  0  0  0  0  1  0  0  0  0  0  0
  188.4100  173.2630  140.0170 C   0  0  0  0  0  2  0  0  0  0  0  0
  1 19  2  0  0  0  0
  2 13  2  0  0  0  0
  2 19  1  0  0  0  0
  3 10  2  0  0  0  0
  4  1  1  6  0  0  0
  4 20  1  0  0  0  0
  5  1  1  0  0  0  0
  6  8  2  0  0  0  0
  7 15  1  1  0  0  0
  7  9  1  0  0  0  0
  8 12  1  0  0  0  0
  9 22  1  0  0  0  0
  9 14  1  1  0  0  0
 10 21  1  0  0  0  0
 11 28  1  6  0  0  0
 11  5  1  0  0  0  0
 11  8  1  0  0  0  0
 12  4  1  0  0  0  0
 12 27  1  0  0  0  0
 13 18  1  0  0  0  0
 15 23  2  0  0  0  0
 16  2  1  0  0  0  0
 17  3  1  0  0  0  0
 18 25  2  0  0  0  0
 19 26  1  0  0  0  0
 20 17  1  0  0  0  0
 20 22  2  0  0  0  0
 22 10  1  0  0  0  0
 23 14  1  0  0  0  0
 26 25  1  0  0  0  0
 26 17  2  0  0  0  0
 27 24  1  6  0  0  0
 27  7  1  0  0  0  0
 27  9  1  0  0  0  0
 29 30  1  0  0  0  0
 30 28  1  0  0  0  0
M  END
>  <MODEL>
3

>  <REMARK>
 VINA RESULT:      -8.2      3.245      5.541
  Name = 
  2 active torsions:
  status: ('A' for Active; 'I' for Inactive)
    1  A    between atoms: C_11  and  O_28
    2  A    between atoms: O_28  and  C_30
                            x       y       z     vdW  Elec       q    Type
                         _______ _______ _______ _____ _____    ______ ____

>  <TORSDO>
F 2

$$$$
=
 OpenBabel11112416263D

 30 36  0  0  1  0  0  0  0  0999 V2000
  186.1490  177.1220  144.3340 C   0  0  2  0  0  3  0  0  0  0  0  0
  184.6200  178.2440  145.8870 C   0  0  0  0  0  0  0  0  0  0  0  0
  188.9180  176.5220  147.4270 N   0  0  0  0  0  0  0  0  0  0  0  0
  187.3400  176.1970  144.0560 C   0  0  1  0  0  3  0  0  0  0  0  0
  185.3890  177.6420  143.1290 C   0  0  0  0  0  2  0  0  0  0  0  0
  188.0620  177.6450  140.7800 O   0  0  0  0  0  0  0  0  0  0  0  0
  190.5620  177.2220  143.4050 C   0  0  1  0  0  3  0  0  0  0  0  0
  187.4320  177.1890  141.7720 C   0  0  0  0  0  0  0  0  0  0  0  0
  190.2940  175.8500  144.0340 C   0  0  1  0  0  0  0  0  0  0  0  0
  189.9140  176.1600  146.6730 C   0  0  2  0  0  3  0  0  0  0  0  0
  185.9310  177.1660  141.7800 C   0  0  2  0  0  3  0  0  0  0  0  0
  188.1370  176.6360  142.8940 N   0  0  0  0  0  0  0  0  0  0  0  0
  184.3410  178.6660  147.1880 C   0  0  0  0  0  3  0  0  0  0  0  0
  191.5850  175.0410  143.9510 C   0  0  0  0  0  2  0  0  0  0  0  0
  191.9590  177.0830  142.8840 C   0  0  0  0  0  3  0  0  0  0  0  0
  183.7160  178.5640  144.9270 F   0  0  0  0  0  0  0  0  0  0  0  0
  187.7880  176.5210  146.5540 C   0  0  0  0  0  0  0  0  0  0  0  0
  185.1850  178.3760  148.2080 N   0  0  0  0  0  0  0  0  0  0  0  0
  185.7950  177.4910  145.6170 C   0  0  0  0  0  0  0  0  0  0  0  0
  188.1930  176.0800  145.2630 C   0  0  0  0  0  0  0  0  0  0  0  0
  191.3130  176.0820  147.1720 C   0  0  0  0  0  1  0  0  0  0  0  0
  189.4890  175.8930  145.2900 C   0  0  0  0  0  0  0  0  0  0  0  0
  192.5180  175.9190  143.1930 C   0  0  0  0  0  3  0  0  0  0  0  0
  189.9390  175.5980  141.5860 O   0  0  0  0  0  1  0  0  0  0  0  0
  186.3180  177.6600  148.0080 C   0  0  0  0  0  3  0  0  0  0  0  0
  186.6440  177.1870  146.7330 C   0  0  0  0  0  0  0  0  0  0  0  0
  189.5600  176.2610  142.7590 C   0  0  1  0  0  0  0  0  0  0  0  0
  185.4110  177.9670  140.7600 O   0  0  0  0  0  0  0  0  0  0  0  0
  183.1130  177.9160  140.1510 C   0  0  0  0  0  1  0  0  0  0  0  0
  184.1330  178.3190  141.1970 C   0  0  0  0  0  2  0  0  0  0  0  0
  1  5  1  6  0  0  0
  1 19  1  0  0  0  0
  2 13  1  0  0  0  0
  4  1  1  0  0  0  0
  4 20  1  1  0  0  0
  6  8  2  0  0  0  0
  7 15  1  6  0  0  0
  7  9  1  0  0  0  0
  8 11  1  0  0  0  0
  8 12  1  0  0  0  0
  9 14  1  6  0  0  0
  9 22  1  0  0  0  0
 10 21  1  6  0  0  0
 10  3  1  0  0  0  0
 11 28  1  6  0  0  0
 11  5  1  0  0  0  0
 12  4  1  0  0  0  0
 13 18  2  0  0  0  0
 15 23  2  0  0  0  0
 16  2  1  0  0  0  0
 17 26  1  0  0  0  0
 17  3  2  0  0  0  0
 19  2  2  0  0  0  0
 19 26  1  0  0  0  0
 20 22  2  0  0  0  0
 20 17  1  0  0  0  0
 22 10  1  0  0  0  0
 23 14  1  0  0  0  0
 25 18  1  0  0  0  0
 26 25  2  0  0  0  0
 27 24  1  6  0  0  0
 27 12  1  0  0  0  0
 27  7  1  0  0  0  0
 27  9  1  0  0  0  0
 28 30  1  0  0  0  0
 29 30  1  0  0  0  0
M  END
>  <MODEL>
4

>  <REMARK>
 VINA RESULT:      -7.9      2.705      5.185
  Name = 
  2 active torsions:
  status: ('A' for Active; 'I' for Inactive)
    1  A    between atoms: C_11  and  O_28
    2  A    between atoms: O_28  and  C_30
                            x       y       z     vdW  Elec       q    Type
                         _______ _______ _______ _____ _____    ______ ____

>  <TORSDO>
F 2

$$$$
=
 OpenBabel11112416263D

 30 36  0  0  1  0  0  0  0  0999 V2000
  187.6690  177.3590  143.6740 C   0  0  0  0  0  0  0  0  0  0  0  0
  185.7950  178.3930  142.4790 C   0  0  0  0  0  0  0  0  0  0  0  0
  188.5650  175.0060  140.3190 N   0  0  0  0  0  0  0  0  0  0  0  0
  188.9890  176.5770  143.6820 C   0  0  1  0  0  3  0  0  0  0  0  0
  187.1710  177.8760  145.0090 C   0  0  0  0  0  2  0  0  0  0  0  0
  188.5770  175.3660  147.1050 O   0  0  0  0  0  0  0  0  0  0  0  0
  189.3100  173.1980  144.2620 C   0  0  1  0  0  3  0  0  0  0  0  0
  188.5740  176.1230  146.0970 C   0  0  0  0  0  0  0  0  0  0  0  0
  190.3450  173.9430  143.4110 C   0  0  1  0  0  0  0  0  0  0  0  0
  189.3960  174.2010  140.9130 C   0  0  0  0  0  0  0  0  0  0  0  0
  188.0680  177.5330  146.2000 C   0  0  2  0  0  3  0  0  0  0  0  0
  189.1010  175.6700  144.8410 N   0  0  0  0  0  0  0  0  0  0  0  0
  185.0490  178.5090  141.3060 C   0  0  0  0  0  3  0  0  0  0  0  0
  191.5530  173.0280  143.2420 C   0  0  0  0  0  2  0  0  0  0  0  0
  190.0320  171.9420  144.6380 C   0  0  0  0  0  3  0  0  0  0  0  0
  185.3800  179.1160  143.5500 F   0  0  0  0  0  0  0  0  0  0  0  0
  188.3450  176.0560  141.2610 C   0  0  0  0  0  0  0  0  0  0  0  0
  185.4040  177.8310  140.1870 N   0  0  0  0  0  0  0  0  0  0  0  0
  186.9500  177.5640  142.5140 C   0  0  0  0  0  0  0  0  0  0  0  0
  189.1520  175.8290  142.4120 C   0  0  0  0  0  0  0  0  0  0  0  0
  189.8570  172.9270  140.3020 C   0  0  0  0  0  1  0  0  0  0  0  0
  189.7710  174.6870  142.2500 C   0  0  0  0  0  0  0  0  0  0  0  0
  191.2300  171.8380  144.0760 C   0  0  0  0  0  3  0  0  0  0  0  0
  190.9450  174.3530  145.7890 O   0  0  0  0  0  1  0  0  0  0  0  0
  186.4960  177.0280  140.1630 C   0  0  0  0  0  3  0  0  0  0  0  0
  187.3000  176.8870  141.2980 C   0  0  0  0  0  0  0  0  0  0  0  0
  189.9690  174.4740  144.7930 C   0  0  1  0  0  0  0  0  0  0  0  0
  187.3590  177.7260  147.3890 O   0  0  0  0  0  0  0  0  0  0  0  0
  185.1890  178.6660  147.6360 C   0  0  0  0  0  1  0  0  0  0  0  0
  186.0190  177.5480  147.0400 C   0  0  0  0  0  2  0  0  0  0  0  0
  1  4  1  0  0  0  0
  1  5  1  0  0  0  0
  2 19  1  0  0  0  0
  2 16  1  0  0  0  0
  3 10  2  0  0  0  0
  3 17  1  0  0  0  0
  4 20  1  6  0  0  0
  4 12  1  0  0  0  0
  5 11  1  0  0  0  0
  7 15  1  1  0  0  0
  7 27  1  0  0  0  0
  8 11  1  0  0  0  0
  8  6  2  0  0  0  0
  9 14  1  6  0  0  0
  9  7  1  0  0  0  0
  9 27  1  0  0  0  0
 10 22  1  0  0  0  0
 11 28  1  1  0  0  0
 12  8  1  0  0  0  0
 13  2  2  0  0  0  0
 14 23  1  0  0  0  0
 17 26  2  0  0  0  0
 17 20  1  0  0  0  0
 18 13  1  0  0  0  0
 19  1  2  0  0  0  0
 21 10  1  0  0  0  0
 22 20  2  0  0  0  0
 22  9  1  0  0  0  0
 23 15  2  0  0  0  0
 25 18  2  0  0  0  0
 25 26  1  0  0  0  0
 26 19  1  0  0  0  0
 27 12  1  0  0  0  0
 27 24  1  1  0  0  0
 30 28  1  0  0  0  0
 30 29  1  0  0  0  0
M  END
>  <MODEL>
5

>  <REMARK>
 VINA RESULT:      -7.9      2.552      5.616
  Name = 
  2 active torsions:
  status: ('A' for Active; 'I' for Inactive)
    1  A    between atoms: C_11  and  O_28
    2  A    between atoms: O_28  and  C_30
                            x       y       z     vdW  Elec       q    Type
                         _______ _______ _______ _____ _____    ______ ____

>  <TORSDO>
F 2

$$$$
=
 OpenBabel11112416263D

 30 36  0  0  1  0  0  0  0  0999 V2000
  188.1750  177.0530  144.8460 C   0  0  2  0  0  3  0  0  0  0  0  0
  186.5350  178.5370  145.9020 C   0  0  0  0  0  0  0  0  0  0  0  0
  186.4420  177.7420  141.0880 N   0  0  0  0  0  0  0  0  0  0  0  0
  188.9280  176.5490  143.6080 C   0  0  1  0  0  3  0  0  0  0  0  0
  188.5870  176.4710  146.1830 C   0  0  0  0  0  2  0  0  0  0  0  0
  189.6870  173.2800  145.0550 O   0  0  0  0  0  0  0  0  0  0  0  0
  188.1310  173.7390  141.7850 C   0  0  1  0  0  3  0  0  0  0  0  0
  189.5200  174.5240  144.9340 C   0  0  0  0  0  0  0  0  0  0  0  0
  188.8610  174.9130  141.1240 C   0  0  1  0  0  0  0  0  0  0  0  0
  187.0640  176.7920  140.4550 C   0  0  0  0  0  0  0  0  0  0  0  0
  189.7140  175.4380  146.1090 C   0  0  2  0  0  3  0  0  0  0  0  0
  189.1920  175.0970  143.6600 N   0  0  0  0  0  0  0  0  0  0  0  0
  185.4480  179.4020  145.7640 C   0  0  0  0  0  3  0  0  0  0  0  0
  189.3930  174.4320  139.7780 C   0  0  0  0  0  2  0  0  0  0  0  0
  188.3890  172.6100  140.8360 C   0  0  0  0  0  3  0  0  0  0  0  0
  186.9730  178.2920  147.1620 F   0  0  0  0  0  0  0  0  0  0  0  0
  187.1070  177.8300  142.3490 C   0  0  2  0  0  3  0  0  0  0  0  0
  184.9580  179.7110  144.5380 N   0  0  0  0  0  0  0  0  0  0  0  0
  187.1500  177.9740  144.7510 C   0  0  0  0  0  0  0  0  0  0  0  0
  188.1880  176.9040  142.3740 C   0  0  0  0  0  0  0  0  0  0  0  0
  186.6560  176.3250  139.1040 C   0  0  0  0  0  1  0  0  0  0  0  0
  188.1630  176.2260  141.2540 C   0  0  0  0  0  0  0  0  0  0  0  0
  189.0500  172.9840  139.7470 C   0  0  0  0  0  3  0  0  0  0  0  0
  190.5850  173.5800  142.3210 O   0  0  0  0  0  1  0  0  0  0  0  0
  185.5060  179.2040  143.4080 C   0  0  0  0  0  3  0  0  0  0  0  0
  186.6120  178.3500  143.4750 C   0  0  0  0  0  0  0  0  0  0  0  0
  189.3980  174.3150  142.4230 C   0  0  1  0  0  0  0  0  0  0  0  0
  189.7640  174.7160  147.3050 O   0  0  0  0  0  0  0  0  0  0  0  0
  192.0670  175.2920  147.1790 C   0  0  0  0  0  1  0  0  0  0  0  0
  190.8120  175.2900  148.0260 C   0  0  0  0  0  2  0  0  0  0  0  0
  1  5  1  6  0  0  0
  2 16  1  0  0  0  0
  4 20  1  6  0  0  0
  4 12  1  0  0  0  0
  4  1  1  0  0  0  0
  7 15  1  6  0  0  0
  7 27  1  0  0  0  0
  8  6  2  0  0  0  0
  8 11  1  0  0  0  0
  9 14  1  6  0  0  0
  9 22  1  0  0  0  0
  9  7  1  0  0  0  0
  9 27  1  0  0  0  0
 10  3  2  0  0  0  0
 10 22  1  0  0  0  0
 11  5  1  0  0  0  0
 11 28  1  1  0  0  0
 12  8  1  0  0  0  0
 13  2  1  0  0  0  0
 17  3  1  1  0  0  0
 17 20  1  0  0  0  0
 17 26  1  0  0  0  0
 18 13  2  0  0  0  0
 19  1  1  0  0  0  0
 19  2  2  0  0  0  0
 21 10  1  0  0  0  0
 22 20  2  0  0  0  0
 23 14  1  0  0  0  0
 23 15  2  0  0  0  0
 25 26  2  0  0  0  0
 25 18  1  0  0  0  0
 26 19  1  0  0  0  0
 27 24  1  6  0  0  0
 27 12  1  0  0  0  0
 28 30  1  0  0  0  0
 29 30  1  0  0  0  0
M  END
>  <MODEL>
6

>  <REMARK>
 VINA RESULT:      -7.7      3.322      7.080
  Name = 
  2 active torsions:
  status: ('A' for Active; 'I' for Inactive)
    1  A    between atoms: C_11  and  O_28
    2  A    between atoms: O_28  and  C_30
                            x       y       z     vdW  Elec       q    Type
                         _______ _______ _______ _____ _____    ______ ____

>  <TORSDO>
F 2

$$$$
=
 OpenBabel11112416263D

 30 36  0  0  1  0  0  0  0  0999 V2000
  189.2210  175.0910  141.6300 C   0  0  0  0  0  0  0  0  0  0  0  0
  189.0670  173.5300  139.7460 C   0  0  0  0  0  0  0  0  0  0  0  0
  192.5580  173.0300  143.1190 N   0  0  0  0  0  0  0  0  0  0  0  0
  190.0110  175.7410  142.7740 C   0  0  1  0  0  3  0  0  0  0  0  0
  187.8270  175.6250  141.3690 C   0  0  0  0  0  2  0  0  0  0  0  0
  187.0320  176.6650  144.6790 O   0  0  0  0  0  0  0  0  0  0  0  0
  189.8510  174.8250  146.0890 C   0  0  1  0  0  3  0  0  0  0  0  0
  187.8220  176.4720  143.7150 C   0  0  0  0  0  0  0  0  0  0  0  0
  191.1160  175.4800  145.5230 C   0  0  1  0  0  0  0  0  0  0  0  0
  192.5880  173.6070  144.2840 C   0  0  0  0  0  0  0  0  0  0  0  0
  187.3920  176.7550  142.3050 C   0  0  2  0  0  3  0  0  0  0  0  0
  189.1670  176.0270  143.9500 N   0  0  0  0  0  0  0  0  0  0  0  0
  189.5840  172.4240  139.0700 C   0  0  0  0  0  3  0  0  0  0  0  0
  191.9890  175.8990  146.7010 C   0  0  0  0  0  2  0  0  0  0  0  0
  190.0110  175.0140  147.5650 C   0  0  0  0  0  3  0  0  0  0  0  0
  187.9280  174.0790  139.2530 F   0  0  0  0  0  0  0  0  0  0  0  0
  191.6260  173.8000  142.3590 C   0  0  0  0  0  0  0  0  0  0  0  0
  190.7250  171.8250  139.4890 N   0  0  0  0  0  0  0  0  0  0  0  0
  189.7400  174.0500  140.8850 C   0  0  0  0  0  0  0  0  0  0  0  0
  191.1660  174.8910  143.1500 C   0  0  0  0  0  0  0  0  0  0  0  0
  193.3990  173.0900  145.4170 C   0  0  0  0  0  1  0  0  0  0  0  0
  191.6990  174.7780  144.3400 C   0  0  0  0  0  0  0  0  0  0  0  0
  191.1680  175.5740  147.8980 C   0  0  0  0  0  3  0  0  0  0  0  0
  189.5150  177.3180  146.0110 O   0  0  0  0  0  1  0  0  0  0  0  0
  191.4090  172.2800  140.5670 C   0  0  0  0  0  3  0  0  0  0  0  0
  190.9580  173.3980  141.2750 C   0  0  0  0  0  0  0  0  0  0  0  0
  189.7540  176.1350  145.3020 C   0  0  1  0  0  0  0  0  0  0  0  0
  186.0060  176.9180  142.2260 O   0  0  0  0  0  0  0  0  0  0  0  0
  184.9370  178.1900  140.5250 C   0  0  0  0  0  1  0  0  0  0  0  0
  185.8250  178.2180  141.7530 C   0  0  0  0  0  2  0  0  0  0  0  0
  2 19  1  0  0  0  0
  3 10  2  0  0  0  0
  4  1  1  6  0  0  0
  4 20  1  0  0  0  0
  4 12  1  0  0  0  0
  5  1  1  0  0  0  0
  5 11  1  0  0  0  0
  7 15  1  1  0  0  0
  8 12  1  0  0  0  0
  8  6  2  0  0  0  0
  9  7  1  0  0  0  0
  9 14  1  1  0  0  0
 10 22  1  0  0  0  0
 10 21  1  0  0  0  0
 11 28  1  1  0  0  0
 11  8  1  0  0  0  0
 12 27  1  0  0  0  0
 13 18  1  0  0  0  0
 13  2  2  0  0  0  0
 14 23  1  0  0  0  0
 15 23  2  0  0  0  0
 16  2  1  0  0  0  0
 17  3  1  0  0  0  0
 17 20  1  0  0  0  0
 18 25  2  0  0  0  0
 19 26  1  0  0  0  0
 19  1  2  0  0  0  0
 20 22  2  0  0  0  0
 22  9  1  0  0  0  0
 25 26  1  0  0  0  0
 26 17  2  0  0  0  0
 27  9  1  0  0  0  0
 27 24  1  1  0  0  0
 27  7  1  0  0  0  0
 29 30  1  0  0  0  0
 30 28  1  0  0  0  0
M  END
>  <MODEL>
7

>  <REMARK>
 VINA RESULT:      -7.6      2.335      3.548
  Name = 
  2 active torsions:
  status: ('A' for Active; 'I' for Inactive)
    1  A    between atoms: C_11  and  O_28
    2  A    between atoms: O_28  and  C_30
                            x       y       z     vdW  Elec       q    Type
                         _______ _______ _______ _____ _____    ______ ____

>  <TORSDO>
F 2

$$$$
=
 OpenBabel11112416263D

 30 36  0  0  1  0  0  0  0  0999 V2000
  188.0770  175.5630  141.9380 C   0  0  0  0  0  0  0  0  0  0  0  0
  186.6900  176.9500  140.4670 C   0  0  0  0  0  0  0  0  0  0  0  0
  186.8370  177.7860  145.2730 N   0  0  0  0  0  0  0  0  0  0  0  0
  188.4380  175.0270  143.3290 C   0  0  1  0  0  3  0  0  0  0  0  0
  188.8450  174.9930  140.7620 C   0  0  0  0  0  2  0  0  0  0  0  0
  191.8940  174.2420  142.4360 O   0  0  0  0  0  0  0  0  0  0  0  0
  190.9540  176.2320  145.3480 C   0  0  1  0  0  3  0  0  0  0  0  0
  190.6400  174.3570  142.3730 C   0  0  0  0  0  0  0  0  0  0  0  0
  189.7280  175.5440  145.9590 C   0  0  1  0  0  0  0  0  0  0  0  0
  187.7170  177.3160  146.1070 C   0  0  0  0  0  0  0  0  0  0  0  0
  189.8960  173.9460  141.1350 C   0  0  2  0  0  3  0  0  0  0  0  0
  189.8920  174.8370  143.5010 N   0  0  0  0  0  0  0  0  0  0  0  0
  185.7770  177.9970  140.3290 C   0  0  0  0  0  3  0  0  0  0  0  0
  190.0450  175.2410  147.4200 C   0  0  0  0  0  2  0  0  0  0  0  0
  191.9550  176.1760  146.4600 C   0  0  0  0  0  3  0  0  0  0  0  0
  187.1150  176.3460  139.3290 F   0  0  0  0  0  0  0  0  0  0  0  0
  186.9400  176.9420  144.1260 C   0  0  0  0  0  0  0  0  0  0  0  0
  185.2930  178.6440  141.4170 N   0  0  0  0  0  0  0  0  0  0  0  0
  187.1170  176.5400  141.7600 C   0  0  0  0  0  0  0  0  0  0  0  0
  187.8980  175.9200  144.3820 C   0  0  0  0  0  0  0  0  0  0  0  0
  187.9870  177.9410  147.4280 C   0  0  0  0  0  1  0  0  0  0  0  0
  188.4200  176.1440  145.5620 C   0  0  0  0  0  0  0  0  0  0  0  0
  191.4640  175.6620  147.5810 C   0  0  0  0  0  3  0  0  0  0  0  0
  191.2660  173.7380  145.2150 O   0  0  0  0  0  1  0  0  0  0  0  0
  185.6640  178.2940  142.6730 C   0  0  0  0  0  3  0  0  0  0  0  0
  186.5570  177.2380  142.8820 C   0  0  0  0  0  0  0  0  0  0  0  0
  190.5110  174.8560  144.8430 C   0  0  1  0  0  0  0  0  0  0  0  0
  190.7710  173.7610  140.0620 O   0  0  0  0  0  0  0  0  0  0  0  0
  190.1290  171.4930  139.7520 C   0  0  0  0  0  1  0  0  0  0  0  0
  190.0970  172.9000  139.1940 C   0  0  0  0  0  2  0  0  0  0  0  0
  2 19  1  0  0  0  0
  3 10  2  0  0  0  0
  4  1  1  6  0  0  0
  4 12  1  0  0  0  0
  4 20  1  0  0  0  0
  5 11  1  0  0  0  0
  5  1  1  0  0  0  0
  7  9  1  0  0  0  0
  7 15  1  1  0  0  0
  8  6  2  0  0  0  0
  8 12  1  0  0  0  0
  9 14  1  1  0  0  0
 10 21  1  0  0  0  0
 11 28  1  6  0  0  0
 11  8  1  0  0  0  0
 12 27  1  0  0  0  0
 13  2  2  0  0  0  0
 13 18  1  0  0  0  0
 14 23  1  0  0  0  0
 15 23  2  0  0  0  0
 16  2  1  0  0  0  0
 17 20  1  0  0  0  0
 17  3  1  0  0  0  0
 18 25  2  0  0  0  0
 19  1  2  0  0  0  0
 19 26  1  0  0  0  0
 20 22  2  0  0  0  0
 22  9  1  0  0  0  0
 22 10  1  0  0  0  0
 25 26  1  0  0  0  0
 26 17  2  0  0  0  0
 27 24  1  1  0  0  0
 27  7  1  0  0  0  0
 27  9  1  0  0  0  0
 30 29  1  0  0  0  0
 30 28  1  0  0  0  0
M  END
>  <MODEL>
8

>  <REMARK>
 VINA RESULT:      -7.6      2.968      5.228
  Name = 
  2 active torsions:
  status: ('A' for Active; 'I' for Inactive)
    1  A    between atoms: C_11  and  O_28
    2  A    between atoms: O_28  and  C_30
                            x       y       z     vdW  Elec       q    Type
                         _______ _______ _______ _____ _____    ______ ____

>  <TORSDO>
F 2

$$$$
=
 OpenBabel11112416263D

 30 36  0  0  1  0  0  0  0  0999 V2000
  189.3870  174.6760  144.2050 C   0  0  0  0  0  0  0  0  0  0  0  0
  191.3680  173.7780  143.0730 C   0  0  0  0  0  0  0  0  0  0  0  0
  187.8010  175.9260  140.5280 N   0  0  0  0  0  0  0  0  0  0  0  0
  187.9310  175.1590  144.1820 C   0  0  1  0  0  3  0  0  0  0  0  0
  190.0650  174.6050  145.5580 C   0  0  0  0  0  2  0  0  0  0  0  0
  188.2720  177.2150  147.1840 O   0  0  0  0  0  0  0  0  0  0  0  0
  186.9150  178.4450  144.0270 C   0  0  1  0  0  3  0  0  0  0  0  0
  188.3810  176.2540  146.3750 C   0  0  0  0  0  0  0  0  0  0  0  0
  186.0190  177.3270  143.4810 C   0  0  1  0  0  0  0  0  0  0  0  0
  186.8500  176.6680  141.0150 C   0  0  0  0  0  0  0  0  0  0  0  0
  189.1880  175.0400  146.7340 C   0  0  2  0  0  3  0  0  0  0  0  0
  187.6930  176.2780  145.1150 N   0  0  0  0  0  0  0  0  0  0  0  0
  192.0490  173.5330  141.8800 C   0  0  0  0  0  3  0  0  0  0  0  0
  184.6320  177.9150  143.2460 C   0  0  0  0  0  2  0  0  0  0  0  0
  185.9590  179.5860  144.1900 C   0  0  0  0  0  3  0  0  0  0  0  0
  191.9940  173.4310  144.2250 F   0  0  0  0  0  0  0  0  0  0  0  0
  188.3000  175.1980  141.6500 C   0  0  0  0  0  0  0  0  0  0  0  0
  191.4880  173.8380  140.6840 N   0  0  0  0  0  0  0  0  0  0  0  0
  190.0640  174.3440  143.0470 C   0  0  0  0  0  0  0  0  0  0  0  0
  187.5340  175.5310  142.8030 C   0  0  0  0  0  0  0  0  0  0  0  0
  186.0860  177.6410  140.1900 C   0  0  0  0  0  1  0  0  0  0  0  0
  186.6710  176.4550  142.4600 C   0  0  0  0  0  0  0  0  0  0  0  0
  184.7360  179.3110  143.7530 C   0  0  0  0  0  3  0  0  0  0  0  0
  185.6660  177.3910  145.9420 O   0  0  0  0  0  1  0  0  0  0  0  0
  190.2480  174.3780  140.6010 C   0  0  0  0  0  3  0  0  0  0  0  0
  189.5020  174.6260  141.7570 C   0  0  0  0  0  0  0  0  0  0  0  0
  186.5830  177.2290  144.8970 C   0  0  1  0  0  0  0  0  0  0  0  0
  189.9910  175.2840  147.8510 O   0  0  0  0  0  0  0  0  0  0  0  0
  191.9190  176.6660  147.6850 C   0  0  0  0  0  1  0  0  0  0  0  0
  191.2950  175.3260  147.3530 C   0  0  0  0  0  2  0  0  0  0  0  0
  1  5  1  0  0  0  0
  2 16  1  0  0  0  0
  3 10  2  0  0  0  0
  3 17  1  0  0  0  0
  4 20  1  6  0  0  0
  4  1  1  0  0  0  0
  4 12  1  0  0  0  0
  5 11  1  0  0  0  0
  7 15  1  1  0  0  0
  7 27  1  0  0  0  0
  8 11  1  0  0  0  0
  8  6  2  0  0  0  0
  9 14  1  6  0  0  0
  9  7  1  0  0  0  0
  9 27  1  0  0  0  0
 10 22  1  0  0  0  0
 11 28  1  1  0  0  0
 12  8  1  0  0  0  0
 13  2  2  0  0  0  0
 14 23  1  0  0  0  0
 17 26  2  0  0  0  0
 17 20  1  0  0  0  0
 18 13  1  0  0  0  0
 19  2  1  0  0  0  0
 19  1  2  0  0  0  0
 21 10  1  0  0  0  0
 22 20  2  0  0  0  0
 22  9  1  0  0  0  0
 23 15  2  0  0  0  0
 25 18  2  0  0  0  0
 25 26  1  0  0  0  0
 26 19  1  0  0  0  0
 27 12  1  0  0  0  0
 27 24  1  1  0  0  0
 30 29  1  0  0  0  0
 30 28  1  0  0  0  0
M  END
>  <MODEL>
9

>  <REMARK>
 VINA RESULT:      -7.6      2.519      5.353
  Name = 
  2 active torsions:
  status: ('A' for Active; 'I' for Inactive)
    1  A    between atoms: C_11  and  O_28
    2  A    between atoms: O_28  and  C_30
                            x       y       z     vdW  Elec       q    Type
                         _______ _______ _______ _____ _____    ______ ____

>  <TORSDO>
F 2

$$$$
