=
 OpenBabel11112418053D

 34 40  0  0  1  0  0  0  0  0999 V2000
  189.0850  176.8640  142.5380 C   0  0  1  0  0  3  0  0  0  0  0  0
  191.2310  177.9410  142.9940 C   0  0  0  0  0  2  0  0  0  0  0  0
  185.8000  178.2830  147.7930 C   0  0  0  0  0  0  0  0  0  0  0  0
  186.9530  177.4890  143.6580 C   0  0  2  0  0  3  0  0  0  0  0  0
  186.5090  176.6310  145.9930 C   0  0  2  0  0  3  0  0  0  0  0  0
  186.3510  176.0120  148.3410 F   0  0  0  0  0  0  0  0  0  0  0  0
  186.5400  178.6730  148.6820 O   0  0  0  0  0  0  0  0  0  0  0  0
  184.0290  178.5910  146.0320 C   0  0  0  0  0  2  0  0  0  0  0  0
  190.9620  175.7230  143.6570 C   0  0  2  0  0  3  0  0  0  0  0  0
  192.8680  174.2770  145.7280 C   0  0  0  0  0  2  0  0  0  0  0  0
  188.0110  176.3840  146.1650 C   0  0  0  0  0  2  0  0  0  0  0  0
  184.7930  178.1340  144.7780 C   0  0  0  0  0  2  0  0  0  0  0  0
  190.1460  175.7600  144.9920 C   0  0  1  0  0  3  0  0  0  0  0  0
  192.5630  177.5380  143.5960 C   0  0  0  0  0  2  0  0  0  0  0  0
  186.2760  177.7940  144.9960 C   0  0  2  0  0  3  0  0  0  0  0  0
  184.9030  179.2690  147.0920 C   0  0  0  0  0  2  0  0  0  0  0  0
  192.9560  175.7560  145.3350 C   0  0  2  0  0  3  0  0  0  0  0  0
  188.4510  177.2200  143.8750 C   0  0  1  0  0  3  0  0  0  0  0  0
  185.8300  176.8400  147.3590 C   0  0  1  0  0  3  0  0  0  0  0  0
  188.6520  176.0480  144.8180 C   0  0  2  0  0  3  0  0  0  0  0  0
  187.1840  178.0990  141.4960 C   0  0  0  0  0  2  0  0  0  0  0  0
  191.5250  173.6140  145.4250 C   0  0  0  0  0  2  0  0  0  0  0  0
  186.8020  178.5690  142.7670 O   0  0  0  0  0  0  0  0  0  0  0  0
  190.3200  174.4720  145.8220 C   0  0  0  0  0  2  0  0  0  0  0  0
  192.4440  176.0540  143.9120 C   0  0  1  0  0  3  0  0  0  0  0  0
  188.6970  177.8720  141.4510 C   0  0  0  0  0  2  0  0  0  0  0  0
  190.5410  176.7040  142.6440 N   0  0  1  0  0  0  0  0  0  0  0  0
  194.3320  176.2020  145.4820 N   0  0  0  0  0  2  0  0  0  0  0  0
  195.1700  175.0170  145.4140 C   0  0  0  0  0  2  0  0  0  0  0  0
  195.5140  175.2360  141.8750 C   0  0  0  0  0  2  0  0  0  0  0  0
  196.1900  176.5560  143.7600 C   0  0  0  0  0  2  0  0  0  0  0  0
  196.1210  175.1210  144.2360 C   0  0  0  0  0  3  0  0  0  0  0  0
  196.2890  176.4760  142.2560 C   0  0  0  0  0  2  0  0  0  0  0  0
  195.6120  174.2970  143.0620 C   0  0  0  0  0  2  0  0  0  0  0  0
  1 26  1  6  0  0  0
  1 27  1  0  0  0  0
  1 18  1  0  0  0  0
  2 14  1  0  0  0  0
  3  7  2  0  0  0  0
  4 23  1  6  0  0  0
  4 18  1  0  0  0  0
  4 15  1  0  0  0  0
  5 11  1  1  0  0  0
  5 19  1  0  0  0  0
  8 16  1  0  0  0  0
  9 25  1  0  0  0  0
  9 13  1  0  0  0  0
 12 15  1  0  0  0  0
 12  8  1  0  0  0  0
 13 24  1  0  0  0  0
 14 25  1  0  0  0  0
 15  5  1  0  0  0  0
 16  3  1  0  0  0  0
 17 28  1  0  0  0  0
 17 10  1  0  0  0  0
 18 20  1  0  0  0  0
 19  3  1  0  0  0  0
 19  6  1  0  0  0  0
 20 13  1  0  0  0  0
 20 11  1  0  0  0  0
 21 23  1  0  0  0  0
 22 10  1  0  0  0  0
 22 24  1  0  0  0  0
 25 17  1  0  0  0  0
 26 21  1  0  0  0  0
 27  2  1  0  0  0  0
 27  9  1  0  0  0  0
 29 28  1  0  0  0  0
 30 33  1  0  0  0  0
 30 34  1  0  0  0  0
 31 32  1  0  0  0  0
 32 29  1  0  0  0  0
 33 31  1  0  0  0  0
 34 32  1  0  0  0  0
M  END
>  <MODEL>
1

>  <REMARK>
 VINA RESULT:      -8.5      0.000      0.000
  Name = 
  3 active torsions:
  status: ('A' for Active; 'I' for Inactive)
    1  A    between atoms: C_17  and  N_28
    2  A    between atoms: N_28  and  C_29
    3  A    between atoms: C_29  and  C_32
                            x       y       z     vdW  Elec       q    Type
                         _______ _______ _______ _____ _____    ______ ____

>  <TORSDO>
F 3

$$$$
=
 OpenBabel11112418053D

 34 40  0  0  1  0  0  0  0  0999 V2000
  192.2950  175.5970  145.4110 C   0  0  1  0  0  3  0  0  0  0  0  0
  190.8640  177.4680  144.7600 C   0  0  0  0  0  2  0  0  0  0  0  0
  196.0030  174.9760  140.2840 C   0  0  0  0  0  0  0  0  0  0  0  0
  194.5100  175.1200  144.3840 C   0  0  2  0  0  3  0  0  0  0  0  0
  194.5860  173.9630  142.1390 C   0  0  2  0  0  3  0  0  0  0  0  0
  194.5130  173.1440  139.8480 F   0  0  0  0  0  0  0  0  0  0  0  0
  195.5360  175.5770  139.3290 O   0  0  0  0  0  0  0  0  0  0  0  0
  197.6800  174.6170  142.1250 C   0  0  0  0  0  2  0  0  0  0  0  0
  190.1350  175.3120  144.2560 C   0  0  2  0  0  3  0  0  0  0  0  0
  187.8390  174.6880  142.1700 C   0  0  0  0  0  2  0  0  0  0  0  0
  193.1360  174.3910  141.8930 C   0  0  0  0  0  2  0  0  0  0  0  0
  196.7600  174.6500  143.3570 C   0  0  0  0  0  2  0  0  0  0  0  0
  190.9170  174.8740  142.9730 C   0  0  1  0  0  3  0  0  0  0  0  0
  189.5070  177.6460  144.1060 C   0  0  0  0  0  2  0  0  0  0  0  0
  195.2860  174.9820  143.0720 C   0  0  2  0  0  3  0  0  0  0  0  0
  197.2250  175.5200  140.9740 C   0  0  0  0  0  2  0  0  0  0  0  0
  188.4080  176.0820  142.4620 C   0  0  2  0  0  3  0  0  0  0  0  0
  193.0550  175.5230  144.0950 C   0  0  1  0  0  3  0  0  0  0  0  0
  195.3220  173.7360  140.8050 C   0  0  1  0  0  3  0  0  0  0  0  0
  192.3780  174.4860  143.2170 C   0  0  2  0  0  3  0  0  0  0  0  0
  194.5190  175.9470  146.4850 C   0  0  0  0  0  2  0  0  0  0  0  0
  188.7400  173.5290  142.5940 C   0  0  0  0  0  2  0  0  0  0  0  0
  195.1030  176.0930  145.2120 O   0  0  0  0  0  0  0  0  0  0  0  0
  190.2100  173.7300  142.2170 C   0  0  0  0  0  2  0  0  0  0  0  0
  188.9620  176.2400  143.8920 C   0  0  1  0  0  3  0  0  0  0  0  0
  193.0620  176.4160  146.4540 C   0  0  0  0  0  2  0  0  0  0  0  0
  190.9230  176.0880  145.2280 N   0  0  1  0  0  0  0  0  0  0  0  0
  187.3780  177.0760  142.2050 N   0  0  0  0  0  2  0  0  0  0  0  0
  186.1160  176.4950  142.6290 C   0  0  0  0  0  2  0  0  0  0  0  0
  185.9810  178.7130  145.4140 C   0  0  0  0  0  2  0  0  0  0  0  0
  185.7710  178.9160  143.0330 C   0  0  0  0  0  2  0  0  0  0  0  0
  185.3020  177.5230  143.3940 C   0  0  0  0  0  3  0  0  0  0  0  0
  185.6950  179.7100  144.3150 C   0  0  0  0  0  2  0  0  0  0  0  0
  185.5140  177.3670  144.8920 C   0  0  0  0  0  2  0  0  0  0  0  0
  1 26  1  1  0  0  0
  2 27  1  0  0  0  0
  3 19  1  0  0  0  0
  3 16  1  0  0  0  0
  4 23  1  1  0  0  0
  5 11  1  6  0  0  0
  5 15  1  0  0  0  0
  6 19  1  0  0  0  0
  7  3  2  0  0  0  0
  8 12  1  0  0  0  0
  9 27  1  0  0  0  0
 10 17  1  0  0  0  0
 10 22  1  0  0  0  0
 11 20  1  0  0  0  0
 13 20  1  0  0  0  0
 13  9  1  0  0  0  0
 14  2  1  0  0  0  0
 15 12  1  0  0  0  0
 15  4  1  0  0  0  0
 16  8  1  0  0  0  0
 17 25  1  0  0  0  0
 18  4  1  0  0  0  0
 18  1  1  0  0  0  0
 19  5  1  0  0  0  0
 20 18  1  0  0  0  0
 23 21  1  0  0  0  0
 24 22  1  0  0  0  0
 24 13  1  0  0  0  0
 25 14  1  0  0  0  0
 25  9  1  0  0  0  0
 26 21  1  0  0  0  0
 27  1  1  0  0  0  0
 28 17  1  0  0  0  0
 28 29  1  0  0  0  0
 29 32  1  0  0  0  0
 31 32  1  0  0  0  0
 31 33  1  0  0  0  0
 32 34  1  0  0  0  0
 33 30  1  0  0  0  0
 34 30  1  0  0  0  0
M  END
>  <MODEL>
2

>  <REMARK>
 VINA RESULT:      -8.1      3.535      8.854
  Name = 
  3 active torsions:
  status: ('A' for Active; 'I' for Inactive)
    1  A    between atoms: C_17  and  N_28
    2  A    between atoms: N_28  and  C_29
    3  A    between atoms: C_29  and  C_32
                            x       y       z     vdW  Elec       q    Type
                         _______ _______ _______ _____ _____    ______ ____

>  <TORSDO>
F 3

$$$$
=
 OpenBabel11112418053D

 34 40  0  0  1  0  0  0  0  0999 V2000
  193.1910  175.7120  144.2640 C   0  0  1  0  0  3  0  0  0  0  0  0
  191.6130  177.5460  143.9250 C   0  0  0  0  0  2  0  0  0  0  0  0
  190.9330  171.3230  140.2570 C   0  0  0  0  0  0  0  0  0  0  0  0
  193.5650  173.8800  142.6230 C   0  0  2  0  0  3  0  0  0  0  0  0
  191.8970  171.9840  142.5170 C   0  0  2  0  0  3  0  0  0  0  0  0
  190.0640  170.4000  142.2950 F   0  0  0  0  0  0  0  0  0  0  0  0
  189.7980  171.5960  139.9010 O   0  0  0  0  0  0  0  0  0  0  0  0
  193.4100  171.0600  139.8980 C   0  0  0  0  0  2  0  0  0  0  0  0
  191.1340  175.9910  145.5940 C   0  0  2  0  0  3  0  0  0  0  0  0
  188.2760  175.6710  146.9140 C   0  0  0  0  0  2  0  0  0  0  0  0
  190.8670  172.8790  143.2100 C   0  0  0  0  0  2  0  0  0  0  0  0
  193.9550  172.0380  140.9520 C   0  0  0  0  0  2  0  0  0  0  0  0
  190.5350  174.7400  144.8680 C   0  0  1  0  0  3  0  0  0  0  0  0
  190.3260  178.0300  144.5670 C   0  0  0  0  0  2  0  0  0  0  0  0
  192.8930  172.8530  141.7080 C   0  0  2  0  0  3  0  0  0  0  0  0
  192.0710  171.4780  139.2820 C   0  0  0  0  0  2  0  0  0  0  0  0
  188.6090  176.6160  145.7540 C   0  0  2  0  0  3  0  0  0  0  0  0
  192.4980  174.7400  143.3200 C   0  0  1  0  0  3  0  0  0  0  0  0
  191.2010  170.8960  141.6780 C   0  0  1  0  0  3  0  0  0  0  0  0
  191.5640  173.8700  144.1420 C   0  0  2  0  0  3  0  0  0  0  0  0
  195.2050  175.4200  142.8210 C   0  0  0  0  0  2  0  0  0  0  0  0
  189.2780  174.5360  147.1210 C   0  0  0  0  0  2  0  0  0  0  0  0
  194.4230  174.7180  141.8840 O   0  0  0  0  0  0  0  0  0  0  0  0
  189.7030  173.8540  145.8180 C   0  0  0  0  0  2  0  0  0  0  0  0
  190.0740  177.0970  145.7440 C   0  0  1  0  0  3  0  0  0  0  0  0
  194.3440  176.4420  143.5670 C   0  0  0  0  0  2  0  0  0  0  0  0
  192.2440  176.6470  144.8850 N   0  0  1  0  0  0  0  0  0  0  0  0
  187.7030  177.7530  145.7970 N   0  0  0  0  0  2  0  0  0  0  0  0
  186.4080  177.2450  146.2190 C   0  0  0  0  0  2  0  0  0  0  0  0
  185.5330  179.8070  143.9020 C   0  0  0  0  0  2  0  0  0  0  0  0
  185.3710  177.4140  143.9740 C   0  0  0  0  0  2  0  0  0  0  0  0
  185.3050  177.8980  145.4070 C   0  0  0  0  0  3  0  0  0  0  0  0
  185.0190  178.6150  143.1280 C   0  0  0  0  0  2  0  0  0  0  0  0
  185.4910  179.4080  145.3650 C   0  0  0  0  0  2  0  0  0  0  0  0
  1 26  1  6  0  0  0
  1 27  1  0  0  0  0
  2 14  1  0  0  0  0
  2 27  1  0  0  0  0
  3 19  1  0  0  0  0
  4 23  1  6  0  0  0
  4 18  1  0  0  0  0
  5 11  1  6  0  0  0
  7  3  2  0  0  0  0
  8 12  1  0  0  0  0
  9 25  1  0  0  0  0
 10 22  1  0  0  0  0
 11 20  1  0  0  0  0
 12 15  1  0  0  0  0
 13  9  1  0  0  0  0
 13 24  1  0  0  0  0
 14 25  1  0  0  0  0
 15  5  1  0  0  0  0
 15  4  1  0  0  0  0
 16  8  1  0  0  0  0
 16  3  1  0  0  0  0
 17 28  1  0  0  0  0
 17 10  1  0  0  0  0
 18 20  1  0  0  0  0
 18  1  1  0  0  0  0
 19  6  1  0  0  0  0
 19  5  1  0  0  0  0
 20 13  1  0  0  0  0
 21 26  1  0  0  0  0
 23 21  1  0  0  0  0
 24 22  1  0  0  0  0
 25 17  1  0  0  0  0
 27  9  1  0  0  0  0
 28 29  1  0  0  0  0
 30 34  1  0  0  0  0
 31 32  1  0  0  0  0
 32 29  1  0  0  0  0
 33 30  1  0  0  0  0
 33 31  1  0  0  0  0
 34 32  1  0  0  0  0
M  END
>  <MODEL>
3

>  <REMARK>
 VINA RESULT:      -7.9      3.584      8.150
  Name = 
  3 active torsions:
  status: ('A' for Active; 'I' for Inactive)
    1  A    between atoms: C_17  and  N_28
    2  A    between atoms: N_28  and  C_29
    3  A    between atoms: C_29  and  C_32
                            x       y       z     vdW  Elec       q    Type
                         _______ _______ _______ _____ _____    ______ ____

>  <TORSDO>
F 3

$$$$
=
 OpenBabel11112418053D

 34 40  0  0  1  0  0  0  0  0999 V2000
  190.8250  174.0050  141.1810 C   0  0  1  0  0  3  0  0  0  0  0  0
  188.7650  173.4500  142.3740 C   0  0  0  0  0  2  0  0  0  0  0  0
  194.6650  175.6740  145.9650 C   0  0  0  0  0  0  0  0  0  0  0  0
  193.0750  174.0430  142.2400 C   0  0  2  0  0  3  0  0  0  0  0  0
  193.7320  176.0510  143.6280 C   0  0  2  0  0  3  0  0  0  0  0  0
  194.1140  177.8780  145.1890 F   0  0  0  0  0  0  0  0  0  0  0  0
  194.0300  175.8800  146.9870 O   0  0  0  0  0  0  0  0  0  0  0  0
  196.2540  174.3640  144.5190 C   0  0  0  0  0  2  0  0  0  0  0  0
  189.0420  175.6450  141.6410 C   0  0  2  0  0  3  0  0  0  0  0  0
  187.3210  178.0740  142.7120 C   0  0  0  0  0  2  0  0  0  0  0  0
  192.2500  176.4050  143.7780 C   0  0  0  0  0  2  0  0  0  0  0  0
  195.3550  174.0630  143.3090 C   0  0  0  0  0  2  0  0  0  0  0  0
  189.9910  176.3370  142.6760 C   0  0  1  0  0  3  0  0  0  0  0  0
  187.4910  174.1700  142.7730 C   0  0  0  0  0  2  0  0  0  0  0  0
  193.8930  174.5200  143.4420 C   0  0  2  0  0  3  0  0  0  0  0  0
  195.5100  174.4330  145.8570 C   0  0  0  0  0  2  0  0  0  0  0  0
  187.2320  176.6350  143.2330 C   0  0  2  0  0  3  0  0  0  0  0  0
  191.6010  174.4410  142.4150 C   0  0  1  0  0  3  0  0  0  0  0  0
  194.5530  176.6230  144.7980 C   0  0  1  0  0  3  0  0  0  0  0  0
  191.4660  175.9470  142.5480 C   0  0  2  0  0  3  0  0  0  0  0  0
  192.6410  172.3300  140.8340 C   0  0  0  0  0  2  0  0  0  0  0  0
  188.6080  178.4020  141.9580 C   0  0  0  0  0  2  0  0  0  0  0  0
  193.1630  172.6440  142.1040 O   0  0  0  0  0  0  0  0  0  0  0  0
  189.8690  177.8740  142.6470 C   0  0  0  0  0  2  0  0  0  0  0  0
  187.6030  175.5690  142.1830 C   0  0  1  0  0  3  0  0  0  0  0  0
  191.1250  172.5470  140.8190 C   0  0  0  0  0  2  0  0  0  0  0  0
  189.3830  174.2500  141.3220 N   0  0  1  0  0  0  0  0  0  0  0  0
  185.8900  176.3990  143.7410 N   0  0  0  0  0  2  0  0  0  0  0  0
  185.2500  177.6980  143.8630 C   0  0  0  0  0  2  0  0  0  0  0  0
  186.1220  177.3710  147.3030 C   0  0  0  0  0  2  0  0  0  0  0  0
  185.5410  179.1760  145.8320 C   0  0  0  0  0  2  0  0  0  0  0  0
  184.8410  177.9420  145.3050 C   0  0  0  0  0  3  0  0  0  0  0  0
  185.8780  178.8620  147.2710 C   0  0  0  0  0  2  0  0  0  0  0  0
  185.2760  176.7830  146.1890 C   0  0  0  0  0  2  0  0  0  0  0  0
  1 26  1  1  0  0  0
  1 27  1  0  0  0  0
  1 18  1  0  0  0  0
  2 14  1  0  0  0  0
  3  7  2  0  0  0  0
  4 23  1  1  0  0  0
  4 18  1  0  0  0  0
  4 15  1  0  0  0  0
  5 11  1  1  0  0  0
  5 19  1  0  0  0  0
  8 16  1  0  0  0  0
  9 25  1  0  0  0  0
  9 13  1  0  0  0  0
 10 17  1  0  0  0  0
 12 15  1  0  0  0  0
 12  8  1  0  0  0  0
 15  5  1  0  0  0  0
 16  3  1  0  0  0  0
 17 28  1  0  0  0  0
 18 20  1  0  0  0  0
 19  6  1  0  0  0  0
 19  3  1  0  0  0  0
 20 13  1  0  0  0  0
 20 11  1  0  0  0  0
 21 23  1  0  0  0  0
 22 24  1  0  0  0  0
 22 10  1  0  0  0  0
 24 13  1  0  0  0  0
 25 14  1  0  0  0  0
 25 17  1  0  0  0  0
 26 21  1  0  0  0  0
 27  9  1  0  0  0  0
 27  2  1  0  0  0  0
 28 29  1  0  0  0  0
 29 32  1  0  0  0  0
 31 33  1  0  0  0  0
 32 31  1  0  0  0  0
 32 34  1  0  0  0  0
 33 30  1  0  0  0  0
 34 30  1  0  0  0  0
M  END
>  <MODEL>
4

>  <REMARK>
 VINA RESULT:      -7.8      3.233      8.175
  Name = 
  3 active torsions:
  status: ('A' for Active; 'I' for Inactive)
    1  A    between atoms: C_17  and  N_28
    2  A    between atoms: N_28  and  C_29
    3  A    between atoms: C_29  and  C_32
                            x       y       z     vdW  Elec       q    Type
                         _______ _______ _______ _____ _____    ______ ____

>  <TORSDO>
F 3

$$$$
=
 OpenBabel11112418053D

 34 40  0  0  1  0  0  0  0  0999 V2000
  194.9740  176.1550  144.2710 C   0  0  1  0  0  3  0  0  0  0  0  0
  192.9760  176.4290  142.8890 C   0  0  0  0  0  2  0  0  0  0  0  0
  195.4610  169.8240  144.5750 C   0  0  0  0  0  0  0  0  0  0  0  0
  196.3570  174.0890  144.3160 C   0  0  2  0  0  3  0  0  0  0  0  0
  195.5530  172.1160  145.6760 C   0  0  2  0  0  3  0  0  0  0  0  0
  194.5150  170.1950  146.7500 F   0  0  0  0  0  0  0  0  0  0  0  0
  194.4240  169.2850  144.2210 O   0  0  0  0  0  0  0  0  0  0  0  0
  197.8770  170.4700  144.3020 C   0  0  0  0  0  2  0  0  0  0  0  0
  192.6960  176.3260  145.2010 C   0  0  2  0  0  3  0  0  0  0  0  0
  189.9130  175.7730  146.6000 C   0  0  0  0  0  2  0  0  0  0  0  0
  194.1370  172.6970  145.6420 C   0  0  0  0  0  2  0  0  0  0  0  0
  197.7680  172.0030  144.3470 C   0  0  0  0  0  2  0  0  0  0  0  0
  192.7760  174.8110  145.5850 C   0  0  1  0  0  3  0  0  0  0  0  0
  191.4880  176.6070  143.1210 C   0  0  0  0  0  2  0  0  0  0  0  0
  196.3370  172.5620  144.4150 C   0  0  2  0  0  3  0  0  0  0  0  0
  196.6670  169.7690  143.6760 C   0  0  0  0  0  2  0  0  0  0  0  0
  190.1550  175.7590  145.0860 C   0  0  2  0  0  3  0  0  0  0  0  0
  194.9210  174.6350  144.3120 C   0  0  1  0  0  3  0  0  0  0  0  0
  195.5130  170.5890  145.8730 C   0  0  1  0  0  3  0  0  0  0  0  0
  194.1900  174.2240  145.5780 C   0  0  2  0  0  3  0  0  0  0  0  0
  197.2420  175.8840  143.2710 C   0  0  0  0  0  2  0  0  0  0  0  0
  191.1720  175.6130  147.4500 C   0  0  0  0  0  2  0  0  0  0  0  0
  197.0120  174.5010  143.1390 O   0  0  0  0  0  0  0  0  0  0  0  0
  192.1120  174.5160  146.9460 C   0  0  0  0  0  2  0  0  0  0  0  0
  191.3090  176.6750  144.6320 C   0  0  1  0  0  3  0  0  0  0  0  0
  195.9220  176.6510  143.1740 C   0  0  0  0  0  2  0  0  0  0  0  0
  193.6360  176.7500  144.1500 N   0  0  1  0  0  0  0  0  0  0  0  0
  188.9220  176.1230  144.4070 N   0  0  0  0  0  2  0  0  0  0  0  0
  188.3800  177.2760  145.1060 C   0  0  0  0  0  2  0  0  0  0  0  0
  185.3140  177.8300  146.8350 C   0  0  0  0  0  2  0  0  0  0  0  0
  186.3460  178.6670  144.8370 C   0  0  0  0  0  2  0  0  0  0  0  0
  186.8630  177.2590  145.0370 C   0  0  0  0  0  3  0  0  0  0  0  0
  185.0820  178.7500  145.6590 C   0  0  0  0  0  2  0  0  0  0  0  0
  186.2740  176.7600  146.3480 C   0  0  0  0  0  2  0  0  0  0  0  0
  1 26  1  6  0  0  0
  1 18  1  0  0  0  0
  2 14  1  0  0  0  0
  2 27  1  0  0  0  0
  3 19  1  0  0  0  0
  4 23  1  6  0  0  0
  4 15  1  0  0  0  0
  5 11  1  6  0  0  0
  5 19  1  0  0  0  0
  7  3  2  0  0  0  0
  8 12  1  0  0  0  0
  9 13  1  0  0  0  0
 10 22  1  0  0  0  0
 12 15  1  0  0  0  0
 13 24  1  0  0  0  0
 14 25  1  0  0  0  0
 15  5  1  0  0  0  0
 16  8  1  0  0  0  0
 16  3  1  0  0  0  0
 17 10  1  0  0  0  0
 18  4  1  0  0  0  0
 18 20  1  0  0  0  0
 19  6  1  0  0  0  0
 20 13  1  0  0  0  0
 20 11  1  0  0  0  0
 23 21  1  0  0  0  0
 24 22  1  0  0  0  0
 25 17  1  0  0  0  0
 25  9  1  0  0  0  0
 26 21  1  0  0  0  0
 27  1  1  0  0  0  0
 27  9  1  0  0  0  0
 28 17  1  0  0  0  0
 28 29  1  0  0  0  0
 31 32  1  0  0  0  0
 31 33  1  0  0  0  0
 32 29  1  0  0  0  0
 32 34  1  0  0  0  0
 33 30  1  0  0  0  0
 34 30  1  0  0  0  0
M  END
>  <MODEL>
5

>  <REMARK>
 VINA RESULT:      -7.7      3.922      9.086
  Name = 
  3 active torsions:
  status: ('A' for Active; 'I' for Inactive)
    1  A    between atoms: C_17  and  N_28
    2  A    between atoms: N_28  and  C_29
    3  A    between atoms: C_29  and  C_32
                            x       y       z     vdW  Elec       q    Type
                         _______ _______ _______ _____ _____    ______ ____

>  <TORSDO>
F 3

$$$$
=
 OpenBabel11112418053D

 34 40  0  0  1  0  0  0  0  0999 V2000
  191.5350  174.1650  141.1520 C   0  0  1  0  0  3  0  0  0  0  0  0
  190.2300  173.2670  143.0130 C   0  0  0  0  0  2  0  0  0  0  0  0
  197.3190  174.6250  143.7490 C   0  0  0  0  0  0  0  0  0  0  0  0
  194.0090  173.9820  140.9750 C   0  0  2  0  0  3  0  0  0  0  0  0
  195.4440  175.5750  142.3140 C   0  0  2  0  0  3  0  0  0  0  0  0
  196.7010  176.9400  143.8880 F   0  0  0  0  0  0  0  0  0  0  0  0
  197.2630  174.5410  144.9650 O   0  0  0  0  0  0  0  0  0  0  0  0
  197.8990  173.7770  141.4520 C   0  0  0  0  0  2  0  0  0  0  0  0
  190.3570  175.5830  142.7890 C   0  0  2  0  0  3  0  0  0  0  0  0
  189.6010  177.6050  145.1020 C   0  0  0  0  0  2  0  0  0  0  0  0
  194.2520  175.8400  143.2360 C   0  0  0  0  0  2  0  0  0  0  0  0
  196.5120  173.7800  140.7890 C   0  0  0  0  0  2  0  0  0  0  0  0
  191.7460  176.0050  143.3730 C   0  0  1  0  0  3  0  0  0  0  0  0
  189.3740  173.8260  144.1330 C   0  0  0  0  0  2  0  0  0  0  0  0
  195.3400  174.1500  141.7130 C   0  0  2  0  0  3  0  0  0  0  0  0
  197.8810  173.4760  142.9540 C   0  0  0  0  0  2  0  0  0  0  0  0
  189.6180  176.0780  145.2380 C   0  0  2  0  0  3  0  0  0  0  0  0
  192.8390  174.2840  141.9260 C   0  0  1  0  0  3  0  0  0  0  0  0
  196.7730  175.8420  143.0460 C   0  0  1  0  0  3  0  0  0  0  0  0
  192.9400  175.6990  142.4640 C   0  0  2  0  0  3  0  0  0  0  0  0
  192.7910  172.6850  139.5860 C   0  0  0  0  0  2  0  0  0  0  0  0
  190.4110  178.1510  143.9270 C   0  0  0  0  0  2  0  0  0  0  0  0
  193.8770  172.6690  140.4820 O   0  0  0  0  0  0  0  0  0  0  0  0
  191.7850  177.4930  143.7770 C   0  0  0  0  0  2  0  0  0  0  0  0
  189.3410  175.3330  143.9180 C   0  0  1  0  0  3  0  0  0  0  0  0
  191.4770  172.8600  140.3510 C   0  0  0  0  0  2  0  0  0  0  0  0
  190.3620  174.3280  142.0210 N   0  0  1  0  0  0  0  0  0  0  0  0
  188.6550  175.6850  146.2550 N   0  0  0  0  0  2  0  0  0  0  0  0
  188.1870  176.9060  146.8880 C   0  0  0  0  0  2  0  0  0  0  0  0
  185.0860  178.6490  147.0870 C   0  0  0  0  0  2  0  0  0  0  0  0
  185.9450  176.7910  145.8370 C   0  0  0  0  0  2  0  0  0  0  0  0
  186.6940  176.8140  147.1510 C   0  0  0  0  0  3  0  0  0  0  0  0
  184.6910  177.5990  146.0740 C   0  0  0  0  0  2  0  0  0  0  0  0
  186.2080  178.0410  147.9070 C   0  0  0  0  0  2  0  0  0  0  0  0
  1 26  1  1  0  0  0
  1 18  1  0  0  0  0
  1 27  1  0  0  0  0
  2 14  1  0  0  0  0
  3  7  2  0  0  0  0
  4 23  1  1  0  0  0
  4 15  1  0  0  0  0
  4 18  1  0  0  0  0
  5 19  1  0  0  0  0
  5 11  1  1  0  0  0
  8 16  1  0  0  0  0
  9 13  1  0  0  0  0
  9 25  1  0  0  0  0
 10 17  1  0  0  0  0
 12  8  1  0  0  0  0
 12 15  1  0  0  0  0
 13 24  1  0  0  0  0
 15  5  1  0  0  0  0
 16  3  1  0  0  0  0
 17 28  1  0  0  0  0
 18 20  1  0  0  0  0
 19  3  1  0  0  0  0
 19  6  1  0  0  0  0
 20 11  1  0  0  0  0
 20 13  1  0  0  0  0
 21 26  1  0  0  0  0
 21 23  1  0  0  0  0
 22 10  1  0  0  0  0
 24 22  1  0  0  0  0
 25 14  1  0  0  0  0
 25 17  1  0  0  0  0
 27  9  1  0  0  0  0
 27  2  1  0  0  0  0
 28 29  1  0  0  0  0
 29 32  1  0  0  0  0
 30 34  1  0  0  0  0
 31 33  1  0  0  0  0
 31 32  1  0  0  0  0
 32 34  1  0  0  0  0
 33 30  1  0  0  0  0
M  END
>  <MODEL>
6

>  <REMARK>
 VINA RESULT:      -7.6      3.796      8.819
  Name = 
  3 active torsions:
  status: ('A' for Active; 'I' for Inactive)
    1  A    between atoms: C_17  and  N_28
    2  A    between atoms: N_28  and  C_29
    3  A    between atoms: C_29  and  C_32
                            x       y       z     vdW  Elec       q    Type
                         _______ _______ _______ _____ _____    ______ ____

>  <TORSDO>
F 3

$$$$
=
 OpenBabel11112418053D

 34 40  0  0  1  0  0  0  0  0999 V2000
  193.7020  176.1000  145.1860 C   0  0  1  0  0  3  0  0  0  0  0  0
  192.1990  177.4350  143.7960 C   0  0  0  0  0  2  0  0  0  0  0  0
  193.3000  170.4010  142.3960 C   0  0  0  0  0  0  0  0  0  0  0  0
  194.7550  173.9720  144.4430 C   0  0  2  0  0  3  0  0  0  0  0  0
  193.3770  171.8540  144.4830 C   0  0  2  0  0  3  0  0  0  0  0  0
  191.8580  169.9650  144.2650 F   0  0  0  0  0  0  0  0  0  0  0  0
  192.3380  170.3460  141.6460 O   0  0  0  0  0  0  0  0  0  0  0  0
  195.7620  170.5050  142.9060 C   0  0  0  0  0  2  0  0  0  0  0  0
  191.2980  176.3700  145.6640 C   0  0  2  0  0  3  0  0  0  0  0  0
  188.1940  175.9280  146.0940 C   0  0  0  0  0  2  0  0  0  0  0  0
  192.1050  172.7070  144.4940 C   0  0  0  0  0  2  0  0  0  0  0  0
  195.8350  171.8290  143.6840 C   0  0  0  0  0  2  0  0  0  0  0  0
  191.0820  174.8750  145.2540 C   0  0  1  0  0  3  0  0  0  0  0  0
  190.7370  177.8390  143.8220 C   0  0  0  0  0  2  0  0  0  0  0  0
  194.5190  172.6190  143.7680 C   0  0  2  0  0  3  0  0  0  0  0  0
  194.6870  170.4730  141.8140 C   0  0  0  0  0  2  0  0  0  0  0  0
  188.8310  176.5410  144.8410 C   0  0  2  0  0  3  0  0  0  0  0  0
  193.4510  174.7860  144.4600 C   0  0  1  0  0  3  0  0  0  0  0  0
  193.0960  170.4620  143.8890 C   0  0  1  0  0  3  0  0  0  0  0  0
  192.3620  174.0360  145.2050 C   0  0  2  0  0  3  0  0  0  0  0  0
  196.1040  175.7760  144.5970 C   0  0  0  0  0  2  0  0  0  0  0  0
  189.1490  175.1060  146.9580 C   0  0  0  0  0  2  0  0  0  0  0  0
  195.7470  174.7020  143.7600 O   0  0  0  0  0  0  0  0  0  0  0  0
  190.0460  174.1650  146.1500 C   0  0  0  0  0  2  0  0  0  0  0  0
  190.1690  177.2580  145.1100 C   0  0  1  0  0  3  0  0  0  0  0  0
  194.9630  176.7950  144.6640 C   0  0  0  0  0  2  0  0  0  0  0  0
  192.5300  176.9850  145.1430 N   0  0  1  0  0  0  0  0  0  0  0  0
  187.8800  177.4550  144.2270 N   0  0  0  0  0  2  0  0  0  0  0  0
  186.6860  176.6830  143.9280 C   0  0  0  0  0  2  0  0  0  0  0  0
  184.8920  179.0410  145.9070 C   0  0  0  0  0  2  0  0  0  0  0  0
  185.8130  178.9900  143.6920 C   0  0  0  0  0  2  0  0  0  0  0  0
  185.4550  177.5640  144.0480 C   0  0  0  0  0  3  0  0  0  0  0  0
  185.0110  179.8530  144.6370 C   0  0  0  0  0  2  0  0  0  0  0  0
  184.9500  177.5860  145.4820 C   0  0  0  0  0  2  0  0  0  0  0  0
  1 26  1  6  0  0  0
  2 14  1  0  0  0  0
  2 27  1  0  0  0  0
  3 19  1  0  0  0  0
  4 23  1  6  0  0  0
  4 18  1  0  0  0  0
  5 11  1  6  0  0  0
  7  3  2  0  0  0  0
  8 12  1  0  0  0  0
 10 22  1  0  0  0  0
 11 20  1  0  0  0  0
 12 15  1  0  0  0  0
 13  9  1  0  0  0  0
 13 24  1  0  0  0  0
 14 25  1  0  0  0  0
 15  4  1  0  0  0  0
 15  5  1  0  0  0  0
 16  3  1  0  0  0  0
 16  8  1  0  0  0  0
 17 25  1  0  0  0  0
 17 10  1  0  0  0  0
 18  1  1  0  0  0  0
 18 20  1  0  0  0  0
 19  6  1  0  0  0  0
 19  5  1  0  0  0  0
 20 13  1  0  0  0  0
 21 26  1  0  0  0  0
 23 21  1  0  0  0  0
 24 22  1  0  0  0  0
 25  9  1  0  0  0  0
 27  1  1  0  0  0  0
 27  9  1  0  0  0  0
 28 17  1  0  0  0  0
 29 32  1  0  0  0  0
 29 28  1  0  0  0  0
 31 32  1  0  0  0  0
 31 33  1  0  0  0  0
 32 34  1  0  0  0  0
 33 30  1  0  0  0  0
 34 30  1  0  0  0  0
M  END
>  <MODEL>
7

>  <REMARK>
 VINA RESULT:      -7.5      3.471      8.604
  Name = 
  3 active torsions:
  status: ('A' for Active; 'I' for Inactive)
    1  A    between atoms: C_17  and  N_28
    2  A    between atoms: N_28  and  C_29
    3  A    between atoms: C_29  and  C_32
                            x       y       z     vdW  Elec       q    Type
                         _______ _______ _______ _____ _____    ______ ____

>  <TORSDO>
F 3

$$$$
=
 OpenBabel11112418053D

 34 40  0  0  1  0  0  0  0  0999 V2000
  192.6410  175.3590  145.1830 C   0  0  1  0  0  3  0  0  0  0  0  0
  191.4200  177.4400  144.7910 C   0  0  0  0  0  2  0  0  0  0  0  0
  195.7910  174.6700  139.7040 C   0  0  0  0  0  0  0  0  0  0  0  0
  194.6800  174.6880  143.9260 C   0  0  2  0  0  3  0  0  0  0  0  0
  194.4130  173.7050  141.6130 C   0  0  2  0  0  3  0  0  0  0  0  0
  194.0420  173.0790  139.2910 F   0  0  0  0  0  0  0  0  0  0  0  0
  195.3290  175.3960  138.8380 O   0  0  0  0  0  0  0  0  0  0  0  0
  197.5540  173.9630  141.3540 C   0  0  0  0  0  2  0  0  0  0  0  0
  190.3740  175.4370  144.2190 C   0  0  2  0  0  3  0  0  0  0  0  0
  187.8480  175.2680  142.3190 C   0  0  0  0  0  2  0  0  0  0  0  0
  193.0180  174.3290  141.5320 C   0  0  0  0  0  2  0  0  0  0  0  0
  196.7540  174.0180  142.6660 C   0  0  0  0  0  2  0  0  0  0  0  0
  190.9800  175.0030  142.8420 C   0  0  1  0  0  3  0  0  0  0  0  0
  190.0490  177.8360  144.2790 C   0  0  0  0  0  2  0  0  0  0  0  0
  195.3180  174.5540  142.5420 C   0  0  2  0  0  3  0  0  0  0  0  0
  197.1280  175.0020  140.3110 C   0  0  0  0  0  2  0  0  0  0  0  0
  188.6190  176.5520  142.6470 C   0  0  2  0  0  3  0  0  0  0  0  0
  193.2720  175.2910  143.8000 C   0  0  1  0  0  3  0  0  0  0  0  0
  194.9990  173.4890  140.2050 C   0  0  1  0  0  3  0  0  0  0  0  0
  192.3930  174.4170  142.9240 C   0  0  2  0  0  3  0  0  0  0  0  0
  194.9740  175.3450  146.0660 C   0  0  0  0  0  2  0  0  0  0  0  0
  188.6200  173.9750  142.5810 C   0  0  0  0  0  2  0  0  0  0  0  0
  195.4630  175.5120  144.7570 O   0  0  0  0  0  0  0  0  0  0  0  0
  190.0670  174.0180  142.0840 C   0  0  0  0  0  2  0  0  0  0  0  0
  189.3070  176.5300  144.0260 C   0  0  1  0  0  3  0  0  0  0  0  0
  193.5940  175.9940  146.2010 C   0  0  0  0  0  2  0  0  0  0  0  0
  191.3350  176.0310  145.1610 N   0  0  1  0  0  0  0  0  0  0  0  0
  187.7110  177.6840  142.5510 N   0  0  0  0  0  2  0  0  0  0  0  0
  186.4510  177.2660  143.1410 C   0  0  0  0  0  2  0  0  0  0  0  0
  184.1500  178.8100  145.3810 C   0  0  0  0  0  2  0  0  0  0  0  0
  185.6870  176.9710  145.4810 C   0  0  0  0  0  2  0  0  0  0  0  0
  186.2510  177.9550  144.4790 C   0  0  0  0  0  3  0  0  0  0  0  0
  184.7100  177.7630  146.3160 C   0  0  0  0  0  2  0  0  0  0  0  0
  185.2340  179.0800  144.3560 C   0  0  0  0  0  2  0  0  0  0  0  0
  1 26  1  1  0  0  0
  2 27  1  0  0  0  0
  3 19  1  0  0  0  0
  3 16  1  0  0  0  0
  4 23  1  1  0  0  0
  5 11  1  6  0  0  0
  5 15  1  0  0  0  0
  6 19  1  0  0  0  0
  7  3  2  0  0  0  0
  8 12  1  0  0  0  0
  9 27  1  0  0  0  0
 10 22  1  0  0  0  0
 10 17  1  0  0  0  0
 11 20  1  0  0  0  0
 13 20  1  0  0  0  0
 13  9  1  0  0  0  0
 14  2  1  0  0  0  0
 15 12  1  0  0  0  0
 15  4  1  0  0  0  0
 16  8  1  0  0  0  0
 17 25  1  0  0  0  0
 18  4  1  0  0  0  0
 18  1  1  0  0  0  0
 19  5  1  0  0  0  0
 20 18  1  0  0  0  0
 21 26  1  0  0  0  0
 23 21  1  0  0  0  0
 24 22  1  0  0  0  0
 24 13  1  0  0  0  0
 25  9  1  0  0  0  0
 25 14  1  0  0  0  0
 27  1  1  0  0  0  0
 28 17  1  0  0  0  0
 28 29  1  0  0  0  0
 29 32  1  0  0  0  0
 30 33  1  0  0  0  0
 31 33  1  0  0  0  0
 32 31  1  0  0  0  0
 34 32  1  0  0  0  0
 34 30  1  0  0  0  0
M  END
>  <MODEL>
8

>  <REMARK>
 VINA RESULT:      -7.5      3.555      9.068
  Name = 
  3 active torsions:
  status: ('A' for Active; 'I' for Inactive)
    1  A    between atoms: C_17  and  N_28
    2  A    between atoms: N_28  and  C_29
    3  A    between atoms: C_29  and  C_32
                            x       y       z     vdW  Elec       q    Type
                         _______ _______ _______ _____ _____    ______ ____

>  <TORSDO>
F 3

$$$$
=
 OpenBabel11112418053D

 34 40  0  0  1  0  0  0  0  0999 V2000
  191.8630  176.6320  146.3870 C   0  0  1  0  0  3  0  0  0  0  0  0
  192.5190  174.2790  146.3050 C   0  0  0  0  0  2  0  0  0  0  0  0
  186.7500  176.6690  142.6100 C   0  0  0  0  0  0  0  0  0  0  0  0
  189.5820  177.4580  145.8380 C   0  0  2  0  0  3  0  0  0  0  0  0
  188.9320  177.7070  143.4080 C   0  0  2  0  0  3  0  0  0  0  0  0
  188.3270  177.5940  141.0540 F   0  0  0  0  0  0  0  0  0  0  0  0
  186.6920  175.6510  141.9400 O   0  0  0  0  0  0  0  0  0  0  0  0
  185.9890  178.2080  144.4500 C   0  0  0  0  0  2  0  0  0  0  0  0
  193.4520  175.7250  144.7340 C   0  0  2  0  0  3  0  0  0  0  0  0
  194.8920  174.7420  142.0940 C   0  0  0  0  0  2  0  0  0  0  0  0
  190.0610  176.7450  143.0300 C   0  0  0  0  0  2  0  0  0  0  0  0
  187.2680  178.2900  145.2990 C   0  0  0  0  0  2  0  0  0  0  0  0
  192.3640  175.9300  143.6270 C   0  0  1  0  0  3  0  0  0  0  0  0
  193.4670  173.4240  145.4860 C   0  0  0  0  0  2  0  0  0  0  0  0
  188.4260  177.3890  144.8380 C   0  0  2  0  0  3  0  0  0  0  0  0
  185.7820  176.8620  143.7480 C   0  0  0  0  0  2  0  0  0  0  0  0
  194.1880  173.8290  143.1050 C   0  0  2  0  0  3  0  0  0  0  0  0
  190.7060  176.5000  145.4090 C   0  0  1  0  0  3  0  0  0  0  0  0
  187.8220  177.6950  142.3410 C   0  0  1  0  0  3  0  0  0  0  0  0
  191.2160  176.8610  144.0250 C   0  0  2  0  0  3  0  0  0  0  0  0
  190.1730  177.4750  148.0170 C   0  0  0  0  0  2  0  0  0  0  0  0
  194.4810  176.2110  142.1660 C   0  0  0  0  0  2  0  0  0  0  0  0
  189.1440  177.1060  147.1300 O   0  0  0  0  0  0  0  0  0  0  0  0
  192.9690  176.4160  142.2930 C   0  0  0  0  0  2  0  0  0  0  0  0
  194.1810  174.3830  144.5430 C   0  0  1  0  0  3  0  0  0  0  0  0
  191.3800  176.5500  147.8390 C   0  0  0  0  0  2  0  0  0  0  0  0
  192.9330  175.6640  146.1090 N   0  0  1  0  0  0  0  0  0  0  0  0
  194.8130  172.5160  143.0700 N   0  0  0  0  0  2  0  0  0  0  0  0
  196.2070  172.7220  142.7180 C   0  0  0  0  0  2  0  0  0  0  0  0
  197.1830  173.0500  146.1290 C   0  0  0  0  0  2  0  0  0  0  0  0
  196.3220  171.2930  144.7400 C   0  0  0  0  0  2  0  0  0  0  0  0
  197.1050  172.2200  143.8350 C   0  0  0  0  0  3  0  0  0  0  0  0
  196.8180  171.5830  146.1370 C   0  0  0  0  0  2  0  0  0  0  0  0
  197.5790  173.3760  144.7020 C   0  0  0  0  0  2  0  0  0  0  0  0
  1 26  1  1  0  0  0
  3 16  1  0  0  0  0
  4 23  1  1  0  0  0
  5 11  1  6  0  0  0
  5 15  1  0  0  0  0
  6 19  1  0  0  0  0
  7  3  2  0  0  0  0
  8 12  1  0  0  0  0
  9 27  1  0  0  0  0
 10 22  1  0  0  0  0
 10 17  1  0  0  0  0
 11 20  1  0  0  0  0
 13 20  1  0  0  0  0
 13  9  1  0  0  0  0
 14  2  1  0  0  0  0
 15 12  1  0  0  0  0
 15  4  1  0  0  0  0
 16  8  1  0  0  0  0
 17 25  1  0  0  0  0
 18  4  1  0  0  0  0
 18  1  1  0  0  0  0
 19  3  1  0  0  0  0
 19  5  1  0  0  0  0
 20 18  1  0  0  0  0
 22 24  1  0  0  0  0
 23 21  1  0  0  0  0
 24 13  1  0  0  0  0
 25  9  1  0  0  0  0
 25 14  1  0  0  0  0
 26 21  1  0  0  0  0
 27  2  1  0  0  0  0
 27  1  1  0  0  0  0
 28 17  1  0  0  0  0
 29 28  1  0  0  0  0
 29 32  1  0  0  0  0
 30 33  1  0  0  0  0
 31 33  1  0  0  0  0
 32 34  1  0  0  0  0
 32 31  1  0  0  0  0
 34 30  1  0  0  0  0
M  END
>  <MODEL>
9

>  <REMARK>
 VINA RESULT:      -7.5      2.450      4.613
  Name = 
  3 active torsions:
  status: ('A' for Active; 'I' for Inactive)
    1  A    between atoms: C_17  and  N_28
    2  A    between atoms: N_28  and  C_29
    3  A    between atoms: C_29  and  C_32
                            x       y       z     vdW  Elec       q    Type
                         _______ _______ _______ _____ _____    ______ ____

>  <TORSDO>
F 3

$$$$
