=
 OpenBabel11112417243D

 37 44  0  0  1  0  0  0  0  0999 V2000
  192.2390  172.7420  141.8200 C   0  0  0  0  0  2  0  0  0  0  0  0
  195.5640  176.0010  142.5020 C   0  0  0  0  0  0  0  0  0  0  0  0
  192.4580  175.6640  145.2510 C   0  0  0  0  0  0  0  0  0  0  0  0
  192.0280  172.2570  140.4570 N   0  0  0  0  0  0  0  0  0  0  0  0
  189.2700  173.7430  144.3840 O   0  0  0  0  0  0  0  0  0  0  0  0
  194.6210  176.5900  144.7190 C   0  0  0  0  0  0  0  0  0  0  0  0
  191.5040  174.9490  144.5420 C   0  0  0  0  0  0  0  0  0  0  0  0
  189.7770  171.5080  141.3830 C   0  0  2  0  0  3  0  0  0  0  0  0
  193.4580  175.9490  144.3710 C   0  0  0  0  0  0  0  0  0  0  0  0
  190.2850  174.3000  145.2110 C   0  0  1  0  0  3  0  0  0  0  0  0
  194.7730  177.0020  146.0510 C   0  0  0  0  0  3  0  0  0  0  0  0
  190.6220  171.9280  140.1700 C   0  0  0  0  0  2  0  0  0  0  0  0
  193.2280  175.4580  143.1580 N   0  0  0  0  0  0  0  0  0  0  0  0
  196.2960  174.6890  142.7160 C   0  0  0  0  0  1  0  0  0  0  0  0
  191.5730  175.7130  147.6480 C   0  0  0  0  0  3  0  0  0  0  0  0
  193.7520  176.7110  146.9900 C   0  0  0  0  0  3  0  0  0  0  0  0
  194.1200  175.6920  142.0210 C   0  0  0  0  0  2  0  0  0  0  0  0
  189.1720  172.6620  142.2060 C   0  0  1  0  0  3  0  0  0  0  0  0
  189.9150  172.9960  143.4100 C   0  0  1  0  0  3  0  0  0  0  0  0
  192.5740  176.0270  146.6060 C   0  0  0  0  0  0  0  0  0  0  0  0
  192.0360  174.8240  143.2250 C   0  0  0  0  0  0  0  0  0  0  0  0
  195.5950  176.7630  143.7290 O   0  0  0  0  0  0  0  0  0  0  0  0
  189.6970  175.2470  146.1600 N   0  0  0  0  0  0  0  0  0  0  0  0
  196.2830  176.7790  141.4200 C   0  0  0  0  0  1  0  0  0  0  0  0
  190.0040  173.8990  142.2460 N   0  0  1  0  0  0  0  0  0  0  0  0
  190.3930  170.5260  142.1670 O   0  0  0  0  0  1  0  0  0  0  0  0
  191.4570  174.0360  142.0690 C   0  0  2  0  0  3  0  0  0  0  0  0
  190.2950  175.3680  147.4570 C   0  0  0  0  0  3  0  0  0  0  0  0
  188.8200  177.0200  144.6730 C   0  0  0  0  0  3  0  0  0  0  0  0
  188.6520  176.1710  145.7800 C   0  0  0  0  0  0  0  0  0  0  0  0
  187.4410  176.2180  146.4910 C   0  0  0  0  0  3  0  0  0  0  0  0
  185.2660  177.1380  146.8080 F   0  0  0  0  0  0  0  0  0  0  0  0
  186.6090  177.9440  145.0120 C   0  0  0  0  0  3  0  0  0  0  0  0
  186.4260  177.1010  146.1110 C   0  0  0  0  0  0  0  0  0  0  0  0
  187.8050  177.9030  144.2930 C   0  0  0  0  0  3  0  0  0  0  0  0
  193.8530  170.9500  141.3940 C   0  0  0  0  0  1  0  0  0  0  0  0
  192.8050  171.0370  140.3000 C   0  0  0  0  0  2  0  0  0  0  0  0
  1 27  1  0  0  0  0
  2 14  1  0  0  0  0
  2 22  1  0  0  0  0
  3 20  1  0  0  0  0
  4  1  1  0  0  0  0
  6 11  2  0  0  0  0
  7 10  1  0  0  0  0
  7  3  1  0  0  0  0
  8 26  1  1  0  0  0
  8 18  1  0  0  0  0
  9  6  1  0  0  0  0
  9  3  2  0  0  0  0
 10  5  1  6  0  0  0
 10 23  1  0  0  0  0
 11 16  1  0  0  0  0
 12  4  1  0  0  0  0
 12  8  1  0  0  0  0
 13 21  1  0  0  0  0
 13  9  1  0  0  0  0
 17  2  1  0  0  0  0
 17 13  1  0  0  0  0
 18 25  1  0  0  0  0
 18 19  1  0  0  0  0
 19  5  1  0  0  0  0
 20 16  2  0  0  0  0
 20 15  1  0  0  0  0
 21  7  2  0  0  0  0
 22  6  1  0  0  0  0
 23 28  1  0  0  0  0
 24  2  1  0  0  0  0
 25 19  1  0  0  0  0
 27 25  1  0  0  0  0
 27 21  1  0  0  0  0
 28 15  2  0  0  0  0
 29 30  1  0  0  0  0
 30 23  1  0  0  0  0
 30 31  2  0  0  0  0
 33 34  2  0  0  0  0
 34 31  1  0  0  0  0
 34 32  1  0  0  0  0
 35 29  2  0  0  0  0
 35 33  1  0  0  0  0
 37  4  1  0  0  0  0
 37 36  1  0  0  0  0
M  END
>  <MODEL>
1

>  <REMARK>
 VINA RESULT:      -9.2      0.000      0.000
  Name = 
  2 active torsions:
  status: ('A' for Active; 'I' for Inactive)
    1  A    between atoms: N_4  and  C_37
    2  A    between atoms: N_23  and  C_30
                            x       y       z     vdW  Elec       q    Type
                         _______ _______ _______ _____ _____    ______ ____

>  <TORSDO>
F 2

$$$$
=
 OpenBabel11112417243D

 37 44  0  0  1  0  0  0  0  0999 V2000
  192.3060  172.7240  141.7950 C   0  0  0  0  0  2  0  0  0  0  0  0
  195.5850  176.0080  142.5710 C   0  0  0  0  0  0  0  0  0  0  0  0
  192.4210  175.6280  145.2470 C   0  0  0  0  0  0  0  0  0  0  0  0
  192.1310  172.2450  140.4250 N   0  0  0  0  0  0  0  0  0  0  0  0
  189.2700  173.6840  144.2960 O   0  0  0  0  0  0  0  0  0  0  0  0
  194.5860  176.5760  144.7700 C   0  0  0  0  0  0  0  0  0  0  0  0
  191.4890  174.9090  144.5120 C   0  0  0  0  0  0  0  0  0  0  0  0
  189.8660  171.4710  141.2950 C   0  0  2  0  0  3  0  0  0  0  0  0
  193.4380  175.9270  144.3920 C   0  0  0  0  0  0  0  0  0  0  0  0
  190.2610  174.2450  145.1490 C   0  0  1  0  0  3  0  0  0  0  0  0
  194.7050  176.9810  146.1070 C   0  0  0  0  0  3  0  0  0  0  0  0
  190.7350  171.9060  140.1040 C   0  0  0  0  0  2  0  0  0  0  0  0
  193.2400  175.4410  143.1710 N   0  0  0  0  0  0  0  0  0  0  0  0
  196.3240  174.7020  142.7950 C   0  0  0  0  0  1  0  0  0  0  0  0
  191.4810  175.6550  147.6230 C   0  0  0  0  0  3  0  0  0  0  0  0
  193.6650  176.6760  147.0210 C   0  0  0  0  0  3  0  0  0  0  0  0
  194.1560  175.6890  142.0560 C   0  0  0  0  0  2  0  0  0  0  0  0
  189.2330  172.6150  142.1110 C   0  0  1  0  0  3  0  0  0  0  0  0
  189.9450  172.9480  143.3330 C   0  0  1  0  0  3  0  0  0  0  0  0
  192.5030  175.9840  146.6060 C   0  0  0  0  0  0  0  0  0  0  0  0
  192.0530  174.7970  143.2070 C   0  0  0  0  0  0  0  0  0  0  0  0
  195.5810  176.7640  143.8030 O   0  0  0  0  0  0  0  0  0  0  0  0
  189.6430  175.1810  146.0900 N   0  0  0  0  0  0  0  0  0  0  0  0
  196.3220  176.7990  141.5110 C   0  0  0  0  0  1  0  0  0  0  0  0
  190.0510  173.8590  142.1760 N   0  0  1  0  0  0  0  0  0  0  0  0
  190.4730  170.4900  142.0870 O   0  0  0  0  0  1  0  0  0  0  0  0
  191.5070  174.0100  142.0330 C   0  0  2  0  0  3  0  0  0  0  0  0
  190.2100  175.3000  147.4010 C   0  0  0  0  0  3  0  0  0  0  0  0
  187.4940  176.3270  146.5290 C   0  0  0  0  0  3  0  0  0  0  0  0
  188.5990  176.0980  145.6920 C   0  0  0  0  0  0  0  0  0  0  0  0
  188.6820  176.7970  144.4760 C   0  0  0  0  0  3  0  0  0  0  0  0
  187.7700  178.3600  142.9250 F   0  0  0  0  0  0  0  0  0  0  0  0
  186.5830  177.9100  144.9410 C   0  0  0  0  0  3  0  0  0  0  0  0
  187.6790  177.6960  144.1020 C   0  0  0  0  0  0  0  0  0  0  0  0
  186.4910  177.2260  146.1560 C   0  0  0  0  0  3  0  0  0  0  0  0
  193.9460  170.9500  141.3960 C   0  0  0  0  0  1  0  0  0  0  0  0
  192.9230  171.0340  140.2790 C   0  0  0  0  0  2  0  0  0  0  0  0
  1 27  1  0  0  0  0
  2 14  1  0  0  0  0
  2 22  1  0  0  0  0
  3 20  1  0  0  0  0
  4  1  1  0  0  0  0
  6 11  2  0  0  0  0
  7 10  1  0  0  0  0
  7  3  1  0  0  0  0
  8 26  1  1  0  0  0
  8 18  1  0  0  0  0
  9  6  1  0  0  0  0
  9  3  2  0  0  0  0
 10  5  1  6  0  0  0
 10 23  1  0  0  0  0
 11 16  1  0  0  0  0
 12  4  1  0  0  0  0
 12  8  1  0  0  0  0
 13 21  1  0  0  0  0
 13  9  1  0  0  0  0
 17  2  1  0  0  0  0
 17 13  1  0  0  0  0
 18 25  1  0  0  0  0
 18 19  1  0  0  0  0
 19  5  1  0  0  0  0
 20 16  2  0  0  0  0
 20 15  1  0  0  0  0
 21  7  2  0  0  0  0
 22  6  1  0  0  0  0
 23 28  1  0  0  0  0
 24  2  1  0  0  0  0
 25 19  1  0  0  0  0
 27 25  1  0  0  0  0
 27 21  1  0  0  0  0
 28 15  2  0  0  0  0
 30 23  1  0  0  0  0
 30 29  2  0  0  0  0
 31 30  1  0  0  0  0
 32 34  1  0  0  0  0
 33 35  2  0  0  0  0
 34 31  2  0  0  0  0
 34 33  1  0  0  0  0
 35 29  1  0  0  0  0
 37  4  1  0  0  0  0
 37 36  1  0  0  0  0
M  END
>  <MODEL>
2

>  <REMARK>
 VINA RESULT:      -9.1      0.795      1.119
  Name = 
  2 active torsions:
  status: ('A' for Active; 'I' for Inactive)
    1  A    between atoms: N_4  and  C_37
    2  A    between atoms: N_23  and  C_30
                            x       y       z     vdW  Elec       q    Type
                         _______ _______ _______ _____ _____    ______ ____

>  <TORSDO>
F 2

$$$$
=
 OpenBabel11112417243D

 37 44  0  0  1  0  0  0  0  0999 V2000
  192.9770  174.7660  144.2730 C   0  0  0  0  0  2  0  0  0  0  0  0
  190.8210  171.6650  141.4670 C   0  0  0  0  0  0  0  0  0  0  0  0
  189.0540  175.3740  142.1290 C   0  0  0  0  0  0  0  0  0  0  0  0
  193.9220  174.2500  145.2620 N   0  0  0  0  0  0  0  0  0  0  0  0
  190.1810  177.5950  145.0280 O   0  0  0  0  0  0  0  0  0  0  0  0
  189.0960  173.3340  140.8430 C   0  0  0  0  0  0  0  0  0  0  0  0
  189.7050  175.8190  143.2710 C   0  0  0  0  0  0  0  0  0  0  0  0
  193.5340  176.5050  146.3810 C   0  0  2  0  0  3  0  0  0  0  0  0
  189.4700  174.0930  141.9240 C   0  0  0  0  0  0  0  0  0  0  0  0
  189.6320  177.2730  143.7560 C   0  0  1  0  0  3  0  0  0  0  0  0
  188.2110  173.9010  139.9140 C   0  0  0  0  0  3  0  0  0  0  0  0
  193.9330  175.0260  146.5130 C   0  0  0  0  0  2  0  0  0  0  0  0
  190.3490  173.6870  142.8340 N   0  0  0  0  0  0  0  0  0  0  0  0
  192.0590  172.0590  140.6830 C   0  0  0  0  0  1  0  0  0  0  0  0
  187.7310  177.4020  141.3140 C   0  0  0  0  0  3  0  0  0  0  0  0
  187.7690  175.2350  140.0980 C   0  0  0  0  0  3  0  0  0  0  0  0
  190.8890  172.3270  142.8700 C   0  0  0  0  0  2  0  0  0  0  0  0
  192.0190  176.7910  146.4040 C   0  0  1  0  0  3  0  0  0  0  0  0
  191.4230  176.9810  145.0930 C   0  0  1  0  0  3  0  0  0  0  0  0
  188.1910  176.0010  141.2100 C   0  0  0  0  0  0  0  0  0  0  0  0
  190.5290  174.7280  143.6770 C   0  0  0  0  0  0  0  0  0  0  0  0
  189.6470  172.0530  140.7200 O   0  0  0  0  0  0  0  0  0  0  0  0
  188.2460  177.7370  143.6750 N   0  0  0  0  0  0  0  0  0  0  0  0
  190.8210  170.1610  141.6370 C   0  0  0  0  0  1  0  0  0  0  0  0
  191.1750  175.7150  145.8110 N   0  0  1  0  0  0  0  0  0  0  0  0
  194.2110  177.1660  145.3500 O   0  0  0  0  0  1  0  0  0  0  0  0
  191.5410  174.7090  144.8030 C   0  0  2  0  0  3  0  0  0  0  0  0
  187.7510  178.1770  142.4040 C   0  0  0  0  0  3  0  0  0  0  0  0
  187.5920  176.7180  145.8330 C   0  0  0  0  0  3  0  0  0  0  0  0
  187.3240  177.6100  144.7800 C   0  0  0  0  0  0  0  0  0  0  0  0
  186.1590  178.3940  144.8400 C   0  0  0  0  0  3  0  0  0  0  0  0
  184.1590  179.0410  145.9610 F   0  0  0  0  0  0  0  0  0  0  0  0
  185.5550  177.3850  146.9550 C   0  0  0  0  0  3  0  0  0  0  0  0
  185.2790  178.2810  145.9200 C   0  0  0  0  0  0  0  0  0  0  0  0
  186.7120  176.6040  146.9120 C   0  0  0  0  0  3  0  0  0  0  0  0
  196.2990  174.1320  145.7630 C   0  0  0  0  0  1  0  0  0  0  0  0
  195.2530  174.3310  144.6820 C   0  0  0  0  0  2  0  0  0  0  0  0
  1 27  1  0  0  0  0
  1  4  1  0  0  0  0
  2 24  1  0  0  0  0
  2 17  1  0  0  0  0
  3  7  1  0  0  0  0
  4 12  1  0  0  0  0
  5 19  1  0  0  0  0
  6  9  2  0  0  0  0
  7 21  2  0  0  0  0
  8 26  1  6  0  0  0
  8 18  1  0  0  0  0
  8 12  1  0  0  0  0
  9  3  1  0  0  0  0
  9 13  1  0  0  0  0
 10  7  1  1  0  0  0
 10  5  1  0  0  0  0
 11 16  2  0  0  0  0
 11  6  1  0  0  0  0
 13 17  1  0  0  0  0
 13 21  1  0  0  0  0
 14  2  1  0  0  0  0
 15 28  2  0  0  0  0
 16 20  1  0  0  0  0
 19 25  1  0  0  0  0
 19 18  1  0  0  0  0
 20 15  1  0  0  0  0
 20  3  2  0  0  0  0
 21 27  1  0  0  0  0
 22  6  1  0  0  0  0
 22  2  1  0  0  0  0
 23 10  1  0  0  0  0
 23 30  1  0  0  0  0
 25 18  1  0  0  0  0
 27 25  1  0  0  0  0
 28 23  1  0  0  0  0
 29 35  1  0  0  0  0
 30 31  1  0  0  0  0
 30 29  2  0  0  0  0
 31 34  2  0  0  0  0
 34 32  1  0  0  0  0
 34 33  1  0  0  0  0
 35 33  2  0  0  0  0
 37  4  1  0  0  0  0
 37 36  1  0  0  0  0
M  END
>  <MODEL>
3

>  <REMARK>
 VINA RESULT:      -8.9      2.074      5.589
  Name = 
  2 active torsions:
  status: ('A' for Active; 'I' for Inactive)
    1  A    between atoms: N_4  and  C_37
    2  A    between atoms: N_23  and  C_30
                            x       y       z     vdW  Elec       q    Type
                         _______ _______ _______ _____ _____    ______ ____

>  <TORSDO>
F 2

$$$$
=
 OpenBabel11112417243D

 37 44  0  0  1  0  0  0  0  0999 V2000
  193.9580  174.4680  143.8260 C   0  0  0  0  0  2  0  0  0  0  0  0
  191.6390  171.0580  141.5600 C   0  0  0  0  0  0  0  0  0  0  0  0
  189.7560  174.7130  142.2010 C   0  0  0  0  0  0  0  0  0  0  0  0
  195.0550  174.0760  144.7100 N   0  0  0  0  0  0  0  0  0  0  0  0
  191.1220  177.2020  144.7600 O   0  0  0  0  0  0  0  0  0  0  0  0
  189.7490  172.5860  141.0640 C   0  0  0  0  0  0  0  0  0  0  0  0
  190.5250  175.2760  143.2100 C   0  0  0  0  0  0  0  0  0  0  0  0
  194.6840  176.3870  145.7140 C   0  0  2  0  0  3  0  0  0  0  0  0
  190.2170  173.4430  142.0290 C   0  0  0  0  0  0  0  0  0  0  0  0
  190.4300  176.7570  143.6000 C   0  0  1  0  0  3  0  0  0  0  0  0
  188.7170  173.0360  140.2280 C   0  0  0  0  0  3  0  0  0  0  0  0
  195.1850  174.9450  145.8910 C   0  0  0  0  0  2  0  0  0  0  0  0
  191.2310  173.1520  142.8360 N   0  0  0  0  0  0  0  0  0  0  0  0
  192.7360  171.4530  140.5890 C   0  0  0  0  0  1  0  0  0  0  0  0
  188.2170  176.6050  141.4370 C   0  0  0  0  0  3  0  0  0  0  0  0
  188.2240  174.3560  140.3790 C   0  0  0  0  0  3  0  0  0  0  0  0
  191.8520  171.8280  142.8920 C   0  0  0  0  0  2  0  0  0  0  0  0
  193.1710  176.5980  145.9240 C   0  0  1  0  0  3  0  0  0  0  0  0
  192.3960  176.6570  144.6970 C   0  0  1  0  0  3  0  0  0  0  0  0
  188.7430  175.2250  141.3680 C   0  0  0  0  0  0  0  0  0  0  0  0
  191.4590  174.2620  143.5730 C   0  0  0  0  0  0  0  0  0  0  0  0
  190.3550  171.3290  140.9550 O   0  0  0  0  0  0  0  0  0  0  0  0
  189.0190  177.1440  143.6770 N   0  0  0  0  0  0  0  0  0  0  0  0
  191.7510  169.5730  141.8310 C   0  0  0  0  0  1  0  0  0  0  0  0
  192.3210  175.4390  145.5270 N   0  0  1  0  0  0  0  0  0  0  0  0
  195.1770  177.0010  144.5570 O   0  0  0  0  0  1  0  0  0  0  0  0
  192.6100  174.3790  144.5500 C   0  0  2  0  0  3  0  0  0  0  0  0
  188.3350  177.4610  142.4580 C   0  0  0  0  0  3  0  0  0  0  0  0
  187.2220  177.9630  145.1670 C   0  0  0  0  0  3  0  0  0  0  0  0
  188.2620  177.0550  144.9040 C   0  0  0  0  0  0  0  0  0  0  0  0
  188.5300  176.0450  145.8440 C   0  0  0  0  0  3  0  0  0  0  0  0
  188.0560  174.9750  147.9190 F   0  0  0  0  0  0  0  0  0  0  0  0
  186.7570  176.8650  147.2730 C   0  0  0  0  0  3  0  0  0  0  0  0
  187.7840  175.9520  147.0220 C   0  0  0  0  0  0  0  0  0  0  0  0
  186.4760  177.8700  146.3450 C   0  0  0  0  0  3  0  0  0  0  0  0
  195.9780  174.2360  142.4660 C   0  0  0  0  0  1  0  0  0  0  0  0
  196.2900  174.1800  143.9500 C   0  0  0  0  0  2  0  0  0  0  0  0
  1 27  1  0  0  0  0
  1  4  1  0  0  0  0
  2 24  1  0  0  0  0
  2 17  1  0  0  0  0
  3  7  1  0  0  0  0
  4 12  1  0  0  0  0
  6  9  2  0  0  0  0
  7 21  2  0  0  0  0
  8 26  1  6  0  0  0
  8 12  1  0  0  0  0
  8 18  1  0  0  0  0
  9  3  1  0  0  0  0
  9 13  1  0  0  0  0
 10  7  1  1  0  0  0
 10 23  1  0  0  0  0
 10  5  1  0  0  0  0
 11 16  2  0  0  0  0
 11  6  1  0  0  0  0
 13 17  1  0  0  0  0
 13 21  1  0  0  0  0
 14  2  1  0  0  0  0
 15 28  2  0  0  0  0
 16 20  1  0  0  0  0
 19  5  1  0  0  0  0
 19 25  1  0  0  0  0
 19 18  1  0  0  0  0
 20 15  1  0  0  0  0
 20  3  2  0  0  0  0
 21 27  1  0  0  0  0
 22  6  1  0  0  0  0
 22  2  1  0  0  0  0
 23 30  1  0  0  0  0
 25 18  1  0  0  0  0
 27 25  1  0  0  0  0
 28 23  1  0  0  0  0
 29 35  1  0  0  0  0
 30 29  2  0  0  0  0
 30 31  1  0  0  0  0
 31 34  2  0  0  0  0
 34 33  1  0  0  0  0
 34 32  1  0  0  0  0
 35 33  2  0  0  0  0
 36 37  1  0  0  0  0
 37  4  1  0  0  0  0
M  END
>  <MODEL>
4

>  <REMARK>
 VINA RESULT:      -8.5      1.898      5.406
  Name = 
  2 active torsions:
  status: ('A' for Active; 'I' for Inactive)
    1  A    between atoms: N_4  and  C_37
    2  A    between atoms: N_23  and  C_30
                            x       y       z     vdW  Elec       q    Type
                         _______ _______ _______ _____ _____    ______ ____

>  <TORSDO>
F 2

$$$$
=
 OpenBabel11112417243D

 37 44  0  0  1  0  0  0  0  0999 V2000
  192.7980  172.2710  141.8130 C   0  0  0  0  0  2  0  0  0  0  0  0
  195.8490  175.2480  143.8070 C   0  0  0  0  0  0  0  0  0  0  0  0
  191.8420  175.4010  144.9180 C   0  0  0  0  0  0  0  0  0  0  0  0
  193.1470  171.7100  140.5080 N   0  0  0  0  0  0  0  0  0  0  0  0
  189.1480  173.7270  142.7850 O   0  0  0  0  0  0  0  0  0  0  0  0
  194.1110  176.0810  145.3680 C   0  0  0  0  0  0  0  0  0  0  0  0
  191.2140  174.7290  143.8800 C   0  0  0  0  0  0  0  0  0  0  0  0
  190.6470  171.2430  140.3680 C   0  0  2  0  0  3  0  0  0  0  0  0
  193.1500  175.5270  144.5610 C   0  0  0  0  0  0  0  0  0  0  0  0
  189.7600  174.2460  143.9600 C   0  0  1  0  0  3  0  0  0  0  0  0
  193.7170  176.5730  146.6210 C   0  0  0  0  0  3  0  0  0  0  0  0
  191.9770  171.4940  139.6400 C   0  0  0  0  0  2  0  0  0  0  0  0
  193.4150  174.9740  143.3820 N   0  0  0  0  0  0  0  0  0  0  0  0
  196.2590  173.8930  144.3530 C   0  0  0  0  0  1  0  0  0  0  0  0
  190.0160  175.7060  146.6800 C   0  0  0  0  0  3  0  0  0  0  0  0
  192.3630  176.4470  147.0230 C   0  0  0  0  0  3  0  0  0  0  0  0
  194.7320  175.0400  142.7480 C   0  0  0  0  0  2  0  0  0  0  0  0
  189.8820  172.5050  140.8140 C   0  0  1  0  0  3  0  0  0  0  0  0
  190.0620  172.8540  142.2130 C   0  0  1  0  0  3  0  0  0  0  0  0
  191.3990  175.8490  146.1770 C   0  0  0  0  0  0  0  0  0  0  0  0
  192.2480  174.4600  142.9350 C   0  0  0  0  0  0  0  0  0  0  0  0
  195.4320  176.0920  144.9040 O   0  0  0  0  0  0  0  0  0  0  0  0
  188.9310  175.3100  144.5310 N   0  0  0  0  0  0  0  0  0  0  0  0
  197.0500  175.8760  143.1330 C   0  0  0  0  0  1  0  0  0  0  0  0
  190.7500  173.6590  141.1840 N   0  0  1  0  0  0  0  0  0  0  0  0
  190.7430  170.2680  141.3670 O   0  0  0  0  0  1  0  0  0  0  0  0
  192.1410  173.6470  141.6610 C   0  0  2  0  0  3  0  0  0  0  0  0
  188.9170  175.4680  145.9550 C   0  0  0  0  0  3  0  0  0  0  0  0
  189.0190  177.2390  142.9840 C   0  0  0  0  0  3  0  0  0  0  0  0
  188.2700  176.2960  143.7090 C   0  0  0  0  0  0  0  0  0  0  0  0
  186.8690  176.3160  143.5950 C   0  0  0  0  0  3  0  0  0  0  0  0
  184.8830  177.2690  142.6880 F   0  0  0  0  0  0  0  0  0  0  0  0
  186.9910  178.1950  142.0750 C   0  0  0  0  0  3  0  0  0  0  0  0
  186.2330  177.2610  142.7850 C   0  0  0  0  0  0  0  0  0  0  0  0
  188.3840  178.1840  142.1740 C   0  0  0  0  0  3  0  0  0  0  0  0
  193.9260  169.6780  139.4230 C   0  0  0  0  0  1  0  0  0  0  0  0
  193.7680  170.4160  140.7390 C   0  0  0  0  0  2  0  0  0  0  0  0
  2 14  1  0  0  0  0
  2 22  1  0  0  0  0
  3 20  1  0  0  0  0
  4 37  1  0  0  0  0
  4  1  1  0  0  0  0
  6 11  2  0  0  0  0
  7 10  1  0  0  0  0
  7  3  1  0  0  0  0
  8 18  1  0  0  0  0
  8 26  1  1  0  0  0
  9  3  2  0  0  0  0
  9  6  1  0  0  0  0
 10  5  1  6  0  0  0
 10 23  1  0  0  0  0
 11 16  1  0  0  0  0
 12  8  1  0  0  0  0
 12  4  1  0  0  0  0
 13  9  1  0  0  0  0
 17 13  1  0  0  0  0
 17  2  1  0  0  0  0
 18 25  1  0  0  0  0
 18 19  1  0  0  0  0
 19  5  1  0  0  0  0
 20 15  1  0  0  0  0
 20 16  2  0  0  0  0
 21 13  1  0  0  0  0
 21  7  2  0  0  0  0
 22  6  1  0  0  0  0
 23 28  1  0  0  0  0
 24  2  1  0  0  0  0
 25 27  1  0  0  0  0
 25 19  1  0  0  0  0
 27  1  1  0  0  0  0
 27 21  1  0  0  0  0
 28 15  2  0  0  0  0
 29 30  1  0  0  0  0
 30 23  1  0  0  0  0
 31 30  2  0  0  0  0
 32 34  1  0  0  0  0
 33 35  1  0  0  0  0
 33 34  2  0  0  0  0
 34 31  1  0  0  0  0
 35 29  2  0  0  0  0
 36 37  1  0  0  0  0
M  END
>  <MODEL>
5

>  <REMARK>
 VINA RESULT:      -8.3      1.469      1.765
  Name = 
  2 active torsions:
  status: ('A' for Active; 'I' for Inactive)
    1  A    between atoms: N_4  and  C_37
    2  A    between atoms: N_23  and  C_30
                            x       y       z     vdW  Elec       q    Type
                         _______ _______ _______ _____ _____    ______ ____

>  <TORSDO>
F 2

$$$$
=
 OpenBabel11112417243D

 37 44  0  0  1  0  0  0  0  0999 V2000
  190.8560  172.6990  142.1850 C   0  0  0  0  0  2  0  0  0  0  0  0
  189.8670  175.4450  145.8760 C   0  0  0  0  0  0  0  0  0  0  0  0
  193.7930  174.2130  145.2580 C   0  0  0  0  0  0  0  0  0  0  0  0
  189.7690  171.9020  141.6180 N   0  0  0  0  0  0  0  0  0  0  0  0
  194.5910  171.3110  142.9020 O   0  0  0  0  0  0  0  0  0  0  0  0
  192.2730  175.6710  146.4330 C   0  0  0  0  0  0  0  0  0  0  0  0
  193.6400  173.1380  144.3940 C   0  0  0  0  0  0  0  0  0  0  0  0
  191.6800  170.5420  140.6230 C   0  0  2  0  0  3  0  0  0  0  0  0
  192.5380  174.5890  145.6320 C   0  0  0  0  0  0  0  0  0  0  0  0
  194.8110  172.5190  143.6210 C   0  0  1  0  0  3  0  0  0  0  0  0
  193.3590  176.4130  146.9190 C   0  0  0  0  0  3  0  0  0  0  0  0
  190.2180  170.6000  141.0970 C   0  0  0  0  0  2  0  0  0  0  0  0
  191.5910  173.8500  145.0630 N   0  0  0  0  0  0  0  0  0  0  0  0
  189.6470  176.3550  144.6820 C   0  0  0  0  0  1  0  0  0  0  0  0
  196.3100  174.6510  145.2950 C   0  0  0  0  0  3  0  0  0  0  0  0
  194.6760  176.0500  146.5390 C   0  0  0  0  0  3  0  0  0  0  0  0
  190.1670  174.0110  145.3610 C   0  0  0  0  0  2  0  0  0  0  0  0
  192.7270  170.2820  141.7240 C   0  0  1  0  0  3  0  0  0  0  0  0
  193.4040  171.4760  142.2030 C   0  0  1  0  0  3  0  0  0  0  0  0
  194.9160  174.9430  145.6910 C   0  0  0  0  0  0  0  0  0  0  0  0
  192.2300  172.9500  144.2830 C   0  0  0  0  0  0  0  0  0  0  0  0
  190.9330  175.9840  146.6890 O   0  0  0  0  0  0  0  0  0  0  0  0
  195.9540  172.3640  144.5240 N   0  0  0  0  0  0  0  0  0  0  0  0
  188.5930  175.4130  146.6940 C   0  0  0  0  0  1  0  0  0  0  0  0
  192.3790  170.8460  143.0590 N   0  0  1  0  0  0  0  0  0  0  0  0
  192.0200  171.5930  139.7650 O   0  0  0  0  0  1  0  0  0  0  0  0
  191.5000  171.9820  143.3770 C   0  0  2  0  0  3  0  0  0  0  0  0
  196.7770  173.5090  144.7780 C   0  0  0  0  0  3  0  0  0  0  0  0
  197.4270  170.5160  145.2560 C   0  0  0  0  0  3  0  0  0  0  0  0
  196.1760  171.1570  145.2860 C   0  0  0  0  0  0  0  0  0  0  0  0
  195.1590  170.6170  146.0920 C   0  0  0  0  0  3  0  0  0  0  0  0
  194.3920  168.9490  147.6110 F   0  0  0  0  0  0  0  0  0  0  0  0
  196.6290  168.8290  146.7980 C   0  0  0  0  0  3  0  0  0  0  0  0
  195.3840  169.4590  146.8410 C   0  0  0  0  0  0  0  0  0  0  0  0
  197.6510  169.3570  146.0060 C   0  0  0  0  0  3  0  0  0  0  0  0
  189.1120  174.1200  140.8710 C   0  0  0  0  0  1  0  0  0  0  0  0
  189.2100  172.6510  140.5050 C   0  0  0  0  0  2  0  0  0  0  0  0
  1 27  1  0  0  0  0
  2 22  1  0  0  0  0
  2 24  1  0  0  0  0
  3  9  2  0  0  0  0
  3 20  1  0  0  0  0
  4  1  1  0  0  0  0
  6 22  1  0  0  0  0
  6 11  2  0  0  0  0
  7  3  1  0  0  0  0
  8 26  1  1  0  0  0
  8 12  1  0  0  0  0
  8 18  1  0  0  0  0
  9  6  1  0  0  0  0
 10  5  1  1  0  0  0
 10  7  1  0  0  0  0
 10 23  1  0  0  0  0
 12  4  1  0  0  0  0
 13 17  1  0  0  0  0
 13  9  1  0  0  0  0
 14  2  1  0  0  0  0
 15 20  1  0  0  0  0
 16 11  1  0  0  0  0
 17  2  1  0  0  0  0
 18 19  1  0  0  0  0
 18 25  1  0  0  0  0
 19  5  1  0  0  0  0
 19 25  1  0  0  0  0
 20 16  2  0  0  0  0
 21  7  2  0  0  0  0
 21 13  1  0  0  0  0
 23 28  1  0  0  0  0
 23 30  1  0  0  0  0
 25 27  1  0  0  0  0
 27 21  1  0  0  0  0
 28 15  2  0  0  0  0
 29 30  2  0  0  0  0
 29 35  1  0  0  0  0
 30 31  1  0  0  0  0
 31 34  2  0  0  0  0
 33 34  1  0  0  0  0
 34 32  1  0  0  0  0
 35 33  2  0  0  0  0
 37 36  1  0  0  0  0
 37  4  1  0  0  0  0
M  END
>  <MODEL>
6

>  <REMARK>
 VINA RESULT:      -7.8      3.593      6.493
  Name = 
  2 active torsions:
  status: ('A' for Active; 'I' for Inactive)
    1  A    between atoms: N_4  and  C_37
    2  A    between atoms: N_23  and  C_30
                            x       y       z     vdW  Elec       q    Type
                         _______ _______ _______ _____ _____    ______ ____

>  <TORSDO>
F 2

$$$$
=
 OpenBabel11112417243D

 37 44  0  0  1  0  0  0  0  0999 V2000
  189.8020  175.8260  145.6860 C   0  0  0  0  0  2  0  0  0  0  0  0
  188.2140  175.3680  141.2800 C   0  0  0  0  0  0  0  0  0  0  0  0
  191.8240  173.5870  142.3320 C   0  0  0  0  0  0  0  0  0  0  0  0
  189.3250  176.9660  146.4680 N   0  0  0  0  0  0  0  0  0  0  0  0
  193.6590  174.6060  145.5260 O   0  0  0  0  0  0  0  0  0  0  0  0
  190.0450  173.7930  140.7170 C   0  0  0  0  0  0  0  0  0  0  0  0
  192.1620  174.2550  143.4990 C   0  0  0  0  0  0  0  0  0  0  0  0
  191.3850  176.4820  147.8860 C   0  0  2  0  0  3  0  0  0  0  0  0
  190.7210  174.2120  141.8350 C   0  0  0  0  0  0  0  0  0  0  0  0
  193.2600  173.7630  144.4520 C   0  0  1  0  0  3  0  0  0  0  0  0
  190.5370  172.6730  140.0300 C   0  0  0  0  0  3  0  0  0  0  0  0
  190.3370  177.4950  147.3960 C   0  0  0  0  0  2  0  0  0  0  0  0
  190.3140  175.2190  142.6010 N   0  0  0  0  0  0  0  0  0  0  0  0
  187.2300  174.5580  142.1030 C   0  0  0  0  0  1  0  0  0  0  0  0
  193.4960  171.6590  142.1900 C   0  0  0  0  0  3  0  0  0  0  0  0
  191.6790  171.9980  140.5290 C   0  0  0  0  0  3  0  0  0  0  0  0
  189.1940  176.0900  142.2450 C   0  0  0  0  0  2  0  0  0  0  0  0
  192.5890  176.2650  146.9490 C   0  0  1  0  0  3  0  0  0  0  0  0
  192.4940  175.0800  146.1130 C   0  0  1  0  0  3  0  0  0  0  0  0
  192.3410  172.4400  141.6990 C   0  0  0  0  0  0  0  0  0  0  0  0
  191.1720  175.2710  143.6450 C   0  0  0  0  0  0  0  0  0  0  0  0
  188.8870  174.4890  140.3510 O   0  0  0  0  0  0  0  0  0  0  0  0
  194.4300  173.3600  143.6680 N   0  0  0  0  0  0  0  0  0  0  0  0
  187.4410  176.4100  140.5000 C   0  0  0  0  0  1  0  0  0  0  0  0
  192.2810  176.4050  145.4970 N   0  0  1  0  0  0  0  0  0  0  0  0
  190.8190  175.2910  148.3530 O   0  0  0  0  0  1  0  0  0  0  0  0
  190.9940  176.2230  144.8090 C   0  0  2  0  0  3  0  0  0  0  0  0
  194.4260  172.0610  143.0630 C   0  0  0  0  0  3  0  0  0  0  0  0
  196.7730  174.1130  143.9200 C   0  0  0  0  0  3  0  0  0  0  0  0
  195.4990  174.2790  143.3510 C   0  0  0  0  0  0  0  0  0  0  0  0
  195.2940  175.3370  142.4490 C   0  0  0  0  0  3  0  0  0  0  0  0
  196.1220  177.2300  141.2630 F   0  0  0  0  0  0  0  0  0  0  0  0
  197.5950  176.0410  142.7090 C   0  0  0  0  0  3  0  0  0  0  0  0
  196.3360  176.2140  142.1310 C   0  0  0  0  0  0  0  0  0  0  0  0
  197.8150  174.9900  143.6030 C   0  0  0  0  0  3  0  0  0  0  0  0
  186.8990  176.8030  146.5300 C   0  0  0  0  0  1  0  0  0  0  0  0
  188.1950  176.5110  147.2620 C   0  0  0  0  0  2  0  0  0  0  0  0
  1  4  1  0  0  0  0
  2 14  1  0  0  0  0
  2 17  1  0  0  0  0
  3  7  1  0  0  0  0
  4 37  1  0  0  0  0
  4 12  1  0  0  0  0
  5 19  1  0  0  0  0
  6  9  2  0  0  0  0
  7 21  2  0  0  0  0
  8 26  1  6  0  0  0
  9  3  1  0  0  0  0
  9 13  1  0  0  0  0
 10  7  1  6  0  0  0
 10  5  1  0  0  0  0
 11 16  2  0  0  0  0
 11  6  1  0  0  0  0
 12  8  1  0  0  0  0
 13 21  1  0  0  0  0
 15 28  2  0  0  0  0
 16 20  1  0  0  0  0
 17 13  1  0  0  0  0
 18  8  1  0  0  0  0
 19 18  1  0  0  0  0
 20 15  1  0  0  0  0
 20  3  2  0  0  0  0
 21 27  1  0  0  0  0
 22  6  1  0  0  0  0
 22  2  1  0  0  0  0
 23 10  1  0  0  0  0
 24  2  1  0  0  0  0
 25 19  1  0  0  0  0
 25 18  1  0  0  0  0
 27 25  1  0  0  0  0
 27  1  1  0  0  0  0
 28 23  1  0  0  0  0
 30 23  1  0  0  0  0
 30 29  2  0  0  0  0
 31 30  1  0  0  0  0
 32 34  1  0  0  0  0
 33 35  2  0  0  0  0
 34 31  2  0  0  0  0
 34 33  1  0  0  0  0
 35 29  1  0  0  0  0
 36 37  1  0  0  0  0
M  END
>  <MODEL>
7

>  <REMARK>
 VINA RESULT:      -7.7      2.834      7.457
  Name = 
  2 active torsions:
  status: ('A' for Active; 'I' for Inactive)
    1  A    between atoms: N_4  and  C_37
    2  A    between atoms: N_23  and  C_30
                            x       y       z     vdW  Elec       q    Type
                         _______ _______ _______ _____ _____    ______ ____

>  <TORSDO>
F 2

$$$$
=
 OpenBabel11112417243D

 37 44  0  0  1  0  0  0  0  0999 V2000
  190.0850  174.1930  141.9080 C   0  0  0  0  0  2  0  0  0  0  0  0
  189.1930  176.1900  146.0750 C   0  0  0  0  0  0  0  0  0  0  0  0
  193.0710  174.9590  145.2030 C   0  0  0  0  0  0  0  0  0  0  0  0
  188.9710  173.5640  141.2010 N   0  0  0  0  0  0  0  0  0  0  0  0
  193.7640  172.5530  142.3150 O   0  0  0  0  0  0  0  0  0  0  0  0
  191.6050  176.2110  146.6520 C   0  0  0  0  0  0  0  0  0  0  0  0
  192.8800  174.0820  144.1450 C   0  0  0  0  0  0  0  0  0  0  0  0
  190.8300  172.3580  139.9460 C   0  0  2  0  0  3  0  0  0  0  0  0
  191.8310  175.3000  145.6500 C   0  0  0  0  0  0  0  0  0  0  0  0
  194.0290  173.5850  143.2580 C   0  0  1  0  0  3  0  0  0  0  0  0
  192.7180  176.8020  147.2680 C   0  0  0  0  0  3  0  0  0  0  0  0
  189.3720  172.3750  140.4300 C   0  0  0  0  0  2  0  0  0  0  0  0
  190.8580  174.7240  144.9520 N   0  0  0  0  0  0  0  0  0  0  0  0
  189.0100  177.3250  145.0850 C   0  0  0  0  0  1  0  0  0  0  0  0
  195.6040  175.2870  145.3120 C   0  0  0  0  0  3  0  0  0  0  0  0
  194.0210  176.4720  146.8170 C   0  0  0  0  0  3  0  0  0  0  0  0
  189.4410  174.8760  145.2840 C   0  0  0  0  0  2  0  0  0  0  0  0
  191.8660  171.8470  140.9680 C   0  0  1  0  0  3  0  0  0  0  0  0
  192.5860  172.8960  141.6690 C   0  0  1  0  0  3  0  0  0  0  0  0
  194.2210  175.5460  145.7650 C   0  0  0  0  0  0  0  0  0  0  0  0
  191.4640  173.9730  144.0060 C   0  0  0  0  0  0  0  0  0  0  0  0
  190.2780  176.5170  146.9720 O   0  0  0  0  0  0  0  0  0  0  0  0
  195.1630  173.2130  144.1060 N   0  0  0  0  0  0  0  0  0  0  0  0
  187.9180  176.0440  146.8770 C   0  0  0  0  0  1  0  0  0  0  0  0
  191.5360  172.1480  142.3900 N   0  0  1  0  0  0  0  0  0  0  0  0
  191.2120  173.5450  139.3110 O   0  0  0  0  0  1  0  0  0  0  0  0
  190.7000  173.2300  142.9300 C   0  0  2  0  0  3  0  0  0  0  0  0
  196.0280  174.2530  144.5770 C   0  0  0  0  0  3  0  0  0  0  0  0
  194.5280  171.3920  145.6570 C   0  0  0  0  0  3  0  0  0  0  0  0
  195.3380  171.8710  144.6130 C   0  0  0  0  0  0  0  0  0  0  0  0
  196.3010  171.0120  144.0570 C   0  0  0  0  0  3  0  0  0  0  0  0
  197.3910  168.8940  143.9940 F   0  0  0  0  0  0  0  0  0  0  0  0
  195.6480  169.2480  145.5800 C   0  0  0  0  0  3  0  0  0  0  0  0
  196.4560  169.7090  144.5380 C   0  0  0  0  0  0  0  0  0  0  0  0
  194.6830  170.0890  146.1380 C   0  0  0  0  0  3  0  0  0  0  0  0
  187.8230  175.7000  141.0160 C   0  0  0  0  0  1  0  0  0  0  0  0
  188.4420  174.5400  140.2610 C   0  0  0  0  0  2  0  0  0  0  0  0
  1 27  1  0  0  0  0
  2 24  1  0  0  0  0
  2 22  1  0  0  0  0
  3  9  2  0  0  0  0
  3 20  1  0  0  0  0
  4  1  1  0  0  0  0
  6 22  1  0  0  0  0
  6 11  2  0  0  0  0
  7  3  1  0  0  0  0
  8 26  1  1  0  0  0
  8 12  1  0  0  0  0
  8 18  1  0  0  0  0
  9  6  1  0  0  0  0
 10  5  1  1  0  0  0
 10 23  1  0  0  0  0
 10  7  1  0  0  0  0
 12  4  1  0  0  0  0
 13 17  1  0  0  0  0
 13  9  1  0  0  0  0
 14  2  1  0  0  0  0
 15 20  1  0  0  0  0
 16 11  1  0  0  0  0
 17  2  1  0  0  0  0
 18 19  1  0  0  0  0
 18 25  1  0  0  0  0
 19  5  1  0  0  0  0
 19 25  1  0  0  0  0
 20 16  2  0  0  0  0
 21  7  2  0  0  0  0
 21 13  1  0  0  0  0
 23 28  1  0  0  0  0
 23 30  1  0  0  0  0
 25 27  1  0  0  0  0
 27 21  1  0  0  0  0
 28 15  2  0  0  0  0
 29 35  1  0  0  0  0
 30 29  2  0  0  0  0
 31 34  2  0  0  0  0
 31 30  1  0  0  0  0
 32 34  1  0  0  0  0
 33 35  2  0  0  0  0
 34 33  1  0  0  0  0
 37 36  1  0  0  0  0
 37  4  1  0  0  0  0
M  END
>  <MODEL>
8

>  <REMARK>
 VINA RESULT:      -7.7      3.494      6.432
  Name = 
  2 active torsions:
  status: ('A' for Active; 'I' for Inactive)
    1  A    between atoms: N_4  and  C_37
    2  A    between atoms: N_23  and  C_30
                            x       y       z     vdW  Elec       q    Type
                         _______ _______ _______ _____ _____    ______ ____

>  <TORSDO>
F 2

$$$$
=
 OpenBabel11112417243D

 37 44  0  0  1  0  0  0  0  0999 V2000
  189.4380  175.3510  144.6950 C   0  0  0  0  0  2  0  0  0  0  0  0
  189.0100  173.0900  140.5900 C   0  0  0  0  0  0  0  0  0  0  0  0
  192.0430  171.9780  143.2120 C   0  0  0  0  0  0  0  0  0  0  0  0
  188.8830  176.7000  144.7920 N   0  0  0  0  0  0  0  0  0  0  0  0
  193.0750  174.2590  146.1000 O   0  0  0  0  0  0  0  0  0  0  0  0
  190.7700  171.4640  141.2300 C   0  0  0  0  0  0  0  0  0  0  0  0
  192.1280  173.0740  144.0580 C   0  0  0  0  0  0  0  0  0  0  0  0
  190.4510  176.8860  146.7900 C   0  0  2  0  0  3  0  0  0  0  0  0
  191.1690  172.3200  142.2260 C   0  0  0  0  0  0  0  0  0  0  0  0
  192.8920  173.0410  145.3890 C   0  0  1  0  0  3  0  0  0  0  0  0
  191.3170  170.1720  141.2120 C   0  0  0  0  0  3  0  0  0  0  0  0
  189.6650  177.5860  145.6690 C   0  0  0  0  0  2  0  0  0  0  0  0
  190.6730  173.5430  142.3810 N   0  0  0  0  0  0  0  0  0  0  0  0
  187.7750  172.6670  141.3640 C   0  0  0  0  0  1  0  0  0  0  0  0
  193.5080  170.2000  144.3180 C   0  0  0  0  0  3  0  0  0  0  0  0
  192.2230  169.7870  142.2320 C   0  0  0  0  0  3  0  0  0  0  0  0
  189.7690  174.1660  141.4130 C   0  0  0  0  0  2  0  0  0  0  0  0
  191.8320  176.3310  146.3880 C   0  0  1  0  0  3  0  0  0  0  0  0
  191.8470  174.9060  146.1050 C   0  0  1  0  0  3  0  0  0  0  0  0
  192.5980  170.6850  143.2590 C   0  0  0  0  0  0  0  0  0  0  0  0
  191.2320  174.0380  143.5070 C   0  0  0  0  0  0  0  0  0  0  0  0
  189.8160  171.9230  140.3140 O   0  0  0  0  0  0  0  0  0  0  0  0
  194.1820  172.3790  145.1860 N   0  0  0  0  0  0  0  0  0  0  0  0
  188.5660  173.7020  139.2790 C   0  0  0  0  0  1  0  0  0  0  0  0
  191.9240  175.8560  144.9780 N   0  0  1  0  0  0  0  0  0  0  0  0
  189.6760  175.9790  147.5200 O   0  0  0  0  0  1  0  0  0  0  0  0
  190.8490  175.3790  144.0960 C   0  0  2  0  0  3  0  0  0  0  0  0
  194.2140  170.9460  145.1750 C   0  0  0  0  0  3  0  0  0  0  0  0
  196.4550  173.1880  145.7310 C   0  0  0  0  0  3  0  0  0  0  0  0
  195.3770  173.1100  144.8340 C   0  0  0  0  0  0  0  0  0  0  0  0
  195.4960  173.7330  143.5800 C   0  0  0  0  0  3  0  0  0  0  0  0
  196.7580  175.0240  142.0250 F   0  0  0  0  0  0  0  0  0  0  0  0
  197.7220  174.5000  144.1400 C   0  0  0  0  0  3  0  0  0  0  0  0
  196.6600  174.4260  143.2360 C   0  0  0  0  0  0  0  0  0  0  0  0
  197.6200  173.8800  145.3880 C   0  0  0  0  0  3  0  0  0  0  0  0
  186.8290  177.9160  145.2560 C   0  0  0  0  0  1  0  0  0  0  0  0
  187.5480  176.5850  145.3590 C   0  0  0  0  0  2  0  0  0  0  0  0
  1  4  1  0  0  0  0
  2 14  1  0  0  0  0
  2 17  1  0  0  0  0
  3 20  1  0  0  0  0
  3  7  1  0  0  0  0
  4 37  1  0  0  0  0
  4 12  1  0  0  0  0
  5 19  1  0  0  0  0
  6  9  1  0  0  0  0
  8 26  1  6  0  0  0
  9 13  1  0  0  0  0
  9  3  2  0  0  0  0
 10  7  1  6  0  0  0
 10  5  1  0  0  0  0
 11  6  2  0  0  0  0
 11 16  1  0  0  0  0
 12  8  1  0  0  0  0
 13 21  1  0  0  0  0
 15 28  2  0  0  0  0
 16 20  2  0  0  0  0
 17 13  1  0  0  0  0
 18  8  1  0  0  0  0
 19 18  1  0  0  0  0
 20 15  1  0  0  0  0
 21  7  2  0  0  0  0
 21 27  1  0  0  0  0
 22  2  1  0  0  0  0
 22  6  1  0  0  0  0
 23 10  1  0  0  0  0
 24  2  1  0  0  0  0
 25 19  1  0  0  0  0
 25 18  1  0  0  0  0
 27  1  1  0  0  0  0
 27 25  1  0  0  0  0
 28 23  1  0  0  0  0
 30 23  1  0  0  0  0
 30 29  2  0  0  0  0
 31 30  1  0  0  0  0
 32 34  1  0  0  0  0
 33 35  2  0  0  0  0
 34 31  2  0  0  0  0
 34 33  1  0  0  0  0
 35 29  1  0  0  0  0
 36 37  1  0  0  0  0
M  END
>  <MODEL>
9

>  <REMARK>
 VINA RESULT:      -7.6      3.034      7.360
  Name = 
  2 active torsions:
  status: ('A' for Active; 'I' for Inactive)
    1  A    between atoms: N_4  and  C_37
    2  A    between atoms: N_23  and  C_30
                            x       y       z     vdW  Elec       q    Type
                         _______ _______ _______ _____ _____    ______ ____

>  <TORSDO>
F 2

$$$$
