=
 OpenBabel11112417523D

 34 41  0  0  1  0  0  0  0  0999 V2000
  189.2500  175.2020  142.9520 C   0  0  0  0  0  0  0  0  0  0  0  0
  191.5060  173.9390  142.8230 C   0  0  0  0  0  3  0  0  0  0  0  0
  185.0930  178.8050  146.2630 C   0  0  0  0  0  0  0  0  0  0  0  0
  187.1620  176.3910  143.3090 C   0  0  0  0  0  0  0  0  0  0  0  0
  186.4930  176.9400  145.5820 C   0  0  0  0  0  0  0  0  0  0  0  0
  186.0410  177.9160  147.7980 C   0  0  0  0  0  2  0  0  0  0  0  0
  185.5890  179.2350  147.5480 O   0  0  0  0  0  0  0  0  0  0  0  0
  184.2900  178.6470  144.0320 C   0  0  0  0  0  3  0  0  0  0  0  0
  190.6390  174.5800  144.9090 C   0  0  0  0  0  0  0  0  0  0  0  0
  192.4650  175.7470  147.0770 C   0  0  0  0  0  3  0  0  0  0  0  0
  187.6220  176.3260  146.0430 N   0  0  0  0  0  0  0  0  0  0  0  0
  185.0130  177.6070  143.5820 C   0  0  0  0  0  3  0  0  0  0  0  0
  189.7680  175.1300  145.7610 C   0  0  0  0  0  0  0  0  0  0  0  0
  192.4310  173.4110  143.9320 C   0  0  0  0  0  3  0  0  0  0  0  0
  186.2320  176.9890  144.1830 C   0  0  0  0  0  0  0  0  0  0  0  0
  184.5610  179.3730  145.2360 N   0  0  0  0  0  0  0  0  0  0  0  0
  192.8840  175.0390  145.8020 C   0  0  2  0  0  3  0  0  0  0  0  0
  188.3200  175.7890  143.8260 C   0  0  0  0  0  0  0  0  0  0  0  0
  185.4760  177.4110  146.5790 C   0  0  1  0  0  3  0  0  0  0  0  0
  188.5420  175.7700  145.2150 C   0  0  0  0  0  0  0  0  0  0  0  0
  187.8520  175.8320  141.0950 C   0  0  0  0  0  3  0  0  0  0  0  0
  191.2530  175.7870  147.6620 C   0  0  0  0  0  3  0  0  0  0  0  0
  186.9630  176.3950  141.9590 N   0  0  0  0  0  0  0  0  0  0  0  0
  190.0190  175.0420  147.2320 C   0  0  0  0  0  2  0  0  0  0  0  0
  191.9280  173.9570  145.2820 C   0  0  1  0  0  3  0  0  0  0  0  0
  189.0150  175.2220  141.5760 C   0  0  0  0  0  3  0  0  0  0  0  0
  190.4170  174.5910  143.5160 N   0  0  0  0  0  0  0  0  0  0  0  0
  194.1670  174.5120  145.9720 O   0  0  0  0  0  0  0  0  0  0  0  0
  195.0360  175.5150  145.5190 C   0  0  0  0  0  2  0  0  0  0  0  0
  197.2110  176.6160  143.1140 C   0  0  0  0  0  2  0  0  0  0  0  0
  196.9430  174.6350  144.3960 C   0  0  0  0  0  2  0  0  0  0  0  0
  195.6040  175.1870  144.2110 N   0  0  0  0  0  0  0  0  0  0  0  0
  197.8480  175.2810  143.3760 C   0  0  0  0  0  2  0  0  0  0  0  0
  195.7420  176.4110  143.4210 C   0  0  0  0  0  2  0  0  0  0  0  0
  1 27  1  0  0  0  0
  1 18  1  0  0  0  0
  2 27  1  0  0  0  0
  2 14  2  0  0  0  0
  3 19  1  0  0  0  0
  3  7  1  0  0  0  0
  4 18  2  0  0  0  0
  4 15  1  0  0  0  0
  5 11  1  0  0  0  0
  5 19  1  0  0  0  0
  7  6  1  0  0  0  0
  8 16  1  0  0  0  0
  9 25  1  0  0  0  0
  9 13  2  0  0  0  0
 10 22  2  0  0  0  0
 12  8  2  0  0  0  0
 12 15  1  0  0  0  0
 13 24  1  0  0  0  0
 15  5  2  0  0  0  0
 16  3  2  0  0  0  0
 17 28  1  1  0  0  0
 17 10  1  0  0  0  0
 18 20  1  0  0  0  0
 19  6  1  1  0  0  0
 20 13  1  0  0  0  0
 20 11  2  0  0  0  0
 21 26  1  0  0  0  0
 21 23  2  0  0  0  0
 23  4  1  0  0  0  0
 24 22  1  0  0  0  0
 25 14  1  6  0  0  0
 25 17  1  0  0  0  0
 26  1  2  0  0  0  0
 27  9  1  0  0  0  0
 29 28  1  0  0  0  0
 30 33  1  0  0  0  0
 30 34  1  0  0  0  0
 32 31  1  0  0  0  0
 32 29  1  0  0  0  0
 33 31  1  0  0  0  0
 34 32  1  0  0  0  0
M  END
>  <MODEL>
1

>  <REMARK>
 VINA RESULT:      -9.8      0.000      0.000
  Name = 
  3 active torsions:
  status: ('A' for Active; 'I' for Inactive)
    1  A    between atoms: C_17  and  O_28
    2  A    between atoms: O_28  and  C_29
    3  A    between atoms: C_29  and  N_32
                            x       y       z     vdW  Elec       q    Type
                         _______ _______ _______ _____ _____    ______ ____

>  <TORSDO>
F 3

$$$$
=
 OpenBabel11112417523D

 34 41  0  0  1  0  0  0  0  0999 V2000
  188.0440  176.4760  146.2950 C   0  0  0  0  0  0  0  0  0  0  0  0
  190.1100  175.3510  147.3760 C   0  0  0  0  0  3  0  0  0  0  0  0
  184.6850  178.0240  141.0470 C   0  0  0  0  0  0  0  0  0  0  0  0
  186.2230  177.5210  145.0740 C   0  0  0  0  0  0  0  0  0  0  0  0
  186.4750  177.9060  142.6850 C   0  0  0  0  0  0  0  0  0  0  0  0
  186.5130  177.8650  140.2230 C   0  0  0  0  0  2  0  0  0  0  0  0
  185.2140  177.4600  139.8290 O   0  0  0  0  0  0  0  0  0  0  0  0
  183.3770  178.6180  142.9400 C   0  0  0  0  0  3  0  0  0  0  0  0
  190.1060  175.8330  145.0770 C   0  0  0  0  0  0  0  0  0  0  0  0
  191.2180  173.8200  143.0500 C   0  0  0  0  0  3  0  0  0  0  0  0
  187.7280  177.3690  142.7490 N   0  0  0  0  0  0  0  0  0  0  0  0
  184.3130  178.5950  143.9040 C   0  0  0  0  0  3  0  0  0  0  0  0
  189.6190  176.2850  143.9180 C   0  0  0  0  0  0  0  0  0  0  0  0
  191.4790  174.9750  146.7850 C   0  0  0  0  0  3  0  0  0  0  0  0
  185.6800  177.9950  143.8630 C   0  0  0  0  0  0  0  0  0  0  0  0
  183.5360  178.0620  141.6300 N   0  0  0  0  0  0  0  0  0  0  0  0
  191.3860  173.7980  144.5580 C   0  0  2  0  0  3  0  0  0  0  0  0
  187.5090  176.9570  145.0880 C   0  0  0  0  0  0  0  0  0  0  0  0
  186.0290  178.5330  141.3970 C   0  0  1  0  0  3  0  0  0  0  0  0
  188.2570  176.8810  143.9000 C   0  0  0  0  0  0  0  0  0  0  0  0
  186.0170  177.1290  147.4170 C   0  0  0  0  0  3  0  0  0  0  0  0
  190.7930  174.8260  142.2620 C   0  0  0  0  0  3  0  0  0  0  0  0
  185.5150  177.5890  146.2380 N   0  0  0  0  0  0  0  0  0  0  0  0
  190.4690  176.2310  142.6900 C   0  0  0  0  0  2  0  0  0  0  0  0
  191.4140  175.1640  145.2560 C   0  0  1  0  0  3  0  0  0  0  0  0
  187.2940  176.5620  147.4690 C   0  0  0  0  0  3  0  0  0  0  0  0
  189.3620  175.9120  146.2730 N   0  0  0  0  0  0  0  0  0  0  0  0
  192.5320  173.0660  144.8790 O   0  0  0  0  0  0  0  0  0  0  0  0
  193.3410  173.1330  143.7350 C   0  0  0  0  0  2  0  0  0  0  0  0
  195.0560  175.8650  144.8830 C   0  0  0  0  0  2  0  0  0  0  0  0
  194.8850  173.5760  145.4930 C   0  0  0  0  0  2  0  0  0  0  0  0
  194.6810  173.6310  144.0490 N   0  0  0  0  0  0  0  0  0  0  0  0
  195.5230  174.8760  145.9140 C   0  0  0  0  0  2  0  0  0  0  0  0
  194.7820  175.0340  143.6470 C   0  0  0  0  0  2  0  0  0  0  0  0
  1 26  1  0  0  0  0
  3 19  1  0  0  0  0
  3 16  2  0  0  0  0
  4 18  1  0  0  0  0
  4 23  2  0  0  0  0
  5 11  1  0  0  0  0
  5 15  2  0  0  0  0
  7  6  1  0  0  0  0
  7  3  1  0  0  0  0
  8 12  2  0  0  0  0
  9 25  1  0  0  0  0
  9 27  1  0  0  0  0
 10 17  1  0  0  0  0
 11 20  2  0  0  0  0
 13  9  2  0  0  0  0
 14  2  2  0  0  0  0
 15 12  1  0  0  0  0
 15  4  1  0  0  0  0
 16  8  1  0  0  0  0
 17 28  1  6  0  0  0
 17 25  1  0  0  0  0
 18  1  2  0  0  0  0
 19  6  1  6  0  0  0
 19  5  1  0  0  0  0
 20 13  1  0  0  0  0
 20 18  1  0  0  0  0
 21 26  2  0  0  0  0
 22 24  1  0  0  0  0
 22 10  2  0  0  0  0
 23 21  1  0  0  0  0
 24 13  1  0  0  0  0
 25 14  1  1  0  0  0
 27  1  1  0  0  0  0
 27  2  1  0  0  0  0
 29 32  1  0  0  0  0
 29 28  1  0  0  0  0
 30 33  1  0  0  0  0
 31 33  1  0  0  0  0
 32 31  1  0  0  0  0
 34 32  1  0  0  0  0
 34 30  1  0  0  0  0
M  END
>  <MODEL>
2

>  <REMARK>
 VINA RESULT:      -8.8      2.134      3.973
  Name = 
  3 active torsions:
  status: ('A' for Active; 'I' for Inactive)
    1  A    between atoms: C_17  and  O_28
    2  A    between atoms: O_28  and  C_29
    3  A    between atoms: C_29  and  N_32
                            x       y       z     vdW  Elec       q    Type
                         _______ _______ _______ _____ _____    ______ ____

>  <TORSDO>
F 3

$$$$
=
 OpenBabel11112417523D

 34 41  0  0  1  0  0  0  0  0999 V2000
  189.6600  174.8760  142.0470 C   0  0  0  0  0  0  0  0  0  0  0  0
  187.1480  175.4390  142.3220 C   0  0  0  0  0  3  0  0  0  0  0  0
  195.6190  174.8000  144.4350 C   0  0  0  0  0  0  0  0  0  0  0  0
  192.0570  174.4900  141.9760 C   0  0  0  0  0  0  0  0  0  0  0  0
  193.4770  175.5970  143.6110 C   0  0  0  0  0  0  0  0  0  0  0  0
  194.8570  176.3120  145.5220 C   0  0  0  0  0  2  0  0  0  0  0  0
  195.6990  175.2110  145.8160 O   0  0  0  0  0  0  0  0  0  0  0  0
  195.6580  173.6310  142.3660 C   0  0  0  0  0  3  0  0  0  0  0  0
  188.7280  176.3870  143.7790 C   0  0  0  0  0  0  0  0  0  0  0  0
  188.1630  176.6020  146.7840 C   0  0  0  0  0  3  0  0  0  0  0  0
  192.3710  176.1960  144.1390 N   0  0  0  0  0  0  0  0  0  0  0  0
  194.4950  174.0390  141.8300 C   0  0  0  0  0  3  0  0  0  0  0  0
  189.9400  176.6270  144.2880 C   0  0  0  0  0  0  0  0  0  0  0  0
  186.4300  176.4100  143.2750 C   0  0  0  0  0  3  0  0  0  0  0  0
  193.3450  174.7160  142.5000 C   0  0  0  0  0  0  0  0  0  0  0  0
  196.0290  173.7950  143.7400 N   0  0  0  0  0  0  0  0  0  0  0  0
  187.1720  176.2790  145.6800 C   0  0  2  0  0  3  0  0  0  0  0  0
  190.9450  175.1110  142.5660 C   0  0  0  0  0  0  0  0  0  0  0  0
  194.8270  176.0100  144.1190 C   0  0  1  0  0  3  0  0  0  0  0  0
  191.1190  175.9680  143.6660 C   0  0  0  0  0  0  0  0  0  0  0  0
  190.6300  173.4250  140.3890 C   0  0  0  0  0  3  0  0  0  0  0  0
  189.4050  177.1110  146.6820 C   0  0  0  0  0  3  0  0  0  0  0  0
  191.8670  173.6650  140.9060 N   0  0  0  0  0  0  0  0  0  0  0  0
  190.0850  177.5850  145.4270 C   0  0  0  0  0  2  0  0  0  0  0  0
  187.4530  176.9140  144.3120 C   0  0  1  0  0  3  0  0  0  0  0  0
  189.5000  174.0280  140.9500 C   0  0  0  0  0  3  0  0  0  0  0  0
  188.5490  175.5320  142.6700 N   0  0  0  0  0  0  0  0  0  0  0  0
  185.8840  176.6070  146.1120 O   0  0  0  0  0  0  0  0  0  0  0  0
  186.0410  177.7730  146.8760 C   0  0  0  0  0  2  0  0  0  0  0  0
  185.2730  179.7950  144.2210 C   0  0  0  0  0  2  0  0  0  0  0  0
  184.0940  178.2540  145.5920 C   0  0  0  0  0  2  0  0  0  0  0  0
  185.1380  178.8350  146.4320 N   0  0  0  0  0  0  0  0  0  0  0  0
  183.9260  179.1490  144.3890 C   0  0  0  0  0  2  0  0  0  0  0  0
  185.8790  179.7900  145.6090 C   0  0  0  0  0  2  0  0  0  0  0  0
  1 18  1  0  0  0  0
  1 27  1  0  0  0  0
  2 27  1  0  0  0  0
  2 14  2  0  0  0  0
  3  7  1  0  0  0  0
  4 15  2  0  0  0  0
  4 18  1  0  0  0  0
  5 19  1  0  0  0  0
  5 11  2  0  0  0  0
  6  7  1  0  0  0  0
  8 16  1  0  0  0  0
  9 13  2  0  0  0  0
  9 25  1  0  0  0  0
 12  8  2  0  0  0  0
 12 15  1  0  0  0  0
 13 24  1  0  0  0  0
 15  5  1  0  0  0  0
 16  3  2  0  0  0  0
 17 28  1  1  0  0  0
 17 10  1  0  0  0  0
 18 20  2  0  0  0  0
 19  3  1  0  0  0  0
 19  6  1  1  0  0  0
 20 11  1  0  0  0  0
 20 13  1  0  0  0  0
 21 23  2  0  0  0  0
 21 26  1  0  0  0  0
 22 10  2  0  0  0  0
 23  4  1  0  0  0  0
 24 22  1  0  0  0  0
 25 14  1  6  0  0  0
 25 17  1  0  0  0  0
 26  1  2  0  0  0  0
 27  9  1  0  0  0  0
 28 29  1  0  0  0  0
 30 33  1  0  0  0  0
 30 34  1  0  0  0  0
 31 32  1  0  0  0  0
 32 29  1  0  0  0  0
 33 31  1  0  0  0  0
 34 32  1  0  0  0  0
M  END
>  <MODEL>
3

>  <REMARK>
 VINA RESULT:      -8.7      1.865      8.091
  Name = 
  3 active torsions:
  status: ('A' for Active; 'I' for Inactive)
    1  A    between atoms: C_17  and  O_28
    2  A    between atoms: O_28  and  C_29
    3  A    between atoms: C_29  and  N_32
                            x       y       z     vdW  Elec       q    Type
                         _______ _______ _______ _____ _____    ______ ____

>  <TORSDO>
F 3

$$$$
=
 OpenBabel11112417523D

 34 41  0  0  1  0  0  0  0  0999 V2000
  192.7040  176.1980  145.0580 C   0  0  0  0  0  0  0  0  0  0  0  0
  190.7600  177.8540  144.6370 C   0  0  0  0  0  3  0  0  0  0  0  0
  195.2460  170.3420  144.3760 C   0  0  0  0  0  0  0  0  0  0  0  0
  194.3780  174.4690  145.3960 C   0  0  0  0  0  0  0  0  0  0  0  0
  193.7580  172.1450  145.0360 C   0  0  0  0  0  0  0  0  0  0  0  0
  193.2970  169.8650  144.2240 C   0  0  0  0  0  2  0  0  0  0  0  0
  194.4680  169.4630  143.5360 O   0  0  0  0  0  0  0  0  0  0  0  0
  196.9050  171.7370  145.3480 C   0  0  0  0  0  3  0  0  0  0  0  0
  190.4150  175.5470  144.3610 C   0  0  0  0  0  0  0  0  0  0  0  0
  188.7980  174.4750  141.9880 C   0  0  0  0  0  3  0  0  0  0  0  0
  192.4910  172.5490  144.7300 N   0  0  0  0  0  0  0  0  0  0  0  0
  196.1490  172.7680  145.7630 C   0  0  0  0  0  3  0  0  0  0  0  0
  190.7370  174.2500  144.3500 C   0  0  0  0  0  0  0  0  0  0  0  0
  189.2820  177.6080  144.2900 C   0  0  0  0  0  3  0  0  0  0  0  0
  194.7470  173.1090  145.3810 C   0  0  0  0  0  0  0  0  0  0  0  0
  196.4760  170.7210  144.4340 N   0  0  0  0  0  0  0  0  0  0  0  0
  188.8880  175.9120  142.4690 C   0  0  2  0  0  3  0  0  0  0  0  0
  193.0680  174.8410  145.0520 C   0  0  0  0  0  0  0  0  0  0  0  0
  194.0320  170.6740  145.1540 C   0  0  1  0  0  3  0  0  0  0  0  0
  192.1240  173.8550  144.7110 C   0  0  0  0  0  0  0  0  0  0  0  0
  194.9440  176.7600  145.7400 C   0  0  0  0  0  3  0  0  0  0  0  0
  189.1710  173.3470  142.6230 C   0  0  0  0  0  3  0  0  0  0  0  0
  195.2770  175.4400  145.7280 N   0  0  0  0  0  0  0  0  0  0  0  0
  189.6890  173.2340  144.0300 C   0  0  0  0  0  2  0  0  0  0  0  0
  189.1030  176.1100  143.9740 C   0  0  1  0  0  3  0  0  0  0  0  0
  193.6480  177.1660  145.4050 C   0  0  0  0  0  3  0  0  0  0  0  0
  191.3570  176.5390  144.7090 N   0  0  0  0  0  0  0  0  0  0  0  0
  187.7520  176.6070  142.0450 O   0  0  0  0  0  0  0  0  0  0  0  0
  186.6880  176.0400  142.7630 C   0  0  0  0  0  2  0  0  0  0  0  0
  185.9050  178.6590  144.8250 C   0  0  0  0  0  2  0  0  0  0  0  0
  186.0320  178.3120  142.4790 C   0  0  0  0  0  2  0  0  0  0  0  0
  185.6520  177.0290  143.0630 N   0  0  0  0  0  0  0  0  0  0  0  0
  185.7710  179.3790  143.5130 C   0  0  0  0  0  2  0  0  0  0  0  0
  185.5660  177.2170  144.5110 C   0  0  0  0  0  2  0  0  0  0  0  0
  1 26  1  0  0  0  0
  2 27  1  0  0  0  0
  3 16  2  0  0  0  0
  3 19  1  0  0  0  0
  4 23  2  0  0  0  0
  5 19  1  0  0  0  0
  5 15  2  0  0  0  0
  7  6  1  0  0  0  0
  7  3  1  0  0  0  0
  8 12  2  0  0  0  0
  9 27  1  0  0  0  0
 10 17  1  0  0  0  0
 10 22  2  0  0  0  0
 11  5  1  0  0  0  0
 13  9  2  0  0  0  0
 13 20  1  0  0  0  0
 14  2  2  0  0  0  0
 15  4  1  0  0  0  0
 15 12  1  0  0  0  0
 16  8  1  0  0  0  0
 17 28  1  1  0  0  0
 17 25  1  0  0  0  0
 18  1  2  0  0  0  0
 18  4  1  0  0  0  0
 19  6  1  6  0  0  0
 20 11  2  0  0  0  0
 20 18  1  0  0  0  0
 22 24  1  0  0  0  0
 23 21  1  0  0  0  0
 24 13  1  0  0  0  0
 25 14  1  6  0  0  0
 25  9  1  0  0  0  0
 26 21  2  0  0  0  0
 27  1  1  0  0  0  0
 28 29  1  0  0  0  0
 29 32  1  0  0  0  0
 31 32  1  0  0  0  0
 31 33  1  0  0  0  0
 32 34  1  0  0  0  0
 33 30  1  0  0  0  0
 34 30  1  0  0  0  0
M  END
>  <MODEL>
4

>  <REMARK>
 VINA RESULT:      -8.4      2.601      8.896
  Name = 
  3 active torsions:
  status: ('A' for Active; 'I' for Inactive)
    1  A    between atoms: C_17  and  O_28
    2  A    between atoms: O_28  and  C_29
    3  A    between atoms: C_29  and  N_32
                            x       y       z     vdW  Elec       q    Type
                         _______ _______ _______ _____ _____    ______ ____

>  <TORSDO>
F 3

$$$$
=
 OpenBabel11112417523D

 34 41  0  0  1  0  0  0  0  0999 V2000
  192.4030  176.1730  145.6760 C   0  0  0  0  0  0  0  0  0  0  0  0
  190.1600  176.3170  146.9590 C   0  0  0  0  0  3  0  0  0  0  0  0
  195.5980  175.3650  140.1660 C   0  0  0  0  0  0  0  0  0  0  0  0
  194.3870  175.9390  144.2930 C   0  0  0  0  0  0  0  0  0  0  0  0
  194.1720  174.9390  142.0860 C   0  0  0  0  0  0  0  0  0  0  0  0
  193.9040  174.3840  139.7020 C   0  0  0  0  0  2  0  0  0  0  0  0
  194.7460  175.2850  139.0040 O   0  0  0  0  0  0  0  0  0  0  0  0
  197.1800  175.9670  141.8340 C   0  0  0  0  0  3  0  0  0  0  0  0
  190.2190  175.3870  144.8030 C   0  0  0  0  0  0  0  0  0  0  0  0
  188.0340  176.0310  142.7530 C   0  0  0  0  0  3  0  0  0  0  0  0
  192.8370  174.7690  142.3130 N   0  0  0  0  0  0  0  0  0  0  0  0
  196.4640  175.7380  142.9470 C   0  0  0  0  0  3  0  0  0  0  0  0
  190.7700  174.9880  143.6530 C   0  0  0  0  0  0  0  0  0  0  0  0
  188.7560  175.8030  146.5970 C   0  0  0  0  0  3  0  0  0  0  0  0
  194.9920  175.5380  143.0850 C   0  0  0  0  0  0  0  0  0  0  0  0
  196.6360  176.0470  140.5110 N   0  0  0  0  0  0  0  0  0  0  0  0
  188.0120  176.3140  144.2450 C   0  0  2  0  0  3  0  0  0  0  0  0
  193.0050  175.7640  144.4740 C   0  0  0  0  0  0  0  0  0  0  0  0
  194.7700  174.3440  140.8450 C   0  0  1  0  0  3  0  0  0  0  0  0
  192.2320  175.1750  143.4580 C   0  0  0  0  0  0  0  0  0  0  0  0
  194.5550  176.9120  146.4650 C   0  0  0  0  0  3  0  0  0  0  0  0
  188.8600  175.2270  142.0580 C   0  0  0  0  0  3  0  0  0  0  0  0
  195.1200  176.5090  145.2930 N   0  0  0  0  0  0  0  0  0  0  0  0
  189.9190  174.3200  142.6210 C   0  0  0  0  0  2  0  0  0  0  0  0
  188.7780  175.3250  145.1320 C   0  0  1  0  0  3  0  0  0  0  0  0
  193.1820  176.7510  146.6790 C   0  0  0  0  0  3  0  0  0  0  0  0
  190.9920  175.9720  145.8280 N   0  0  0  0  0  0  0  0  0  0  0  0
  186.6850  176.4200  144.6700 O   0  0  0  0  0  0  0  0  0  0  0  0
  185.9550  176.7350  143.5130 C   0  0  0  0  0  2  0  0  0  0  0  0
  185.3620  179.4160  145.5600 C   0  0  0  0  0  2  0  0  0  0  0  0
  185.6770  179.0840  143.2290 C   0  0  0  0  0  2  0  0  0  0  0  0
  185.0520  177.8650  143.7360 N   0  0  0  0  0  0  0  0  0  0  0  0
  185.4720  180.1650  144.2620 C   0  0  0  0  0  2  0  0  0  0  0  0
  184.8470  178.0450  145.1730 C   0  0  0  0  0  2  0  0  0  0  0  0
  1 27  1  0  0  0  0
  1 26  1  0  0  0  0
  3 16  2  0  0  0  0
  3 19  1  0  0  0  0
  4 18  1  0  0  0  0
  4 23  2  0  0  0  0
  5 11  1  0  0  0  0
  5 15  2  0  0  0  0
  7  6  1  0  0  0  0
  7  3  1  0  0  0  0
  8 12  2  0  0  0  0
  9 25  1  0  0  0  0
  9 27  1  0  0  0  0
 10 17  1  0  0  0  0
 11 20  2  0  0  0  0
 12 15  1  0  0  0  0
 13  9  2  0  0  0  0
 14  2  2  0  0  0  0
 15  4  1  0  0  0  0
 16  8  1  0  0  0  0
 17 28  1  1  0  0  0
 17 25  1  0  0  0  0
 18  1  2  0  0  0  0
 19  6  1  6  0  0  0
 19  5  1  0  0  0  0
 20 13  1  0  0  0  0
 20 18  1  0  0  0  0
 21 26  2  0  0  0  0
 22 24  1  0  0  0  0
 22 10  2  0  0  0  0
 23 21  1  0  0  0  0
 24 13  1  0  0  0  0
 25 14  1  1  0  0  0
 27  2  1  0  0  0  0
 29 32  1  0  0  0  0
 29 28  1  0  0  0  0
 31 32  1  0  0  0  0
 31 33  1  0  0  0  0
 32 34  1  0  0  0  0
 33 30  1  0  0  0  0
 34 30  1  0  0  0  0
M  END
>  <MODEL>
5

>  <REMARK>
 VINA RESULT:      -8.3      2.354      8.871
  Name = 
  3 active torsions:
  status: ('A' for Active; 'I' for Inactive)
    1  A    between atoms: C_17  and  O_28
    2  A    between atoms: O_28  and  C_29
    3  A    between atoms: C_29  and  N_32
                            x       y       z     vdW  Elec       q    Type
                         _______ _______ _______ _____ _____    ______ ____

>  <TORSDO>
F 3

$$$$
=
 OpenBabel11112417523D

 34 41  0  0  1  0  0  0  0  0999 V2000
  189.4530  174.7260  145.1760 C   0  0  0  0  0  0  0  0  0  0  0  0
  191.1610  172.9070  144.4880 C   0  0  0  0  0  3  0  0  0  0  0  0
  184.5110  178.5410  143.6790 C   0  0  0  0  0  0  0  0  0  0  0  0
  187.8080  176.4660  145.5890 C   0  0  0  0  0  0  0  0  0  0  0  0
  186.7200  177.5320  143.6930 C   0  0  0  0  0  0  0  0  0  0  0  0
  185.2780  178.2730  141.8390 C   0  0  0  0  0  2  0  0  0  0  0  0
  183.9630  178.2980  142.3670 O   0  0  0  0  0  0  0  0  0  0  0  0
  184.9090  178.7600  146.0120 C   0  0  0  0  0  3  0  0  0  0  0  0
  189.9770  174.0870  142.8380 C   0  0  0  0  0  0  0  0  0  0  0  0
  188.8370  172.6420  140.3870 C   0  0  0  0  0  3  0  0  0  0  0  0
  187.4600  176.7510  142.8530 N   0  0  0  0  0  0  0  0  0  0  0  0
  186.1410  178.2340  146.1030 C   0  0  0  0  0  3  0  0  0  0  0  0
  189.1090  174.9780  142.3500 C   0  0  0  0  0  0  0  0  0  0  0  0
  191.6560  172.4600  143.1020 C   0  0  0  0  0  3  0  0  0  0  0  0
  186.8780  177.4050  145.1030 C   0  0  0  0  0  0  0  0  0  0  0  0
  184.0440  178.6320  144.8770 N   0  0  0  0  0  0  0  0  0  0  0  0
  189.8410  172.1040  141.3910 C   0  0  2  0  0  3  0  0  0  0  0  0
  188.5320  175.6690  144.6880 C   0  0  0  0  0  0  0  0  0  0  0  0
  185.8700  178.6170  143.1000 C   0  0  1  0  0  3  0  0  0  0  0  0
  188.3400  175.8210  143.3030 C   0  0  0  0  0  0  0  0  0  0  0  0
  188.9000  175.3970  147.4210 C   0  0  0  0  0  3  0  0  0  0  0  0
  188.4370  173.9120  140.1910 C   0  0  0  0  0  3  0  0  0  0  0  0
  188.0130  176.3060  146.9290 N   0  0  0  0  0  0  0  0  0  0  0  0
  188.9740  175.1420  140.8710 C   0  0  0  0  0  2  0  0  0  0  0  0
  190.7760  173.1360  142.0330 C   0  0  1  0  0  3  0  0  0  0  0  0
  189.6390  174.5890  146.5520 C   0  0  0  0  0  3  0  0  0  0  0  0
  190.1790  173.9350  144.2260 N   0  0  0  0  0  0  0  0  0  0  0  0
  190.5840  171.0830  140.7910 O   0  0  0  0  0  0  0  0  0  0  0  0
  191.3430  171.7200  139.7980 C   0  0  0  0  0  2  0  0  0  0  0  0
  189.6390  169.6300  137.6870 C   0  0  0  0  0  2  0  0  0  0  0  0
  190.9560  171.5930  137.4510 C   0  0  0  0  0  2  0  0  0  0  0  0
  191.4870  170.8790  138.6080 N   0  0  0  0  0  0  0  0  0  0  0  0
  190.1160  170.6200  136.6610 C   0  0  0  0  0  2  0  0  0  0  0  0
  190.6920  169.6630  138.7740 C   0  0  0  0  0  2  0  0  0  0  0  0
  1 26  1  0  0  0  0
  3 16  2  0  0  0  0
  4 23  2  0  0  0  0
  5 15  2  0  0  0  0
  6  7  1  0  0  0  0
  7  3  1  0  0  0  0
  8 12  2  0  0  0  0
  9 27  1  0  0  0  0
 10 17  1  0  0  0  0
 11 20  2  0  0  0  0
 11  5  1  0  0  0  0
 13  9  2  0  0  0  0
 13 20  1  0  0  0  0
 14  2  2  0  0  0  0
 15  4  1  0  0  0  0
 15 12  1  0  0  0  0
 16  8  1  0  0  0  0
 17 28  1  6  0  0  0
 17 25  1  0  0  0  0
 18  1  2  0  0  0  0
 18  4  1  0  0  0  0
 19  6  1  6  0  0  0
 19  3  1  0  0  0  0
 19  5  1  0  0  0  0
 20 18  1  0  0  0  0
 22 10  2  0  0  0  0
 22 24  1  0  0  0  0
 23 21  1  0  0  0  0
 24 13  1  0  0  0  0
 25  9  1  0  0  0  0
 25 14  1  1  0  0  0
 26 21  2  0  0  0  0
 27  2  1  0  0  0  0
 27  1  1  0  0  0  0
 29 28  1  0  0  0  0
 30 34  1  0  0  0  0
 31 32  1  0  0  0  0
 32 34  1  0  0  0  0
 32 29  1  0  0  0  0
 33 31  1  0  0  0  0
 33 30  1  0  0  0  0
M  END
>  <MODEL>
6

>  <REMARK>
 VINA RESULT:      -8.3      3.192      5.694
  Name = 
  3 active torsions:
  status: ('A' for Active; 'I' for Inactive)
    1  A    between atoms: C_17  and  O_28
    2  A    between atoms: O_28  and  C_29
    3  A    between atoms: C_29  and  N_32
                            x       y       z     vdW  Elec       q    Type
                         _______ _______ _______ _____ _____    ______ ____

>  <TORSDO>
F 3

$$$$
=
 OpenBabel11112417523D

 34 41  0  0  1  0  0  0  0  0999 V2000
  188.1920  176.4630  146.4840 C   0  0  0  0  0  0  0  0  0  0  0  0
  190.2510  175.3160  147.5540 C   0  0  0  0  0  3  0  0  0  0  0  0
  184.8440  178.0880  141.2530 C   0  0  0  0  0  0  0  0  0  0  0  0
  186.3770  177.5320  145.2740 C   0  0  0  0  0  0  0  0  0  0  0  0
  186.6330  177.9420  142.8900 C   0  0  0  0  0  0  0  0  0  0  0  0
  186.6720  177.9290  140.4270 C   0  0  0  0  0  2  0  0  0  0  0  0
  185.3710  177.5350  140.0280 O   0  0  0  0  0  0  0  0  0  0  0  0
  183.5380  178.6680  143.1520 C   0  0  0  0  0  3  0  0  0  0  0  0
  190.2520  175.8230  145.2610 C   0  0  0  0  0  0  0  0  0  0  0  0
  191.3540  173.8280  143.2110 C   0  0  0  0  0  3  0  0  0  0  0  0
  187.8830  177.3980  142.9490 N   0  0  0  0  0  0  0  0  0  0  0  0
  184.4740  178.6280  144.1150 C   0  0  0  0  0  3  0  0  0  0  0  0
  189.7670  176.2910  144.1060 C   0  0  0  0  0  0  0  0  0  0  0  0
  191.6190  174.9390  146.9590 C   0  0  0  0  0  3  0  0  0  0  0  0
  185.8370  178.0230  144.0690 C   0  0  0  0  0  0  0  0  0  0  0  0
  183.6950  178.1260  141.8350 N   0  0  0  0  0  0  0  0  0  0  0  0
  191.5210  173.7880  144.7200 C   0  0  2  0  0  3  0  0  0  0  0  0
  187.6600  176.9610  145.2830 C   0  0  0  0  0  0  0  0  0  0  0  0
  186.1910  178.5860  141.6090 C   0  0  1  0  0  3  0  0  0  0  0  0
  188.4080  176.8950  144.0950 C   0  0  0  0  0  0  0  0  0  0  0  0
  186.1680  177.1140  147.6130 C   0  0  0  0  0  3  0  0  0  0  0  0
  190.9350  174.8440  142.4350 C   0  0  0  0  0  3  0  0  0  0  0  0
  185.6690  177.5910  146.4390 N   0  0  0  0  0  0  0  0  0  0  0  0
  190.6180  176.2460  142.8780 C   0  0  0  0  0  2  0  0  0  0  0  0
  191.5560  175.1450  145.4330 C   0  0  1  0  0  3  0  0  0  0  0  0
  187.4420  176.5400  147.6590 C   0  0  0  0  0  3  0  0  0  0  0  0
  189.5070  175.8930  146.4570 N   0  0  0  0  0  0  0  0  0  0  0  0
  192.6630  173.0460  145.0330 O   0  0  0  0  0  0  0  0  0  0  0  0
  192.5750  171.8900  144.2420 C   0  0  0  0  0  2  0  0  0  0  0  0
  194.7090  169.9950  146.1340 C   0  0  0  0  0  2  0  0  0  0  0  0
  193.5740  169.7350  144.0640 C   0  0  0  0  0  2  0  0  0  0  0  0
  193.8450  171.1630  144.2070 N   0  0  0  0  0  0  0  0  0  0  0  0
  194.4700  169.0020  145.0320 C   0  0  0  0  0  2  0  0  0  0  0  0
  194.5460  171.3490  145.4770 C   0  0  0  0  0  2  0  0  0  0  0  0
  1 26  1  0  0  0  0
  3 19  1  0  0  0  0
  3 16  2  0  0  0  0
  4 18  1  0  0  0  0
  4 23  2  0  0  0  0
  5 11  1  0  0  0  0
  5 15  2  0  0  0  0
  7  6  1  0  0  0  0
  7  3  1  0  0  0  0
  8 12  2  0  0  0  0
  9 25  1  0  0  0  0
  9 27  1  0  0  0  0
 10 17  1  0  0  0  0
 11 20  2  0  0  0  0
 13  9  2  0  0  0  0
 14  2  2  0  0  0  0
 15 12  1  0  0  0  0
 15  4  1  0  0  0  0
 16  8  1  0  0  0  0
 17 28  1  6  0  0  0
 17 25  1  0  0  0  0
 18  1  2  0  0  0  0
 19  6  1  6  0  0  0
 19  5  1  0  0  0  0
 20 13  1  0  0  0  0
 20 18  1  0  0  0  0
 21 26  2  0  0  0  0
 22 24  1  0  0  0  0
 22 10  2  0  0  0  0
 23 21  1  0  0  0  0
 24 13  1  0  0  0  0
 25 14  1  1  0  0  0
 27  1  1  0  0  0  0
 27  2  1  0  0  0  0
 29 28  1  0  0  0  0
 31 32  1  0  0  0  0
 31 33  1  0  0  0  0
 32 29  1  0  0  0  0
 32 34  1  0  0  0  0
 33 30  1  0  0  0  0
 34 30  1  0  0  0  0
M  END
>  <MODEL>
7

>  <REMARK>
 VINA RESULT:      -8.2      2.816      4.529
  Name = 
  3 active torsions:
  status: ('A' for Active; 'I' for Inactive)
    1  A    between atoms: C_17  and  O_28
    2  A    between atoms: O_28  and  C_29
    3  A    between atoms: C_29  and  N_32
                            x       y       z     vdW  Elec       q    Type
                         _______ _______ _______ _____ _____    ______ ____

>  <TORSDO>
F 3

$$$$
=
 OpenBabel11112417523D

 34 41  0  0  1  0  0  0  0  0999 V2000
  190.3730  174.0850  141.4270 C   0  0  0  0  0  0  0  0  0  0  0  0
  188.0740  175.1850  140.9690 C   0  0  0  0  0  3  0  0  0  0  0  0
  195.7370  173.7010  144.9330 C   0  0  0  0  0  0  0  0  0  0  0  0
  192.5790  173.2410  141.9930 C   0  0  0  0  0  0  0  0  0  0  0  0
  194.0010  174.5550  143.4650 C   0  0  0  0  0  0  0  0  0  0  0  0
  195.2470  175.6160  145.3060 C   0  0  0  0  0  2  0  0  0  0  0  0
  195.7320  174.5480  146.1010 O   0  0  0  0  0  0  0  0  0  0  0  0
  195.7540  171.8920  143.3910 C   0  0  0  0  0  3  0  0  0  0  0  0
  189.6330  176.2600  142.3600 C   0  0  0  0  0  0  0  0  0  0  0  0
  188.7410  177.6270  144.9550 C   0  0  0  0  0  3  0  0  0  0  0  0
  193.0230  175.5050  143.5310 N   0  0  0  0  0  0  0  0  0  0  0  0
  194.8180  172.3030  142.5190 C   0  0  0  0  0  3  0  0  0  0  0  0
  190.7860  176.4240  143.0160 C   0  0  0  0  0  0  0  0  0  0  0  0
  187.5060  176.5490  141.3960 C   0  0  0  0  0  3  0  0  0  0  0  0
  193.7990  173.3820  142.6830 C   0  0  0  0  0  0  0  0  0  0  0  0
  195.9670  172.4560  144.6900 N   0  0  0  0  0  0  0  0  0  0  0  0
  187.8590  177.1350  143.8210 C   0  0  2  0  0  3  0  0  0  0  0  0
  191.5920  174.2330  142.1080 C   0  0  0  0  0  0  0  0  0  0  0  0
  195.3300  174.8500  144.0950 C   0  0  1  0  0  3  0  0  0  0  0  0
  191.8300  175.3720  142.8970 C   0  0  0  0  0  0  0  0  0  0  0  0
  191.1550  171.9830  140.5510 C   0  0  0  0  0  3  0  0  0  0  0  0
  190.0740  177.8160  144.9660 C   0  0  0  0  0  3  0  0  0  0  0  0
  192.3300  172.1450  141.2180 N   0  0  0  0  0  0  0  0  0  0  0  0
  191.0150  177.6740  143.8020 C   0  0  0  0  0  2  0  0  0  0  0  0
  188.4740  177.1790  142.4170 C   0  0  1  0  0  3  0  0  0  0  0  0
  190.1510  172.9530  140.6410 C   0  0  0  0  0  3  0  0  0  0  0  0
  189.3920  175.1220  141.5620 N   0  0  0  0  0  0  0  0  0  0  0  0
  186.6510  177.8370  143.8450 O   0  0  0  0  0  0  0  0  0  0  0  0
  185.7170  176.9380  144.3800 C   0  0  0  0  0  2  0  0  0  0  0  0
  186.1760  177.9270  147.6260 C   0  0  0  0  0  2  0  0  0  0  0  0
  185.3410  178.9250  145.6390 C   0  0  0  0  0  2  0  0  0  0  0  0
  185.0320  177.5010  145.5440 N   0  0  0  0  0  0  0  0  0  0  0  0
  185.6560  179.2280  147.0830 C   0  0  0  0  0  2  0  0  0  0  0  0
  185.5360  176.8630  146.7590 C   0  0  0  0  0  2  0  0  0  0  0  0
  1 27  1  0  0  0  0
  1 18  1  0  0  0  0
  2 14  2  0  0  0  0
  2 27  1  0  0  0  0
  3  7  1  0  0  0  0
  4 18  2  0  0  0  0
  4 15  1  0  0  0  0
  5 11  1  0  0  0  0
  5 19  1  0  0  0  0
  6  7  1  0  0  0  0
  8 16  1  0  0  0  0
  9 25  1  0  0  0  0
  9 13  2  0  0  0  0
 10 22  2  0  0  0  0
 12 15  1  0  0  0  0
 12  8  2  0  0  0  0
 13 24  1  0  0  0  0
 15  5  2  0  0  0  0
 16  3  2  0  0  0  0
 17 28  1  6  0  0  0
 17 10  1  0  0  0  0
 18 20  1  0  0  0  0
 19  3  1  0  0  0  0
 19  6  1  1  0  0  0
 20 13  1  0  0  0  0
 20 11  2  0  0  0  0
 21 26  1  0  0  0  0
 21 23  2  0  0  0  0
 23  4  1  0  0  0  0
 24 22  1  0  0  0  0
 25 14  1  6  0  0  0
 25 17  1  0  0  0  0
 26  1  2  0  0  0  0
 27  9  1  0  0  0  0
 28 29  1  0  0  0  0
 29 32  1  0  0  0  0
 31 33  1  0  0  0  0
 32 31  1  0  0  0  0
 32 34  1  0  0  0  0
 33 30  1  0  0  0  0
 34 30  1  0  0  0  0
M  END
>  <MODEL>
8

>  <REMARK>
 VINA RESULT:      -8.1      2.163      8.338
  Name = 
  3 active torsions:
  status: ('A' for Active; 'I' for Inactive)
    1  A    between atoms: C_17  and  O_28
    2  A    between atoms: O_28  and  C_29
    3  A    between atoms: C_29  and  N_32
                            x       y       z     vdW  Elec       q    Type
                         _______ _______ _______ _____ _____    ______ ____

>  <TORSDO>
F 3

$$$$
=
 OpenBabel11112417523D

 34 41  0  0  1  0  0  0  0  0999 V2000
  186.6540  177.9710  145.9550 C   0  0  0  0  0  0  0  0  0  0  0  0
  188.8170  177.4150  147.2630 C   0  0  0  0  0  3  0  0  0  0  0  0
  183.3260  177.9280  140.4650 C   0  0  0  0  0  0  0  0  0  0  0  0
  184.7490  178.4630  144.5290 C   0  0  0  0  0  0  0  0  0  0  0  0
  185.0420  178.4110  142.1150 C   0  0  0  0  0  0  0  0  0  0  0  0
  185.1910  177.8990  139.7100 C   0  0  0  0  0  2  0  0  0  0  0  0
  183.9860  177.2270  139.3890 O   0  0  0  0  0  0  0  0  0  0  0  0
  181.8640  178.6670  142.1860 C   0  0  0  0  0  3  0  0  0  0  0  0
  188.8390  177.4340  144.9140 C   0  0  0  0  0  0  0  0  0  0  0  0
  190.3260  175.2650  143.3400 C   0  0  0  0  0  3  0  0  0  0  0  0
  186.3580  178.0990  142.2990 N   0  0  0  0  0  0  0  0  0  0  0  0
  182.7510  178.9770  143.1470 C   0  0  0  0  0  3  0  0  0  0  0  0
  188.3390  177.5710  143.6820 C   0  0  0  0  0  0  0  0  0  0  0  0
  190.2510  177.1490  146.7740 C   0  0  0  0  0  3  0  0  0  0  0  0
  184.1930  178.6020  143.2420 C   0  0  0  0  0  0  0  0  0  0  0  0
  182.1610  177.8990  141.0140 N   0  0  0  0  0  0  0  0  0  0  0  0
  190.4320  175.5620  144.8250 C   0  0  2  0  0  3  0  0  0  0  0  0
  186.1040  178.1190  144.6710 C   0  0  0  0  0  0  0  0  0  0  0  0
  184.5630  178.6990  140.7220 C   0  0  1  0  0  3  0  0  0  0  0  0
  186.9040  177.9320  143.5300 C   0  0  0  0  0  0  0  0  0  0  0  0
  184.5050  178.5050  146.9010 C   0  0  0  0  0  3  0  0  0  0  0  0
  189.7890  176.0190  142.3630 C   0  0  0  0  0  3  0  0  0  0  0  0
  183.9910  178.6440  145.6480 N   0  0  0  0  0  0  0  0  0  0  0  0
  189.2390  177.4120  142.5000 C   0  0  0  0  0  2  0  0  0  0  0  0
  190.2240  177.0250  145.2380 C   0  0  1  0  0  3  0  0  0  0  0  0
  185.8500  178.1660  147.0790 C   0  0  0  0  0  3  0  0  0  0  0  0
  188.0410  177.6270  146.0610 N   0  0  0  0  0  0  0  0  0  0  0  0
  191.6600  175.0940  145.2980 O   0  0  0  0  0  0  0  0  0  0  0  0
  191.5390  173.6960  145.3060 C   0  0  0  0  0  2  0  0  0  0  0  0
  194.1980  171.5580  145.6020 C   0  0  0  0  0  2  0  0  0  0  0  0
  192.2450  171.6790  144.2550 C   0  0  0  0  0  2  0  0  0  0  0  0
  192.6210  173.0570  144.5560 N   0  0  0  0  0  0  0  0  0  0  0  0
  193.4420  170.8060  144.5430 C   0  0  0  0  0  2  0  0  0  0  0  0
  193.8240  173.0100  145.3860 C   0  0  0  0  0  2  0  0  0  0  0  0
  1 27  1  0  0  0  0
  1 26  1  0  0  0  0
  3 19  1  0  0  0  0
  3 16  2  0  0  0  0
  4 18  1  0  0  0  0
  4 23  2  0  0  0  0
  5 11  1  0  0  0  0
  5 15  2  0  0  0  0
  7  6  1  0  0  0  0
  7  3  1  0  0  0  0
  8 12  2  0  0  0  0
  9 25  1  0  0  0  0
  9 27  1  0  0  0  0
 10 17  1  0  0  0  0
 11 20  2  0  0  0  0
 12 15  1  0  0  0  0
 13  9  2  0  0  0  0
 14  2  2  0  0  0  0
 15  4  1  0  0  0  0
 16  8  1  0  0  0  0
 17 25  1  0  0  0  0
 17 28  1  6  0  0  0
 18  1  2  0  0  0  0
 19  6  1  6  0  0  0
 19  5  1  0  0  0  0
 20 13  1  0  0  0  0
 20 18  1  0  0  0  0
 21 26  2  0  0  0  0
 22 24  1  0  0  0  0
 22 10  2  0  0  0  0
 23 21  1  0  0  0  0
 24 13  1  0  0  0  0
 25 14  1  1  0  0  0
 27  2  1  0  0  0  0
 28 29  1  0  0  0  0
 31 33  1  0  0  0  0
 31 32  1  0  0  0  0
 32 29  1  0  0  0  0
 32 34  1  0  0  0  0
 33 30  1  0  0  0  0
 34 30  1  0  0  0  0
M  END
>  <MODEL>
9

>  <REMARK>
 VINA RESULT:      -8.0      2.669      5.027
  Name = 
  3 active torsions:
  status: ('A' for Active; 'I' for Inactive)
    1  A    between atoms: C_17  and  O_28
    2  A    between atoms: O_28  and  C_29
    3  A    between atoms: C_29  and  N_32
                            x       y       z     vdW  Elec       q    Type
                         _______ _______ _______ _____ _____    ______ ____

>  <TORSDO>
F 3

$$$$
