=
 OpenBabel11112416543D

 31 35  0  0  1  0  0  0  0  0999 V2000
  184.9660  178.0990  146.8700 C   0  0  0  0  0  0  0  0  0  0  0  0
  186.8470  177.6490  143.6190 N   0  0  0  0  0  0  0  0  0  0  0  0
  185.8850  177.8260  142.5450 C   0  0  0  0  0  0  0  0  0  0  0  0
  191.5250  176.7490  146.0820 O   0  0  0  0  0  0  0  0  0  0  0  0
  191.6870  176.6730  144.8350 C   0  0  0  0  0  0  0  0  0  0  0  0
  183.6420  178.2740  141.7060 C   0  0  0  0  0  0  0  0  0  0  0  0
  186.5320  177.7410  145.0350 C   0  0  0  0  0  0  0  0  0  0  0  0
  185.9900  177.9050  147.7960 C   0  0  0  0  0  3  0  0  0  0  0  0
  184.5290  178.1110  142.7730 C   0  0  0  0  0  3  0  0  0  0  0  0
  189.2340  177.1680  144.3090 C   0  0  0  0  0  0  0  0  0  0  0  0
  183.7090  178.3680  147.2970 F   0  0  0  0  0  0  0  0  0  0  0  0
  187.6710  177.4270  140.9710 O   0  0  0  0  0  0  0  0  0  0  0  0
  182.3370  178.5480  141.9460 F   0  0  0  0  0  0  0  0  0  0  0  0
  188.8960  177.2610  145.5610 N   0  0  0  0  0  0  0  0  0  0  0  0
  188.2180  177.3580  143.2560 C   0  0  0  0  0  0  0  0  0  0  0  0
  190.5880  176.8800  143.9380 N   0  0  0  0  0  2  0  0  0  0  0  0
  185.2360  178.0170  145.5020 C   0  0  0  0  0  3  0  0  0  0  0  0
  184.0990  178.1540  140.3920 C   0  0  0  0  0  3  0  0  0  0  0  0
  187.5590  177.5460  145.9850 C   0  0  0  0  0  0  0  0  0  0  0  0
  187.2850  177.6290  147.3540 C   0  0  0  0  0  3  0  0  0  0  0  0
  188.5700  177.2610  142.0070 N   0  0  0  0  0  0  0  0  0  0  0  0
  186.3300  177.7080  141.2160 C   0  0  0  0  0  0  0  0  0  0  0  0
  185.4440  177.8710  140.1480 C   0  0  0  0  0  3  0  0  0  0  0  0
  193.7680  173.5190  144.6010 C   0  0  1  0  0  3  0  0  0  0  0  0
  193.0000  175.3960  143.1180 C   0  0  0  0  0  2  0  0  0  0  0  0
  194.1340  176.8150  146.5570 C   0  0  0  0  0  1  0  0  0  0  0  0
  193.4840  172.2200  145.0190 O   0  0  0  0  0  1  0  0  0  0  0  0
  192.7210  173.9650  143.5830 C   0  0  0  0  0  2  0  0  0  0  0  0
  194.0620  175.8830  145.3610 C   0  0  2  0  0  3  0  0  0  0  0  0
  193.0580  176.3720  144.2980 C   0  0  2  0  0  3  0  0  0  0  0  0
  193.7690  174.4520  145.8070 C   0  0  0  0  0  2  0  0  0  0  0  0
  1 11  1  0  0  0  0
  1  8  1  0  0  0  0
  2  7  1  0  0  0  0
  3  9  1  0  0  0  0
  3  2  1  0  0  0  0
  5  4  2  0  0  0  0
  6 13  1  0  0  0  0
  6  9  2  0  0  0  0
  7 17  1  0  0  0  0
  7 19  2  0  0  0  0
 10 14  2  0  0  0  0
 12 22  1  0  0  0  0
 12 21  1  0  0  0  0
 14 19  1  0  0  0  0
 15  2  1  0  0  0  0
 15 10  1  0  0  0  0
 16 10  1  0  0  0  0
 16  5  1  0  0  0  0
 17  1  2  0  0  0  0
 18  6  1  0  0  0  0
 19 20  1  0  0  0  0
 20  8  2  0  0  0  0
 21 15  2  0  0  0  0
 22  3  2  0  0  0  0
 23 18  2  0  0  0  0
 23 22  1  0  0  0  0
 24 27  1  1  0  0  0
 24 31  1  0  0  0  0
 25 28  1  0  0  0  0
 25 30  1  0  0  0  0
 28 24  1  0  0  0  0
 29 31  1  0  0  0  0
 29 26  1  1  0  0  0
 30  5  1  1  0  0  0
 30 29  1  0  0  0  0
M  END
>  <MODEL>
1

>  <REMARK>
 VINA RESULT:     -10.1      0.000      0.000
  Name = 
  1 active torsions:
  status: ('A' for Active; 'I' for Inactive)
    1  A    between atoms: C_5  and  C_30
                            x       y       z     vdW  Elec       q    Type
                         _______ _______ _______ _____ _____    ______ ____

>  <TORSDO>
F 1

$$$$
=
 OpenBabel11112416543D

 31 35  0  0  1  0  0  0  0  0999 V2000
  184.5300  178.4230  146.1900 C   0  0  0  0  0  0  0  0  0  0  0  0
  187.0240  177.1090  143.6680 N   0  0  0  0  0  0  0  0  0  0  0  0
  186.4620  177.3500  142.3500 C   0  0  0  0  0  0  0  0  0  0  0  0
  190.4850  175.5180  147.4440 O   0  0  0  0  0  0  0  0  0  0  0  0
  190.9460  175.2350  146.3070 C   0  0  0  0  0  0  0  0  0  0  0  0
  184.7160  178.1760  140.8650 C   0  0  0  0  0  0  0  0  0  0  0  0
  186.3790  177.4660  144.9210 C   0  0  0  0  0  0  0  0  0  0  0  0
  185.1860  178.1320  147.3850 C   0  0  0  0  0  3  0  0  0  0  0  0
  185.2160  177.9650  142.1530 C   0  0  0  0  0  3  0  0  0  0  0  0
  188.9350  176.1970  145.0560 C   0  0  0  0  0  0  0  0  0  0  0  0
  183.3190  179.0280  146.2120 F   0  0  0  0  0  0  0  0  0  0  0  0
  188.4360  176.3400  141.3970 O   0  0  0  0  0  0  0  0  0  0  0  0
  183.5110  178.7710  140.6950 F   0  0  0  0  0  0  0  0  0  0  0  0
  188.3130  176.5380  146.1440 N   0  0  0  0  0  0  0  0  0  0  0  0
  188.3190  176.4650  143.7410 C   0  0  0  0  0  0  0  0  0  0  0  0
  190.2170  175.5590  145.1160 N   0  0  0  0  0  2  0  0  0  0  0  0
  185.1230  178.0930  144.9700 C   0  0  0  0  0  3  0  0  0  0  0  0
  185.4590  177.7740  139.7540 C   0  0  0  0  0  3  0  0  0  0  0  0
  187.0320  177.1760  146.1400 C   0  0  0  0  0  0  0  0  0  0  0  0
  186.4350  177.5090  147.3600 C   0  0  0  0  0  3  0  0  0  0  0  0
  188.9530  176.1190  142.6590 N   0  0  0  0  0  0  0  0  0  0  0  0
  187.1980  176.9510  141.2210 C   0  0  0  0  0  0  0  0  0  0  0  0
  186.7000  177.1610  139.9320 C   0  0  0  0  0  3  0  0  0  0  0  0
  193.8770  175.5450  143.9300 C   0  0  1  0  0  3  0  0  0  0  0  0
  193.4350  175.5510  146.4030 C   0  0  0  0  0  2  0  0  0  0  0  0
  191.3560  172.7390  144.7010 C   0  0  0  0  0  1  0  0  0  0  0  0
  194.0460  176.3570  142.8100 O   0  0  0  0  0  1  0  0  0  0  0  0
  193.6400  176.4180  145.1590 C   0  0  0  0  0  2  0  0  0  0  0  0
  192.4870  173.7240  144.9330 C   0  0  2  0  0  3  0  0  0  0  0  0
  192.2850  174.5570  146.2150 C   0  0  2  0  0  3  0  0  0  0  0  0
  192.6940  174.6090  143.7060 C   0  0  0  0  0  2  0  0  0  0  0  0
  1 11  1  0  0  0  0
  1  8  1  0  0  0  0
  2 15  1  0  0  0  0
  2  7  1  0  0  0  0
  3  2  1  0  0  0  0
  5  4  2  0  0  0  0
  6  9  2  0  0  0  0
  7 17  1  0  0  0  0
  7 19  2  0  0  0  0
  9  3  1  0  0  0  0
 10 16  1  0  0  0  0
 10 14  2  0  0  0  0
 12 21  1  0  0  0  0
 13  6  1  0  0  0  0
 15 10  1  0  0  0  0
 16  5  1  0  0  0  0
 17  1  2  0  0  0  0
 18 23  2  0  0  0  0
 18  6  1  0  0  0  0
 19 14  1  0  0  0  0
 19 20  1  0  0  0  0
 20  8  2  0  0  0  0
 21 15  2  0  0  0  0
 22 12  1  0  0  0  0
 22  3  2  0  0  0  0
 23 22  1  0  0  0  0
 24 27  1  6  0  0  0
 24 28  1  0  0  0  0
 28 25  1  0  0  0  0
 29 26  1  6  0  0  0
 29 30  1  0  0  0  0
 30  5  1  6  0  0  0
 30 25  1  0  0  0  0
 31 24  1  0  0  0  0
 31 29  1  0  0  0  0
M  END
>  <MODEL>
2

>  <REMARK>
 VINA RESULT:      -9.9      1.429      2.073
  Name = 
  1 active torsions:
  status: ('A' for Active; 'I' for Inactive)
    1  A    between atoms: C_5  and  C_30
                            x       y       z     vdW  Elec       q    Type
                         _______ _______ _______ _____ _____    ______ ____

>  <TORSDO>
F 1

$$$$
=
 OpenBabel11112416543D

 31 35  0  0  1  0  0  0  0  0999 V2000
  185.6600  177.6840  141.0520 C   0  0  0  0  0  0  0  0  0  0  0  0
  187.3830  177.0580  144.3610 N   0  0  0  0  0  0  0  0  0  0  0  0
  186.4880  177.5300  145.4020 C   0  0  0  0  0  0  0  0  0  0  0  0
  191.7190  174.9010  142.0560 O   0  0  0  0  0  0  0  0  0  0  0  0
  191.8730  174.9160  143.3050 C   0  0  0  0  0  0  0  0  0  0  0  0
  184.4040  178.5370  146.1660 C   0  0  0  0  0  0  0  0  0  0  0  0
  187.1000  177.1150  142.9360 C   0  0  0  0  0  0  0  0  0  0  0  0
  186.6140  177.1940  140.1610 C   0  0  0  0  0  3  0  0  0  0  0  0
  185.2330  178.0980  145.1290 C   0  0  0  0  0  3  0  0  0  0  0  0
  189.5990  175.9980  143.7500 C   0  0  0  0  0  0  0  0  0  0  0  0
  184.4980  178.1990  140.5850 F   0  0  0  0  0  0  0  0  0  0  0  0
  188.1330  176.8510  147.0320 O   0  0  0  0  0  0  0  0  0  0  0  0
  183.1970  179.0830  145.8830 F   0  0  0  0  0  0  0  0  0  0  0  0
  189.2940  176.0740  142.4890 N   0  0  0  0  0  0  0  0  0  0  0  0
  188.6520  176.4910  144.7680 C   0  0  0  0  0  0  0  0  0  0  0  0
  190.8520  175.4390  144.1650 N   0  0  0  0  0  2  0  0  0  0  0  0
  185.9030  177.6440  142.4270 C   0  0  0  0  0  3  0  0  0  0  0  0
  184.8210  178.4140  147.4920 C   0  0  0  0  0  3  0  0  0  0  0  0
  188.0570  176.6230  142.0210 C   0  0  0  0  0  0  0  0  0  0  0  0
  187.8110  176.6640  140.6460 C   0  0  0  0  0  3  0  0  0  0  0  0
  188.9710  176.4090  146.0270 N   0  0  0  0  0  0  0  0  0  0  0  0
  186.8920  177.4130  146.7430 C   0  0  0  0  0  0  0  0  0  0  0  0
  186.0650  177.8510  147.7810 C   0  0  0  0  0  3  0  0  0  0  0  0
  194.1080  175.9670  146.1760 C   0  0  1  0  0  3  0  0  0  0  0  0
  192.9500  173.9020  145.3340 C   0  0  0  0  0  2  0  0  0  0  0  0
  194.5710  175.8080  142.3560 C   0  0  0  0  0  1  0  0  0  0  0  0
  194.0000  177.0460  147.0510 O   0  0  0  0  0  1  0  0  0  0  0  0
  192.8660  175.0870  146.2980 C   0  0  0  0  0  2  0  0  0  0  0  0
  194.3560  175.3120  143.7750 C   0  0  2  0  0  3  0  0  0  0  0  0
  193.1450  174.3640  143.8870 C   0  0  2  0  0  3  0  0  0  0  0  0
  194.2540  176.4840  144.7480 C   0  0  0  0  0  2  0  0  0  0  0  0
  1 17  1  0  0  0  0
  2 15  1  0  0  0  0
  2  3  1  0  0  0  0
  3 22  1  0  0  0  0
  4  5  2  0  0  0  0
  5 16  1  0  0  0  0
  6 18  2  0  0  0  0
  7  2  1  0  0  0  0
  8 20  1  0  0  0  0
  8  1  2  0  0  0  0
  9  3  2  0  0  0  0
  9  6  1  0  0  0  0
 10 16  1  0  0  0  0
 10 15  1  0  0  0  0
 11  1  1  0  0  0  0
 13  6  1  0  0  0  0
 14 10  2  0  0  0  0
 15 21  2  0  0  0  0
 17  7  2  0  0  0  0
 18 23  1  0  0  0  0
 19 14  1  0  0  0  0
 19  7  1  0  0  0  0
 20 19  2  0  0  0  0
 21 12  1  0  0  0  0
 22 12  1  0  0  0  0
 22 23  2  0  0  0  0
 24 28  1  0  0  0  0
 24 27  1  1  0  0  0
 25 28  1  0  0  0  0
 29 26  1  6  0  0  0
 29 30  1  0  0  0  0
 29 31  1  0  0  0  0
 30  5  1  1  0  0  0
 30 25  1  0  0  0  0
 31 24  1  0  0  0  0
M  END
>  <MODEL>
3

>  <REMARK>
 VINA RESULT:      -9.6      1.757      4.371
  Name = 
  1 active torsions:
  status: ('A' for Active; 'I' for Inactive)
    1  A    between atoms: C_5  and  C_30
                            x       y       z     vdW  Elec       q    Type
                         _______ _______ _______ _____ _____    ______ ____

>  <TORSDO>
F 1

$$$$
=
 OpenBabel11112416543D

 31 35  0  0  1  0  0  0  0  0999 V2000
  185.8700  177.8940  141.2310 C   0  0  0  0  0  0  0  0  0  0  0  0
  187.6160  177.6380  144.5770 N   0  0  0  0  0  0  0  0  0  0  0  0
  186.6380  177.9860  145.5940 C   0  0  0  0  0  0  0  0  0  0  0  0
  192.2790  176.1470  142.3880 O   0  0  0  0  0  0  0  0  0  0  0  0
  192.4070  176.2180  143.6380 C   0  0  0  0  0  0  0  0  0  0  0  0
  184.4080  178.6660  146.3030 C   0  0  0  0  0  0  0  0  0  0  0  0
  187.3510  177.6120  143.1480 C   0  0  0  0  0  0  0  0  0  0  0  0
  186.9050  177.5410  140.3660 C   0  0  0  0  0  3  0  0  0  0  0  0
  185.3130  178.3380  145.2900 C   0  0  0  0  0  3  0  0  0  0  0  0
  189.9830  176.9320  144.0240 C   0  0  0  0  0  0  0  0  0  0  0  0
  184.6480  178.2030  140.7350 F   0  0  0  0  0  0  0  0  0  0  0  0
  188.3430  177.6230  147.2630 O   0  0  0  0  0  0  0  0  0  0  0  0
  183.1340  179.0030  145.9900 F   0  0  0  0  0  0  0  0  0  0  0  0
  189.6900  176.9250  142.7580 N   0  0  0  0  0  0  0  0  0  0  0  0
  188.9520  177.2930  145.0160 C   0  0  0  0  0  0  0  0  0  0  0  0
  191.3020  176.5920  144.4710 N   0  0  0  0  0  2  0  0  0  0  0  0
  186.0930  177.9290  142.6090 C   0  0  0  0  0  3  0  0  0  0  0  0
  184.8170  178.6450  147.6380 C   0  0  0  0  0  3  0  0  0  0  0  0
  188.3900  177.2560  142.2590 C   0  0  0  0  0  0  0  0  0  0  0  0
  188.1630  177.2220  140.8800 C   0  0  0  0  0  3  0  0  0  0  0  0
  189.2580  177.2950  146.2810 N   0  0  0  0  0  0  0  0  0  0  0  0
  187.0340  177.9710  146.9420 C   0  0  0  0  0  0  0  0  0  0  0  0
  186.1300  178.2970  147.9570 C   0  0  0  0  0  3  0  0  0  0  0  0
  193.9800  173.0300  144.9410 C   0  0  1  0  0  3  0  0  0  0  0  0
  194.5400  174.9170  143.3800 C   0  0  0  0  0  2  0  0  0  0  0  0
  192.8650  176.3220  146.5970 C   0  0  0  0  0  1  0  0  0  0  0  0
  193.4660  171.7360  145.0130 O   0  0  0  0  0  1  0  0  0  0  0  0
  193.9940  173.4920  143.4860 C   0  0  0  0  0  2  0  0  0  0  0  0
  193.6650  175.3900  145.7060 C   0  0  2  0  0  3  0  0  0  0  0  0
  193.7420  175.8930  144.2510 C   0  0  2  0  0  3  0  0  0  0  0  0
  193.1230  173.9650  145.7890 C   0  0  0  0  0  2  0  0  0  0  0  0
  1 17  1  0  0  0  0
  2 15  1  0  0  0  0
  2  3  1  0  0  0  0
  3 22  1  0  0  0  0
  4  5  2  0  0  0  0
  5 16  1  0  0  0  0
  6 18  2  0  0  0  0
  7  2  1  0  0  0  0
  8 20  1  0  0  0  0
  8  1  2  0  0  0  0
  9  3  2  0  0  0  0
  9  6  1  0  0  0  0
 10 16  1  0  0  0  0
 10 15  1  0  0  0  0
 11  1  1  0  0  0  0
 13  6  1  0  0  0  0
 14 10  2  0  0  0  0
 15 21  2  0  0  0  0
 17  7  2  0  0  0  0
 18 23  1  0  0  0  0
 19 14  1  0  0  0  0
 19  7  1  0  0  0  0
 20 19  2  0  0  0  0
 21 12  1  0  0  0  0
 22 12  1  0  0  0  0
 22 23  2  0  0  0  0
 24 27  1  6  0  0  0
 24 31  1  0  0  0  0
 25 28  1  0  0  0  0
 25 30  1  0  0  0  0
 28 24  1  0  0  0  0
 29 31  1  0  0  0  0
 29 26  1  1  0  0  0
 30  5  1  6  0  0  0
 30 29  1  0  0  0  0
M  END
>  <MODEL>
4

>  <REMARK>
 VINA RESULT:      -9.1      1.598      4.047
  Name = 
  1 active torsions:
  status: ('A' for Active; 'I' for Inactive)
    1  A    between atoms: C_5  and  C_30
                            x       y       z     vdW  Elec       q    Type
                         _______ _______ _______ _____ _____    ______ ____

>  <TORSDO>
F 1

$$$$
=
 OpenBabel11112416543D

 31 35  0  0  1  0  0  0  0  0999 V2000
  190.6330  176.7710  147.2310 C   0  0  0  0  0  0  0  0  0  0  0  0
  187.8930  176.4730  144.6400 N   0  0  0  0  0  0  0  0  0  0  0  0
  186.8180  177.3560  145.0550 C   0  0  0  0  0  0  0  0  0  0  0  0
  190.6310  172.9250  141.6930 O   0  0  0  0  0  0  0  0  0  0  0  0
  189.5130  173.1430  141.1550 C   0  0  0  0  0  0  0  0  0  0  0  0
  185.8190  178.9740  146.5790 C   0  0  0  0  0  0  0  0  0  0  0  0
  189.1410  176.2900  145.3640 C   0  0  0  0  0  0  0  0  0  0  0  0
  191.5800  175.8880  146.7160 C   0  0  0  0  0  3  0  0  0  0  0  0
  186.8790  178.1380  146.2200 C   0  0  0  0  0  3  0  0  0  0  0  0
  188.7740  174.8050  142.9520 C   0  0  0  0  0  0  0  0  0  0  0  0
  190.8840  177.4390  148.3830 F   0  0  0  0  0  0  0  0  0  0  0  0
  185.5860  176.6680  143.0980 O   0  0  0  0  0  0  0  0  0  0  0  0
  185.8960  179.7210  147.7070 F   0  0  0  0  0  0  0  0  0  0  0  0
  189.8690  174.6800  143.6390 N   0  0  0  0  0  0  0  0  0  0  0  0
  187.7120  175.7170  143.4180 C   0  0  0  0  0  0  0  0  0  0  0  0
  188.5820  174.0620  141.7410 N   0  0  0  0  0  2  0  0  0  0  0  0
  189.4240  176.9690  146.5600 C   0  0  0  0  0  3  0  0  0  0  0  0
  184.6790  179.0410  145.7750 C   0  0  0  0  0  3  0  0  0  0  0  0
  190.1100  175.3970  144.8540 C   0  0  0  0  0  0  0  0  0  0  0  0
  191.3190  175.2020  145.5290 C   0  0  0  0  0  3  0  0  0  0  0  0
  186.6200  175.8330  142.7200 N   0  0  0  0  0  0  0  0  0  0  0  0
  185.6640  177.4350  144.2570 C   0  0  0  0  0  0  0  0  0  0  0  0
  184.6020  178.2710  144.6130 C   0  0  0  0  0  3  0  0  0  0  0  0
  191.3620  172.5740  137.9000 C   0  0  1  0  0  3  0  0  0  0  0  0
  190.1100  171.2440  139.6250 C   0  0  0  0  0  2  0  0  0  0  0  0
  188.1910  174.5390  138.8580 C   0  0  0  0  0  1  0  0  0  0  0  0
  192.6280  172.9980  137.4980 O   0  0  0  0  0  1  0  0  0  0  0  0
  191.4890  171.7090  139.1510 C   0  0  0  0  0  2  0  0  0  0  0  0
  189.0990  173.3420  138.6390 C   0  0  2  0  0  3  0  0  0  0  0  0
  189.1710  172.4270  139.8780 C   0  0  2  0  0  3  0  0  0  0  0  0
  190.4850  173.7910  138.1810 C   0  0  0  0  0  2  0  0  0  0  0  0
  1 11  1  0  0  0  0
  2  3  1  0  0  0  0
  2  7  1  0  0  0  0
  3  9  1  0  0  0  0
  5  4  2  0  0  0  0
  5 16  1  0  0  0  0
  6 13  1  0  0  0  0
  7 17  1  0  0  0  0
  8  1  1  0  0  0  0
  9  6  2  0  0  0  0
 10 15  1  0  0  0  0
 10 14  2  0  0  0  0
 12 22  1  0  0  0  0
 14 19  1  0  0  0  0
 15  2  1  0  0  0  0
 16 10  1  0  0  0  0
 17  1  2  0  0  0  0
 18  6  1  0  0  0  0
 19  7  2  0  0  0  0
 19 20  1  0  0  0  0
 20  8  2  0  0  0  0
 21 12  1  0  0  0  0
 21 15  2  0  0  0  0
 22 23  1  0  0  0  0
 22  3  2  0  0  0  0
 23 18  2  0  0  0  0
 24 27  1  1  0  0  0
 24 31  1  0  0  0  0
 24 28  1  0  0  0  0
 25 30  1  0  0  0  0
 28 25  1  0  0  0  0
 29 26  1  1  0  0  0
 29 30  1  0  0  0  0
 30  5  1  1  0  0  0
 31 29  1  0  0  0  0
M  END
>  <MODEL>
5

>  <REMARK>
 VINA RESULT:      -8.7      3.734      5.521
  Name = 
  1 active torsions:
  status: ('A' for Active; 'I' for Inactive)
    1  A    between atoms: C_5  and  C_30
                            x       y       z     vdW  Elec       q    Type
                         _______ _______ _______ _____ _____    ______ ____

>  <TORSDO>
F 1

$$$$
=
 OpenBabel11112416543D

 31 35  0  0  1  0  0  0  0  0999 V2000
  185.6000  177.9170  141.0240 C   0  0  0  0  0  0  0  0  0  0  0  0
  187.3350  177.3280  144.3330 N   0  0  0  0  0  0  0  0  0  0  0  0
  186.4020  177.7170  145.3770 C   0  0  0  0  0  0  0  0  0  0  0  0
  191.8200  175.5120  142.0210 O   0  0  0  0  0  0  0  0  0  0  0  0
  191.9630  175.5070  143.2720 C   0  0  0  0  0  0  0  0  0  0  0  0
  184.2510  178.5690  146.1440 C   0  0  0  0  0  0  0  0  0  0  0  0
  187.0590  177.3990  142.9080 C   0  0  0  0  0  0  0  0  0  0  0  0
  186.5900  177.5110  140.1310 C   0  0  0  0  0  3  0  0  0  0  0  0
  185.1150  178.2080  145.1050 C   0  0  0  0  0  3  0  0  0  0  0  0
  189.6200  176.4290  143.7190 C   0  0  0  0  0  0  0  0  0  0  0  0
  184.4100  178.3650  140.5580 F   0  0  0  0  0  0  0  0  0  0  0  0
  188.0750  177.1090  147.0070 O   0  0  0  0  0  0  0  0  0  0  0  0
  183.0130  179.0410  145.8620 F   0  0  0  0  0  0  0  0  0  0  0  0
  189.3200  176.5140  142.4580 N   0  0  0  0  0  0  0  0  0  0  0  0
  188.6350  176.8360  144.7400 C   0  0  0  0  0  0  0  0  0  0  0  0
  190.9030  175.9430  144.1340 N   0  0  0  0  0  2  0  0  0  0  0  0
  185.8340  177.8610  142.4000 C   0  0  0  0  0  3  0  0  0  0  0  0
  184.6650  178.4420  147.4710 C   0  0  0  0  0  3  0  0  0  0  0  0
  188.0540  176.9910  141.9910 C   0  0  0  0  0  0  0  0  0  0  0  0
  187.8160  177.0480  140.6150 C   0  0  0  0  0  3  0  0  0  0  0  0
  188.9480  176.7460  145.9990 N   0  0  0  0  0  0  0  0  0  0  0  0
  186.8030  177.5960  146.7190 C   0  0  0  0  0  0  0  0  0  0  0  0
  185.9410  177.9550  147.7580 C   0  0  0  0  0  3  0  0  0  0  0  0
  195.3270  174.6260  141.7760 C   0  0  1  0  0  3  0  0  0  0  0  0
  194.3900  176.0410  143.6290 C   0  0  0  0  0  2  0  0  0  0  0  0
  192.5900  172.5930  143.5660 C   0  0  0  0  0  1  0  0  0  0  0  0
  195.7530  174.6390  140.4490 O   0  0  0  0  0  1  0  0  0  0  0  0
  194.8790  176.0290  142.1790 C   0  0  0  0  0  2  0  0  0  0  0  0
  193.6890  173.6240  143.3780 C   0  0  2  0  0  3  0  0  0  0  0  0
  193.2640  175.0270  143.8530 C   0  0  2  0  0  3  0  0  0  0  0  0
  194.1780  173.6350  141.9310 C   0  0  0  0  0  2  0  0  0  0  0  0
  1 17  1  0  0  0  0
  2 15  1  0  0  0  0
  2  3  1  0  0  0  0
  3 22  1  0  0  0  0
  4  5  2  0  0  0  0
  5 16  1  0  0  0  0
  6 18  2  0  0  0  0
  7  2  1  0  0  0  0
  8 20  1  0  0  0  0
  8  1  2  0  0  0  0
  9  3  2  0  0  0  0
  9  6  1  0  0  0  0
 10 16  1  0  0  0  0
 10 15  1  0  0  0  0
 11  1  1  0  0  0  0
 13  6  1  0  0  0  0
 14 10  2  0  0  0  0
 15 21  2  0  0  0  0
 17  7  2  0  0  0  0
 18 23  1  0  0  0  0
 19 14  1  0  0  0  0
 19  7  1  0  0  0  0
 20 19  2  0  0  0  0
 21 12  1  0  0  0  0
 22 12  1  0  0  0  0
 22 23  2  0  0  0  0
 24 27  1  6  0  0  0
 24 31  1  0  0  0  0
 24 28  1  0  0  0  0
 25 30  1  0  0  0  0
 28 25  1  0  0  0  0
 29 26  1  6  0  0  0
 29 30  1  0  0  0  0
 30  5  1  6  0  0  0
 31 29  1  0  0  0  0
M  END
>  <MODEL>
6

>  <REMARK>
 VINA RESULT:      -8.7      1.911      4.439
  Name = 
  1 active torsions:
  status: ('A' for Active; 'I' for Inactive)
    1  A    between atoms: C_5  and  C_30
                            x       y       z     vdW  Elec       q    Type
                         _______ _______ _______ _____ _____    ______ ____

>  <TORSDO>
F 1

$$$$
=
 OpenBabel11112416543D

 31 35  0  0  1  0  0  0  0  0999 V2000
  194.1730  175.9060  143.7750 C   0  0  0  0  0  0  0  0  0  0  0  0
  190.5770  175.1340  142.8900 N   0  0  0  0  0  0  0  0  0  0  0  0
  190.5950  174.4090  141.6320 C   0  0  0  0  0  0  0  0  0  0  0  0
  188.6490  177.5170  147.2920 O   0  0  0  0  0  0  0  0  0  0  0  0
  187.6930  177.0710  146.6040 C   0  0  0  0  0  0  0  0  0  0  0  0
  191.7500  173.3980  139.7380 C   0  0  0  0  0  0  0  0  0  0  0  0
  191.7580  175.6200  143.5830 C   0  0  0  0  0  0  0  0  0  0  0  0
  194.0070  176.5890  144.9790 C   0  0  0  0  0  3  0  0  0  0  0  0
  191.7820  174.0990  140.9470 C   0  0  0  0  0  3  0  0  0  0  0  0
  189.2140  176.1280  144.7780 C   0  0  0  0  0  0  0  0  0  0  0  0
  195.4150  175.7050  143.2760 F   0  0  0  0  0  0  0  0  0  0  0  0
  188.1870  174.2960  141.7370 O   0  0  0  0  0  0  0  0  0  0  0  0
  192.9040  173.1080  139.0930 F   0  0  0  0  0  0  0  0  0  0  0  0
  190.3040  176.5400  145.3540 N   0  0  0  0  0  0  0  0  0  0  0  0
  189.2890  175.3950  143.4990 C   0  0  0  0  0  0  0  0  0  0  0  0
  187.9340  176.3800  145.3710 N   0  0  0  0  0  2  0  0  0  0  0  0
  193.0570  175.4260  143.0850 C   0  0  0  0  0  3  0  0  0  0  0  0
  190.5270  172.9970  139.1960 C   0  0  0  0  0  3  0  0  0  0  0  0
  191.6060  176.3150  144.8040 C   0  0  0  0  0  0  0  0  0  0  0  0
  192.7250  176.7930  145.4920 C   0  0  0  0  0  3  0  0  0  0  0  0
  188.1910  174.9880  142.9330 N   0  0  0  0  0  0  0  0  0  0  0  0
  189.3730  173.9990  141.0720 C   0  0  0  0  0  0  0  0  0  0  0  0
  189.3390  173.2980  139.8640 C   0  0  0  0  0  3  0  0  0  0  0  0
  184.6930  178.9690  145.2880 C   0  0  1  0  0  3  0  0  0  0  0  0
  185.2590  176.6720  146.1350 C   0  0  0  0  0  2  0  0  0  0  0  0
  186.9440  179.3580  148.3880 C   0  0  0  0  0  1  0  0  0  0  0  0
  184.5540  179.7480  144.1400 O   0  0  0  0  0  1  0  0  0  0  0  0
  185.0830  177.5470  144.8920 C   0  0  0  0  0  2  0  0  0  0  0  0
  185.9350  178.7270  147.4450 C   0  0  2  0  0  3  0  0  0  0  0  0
  186.2880  177.2670  147.1020 C   0  0  2  0  0  3  0  0  0  0  0  0
  185.7590  179.5810  146.1910 C   0  0  0  0  0  2  0  0  0  0  0  0
  1  8  1  0  0  0  0
  2 15  1  0  0  0  0
  2  7  1  0  0  0  0
  3  2  1  0  0  0  0
  5  4  2  0  0  0  0
  6  9  1  0  0  0  0
  7 19  2  0  0  0  0
  8 20  2  0  0  0  0
  9  3  2  0  0  0  0
 10 14  2  0  0  0  0
 10 16  1  0  0  0  0
 11  1  1  0  0  0  0
 12 21  1  0  0  0  0
 13  6  1  0  0  0  0
 15 10  1  0  0  0  0
 16  5  1  0  0  0  0
 17  7  1  0  0  0  0
 17  1  2  0  0  0  0
 18  6  2  0  0  0  0
 18 23  1  0  0  0  0
 19 14  1  0  0  0  0
 19 20  1  0  0  0  0
 21 15  2  0  0  0  0
 22  3  1  0  0  0  0
 22 12  1  0  0  0  0
 23 22  2  0  0  0  0
 24 27  1  6  0  0  0
 24 31  1  0  0  0  0
 25 30  1  0  0  0  0
 28 24  1  0  0  0  0
 28 25  1  0  0  0  0
 29 26  1  1  0  0  0
 30  5  1  6  0  0  0
 30 29  1  0  0  0  0
 31 29  1  0  0  0  0
M  END
>  <MODEL>
7

>  <REMARK>
 VINA RESULT:      -8.6      4.037      7.483
  Name = 
  1 active torsions:
  status: ('A' for Active; 'I' for Inactive)
    1  A    between atoms: C_5  and  C_30
                            x       y       z     vdW  Elec       q    Type
                         _______ _______ _______ _____ _____    ______ ____

>  <TORSDO>
F 1

$$$$
=
 OpenBabel11112416543D

 31 35  0  0  1  0  0  0  0  0999 V2000
  186.3120  178.7780  143.3550 C   0  0  0  0  0  0  0  0  0  0  0  0
  188.9810  176.0990  143.4690 N   0  0  0  0  0  0  0  0  0  0  0  0
  189.6370  176.2080  144.7600 C   0  0  0  0  0  0  0  0  0  0  0  0
  187.8160  174.2820  138.5590 O   0  0  0  0  0  0  0  0  0  0  0  0
  188.7720  173.6160  139.0370 C   0  0  0  0  0  0  0  0  0  0  0  0
  189.9360  177.2330  146.9510 C   0  0  0  0  0  0  0  0  0  0  0  0
  187.8910  176.9490  143.0200 C   0  0  0  0  0  0  0  0  0  0  0  0
  185.7750  178.5600  142.0870 C   0  0  0  0  0  3  0  0  0  0  0  0
  189.2750  177.1660  145.7220 C   0  0  0  0  0  3  0  0  0  0  0  0
  188.8120  174.9160  141.2370 C   0  0  0  0  0  0  0  0  0  0  0  0
  185.8180  179.7630  144.1400 F   0  0  0  0  0  0  0  0  0  0  0  0
  191.0540  174.3610  144.1230 O   0  0  0  0  0  0  0  0  0  0  0  0
  189.5730  178.1630  147.8660 F   0  0  0  0  0  0  0  0  0  0  0  0
  187.8410  175.7050  140.8880 N   0  0  0  0  0  0  0  0  0  0  0  0
  189.4450  175.0700  142.5620 C   0  0  0  0  0  0  0  0  0  0  0  0
  189.2810  173.8950  140.3480 N   0  0  0  0  0  2  0  0  0  0  0  0
  187.3610  177.9780  143.8150 C   0  0  0  0  0  3  0  0  0  0  0  0
  190.9710  176.3400  147.2370 C   0  0  0  0  0  3  0  0  0  0  0  0
  187.3360  176.7410  141.7370 C   0  0  0  0  0  0  0  0  0  0  0  0
  186.2860  177.5420  141.2800 C   0  0  0  0  0  3  0  0  0  0  0  0
  190.4170  174.2740  142.9000 N   0  0  0  0  0  0  0  0  0  0  0  0
  190.6820  175.3180  145.0630 C   0  0  0  0  0  0  0  0  0  0  0  0
  191.3440  175.3820  146.2920 C   0  0  0  0  0  3  0  0  0  0  0  0
  191.9580  171.5870  139.2980 C   0  0  1  0  0  3  0  0  0  0  0  0
  189.4910  171.2100  139.0120 C   0  0  0  0  0  2  0  0  0  0  0  0
  190.6400  174.1660  136.7600 C   0  0  0  0  0  1  0  0  0  0  0  0
  192.9920  171.6500  140.2310 O   0  0  0  0  0  1  0  0  0  0  0  0
  190.6470  171.2690  140.0120 C   0  0  0  0  0  2  0  0  0  0  0  0
  190.7150  172.8700  137.5490 C   0  0  2  0  0  3  0  0  0  0  0  0
  189.3700  172.5100  138.2110 C   0  0  2  0  0  3  0  0  0  0  0  0
  191.8550  172.9190  138.5630 C   0  0  0  0  0  2  0  0  0  0  0  0
  1 17  1  0  0  0  0
  1 11  1  0  0  0  0
  2  3  1  0  0  0  0
  3 22  2  0  0  0  0
  3  9  1  0  0  0  0
  4  5  2  0  0  0  0
  5 16  1  0  0  0  0
  6 18  1  0  0  0  0
  6 13  1  0  0  0  0
  7  2  1  0  0  0  0
  7 17  2  0  0  0  0
  8  1  2  0  0  0  0
  9  6  2  0  0  0  0
 10 15  1  0  0  0  0
 12 22  1  0  0  0  0
 14 10  2  0  0  0  0
 14 19  1  0  0  0  0
 15 21  2  0  0  0  0
 15  2  1  0  0  0  0
 16 10  1  0  0  0  0
 19  7  1  0  0  0  0
 20 19  2  0  0  0  0
 20  8  1  0  0  0  0
 21 12  1  0  0  0  0
 22 23  1  0  0  0  0
 23 18  2  0  0  0  0
 24 28  1  0  0  0  0
 24 27  1  1  0  0  0
 25 28  1  0  0  0  0
 29 26  1  1  0  0  0
 29 30  1  0  0  0  0
 29 31  1  0  0  0  0
 30 25  1  0  0  0  0
 30  5  1  1  0  0  0
 31 24  1  0  0  0  0
M  END
>  <MODEL>
8

>  <REMARK>
 VINA RESULT:      -8.5      3.815      6.374
  Name = 
  1 active torsions:
  status: ('A' for Active; 'I' for Inactive)
    1  A    between atoms: C_5  and  C_30
                            x       y       z     vdW  Elec       q    Type
                         _______ _______ _______ _____ _____    ______ ____

>  <TORSDO>
F 1

$$$$
=
 OpenBabel11112416543D

 31 35  0  0  1  0  0  0  0  0999 V2000
  194.6380  175.5790  145.4030 C   0  0  0  0  0  0  0  0  0  0  0  0
  191.6070  174.9120  143.2410 N   0  0  0  0  0  0  0  0  0  0  0  0
  192.0840  174.2770  142.0240 C   0  0  0  0  0  0  0  0  0  0  0  0
  188.2000  176.9960  146.8200 O   0  0  0  0  0  0  0  0  0  0  0  0
  187.5590  176.6110  145.8070 C   0  0  0  0  0  0  0  0  0  0  0  0
  193.8530  173.3910  140.6020 C   0  0  0  0  0  0  0  0  0  0  0  0
  192.4560  175.3340  144.3420 C   0  0  0  0  0  0  0  0  0  0  0  0
  194.0440  176.1770  146.5130 C   0  0  0  0  0  3  0  0  0  0  0  0
  193.4410  174.0030  141.7880 C   0  0  0  0  0  3  0  0  0  0  0  0
  189.6450  175.7840  144.5830 C   0  0  0  0  0  0  0  0  0  0  0  0
  195.9800  175.4010  145.3660 F   0  0  0  0  0  0  0  0  0  0  0  0
  189.7980  174.1840  141.2550 O   0  0  0  0  0  0  0  0  0  0  0  0
  195.1660  173.1340  140.3920 F   0  0  0  0  0  0  0  0  0  0  0  0
  190.4520  176.1420  145.5370 N   0  0  0  0  0  0  0  0  0  0  0  0
  190.1830  175.1420  143.3670 C   0  0  0  0  0  0  0  0  0  0  0  0
  188.2340  176.0070  144.6960 N   0  0  0  0  0  2  0  0  0  0  0  0
  193.8500  175.1620  144.3280 C   0  0  0  0  0  3  0  0  0  0  0  0
  192.9100  173.0430  139.6320 C   0  0  0  0  0  3  0  0  0  0  0  0
  191.8680  175.9420  145.4740 C   0  0  0  0  0  0  0  0  0  0  0  0
  192.6600  176.3580  146.5480 C   0  0  0  0  0  3  0  0  0  0  0  0
  189.3640  174.7880  142.4190 N   0  0  0  0  0  0  0  0  0  0  0  0
  191.1480  173.9210  141.0380 C   0  0  0  0  0  0  0  0  0  0  0  0
  191.5570  173.3080  139.8510 C   0  0  0  0  0  3  0  0  0  0  0  0
  185.2650  179.3300  144.5090 C   0  0  1  0  0  3  0  0  0  0  0  0
  185.5270  176.8360  144.3500 C   0  0  0  0  0  2  0  0  0  0  0  0
  186.0850  177.9850  148.0240 C   0  0  0  0  0  1  0  0  0  0  0  0
  185.5660  180.5410  143.8880 O   0  0  0  0  0  1  0  0  0  0  0  0
  185.8290  178.1790  143.6800 C   0  0  0  0  0  2  0  0  0  0  0  0
  185.5560  177.9890  146.6000 C   0  0  2  0  0  3  0  0  0  0  0  0
  186.0660  176.7860  145.7830 C   0  0  2  0  0  3  0  0  0  0  0  0
  185.8630  179.3180  145.9130 C   0  0  0  0  0  2  0  0  0  0  0  0
  1  8  1  0  0  0  0
  2 15  1  0  0  0  0
  2  7  1  0  0  0  0
  3  2  1  0  0  0  0
  5  4  2  0  0  0  0
  6  9  2  0  0  0  0
  7 19  2  0  0  0  0
  8 20  2  0  0  0  0
  9  3  1  0  0  0  0
 10 16  1  0  0  0  0
 10 14  2  0  0  0  0
 11  1  1  0  0  0  0
 12 21  1  0  0  0  0
 13  6  1  0  0  0  0
 15 10  1  0  0  0  0
 16  5  1  0  0  0  0
 17  7  1  0  0  0  0
 17  1  2  0  0  0  0
 18 23  2  0  0  0  0
 18  6  1  0  0  0  0
 19 14  1  0  0  0  0
 19 20  1  0  0  0  0
 21 15  2  0  0  0  0
 22 12  1  0  0  0  0
 22  3  2  0  0  0  0
 23 22  1  0  0  0  0
 24 27  1  6  0  0  0
 24 31  1  0  0  0  0
 25 30  1  0  0  0  0
 28 25  1  0  0  0  0
 28 24  1  0  0  0  0
 29 26  1  1  0  0  0
 30  5  1  6  0  0  0
 30 29  1  0  0  0  0
 31 29  1  0  0  0  0
M  END
>  <MODEL>
9

>  <REMARK>
 VINA RESULT:      -8.4      4.066      7.907
  Name = 
  1 active torsions:
  status: ('A' for Active; 'I' for Inactive)
    1  A    between atoms: C_5  and  C_30
                            x       y       z     vdW  Elec       q    Type
                         _______ _______ _______ _____ _____    ______ ____

>  <TORSDO>
F 1

$$$$
