=
 OpenBabel11112416553D

 31 35  0  0  1  0  0  0  0  0999 V2000
  185.7450  178.2830  140.8100 C   0  0  0  0  0  0  0  0  0  0  0  0
  188.0950  178.1710  143.8020 C   0  0  2  0  0  3  0  0  0  0  0  0
  187.2390  177.8000  145.0080 C   0  0  0  0  0  0  0  0  0  0  0  0
  185.0550  177.7360  146.0870 C   0  0  0  0  0  0  0  0  0  0  0  0
  187.4530  177.8220  142.4770 C   0  0  0  0  0  0  0  0  0  0  0  0
  186.1660  177.1790  140.0670 C   0  0  0  0  0  3  0  0  0  0  0  0
  185.8480  177.9930  144.9670 C   0  0  0  0  0  3  0  0  0  0  0  0
  189.5500  176.1250  143.5270 C   0  0  2  0  0  3  0  0  0  0  0  0
  184.7110  179.0410  140.3720 F   0  0  0  0  0  0  0  0  0  0  0  0
  189.3060  177.1530  146.3550 C   0  0  0  0  0  2  0  0  0  0  0  0
  183.7140  177.9150  146.0220 F   0  0  0  0  0  0  0  0  0  0  0  0
  189.1150  175.9320  142.0760 C   0  0  0  0  0  2  0  0  0  0  0  0
  189.5280  177.6160  143.8920 C   0  0  2  0  0  3  0  0  0  0  0  0
  186.3880  178.6040  142.0080 C   0  0  0  0  0  3  0  0  0  0  0  0
  185.6450  177.3030  147.2730 C   0  0  0  0  0  3  0  0  0  0  0  0
  187.8820  176.7100  141.7170 C   0  0  0  0  0  0  0  0  0  0  0  0
  187.2370  176.4030  140.5140 C   0  0  0  0  0  3  0  0  0  0  0  0
  190.1050  177.8870  145.2830 C   0  0  0  0  0  2  0  0  0  0  0  0
  187.8320  177.3960  146.2300 C   0  0  0  0  0  0  0  0  0  0  0  0
  187.0280  177.1320  147.3420 C   0  0  0  0  0  3  0  0  0  0  0  0
  190.2200  173.8540  145.1290 O   0  0  0  0  0  0  0  0  0  0  0  0
  191.1580  174.4400  144.5260 C   0  0  0  0  0  0  0  0  0  0  0  0
  190.8880  175.5810  143.7060 N   0  0  0  0  0  2  0  0  0  0  0  0
  193.9190  176.4150  145.2950 C   0  0  0  0  0  0  0  0  0  0  0  0
  193.0660  174.2050  146.1380 C   0  0  0  0  0  2  0  0  0  0  0  0
  193.1570  174.3540  142.2750 C   0  0  0  0  0  1  0  0  0  0  0  0
  194.4410  177.5410  145.5030 O   0  0  0  0  0  0  0  0  0  0  0  0
  193.2510  175.6950  146.4310 C   0  0  0  0  0  2  0  0  0  0  0  0
  193.5800  174.5370  143.7220 C   0  0  2  0  0  3  0  0  0  0  0  0
  192.5680  173.9520  144.7160 C   0  0  2  0  0  3  0  0  0  0  0  0
  193.8700  175.9070  143.9930 O   0  0  0  0  0  0  0  0  0  0  0  0
  1 14  1  0  0  0  0
  2  5  1  6  0  0  0
  2 13  1  0  0  0  0
  2  3  1  0  0  0  0
  3 19  1  0  0  0  0
  4 15  2  0  0  0  0
  6 17  1  0  0  0  0
  6  1  2  0  0  0  0
  7  3  2  0  0  0  0
  7  4  1  0  0  0  0
  8 23  1  6  0  0  0
  8 13  1  0  0  0  0
  9  1  1  0  0  0  0
 11  4  1  0  0  0  0
 12  8  1  0  0  0  0
 13 18  1  1  0  0  0
 14  5  2  0  0  0  0
 15 20  1  0  0  0  0
 16 12  1  0  0  0  0
 16  5  1  0  0  0  0
 17 16  2  0  0  0  0
 18 10  1  0  0  0  0
 19 10  1  0  0  0  0
 19 20  2  0  0  0  0
 22 21  2  0  0  0  0
 23 22  1  0  0  0  0
 24 27  2  0  0  0  0
 24 28  1  0  0  0  0
 25 28  1  0  0  0  0
 29 26  1  6  0  0  0
 29 31  1  0  0  0  0
 29 30  1  0  0  0  0
 30 22  1  1  0  0  0
 30 25  1  0  0  0  0
 31 24  1  0  0  0  0
M  END
>  <MODEL>
1

>  <REMARK>
 VINA RESULT:      -9.2      0.000      0.000
  Name = 
  2 active torsions:
  status: ('A' for Active; 'I' for Inactive)
    1  A    between atoms: C_5  and  C_30
    2  A    between atoms: C_10  and  N_16
                            x       y       z     vdW  Elec       q    Type
                         _______ _______ _______ _____ _____    ______ ____

>  <TORSDO>
F 2

$$$$
=
 OpenBabel11112416553D

 31 35  0  0  1  0  0  0  0  0999 V2000
  184.7370  177.9380  146.7690 C   0  0  0  0  0  0  0  0  0  0  0  0
  187.0220  176.1320  144.3190 C   0  0  2  0  0  3  0  0  0  0  0  0
  186.7840  176.7740  142.9560 C   0  0  0  0  0  0  0  0  0  0  0  0
  185.3260  178.0200  141.4530 C   0  0  0  0  0  0  0  0  0  0  0  0
  186.5660  176.9920  145.4770 C   0  0  0  0  0  0  0  0  0  0  0  0
  185.6510  178.6360  147.5600 C   0  0  0  0  0  3  0  0  0  0  0  0
  185.6010  177.4930  142.7170 C   0  0  0  0  0  3  0  0  0  0  0  0
  189.3860  176.8470  144.8430 C   0  0  2  0  0  3  0  0  0  0  0  0
  183.4080  178.0580  147.0020 F   0  0  0  0  0  0  0  0  0  0  0  0
  188.9570  175.7950  142.0470 C   0  0  0  0  0  2  0  0  0  0  0  0
  184.1870  178.7220  141.2460 F   0  0  0  0  0  0  0  0  0  0  0  0
  188.9700  177.4770  146.1710 C   0  0  0  0  0  2  0  0  0  0  0  0
  188.4740  175.6580  144.5120 C   0  0  2  0  0  3  0  0  0  0  0  0
  185.1930  177.1170  145.7350 C   0  0  0  0  0  3  0  0  0  0  0  0
  186.2200  177.8160  140.4030 C   0  0  0  0  0  3  0  0  0  0  0  0
  187.4880  177.6940  146.2860 C   0  0  0  0  0  0  0  0  0  0  0  0
  187.0210  178.5050  147.3260 C   0  0  0  0  0  3  0  0  0  0  0  0
  188.9400  174.8890  143.2740 C   0  0  0  0  0  2  0  0  0  0  0  0
  187.6670  176.5400  141.8730 C   0  0  0  0  0  0  0  0  0  0  0  0
  187.3870  177.0790  140.6150 C   0  0  0  0  0  3  0  0  0  0  0  0
  191.5700  177.9480  143.3620 O   0  0  0  0  0  0  0  0  0  0  0  0
  191.8210  177.0040  144.1570 C   0  0  0  0  0  0  0  0  0  0  0  0
  190.7720  176.4110  144.9300 N   0  0  0  0  0  2  0  0  0  0  0  0
  192.7400  173.6570  144.4190 C   0  0  0  0  0  0  0  0  0  0  0  0
  193.5800  175.5940  143.0550 C   0  0  0  0  0  2  0  0  0  0  0  0
  193.1930  176.5050  146.7920 C   0  0  0  0  0  1  0  0  0  0  0  0
  192.4390  172.4400  144.5280 O   0  0  0  0  0  0  0  0  0  0  0  0
  192.7970  174.2800  143.0550 C   0  0  0  0  0  2  0  0  0  0  0  0
  193.5340  175.7120  145.5430 C   0  0  2  0  0  3  0  0  0  0  0  0
  193.2270  176.4780  144.2500 C   0  0  2  0  0  3  0  0  0  0  0  0
  192.9060  174.4310  145.5720 O   0  0  0  0  0  0  0  0  0  0  0  0
  1  9  1  0  0  0  0
  1  6  1  0  0  0  0
  2  3  1  6  0  0  0
  2 13  1  0  0  0  0
  2  5  1  0  0  0  0
  4  7  2  0  0  0  0
  5 14  1  0  0  0  0
  5 16  2  0  0  0  0
  7  3  1  0  0  0  0
  8 23  1  1  0  0  0
  8 12  1  0  0  0  0
 10 18  1  0  0  0  0
 11  4  1  0  0  0  0
 12 16  1  0  0  0  0
 13 18  1  6  0  0  0
 13  8  1  0  0  0  0
 14  1  2  0  0  0  0
 15 20  2  0  0  0  0
 15  4  1  0  0  0  0
 16 17  1  0  0  0  0
 17  6  2  0  0  0  0
 19 10  1  0  0  0  0
 19  3  2  0  0  0  0
 20 19  1  0  0  0  0
 21 22  2  0  0  0  0
 22 23  1  0  0  0  0
 24 27  2  0  0  0  0
 24 31  1  0  0  0  0
 25 30  1  0  0  0  0
 28 25  1  0  0  0  0
 28 24  1  0  0  0  0
 29 31  1  0  0  0  0
 29 26  1  1  0  0  0
 30 22  1  1  0  0  0
 30 29  1  0  0  0  0
M  END
>  <MODEL>
2

>  <REMARK>
 VINA RESULT:      -9.0      1.404      4.467
  Name = 
  2 active torsions:
  status: ('A' for Active; 'I' for Inactive)
    1  A    between atoms: C_5  and  C_30
    2  A    between atoms: C_10  and  N_16
                            x       y       z     vdW  Elec       q    Type
                         _______ _______ _______ _____ _____    ______ ____

>  <TORSDO>
F 2

$$$$
=
 OpenBabel11112416553D

 31 35  0  0  1  0  0  0  0  0999 V2000
  194.3950  176.3830  145.1510 C   0  0  0  0  0  0  0  0  0  0  0  0
  190.9870  177.0200  143.5830 C   0  0  2  0  0  3  0  0  0  0  0  0
  190.6540  175.7820  142.7580 C   0  0  0  0  0  0  0  0  0  0  0  0
  191.4110  173.8210  141.5260 C   0  0  0  0  0  0  0  0  0  0  0  0
  192.0560  176.7790  144.6270 C   0  0  0  0  0  0  0  0  0  0  0  0
  194.0750  176.2510  146.5030 C   0  0  0  0  0  3  0  0  0  0  0  0
  191.6820  174.9150  142.3490 C   0  0  0  0  0  3  0  0  0  0  0  0
  189.2810  176.9000  145.4420 C   0  0  2  0  0  3  0  0  0  0  0  0
  195.6800  176.2490  144.7430 F   0  0  0  0  0  0  0  0  0  0  0  0
  188.1880  176.4280  142.6670 C   0  0  0  0  0  2  0  0  0  0  0  0
  192.4130  172.9890  141.1550 F   0  0  0  0  0  0  0  0  0  0  0  0
  190.3600  176.9450  146.5220 C   0  0  0  0  0  2  0  0  0  0  0  0
  189.7410  177.6800  144.2020 C   0  0  2  0  0  3  0  0  0  0  0  0
  193.3910  176.6490  144.2180 C   0  0  0  0  0  3  0  0  0  0  0  0
  190.1100  173.5890  141.0800 C   0  0  0  0  0  3  0  0  0  0  0  0
  191.7370  176.6540  145.9980 C   0  0  0  0  0  0  0  0  0  0  0  0
  192.7520  176.3980  146.9250 C   0  0  0  0  0  3  0  0  0  0  0  0
  188.6390  177.8040  143.1470 C   0  0  0  0  0  2  0  0  0  0  0  0
  189.3440  175.5590  142.2690 C   0  0  0  0  0  0  0  0  0  0  0  0
  189.0810  174.4550  141.4520 C   0  0  0  0  0  3  0  0  0  0  0  0
  187.5210  175.6230  147.2980 O   0  0  0  0  0  0  0  0  0  0  0  0
  187.2080  176.7740  146.8940 C   0  0  0  0  0  0  0  0  0  0  0  0
  188.0480  177.4680  145.9670 N   0  0  0  0  0  2  0  0  0  0  0  0
  185.3520  179.1800  145.1960 C   0  0  0  0  0  0  0  0  0  0  0  0
  184.7610  177.0650  146.4210 C   0  0  0  0  0  2  0  0  0  0  0  0
  187.1200  179.3320  148.4830 C   0  0  0  0  0  1  0  0  0  0  0  0
  185.1970  179.9650  144.2250 O   0  0  0  0  0  0  0  0  0  0  0  0
  184.9110  177.7510  145.0620 C   0  0  0  0  0  2  0  0  0  0  0  0
  185.9800  178.9090  147.5730 C   0  0  2  0  0  3  0  0  0  0  0  0
  185.9180  177.3900  147.3640 C   0  0  2  0  0  3  0  0  0  0  0  0
  186.0300  179.6200  146.3380 O   0  0  0  0  0  0  0  0  0  0  0  0
  1  6  1  0  0  0  0
  2  3  1  1  0  0  0
  2 13  1  0  0  0  0
  2  5  1  0  0  0  0
  4  7  2  0  0  0  0
  5 16  2  0  0  0  0
  6 17  2  0  0  0  0
  7  3  1  0  0  0  0
  8 23  1  1  0  0  0
  8 12  1  0  0  0  0
  9  1  1  0  0  0  0
 10 18  1  0  0  0  0
 11  4  1  0  0  0  0
 13 18  1  6  0  0  0
 13  8  1  0  0  0  0
 14  5  1  0  0  0  0
 14  1  2  0  0  0  0
 15 20  2  0  0  0  0
 15  4  1  0  0  0  0
 16 12  1  0  0  0  0
 16 17  1  0  0  0  0
 19 10  1  0  0  0  0
 19  3  2  0  0  0  0
 20 19  1  0  0  0  0
 22 21  2  0  0  0  0
 23 22  1  0  0  0  0
 24 31  1  0  0  0  0
 25 30  1  0  0  0  0
 27 24  2  0  0  0  0
 28 24  1  0  0  0  0
 28 25  1  0  0  0  0
 29 26  1  1  0  0  0
 30 22  1  6  0  0  0
 30 29  1  0  0  0  0
 31 29  1  0  0  0  0
M  END
>  <MODEL>
3

>  <REMARK>
 VINA RESULT:      -9.0      3.769      7.468
  Name = 
  2 active torsions:
  status: ('A' for Active; 'I' for Inactive)
    1  A    between atoms: C_5  and  C_30
    2  A    between atoms: C_10  and  N_16
                            x       y       z     vdW  Elec       q    Type
                         _______ _______ _______ _____ _____    ______ ____

>  <TORSDO>
F 2

$$$$
=
 OpenBabel11112416553D

 31 35  0  0  1  0  0  0  0  0999 V2000
  184.8520  178.2890  146.8310 C   0  0  0  0  0  0  0  0  0  0  0  0
  187.4110  175.9100  145.3220 C   0  0  2  0  0  3  0  0  0  0  0  0
  187.4960  176.2560  143.8390 C   0  0  0  0  0  0  0  0  0  0  0  0
  186.4670  177.2090  141.8470 C   0  0  0  0  0  0  0  0  0  0  0  0
  186.8110  177.0160  146.1630 C   0  0  0  0  0  0  0  0  0  0  0  0
  185.6490  179.1030  147.6370 C   0  0  0  0  0  3  0  0  0  0  0  0
  186.4460  176.9540  143.2200 C   0  0  0  0  0  3  0  0  0  0  0  0
  189.6790  176.6260  146.1700 C   0  0  2  0  0  3  0  0  0  0  0  0
  183.5170  178.5100  146.7550 F   0  0  0  0  0  0  0  0  0  0  0  0
  189.7150  175.0180  143.6160 C   0  0  0  0  0  2  0  0  0  0  0  0
  185.4510  177.8970  141.2720 F   0  0  0  0  0  0  0  0  0  0  0  0
  189.0660  177.5410  147.2280 C   0  0  0  0  0  2  0  0  0  0  0  0
  188.7530  175.4310  145.9030 C   0  0  2  0  0  3  0  0  0  0  0  0
  185.4300  177.2490  146.1000 C   0  0  0  0  0  3  0  0  0  0  0  0
  187.5280  176.7490  141.0680 C   0  0  0  0  0  3  0  0  0  0  0  0
  187.6140  177.8370  146.9880 C   0  0  0  0  0  0  0  0  0  0  0  0
  187.0230  178.8700  147.7230 C   0  0  0  0  0  3  0  0  0  0  0  0
  189.3850  174.3970  144.9690 C   0  0  0  0  0  2  0  0  0  0  0  0
  188.5500  175.7600  143.0320 C   0  0  0  0  0  0  0  0  0  0  0  0
  188.5660  176.0290  141.6610 C   0  0  0  0  0  3  0  0  0  0  0  0
  192.1680  177.0800  144.8390 O   0  0  0  0  0  0  0  0  0  0  0  0
  192.1920  176.4220  145.9120 C   0  0  0  0  0  0  0  0  0  0  0  0
  190.9810  176.1630  146.6280 N   0  0  0  0  0  2  0  0  0  0  0  0
  195.1920  176.3950  144.1460 C   0  0  0  0  0  0  0  0  0  0  0  0
  194.5660  176.9680  146.5130 C   0  0  0  0  0  2  0  0  0  0  0  0
  193.0650  173.5870  145.3880 C   0  0  0  0  0  1  0  0  0  0  0  0
  195.8540  176.6230  143.1010 O   0  0  0  0  0  0  0  0  0  0  0  0
  194.9910  177.5000  145.1430 C   0  0  0  0  0  2  0  0  0  0  0  0
  194.0630  174.7170  145.5700 C   0  0  2  0  0  3  0  0  0  0  0  0
  193.5030  175.8750  146.4060 C   0  0  2  0  0  3  0  0  0  0  0  0
  194.5630  175.1560  144.3080 O   0  0  0  0  0  0  0  0  0  0  0  0
  1  6  1  0  0  0  0
  2  3  1  6  0  0  0
  2 13  1  0  0  0  0
  2  5  1  0  0  0  0
  4  7  2  0  0  0  0
  5 16  2  0  0  0  0
  6 17  2  0  0  0  0
  7  3  1  0  0  0  0
  8 23  1  1  0  0  0
  8 12  1  0  0  0  0
  9  1  1  0  0  0  0
 10 18  1  0  0  0  0
 11  4  1  0  0  0  0
 13 18  1  6  0  0  0
 13  8  1  0  0  0  0
 14  5  1  0  0  0  0
 14  1  2  0  0  0  0
 15 20  2  0  0  0  0
 15  4  1  0  0  0  0
 16 12  1  0  0  0  0
 16 17  1  0  0  0  0
 19 10  1  0  0  0  0
 19  3  2  0  0  0  0
 20 19  1  0  0  0  0
 21 22  2  0  0  0  0
 22 23  1  0  0  0  0
 24 31  1  0  0  0  0
 24 28  1  0  0  0  0
 27 24  2  0  0  0  0
 28 25  1  0  0  0  0
 29 26  1  6  0  0  0
 29 30  1  0  0  0  0
 30 22  1  6  0  0  0
 30 25  1  0  0  0  0
 31 29  1  0  0  0  0
M  END
>  <MODEL>
4

>  <REMARK>
 VINA RESULT:      -8.9      1.673      4.283
  Name = 
  2 active torsions:
  status: ('A' for Active; 'I' for Inactive)
    1  A    between atoms: C_5  and  C_30
    2  A    between atoms: C_10  and  N_16
                            x       y       z     vdW  Elec       q    Type
                         _______ _______ _______ _____ _____    ______ ____

>  <TORSDO>
F 2

$$$$
=
 OpenBabel11112416553D

 31 35  0  0  1  0  0  0  0  0999 V2000
  185.2440  177.8180  146.8420 C   0  0  0  0  0  0  0  0  0  0  0  0
  187.0240  175.9860  144.0200 C   0  0  2  0  0  3  0  0  0  0  0  0
  186.6450  176.7100  142.7320 C   0  0  0  0  0  0  0  0  0  0  0  0
  185.0870  178.1250  141.5040 C   0  0  0  0  0  0  0  0  0  0  0  0
  186.7990  176.8170  145.2650 C   0  0  0  0  0  0  0  0  0  0  0  0
  186.3080  178.4130  147.5210 C   0  0  0  0  0  3  0  0  0  0  0  0
  185.4970  177.5180  142.6930 C   0  0  0  0  0  3  0  0  0  0  0  0
  189.4850  176.5140  144.2280 C   0  0  2  0  0  3  0  0  0  0  0  0
  183.9740  178.0150  147.2680 F   0  0  0  0  0  0  0  0  0  0  0  0
  188.5910  175.6340  141.4820 C   0  0  0  0  0  2  0  0  0  0  0  0
  183.9850  178.9120  141.4910 F   0  0  0  0  0  0  0  0  0  0  0  0
  189.3060  177.1030  145.6260 C   0  0  0  0  0  2  0  0  0  0  0  0
  188.4490  175.4070  143.9840 C   0  0  2  0  0  3  0  0  0  0  0  0
  185.4890  177.0210  145.7210 C   0  0  0  0  0  3  0  0  0  0  0  0
  185.8080  177.9140  140.3300 C   0  0  0  0  0  3  0  0  0  0  0  0
  187.8750  177.4140  145.9610 C   0  0  0  0  0  0  0  0  0  0  0  0
  187.6190  178.2020  147.0880 C   0  0  0  0  0  3  0  0  0  0  0  0
  188.6800  174.6710  142.6630 C   0  0  0  0  0  2  0  0  0  0  0  0
  187.3480  176.4720  141.5250 C   0  0  0  0  0  0  0  0  0  0  0  0
  186.9350  177.0910  140.3420 C   0  0  0  0  0  3  0  0  0  0  0  0
  190.5560  174.3190  145.7140 O   0  0  0  0  0  0  0  0  0  0  0  0
  191.3110  174.8800  144.8750 C   0  0  0  0  0  0  0  0  0  0  0  0
  190.8330  175.9820  144.0980 N   0  0  0  0  0  2  0  0  0  0  0  0
  194.1690  176.7880  145.4270 C   0  0  0  0  0  0  0  0  0  0  0  0
  193.4780  174.4560  146.0670 C   0  0  0  0  0  2  0  0  0  0  0  0
  192.8720  175.1780  142.3170 C   0  0  0  0  0  1  0  0  0  0  0  0
  194.7220  177.8830  145.7060 O   0  0  0  0  0  0  0  0  0  0  0  0
  193.7150  175.8900  146.5420 C   0  0  0  0  0  2  0  0  0  0  0  0
  193.5490  175.1560  143.6760 C   0  0  2  0  0  3  0  0  0  0  0  0
  192.7300  174.4050  144.7350 C   0  0  2  0  0  3  0  0  0  0  0  0
  193.8860  176.4770  144.0930 O   0  0  0  0  0  0  0  0  0  0  0  0
  1  9  1  0  0  0  0
  1  6  1  0  0  0  0
  2  3  1  6  0  0  0
  2  5  1  0  0  0  0
  4  7  2  0  0  0  0
  5 14  1  0  0  0  0
  5 16  2  0  0  0  0
  7  3  1  0  0  0  0
  8 23  1  1  0  0  0
  8 12  1  0  0  0  0
 10 19  1  0  0  0  0
 10 18  1  0  0  0  0
 11  4  1  0  0  0  0
 12 16  1  0  0  0  0
 13 18  1  6  0  0  0
 13  2  1  0  0  0  0
 13  8  1  0  0  0  0
 14  1  2  0  0  0  0
 15 20  2  0  0  0  0
 15  4  1  0  0  0  0
 16 17  1  0  0  0  0
 17  6  2  0  0  0  0
 19  3  2  0  0  0  0
 20 19  1  0  0  0  0
 22 21  2  0  0  0  0
 23 22  1  0  0  0  0
 24 27  2  0  0  0  0
 24 28  1  0  0  0  0
 25 28  1  0  0  0  0
 29 26  1  6  0  0  0
 29 31  1  0  0  0  0
 29 30  1  0  0  0  0
 30 22  1  1  0  0  0
 30 25  1  0  0  0  0
 31 24  1  0  0  0  0
M  END
>  <MODEL>
5

>  <REMARK>
 VINA RESULT:      -8.5      0.988      3.963
  Name = 
  2 active torsions:
  status: ('A' for Active; 'I' for Inactive)
    1  A    between atoms: C_5  and  C_30
    2  A    between atoms: C_10  and  N_16
                            x       y       z     vdW  Elec       q    Type
                         _______ _______ _______ _____ _____    ______ ____

>  <TORSDO>
F 2

$$$$
=
 OpenBabel11112416553D

 31 35  0  0  1  0  0  0  0  0999 V2000
  191.9770  173.1300  141.5220 C   0  0  0  0  0  0  0  0  0  0  0  0
  191.1320  174.0260  145.1230 C   0  0  2  0  0  3  0  0  0  0  0  0
  192.2040  175.0060  145.5850 C   0  0  0  0  0  0  0  0  0  0  0  0
  194.4600  175.9010  145.3650 C   0  0  0  0  0  0  0  0  0  0  0  0
  191.0280  173.9130  143.6170 C   0  0  0  0  0  0  0  0  0  0  0  0
  190.9360  173.7370  140.8170 C   0  0  0  0  0  3  0  0  0  0  0  0
  193.4350  175.0690  144.9100 C   0  0  0  0  0  3  0  0  0  0  0  0
  189.0670  175.4790  145.0610 C   0  0  2  0  0  3  0  0  0  0  0  0
  192.9470  172.4600  140.8540 F   0  0  0  0  0  0  0  0  0  0  0  0
  190.7580  175.7600  147.5460 C   0  0  0  0  0  2  0  0  0  0  0  0
  195.6340  175.9570  144.6920 F   0  0  0  0  0  0  0  0  0  0  0  0
  188.7920  175.1380  143.5980 C   0  0  0  0  0  2  0  0  0  0  0  0
  189.7570  174.2990  145.7590 C   0  0  2  0  0  3  0  0  0  0  0  0
  192.0200  173.2150  142.9150 C   0  0  0  0  0  3  0  0  0  0  0  0
  194.2780  176.6660  146.5160 C   0  0  0  0  0  3  0  0  0  0  0  0
  189.9700  174.5190  142.9010 C   0  0  0  0  0  0  0  0  0  0  0  0
  189.9310  174.4190  141.5060 C   0  0  0  0  0  3  0  0  0  0  0  0
  189.9150  174.5200  147.2650 C   0  0  0  0  0  2  0  0  0  0  0  0
  192.0430  175.7590  146.7740 C   0  0  0  0  0  0  0  0  0  0  0  0
  193.0720  176.5960  147.2160 C   0  0  0  0  0  3  0  0  0  0  0  0
  188.5140  177.8820  146.5080 O   0  0  0  0  0  0  0  0  0  0  0  0
  187.5990  177.0190  146.4380 C   0  0  0  0  0  0  0  0  0  0  0  0
  187.8120  175.7970  145.7260 N   0  0  0  0  0  2  0  0  0  0  0  0
  185.0340  179.0970  145.3340 C   0  0  0  0  0  0  0  0  0  0  0  0
  185.1030  176.7890  146.3300 C   0  0  0  0  0  2  0  0  0  0  0  0
  187.2210  179.3130  148.3540 C   0  0  0  0  0  1  0  0  0  0  0  0
  184.5670  179.9210  144.5060 O   0  0  0  0  0  0  0  0  0  0  0  0
  184.8910  177.6260  145.0670 C   0  0  0  0  0  2  0  0  0  0  0  0
  186.0690  178.7350  147.5510 C   0  0  2  0  0  3  0  0  0  0  0  0
  186.2990  177.2720  147.1500 C   0  0  2  0  0  3  0  0  0  0  0  0
  185.7740  179.5620  146.4270 O   0  0  0  0  0  0  0  0  0  0  0  0
  1 14  1  0  0  0  0
  2  5  1  6  0  0  0
  2  3  1  0  0  0  0
  2 13  1  0  0  0  0
  3 19  1  0  0  0  0
  4 15  2  0  0  0  0
  6 17  1  0  0  0  0
  6  1  2  0  0  0  0
  7  4  1  0  0  0  0
  7  3  2  0  0  0  0
  8 23  1  1  0  0  0
  8 13  1  0  0  0  0
  9  1  1  0  0  0  0
 11  4  1  0  0  0  0
 12  8  1  0  0  0  0
 13 18  1  1  0  0  0
 14  5  2  0  0  0  0
 15 20  1  0  0  0  0
 16 12  1  0  0  0  0
 16  5  1  0  0  0  0
 17 16  2  0  0  0  0
 18 10  1  0  0  0  0
 19 20  2  0  0  0  0
 19 10  1  0  0  0  0
 22 21  2  0  0  0  0
 23 22  1  0  0  0  0
 24 31  1  0  0  0  0
 25 30  1  0  0  0  0
 27 24  2  0  0  0  0
 28 24  1  0  0  0  0
 28 25  1  0  0  0  0
 29 26  1  6  0  0  0
 30 22  1  6  0  0  0
 30 29  1  0  0  0  0
 31 29  1  0  0  0  0
M  END
>  <MODEL>
6

>  <REMARK>
 VINA RESULT:      -8.2      3.991      7.156
  Name = 
  2 active torsions:
  status: ('A' for Active; 'I' for Inactive)
    1  A    between atoms: C_5  and  C_30
    2  A    between atoms: C_10  and  N_16
                            x       y       z     vdW  Elec       q    Type
                         _______ _______ _______ _____ _____    ______ ____

>  <TORSDO>
F 2

$$$$
=
 OpenBabel11112416553D

 31 35  0  0  1  0  0  0  0  0999 V2000
  186.2920  178.0030  140.7630 C   0  0  0  0  0  0  0  0  0  0  0  0
  188.3910  177.8470  143.9340 C   0  0  2  0  0  3  0  0  0  0  0  0
  187.4210  177.5710  145.0780 C   0  0  0  0  0  0  0  0  0  0  0  0
  185.1610  177.6820  145.9810 C   0  0  0  0  0  0  0  0  0  0  0  0
  187.8320  177.4930  142.5730 C   0  0  0  0  0  0  0  0  0  0  0  0
  186.6960  176.8500  140.0880 C   0  0  0  0  0  3  0  0  0  0  0  0
  186.0540  177.8500  144.9210 C   0  0  0  0  0  3  0  0  0  0  0  0
  189.7260  175.7050  143.8350 C   0  0  2  0  0  3  0  0  0  0  0  0
  185.3470  178.8080  140.2220 F   0  0  0  0  0  0  0  0  0  0  0  0
  189.3320  176.8430  146.6040 C   0  0  0  0  0  2  0  0  0  0  0  0
  183.8440  177.9430  145.8050 F   0  0  0  0  0  0  0  0  0  0  0  0
  189.3930  175.4900  142.3600 C   0  0  0  0  0  2  0  0  0  0  0  0
  189.7740  177.2070  144.1530 C   0  0  2  0  0  3  0  0  0  0  0  0
  186.8600  178.3240  141.9980 C   0  0  0  0  0  3  0  0  0  0  0  0
  185.6280  177.2540  147.2230 C   0  0  0  0  0  3  0  0  0  0  0  0
  188.2450  176.3310  141.8820 C   0  0  0  0  0  0  0  0  0  0  0  0
  187.6770  176.0240  140.6410 C   0  0  0  0  0  3  0  0  0  0  0  0
  190.2580  177.4880  145.5770 C   0  0  0  0  0  2  0  0  0  0  0  0
  187.8900  177.1730  146.3540 C   0  0  0  0  0  0  0  0  0  0  0  0
  186.9880  176.9990  147.4070 C   0  0  0  0  0  3  0  0  0  0  0  0
  192.2110  176.3220  142.5630 O   0  0  0  0  0  0  0  0  0  0  0  0
  192.2180  175.4370  143.4590 C   0  0  0  0  0  0  0  0  0  0  0  0
  191.0080  175.0850  144.1360 N   0  0  0  0  0  2  0  0  0  0  0  0
  192.5810  172.0220  144.0260 C   0  0  0  0  0  0  0  0  0  0  0  0
  193.8740  173.7160  142.6910 C   0  0  0  0  0  2  0  0  0  0  0  0
  193.1420  174.9440  146.2840 C   0  0  0  0  0  1  0  0  0  0  0  0
  192.0890  170.8710  144.1550 O   0  0  0  0  0  0  0  0  0  0  0  0
  192.9090  172.5300  142.6510 C   0  0  0  0  0  2  0  0  0  0  0  0
  193.5210  174.0210  145.1390 C   0  0  2  0  0  3  0  0  0  0  0  0
  193.5050  174.7260  143.7760 C   0  0  2  0  0  3  0  0  0  0  0  0
  192.7090  172.8480  145.1470 O   0  0  0  0  0  0  0  0  0  0  0  0
  1 14  1  0  0  0  0
  2  5  1  6  0  0  0
  2 13  1  0  0  0  0
  2  3  1  0  0  0  0
  3 19  1  0  0  0  0
  4 15  2  0  0  0  0
  6 17  1  0  0  0  0
  6  1  2  0  0  0  0
  7  3  2  0  0  0  0
  7  4  1  0  0  0  0
  8 23  1  6  0  0  0
  8 13  1  0  0  0  0
  9  1  1  0  0  0  0
 11  4  1  0  0  0  0
 12  8  1  0  0  0  0
 13 18  1  1  0  0  0
 14  5  2  0  0  0  0
 15 20  1  0  0  0  0
 16 12  1  0  0  0  0
 16  5  1  0  0  0  0
 17 16  2  0  0  0  0
 18 10  1  0  0  0  0
 19 10  1  0  0  0  0
 19 20  2  0  0  0  0
 21 22  2  0  0  0  0
 22 23  1  0  0  0  0
 24 27  2  0  0  0  0
 24 31  1  0  0  0  0
 25 30  1  0  0  0  0
 28 25  1  0  0  0  0
 28 24  1  0  0  0  0
 29 31  1  0  0  0  0
 29 26  1  1  0  0  0
 30 22  1  6  0  0  0
 30 29  1  0  0  0  0
M  END
>  <MODEL>
7

>  <REMARK>
 VINA RESULT:      -8.1      1.186      2.339
  Name = 
  2 active torsions:
  status: ('A' for Active; 'I' for Inactive)
    1  A    between atoms: C_5  and  C_30
    2  A    between atoms: C_10  and  N_16
                            x       y       z     vdW  Elec       q    Type
                         _______ _______ _______ _____ _____    ______ ____

>  <TORSDO>
F 2

$$$$
=
 OpenBabel11112416553D

 31 35  0  0  1  0  0  0  0  0999 V2000
  185.7900  179.2040  143.2480 C   0  0  0  0  0  0  0  0  0  0  0  0
  188.8630  176.9710  143.4940 C   0  0  2  0  0  3  0  0  0  0  0  0
  188.7320  176.2020  144.8040 C   0  0  0  0  0  0  0  0  0  0  0  0
  187.8180  176.0420  147.0570 C   0  0  0  0  0  0  0  0  0  0  0  0
  187.5540  177.5500  143.0020 C   0  0  0  0  0  0  0  0  0  0  0  0
  185.0900  178.6220  142.1900 C   0  0  0  0  0  3  0  0  0  0  0  0
  187.8910  176.6860  145.8200 C   0  0  0  0  0  3  0  0  0  0  0  0
  188.5930  175.1450  141.7700 C   0  0  2  0  0  3  0  0  0  0  0  0
  185.2780  180.2820  143.8880 F   0  0  0  0  0  0  0  0  0  0  0  0
  190.4670  174.4930  144.0460 C   0  0  0  0  0  2  0  0  0  0  0  0
  186.9900  176.5160  148.0180 F   0  0  0  0  0  0  0  0  0  0  0  0
  187.4380  175.8730  141.0860 C   0  0  0  0  0  2  0  0  0  0  0  0
  189.5650  176.1590  142.3900 C   0  0  2  0  0  3  0  0  0  0  0  0
  187.0180  178.6720  143.6490 C   0  0  0  0  0  3  0  0  0  0  0  0
  188.6030  174.9160  147.3040 C   0  0  0  0  0  3  0  0  0  0  0  0
  186.8460  176.9680  141.9250 C   0  0  0  0  0  0  0  0  0  0  0  0
  185.6220  177.5150  141.5250 C   0  0  0  0  0  3  0  0  0  0  0  0
  190.8240  175.4950  142.9530 C   0  0  0  0  0  2  0  0  0  0  0  0
  189.5530  175.0800  145.0790 C   0  0  0  0  0  0  0  0  0  0  0  0
  189.4650  174.4380  146.3170 C   0  0  0  0  0  3  0  0  0  0  0  0
  188.7330  172.2900  141.8230 O   0  0  0  0  0  0  0  0  0  0  0  0
  189.3200  172.8850  140.8810 C   0  0  0  0  0  0  0  0  0  0  0  0
  189.2850  174.3130  140.7960 N   0  0  0  0  0  2  0  0  0  0  0  0
  192.4550  173.6830  139.5970 C   0  0  0  0  0  0  0  0  0  0  0  0
  191.4090  171.5630  140.4540 C   0  0  0  0  0  2  0  0  0  0  0  0
  189.1320  173.3890  137.9170 C   0  0  0  0  0  1  0  0  0  0  0  0
  193.4400  174.4610  139.5060 O   0  0  0  0  0  0  0  0  0  0  0  0
  192.4050  172.6920  140.7240 C   0  0  0  0  0  2  0  0  0  0  0  0
  190.3840  172.8170  138.5600 C   0  0  2  0  0  3  0  0  0  0  0  0
  190.0930  172.0790  139.8740 C   0  0  2  0  0  3  0  0  0  0  0  0
  191.3760  173.8290  138.7190 O   0  0  0  0  0  0  0  0  0  0  0  0
  1 14  1  0  0  0  0
  1  9  1  0  0  0  0
  2  5  1  6  0  0  0
  2  3  1  0  0  0  0
  3 19  2  0  0  0  0
  3  7  1  0  0  0  0
  4 15  1  0  0  0  0
  4 11  1  0  0  0  0
  5 14  2  0  0  0  0
  6  1  2  0  0  0  0
  7  4  2  0  0  0  0
  8 23  1  6  0  0  0
  8 13  1  0  0  0  0
 10 19  1  0  0  0  0
 12  8  1  0  0  0  0
 12 16  1  0  0  0  0
 13 18  1  1  0  0  0
 13  2  1  0  0  0  0
 16  5  1  0  0  0  0
 17 16  2  0  0  0  0
 17  6  1  0  0  0  0
 18 10  1  0  0  0  0
 19 20  1  0  0  0  0
 20 15  2  0  0  0  0
 22 21  2  0  0  0  0
 23 22  1  0  0  0  0
 24 28  1  0  0  0  0
 25 28  1  0  0  0  0
 27 24  2  0  0  0  0
 29 26  1  1  0  0  0
 29 31  1  0  0  0  0
 29 30  1  0  0  0  0
 30 25  1  0  0  0  0
 30 22  1  1  0  0  0
 31 24  1  0  0  0  0
M  END
>  <MODEL>
8

>  <REMARK>
 VINA RESULT:      -8.0      2.869      4.113
  Name = 
  2 active torsions:
  status: ('A' for Active; 'I' for Inactive)
    1  A    between atoms: C_5  and  C_30
    2  A    between atoms: C_10  and  N_16
                            x       y       z     vdW  Elec       q    Type
                         _______ _______ _______ _____ _____    ______ ____

>  <TORSDO>
F 2

$$$$
=
 OpenBabel11112416553D

 31 35  0  0  1  0  0  0  0  0999 V2000
  185.4340  177.5710  142.7370 C   0  0  0  0  0  0  0  0  0  0  0  0
  188.1350  174.9370  143.2380 C   0  0  2  0  0  3  0  0  0  0  0  0
  188.6700  174.6000  141.8510 C   0  0  0  0  0  0  0  0  0  0  0  0
  188.3320  174.5150  139.4390 C   0  0  0  0  0  0  0  0  0  0  0  0
  187.4020  176.2600  143.2960 C   0  0  0  0  0  0  0  0  0  0  0  0
  186.0230  178.7050  143.2980 C   0  0  0  0  0  3  0  0  0  0  0  0
  187.8980  174.8880  140.7130 C   0  0  0  0  0  3  0  0  0  0  0  0
  190.1090  176.0940  144.3080 C   0  0  2  0  0  3  0  0  0  0  0  0
  184.1980  177.6510  142.1860 F   0  0  0  0  0  0  0  0  0  0  0  0
  190.7610  173.5320  142.8480 C   0  0  0  0  0  2  0  0  0  0  0  0
  187.5800  174.8140  138.3530 F   0  0  0  0  0  0  0  0  0  0  0  0
  189.2870  177.3400  144.6290 C   0  0  0  0  0  2  0  0  0  0  0  0
  189.2130  174.8470  144.3340 C   0  0  2  0  0  3  0  0  0  0  0  0
  186.1190  176.3540  142.7380 C   0  0  0  0  0  3  0  0  0  0  0  0
  189.5360  173.8270  139.2870 C   0  0  0  0  0  3  0  0  0  0  0  0
  187.9920  177.4090  143.8720 C   0  0  0  0  0  0  0  0  0  0  0  0
  187.2930  178.6200  143.8730 C   0  0  0  0  0  3  0  0  0  0  0  0
  190.0090  173.5500  144.1760 C   0  0  0  0  0  2  0  0  0  0  0  0
  189.8720  173.8680  141.6880 C   0  0  0  0  0  0  0  0  0  0  0  0
  190.3020  173.5070  140.4080 C   0  0  0  0  0  3  0  0  0  0  0  0
  192.9040  176.2150  143.7180 O   0  0  0  0  0  0  0  0  0  0  0  0
  192.5680  176.0300  144.9180 C   0  0  0  0  0  0  0  0  0  0  0  0
  191.1860  175.9620  145.2790 N   0  0  0  0  0  2  0  0  0  0  0  0
  195.9960  175.9160  144.3240 C   0  0  0  0  0  0  0  0  0  0  0  0
  194.5620  177.0500  146.0490 C   0  0  0  0  0  2  0  0  0  0  0  0
  193.6580  173.3140  145.6320 C   0  0  0  0  0  1  0  0  0  0  0  0
  196.9760  175.9240  143.5340 O   0  0  0  0  0  0  0  0  0  0  0  0
  195.4230  177.2210  144.7970 C   0  0  0  0  0  2  0  0  0  0  0  0
  194.4930  174.5760  145.7600 C   0  0  2  0  0  3  0  0  0  0  0  0
  193.6390  175.8360  145.9560 C   0  0  2  0  0  3  0  0  0  0  0  0
  195.3900  174.7000  144.6580 O   0  0  0  0  0  0  0  0  0  0  0  0
  1 14  2  0  0  0  0
  1  6  1  0  0  0  0
  2  3  1  6  0  0  0
  2  5  1  0  0  0  0
  2 13  1  0  0  0  0
  4  7  1  0  0  0  0
  5 16  2  0  0  0  0
  6 17  2  0  0  0  0
  7  3  2  0  0  0  0
  8 13  1  0  0  0  0
  8 12  1  0  0  0  0
  8 23  1  1  0  0  0
  9  1  1  0  0  0  0
 10 18  1  0  0  0  0
 11  4  1  0  0  0  0
 13 18  1  6  0  0  0
 14  5  1  0  0  0  0
 15  4  2  0  0  0  0
 15 20  1  0  0  0  0
 16 17  1  0  0  0  0
 16 12  1  0  0  0  0
 19  3  1  0  0  0  0
 19 10  1  0  0  0  0
 20 19  2  0  0  0  0
 21 22  2  0  0  0  0
 22 23  1  0  0  0  0
 24 31  1  0  0  0  0
 24 28  1  0  0  0  0
 27 24  2  0  0  0  0
 28 25  1  0  0  0  0
 29 26  1  6  0  0  0
 29 30  1  0  0  0  0
 30 22  1  6  0  0  0
 30 25  1  0  0  0  0
 31 29  1  0  0  0  0
M  END
>  <MODEL>
9

>  <REMARK>
 VINA RESULT:      -7.7      2.155      4.473
  Name = 
  2 active torsions:
  status: ('A' for Active; 'I' for Inactive)
    1  A    between atoms: C_5  and  C_30
    2  A    between atoms: C_10  and  N_16
                            x       y       z     vdW  Elec       q    Type
                         _______ _______ _______ _____ _____    ______ ____

>  <TORSDO>
F 2

$$$$
