=
 OpenBabel11112416503D

 31 35  0  0  1  0  0  0  0  0999 V2000
  190.6800  171.4370  142.5840 C   0  0  0  0  0  0  0  0  0  0  0  0
  190.6570  173.7150  145.6360 C   0  0  2  0  0  3  0  0  0  0  0  0
  191.9450  174.5280  145.6280 C   0  0  0  0  0  0  0  0  0  0  0  0
  194.2230  174.8800  144.8490 C   0  0  0  0  0  0  0  0  0  0  0  0
  190.3240  173.1310  144.2830 C   0  0  0  0  0  0  0  0  0  0  0  0
  189.7440  172.0650  141.7580 C   0  0  0  0  0  3  0  0  0  0  0  0
  193.0330  174.1470  144.8270 C   0  0  0  0  0  3  0  0  0  0  0  0
  189.0080  175.5490  145.1170 C   0  0  2  0  0  3  0  0  0  0  0  0
  191.4960  169.9890  142.0390 Cl  0  0  0  0  0  0  0  0  0  0  0  0
  191.0130  176.0260  147.3470 N   0  0  0  0  0  2  0  0  0  0  0  0
  195.5620  174.4010  143.8290 Cl  0  0  0  0  0  0  0  0  0  0  0  0
  188.6800  174.8880  143.8940 O   0  0  0  0  0  0  0  0  0  0  0  0
  189.4600  174.5280  146.1720 C   0  0  2  0  0  3  0  0  0  0  0  0
  190.9690  171.9680  143.8440 C   0  0  0  0  0  3  0  0  0  0  0  0
  194.3420  175.9940  145.6810 C   0  0  0  0  0  3  0  0  0  0  0  0
  189.3750  173.7570  143.4510 C   0  0  0  0  0  0  0  0  0  0  0  0
  189.0900  173.2210  142.1910 C   0  0  0  0  0  3  0  0  0  0  0  0
  189.8220  175.1970  147.4990 C   0  0  0  0  0  2  0  0  0  0  0  0
  192.0900  175.6320  146.4950 C   0  0  0  0  0  0  0  0  0  0  0  0
  193.2770  176.3690  146.5040 C   0  0  0  0  0  3  0  0  0  0  0  0
  187.9030  176.2750  145.5740 O   0  0  0  0  0  0  0  0  0  0  0  0
  189.4550  177.7470  144.5080 C   0  0  0  0  0  1  0  0  0  0  0  0
  188.0320  177.5430  144.9950 C   0  0  1  0  0  3  0  0  0  0  0  0
  185.2900  178.1290  141.7310 C   0  0  0  0  0  0  0  0  0  0  0  0
  187.5480  178.0000  142.5930 C   0  0  0  0  0  3  0  0  0  0  0  0
  185.1530  177.3850  145.3060 F   0  0  0  0  0  0  0  0  0  0  0  0
  184.3570  178.3460  140.5960 C   0  0  0  0  0  1  0  0  0  0  0  0
  186.6690  178.2010  141.5250 C   0  0  0  0  0  3  0  0  0  0  0  0
  185.6610  177.6470  144.0770 C   0  0  0  0  0  0  0  0  0  0  0  0
  187.0520  177.7250  143.8730 C   0  0  0  0  0  0  0  0  0  0  0  0
  184.7870  177.8510  143.0050 C   0  0  0  0  0  3  0  0  0  0  0  0
  1 14  1  0  0  0  0
  2  5  1  6  0  0  0
  2 13  1  0  0  0  0
  3  2  1  0  0  0  0
  3 19  1  0  0  0  0
  4 15  2  0  0  0  0
  6 17  1  0  0  0  0
  6  1  2  0  0  0  0
  7  4  1  0  0  0  0
  7  3  2  0  0  0  0
  8 21  1  1  0  0  0
  8 13  1  0  0  0  0
  9  1  1  0  0  0  0
 10 18  1  0  0  0  0
 11  4  1  0  0  0  0
 12  8  1  0  0  0  0
 13 18  1  1  0  0  0
 14  5  2  0  0  0  0
 15 20  1  0  0  0  0
 16 12  1  0  0  0  0
 16  5  1  0  0  0  0
 17 16  2  0  0  0  0
 19 20  2  0  0  0  0
 19 10  1  0  0  0  0
 23 22  1  6  0  0  0
 23 21  1  0  0  0  0
 24 31  1  0  0  0  0
 25 30  2  0  0  0  0
 27 24  1  0  0  0  0
 28 24  2  0  0  0  0
 28 25  1  0  0  0  0
 29 26  1  0  0  0  0
 30 29  1  0  0  0  0
 30 23  1  0  0  0  0
 31 29  2  0  0  0  0
M  END
>  <MODEL>
1

>  <REMARK>
 VINA RESULT:      -8.4      0.000      0.000
  Name = 
  3 active torsions:
  status: ('A' for Active; 'I' for Inactive)
    1  A    between atoms: C_5  and  O_16
    2  A    between atoms: C_5  and  C_30
    3  A    between atoms: C_10  and  O_16
                            x       y       z     vdW  Elec       q    Type
                         _______ _______ _______ _____ _____    ______ ____

>  <TORSDO>
F 3

$$$$
=
 OpenBabel11112416503D

 31 35  0  0  1  0  0  0  0  0999 V2000
  195.8290  175.5310  144.3180 C   0  0  0  0  0  0  0  0  0  0  0  0
  192.3260  176.4360  143.1310 C   0  0  2  0  0  3  0  0  0  0  0  0
  191.7880  175.2690  142.3140 C   0  0  0  0  0  0  0  0  0  0  0  0
  192.1520  173.2220  141.0500 C   0  0  0  0  0  0  0  0  0  0  0  0
  193.4770  176.0430  144.0280 C   0  0  0  0  0  0  0  0  0  0  0  0
  195.6090  175.2720  145.6740 C   0  0  0  0  0  3  0  0  0  0  0  0
  192.6480  174.2730  141.8250 C   0  0  0  0  0  3  0  0  0  0  0  0
  190.8390  176.2420  145.1570 C   0  0  2  0  0  3  0  0  0  0  0  0
  197.4360  175.3660  143.6460 Cl  0  0  0  0  0  0  0  0  0  0  0  0
  189.5240  176.2350  142.4190 N   0  0  0  0  0  2  0  0  0  0  0  0
  193.2380  171.9810  140.4650 Cl  0  0  0  0  0  0  0  0  0  0  0  0
  191.9890  175.9660  145.9570 O   0  0  0  0  0  0  0  0  0  0  0  0
  191.2200  177.1250  143.9590 C   0  0  2  0  0  3  0  0  0  0  0  0
  194.7660  175.9160  143.4970 C   0  0  0  0  0  3  0  0  0  0  0  0
  190.7910  173.1630  140.7430 C   0  0  0  0  0  3  0  0  0  0  0  0
  193.2590  175.7910  145.3970 C   0  0  0  0  0  0  0  0  0  0  0  0
  194.3260  175.4050  146.2130 C   0  0  0  0  0  3  0  0  0  0  0  0
  190.0140  177.4440  143.0750 C   0  0  0  0  0  2  0  0  0  0  0  0
  190.4210  175.2200  141.9660 C   0  0  0  0  0  0  0  0  0  0  0  0
  189.9270  174.1600  141.2000 C   0  0  0  0  0  3  0  0  0  0  0  0
  189.8580  176.8650  145.9370 O   0  0  0  0  0  0  0  0  0  0  0  0
  188.9200  175.0650  147.1990 C   0  0  0  0  0  1  0  0  0  0  0  0
  188.7920  175.9590  145.9790 C   0  0  1  0  0  3  0  0  0  0  0  0
  185.0060  178.0010  146.0840 C   0  0  0  0  0  0  0  0  0  0  0  0
  187.0750  177.3350  147.1490 C   0  0  0  0  0  3  0  0  0  0  0  0
  186.9900  176.0580  143.7090 F   0  0  0  0  0  0  0  0  0  0  0  0
  183.6960  178.7000  146.1410 C   0  0  0  0  0  1  0  0  0  0  0  0
  185.8440  177.9960  147.2010 C   0  0  0  0  0  3  0  0  0  0  0  0
  186.6300  176.6890  144.8530 C   0  0  0  0  0  0  0  0  0  0  0  0
  187.4750  176.6780  145.9800 C   0  0  0  0  0  0  0  0  0  0  0  0
  185.3990  177.3500  144.9120 C   0  0  0  0  0  3  0  0  0  0  0  0
  1  6  1  0  0  0  0
  2  3  1  1  0  0  0
  2 13  1  0  0  0  0
  2  5  1  0  0  0  0
  4  7  1  0  0  0  0
  5 16  2  0  0  0  0
  6 17  2  0  0  0  0
  7  3  2  0  0  0  0
  8 21  1  1  0  0  0
  8 12  1  0  0  0  0
  9  1  1  0  0  0  0
 10 18  1  0  0  0  0
 11  4  1  0  0  0  0
 13 18  1  6  0  0  0
 13  8  1  0  0  0  0
 14  5  1  0  0  0  0
 14  1  2  0  0  0  0
 15  4  2  0  0  0  0
 15 20  1  0  0  0  0
 16 12  1  0  0  0  0
 16 17  1  0  0  0  0
 19  3  1  0  0  0  0
 19 10  1  0  0  0  0
 20 19  2  0  0  0  0
 21 23  1  0  0  0  0
 23 30  1  0  0  0  0
 23 22  1  1  0  0  0
 24 27  1  0  0  0  0
 24 28  1  0  0  0  0
 25 28  2  0  0  0  0
 26 29  1  0  0  0  0
 29 31  1  0  0  0  0
 29 30  2  0  0  0  0
 30 25  1  0  0  0  0
 31 24  2  0  0  0  0
M  END
>  <MODEL>
2

>  <REMARK>
 VINA RESULT:      -8.2      2.456      4.823
  Name = 
  3 active torsions:
  status: ('A' for Active; 'I' for Inactive)
    1  A    between atoms: C_5  and  O_16
    2  A    between atoms: C_5  and  C_30
    3  A    between atoms: C_10  and  O_16
                            x       y       z     vdW  Elec       q    Type
                         _______ _______ _______ _____ _____    ______ ____

>  <TORSDO>
F 3

$$$$
=
 OpenBabel11112416503D

 31 35  0  0  1  0  0  0  0  0999 V2000
  194.7580  175.7290  145.0410 C   0  0  0  0  0  0  0  0  0  0  0  0
  191.6150  176.6620  143.1060 C   0  0  2  0  0  3  0  0  0  0  0  0
  191.0440  175.3900  142.4920 C   0  0  0  0  0  0  0  0  0  0  0  0
  191.3010  173.0730  141.7980 C   0  0  0  0  0  0  0  0  0  0  0  0
  192.5630  176.3860  144.2500 C   0  0  0  0  0  0  0  0  0  0  0  0
  194.3160  175.8300  146.3630 C   0  0  0  0  0  3  0  0  0  0  0  0
  191.8210  174.2260  142.3910 C   0  0  0  0  0  3  0  0  0  0  0  0
  189.8440  177.1130  144.8410 C   0  0  2  0  0  3  0  0  0  0  0  0
  196.4070  175.2480  144.7060 Cl  0  0  0  0  0  0  0  0  0  0  0  0
  188.9410  176.5730  141.9930 N   0  0  0  0  0  2  0  0  0  0  0  0
  192.2790  171.6250  141.6980 Cl  0  0  0  0  0  0  0  0  0  0  0  0
  190.8210  176.9260  145.8660 O   0  0  0  0  0  0  0  0  0  0  0  0
  190.5060  177.6370  143.5590 C   0  0  2  0  0  3  0  0  0  0  0  0
  193.8850  176.0070  143.9870 C   0  0  0  0  0  3  0  0  0  0  0  0
  190.0020  173.0750  141.2860 C   0  0  0  0  0  3  0  0  0  0  0  0
  192.1210  176.4960  145.5830 C   0  0  0  0  0  0  0  0  0  0  0  0
  193.0000  176.2160  146.6340 C   0  0  0  0  0  3  0  0  0  0  0  0
  189.4920  177.8490  142.4340 C   0  0  0  0  0  2  0  0  0  0  0  0
  189.7460  175.3940  141.9370 C   0  0  0  0  0  0  0  0  0  0  0  0
  189.2260  174.2350  141.3550 C   0  0  0  0  0  3  0  0  0  0  0  0
  188.8570  178.0000  145.2850 O   0  0  0  0  0  0  0  0  0  0  0  0
  187.5030  177.1950  147.0830 C   0  0  0  0  0  1  0  0  0  0  0  0
  187.7490  177.1980  145.5850 C   0  0  1  0  0  3  0  0  0  0  0  0
  184.2200  178.5790  143.5490 C   0  0  0  0  0  0  0  0  0  0  0  0
  185.9220  178.8580  145.2470 C   0  0  0  0  0  3  0  0  0  0  0  0
  186.5420  175.7630  143.3730 F   0  0  0  0  0  0  0  0  0  0  0  0
  182.9930  179.0640  142.8650 C   0  0  0  0  0  1  0  0  0  0  0  0
  184.7700  179.3160  144.6000 C   0  0  0  0  0  3  0  0  0  0  0  0
  185.9760  176.9250  143.7810 C   0  0  0  0  0  0  0  0  0  0  0  0
  186.5300  177.6630  144.8450 C   0  0  0  0  0  0  0  0  0  0  0  0
  184.8230  177.3870  143.1400 C   0  0  0  0  0  3  0  0  0  0  0  0
  1  6  1  0  0  0  0
  2  3  1  1  0  0  0
  2 13  1  0  0  0  0
  2  5  1  0  0  0  0
  4  7  2  0  0  0  0
  5 16  2  0  0  0  0
  6 17  2  0  0  0  0
  7  3  1  0  0  0  0
  8 21  1  1  0  0  0
  8 12  1  0  0  0  0
  9  1  1  0  0  0  0
 10 18  1  0  0  0  0
 11  4  1  0  0  0  0
 13 18  1  6  0  0  0
 13  8  1  0  0  0  0
 14  5  1  0  0  0  0
 14  1  2  0  0  0  0
 15 20  2  0  0  0  0
 15  4  1  0  0  0  0
 16 12  1  0  0  0  0
 16 17  1  0  0  0  0
 19 10  1  0  0  0  0
 19  3  2  0  0  0  0
 20 19  1  0  0  0  0
 21 23  1  0  0  0  0
 23 22  1  1  0  0  0
 24 28  1  0  0  0  0
 26 29  1  0  0  0  0
 27 24  1  0  0  0  0
 28 25  2  0  0  0  0
 29 30  2  0  0  0  0
 30 25  1  0  0  0  0
 30 23  1  0  0  0  0
 31 24  2  0  0  0  0
 31 29  1  0  0  0  0
M  END
>  <MODEL>
3

>  <REMARK>
 VINA RESULT:      -8.2      2.227      4.479
  Name = 
  3 active torsions:
  status: ('A' for Active; 'I' for Inactive)
    1  A    between atoms: C_5  and  O_16
    2  A    between atoms: C_5  and  C_30
    3  A    between atoms: C_10  and  O_16
                            x       y       z     vdW  Elec       q    Type
                         _______ _______ _______ _____ _____    ______ ____

>  <TORSDO>
F 3

$$$$
=
 OpenBabel11112416503D

 31 35  0  0  1  0  0  0  0  0999 V2000
  192.1830  172.7330  141.7490 C   0  0  0  0  0  0  0  0  0  0  0  0
  191.9730  174.1610  145.2730 C   0  0  2  0  0  3  0  0  0  0  0  0
  192.9890  175.2910  145.3860 C   0  0  0  0  0  0  0  0  0  0  0  0
  194.9670  176.4500  144.5720 C   0  0  0  0  0  0  0  0  0  0  0  0
  191.6270  173.8260  143.8410 C   0  0  0  0  0  0  0  0  0  0  0  0
  191.0130  173.2330  141.1720 C   0  0  0  0  0  3  0  0  0  0  0  0
  194.0200  175.4300  144.4440 C   0  0  0  0  0  3  0  0  0  0  0  0
  189.8450  175.5100  145.3450 C   0  0  2  0  0  3  0  0  0  0  0  0
  193.2700  171.7410  140.8030 Cl  0  0  0  0  0  0  0  0  0  0  0  0
  191.9360  176.0310  147.4860 N   0  0  0  0  0  2  0  0  0  0  0  0
  196.2350  176.6180  143.3780 Cl  0  0  0  0  0  0  0  0  0  0  0  0
  189.5410  175.0750  144.0190 O   0  0  0  0  0  0  0  0  0  0  0  0
  190.6870  174.4530  146.0760 C   0  0  2  0  0  3  0  0  0  0  0  0
  192.4900  173.0270  143.0800 C   0  0  0  0  0  3  0  0  0  0  0  0
  194.9000  177.3340  145.6500 C   0  0  0  0  0  3  0  0  0  0  0  0
  190.4430  174.3220  143.2600 C   0  0  0  0  0  0  0  0  0  0  0  0
  190.1420  174.0240  141.9270 C   0  0  0  0  0  3  0  0  0  0  0  0
  191.0360  174.8830  147.5010 C   0  0  0  0  0  2  0  0  0  0  0  0
  192.9530  176.1660  146.4920 C   0  0  0  0  0  0  0  0  0  0  0  0
  193.8950  177.1920  146.6090 C   0  0  0  0  0  3  0  0  0  0  0  0
  188.6600  175.7650  146.0430 O   0  0  0  0  0  0  0  0  0  0  0  0
  189.6960  177.7910  145.3130 C   0  0  0  0  0  1  0  0  0  0  0  0
  188.5380  177.1600  146.0620 C   0  0  1  0  0  3  0  0  0  0  0  0
  184.8230  178.4790  144.3390 C   0  0  0  0  0  0  0  0  0  0  0  0
  187.2260  178.2200  144.2270 C   0  0  0  0  0  3  0  0  0  0  0  0
  185.9760  176.8040  147.3750 F   0  0  0  0  0  0  0  0  0  0  0  0
  183.5500  178.9520  143.7350 C   0  0  0  0  0  1  0  0  0  0  0  0
  186.0280  178.6620  143.6580 C   0  0  0  0  0  3  0  0  0  0  0  0
  186.0070  177.4060  146.1600 C   0  0  0  0  0  0  0  0  0  0  0  0
  187.2250  177.5930  145.4790 C   0  0  0  0  0  0  0  0  0  0  0  0
  184.8120  177.8510  145.5870 C   0  0  0  0  0  3  0  0  0  0  0  0
  1 14  1  0  0  0  0
  2  5  1  6  0  0  0
  2  3  1  0  0  0  0
  2 13  1  0  0  0  0
  3 19  1  0  0  0  0
  4 15  2  0  0  0  0
  6  1  2  0  0  0  0
  6 17  1  0  0  0  0
  7  4  1  0  0  0  0
  7  3  2  0  0  0  0
  8 21  1  1  0  0  0
  8 13  1  0  0  0  0
  9  1  1  0  0  0  0
 10 18  1  0  0  0  0
 11  4  1  0  0  0  0
 12  8  1  0  0  0  0
 13 18  1  1  0  0  0
 14  5  2  0  0  0  0
 15 20  1  0  0  0  0
 16  5  1  0  0  0  0
 16 12  1  0  0  0  0
 17 16  2  0  0  0  0
 19 20  2  0  0  0  0
 19 10  1  0  0  0  0
 21 23  1  0  0  0  0
 23 22  1  6  0  0  0
 24 31  1  0  0  0  0
 25 30  2  0  0  0  0
 27 24  1  0  0  0  0
 28 25  1  0  0  0  0
 28 24  2  0  0  0  0
 29 26  1  0  0  0  0
 30 23  1  0  0  0  0
 30 29  1  0  0  0  0
 31 29  2  0  0  0  0
M  END
>  <MODEL>
4

>  <REMARK>
 VINA RESULT:      -8.0      1.581      1.785
  Name = 
  3 active torsions:
  status: ('A' for Active; 'I' for Inactive)
    1  A    between atoms: C_5  and  O_16
    2  A    between atoms: C_5  and  C_30
    3  A    between atoms: C_10  and  O_16
                            x       y       z     vdW  Elec       q    Type
                         _______ _______ _______ _____ _____    ______ ____

>  <TORSDO>
F 3

$$$$
=
 OpenBabel11112416503D

 31 35  0  0  1  0  0  0  0  0999 V2000
  191.6080  171.8430  141.8970 C   0  0  0  0  0  0  0  0  0  0  0  0
  192.7470  174.0350  144.7950 C   0  0  2  0  0  3  0  0  0  0  0  0
  193.9030  174.8990  144.3070 C   0  0  0  0  0  0  0  0  0  0  0  0
  195.6710  175.3610  142.7010 C   0  0  0  0  0  0  0  0  0  0  0  0
  191.9160  173.4750  143.6630 C   0  0  0  0  0  0  0  0  0  0  0  0
  190.4040  172.4550  141.5370 C   0  0  0  0  0  3  0  0  0  0  0  0
  194.5910  174.5830  143.1250 C   0  0  0  0  0  3  0  0  0  0  0  0
  190.9810  175.8160  145.0490 C   0  0  2  0  0  3  0  0  0  0  0  0
  192.1750  170.4430  141.0150 Cl  0  0  0  0  0  0  0  0  0  0  0  0
  193.6970  176.3130  146.3140 N   0  0  0  0  0  2  0  0  0  0  0  0
  196.5030  174.9630  141.2140 Cl  0  0  0  0  0  0  0  0  0  0  0  0
  190.2090  175.1750  144.0320 O   0  0  0  0  0  0  0  0  0  0  0  0
  191.8420  174.7870  145.7950 C   0  0  2  0  0  3  0  0  0  0  0  0
  192.3620  172.3510  142.9580 C   0  0  0  0  0  3  0  0  0  0  0  0
  196.0840  176.4570  143.4610 C   0  0  0  0  0  3  0  0  0  0  0  0
  190.6980  174.0850  143.3040 C   0  0  0  0  0  0  0  0  0  0  0  0
  189.9480  173.5720  142.2420 C   0  0  0  0  0  3  0  0  0  0  0  0
  192.6870  175.4340  146.8940 C   0  0  0  0  0  2  0  0  0  0  0  0
  194.3530  175.9840  145.0890 C   0  0  0  0  0  0  0  0  0  0  0  0
  195.4260  176.7680  144.6540 C   0  0  0  0  0  3  0  0  0  0  0  0
  190.1320  176.4850  145.9370 O   0  0  0  0  0  0  0  0  0  0  0  0
  188.9550  174.8740  147.2530 C   0  0  0  0  0  1  0  0  0  0  0  0
  188.9670  175.7090  145.9860 C   0  0  1  0  0  3  0  0  0  0  0  0
  185.4010  178.1100  145.8000 C   0  0  0  0  0  0  0  0  0  0  0  0
  186.7850  176.4700  146.9200 C   0  0  0  0  0  3  0  0  0  0  0  0
  188.4310  177.5730  143.8300 F   0  0  0  0  0  0  0  0  0  0  0  0
  184.1580  178.9210  145.7450 C   0  0  0  0  0  1  0  0  0  0  0  0
  185.6170  177.2370  146.8690 C   0  0  0  0  0  3  0  0  0  0  0  0
  187.5230  177.4560  144.8290 C   0  0  0  0  0  0  0  0  0  0  0  0
  187.7420  176.5720  145.9030 C   0  0  0  0  0  0  0  0  0  0  0  0
  186.3520  178.2190  144.7830 C   0  0  0  0  0  3  0  0  0  0  0  0
  1 14  1  0  0  0  0
  2  5  1  6  0  0  0
  2 13  1  0  0  0  0
  3  2  1  0  0  0  0
  3 19  1  0  0  0  0
  4  7  1  0  0  0  0
  4 15  2  0  0  0  0
  6  1  2  0  0  0  0
  6 17  1  0  0  0  0
  7  3  2  0  0  0  0
  8 13  1  0  0  0  0
  8 21  1  1  0  0  0
  9  1  1  0  0  0  0
 10 18  1  0  0  0  0
 11  4  1  0  0  0  0
 12  8  1  0  0  0  0
 13 18  1  1  0  0  0
 14  5  2  0  0  0  0
 15 20  1  0  0  0  0
 16  5  1  0  0  0  0
 16 12  1  0  0  0  0
 17 16  2  0  0  0  0
 19 10  1  0  0  0  0
 20 19  2  0  0  0  0
 21 23  1  0  0  0  0
 23 22  1  1  0  0  0
 24 28  1  0  0  0  0
 26 29  1  0  0  0  0
 27 24  1  0  0  0  0
 28 25  2  0  0  0  0
 29 30  2  0  0  0  0
 30 23  1  0  0  0  0
 30 25  1  0  0  0  0
 31 29  1  0  0  0  0
 31 24  2  0  0  0  0
M  END
>  <MODEL>
5

>  <REMARK>
 VINA RESULT:      -7.9      1.947      2.826
  Name = 
  3 active torsions:
  status: ('A' for Active; 'I' for Inactive)
    1  A    between atoms: C_5  and  O_16
    2  A    between atoms: C_5  and  C_30
    3  A    between atoms: C_10  and  O_16
                            x       y       z     vdW  Elec       q    Type
                         _______ _______ _______ _____ _____    ______ ____

>  <TORSDO>
F 3

$$$$
=
 OpenBabel11112416503D

 31 35  0  0  1  0  0  0  0  0999 V2000
  186.1560  177.9900  147.3780 C   0  0  0  0  0  0  0  0  0  0  0  0
  188.3600  175.4160  145.6420 C   0  0  2  0  0  3  0  0  0  0  0  0
  188.3000  175.6780  144.1420 C   0  0  0  0  0  0  0  0  0  0  0  0
  187.2230  176.6910  142.2100 C   0  0  0  0  0  0  0  0  0  0  0  0
  187.9250  176.6090  146.4620 C   0  0  0  0  0  0  0  0  0  0  0  0
  187.1090  178.8400  147.9460 C   0  0  0  0  0  3  0  0  0  0  0  0
  187.2900  176.4810  143.5900 C   0  0  0  0  0  3  0  0  0  0  0  0
  190.7360  176.1280  146.0900 C   0  0  2  0  0  3  0  0  0  0  0  0
  184.4510  178.3250  147.5860 Cl  0  0  0  0  0  0  0  0  0  0  0  0
  190.2360  174.1930  143.8030 N   0  0  0  0  0  2  0  0  0  0  0  0
  185.9670  177.7110  141.5420 Cl  0  0  0  0  0  0  0  0  0  0  0  0
  190.2490  177.1780  146.9260 O   0  0  0  0  0  0  0  0  0  0  0  0
  189.7590  174.9430  146.0930 C   0  0  2  0  0  3  0  0  0  0  0  0
  186.5620  176.8770  146.6380 C   0  0  0  0  0  3  0  0  0  0  0  0
  188.1580  176.0890  141.3660 C   0  0  0  0  0  3  0  0  0  0  0  0
  188.8840  177.4610  147.0440 C   0  0  0  0  0  0  0  0  0  0  0  0
  188.4710  178.5740  147.7830 C   0  0  0  0  0  3  0  0  0  0  0  0
  190.2440  173.7960  145.2070 C   0  0  0  0  0  2  0  0  0  0  0  0
  189.2160  175.0430  143.2770 C   0  0  0  0  0  0  0  0  0  0  0  0
  189.1530  175.2660  141.8980 C   0  0  0  0  0  3  0  0  0  0  0  0
  192.0020  175.7230  146.5270 O   0  0  0  0  0  0  0  0  0  0  0  0
  194.1510  176.7670  146.6250 C   0  0  0  0  0  1  0  0  0  0  0  0
  192.9090  176.5000  145.7950 C   0  0  1  0  0  3  0  0  0  0  0  0
  194.0210  174.5500  142.1240 C   0  0  0  0  0  0  0  0  0  0  0  0
  194.0490  174.6720  144.5410 C   0  0  0  0  0  3  0  0  0  0  0  0
  192.1000  177.4720  143.1850 F   0  0  0  0  0  0  0  0  0  0  0  0
  194.4250  173.8720  140.8660 C   0  0  0  0  0  1  0  0  0  0  0  0
  194.4250  174.0330  143.3570 C   0  0  0  0  0  3  0  0  0  0  0  0
  192.8560  176.3490  143.2550 C   0  0  0  0  0  0  0  0  0  0  0  0
  193.2660  175.8320  144.4990 C   0  0  0  0  0  0  0  0  0  0  0  0
  193.2370  175.7060  142.0740 C   0  0  0  0  0  3  0  0  0  0  0  0
  1  9  1  0  0  0  0
  1  6  1  0  0  0  0
  2  3  1  6  0  0  0
  2 13  1  0  0  0  0
  2  5  1  0  0  0  0
  4  7  2  0  0  0  0
  5 14  1  0  0  0  0
  5 16  2  0  0  0  0
  7  3  1  0  0  0  0
  8 13  1  0  0  0  0
  8 21  1  1  0  0  0
  8 12  1  0  0  0  0
 10 18  1  0  0  0  0
 11  4  1  0  0  0  0
 12 16  1  0  0  0  0
 13 18  1  6  0  0  0
 14  1  2  0  0  0  0
 15 20  2  0  0  0  0
 15  4  1  0  0  0  0
 16 17  1  0  0  0  0
 17  6  2  0  0  0  0
 19 10  1  0  0  0  0
 19  3  2  0  0  0  0
 20 19  1  0  0  0  0
 23 21  1  0  0  0  0
 23 22  1  1  0  0  0
 24 28  1  0  0  0  0
 26 29  1  0  0  0  0
 27 24  1  0  0  0  0
 28 25  2  0  0  0  0
 29 30  2  0  0  0  0
 30 25  1  0  0  0  0
 30 23  1  0  0  0  0
 31 24  2  0  0  0  0
 31 29  1  0  0  0  0
M  END
>  <MODEL>
6

>  <REMARK>
 VINA RESULT:      -7.8      3.793      7.020
  Name = 
  3 active torsions:
  status: ('A' for Active; 'I' for Inactive)
    1  A    between atoms: C_5  and  O_16
    2  A    between atoms: C_5  and  C_30
    3  A    between atoms: C_10  and  O_16
                            x       y       z     vdW  Elec       q    Type
                         _______ _______ _______ _____ _____    ______ ____

>  <TORSDO>
F 3

$$$$
=
 OpenBabel11112416503D

 31 35  0  0  1  0  0  0  0  0999 V2000
  193.1790  171.0330  142.0800 C   0  0  0  0  0  0  0  0  0  0  0  0
  191.4750  173.0480  144.8250 C   0  0  2  0  0  3  0  0  0  0  0  0
  192.4920  174.0310  145.3890 C   0  0  0  0  0  0  0  0  0  0  0  0
  194.7940  174.7550  145.6940 C   0  0  0  0  0  0  0  0  0  0  0  0
  191.8590  172.5270  143.4590 C   0  0  0  0  0  0  0  0  0  0  0  0
  192.6080  171.5850  140.9290 C   0  0  0  0  0  3  0  0  0  0  0  0
  193.8640  173.8680  145.1470 C   0  0  0  0  0  3  0  0  0  0  0  0
  189.9460  174.6670  143.6440 C   0  0  2  0  0  3  0  0  0  0  0  0
  194.3690  169.7570  141.9400 Cl  0  0  0  0  0  0  0  0  0  0  0  0
  190.6820  175.2500  146.5320 N   0  0  0  0  0  2  0  0  0  0  0  0
  196.5000  174.5460  145.3650 Cl  0  0  0  0  0  0  0  0  0  0  0  0
  190.2900  174.0620  142.3980 O   0  0  0  0  0  0  0  0  0  0  0  0
  190.0510  173.6440  144.7840 C   0  0  2  0  0  3  0  0  0  0  0  0
  192.8050  171.5020  143.3420 C   0  0  0  0  0  3  0  0  0  0  0  0
  194.3620  175.8090  146.5020 C   0  0  0  0  0  3  0  0  0  0  0  0
  191.2780  173.0760  142.2990 C   0  0  0  0  0  0  0  0  0  0  0  0
  191.6560  172.6020  141.0390 C   0  0  0  0  0  3  0  0  0  0  0  0
  189.6910  174.2540  146.1390 C   0  0  0  0  0  2  0  0  0  0  0  0
  192.0690  175.0760  146.2380 C   0  0  0  0  0  0  0  0  0  0  0  0
  193.0010  175.9690  146.7740 C   0  0  0  0  0  3  0  0  0  0  0  0
  188.6530  175.1960  143.5730 O   0  0  0  0  0  0  0  0  0  0  0  0
  189.1530  177.3430  142.6500 C   0  0  0  0  0  1  0  0  0  0  0  0
  188.7910  176.5520  143.8930 C   0  0  1  0  0  3  0  0  0  0  0  0
  185.1650  178.1170  145.6000 C   0  0  0  0  0  0  0  0  0  0  0  0
  186.3680  177.1160  143.7540 C   0  0  0  0  0  3  0  0  0  0  0  0
  188.6330  177.5610  146.6080 F   0  0  0  0  0  0  0  0  0  0  0  0
  183.9080  178.6660  146.1700 C   0  0  0  0  0  1  0  0  0  0  0  0
  185.1840  177.6300  144.2920 C   0  0  0  0  0  3  0  0  0  0  0  0
  187.5140  177.5750  145.8430 C   0  0  0  0  0  0  0  0  0  0  0  0
  187.5380  177.0870  144.5220 C   0  0  0  0  0  0  0  0  0  0  0  0
  186.3280  178.0890  146.3740 C   0  0  0  0  0  3  0  0  0  0  0  0
  1 14  1  0  0  0  0
  2  5  1  6  0  0  0
  2  3  1  0  0  0  0
  3 19  1  0  0  0  0
  4 15  2  0  0  0  0
  6 17  1  0  0  0  0
  6  1  2  0  0  0  0
  7  3  2  0  0  0  0
  7  4  1  0  0  0  0
  8 21  1  6  0  0  0
  8 13  1  0  0  0  0
  9  1  1  0  0  0  0
 11  4  1  0  0  0  0
 12  8  1  0  0  0  0
 13  2  1  0  0  0  0
 13 18  1  1  0  0  0
 14  5  2  0  0  0  0
 15 20  1  0  0  0  0
 16 12  1  0  0  0  0
 16  5  1  0  0  0  0
 17 16  2  0  0  0  0
 18 10  1  0  0  0  0
 19 10  1  0  0  0  0
 19 20  2  0  0  0  0
 21 23  1  0  0  0  0
 23 22  1  6  0  0  0
 23 30  1  0  0  0  0
 24 27  1  0  0  0  0
 24 31  1  0  0  0  0
 25 28  1  0  0  0  0
 25 30  2  0  0  0  0
 28 24  2  0  0  0  0
 29 31  2  0  0  0  0
 29 26  1  0  0  0  0
 30 29  1  0  0  0  0
M  END
>  <MODEL>
7

>  <REMARK>
 VINA RESULT:      -7.7      1.740      2.397
  Name = 
  3 active torsions:
  status: ('A' for Active; 'I' for Inactive)
    1  A    between atoms: C_5  and  O_16
    2  A    between atoms: C_5  and  C_30
    3  A    between atoms: C_10  and  O_16
                            x       y       z     vdW  Elec       q    Type
                         _______ _______ _______ _____ _____    ______ ____

>  <TORSDO>
F 3

$$$$
=
 OpenBabel11112416503D

 31 35  0  0  1  0  0  0  0  0999 V2000
  186.0190  177.9120  140.8420 C   0  0  0  0  0  0  0  0  0  0  0  0
  188.8970  177.8690  143.3360 C   0  0  2  0  0  3  0  0  0  0  0  0
  188.3580  177.3700  144.6700 C   0  0  0  0  0  0  0  0  0  0  0  0
  186.4910  176.9120  146.1630 C   0  0  0  0  0  0  0  0  0  0  0  0
  188.0060  177.5040  142.1710 C   0  0  0  0  0  0  0  0  0  0  0  0
  186.3260  176.8100  140.0390 C   0  0  0  0  0  3  0  0  0  0  0  0
  186.9780  177.3400  144.9250 C   0  0  0  0  0  3  0  0  0  0  0  0
  190.3280  175.8930  142.7050 C   0  0  2  0  0  3  0  0  0  0  0  0
  184.5810  178.8550  140.5210 Cl  0  0  0  0  0  0  0  0  0  0  0  0
  190.6600  177.0600  145.4880 N   0  0  0  0  0  2  0  0  0  0  0  0
  184.7670  176.8630  146.4540 Cl  0  0  0  0  0  0  0  0  0  0  0  0
  189.4900  175.6670  141.5700 O   0  0  0  0  0  0  0  0  0  0  0  0
  190.3390  177.3830  143.0740 C   0  0  2  0  0  3  0  0  0  0  0  0
  186.8570  178.2590  141.9050 C   0  0  0  0  0  3  0  0  0  0  0  0
  187.3810  176.5200  147.1650 C   0  0  0  0  0  3  0  0  0  0  0  0
  188.3180  176.3990  141.3550 C   0  0  0  0  0  0  0  0  0  0  0  0
  187.4760  176.0570  140.2930 C   0  0  0  0  0  3  0  0  0  0  0  0
  191.2250  177.6670  144.2870 C   0  0  0  0  0  2  0  0  0  0  0  0
  189.2490  177.0100  145.7030 C   0  0  0  0  0  0  0  0  0  0  0  0
  188.7580  176.5700  146.9360 C   0  0  0  0  0  3  0  0  0  0  0  0
  191.6240  175.4420  142.4330 O   0  0  0  0  0  0  0  0  0  0  0  0
  191.6560  173.1000  141.9560 C   0  0  0  0  0  1  0  0  0  0  0  0
  191.7050  174.1760  143.0250 C   0  0  1  0  0  3  0  0  0  0  0  0
  195.3250  173.8610  145.3300 C   0  0  0  0  0  0  0  0  0  0  0  0
  193.9270  175.0430  143.7470 C   0  0  0  0  0  3  0  0  0  0  0  0
  192.2350  171.9730  144.8360 F   0  0  0  0  0  0  0  0  0  0  0  0
  196.5860  173.7610  146.1090 C   0  0  0  0  0  1  0  0  0  0  0  0
  195.1120  174.9500  144.4820 C   0  0  0  0  0  3  0  0  0  0  0  0
  193.1640  172.9530  144.7140 C   0  0  0  0  0  0  0  0  0  0  0  0
  192.9480  174.0480  143.8550 C   0  0  0  0  0  0  0  0  0  0  0  0
  194.3510  172.8640  145.4460 C   0  0  0  0  0  3  0  0  0  0  0  0
  1 14  1  0  0  0  0
  2  5  1  6  0  0  0
  2  3  1  0  0  0  0
  3  7  2  0  0  0  0
  3 19  1  0  0  0  0
  4 11  1  0  0  0  0
  4 15  2  0  0  0  0
  6 17  1  0  0  0  0
  6  1  2  0  0  0  0
  7  4  1  0  0  0  0
  8 21  1  6  0  0  0
  8 13  1  0  0  0  0
  9  1  1  0  0  0  0
 10 19  1  0  0  0  0
 12  8  1  0  0  0  0
 13  2  1  0  0  0  0
 13 18  1  1  0  0  0
 14  5  2  0  0  0  0
 16 12  1  0  0  0  0
 16  5  1  0  0  0  0
 17 16  2  0  0  0  0
 18 10  1  0  0  0  0
 19 20  2  0  0  0  0
 20 15  1  0  0  0  0
 21 23  1  0  0  0  0
 23 22  1  6  0  0  0
 23 30  1  0  0  0  0
 24 31  1  0  0  0  0
 24 27  1  0  0  0  0
 25 30  2  0  0  0  0
 25 28  1  0  0  0  0
 28 24  2  0  0  0  0
 29 26  1  0  0  0  0
 29 31  2  0  0  0  0
 30 29  1  0  0  0  0
M  END
>  <MODEL>
8

>  <REMARK>
 VINA RESULT:      -7.6      3.795      7.329
  Name = 
  3 active torsions:
  status: ('A' for Active; 'I' for Inactive)
    1  A    between atoms: C_5  and  O_16
    2  A    between atoms: C_5  and  C_30
    3  A    between atoms: C_10  and  O_16
                            x       y       z     vdW  Elec       q    Type
                         _______ _______ _______ _____ _____    ______ ____

>  <TORSDO>
F 3

$$$$
=
 OpenBabel11112416503D

 31 35  0  0  1  0  0  0  0  0999 V2000
  187.5090  177.3300  141.3660 C   0  0  0  0  0  0  0  0  0  0  0  0
  188.9500  174.1140  142.8090 C   0  0  2  0  0  3  0  0  0  0  0  0
  189.6400  173.3590  141.6820 C   0  0  0  0  0  0  0  0  0  0  0  0
  190.0040  172.9620  139.3090 C   0  0  0  0  0  0  0  0  0  0  0  0
  188.7490  175.5790  142.4960 C   0  0  0  0  0  0  0  0  0  0  0  0
  188.3920  178.2870  141.8750 C   0  0  0  0  0  3  0  0  0  0  0  0
  189.3910  173.6810  140.3390 C   0  0  0  0  0  3  0  0  0  0  0  0
  190.9740  174.8030  144.1450 C   0  0  2  0  0  3  0  0  0  0  0  0
  186.1850  177.8230  140.3340 Cl  0  0  0  0  0  0  0  0  0  0  0  0
  190.7290  171.8870  143.3310 N   0  0  0  0  0  2  0  0  0  0  0  0
  189.6950  173.3920  137.6410 Cl  0  0  0  0  0  0  0  0  0  0  0  0
  190.6650  176.1720  143.8800 O   0  0  0  0  0  0  0  0  0  0  0  0
  189.6920  173.9570  144.1540 C   0  0  2  0  0  3  0  0  0  0  0  0
  187.6860  175.9790  141.6760 C   0  0  0  0  0  3  0  0  0  0  0  0
  190.8630  171.9050  139.6110 C   0  0  0  0  0  3  0  0  0  0  0  0
  189.6310  176.5460  143.0150 C   0  0  0  0  0  0  0  0  0  0  0  0
  189.4490  177.8960  142.7010 C   0  0  0  0  0  3  0  0  0  0  0  0
  189.9800  172.4810  144.4330 C   0  0  0  0  0  2  0  0  0  0  0  0
  190.4800  172.2630  141.9750 C   0  0  0  0  0  0  0  0  0  0  0  0
  191.1010  171.5550  140.9420 C   0  0  0  0  0  3  0  0  0  0  0  0
  191.6440  174.6960  145.3690 O   0  0  0  0  0  0  0  0  0  0  0  0
  192.4280  176.4150  146.8330 C   0  0  0  0  0  1  0  0  0  0  0  0
  192.4680  175.8270  145.4350 C   0  0  1  0  0  3  0  0  0  0  0  0
  196.5320  174.8700  144.3940 C   0  0  0  0  0  0  0  0  0  0  0  0
  194.6930  174.8380  145.9670 C   0  0  0  0  0  3  0  0  0  0  0  0
  193.6270  176.4650  142.8540 F   0  0  0  0  0  0  0  0  0  0  0  0
  197.9410  174.5450  144.0550 C   0  0  0  0  0  1  0  0  0  0  0  0
  196.0180  174.5280  145.6470 C   0  0  0  0  0  3  0  0  0  0  0  0
  194.3950  175.8300  143.7730 C   0  0  0  0  0  0  0  0  0  0  0  0
  193.8750  175.4900  145.0370 C   0  0  0  0  0  0  0  0  0  0  0  0
  195.7210  175.5190  143.4590 C   0  0  0  0  0  3  0  0  0  0  0  0
  1 14  2  0  0  0  0
  1  6  1  0  0  0  0
  2  3  1  6  0  0  0
  2 13  1  0  0  0  0
  3 19  1  0  0  0  0
  4 15  2  0  0  0  0
  4  7  1  0  0  0  0
  5  2  1  0  0  0  0
  5 16  2  0  0  0  0
  6 17  2  0  0  0  0
  7  3  2  0  0  0  0
  8 13  1  0  0  0  0
  8 21  1  1  0  0  0
  9  1  1  0  0  0  0
 10 18  1  0  0  0  0
 11  4  1  0  0  0  0
 12  8  1  0  0  0  0
 13 18  1  6  0  0  0
 14  5  1  0  0  0  0
 15 20  1  0  0  0  0
 16 12  1  0  0  0  0
 17 16  1  0  0  0  0
 19 10  1  0  0  0  0
 20 19  2  0  0  0  0
 21 23  1  0  0  0  0
 23 22  1  1  0  0  0
 24 28  1  0  0  0  0
 26 29  1  0  0  0  0
 27 24  1  0  0  0  0
 28 25  2  0  0  0  0
 29 30  2  0  0  0  0
 30 23  1  0  0  0  0
 30 25  1  0  0  0  0
 31 29  1  0  0  0  0
 31 24  2  0  0  0  0
M  END
>  <MODEL>
9

>  <REMARK>
 VINA RESULT:      -7.5      3.288      7.201
  Name = 
  3 active torsions:
  status: ('A' for Active; 'I' for Inactive)
    1  A    between atoms: C_5  and  O_16
    2  A    between atoms: C_5  and  C_30
    3  A    between atoms: C_10  and  O_16
                            x       y       z     vdW  Elec       q    Type
                         _______ _______ _______ _____ _____    ______ ____

>  <TORSDO>
F 3

$$$$
