=
 OpenBabel11112417383D

 28 32  0  0  1  0  0  0  0  0999 V2000
  190.9100  174.3900  143.1510 C   0  0  0  0  0  0  0  0  0  0  0  0
  187.7350  178.2700  143.9490 F   0  0  0  0  0  0  0  0  0  0  0  0
  192.9230  175.8940  146.9540 O   0  0  0  0  0  0  0  0  0  0  0  0
  190.0700  172.3330  144.8560 C   0  0  0  0  0  3  0  0  0  0  0  0
  190.5890  176.3200  147.3990 C   0  0  1  0  0  3  0  0  0  0  0  0
  191.3970  175.4560  142.3350 N   0  0  0  0  0  2  0  0  0  0  0  0
  186.3890  176.6420  143.1610 O   0  0  0  0  0  1  0  0  0  0  0  0
  187.0110  177.1380  144.3060 C   0  0  1  0  0  0  0  0  0  0  0  0
  186.6700  177.9350  146.4010 C   0  0  1  0  0  3  0  0  0  0  0  0
  187.9260  176.0300  144.8760 C   0  0  2  0  0  3  0  0  0  0  0  0
  194.3420  175.7160  144.0450 O   0  0  0  0  0  0  0  0  0  0  0  0
  190.1490  177.0080  145.0630 C   0  0  1  0  0  3  0  0  0  0  0  0
  187.1780  176.8350  147.1130 O   0  0  0  0  0  0  0  0  0  0  0  0
  186.0140  177.4880  145.2400 O   0  0  0  0  0  0  0  0  0  0  0  0
  193.3240  176.2060  143.5860 C   0  0  0  0  0  0  0  0  0  0  0  0
  189.8820  174.6350  144.0800 C   0  0  0  0  0  0  0  0  0  0  0  0
  191.7870  176.2400  146.5350 C   0  0  0  0  0  0  0  0  0  0  0  0
  185.6890  178.6910  147.2740 C   0  0  0  0  0  1  0  0  0  0  0  0
  192.5820  177.2450  144.3710 C   0  0  0  0  0  2  0  0  0  0  0  0
  189.4750  173.5940  144.9350 C   0  0  0  0  0  3  0  0  0  0  0  0
  191.5150  173.1280  143.0910 C   0  0  0  0  0  3  0  0  0  0  0  0
  191.0910  172.1000  143.9340 C   0  0  0  0  0  3  0  0  0  0  0  0
  192.8180  175.7560  142.2490 C   0  0  0  0  0  2  0  0  0  0  0  0
  189.5500  176.9980  146.4760 C   0  0  1  0  0  3  0  0  0  0  0  0
  191.5480  176.6280  145.1940 N   0  0  0  0  0  0  0  0  0  0  0  0
  188.2250  176.2460  146.3670 C   0  0  2  0  0  3  0  0  0  0  0  0
  190.2010  175.0310  147.7740 O   0  0  0  0  0  1  0  0  0  0  0  0
  189.3030  176.0340  144.2120 C   0  0  1  0  0  3  0  0  0  0  0  0
  1 16  1  0  0  0  0
  2  8  1  0  0  0  0
  4 20  1  0  0  0  0
  5 27  1  6  0  0  0
  6  1  1  0  0  0  0
  8  7  1  6  0  0  0
  8 10  1  0  0  0  0
  8 14  1  0  0  0  0
  9 13  1  0  0  0  0
  9 18  1  1  0  0  0
 10 26  1  0  0  0  0
 12 25  1  0  0  0  0
 12 24  1  0  0  0  0
 14  9  1  0  0  0  0
 15 11  2  0  0  0  0
 15 19  1  0  0  0  0
 16 28  1  0  0  0  0
 16 20  2  0  0  0  0
 17  3  2  0  0  0  0
 17  5  1  0  0  0  0
 19 25  1  0  0  0  0
 21  1  2  0  0  0  0
 21 22  1  0  0  0  0
 22  4  2  0  0  0  0
 23  6  1  0  0  0  0
 23 15  1  0  0  0  0
 24  5  1  0  0  0  0
 25 17  1  0  0  0  0
 26 24  1  0  0  0  0
 26 13  1  0  0  0  0
 28 10  1  0  0  0  0
 28 12  1  0  0  0  0
M  END
>  <MODEL>
1

>  <REMARK>
 VINA RESULT:      -8.4      0.000      0.000
  Name = 
  0 active torsions:
  status: ('A' for Active; 'I' for Inactive)
                            x       y       z     vdW  Elec       q    Type
                         _______ _______ _______ _____ _____    ______ ____

>  <TORSDO>
F 0

$$$$
=
 OpenBabel11112417383D

 28 32  0  0  1  0  0  0  0  0999 V2000
  190.3900  175.4550  144.1460 C   0  0  0  0  0  0  0  0  0  0  0  0
  185.6920  176.3420  145.8500 F   0  0  0  0  0  0  0  0  0  0  0  0
  188.3420  175.2090  140.0800 O   0  0  0  0  0  0  0  0  0  0  0  0
  191.3170  177.8880  143.1140 C   0  0  0  0  0  3  0  0  0  0  0  0
  187.0680  176.9270  141.2010 C   0  0  1  0  0  3  0  0  0  0  0  0
  189.9020  174.1900  144.5950 N   0  0  0  0  0  2  0  0  0  0  0  0
  186.9770  177.6830  147.1280 O   0  0  0  0  0  1  0  0  0  0  0  0
  186.3280  177.5780  145.8980 C   0  0  1  0  0  0  0  0  0  0  0  0
  184.7670  178.5090  144.5420 C   0  0  1  0  0  3  0  0  0  0  0  0
  187.3860  177.7210  144.7800 C   0  0  2  0  0  3  0  0  0  0  0  0
  189.9930  172.7960  141.4790 O   0  0  0  0  0  0  0  0  0  0  0  0
  187.1640  175.7450  143.3730 C   0  0  1  0  0  3  0  0  0  0  0  0
  185.6380  179.0160  143.5620 O   0  0  0  0  0  0  0  0  0  0  0  0
  185.3690  178.6070  145.8100 O   0  0  0  0  0  0  0  0  0  0  0  0
  189.4040  173.0730  142.5110 C   0  0  0  0  0  0  0  0  0  0  0  0
  189.5160  176.5540  144.0690 C   0  0  0  0  0  0  0  0  0  0  0  0
  187.8290  175.6600  141.1390 C   0  0  0  0  0  0  0  0  0  0  0  0
  183.4790  179.3070  144.5320 C   0  0  0  0  0  1  0  0  0  0  0  0
  187.9760  173.5210  142.4530 C   0  0  0  0  0  2  0  0  0  0  0  0
  189.9940  177.7680  143.5420 C   0  0  0  0  0  3  0  0  0  0  0  0
  191.7120  175.5760  143.6960 C   0  0  0  0  0  3  0  0  0  0  0  0
  192.1760  176.7910  143.1900 C   0  0  0  0  0  3  0  0  0  0  0  0
  190.1200  172.9750  143.8240 C   0  0  0  0  0  2  0  0  0  0  0  0
  186.4760  176.8970  142.6290 C   0  0  1  0  0  3  0  0  0  0  0  0
  187.8950  174.9750  142.3770 N   0  0  0  0  0  0  0  0  0  0  0  0
  186.7550  178.1550  143.4490 C   0  0  2  0  0  3  0  0  0  0  0  0
  187.9430  178.0020  141.0140 O   0  0  0  0  0  1  0  0  0  0  0  0
  188.0570  176.3850  144.4600 C   0  0  1  0  0  3  0  0  0  0  0  0
  1  6  1  0  0  0  0
  3 17  2  0  0  0  0
  4 22  2  0  0  0  0
  4 20  1  0  0  0  0
  5 27  1  1  0  0  0
  5 24  1  0  0  0  0
  8  2  1  6  0  0  0
  8  7  1  0  0  0  0
  9 18  1  1  0  0  0
  9 14  1  0  0  0  0
 10  8  1  0  0  0  0
 11 15  2  0  0  0  0
 12 28  1  0  0  0  0
 13  9  1  0  0  0  0
 14  8  1  0  0  0  0
 15 23  1  0  0  0  0
 16  1  1  0  0  0  0
 16 28  1  0  0  0  0
 17  5  1  0  0  0  0
 17 25  1  0  0  0  0
 19 15  1  0  0  0  0
 20 16  2  0  0  0  0
 21  1  2  0  0  0  0
 22 21  1  0  0  0  0
 23  6  1  0  0  0  0
 24 12  1  0  0  0  0
 24 26  1  0  0  0  0
 25 19  1  0  0  0  0
 25 12  1  0  0  0  0
 26 13  1  0  0  0  0
 26 10  1  0  0  0  0
 28 10  1  0  0  0  0
M  END
>  <MODEL>
2

>  <REMARK>
 VINA RESULT:      -8.3      2.552      4.615
  Name = 
  0 active torsions:
  status: ('A' for Active; 'I' for Inactive)
                            x       y       z     vdW  Elec       q    Type
                         _______ _______ _______ _____ _____    ______ ____

>  <TORSDO>
F 0

$$$$
=
 OpenBabel11112417383D

 28 32  0  0  1  0  0  0  0  0999 V2000
  189.3710  176.8470  145.7430 C   0  0  0  0  0  0  0  0  0  0  0  0
  194.3280  176.7230  144.6530 F   0  0  0  0  0  0  0  0  0  0  0  0
  189.1300  173.4030  142.7650 O   0  0  0  0  0  0  0  0  0  0  0  0
  188.9280  174.7880  147.5890 C   0  0  0  0  0  3  0  0  0  0  0  0
  191.2570  173.0140  143.8390 C   0  0  1  0  0  3  0  0  0  0  0  0
  189.5670  177.8480  144.7430 N   0  0  0  0  0  2  0  0  0  0  0  0
  194.2850  177.1870  146.8580 O   0  0  0  0  0  1  0  0  0  0  0  0
  194.2270  176.1580  145.9190 C   0  0  1  0  0  0  0  0  0  0  0  0
  195.2030  174.2370  145.2130 C   0  0  1  0  0  3  0  0  0  0  0  0
  192.8870  175.4090  146.1070 C   0  0  2  0  0  3  0  0  0  0  0  0
  187.6130  176.2500  142.4430 O   0  0  0  0  0  0  0  0  0  0  0  0
  191.7830  175.4300  143.9360 C   0  0  1  0  0  3  0  0  0  0  0  0
  194.2000  173.3440  145.6300 O   0  0  0  0  0  0  0  0  0  0  0  0
  195.3160  175.2910  146.1380 O   0  0  0  0  0  0  0  0  0  0  0  0
  188.6620  176.7770  142.7750 C   0  0  0  0  0  0  0  0  0  0  0  0
  190.4190  175.9640  146.0630 C   0  0  0  0  0  0  0  0  0  0  0  0
  190.1840  173.8640  143.2770 C   0  0  0  0  0  0  0  0  0  0  0  0
  196.5250  173.5030  145.1220 C   0  0  0  0  0  1  0  0  0  0  0  0
  189.9640  176.1830  142.3310 C   0  0  0  0  0  2  0  0  0  0  0  0
  190.1790  174.9310  146.9870 C   0  0  0  0  0  3  0  0  0  0  0  0
  188.1120  176.6860  146.3360 C   0  0  0  0  0  3  0  0  0  0  0  0
  187.8930  175.6660  147.2630 C   0  0  0  0  0  3  0  0  0  0  0  0
  188.6380  178.0050  143.6350 C   0  0  0  0  0  2  0  0  0  0  0  0
  192.3890  174.0310  144.1100 C   0  0  1  0  0  3  0  0  0  0  0  0
  190.4720  175.2500  143.3290 N   0  0  0  0  0  0  0  0  0  0  0  0
  192.9440  173.9850  145.5330 C   0  0  2  0  0  3  0  0  0  0  0  0
  190.7990  172.4070  145.0130 O   0  0  0  0  0  1  0  0  0  0  0  0
  191.7490  176.0800  145.3380 C   0  0  1  0  0  3  0  0  0  0  0  0
  1 16  2  0  0  0  0
  1 21  1  0  0  0  0
  3 17  2  0  0  0  0
  5 24  1  0  0  0  0
  5 27  1  1  0  0  0
  6  1  1  0  0  0  0
  8  2  1  6  0  0  0
  8 10  1  0  0  0  0
  8 14  1  0  0  0  0
  8  7  1  0  0  0  0
  9 18  1  1  0  0  0
  9 13  1  0  0  0  0
  9 14  1  0  0  0  0
 11 15  2  0  0  0  0
 12 24  1  0  0  0  0
 12 28  1  0  0  0  0
 15 23  1  0  0  0  0
 16 20  1  0  0  0  0
 17 25  1  0  0  0  0
 17  5  1  0  0  0  0
 19 15  1  0  0  0  0
 19 25  1  0  0  0  0
 20  4  2  0  0  0  0
 21 22  2  0  0  0  0
 22  4  1  0  0  0  0
 23  6  1  0  0  0  0
 24 26  1  0  0  0  0
 25 12  1  0  0  0  0
 26 13  1  0  0  0  0
 26 10  1  0  0  0  0
 28 16  1  0  0  0  0
 28 10  1  0  0  0  0
M  END
>  <MODEL>
3

>  <REMARK>
 VINA RESULT:      -7.8      2.544      5.969
  Name = 
  0 active torsions:
  status: ('A' for Active; 'I' for Inactive)
                            x       y       z     vdW  Elec       q    Type
                         _______ _______ _______ _____ _____    ______ ____

>  <TORSDO>
F 0

$$$$
=
 OpenBabel11112417383D

 28 32  0  0  1  0  0  0  0  0999 V2000
  189.2350  176.6300  145.2150 C   0  0  0  0  0  0  0  0  0  0  0  0
  193.8390  176.4770  143.0830 F   0  0  0  0  0  0  0  0  0  0  0  0
  188.4840  172.9030  142.7000 O   0  0  0  0  0  0  0  0  0  0  0  0
  189.2790  174.7590  147.2990 C   0  0  0  0  0  3  0  0  0  0  0  0
  190.8060  172.6570  143.3140 C   0  0  1  0  0  3  0  0  0  0  0  0
  189.1720  177.5290  144.1070 N   0  0  0  0  0  2  0  0  0  0  0  0
  194.2580  177.1580  145.1910 O   0  0  0  0  0  1  0  0  0  0  0  0
  194.0360  176.0400  144.3880 C   0  0  1  0  0  0  0  0  0  0  0  0
  194.9080  174.0740  143.6690 C   0  0  1  0  0  3  0  0  0  0  0  0
  192.7980  175.2920  144.9340 C   0  0  2  0  0  3  0  0  0  0  0  0
  186.8280  175.6790  142.4510 O   0  0  0  0  0  0  0  0  0  0  0  0
  191.2500  175.0780  143.0650 C   0  0  1  0  0  3  0  0  0  0  0  0
  194.0530  173.2110  144.3770 O   0  0  0  0  0  0  0  0  0  0  0  0
  195.1790  175.2160  144.4440 O   0  0  0  0  0  0  0  0  0  0  0  0
  187.9040  176.2530  142.4950 C   0  0  0  0  0  0  0  0  0  0  0  0
  190.3590  175.8000  145.3800 C   0  0  0  0  0  0  0  0  0  0  0  0
  189.6060  173.4290  142.9220 C   0  0  0  0  0  0  0  0  0  0  0  0
  196.2050  173.3560  143.3610 C   0  0  0  0  0  1  0  0  0  0  0  0
  189.1000  175.6390  141.8340 C   0  0  0  0  0  2  0  0  0  0  0  0
  190.3640  174.8610  146.4270 C   0  0  0  0  0  3  0  0  0  0  0  0
  188.1400  176.5090  146.0820 C   0  0  0  0  0  3  0  0  0  0  0  0
  188.1660  175.5830  147.1260 C   0  0  0  0  0  3  0  0  0  0  0  0
  188.0200  177.5590  143.2200 C   0  0  0  0  0  2  0  0  0  0  0  0
  191.9310  173.7140  143.2340 C   0  0  1  0  0  3  0  0  0  0  0  0
  189.8460  174.8180  142.7800 N   0  0  0  0  0  0  0  0  0  0  0  0
  192.7820  173.8190  144.4980 C   0  0  2  0  0  3  0  0  0  0  0  0
  190.6360  172.1630  144.6100 O   0  0  0  0  0  1  0  0  0  0  0  0
  191.4960  175.8650  144.3740 C   0  0  1  0  0  3  0  0  0  0  0  0
  1 16  2  0  0  0  0
  1 21  1  0  0  0  0
  3 17  2  0  0  0  0
  5 27  1  1  0  0  0
  6  1  1  0  0  0  0
  8  2  1  6  0  0  0
  8 14  1  0  0  0  0
  8 10  1  0  0  0  0
  8  7  1  0  0  0  0
  9 18  1  1  0  0  0
  9 13  1  0  0  0  0
  9 14  1  0  0  0  0
 11 15  2  0  0  0  0
 12 24  1  0  0  0  0
 12 28  1  0  0  0  0
 13 26  1  0  0  0  0
 15 23  1  0  0  0  0
 16 20  1  0  0  0  0
 17  5  1  0  0  0  0
 19 15  1  0  0  0  0
 19 25  1  0  0  0  0
 20  4  2  0  0  0  0
 21 22  2  0  0  0  0
 22  4  1  0  0  0  0
 23  6  1  0  0  0  0
 24  5  1  0  0  0  0
 24 26  1  0  0  0  0
 25 17  1  0  0  0  0
 25 12  1  0  0  0  0
 26 10  1  0  0  0  0
 28 10  1  0  0  0  0
 28 16  1  0  0  0  0
M  END
>  <MODEL>
4

>  <REMARK>
 VINA RESULT:      -7.6      2.434      6.077
  Name = 
  0 active torsions:
  status: ('A' for Active; 'I' for Inactive)
                            x       y       z     vdW  Elec       q    Type
                         _______ _______ _______ _____ _____    ______ ____

>  <TORSDO>
F 0

$$$$
=
 OpenBabel11112417383D

 28 32  0  0  1  0  0  0  0  0999 V2000
  192.1040  174.5120  146.0900 C   0  0  0  0  0  0  0  0  0  0  0  0
  191.4030  172.4820  141.4900 F   0  0  0  0  0  0  0  0  0  0  0  0
  191.5670  178.4680  143.8880 O   0  0  0  0  0  0  0  0  0  0  0  0
  189.5530  175.1370  147.0620 C   0  0  0  0  0  3  0  0  0  0  0  0
  190.0410  177.0090  142.7160 C   0  0  1  0  0  3  0  0  0  0  0  0
  193.4150  174.2720  145.5750 N   0  0  0  0  0  2  0  0  0  0  0  0
  190.3470  171.0440  142.8660 O   0  0  0  0  0  1  0  0  0  0  0  0
  190.2140  172.2440  142.1690 C   0  0  1  0  0  0  0  0  0  0  0  0
  189.0140  173.3480  140.5940 C   0  0  1  0  0  3  0  0  0  0  0  0
  189.9040  173.3630  143.1900 C   0  0  2  0  0  3  0  0  0  0  0  0
  194.2350  177.5870  145.5040 O   0  0  0  0  0  0  0  0  0  0  0  0
  191.5920  175.0860  142.8490 C   0  0  1  0  0  3  0  0  0  0  0  0
  188.3660  174.2590  141.4460 O   0  0  0  0  0  0  0  0  0  0  0  0
  189.1590  172.1090  141.2440 O   0  0  0  0  0  0  0  0  0  0  0  0
  194.1290  176.4980  144.9630 C   0  0  0  0  0  0  0  0  0  0  0  0
  190.9850  174.3570  145.2520 C   0  0  0  0  0  0  0  0  0  0  0  0
  191.2970  177.3260  143.4300 C   0  0  0  0  0  0  0  0  0  0  0  0
  188.1920  173.1630  139.3350 C   0  0  0  0  0  1  0  0  0  0  0  0
  193.6390  176.4170  143.5500 C   0  0  0  0  0  2  0  0  0  0  0  0
  189.7100  174.6810  145.7520 C   0  0  0  0  0  3  0  0  0  0  0  0
  191.9410  174.9890  147.3970 C   0  0  0  0  0  3  0  0  0  0  0  0
  190.6690  175.2910  147.8850 C   0  0  0  0  0  3  0  0  0  0  0  0
  194.4780  175.2540  145.7220 C   0  0  0  0  0  2  0  0  0  0  0  0
  190.3070  175.5860  142.1750 C   0  0  1  0  0  3  0  0  0  0  0  0
  192.1930  176.2320  143.5160 N   0  0  0  0  0  0  0  0  0  0  0  0
  189.2230  174.5690  142.5270 C   0  0  2  0  0  3  0  0  0  0  0  0
  188.9750  177.0400  143.6200 O   0  0  0  0  0  1  0  0  0  0  0  0
  191.1800  173.9410  143.8030 C   0  0  1  0  0  3  0  0  0  0  0  0
  1 21  1  0  0  0  0
  4 22  1  0  0  0  0
  5 17  1  0  0  0  0
  5 27  1  1  0  0  0
  6 23  1  0  0  0  0
  6  1  1  0  0  0  0
  8  2  1  6  0  0  0
  8  7  1  0  0  0  0
  8 10  1  0  0  0  0
  9 18  1  6  0  0  0
  9 14  1  0  0  0  0
  9 13  1  0  0  0  0
 10 28  1  0  0  0  0
 12 25  1  0  0  0  0
 12 28  1  0  0  0  0
 13 26  1  0  0  0  0
 14  8  1  0  0  0  0
 15 11  2  0  0  0  0
 15 23  1  0  0  0  0
 16 20  1  0  0  0  0
 16  1  2  0  0  0  0
 17 25  1  0  0  0  0
 17  3  2  0  0  0  0
 19 15  1  0  0  0  0
 20  4  2  0  0  0  0
 21 22  2  0  0  0  0
 24 26  1  0  0  0  0
 24  5  1  0  0  0  0
 24 12  1  0  0  0  0
 25 19  1  0  0  0  0
 26 10  1  0  0  0  0
 28 16  1  0  0  0  0
M  END
>  <MODEL>
5

>  <REMARK>
 VINA RESULT:      -7.3      3.010      4.861
  Name = 
  0 active torsions:
  status: ('A' for Active; 'I' for Inactive)
                            x       y       z     vdW  Elec       q    Type
                         _______ _______ _______ _____ _____    ______ ____

>  <TORSDO>
F 0

$$$$
=
 OpenBabel11112417383D

 28 32  0  0  1  0  0  0  0  0999 V2000
  187.2590  176.6530  143.7310 C   0  0  0  0  0  0  0  0  0  0  0  0
  189.2100  172.0480  144.6030 F   0  0  0  0  0  0  0  0  0  0  0  0
  190.0270  177.9300  147.1200 O   0  0  0  0  0  0  0  0  0  0  0  0
  189.1470  178.0170  142.1760 C   0  0  0  0  0  3  0  0  0  0  0  0
  191.3210  176.2220  146.0080 C   0  0  1  0  0  3  0  0  0  0  0  0
  186.3230  175.9990  144.5880 N   0  0  0  0  0  2  0  0  0  0  0  0
  188.9830  172.1080  142.3610 O   0  0  0  0  0  1  0  0  0  0  0  0
  189.8100  172.4720  143.4220 C   0  0  1  0  0  0  0  0  0  0  0  0
  191.8820  172.2500  144.3170 C   0  0  1  0  0  3  0  0  0  0  0  0
  189.9880  174.0070  143.3900 C   0  0  2  0  0  3  0  0  0  0  0  0
  186.7970  178.2010  147.1550 O   0  0  0  0  0  0  0  0  0  0  0  0
  189.3260  174.8190  145.5890 C   0  0  1  0  0  3  0  0  0  0  0  0
  192.3460  173.5510  144.0600 O   0  0  0  0  0  0  0  0  0  0  0  0
  191.0520  171.8240  143.2640 O   0  0  0  0  0  0  0  0  0  0  0  0
  186.7580  177.0640  146.7130 C   0  0  0  0  0  0  0  0  0  0  0  0
  188.5080  176.0590  143.4760 C   0  0  0  0  0  0  0  0  0  0  0  0
  190.0680  176.8300  146.5090 C   0  0  0  0  0  0  0  0  0  0  0  0
  193.0630  171.3090  144.4380 C   0  0  0  0  0  1  0  0  0  0  0  0
  187.7680  176.0570  147.1690 C   0  0  0  0  0  2  0  0  0  0  0  0
  189.4490  176.7590  142.6990 C   0  0  0  0  0  3  0  0  0  0  0  0
  186.9700  177.9260  143.2190 C   0  0  0  0  0  3  0  0  0  0  0  0
  187.9080  178.6020  142.4370 C   0  0  0  0  0  3  0  0  0  0  0  0
  185.7090  176.6930  145.7100 C   0  0  0  0  0  2  0  0  0  0  0  0
  190.8610  174.8160  145.5620 C   0  0  1  0  0  3  0  0  0  0  0  0
  188.9180  176.0380  146.2720 N   0  0  0  0  0  0  0  0  0  0  0  0
  191.2570  174.4510  144.1330 C   0  0  2  0  0  3  0  0  0  0  0  0
  191.8100  176.9820  144.9410 O   0  0  0  0  0  1  0  0  0  0  0  0
  188.8540  174.7260  144.1200 C   0  0  1  0  0  3  0  0  0  0  0  0
  1  6  1  0  0  0  0
  4 22  2  0  0  0  0
  4 20  1  0  0  0  0
  5 27  1  6  0  0  0
  5 17  1  0  0  0  0
  6 23  1  0  0  0  0
  8  7  1  6  0  0  0
  8  2  1  0  0  0  0
  9 18  1  6  0  0  0
 10  8  1  0  0  0  0
 10 28  1  0  0  0  0
 10 26  1  0  0  0  0
 12 25  1  0  0  0  0
 13 26  1  0  0  0  0
 13  9  1  0  0  0  0
 14  8  1  0  0  0  0
 14  9  1  0  0  0  0
 15 11  2  0  0  0  0
 15 19  1  0  0  0  0
 16  1  1  0  0  0  0
 16 28  1  0  0  0  0
 17  3  2  0  0  0  0
 20 16  2  0  0  0  0
 21  1  2  0  0  0  0
 22 21  1  0  0  0  0
 23 15  1  0  0  0  0
 24 12  1  0  0  0  0
 24  5  1  0  0  0  0
 25 17  1  0  0  0  0
 25 19  1  0  0  0  0
 26 24  1  0  0  0  0
 28 12  1  0  0  0  0
M  END
>  <MODEL>
6

>  <REMARK>
 VINA RESULT:      -7.2      2.677      5.678
  Name = 
  0 active torsions:
  status: ('A' for Active; 'I' for Inactive)
                            x       y       z     vdW  Elec       q    Type
                         _______ _______ _______ _____ _____    ______ ____

>  <TORSDO>
F 0

$$$$
=
 OpenBabel11112417383D

 28 32  0  0  1  0  0  0  0  0999 V2000
  193.4230  174.0270  144.2530 C   0  0  0  0  0  0  0  0  0  0  0  0
  189.9910  175.2770  147.7790 F   0  0  0  0  0  0  0  0  0  0  0  0
  189.7560  172.9480  141.7690 O   0  0  0  0  0  0  0  0  0  0  0  0
  193.5310  176.1850  142.4720 C   0  0  0  0  0  3  0  0  0  0  0  0
  188.9920  174.8690  143.0160 C   0  0  1  0  0  3  0  0  0  0  0  0
  193.3210  172.8870  145.1080 N   0  0  0  0  0  2  0  0  0  0  0  0
  191.5900  176.8490  148.0200 O   0  0  0  0  0  1  0  0  0  0  0  0
  190.4580  176.4920  147.2890 C   0  0  1  0  0  0  0  0  0  0  0  0
  188.3660  177.1280  146.6860 C   0  0  1  0  0  3  0  0  0  0  0  0
  190.8570  176.3920  145.7990 C   0  0  2  0  0  3  0  0  0  0  0  0
  192.0870  170.8710  142.6430 O   0  0  0  0  0  0  0  0  0  0  0  0
  190.1950  174.1660  145.0610 C   0  0  1  0  0  3  0  0  0  0  0  0
  188.6300  177.4130  145.3350 O   0  0  0  0  0  0  0  0  0  0  0  0
  189.4750  177.4850  147.4740 O   0  0  0  0  0  0  0  0  0  0  0  0
  192.0210  171.3610  143.7580 C   0  0  0  0  0  0  0  0  0  0  0  0
  192.5130  175.0900  144.3960 C   0  0  0  0  0  0  0  0  0  0  0  0
  189.7530  173.6120  142.8390 C   0  0  0  0  0  0  0  0  0  0  0  0
  187.1520  177.9130  147.1380 C   0  0  0  0  0  1  0  0  0  0  0  0
  190.6930  171.7950  144.3000 C   0  0  0  0  0  2  0  0  0  0  0  0
  192.5760  176.1650  143.4890 C   0  0  0  0  0  3  0  0  0  0  0  0
  194.3670  174.0440  143.2180 C   0  0  0  0  0  3  0  0  0  0  0  0
  194.4270  175.1240  142.3360 C   0  0  0  0  0  3  0  0  0  0  0  0
  193.2700  171.5370  144.5680 C   0  0  0  0  0  2  0  0  0  0  0  0
  189.1350  175.1410  144.5310 C   0  0  1  0  0  3  0  0  0  0  0  0
  190.4490  173.2010  144.0020 N   0  0  0  0  0  0  0  0  0  0  0  0
  189.6430  176.5420  144.8700 C   0  0  2  0  0  3  0  0  0  0  0  0
  189.5740  175.8760  142.2410 O   0  0  0  0  0  1  0  0  0  0  0  0
  191.4260  175.0150  145.4550 C   0  0  1  0  0  3  0  0  0  0  0  0
  1 16  1  0  0  0  0
  1  6  1  0  0  0  0
  3 17  2  0  0  0  0
  4 20  1  0  0  0  0
  5 27  1  6  0  0  0
  5 24  1  0  0  0  0
  8 14  1  0  0  0  0
  8  2  1  1  0  0  0
  8  7  1  0  0  0  0
  9 18  1  1  0  0  0
  9 14  1  0  0  0  0
 10  8  1  0  0  0  0
 11 15  2  0  0  0  0
 12 28  1  0  0  0  0
 13  9  1  0  0  0  0
 15 19  1  0  0  0  0
 15 23  1  0  0  0  0
 16 28  1  0  0  0  0
 17  5  1  0  0  0  0
 17 25  1  0  0  0  0
 20 16  2  0  0  0  0
 21  1  2  0  0  0  0
 22  4  2  0  0  0  0
 22 21  1  0  0  0  0
 23  6  1  0  0  0  0
 24 26  1  0  0  0  0
 24 12  1  0  0  0  0
 25 19  1  0  0  0  0
 25 12  1  0  0  0  0
 26 13  1  0  0  0  0
 26 10  1  0  0  0  0
 28 10  1  0  0  0  0
M  END
>  <MODEL>
7

>  <REMARK>
 VINA RESULT:      -7.1      2.510      4.368
  Name = 
  0 active torsions:
  status: ('A' for Active; 'I' for Inactive)
                            x       y       z     vdW  Elec       q    Type
                         _______ _______ _______ _____ _____    ______ ____

>  <TORSDO>
F 0

$$$$
=
 OpenBabel11112417383D

 28 32  0  0  1  0  0  0  0  0999 V2000
  193.4350  175.2960  141.3920 C   0  0  0  0  0  0  0  0  0  0  0  0
  190.5310  178.6390  143.8740 F   0  0  0  0  0  0  0  0  0  0  0  0
  194.4120  173.7770  145.5780 O   0  0  0  0  0  0  0  0  0  0  0  0
  191.9610  172.9170  141.2790 C   0  0  0  0  0  3  0  0  0  0  0  0
  192.0960  174.4280  145.7880 C   0  0  1  0  0  3  0  0  0  0  0  0
  194.2290  176.4770  141.5110 N   0  0  0  0  0  2  0  0  0  0  0  0
  189.3220  178.1570  142.0330 O   0  0  0  0  0  1  0  0  0  0  0  0
  189.6350  177.7300  143.3230 C   0  0  1  0  0  0  0  0  0  0  0  0
  188.7870  177.2250  145.3640 C   0  0  1  0  0  3  0  0  0  0  0  0
  190.2460  176.3120  143.2260 C   0  0  2  0  0  3  0  0  0  0  0  0
  196.5770  174.9680  143.4790 O   0  0  0  0  0  0  0  0  0  0  0  0
  192.4030  176.4190  144.3520 C   0  0  1  0  0  3  0  0  0  0  0  0
  188.9690  175.8330  145.3120 O   0  0  0  0  0  0  0  0  0  0  0  0
  188.4510  177.7090  144.0870 O   0  0  0  0  0  0  0  0  0  0  0  0
  195.7800  175.8650  143.2600 C   0  0  0  0  0  0  0  0  0  0  0  0
  192.2120  175.2030  142.0820 C   0  0  0  0  0  0  0  0  0  0  0  0
  193.4780  174.5680  145.2790 C   0  0  0  0  0  0  0  0  0  0  0  0
  187.6710  177.5520  146.3360 C   0  0  0  0  0  1  0  0  0  0  0  0
  194.9430  176.4040  144.3800 C   0  0  0  0  0  2  0  0  0  0  0  0
  191.4860  174.0000  142.0210 C   0  0  0  0  0  3  0  0  0  0  0  0
  193.9150  174.1990  140.6650 C   0  0  0  0  0  3  0  0  0  0  0  0
  193.1760  173.0160  140.6010 C   0  0  0  0  0  3  0  0  0  0  0  0
  195.6370  176.4100  141.8720 C   0  0  0  0  0  2  0  0  0  0  0  0
  191.4290  175.7430  145.3260 C   0  0  1  0  0  3  0  0  0  0  0  0
  193.6660  175.7030  144.4520 N   0  0  0  0  0  0  0  0  0  0  0  0
  190.1270  175.5470  144.5520 C   0  0  2  0  0  3  0  0  0  0  0  0
  191.5020  173.3020  145.2090 O   0  0  0  0  0  1  0  0  0  0  0  0
  191.7490  176.3600  142.9530 C   0  0  1  0  0  3  0  0  0  0  0  0
  1  6  1  0  0  0  0
  1 16  1  0  0  0  0
  4 20  1  0  0  0  0
  5 27  1  6  0  0  0
  6 23  1  0  0  0  0
  8  7  1  6  0  0  0
  8  2  1  0  0  0  0
  8 14  1  0  0  0  0
  9 18  1  1  0  0  0
 10  8  1  0  0  0  0
 10 26  1  0  0  0  0
 12 25  1  0  0  0  0
 12 24  1  0  0  0  0
 13  9  1  0  0  0  0
 14  9  1  0  0  0  0
 15 11  2  0  0  0  0
 15 19  1  0  0  0  0
 16 28  1  0  0  0  0
 17  3  2  0  0  0  0
 17  5  1  0  0  0  0
 19 25  1  0  0  0  0
 20 16  2  0  0  0  0
 21  1  2  0  0  0  0
 22 21  1  0  0  0  0
 22  4  2  0  0  0  0
 23 15  1  0  0  0  0
 24  5  1  0  0  0  0
 25 17  1  0  0  0  0
 26 13  1  0  0  0  0
 26 24  1  0  0  0  0
 28 10  1  0  0  0  0
 28 12  1  0  0  0  0
M  END
>  <MODEL>
8

>  <REMARK>
 VINA RESULT:      -6.8      2.211      2.973
  Name = 
  0 active torsions:
  status: ('A' for Active; 'I' for Inactive)
                            x       y       z     vdW  Elec       q    Type
                         _______ _______ _______ _____ _____    ______ ____

>  <TORSDO>
F 0

$$$$
=
 OpenBabel11112417383D

 28 32  0  0  1  0  0  0  0  0999 V2000
  194.8840  175.9600  142.1260 C   0  0  0  0  0  0  0  0  0  0  0  0
  192.0790  176.8810  146.2560 F   0  0  0  0  0  0  0  0  0  0  0  0
  195.6210  171.9300  144.1250 O   0  0  0  0  0  0  0  0  0  0  0  0
  193.2870  174.4050  140.4300 C   0  0  0  0  0  3  0  0  0  0  0  0
  193.3390  172.4090  144.7490 C   0  0  1  0  0  3  0  0  0  0  0  0
  195.7370  176.6850  143.0130 N   0  0  0  0  0  2  0  0  0  0  0  0
  190.9140  177.8680  144.5970 O   0  0  0  0  0  1  0  0  0  0  0  0
  191.1560  176.6550  145.2400 C   0  0  1  0  0  0  0  0  0  0  0  0
  190.2060  174.9480  146.3920 C   0  0  1  0  0  3  0  0  0  0  0  0
  191.6910  175.6520  144.1930 C   0  0  2  0  0  3  0  0  0  0  0  0
  197.9240  174.0890  143.3880 O   0  0  0  0  0  0  0  0  0  0  0  0
  193.8080  174.8190  145.0630 C   0  0  1  0  0  3  0  0  0  0  0  0
  190.3130  173.9600  145.3980 O   0  0  0  0  0  0  0  0  0  0  0  0
  189.9450  176.1950  145.7960 O   0  0  0  0  0  0  0  0  0  0  0  0
  197.1870  174.9420  143.8520 C   0  0  0  0  0  0  0  0  0  0  0  0
  193.6340  175.5000  142.5780 C   0  0  0  0  0  0  0  0  0  0  0  0
  194.7440  172.7700  144.4590 C   0  0  0  0  0  0  0  0  0  0  0  0
  189.0750  174.5930  147.3360 C   0  0  0  0  0  1  0  0  0  0  0  0
  196.3400  174.6220  145.0460 C   0  0  0  0  0  2  0  0  0  0  0  0
  192.8450  174.7150  141.7180 C   0  0  0  0  0  3  0  0  0  0  0  0
  195.3300  175.6290  140.8390 C   0  0  0  0  0  3  0  0  0  0  0  0
  194.5300  174.8610  139.9910 C   0  0  0  0  0  3  0  0  0  0  0  0
  197.1250  176.2980  143.2150 C   0  0  0  0  0  2  0  0  0  0  0  0
  192.7630  173.7250  145.3210 C   0  0  1  0  0  3  0  0  0  0  0  0
  195.0250  174.1470  144.6320 N   0  0  0  0  0  0  0  0  0  0  0  0
  191.4810  174.1960  144.6370 C   0  0  2  0  0  3  0  0  0  0  0  0
  192.7050  172.0260  143.5630 O   0  0  0  0  0  1  0  0  0  0  0  0
  193.2030  175.7750  144.0100 C   0  0  1  0  0  3  0  0  0  0  0  0
  1 16  1  0  0  0  0
  1  6  1  0  0  0  0
  3 17  2  0  0  0  0
  4 20  1  0  0  0  0
  5 27  1  6  0  0  0
  5 24  1  0  0  0  0
  6 23  1  0  0  0  0
  8  7  1  6  0  0  0
  8 14  1  0  0  0  0
  8  2  1  0  0  0  0
  9 18  1  1  0  0  0
 10 26  1  0  0  0  0
 10  8  1  0  0  0  0
 11 15  2  0  0  0  0
 12 24  1  0  0  0  0
 13  9  1  0  0  0  0
 14  9  1  0  0  0  0
 15 19  1  0  0  0  0
 16 28  1  0  0  0  0
 17 25  1  0  0  0  0
 17  5  1  0  0  0  0
 20 16  2  0  0  0  0
 21  1  2  0  0  0  0
 22  4  2  0  0  0  0
 22 21  1  0  0  0  0
 23 15  1  0  0  0  0
 25 19  1  0  0  0  0
 25 12  1  0  0  0  0
 26 24  1  0  0  0  0
 26 13  1  0  0  0  0
 28 10  1  0  0  0  0
 28 12  1  0  0  0  0
M  END
>  <MODEL>
9

>  <REMARK>
 VINA RESULT:      -6.8      3.073      4.749
  Name = 
  0 active torsions:
  status: ('A' for Active; 'I' for Inactive)
                            x       y       z     vdW  Elec       q    Type
                         _______ _______ _______ _____ _____    ______ ____

>  <TORSDO>
F 0

$$$$
