=
 OpenBabel11112417283D

 37 44  0  0  1  0  0  0  0  0999 V2000
  193.2370  172.4780  143.4440 C   0  0  0  0  0  0  0  0  0  0  0  0
  190.7520  174.3700  141.3890 C   0  0  1  0  0  3  0  0  0  0  0  0
  189.7730  177.3020  142.4860 O   0  0  0  0  0  0  0  0  0  0  0  0
  192.7840  172.7550  141.1920 C   0  0  2  0  0  3  0  0  0  0  0  0
  190.4320  175.0210  142.7130 C   0  0  2  0  0  3  0  0  0  0  0  0
  192.2590  174.1550  141.5260 C   0  0  2  0  0  3  0  0  0  0  0  0
  189.2700  176.0080  142.6800 C   0  0  2  0  0  3  0  0  0  0  0  0
  192.0070  172.1980  140.0090 C   0  0  0  0  0  2  0  0  0  0  0  0
  192.6540  174.6160  142.8670 N   0  0  2  0  0  0  0  0  0  0  0  0
  194.7280  172.8120  143.3090 C   0  0  0  0  0  1  0  0  0  0  0  0
  188.5830  173.4560  140.6940 N   0  0  0  0  0  2  0  0  0  0  0  0
  190.5190  172.0210  140.3270 C   0  0  0  0  0  2  0  0  0  0  0  0
  192.4500  173.6050  143.7810 O   0  0  0  0  0  0  0  0  0  0  0  0
  189.5680  177.3100  145.0350 C   0  0  0  0  0  2  0  0  0  0  0  0
  189.8690  178.0170  143.7140 C   0  0  1  0  0  3  0  0  0  0  0  0
  189.8980  173.1020  141.2290 C   0  0  1  0  0  3  0  0  0  0  0  0
  191.6960  175.6330  143.1210 N   0  0  2  0  0  0  0  0  0  0  0  0
  192.7210  171.8620  142.2840 O   0  0  0  0  0  0  0  0  0  0  0  0
  188.1580  175.6670  141.6740 C   0  0  1  0  0  3  0  0  0  0  0  0
  193.1150  171.4850  144.5790 C   0  0  0  0  0  1  0  0  0  0  0  0
  191.0170  177.5200  144.6250 C   0  0  2  0  0  3  0  0  0  0  0  0
  191.6560  176.1080  144.5220 C   0  0  2  0  0  3  0  0  0  0  0  0
  187.8040  174.1760  141.6990 C   0  0  0  0  0  2  0  0  0  0  0  0
  186.3470  176.4760  143.1930 C   0  0  0  0  0  3  0  0  0  0  0  0
  186.9400  176.5000  141.9260 C   0  0  0  0  0  0  0  0  0  0  0  0
  186.3800  177.2940  140.9130 C   0  0  0  0  0  3  0  0  0  0  0  0
  184.6990  178.8200  140.1890 F   0  0  0  0  0  0  0  0  0  0  0  0
  184.6490  178.0280  142.4380 C   0  0  0  0  0  3  0  0  0  0  0  0
  185.2370  178.0560  141.1700 C   0  0  0  0  0  0  0  0  0  0  0  0
  185.2030  177.2390  143.4490 C   0  0  0  0  0  3  0  0  0  0  0  0
  193.0720  176.2520  145.1180 C   0  0  1  0  0  3  0  0  0  0  0  0
  193.1270  176.2960  146.6580 C   0  0  2  0  0  3  0  0  0  0  0  0
  193.4930  175.0320  145.9160 C   0  0  2  0  0  3  0  0  0  0  0  0
  195.3000  174.8870  145.8850 S   0  0  0  0  0  0  0  0  0  0  0  0
  195.4470  176.1850  144.6270 C   0  0  0  0  0  1  0  0  0  0  0  0
  191.5820  177.1430  148.4040 C   0  0  0  0  0  1  0  0  0  0  0  0
  191.8130  176.0460  147.3850 C   0  0  0  0  0  2  0  0  0  0  0  0
  1 13  1  0  0  0  0
  1 20  1  0  0  0  0
  2  6  1  0  0  0  0
  2  5  1  0  0  0  0
  3  7  1  0  0  0  0
  3 15  1  0  0  0  0
  4  6  1  0  0  0  0
  4 18  1  0  0  0  0
  5 17  1  0  0  0  0
  6  9  1  0  0  0  0
  7  5  1  0  0  0  0
  8 12  1  0  0  0  0
  8  4  1  0  0  0  0
  9 17  1  0  0  0  0
  9 13  1  0  0  0  0
 10  1  1  0  0  0  0
 11 16  1  0  0  0  0
 11 23  1  0  0  0  0
 12 16  1  0  0  0  0
 15 21  1  0  0  0  0
 15 14  1  0  0  0  0
 16  2  1  0  0  0  0
 17 22  1  0  0  0  0
 18  1  1  0  0  0  0
 19 23  1  0  0  0  0
 19 25  1  0  0  0  0
 19  7  1  0  0  0  0
 21 14  1  0  0  0  0
 22 21  1  0  0  0  0
 22 31  1  0  0  0  0
 24 30  1  0  0  0  0
 25 24  2  0  0  0  0
 26 29  2  0  0  0  0
 26 25  1  0  0  0  0
 27 29  1  0  0  0  0
 28 30  2  0  0  0  0
 29 28  1  0  0  0  0
 31 33  1  0  0  0  0
 31 32  1  0  0  0  0
 32 37  1  0  0  0  0
 33 32  1  0  0  0  0
 34 33  1  0  0  0  0
 35 34  1  0  0  0  0
 37 36  1  0  0  0  0
M  END
>  <MODEL>
1

>  <REMARK>
 VINA RESULT:      -8.3      0.000      0.000
  Name = 
  4 active torsions:
  status: ('A' for Active; 'I' for Inactive)
    1  A    between atoms: C_1  and  C_27
    2  A    between atoms: C_4  and  C_37
    3  A    between atoms: S_8  and  C_12
    4  A    between atoms: C_23  and  C_30
                            x       y       z     vdW  Elec       q    Type
                         _______ _______ _______ _____ _____    ______ ____

>  <TORSDO>
F 4

$$$$
=
 OpenBabel11112417283D

 37 44  0  0  1  0  0  0  0  0999 V2000
  193.8820  173.4730  142.6720 C   0  0  0  0  0  0  0  0  0  0  0  0
  191.0820  174.9320  144.6730 C   0  0  1  0  0  3  0  0  0  0  0  0
  188.0680  174.8500  143.3790 O   0  0  0  0  0  0  0  0  0  0  0  0
  193.3200  173.6240  144.9110 C   0  0  2  0  0  3  0  0  0  0  0  0
  190.4410  175.0900  143.3160 C   0  0  2  0  0  3  0  0  0  0  0  0
  191.8470  173.6230  144.4850 C   0  0  2  0  0  3  0  0  0  0  0  0
  189.0930  175.8040  143.3190 C   0  0  2  0  0  3  0  0  0  0  0  0
  193.4750  174.4600  146.1720 C   0  0  0  0  0  2  0  0  0  0  0  0
  191.6490  173.1880  143.0920 N   0  0  2  0  0  0  0  0  0  0  0  0
  194.1170  171.9580  142.7080 C   0  0  0  0  0  1  0  0  0  0  0  0
  191.0820  177.2270  145.5440 N   0  0  0  0  0  2  0  0  0  0  0  0
  193.1070  175.9290  145.9400 C   0  0  0  0  0  2  0  0  0  0  0  0
  192.5660  173.8160  142.2780 O   0  0  0  0  0  0  0  0  0  0  0  0
  188.1410  175.2270  140.8520 C   0  0  0  0  0  2  0  0  0  0  0  0
  187.5170  174.5900  142.0920 C   0  0  1  0  0  3  0  0  0  0  0  0
  191.9300  176.1760  144.9800 C   0  0  1  0  0  3  0  0  0  0  0  0
  190.3670  173.7230  142.7990 N   0  0  2  0  0  0  0  0  0  0  0  0
  194.1900  174.0910  143.9030 O   0  0  0  0  0  0  0  0  0  0  0  0
  188.9360  176.8850  144.4010 C   0  0  1  0  0  3  0  0  0  0  0  0
  194.8260  174.0350  141.6320 C   0  0  0  0  0  1  0  0  0  0  0  0
  188.4590  173.7750  141.1740 C   0  0  2  0  0  3  0  0  0  0  0  0
  189.9970  173.6920  141.3660 C   0  0  2  0  0  3  0  0  0  0  0  0
  190.1880  177.7610  144.5190 C   0  0  0  0  0  2  0  0  0  0  0  0
  187.4480  178.1280  142.8260 C   0  0  0  0  0  3  0  0  0  0  0  0
  187.7270  177.7290  144.1370 C   0  0  0  0  0  0  0  0  0  0  0  0
  186.8800  178.1330  145.1810 C   0  0  0  0  0  3  0  0  0  0  0  0
  184.9490  179.3170  145.9200 F   0  0  0  0  0  0  0  0  0  0  0  0
  185.4880  179.3230  143.5980 C   0  0  0  0  0  3  0  0  0  0  0  0
  185.7630  178.9290  144.9100 C   0  0  0  0  0  0  0  0  0  0  0  0
  186.3300  178.9240  142.5560 C   0  0  0  0  0  3  0  0  0  0  0  0
  190.4250  172.3700  140.6940 C   0  0  1  0  0  3  0  0  0  0  0  0
  190.3440  172.3680  139.1550 C   0  0  2  0  0  3  0  0  0  0  0  0
  191.6770  172.5270  139.8490 C   0  0  2  0  0  3  0  0  0  0  0  0
  192.5550  170.9420  139.7760 S   0  0  0  0  0  0  0  0  0  0  0  0
  191.3300  170.1400  140.8460 C   0  0  0  0  0  1  0  0  0  0  0  0
  188.9270  173.4800  137.4500 C   0  0  0  0  0  1  0  0  0  0  0  0
  189.9990  173.6970  138.4980 C   0  0  0  0  0  2  0  0  0  0  0  0
  1 10  1  0  0  0  0
  1 18  1  0  0  0  0
  2 16  1  0  0  0  0
  4  8  1  0  0  0  0
  5  7  1  0  0  0  0
  5  2  1  0  0  0  0
  6  2  1  0  0  0  0
  6  4  1  0  0  0  0
  7  3  1  0  0  0  0
  7 19  1  0  0  0  0
  9  6  1  0  0  0  0
 12  8  1  0  0  0  0
 13  1  1  0  0  0  0
 13  9  1  0  0  0  0
 14 21  1  0  0  0  0
 14 15  1  0  0  0  0
 15  3  1  0  0  0  0
 16 11  1  0  0  0  0
 16 12  1  0  0  0  0
 17  9  1  0  0  0  0
 17  5  1  0  0  0  0
 18  4  1  0  0  0  0
 19 23  1  0  0  0  0
 20  1  1  0  0  0  0
 21 22  1  0  0  0  0
 21 15  1  0  0  0  0
 22 17  1  0  0  0  0
 23 11  1  0  0  0  0
 24 25  1  0  0  0  0
 25 19  1  0  0  0  0
 25 26  2  0  0  0  0
 28 29  2  0  0  0  0
 29 26  1  0  0  0  0
 29 27  1  0  0  0  0
 30 24  2  0  0  0  0
 30 28  1  0  0  0  0
 31 22  1  0  0  0  0
 32 33  1  0  0  0  0
 32 31  1  0  0  0  0
 33 31  1  0  0  0  0
 34 33  1  0  0  0  0
 34 35  1  0  0  0  0
 36 37  1  0  0  0  0
 37 32  1  0  0  0  0
M  END
>  <MODEL>
2

>  <REMARK>
 VINA RESULT:      -7.7      2.339      5.200
  Name = 
  4 active torsions:
  status: ('A' for Active; 'I' for Inactive)
    1  A    between atoms: C_1  and  C_27
    2  A    between atoms: C_4  and  C_37
    3  A    between atoms: S_8  and  C_12
    4  A    between atoms: C_23  and  C_30
                            x       y       z     vdW  Elec       q    Type
                         _______ _______ _______ _____ _____    ______ ____

>  <TORSDO>
F 4

$$$$
=
 OpenBabel11112417283D

 37 44  0  0  1  0  0  0  0  0999 V2000
  193.7680  175.0620  142.8630 C   0  0  0  0  0  0  0  0  0  0  0  0
  190.8040  175.2120  145.1350 C   0  0  1  0  0  3  0  0  0  0  0  0
  187.8210  175.0980  143.7730 O   0  0  0  0  0  0  0  0  0  0  0  0
  193.2370  174.3010  144.9810 C   0  0  2  0  0  3  0  0  0  0  0  0
  190.1160  175.7380  143.8990 C   0  0  2  0  0  3  0  0  0  0  0  0
  191.7780  174.2070  144.5230 C   0  0  2  0  0  3  0  0  0  0  0  0
  188.6660  176.1670  144.1010 C   0  0  2  0  0  3  0  0  0  0  0  0
  193.2740  174.6400  146.4640 C   0  0  0  0  0  2  0  0  0  0  0  0
  191.6270  174.2760  143.0600 N   0  0  2  0  0  0  0  0  0  0  0  0
  194.2600  173.6980  142.3630 C   0  0  0  0  0  1  0  0  0  0  0  0
  190.4300  177.0060  146.7690 N   0  0  0  0  0  2  0  0  0  0  0  0
  192.6550  176.0100  146.7590 C   0  0  0  0  0  2  0  0  0  0  0  0
  192.4050  175.2990  142.5630 O   0  0  0  0  0  0  0  0  0  0  0  0
  187.7740  176.3660  141.5530 C   0  0  0  0  0  2  0  0  0  0  0  0
  187.2950  175.2310  142.4560 C   0  0  1  0  0  3  0  0  0  0  0  0
  191.4330  176.3860  145.9020 C   0  0  1  0  0  3  0  0  0  0  0  0
  190.2660  174.6580  142.9240 N   0  0  2  0  0  0  0  0  0  0  0  0
  193.9930  175.2380  144.2450 O   0  0  0  0  0  0  0  0  0  0  0  0
  188.3500  176.7440  145.4910 C   0  0  1  0  0  3  0  0  0  0  0  0
  194.5800  176.1100  142.1330 C   0  0  0  0  0  1  0  0  0  0  0  0
  188.3420  174.9710  141.3470 C   0  0  2  0  0  3  0  0  0  0  0  0
  189.8760  175.0830  141.5610 C   0  0  2  0  0  3  0  0  0  0  0  0
  189.4350  177.7140  145.9670 C   0  0  0  0  0  2  0  0  0  0  0  0
  185.9890  176.8860  146.2960 C   0  0  0  0  0  3  0  0  0  0  0  0
  187.0090  177.4110  145.4960 C   0  0  0  0  0  0  0  0  0  0  0  0
  186.7580  178.5430  144.7060 C   0  0  0  0  0  3  0  0  0  0  0  0
  185.2570  180.2350  143.9550 F   0  0  0  0  0  0  0  0  0  0  0  0
  184.4800  178.6140  145.5220 C   0  0  0  0  0  3  0  0  0  0  0  0
  185.4960  179.1430  144.7190 C   0  0  0  0  0  0  0  0  0  0  0  0
  184.7260  177.4870  146.3100 C   0  0  0  0  0  3  0  0  0  0  0  0
  190.5100  174.1830  140.4780 C   0  0  1  0  0  3  0  0  0  0  0  0
  190.2400  172.6750  140.6480 C   0  0  2  0  0  3  0  0  0  0  0  0
  189.4690  173.4790  139.6270 C   0  0  2  0  0  3  0  0  0  0  0  0
  190.1630  173.1410  137.9860 S   0  0  0  0  0  0  0  0  0  0  0  0
  188.8400  174.0690  137.1640 C   0  0  0  0  0  1  0  0  0  0  0  0
  189.9140  171.2250  142.6330 C   0  0  0  0  0  1  0  0  0  0  0  0
  189.2760  172.2850  141.7600 C   0  0  0  0  0  2  0  0  0  0  0  0
  1 18  1  0  0  0  0
  2 16  1  0  0  0  0
  3  7  1  0  0  0  0
  4  8  1  0  0  0  0
  5  7  1  0  0  0  0
  5  2  1  0  0  0  0
  6  4  1  0  0  0  0
  6  2  1  0  0  0  0
  7 19  1  0  0  0  0
  8 12  1  0  0  0  0
  9  6  1  0  0  0  0
 10  1  1  0  0  0  0
 13  1  1  0  0  0  0
 13  9  1  0  0  0  0
 14 15  1  0  0  0  0
 15  3  1  0  0  0  0
 16 12  1  0  0  0  0
 16 11  1  0  0  0  0
 17  9  1  0  0  0  0
 17  5  1  0  0  0  0
 18  4  1  0  0  0  0
 19 25  1  0  0  0  0
 19 23  1  0  0  0  0
 20  1  1  0  0  0  0
 21 14  1  0  0  0  0
 21 22  1  0  0  0  0
 21 15  1  0  0  0  0
 22 17  1  0  0  0  0
 23 11  1  0  0  0  0
 24 30  1  0  0  0  0
 25 24  2  0  0  0  0
 26 29  2  0  0  0  0
 26 25  1  0  0  0  0
 27 29  1  0  0  0  0
 28 30  2  0  0  0  0
 29 28  1  0  0  0  0
 31 32  1  0  0  0  0
 31 22  1  0  0  0  0
 32 37  1  0  0  0  0
 33 31  1  0  0  0  0
 33 32  1  0  0  0  0
 34 33  1  0  0  0  0
 35 34  1  0  0  0  0
 37 36  1  0  0  0  0
M  END
>  <MODEL>
3

>  <REMARK>
 VINA RESULT:      -7.6      2.623      5.180
  Name = 
  4 active torsions:
  status: ('A' for Active; 'I' for Inactive)
    1  A    between atoms: C_1  and  C_27
    2  A    between atoms: C_4  and  C_37
    3  A    between atoms: S_8  and  C_12
    4  A    between atoms: C_23  and  C_30
                            x       y       z     vdW  Elec       q    Type
                         _______ _______ _______ _____ _____    ______ ____

>  <TORSDO>
F 4

$$$$
=
 OpenBabel11112417283D

 37 44  0  0  1  0  0  0  0  0999 V2000
  193.1970  174.4520  145.0430 C   0  0  0  0  0  0  0  0  0  0  0  0
  189.5970  175.4530  145.1510 C   0  0  1  0  0  3  0  0  0  0  0  0
  187.6580  174.4710  142.6940 O   0  0  0  0  0  0  0  0  0  0  0  0
  191.5910  174.7680  146.6780 C   0  0  2  0  0  3  0  0  0  0  0  0
  189.6910  175.2640  143.6570 C   0  0  2  0  0  3  0  0  0  0  0  0
  190.5360  174.3540  145.6460 C   0  0  2  0  0  3  0  0  0  0  0  0
  188.4290  175.6260  142.8810 C   0  0  2  0  0  3  0  0  0  0  0  0
  190.9820  175.7810  147.6350 C   0  0  0  0  0  2  0  0  0  0  0  0
  191.1140  173.6980  144.4610 N   0  0  2  0  0  0  0  0  0  0  0  0
  193.6010  173.0570  145.5390 C   0  0  0  0  0  1  0  0  0  0  0  0
  188.8360  177.7780  145.3580 N   0  0  0  0  0  2  0  0  0  0  0  0
  190.5680  177.0730  146.9220 C   0  0  0  0  0  2  0  0  0  0  0  0
  192.2120  174.4100  144.0280 O   0  0  0  0  0  0  0  0  0  0  0  0
  188.9100  174.5040  140.4650 C   0  0  0  0  0  2  0  0  0  0  0  0
  187.8560  173.9120  141.3990 C   0  0  1  0  0  3  0  0  0  0  0  0
  189.9940  176.8950  145.5060 C   0  0  1  0  0  3  0  0  0  0  0  0
  190.0810  173.8630  143.5020 N   0  0  2  0  0  0  0  0  0  0  0  0
  192.7660  175.2880  146.0960 O   0  0  0  0  0  0  0  0  0  0  0  0
  187.6050  176.7760  143.4850 C   0  0  1  0  0  3  0  0  0  0  0  0
  194.4380  175.0760  144.4440 C   0  0  0  0  0  1  0  0  0  0  0  0
  189.2340  173.2300  141.2290 C   0  0  2  0  0  3  0  0  0  0  0  0
  190.4730  173.5470  142.1100 C   0  0  2  0  0  3  0  0  0  0  0  0
  188.4950  177.9350  143.9460 C   0  0  0  0  0  2  0  0  0  0  0  0
  186.9360  177.4420  141.1720 C   0  0  0  0  0  3  0  0  0  0  0  0
  186.5760  177.2590  142.5110 C   0  0  0  0  0  0  0  0  0  0  0  0
  185.2630  177.5410  142.9210 C   0  0  0  0  0  3  0  0  0  0  0  0
  183.0560  178.2710  142.3950 F   0  0  0  0  0  0  0  0  0  0  0  0
  184.6880  178.1800  140.6580 C   0  0  0  0  0  3  0  0  0  0  0  0
  184.3210  178.0000  141.9950 C   0  0  0  0  0  0  0  0  0  0  0  0
  185.9930  177.9010  140.2460 C   0  0  0  0  0  3  0  0  0  0  0  0
  191.3620  172.2880  142.0380 C   0  0  1  0  0  3  0  0  0  0  0  0
  192.1030  172.0910  140.7010 C   0  0  2  0  0  3  0  0  0  0  0  0
  192.8370  172.6250  141.9100 C   0  0  2  0  0  3  0  0  0  0  0  0
  193.8250  171.2810  142.6210 S   0  0  0  0  0  0  0  0  0  0  0  0
  192.3440  170.4200  143.2160 C   0  0  0  0  0  1  0  0  0  0  0  0
  191.5750  172.6620  138.3460 C   0  0  0  0  0  1  0  0  0  0  0  0
  191.9810  173.2250  139.6920 C   0  0  0  0  0  2  0  0  0  0  0  0
  1 10  1  0  0  0  0
  1 18  1  0  0  0  0
  2 16  1  0  0  0  0
  2  6  1  0  0  0  0
  3  7  1  0  0  0  0
  4  8  1  0  0  0  0
  5  2  1  0  0  0  0
  6  4  1  0  0  0  0
  7 19  1  0  0  0  0
  7  5  1  0  0  0  0
  9  6  1  0  0  0  0
 11 16  1  0  0  0  0
 12  8  1  0  0  0  0
 13  9  1  0  0  0  0
 13  1  1  0  0  0  0
 14 21  1  0  0  0  0
 14 15  1  0  0  0  0
 15  3  1  0  0  0  0
 16 12  1  0  0  0  0
 17  5  1  0  0  0  0
 17  9  1  0  0  0  0
 18  4  1  0  0  0  0
 19 23  1  0  0  0  0
 20  1  1  0  0  0  0
 21 15  1  0  0  0  0
 21 22  1  0  0  0  0
 22 17  1  0  0  0  0
 23 11  1  0  0  0  0
 24 25  1  0  0  0  0
 25 26  2  0  0  0  0
 25 19  1  0  0  0  0
 28 29  2  0  0  0  0
 29 27  1  0  0  0  0
 29 26  1  0  0  0  0
 30 28  1  0  0  0  0
 30 24  2  0  0  0  0
 31 22  1  0  0  0  0
 32 33  1  0  0  0  0
 32 31  1  0  0  0  0
 33 31  1  0  0  0  0
 33 34  1  0  0  0  0
 34 35  1  0  0  0  0
 36 37  1  0  0  0  0
 37 32  1  0  0  0  0
M  END
>  <MODEL>
4

>  <REMARK>
 VINA RESULT:      -7.5      1.901      4.915
  Name = 
  4 active torsions:
  status: ('A' for Active; 'I' for Inactive)
    1  A    between atoms: C_1  and  C_27
    2  A    between atoms: C_4  and  C_37
    3  A    between atoms: S_8  and  C_12
    4  A    between atoms: C_23  and  C_30
                            x       y       z     vdW  Elec       q    Type
                         _______ _______ _______ _____ _____    ______ ____

>  <TORSDO>
F 4

$$$$
=
 OpenBabel11112417283D

 37 44  0  0  1  0  0  0  0  0999 V2000
  194.5000  174.6700  141.6000 C   0  0  0  0  0  0  0  0  0  0  0  0
  191.7680  175.3510  144.0600 C   0  0  1  0  0  3  0  0  0  0  0  0
  188.7190  174.4520  143.2510 O   0  0  0  0  0  0  0  0  0  0  0  0
  194.2810  174.6910  143.9030 C   0  0  2  0  0  3  0  0  0  0  0  0
  190.9010  175.3160  142.8250 C   0  0  2  0  0  3  0  0  0  0  0  0
  192.8140  174.2920  143.7130 C   0  0  2  0  0  3  0  0  0  0  0  0
  189.4310  175.6450  143.0610 C   0  0  2  0  0  3  0  0  0  0  0  0
  194.4080  175.5530  145.1500 C   0  0  0  0  0  2  0  0  0  0  0  0
  192.5190  173.8040  142.3560 N   0  0  2  0  0  0  0  0  0  0  0  0
  195.1320  173.2730  141.5510 C   0  0  0  0  0  1  0  0  0  0  0  0
  191.2980  177.5730  144.9910 N   0  0  0  0  0  2  0  0  0  0  0  0
  193.6310  176.8680  145.0250 C   0  0  0  0  0  2  0  0  0  0  0  0
  193.0950  174.6450  141.4270 O   0  0  0  0  0  0  0  0  0  0  0  0
  188.2860  174.8060  140.7560 C   0  0  0  0  0  2  0  0  0  0  0  0
  188.0590  174.0400  142.0580 C   0  0  1  0  0  3  0  0  0  0  0  0
  192.2940  176.7810  144.2690 C   0  0  1  0  0  3  0  0  0  0  0  0
  191.1120  173.9740  142.2830 N   0  0  2  0  0  0  0  0  0  0  0  0
  194.8250  175.3620  142.7870 O   0  0  0  0  0  0  0  0  0  0  0  0
  189.1660  176.6570  144.1880 C   0  0  1  0  0  3  0  0  0  0  0  0
  195.0830  175.4510  140.4430 C   0  0  0  0  0  1  0  0  0  0  0  0
  189.0240  173.4950  140.9790 C   0  0  2  0  0  3  0  0  0  0  0  0
  190.5400  173.8280  140.9260 C   0  0  2  0  0  3  0  0  0  0  0  0
  190.1430  177.8370  144.1360 C   0  0  0  0  0  2  0  0  0  0  0  0
  187.3330  177.9250  143.0600 C   0  0  0  0  0  3  0  0  0  0  0  0
  187.7510  177.1440  144.1430 C   0  0  0  0  0  0  0  0  0  0  0  0
  186.8440  176.8410  145.1700 C   0  0  0  0  0  3  0  0  0  0  0  0
  184.6590  177.0200  146.1040 F   0  0  0  0  0  0  0  0  0  0  0  0
  185.1180  178.0940  144.0250 C   0  0  0  0  0  3  0  0  0  0  0  0
  185.5310  177.3150  145.1110 C   0  0  0  0  0  0  0  0  0  0  0  0
  186.0180  178.3990  143.0010 C   0  0  0  0  0  3  0  0  0  0  0  0
  191.1910  172.6610  140.1540 C   0  0  1  0  0  3  0  0  0  0  0  0
  190.8640  172.6150  138.6480 C   0  0  2  0  0  3  0  0  0  0  0  0
  192.2000  173.1360  139.1240 C   0  0  2  0  0  3  0  0  0  0  0  0
  193.4460  171.8450  138.8630 S   0  0  0  0  0  0  0  0  0  0  0  0
  192.6860  170.7690  140.1080 C   0  0  0  0  0  1  0  0  0  0  0  0
  188.9210  173.2810  137.2580 C   0  0  0  0  0  1  0  0  0  0  0  0
  190.0740  173.7940  138.0960 C   0  0  0  0  0  2  0  0  0  0  0  0
  1 18  1  0  0  0  0
  2 16  1  0  0  0  0
  4  8  1  0  0  0  0
  5  7  1  0  0  0  0
  5  2  1  0  0  0  0
  6  4  1  0  0  0  0
  6  2  1  0  0  0  0
  7  3  1  0  0  0  0
  7 19  1  0  0  0  0
  9  6  1  0  0  0  0
 10  1  1  0  0  0  0
 12  8  1  0  0  0  0
 13  1  1  0  0  0  0
 13  9  1  0  0  0  0
 14 21  1  0  0  0  0
 14 15  1  0  0  0  0
 15  3  1  0  0  0  0
 16 11  1  0  0  0  0
 16 12  1  0  0  0  0
 17  9  1  0  0  0  0
 17  5  1  0  0  0  0
 18  4  1  0  0  0  0
 20  1  1  0  0  0  0
 21 15  1  0  0  0  0
 22 21  1  0  0  0  0
 22 17  1  0  0  0  0
 23 19  1  0  0  0  0
 23 11  1  0  0  0  0
 24 25  1  0  0  0  0
 25 19  1  0  0  0  0
 25 26  2  0  0  0  0
 28 29  2  0  0  0  0
 29 26  1  0  0  0  0
 29 27  1  0  0  0  0
 30 24  2  0  0  0  0
 30 28  1  0  0  0  0
 31 22  1  0  0  0  0
 32 33  1  0  0  0  0
 32 31  1  0  0  0  0
 33 31  1  0  0  0  0
 34 33  1  0  0  0  0
 34 35  1  0  0  0  0
 36 37  1  0  0  0  0
 37 32  1  0  0  0  0
M  END
>  <MODEL>
5

>  <REMARK>
 VINA RESULT:      -7.5      2.461      5.309
  Name = 
  4 active torsions:
  status: ('A' for Active; 'I' for Inactive)
    1  A    between atoms: C_1  and  C_27
    2  A    between atoms: C_4  and  C_37
    3  A    between atoms: S_8  and  C_12
    4  A    between atoms: C_23  and  C_30
                            x       y       z     vdW  Elec       q    Type
                         _______ _______ _______ _____ _____    ______ ____

>  <TORSDO>
F 4

$$$$
=
 OpenBabel11112417283D

 37 44  0  0  1  0  0  0  0  0999 V2000
  193.5170  172.2150  141.7540 C   0  0  0  0  0  0  0  0  0  0  0  0
  190.4130  174.1440  140.9650 C   0  0  1  0  0  3  0  0  0  0  0  0
  190.0280  177.0750  142.3870 O   0  0  0  0  0  0  0  0  0  0  0  0
  192.1480  172.5130  139.9130 C   0  0  2  0  0  3  0  0  0  0  0  0
  190.6960  174.7870  142.3010 C   0  0  2  0  0  3  0  0  0  0  0  0
  191.8310  173.9160  140.4440 C   0  0  2  0  0  3  0  0  0  0  0  0
  189.6420  175.7840  142.7720 C   0  0  2  0  0  3  0  0  0  0  0  0
  190.9340  171.9730  139.1730 C   0  0  0  0  0  2  0  0  0  0  0  0
  192.7670  174.3620  141.4900 N   0  0  2  0  0  0  0  0  0  0  0  0
  194.8110  172.5370  140.9960 C   0  0  0  0  0  1  0  0  0  0  0  0
  188.1450  173.2530  141.2600 N   0  0  0  0  0  2  0  0  0  0  0  0
  189.7220  171.8050  140.0950 C   0  0  0  0  0  2  0  0  0  0  0  0
  192.9610  173.3450  142.4000 O   0  0  0  0  0  0  0  0  0  0  0  0
  190.9320  177.0640  144.7780 C   0  0  0  0  0  2  0  0  0  0  0  0
  190.6480  177.7790  143.4590 C   0  0  1  0  0  3  0  0  0  0  0  0
  189.5590  172.8840  141.1800 C   0  0  1  0  0  3  0  0  0  0  0  0
  192.0200  175.3850  142.1320 N   0  0  2  0  0  0  0  0  0  0  0  0
  192.5470  171.6120  140.9230 O   0  0  0  0  0  0  0  0  0  0  0  0
  188.2040  175.4600  142.3360 C   0  0  1  0  0  3  0  0  0  0  0  0
  193.8800  171.2140  142.8290 C   0  0  0  0  0  1  0  0  0  0  0  0
  192.0690  177.2650  143.7890 C   0  0  2  0  0  3  0  0  0  0  0  0
  192.5870  175.8490  143.4180 C   0  0  2  0  0  3  0  0  0  0  0  0
  187.8780  173.9720  142.5040 C   0  0  0  0  0  2  0  0  0  0  0  0
  187.3420  176.4190  144.4760 C   0  0  0  0  0  3  0  0  0  0  0  0
  187.2190  176.3010  143.0880 C   0  0  0  0  0  0  0  0  0  0  0  0
  186.1730  176.9620  142.4250 C   0  0  0  0  0  3  0  0  0  0  0  0
  184.2520  178.3700  142.5070 F   0  0  0  0  0  0  0  0  0  0  0  0
  185.3890  177.8490  144.5370 C   0  0  0  0  0  3  0  0  0  0  0  0
  185.2600  177.7340  143.1490 C   0  0  0  0  0  0  0  0  0  0  0  0
  186.4290  177.1920  145.2000 C   0  0  0  0  0  3  0  0  0  0  0  0
  194.1240  175.9770  143.3530 C   0  0  1  0  0  3  0  0  0  0  0  0
  194.8210  176.1390  144.7180 C   0  0  2  0  0  3  0  0  0  0  0  0
  194.8320  174.8050  144.0080 C   0  0  2  0  0  3  0  0  0  0  0  0
  196.4580  174.5780  143.2380 S   0  0  0  0  0  0  0  0  0  0  0  0
  196.7320  176.3680  143.1370 C   0  0  0  0  0  1  0  0  0  0  0  0
  194.1910  177.1660  146.8860 C   0  0  0  0  0  1  0  0  0  0  0  0
  193.9320  176.0060  145.9460 C   0  0  0  0  0  2  0  0  0  0  0  0
  1 13  1  0  0  0  0
  1 20  1  0  0  0  0
  2 16  1  0  0  0  0
  2  5  1  0  0  0  0
  3  7  1  0  0  0  0
  3 15  1  0  0  0  0
  4  6  1  0  0  0  0
  4 18  1  0  0  0  0
  5  7  1  0  0  0  0
  6  2  1  0  0  0  0
  6  9  1  0  0  0  0
  8  4  1  0  0  0  0
  8 12  1  0  0  0  0
  9 17  1  0  0  0  0
  9 13  1  0  0  0  0
 10  1  1  0  0  0  0
 11 23  1  0  0  0  0
 12 16  1  0  0  0  0
 15 21  1  0  0  0  0
 15 14  1  0  0  0  0
 16 11  1  0  0  0  0
 17  5  1  0  0  0  0
 17 22  1  0  0  0  0
 18  1  1  0  0  0  0
 19 23  1  0  0  0  0
 19  7  1  0  0  0  0
 19 25  1  0  0  0  0
 21 14  1  0  0  0  0
 22 21  1  0  0  0  0
 24 30  1  0  0  0  0
 25 24  2  0  0  0  0
 26 25  1  0  0  0  0
 26 29  2  0  0  0  0
 27 29  1  0  0  0  0
 28 30  2  0  0  0  0
 29 28  1  0  0  0  0
 31 22  1  0  0  0  0
 31 33  1  0  0  0  0
 31 32  1  0  0  0  0
 32 37  1  0  0  0  0
 33 32  1  0  0  0  0
 34 33  1  0  0  0  0
 35 34  1  0  0  0  0
 37 36  1  0  0  0  0
M  END
>  <MODEL>
6

>  <REMARK>
 VINA RESULT:      -7.4      1.381      1.689
  Name = 
  4 active torsions:
  status: ('A' for Active; 'I' for Inactive)
    1  A    between atoms: C_1  and  C_27
    2  A    between atoms: C_4  and  C_37
    3  A    between atoms: S_8  and  C_12
    4  A    between atoms: C_23  and  C_30
                            x       y       z     vdW  Elec       q    Type
                         _______ _______ _______ _____ _____    ______ ____

>  <TORSDO>
F 4

$$$$
=
 OpenBabel11112417283D

 37 44  0  0  1  0  0  0  0  0999 V2000
  193.9130  175.0430  142.6700 C   0  0  0  0  0  0  0  0  0  0  0  0
  190.9280  175.3270  144.9020 C   0  0  1  0  0  3  0  0  0  0  0  0
  187.9600  175.0210  143.5390 O   0  0  0  0  0  0  0  0  0  0  0  0
  193.3830  174.4620  144.8450 C   0  0  2  0  0  3  0  0  0  0  0  0
  190.2380  175.7240  143.6200 C   0  0  2  0  0  3  0  0  0  0  0  0
  191.9300  174.2930  144.3880 C   0  0  2  0  0  3  0  0  0  0  0  0
  188.7780  176.1350  143.7750 C   0  0  2  0  0  3  0  0  0  0  0  0
  193.4010  174.9330  146.2910 C   0  0  0  0  0  2  0  0  0  0  0  0
  191.7890  174.2280  142.9240 N   0  0  2  0  0  0  0  0  0  0  0  0
  194.4400  173.6510  142.2970 C   0  0  0  0  0  1  0  0  0  0  0  0
  190.5020  177.2500  146.3670 N   0  0  0  0  0  2  0  0  0  0  0  0
  192.7490  176.3100  146.4590 C   0  0  0  0  0  2  0  0  0  0  0  0
  192.5470  175.2200  142.3420 O   0  0  0  0  0  0  0  0  0  0  0  0
  187.9020  176.0840  141.2150 C   0  0  0  0  0  2  0  0  0  0  0  0
  187.4410  175.0240  142.2130 C   0  0  1  0  0  3  0  0  0  0  0  0
  191.5250  176.5780  145.5650 C   0  0  1  0  0  3  0  0  0  0  0  0
  190.4210  174.5640  142.7470 N   0  0  2  0  0  0  0  0  0  0  0  0
  194.1230  175.3470  144.0320 O   0  0  0  0  0  0  0  0  0  0  0  0
  188.4380  176.8260  145.1060 C   0  0  1  0  0  3  0  0  0  0  0  0
  194.7060  176.0400  141.8540 C   0  0  0  0  0  1  0  0  0  0  0  0
  188.5030  174.6900  141.1380 C   0  0  2  0  0  3  0  0  0  0  0  0
  190.0320  174.8560  141.3490 C   0  0  2  0  0  3  0  0  0  0  0  0
  189.4970  177.8610  145.4990 C   0  0  0  0  0  2  0  0  0  0  0  0
  186.7900  178.3420  143.9990 C   0  0  0  0  0  3  0  0  0  0  0  0
  187.0820  177.4590  145.0440 C   0  0  0  0  0  0  0  0  0  0  0  0
  186.1090  177.1920  146.0190 C   0  0  0  0  0  3  0  0  0  0  0  0
  183.9180  177.5410  146.8880 F   0  0  0  0  0  0  0  0  0  0  0  0
  184.5670  178.6830  144.8970 C   0  0  0  0  0  3  0  0  0  0  0  0
  184.8540  177.8020  145.9450 C   0  0  0  0  0  0  0  0  0  0  0  0
  185.5340  178.9530  143.9250 C   0  0  0  0  0  3  0  0  0  0  0  0
  190.6940  173.8780  140.3550 C   0  0  1  0  0  3  0  0  0  0  0  0
  190.4170  172.3870  140.6300 C   0  0  2  0  0  3  0  0  0  0  0  0
  189.6760  173.1120  139.5300 C   0  0  2  0  0  3  0  0  0  0  0  0
  190.4160  172.6520  137.9400 S   0  0  0  0  0  0  0  0  0  0  0  0
  191.5170  171.4460  138.7270 C   0  0  0  0  0  1  0  0  0  0  0  0
  190.0660  171.1640  142.7590 C   0  0  0  0  0  1  0  0  0  0  0  0
  189.4220  172.0810  141.7400 C   0  0  0  0  0  2  0  0  0  0  0  0
  1 18  1  0  0  0  0
  2 16  1  0  0  0  0
  3  7  1  0  0  0  0
  4  8  1  0  0  0  0
  5  7  1  0  0  0  0
  5  2  1  0  0  0  0
  6  4  1  0  0  0  0
  6  2  1  0  0  0  0
  7 19  1  0  0  0  0
  8 12  1  0  0  0  0
  9  6  1  0  0  0  0
 10  1  1  0  0  0  0
 13  1  1  0  0  0  0
 13  9  1  0  0  0  0
 14 15  1  0  0  0  0
 15  3  1  0  0  0  0
 16 11  1  0  0  0  0
 16 12  1  0  0  0  0
 17  9  1  0  0  0  0
 17  5  1  0  0  0  0
 18  4  1  0  0  0  0
 19 23  1  0  0  0  0
 20  1  1  0  0  0  0
 21 14  1  0  0  0  0
 21 22  1  0  0  0  0
 21 15  1  0  0  0  0
 22 17  1  0  0  0  0
 23 11  1  0  0  0  0
 24 25  1  0  0  0  0
 25 19  1  0  0  0  0
 25 26  2  0  0  0  0
 28 29  2  0  0  0  0
 29 26  1  0  0  0  0
 29 27  1  0  0  0  0
 30 24  2  0  0  0  0
 30 28  1  0  0  0  0
 31 32  1  0  0  0  0
 31 22  1  0  0  0  0
 32 37  1  0  0  0  0
 33 31  1  0  0  0  0
 33 32  1  0  0  0  0
 34 35  1  0  0  0  0
 34 33  1  0  0  0  0
 37 36  1  0  0  0  0
M  END
>  <MODEL>
7

>  <REMARK>
 VINA RESULT:      -7.3      2.644      5.178
  Name = 
  4 active torsions:
  status: ('A' for Active; 'I' for Inactive)
    1  A    between atoms: C_1  and  C_27
    2  A    between atoms: C_4  and  C_37
    3  A    between atoms: S_8  and  C_12
    4  A    between atoms: C_23  and  C_30
                            x       y       z     vdW  Elec       q    Type
                         _______ _______ _______ _____ _____    ______ ____

>  <TORSDO>
F 4

$$$$
=
 OpenBabel11112417283D

 37 44  0  0  1  0  0  0  0  0999 V2000
  188.0770  175.9830  142.0010 C   0  0  0  0  0  0  0  0  0  0  0  0
  190.9760  173.6550  142.3880 C   0  0  1  0  0  3  0  0  0  0  0  0
  192.4350  173.4990  145.3230 O   0  0  0  0  0  0  0  0  0  0  0  0
  188.6890  173.9110  141.1730 C   0  0  2  0  0  3  0  0  0  0  0  0
  191.3460  174.5980  143.5070 C   0  0  2  0  0  3  0  0  0  0  0  0
  189.4510  173.6740  142.4810 C   0  0  2  0  0  3  0  0  0  0  0  0
  192.6740  174.2940  144.1940 C   0  0  2  0  0  3  0  0  0  0  0  0
  189.4060  173.1940  140.0390 C   0  0  0  0  0  2  0  0  0  0  0  0
  189.0820  174.6220  143.5450 N   0  0  2  0  0  0  0  0  0  0  0  0
  186.6850  175.5260  142.4550 C   0  0  0  0  0  1  0  0  0  0  0  0
  192.9670  173.7090  140.9530 N   0  0  0  0  0  2  0  0  0  0  0  0
  190.8160  173.7480  139.8060 C   0  0  0  0  0  2  0  0  0  0  0  0
  189.0450  175.9010  143.0310 O   0  0  0  0  0  0  0  0  0  0  0  0
  192.5070  175.7980  146.4380 C   0  0  0  0  0  2  0  0  0  0  0  0
  192.4130  174.2760  146.5160 C   0  0  1  0  0  3  0  0  0  0  0  0
  191.5820  174.1680  141.0720 C   0  0  1  0  0  3  0  0  0  0  0  0
  190.2010  174.5350  144.4150 N   0  0  2  0  0  0  0  0  0  0  0  0
  188.5260  175.2780  140.8630 O   0  0  0  0  0  0  0  0  0  0  0  0
  193.7510  173.6870  143.2800 C   0  0  1  0  0  3  0  0  0  0  0  0
  187.9520  177.4400  141.6140 C   0  0  0  0  0  1  0  0  0  0  0  0
  191.1460  175.1540  146.6530 C   0  0  2  0  0  3  0  0  0  0  0  0
  190.2590  175.5870  145.4550 C   0  0  2  0  0  3  0  0  0  0  0  0
  193.8150  174.3970  141.9230 C   0  0  0  0  0  2  0  0  0  0  0  0
  195.9290  174.8130  143.7570 C   0  0  0  0  0  3  0  0  0  0  0  0
  195.0900  173.7110  143.9490 C   0  0  0  0  0  0  0  0  0  0  0  0
  195.5200  172.6450  144.7550 C   0  0  0  0  0  3  0  0  0  0  0  0
  197.1880  171.6540  146.1380 F   0  0  0  0  0  0  0  0  0  0  0  0
  197.6110  173.7910  145.1660 C   0  0  0  0  0  3  0  0  0  0  0  0
  196.7780  172.6850  145.3620 C   0  0  0  0  0  0  0  0  0  0  0  0
  197.1880  174.8540  144.3640 C   0  0  0  0  0  3  0  0  0  0  0  0
  188.8670  175.8740  146.0560 C   0  0  1  0  0  3  0  0  0  0  0  0
  188.8040  177.0940  146.9960 C   0  0  2  0  0  3  0  0  0  0  0  0
  188.2890  177.1940  145.5790 C   0  0  2  0  0  3  0  0  0  0  0  0
  186.4780  177.1070  145.6190 S   0  0  0  0  0  0  0  0  0  0  0  0
  186.3190  178.6610  144.6980 C   0  0  0  0  0  1  0  0  0  0  0  0
  190.3310  178.2910  148.5410 C   0  0  0  0  0  1  0  0  0  0  0  0
  190.0700  177.9340  147.0920 C   0  0  0  0  0  2  0  0  0  0  0  0
  1 10  1  0  0  0  0
  1 13  1  0  0  0  0
  2  6  1  0  0  0  0
  2  5  1  0  0  0  0
  3 15  1  0  0  0  0
  4  6  1  0  0  0  0
  5  7  1  0  0  0  0
  5 17  1  0  0  0  0
  6  9  1  0  0  0  0
  7  3  1  0  0  0  0
  8  4  1  0  0  0  0
  9 17  1  0  0  0  0
 11 16  1  0  0  0  0
 11 23  1  0  0  0  0
 12  8  1  0  0  0  0
 12 16  1  0  0  0  0
 13  9  1  0  0  0  0
 14 15  1  0  0  0  0
 14 21  1  0  0  0  0
 15 21  1  0  0  0  0
 16  2  1  0  0  0  0
 17 22  1  0  0  0  0
 18  4  1  0  0  0  0
 18  1  1  0  0  0  0
 19 25  1  0  0  0  0
 19  7  1  0  0  0  0
 20  1  1  0  0  0  0
 22 31  1  0  0  0  0
 22 21  1  0  0  0  0
 23 19  1  0  0  0  0
 24 25  2  0  0  0  0
 24 30  1  0  0  0  0
 25 26  1  0  0  0  0
 26 29  2  0  0  0  0
 28 29  1  0  0  0  0
 29 27  1  0  0  0  0
 30 28  2  0  0  0  0
 31 32  1  0  0  0  0
 32 37  1  0  0  0  0
 33 34  1  0  0  0  0
 33 31  1  0  0  0  0
 33 32  1  0  0  0  0
 35 34  1  0  0  0  0
 37 36  1  0  0  0  0
M  END
>  <MODEL>
8

>  <REMARK>
 VINA RESULT:      -6.8      3.471      6.978
  Name = 
  4 active torsions:
  status: ('A' for Active; 'I' for Inactive)
    1  A    between atoms: C_1  and  C_27
    2  A    between atoms: C_4  and  C_37
    3  A    between atoms: S_8  and  C_12
    4  A    between atoms: C_23  and  C_30
                            x       y       z     vdW  Elec       q    Type
                         _______ _______ _______ _____ _____    ______ ____

>  <TORSDO>
F 4

$$$$
=
 OpenBabel11112417283D

 37 44  0  0  1  0  0  0  0  0999 V2000
  195.5280  173.0070  143.1950 C   0  0  0  0  0  0  0  0  0  0  0  0
  192.6820  174.5020  145.1010 C   0  0  1  0  0  3  0  0  0  0  0  0
  189.6780  173.2940  144.5680 O   0  0  0  0  0  0  0  0  0  0  0  0
  195.2030  173.8900  145.3080 C   0  0  2  0  0  3  0  0  0  0  0  0
  191.8730  173.9840  143.9370 C   0  0  2  0  0  3  0  0  0  0  0  0
  193.7490  173.4150  145.2230 C   0  0  2  0  0  3  0  0  0  0  0  0
  190.3910  174.3430  143.9720 C   0  0  2  0  0  3  0  0  0  0  0  0
  195.2660  175.1610  146.1410 C   0  0  0  0  0  2  0  0  0  0  0  0
  193.5200  172.4440  144.1400 N   0  0  2  0  0  0  0  0  0  0  0  0
  196.1700  171.7100  143.7030 C   0  0  0  0  0  1  0  0  0  0  0  0
  192.1550  176.9000  145.1040 N   0  0  0  0  0  2  0  0  0  0  0  0
  194.4880  176.3140  145.4970 C   0  0  0  0  0  2  0  0  0  0  0  0
  194.1340  172.8860  142.9870 O   0  0  0  0  0  0  0  0  0  0  0  0
  189.3600  172.6700  142.1100 C   0  0  0  0  0  2  0  0  0  0  0  0
  189.0770  172.4470  143.5940 C   0  0  1  0  0  3  0  0  0  0  0  0
  193.1880  175.9160  144.7760 C   0  0  1  0  0  3  0  0  0  0  0  0
  192.1170  172.5420  143.9510 N   0  0  2  0  0  0  0  0  0  0  0  0
  195.7940  174.1030  144.0440 O   0  0  0  0  0  0  0  0  0  0  0  0
  190.0680  175.6990  144.6210 C   0  0  1  0  0  3  0  0  0  0  0  0
  196.1600  173.3080  141.8530 C   0  0  0  0  0  1  0  0  0  0  0  0
  190.0950  171.5580  142.8410 C   0  0  2  0  0  3  0  0  0  0  0  0
  191.6100  171.8810  142.7270 C   0  0  2  0  0  3  0  0  0  0  0  0
  191.0390  176.7940  144.1670 C   0  0  0  0  0  2  0  0  0  0  0  0
  188.2270  176.2000  143.0090 C   0  0  0  0  0  3  0  0  0  0  0  0
  188.6540  176.1000  144.3370 C   0  0  0  0  0  0  0  0  0  0  0  0
  187.7570  176.3880  145.3770 C   0  0  0  0  0  3  0  0  0  0  0  0
  185.5820  177.0460  146.0950 F   0  0  0  0  0  0  0  0  0  0  0  0
  186.0220  176.8660  143.7580 C   0  0  0  0  0  3  0  0  0  0  0  0
  186.4440  176.7690  145.0880 C   0  0  0  0  0  0  0  0  0  0  0  0
  186.9130  176.5820  142.7190 C   0  0  0  0  0  3  0  0  0  0  0  0
  192.3030  170.5250  142.4810 C   0  0  1  0  0  3  0  0  0  0  0  0
  192.0910  169.9330  141.0730 C   0  0  2  0  0  3  0  0  0  0  0  0
  193.3930  170.6120  141.4290 C   0  0  2  0  0  3  0  0  0  0  0  0
  194.6390  169.3340  141.7460 S   0  0  0  0  0  0  0  0  0  0  0  0
  193.7690  168.7640  143.2320 C   0  0  0  0  0  1  0  0  0  0  0  0
  190.4920  169.9620  139.1780 C   0  0  0  0  0  1  0  0  0  0  0  0
  191.3600  170.8200  140.0750 C   0  0  0  0  0  2  0  0  0  0  0  0
  1 10  1  0  0  0  0
  1 18  1  0  0  0  0
  2  6  1  0  0  0  0
  4  8  1  0  0  0  0
  5 17  1  0  0  0  0
  5  7  1  0  0  0  0
  5  2  1  0  0  0  0
  6  4  1  0  0  0  0
  7  3  1  0  0  0  0
  7 19  1  0  0  0  0
  9  6  1  0  0  0  0
 12  8  1  0  0  0  0
 13  1  1  0  0  0  0
 13  9  1  0  0  0  0
 14 21  1  0  0  0  0
 14 15  1  0  0  0  0
 15  3  1  0  0  0  0
 16  2  1  0  0  0  0
 16 11  1  0  0  0  0
 16 12  1  0  0  0  0
 17  9  1  0  0  0  0
 18  4  1  0  0  0  0
 20  1  1  0  0  0  0
 21 15  1  0  0  0  0
 22 21  1  0  0  0  0
 22 17  1  0  0  0  0
 23 19  1  0  0  0  0
 23 11  1  0  0  0  0
 24 25  1  0  0  0  0
 25 19  1  0  0  0  0
 25 26  2  0  0  0  0
 28 29  2  0  0  0  0
 29 26  1  0  0  0  0
 29 27  1  0  0  0  0
 30 24  2  0  0  0  0
 30 28  1  0  0  0  0
 31 22  1  0  0  0  0
 32 33  1  0  0  0  0
 32 31  1  0  0  0  0
 33 34  1  0  0  0  0
 33 31  1  0  0  0  0
 34 35  1  0  0  0  0
 36 37  1  0  0  0  0
 37 32  1  0  0  0  0
M  END
>  <MODEL>
9

>  <REMARK>
 VINA RESULT:      -6.7      2.597      5.427
  Name = 
  4 active torsions:
  status: ('A' for Active; 'I' for Inactive)
    1  A    between atoms: C_1  and  C_27
    2  A    between atoms: C_4  and  C_37
    3  A    between atoms: S_8  and  C_12
    4  A    between atoms: C_23  and  C_30
                            x       y       z     vdW  Elec       q    Type
                         _______ _______ _______ _____ _____    ______ ____

>  <TORSDO>
F 4

$$$$
