=
 OpenBabel11112417563D

 34 42  0  0  1  0  0  0  0  0999 V2000
  189.2850  175.2610  142.7670 C   0  0  0  0  0  0  0  0  0  0  0  0
  191.4500  173.8820  142.5760 C   0  0  0  0  0  3  0  0  0  0  0  0
  185.6290  179.2600  145.9580 C   0  0  2  0  0  3  0  0  0  0  0  0
  187.2440  176.5450  143.1640 C   0  0  0  0  0  0  0  0  0  0  0  0
  186.7370  177.2320  145.4390 C   0  0  0  0  0  0  0  0  0  0  0  0
  186.0590  177.5920  147.8680 C   0  0  0  0  0  2  0  0  0  0  0  0
  186.1910  178.9960  147.3360 C   0  0  1  0  0  3  0  0  0  0  0  0
  183.9510  178.2270  144.4010 C   0  0  0  0  0  2  0  0  0  0  0  0
  190.7650  174.6950  144.6830 C   0  0  0  0  0  0  0  0  0  0  0  0
  192.6780  175.7220  146.6080 C   0  0  0  0  0  2  0  0  0  0  0  0
  187.8700  176.6140  145.8730 N   0  0  0  0  0  0  0  0  0  0  0  0
  185.1850  177.9990  143.4850 C   0  0  0  0  0  2  0  0  0  0  0  0
  189.9510  175.3260  145.5560 C   0  0  0  0  0  0  0  0  0  0  0  0
  192.4250  173.3580  143.6380 C   0  0  0  0  0  3  0  0  0  0  0  0
  186.3770  177.2060  144.0570 C   0  0  0  0  0  0  0  0  0  0  0  0
  184.1710  179.2670  145.5380 C   0  0  0  0  0  2  0  0  0  0  0  0
  193.0860  174.8790  145.4690 N   0  0  0  0  0  0  0  0  0  0  0  0
  188.4150  175.9240  143.6510 C   0  0  0  0  0  0  0  0  0  0  0  0
  185.7750  177.8320  146.4090 C   0  0  2  0  0  0  0  0  0  0  0  0
  188.7180  175.9730  145.0270 C   0  0  0  0  0  0  0  0  0  0  0  0
  187.8380  175.8310  140.9120 C   0  0  0  0  0  3  0  0  0  0  0  0
  191.6350  175.0580  147.5080 C   0  0  0  0  0  2  0  0  0  0  0  0
  186.9700  176.4910  141.7870 C   0  0  0  0  0  3  0  0  0  0  0  0
  190.2130  175.3890  147.0470 C   0  0  0  0  0  2  0  0  0  0  0  0
  192.0280  173.9680  144.9970 C   0  0  1  0  0  3  0  0  0  0  0  0
  188.9930  175.2150  141.4000 C   0  0  0  0  0  3  0  0  0  0  0  0
  190.4600  174.6440  143.3040 N   0  0  0  0  0  0  0  0  0  0  0  0
  194.2020  174.0640  145.9330 C   0  0  0  0  0  2  0  0  0  0  0  0
  195.5020  174.8320  145.7700 C   0  0  0  0  0  2  0  0  0  0  0  0
  196.8960  176.7590  143.1220 C   0  0  0  0  0  2  0  0  0  0  0  0
  197.1380  174.5810  144.1110 C   0  0  0  0  0  2  0  0  0  0  0  0
  195.7790  175.0400  144.3590 N   0  0  0  0  0  0  0  0  0  0  0  0
  197.7680  175.5290  143.1130 C   0  0  0  0  0  2  0  0  0  0  0  0
  195.8150  176.4770  144.1420 C   0  0  0  0  0  2  0  0  0  0  0  0
  1 27  1  0  0  0  0
  1 18  1  0  0  0  0
  2 27  1  0  0  0  0
  2 14  2  0  0  0  0
  3 16  1  1  0  0  0
  3 19  1  0  0  0  0
  3  7  1  0  0  0  0
  4 18  2  0  0  0  0
  4 15  1  0  0  0  0
  5 11  1  0  0  0  0
  5 19  1  0  0  0  0
  7  6  1  1  0  0  0
  8 16  1  0  0  0  0
  9 25  1  0  0  0  0
  9 13  2  0  0  0  0
 10 22  1  0  0  0  0
 12 15  1  0  0  0  0
 12  8  1  0  0  0  0
 13 24  1  0  0  0  0
 15  5  2  0  0  0  0
 17 28  1  0  0  0  0
 17 10  1  0  0  0  0
 18 20  1  0  0  0  0
 19  7  1  0  0  0  0
 19  6  1  1  0  0  0
 20 13  1  0  0  0  0
 20 11  2  0  0  0  0
 21 26  1  0  0  0  0
 21 23  2  0  0  0  0
 23  4  1  0  0  0  0
 24 22  1  0  0  0  0
 25 14  1  6  0  0  0
 25 17  1  0  0  0  0
 26  1  2  0  0  0  0
 27  9  1  0  0  0  0
 29 28  1  0  0  0  0
 30 34  1  0  0  0  0
 31 32  1  0  0  0  0
 32 29  1  0  0  0  0
 33 30  1  0  0  0  0
 33 31  1  0  0  0  0
 34 32  1  0  0  0  0
M  END
>  <MODEL>
1

>  <REMARK>
 VINA RESULT:      -9.0      0.000      0.000
  Name = 
  3 active torsions:
  status: ('A' for Active; 'I' for Inactive)
    1  A    between atoms: N_17  and  C_28
    2  A    between atoms: C_28  and  C_29
    3  A    between atoms: C_29  and  N_32
                            x       y       z     vdW  Elec       q    Type
                         _______ _______ _______ _____ _____    ______ ____

>  <TORSDO>
F 3

$$$$
=
 OpenBabel11112417563D

 34 42  0  0  1  0  0  0  0  0999 V2000
  189.7480  174.4720  144.6490 C   0  0  0  0  0  0  0  0  0  0  0  0
  191.3340  172.8250  143.4660 C   0  0  0  0  0  3  0  0  0  0  0  0
  184.5210  177.9680  144.6430 C   0  0  2  0  0  3  0  0  0  0  0  0
  188.1930  176.1140  145.5750 C   0  0  0  0  0  0  0  0  0  0  0  0
  186.7110  177.2890  144.0500 C   0  0  0  0  0  0  0  0  0  0  0  0
  185.4630  178.7570  142.3840 C   0  0  0  0  0  2  0  0  0  0  0  0
  184.3520  178.0810  143.1460 C   0  0  1  0  0  3  0  0  0  0  0  0
  185.8410  179.0950  146.4600 C   0  0  0  0  0  2  0  0  0  0  0  0
  189.7740  174.0600  142.1970 C   0  0  0  0  0  0  0  0  0  0  0  0
  188.3580  172.8720  139.9600 C   0  0  0  0  0  2  0  0  0  0  0  0
  187.2600  176.6120  143.0030 N   0  0  0  0  0  0  0  0  0  0  0  0
  186.5040  177.7000  146.6190 C   0  0  0  0  0  2  0  0  0  0  0  0
  188.7960  174.9680  141.9900 C   0  0  0  0  0  0  0  0  0  0  0  0
  191.5610  172.5130  141.9820 C   0  0  0  0  0  3  0  0  0  0  0  0
  187.1740  177.0690  145.3820 C   0  0  0  0  0  0  0  0  0  0  0  0
  184.5020  179.0900  145.6650 C   0  0  0  0  0  2  0  0  0  0  0  0
  189.5820  172.2710  140.5230 N   0  0  0  0  0  0  0  0  0  0  0  0
  188.7310  175.4250  144.4650 C   0  0  0  0  0  0  0  0  0  0  0  0
  185.7130  178.3730  143.8180 C   0  0  2  0  0  0  0  0  0  0  0  0
  188.2420  175.6870  143.1700 C   0  0  0  0  0  0  0  0  0  0  0  0
  189.7010  174.8770  147.0350 C   0  0  0  0  0  3  0  0  0  0  0  0
  188.5530  174.3150  139.4930 C   0  0  0  0  0  2  0  0  0  0  0  0
  188.6890  175.8260  146.8580 C   0  0  0  0  0  3  0  0  0  0  0  0
  188.2500  175.3080  140.6170 C   0  0  0  0  0  2  0  0  0  0  0  0
  190.4800  173.2480  141.1650 C   0  0  1  0  0  3  0  0  0  0  0  0
  190.2320  174.2020  145.9340 C   0  0  0  0  0  3  0  0  0  0  0  0
  190.2650  173.7980  143.4960 N   0  0  0  0  0  0  0  0  0  0  0  0
  190.3020  171.6710  139.4080 C   0  0  0  0  0  2  0  0  0  0  0  0
  190.0940  170.1660  139.4120 C   0  0  0  0  0  2  0  0  0  0  0  0
  190.6400  170.3900  135.9020 C   0  0  0  0  0  2  0  0  0  0  0  0
  190.9700  168.8270  137.6990 C   0  0  0  0  0  2  0  0  0  0  0  0
  189.8590  169.6970  138.0570 N   0  0  0  0  0  0  0  0  0  0  0  0
  191.2980  169.0760  136.2430 C   0  0  0  0  0  2  0  0  0  0  0  0
  189.9810  170.8520  137.1820 C   0  0  0  0  0  2  0  0  0  0  0  0
  1 26  1  0  0  0  0
  2 27  1  0  0  0  0
  3 16  1  1  0  0  0
  4 23  2  0  0  0  0
  5 15  2  0  0  0  0
  7  6  1  1  0  0  0
  7 19  1  0  0  0  0
  7  3  1  0  0  0  0
  8 12  1  0  0  0  0
  9 27  1  0  0  0  0
 10 17  1  0  0  0  0
 11 20  2  0  0  0  0
 11  5  1  0  0  0  0
 13  9  2  0  0  0  0
 13 20  1  0  0  0  0
 14  2  2  0  0  0  0
 15  4  1  0  0  0  0
 15 12  1  0  0  0  0
 16  8  1  0  0  0  0
 17 25  1  0  0  0  0
 18  1  2  0  0  0  0
 18  4  1  0  0  0  0
 19  6  1  1  0  0  0
 19  5  1  0  0  0  0
 19  3  1  0  0  0  0
 20 18  1  0  0  0  0
 22 10  1  0  0  0  0
 22 24  1  0  0  0  0
 23 21  1  0  0  0  0
 24 13  1  0  0  0  0
 25 14  1  1  0  0  0
 25  9  1  0  0  0  0
 26 21  2  0  0  0  0
 27  1  1  0  0  0  0
 28 29  1  0  0  0  0
 28 17  1  0  0  0  0
 30 33  1  0  0  0  0
 30 34  1  0  0  0  0
 31 32  1  0  0  0  0
 32 29  1  0  0  0  0
 33 31  1  0  0  0  0
 34 32  1  0  0  0  0
M  END
>  <MODEL>
2

>  <REMARK>
 VINA RESULT:      -8.8      3.252      6.030
  Name = 
  3 active torsions:
  status: ('A' for Active; 'I' for Inactive)
    1  A    between atoms: N_17  and  C_28
    2  A    between atoms: C_28  and  C_29
    3  A    between atoms: C_29  and  N_32
                            x       y       z     vdW  Elec       q    Type
                         _______ _______ _______ _____ _____    ______ ____

>  <TORSDO>
F 3

$$$$
=
 OpenBabel11112417563D

 34 42  0  0  1  0  0  0  0  0999 V2000
  189.3200  175.2860  142.7250 C   0  0  0  0  0  0  0  0  0  0  0  0
  191.4950  173.9290  142.4890 C   0  0  0  0  0  3  0  0  0  0  0  0
  185.6720  179.2160  146.0100 C   0  0  2  0  0  3  0  0  0  0  0  0
  187.2740  176.5480  143.1630 C   0  0  0  0  0  0  0  0  0  0  0  0
  186.7900  177.2040  145.4520 C   0  0  0  0  0  0  0  0  0  0  0  0
  186.1400  177.5290  147.8930 C   0  0  0  0  0  2  0  0  0  0  0  0
  186.2540  178.9400  147.3770 C   0  0  1  0  0  3  0  0  0  0  0  0
  183.9830  178.1870  144.4610 C   0  0  0  0  0  2  0  0  0  0  0  0
  190.8290  174.7100  144.6150 C   0  0  0  0  0  0  0  0  0  0  0  0
  192.7580  175.7310  146.5270 C   0  0  0  0  0  2  0  0  0  0  0  0
  187.9340  176.5900  145.8640 N   0  0  0  0  0  0  0  0  0  0  0  0
  185.2070  177.9810  143.5270 C   0  0  0  0  0  2  0  0  0  0  0  0
  190.0210  175.3240  145.5050 C   0  0  0  0  0  0  0  0  0  0  0  0
  192.4870  173.4000  143.5330 C   0  0  0  0  0  3  0  0  0  0  0  0
  186.4130  177.1910  144.0750 C   0  0  0  0  0  0  0  0  0  0  0  0
  184.2090  179.2160  145.6080 C   0  0  0  0  0  2  0  0  0  0  0  0
  193.1590  174.9050  145.3730 N   0  0  0  0  0  0  0  0  0  0  0  0
  188.4560  175.9310  143.6270 C   0  0  0  0  0  0  0  0  0  0  0  0
  185.8360  177.7830  146.4410 C   0  0  2  0  0  0  0  0  0  0  0  0
  188.7770  175.9670  145.0000 C   0  0  0  0  0  0  0  0  0  0  0  0
  187.8450  175.8660  140.8950 C   0  0  0  0  0  3  0  0  0  0  0  0
  191.7320  175.0470  147.4320 C   0  0  0  0  0  2  0  0  0  0  0  0
  186.9830  176.5080  141.7890 C   0  0  0  0  0  3  0  0  0  0  0  0
  190.3020  175.3710  146.9940 C   0  0  0  0  0  2  0  0  0  0  0  0
  192.1020  173.9910  144.9040 C   0  0  1  0  0  3  0  0  0  0  0  0
  189.0120  175.2550  141.3600 C   0  0  0  0  0  3  0  0  0  0  0  0
  190.5070  174.6730  143.2390 N   0  0  0  0  0  0  0  0  0  0  0  0
  194.2870  174.0940  145.8130 C   0  0  0  0  0  2  0  0  0  0  0  0
  195.5630  174.9170  145.7610 C   0  0  0  0  0  2  0  0  0  0  0  0
  197.1920  171.7830  145.3300 C   0  0  0  0  0  2  0  0  0  0  0  0
  196.1660  173.4990  143.9960 C   0  0  0  0  0  2  0  0  0  0  0  0
  196.6470  174.1120  145.2260 N   0  0  0  0  0  0  0  0  0  0  0  0
  196.7320  172.0970  143.9290 C   0  0  0  0  0  2  0  0  0  0  0  0
  196.8500  173.0070  146.1490 C   0  0  0  0  0  2  0  0  0  0  0  0
  1 27  1  0  0  0  0
  1 18  1  0  0  0  0
  2 27  1  0  0  0  0
  2 14  2  0  0  0  0
  3 16  1  1  0  0  0
  3 19  1  0  0  0  0
  3  7  1  0  0  0  0
  4 18  2  0  0  0  0
  4 15  1  0  0  0  0
  5 11  1  0  0  0  0
  5 19  1  0  0  0  0
  7  6  1  1  0  0  0
  8 16  1  0  0  0  0
  9 25  1  0  0  0  0
  9 13  2  0  0  0  0
 10 22  1  0  0  0  0
 12 15  1  0  0  0  0
 12  8  1  0  0  0  0
 13 24  1  0  0  0  0
 15  5  2  0  0  0  0
 17 28  1  0  0  0  0
 17 10  1  0  0  0  0
 18 20  1  0  0  0  0
 19  7  1  0  0  0  0
 19  6  1  1  0  0  0
 20 13  1  0  0  0  0
 20 11  2  0  0  0  0
 21 26  1  0  0  0  0
 21 23  2  0  0  0  0
 23  4  1  0  0  0  0
 24 22  1  0  0  0  0
 25 14  1  6  0  0  0
 25 17  1  0  0  0  0
 26  1  2  0  0  0  0
 27  9  1  0  0  0  0
 29 28  1  0  0  0  0
 30 34  1  0  0  0  0
 31 32  1  0  0  0  0
 32 29  1  0  0  0  0
 32 34  1  0  0  0  0
 33 31  1  0  0  0  0
 33 30  1  0  0  0  0
M  END
>  <MODEL>
3

>  <REMARK>
 VINA RESULT:      -8.8      0.927      1.384
  Name = 
  3 active torsions:
  status: ('A' for Active; 'I' for Inactive)
    1  A    between atoms: N_17  and  C_28
    2  A    between atoms: C_28  and  C_29
    3  A    between atoms: C_29  and  N_32
                            x       y       z     vdW  Elec       q    Type
                         _______ _______ _______ _____ _____    ______ ____

>  <TORSDO>
F 3

$$$$
=
 OpenBabel11112417563D

 34 42  0  0  1  0  0  0  0  0999 V2000
  192.5020  175.4700  145.3370 C   0  0  0  0  0  0  0  0  0  0  0  0
  190.4110  176.9390  145.0250 C   0  0  0  0  0  3  0  0  0  0  0  0
  195.7670  170.2700  143.9810 C   0  0  2  0  0  3  0  0  0  0  0  0
  194.3610  173.9050  145.5930 C   0  0  0  0  0  0  0  0  0  0  0  0
  194.0340  171.6010  144.8950 C   0  0  0  0  0  0  0  0  0  0  0  0
  193.5210  169.1350  144.5120 C   0  0  0  0  0  2  0  0  0  0  0  0
  194.6100  169.4190  143.5100 C   0  0  1  0  0  3  0  0  0  0  0  0
  196.8240  170.9360  146.1610 C   0  0  0  0  0  2  0  0  0  0  0  0
  190.3510  174.6680  144.3850 C   0  0  0  0  0  0  0  0  0  0  0  0
  188.9770  173.8060  141.9780 C   0  0  0  0  0  2  0  0  0  0  0  0
  192.7550  171.8970  144.5350 N   0  0  0  0  0  0  0  0  0  0  0  0
  196.3770  172.3660  145.7530 C   0  0  0  0  0  2  0  0  0  0  0  0
  190.8310  173.4150  144.2380 C   0  0  0  0  0  0  0  0  0  0  0  0
  188.9900  176.6050  144.5550 C   0  0  0  0  0  3  0  0  0  0  0  0
  194.8830  172.6030  145.4540 C   0  0  0  0  0  0  0  0  0  0  0  0
  196.8340  169.9030  144.9960 C   0  0  0  0  0  2  0  0  0  0  0  0
  188.7240  175.1200  142.5980 N   0  0  0  0  0  0  0  0  0  0  0  0
  193.0320  174.1750  145.2000 C   0  0  0  0  0  0  0  0  0  0  0  0
  194.5360  170.1960  144.8440 C   0  0  2  0  0  0  0  0  0  0  0  0
  192.2340  173.1450  144.6610 C   0  0  0  0  0  0  0  0  0  0  0  0
  194.6090  176.2380  146.2510 C   0  0  0  0  0  3  0  0  0  0  0  0
  188.7360  172.6330  142.9280 C   0  0  0  0  0  2  0  0  0  0  0  0
  195.1390  174.9510  146.1170 C   0  0  0  0  0  3  0  0  0  0  0  0
  190.0120  172.2640  143.6890 C   0  0  0  0  0  2  0  0  0  0  0  0
  188.9800  175.1480  144.0500 C   0  0  1  0  0  3  0  0  0  0  0  0
  193.2920  176.4980  145.8630 C   0  0  0  0  0  3  0  0  0  0  0  0
  191.1500  175.7000  144.9260 N   0  0  0  0  0  0  0  0  0  0  0  0
  187.3130  175.4150  142.3880 C   0  0  0  0  0  2  0  0  0  0  0  0
  187.1690  176.6250  141.4820 C   0  0  0  0  0  2  0  0  0  0  0  0
  185.1470  177.9610  144.0880 C   0  0  0  0  0  2  0  0  0  0  0  0
  186.6210  178.7310  142.3510 C   0  0  0  0  0  2  0  0  0  0  0  0
  186.0640  177.4520  141.9350 N   0  0  0  0  0  0  0  0  0  0  0  0
  185.8560  179.1890  143.5750 C   0  0  0  0  0  2  0  0  0  0  0  0
  185.5520  176.8440  143.1530 C   0  0  0  0  0  2  0  0  0  0  0  0
  1 26  1  0  0  0  0
  3 19  1  0  0  0  0
  3 16  1  1  0  0  0
  4 23  2  0  0  0  0
  5 15  2  0  0  0  0
  7  3  1  0  0  0  0
  7  6  1  1  0  0  0
  7 19  1  0  0  0  0
  9 27  1  0  0  0  0
 10 17  1  0  0  0  0
 10 22  1  0  0  0  0
 11 20  2  0  0  0  0
 11  5  1  0  0  0  0
 12  8  1  0  0  0  0
 13  9  2  0  0  0  0
 13 20  1  0  0  0  0
 14  2  2  0  0  0  0
 15  4  1  0  0  0  0
 15 12  1  0  0  0  0
 16  8  1  0  0  0  0
 17 25  1  0  0  0  0
 18  1  2  0  0  0  0
 18  4  1  0  0  0  0
 19  6  1  1  0  0  0
 19  5  1  0  0  0  0
 20 18  1  0  0  0  0
 22 24  1  0  0  0  0
 23 21  1  0  0  0  0
 24 13  1  0  0  0  0
 25  9  1  0  0  0  0
 25 14  1  6  0  0  0
 26 21  2  0  0  0  0
 27  2  1  0  0  0  0
 27  1  1  0  0  0  0
 28 17  1  0  0  0  0
 29 32  1  0  0  0  0
 29 28  1  0  0  0  0
 31 33  1  0  0  0  0
 32 31  1  0  0  0  0
 32 34  1  0  0  0  0
 33 30  1  0  0  0  0
 34 30  1  0  0  0  0
M  END
>  <MODEL>
4

>  <REMARK>
 VINA RESULT:      -8.6      2.489      9.089
  Name = 
  3 active torsions:
  status: ('A' for Active; 'I' for Inactive)
    1  A    between atoms: N_17  and  C_28
    2  A    between atoms: C_28  and  C_29
    3  A    between atoms: C_29  and  N_32
                            x       y       z     vdW  Elec       q    Type
                         _______ _______ _______ _____ _____    ______ ____

>  <TORSDO>
F 3

$$$$
=
 OpenBabel11112417563D

 34 42  0  0  1  0  0  0  0  0999 V2000
  189.7180  174.4960  144.7730 C   0  0  0  0  0  0  0  0  0  0  0  0
  191.3100  172.8520  143.5930 C   0  0  0  0  0  3  0  0  0  0  0  0
  184.5120  178.0210  144.7390 C   0  0  2  0  0  3  0  0  0  0  0  0
  188.1610  176.1370  145.6970 C   0  0  0  0  0  0  0  0  0  0  0  0
  186.7050  177.3350  144.1660 C   0  0  0  0  0  0  0  0  0  0  0  0
  185.4850  178.8280  142.5000 C   0  0  0  0  0  2  0  0  0  0  0  0
  184.3620  178.1510  143.2410 C   0  0  1  0  0  3  0  0  0  0  0  0
  185.8150  179.1220  146.5840 C   0  0  0  0  0  2  0  0  0  0  0  0
  189.7720  174.1090  142.3180 C   0  0  0  0  0  0  0  0  0  0  0  0
  188.3770  172.9520  140.0510 C   0  0  0  0  0  2  0  0  0  0  0  0
  187.2630  176.6660  143.1190 N   0  0  0  0  0  0  0  0  0  0  0  0
  186.4680  177.7210  146.7360 C   0  0  0  0  0  2  0  0  0  0  0  0
  188.8020  175.0240  142.1070 C   0  0  0  0  0  0  0  0  0  0  0  0
  191.5530  172.5540  142.1080 C   0  0  0  0  0  3  0  0  0  0  0  0
  187.1500  177.0990  145.5010 C   0  0  0  0  0  0  0  0  0  0  0  0
  184.4860  179.1330  145.7720 C   0  0  0  0  0  2  0  0  0  0  0  0
  189.5900  172.3380  140.6230 N   0  0  0  0  0  0  0  0  0  0  0  0
  188.7090  175.4560  144.5870 C   0  0  0  0  0  0  0  0  0  0  0  0
  185.7150  178.4280  143.9330 C   0  0  2  0  0  0  0  0  0  0  0  0
  188.2370  175.7350  143.2880 C   0  0  0  0  0  0  0  0  0  0  0  0
  189.6440  174.8770  147.1630 C   0  0  0  0  0  3  0  0  0  0  0  0
  188.5860  174.3980  139.6020 C   0  0  0  0  0  2  0  0  0  0  0  0
  188.6400  175.8330  146.9820 C   0  0  0  0  0  3  0  0  0  0  0  0
  188.2740  175.3810  140.7320 C   0  0  0  0  0  2  0  0  0  0  0  0
  190.4860  173.3040  141.2860 C   0  0  1  0  0  3  0  0  0  0  0  0
  190.1850  174.2090  146.0610 C   0  0  0  0  0  3  0  0  0  0  0  0
  190.2460  173.8310  143.6200 N   0  0  0  0  0  0  0  0  0  0  0  0
  190.3210  171.7450  139.5100 C   0  0  0  0  0  2  0  0  0  0  0  0
  189.9070  170.2940  139.3380 C   0  0  0  0  0  2  0  0  0  0  0  0
  193.3310  169.7860  140.1630 C   0  0  0  0  0  2  0  0  0  0  0  0
  191.1600  169.0190  140.8540 C   0  0  0  0  0  2  0  0  0  0  0  0
  191.0700  169.4320  139.4600 N   0  0  0  0  0  0  0  0  0  0  0  0
  192.6260  168.9870  141.2290 C   0  0  0  0  0  2  0  0  0  0  0  0
  192.2390  170.2650  139.2320 C   0  0  0  0  0  2  0  0  0  0  0  0
  1 26  1  0  0  0  0
  2 27  1  0  0  0  0
  3 16  1  1  0  0  0
  4 23  2  0  0  0  0
  5 15  2  0  0  0  0
  7  6  1  1  0  0  0
  7 19  1  0  0  0  0
  7  3  1  0  0  0  0
  8 12  1  0  0  0  0
  9 27  1  0  0  0  0
 10 17  1  0  0  0  0
 11 20  2  0  0  0  0
 11  5  1  0  0  0  0
 13  9  2  0  0  0  0
 13 20  1  0  0  0  0
 14  2  2  0  0  0  0
 15  4  1  0  0  0  0
 15 12  1  0  0  0  0
 16  8  1  0  0  0  0
 17 25  1  0  0  0  0
 18  1  2  0  0  0  0
 18  4  1  0  0  0  0
 19  6  1  1  0  0  0
 19  5  1  0  0  0  0
 19  3  1  0  0  0  0
 20 18  1  0  0  0  0
 22 10  1  0  0  0  0
 22 24  1  0  0  0  0
 23 21  1  0  0  0  0
 24 13  1  0  0  0  0
 25 14  1  1  0  0  0
 25  9  1  0  0  0  0
 26 21  2  0  0  0  0
 27  1  1  0  0  0  0
 28 17  1  0  0  0  0
 29 32  1  0  0  0  0
 29 28  1  0  0  0  0
 30 33  1  0  0  0  0
 31 33  1  0  0  0  0
 32 31  1  0  0  0  0
 34 32  1  0  0  0  0
 34 30  1  0  0  0  0
M  END
>  <MODEL>
5

>  <REMARK>
 VINA RESULT:      -8.5      2.960      5.448
  Name = 
  3 active torsions:
  status: ('A' for Active; 'I' for Inactive)
    1  A    between atoms: N_17  and  C_28
    2  A    between atoms: C_28  and  C_29
    3  A    between atoms: C_29  and  N_32
                            x       y       z     vdW  Elec       q    Type
                         _______ _______ _______ _____ _____    ______ ____

>  <TORSDO>
F 3

$$$$
=
 OpenBabel11112417563D

 34 42  0  0  1  0  0  0  0  0999 V2000
  192.1490  176.3340  145.6680 C   0  0  0  0  0  0  0  0  0  0  0  0
  189.7630  176.5140  146.6180 C   0  0  0  0  0  3  0  0  0  0  0  0
  196.0450  175.9220  140.7500 C   0  0  2  0  0  3  0  0  0  0  0  0
  194.3290  176.0540  144.6000 C   0  0  0  0  0  0  0  0  0  0  0  0
  194.3960  175.2460  142.3100 C   0  0  0  0  0  0  0  0  0  0  0  0
  194.4300  174.0420  140.0650 C   0  0  0  0  0  2  0  0  0  0  0  0
  195.0530  175.3760  139.7480 C   0  0  1  0  0  3  0  0  0  0  0  0
  197.5120  175.0410  142.5890 C   0  0  0  0  0  2  0  0  0  0  0  0
  190.0850  175.7850  144.3970 C   0  0  0  0  0  0  0  0  0  0  0  0
  188.3070  176.6110  142.2570 C   0  0  0  0  0  2  0  0  0  0  0  0
  193.0360  175.1680  142.3030 N   0  0  0  0  0  0  0  0  0  0  0  0
  196.6170  175.9220  143.5020 C   0  0  0  0  0  2  0  0  0  0  0  0
  190.7970  175.4290  143.3070 C   0  0  0  0  0  0  0  0  0  0  0  0
  188.3980  176.1340  146.0300 C   0  0  0  0  0  3  0  0  0  0  0  0
  195.0940  175.6830  143.4760 C   0  0  0  0  0  0  0  0  0  0  0  0
  197.4260  175.3840  141.0720 C   0  0  0  0  0  2  0  0  0  0  0  0
  187.9330  176.7310  143.6780 N   0  0  0  0  0  0  0  0  0  0  0  0
  192.9200  175.9680  144.5510 C   0  0  0  0  0  0  0  0  0  0  0  0
  195.1950  174.7470  141.1520 C   0  0  2  0  0  0  0  0  0  0  0  0
  192.2820  175.5220  143.3760 C   0  0  0  0  0  0  0  0  0  0  0  0
  194.1690  176.8760  146.8880 C   0  0  0  0  0  3  0  0  0  0  0  0
  188.6710  175.1840  141.8460 C   0  0  0  0  0  2  0  0  0  0  0  0
  194.9400  176.5130  145.7790 C   0  0  0  0  0  3  0  0  0  0  0  0
  190.1670  174.9180  142.0260 C   0  0  0  0  0  2  0  0  0  0  0  0
  188.6020  175.7500  144.5510 C   0  0  1  0  0  3  0  0  0  0  0  0
  192.7760  176.7860  146.8350 C   0  0  0  0  0  3  0  0  0  0  0  0
  190.7240  176.2320  145.5750 N   0  0  0  0  0  0  0  0  0  0  0  0
  186.4980  176.4870  143.7530 C   0  0  0  0  0  2  0  0  0  0  0  0
  185.7410  177.7560  143.3970 C   0  0  0  0  0  2  0  0  0  0  0  0
  185.0570  177.7340  146.8900 C   0  0  0  0  0  2  0  0  0  0  0  0
  185.7320  179.2800  145.1770 C   0  0  0  0  0  2  0  0  0  0  0  0
  184.9750  178.2100  144.5450 N   0  0  0  0  0  0  0  0  0  0  0  0
  185.5680  179.1360  146.6750 C   0  0  0  0  0  2  0  0  0  0  0  0
  184.9720  177.1220  145.5090 C   0  0  0  0  0  2  0  0  0  0  0  0
  1 26  1  0  0  0  0
  3 16  1  6  0  0  0
  3 19  1  0  0  0  0
  4 23  2  0  0  0  0
  5 15  2  0  0  0  0
  7  6  1  6  0  0  0
  7  3  1  0  0  0  0
  7 19  1  0  0  0  0
  8 12  1  0  0  0  0
  9 25  1  0  0  0  0
  9 27  1  0  0  0  0
 10 17  1  0  0  0  0
 11  5  1  0  0  0  0
 11 20  2  0  0  0  0
 13 20  1  0  0  0  0
 13  9  2  0  0  0  0
 14  2  2  0  0  0  0
 15 12  1  0  0  0  0
 15  4  1  0  0  0  0
 16  8  1  0  0  0  0
 17 28  1  0  0  0  0
 17 25  1  0  0  0  0
 18  4  1  0  0  0  0
 18  1  2  0  0  0  0
 19  6  1  1  0  0  0
 19  5  1  0  0  0  0
 20 18  1  0  0  0  0
 22 24  1  0  0  0  0
 22 10  1  0  0  0  0
 23 21  1  0  0  0  0
 24 13  1  0  0  0  0
 25 14  1  1  0  0  0
 26 21  2  0  0  0  0
 27  1  1  0  0  0  0
 27  2  1  0  0  0  0
 29 28  1  0  0  0  0
 29 32  1  0  0  0  0
 31 33  1  0  0  0  0
 32 31  1  0  0  0  0
 32 34  1  0  0  0  0
 33 30  1  0  0  0  0
 34 30  1  0  0  0  0
M  END
>  <MODEL>
6

>  <REMARK>
 VINA RESULT:      -8.4      1.978      8.984
  Name = 
  3 active torsions:
  status: ('A' for Active; 'I' for Inactive)
    1  A    between atoms: N_17  and  C_28
    2  A    between atoms: C_28  and  C_29
    3  A    between atoms: C_29  and  N_32
                            x       y       z     vdW  Elec       q    Type
                         _______ _______ _______ _____ _____    ______ ____

>  <TORSDO>
F 3

$$$$
=
 OpenBabel11112417563D

 34 42  0  0  1  0  0  0  0  0999 V2000
  192.0140  176.4040  146.2910 C   0  0  0  0  0  0  0  0  0  0  0  0
  194.4460  175.5660  146.3670 C   0  0  0  0  0  3  0  0  0  0  0  0
  186.3920  176.5840  143.4790 C   0  0  2  0  0  3  0  0  0  0  0  0
  189.7170  177.1890  146.0020 C   0  0  0  0  0  0  0  0  0  0  0  0
  188.7010  176.9990  143.8030 C   0  0  0  0  0  0  0  0  0  0  0  0
  187.8240  177.1340  141.4150 C   0  0  0  0  0  2  0  0  0  0  0  0
  186.8460  176.2060  142.0890 C   0  0  1  0  0  3  0  0  0  0  0  0
  186.2730  178.6500  144.9030 C   0  0  0  0  0  2  0  0  0  0  0  0
  193.2330  175.4510  144.3450 C   0  0  0  0  0  0  0  0  0  0  0  0
  193.4750  173.1770  142.5580 C   0  0  0  0  0  2  0  0  0  0  0  0
  189.8540  176.4580  143.3230 N   0  0  0  0  0  0  0  0  0  0  0  0
  187.2820  177.8880  145.8060 C   0  0  0  0  0  2  0  0  0  0  0  0
  192.1730  175.6390  143.5310 C   0  0  0  0  0  0  0  0  0  0  0  0
  195.3820  175.0460  145.2680 C   0  0  0  0  0  3  0  0  0  0  0  0
  188.5990  177.3980  145.1700 C   0  0  0  0  0  0  0  0  0  0  0  0
  185.5140  177.7550  143.8800 C   0  0  0  0  0  2  0  0  0  0  0  0
  194.4690  173.4580  143.6110 N   0  0  0  0  0  0  0  0  0  0  0  0
  190.8930  176.6160  145.4680 C   0  0  0  0  0  0  0  0  0  0  0  0
  187.5660  177.3160  142.8870 C   0  0  2  0  0  0  0  0  0  0  0  0
  190.9420  176.2470  144.1090 C   0  0  0  0  0  0  0  0  0  0  0  0
  190.8070  177.3240  148.1770 C   0  0  0  0  0  3  0  0  0  0  0  0
  193.2830  174.3400  141.5830 C   0  0  0  0  0  2  0  0  0  0  0  0
  189.6900  177.5370  147.3630 C   0  0  0  0  0  3  0  0  0  0  0  0
  192.1780  175.2860  142.0570 C   0  0  0  0  0  2  0  0  0  0  0  0
  194.5610  174.8830  143.9740 C   0  0  1  0  0  3  0  0  0  0  0  0
  191.9680  176.7600  147.6430 C   0  0  0  0  0  3  0  0  0  0  0  0
  193.1850  175.8220  145.7080 N   0  0  0  0  0  0  0  0  0  0  0  0
  195.7630  173.0490  143.0800 C   0  0  0  0  0  2  0  0  0  0  0  0
  196.0200  171.5900  143.4160 C   0  0  0  0  0  2  0  0  0  0  0  0
  195.5030  169.3840  146.1600 C   0  0  0  0  0  2  0  0  0  0  0  0
  197.0360  171.1030  145.4710 C   0  0  0  0  0  2  0  0  0  0  0  0
  195.7560  171.3560  144.8250 N   0  0  0  0  0  0  0  0  0  0  0  0
  196.8210  170.0270  146.5140 C   0  0  0  0  0  2  0  0  0  0  0  0
  195.0280  170.1000  144.9160 C   0  0  0  0  0  2  0  0  0  0  0  0
  1 26  1  0  0  0  0
  3 16  1  6  0  0  0
  4 23  2  0  0  0  0
  5 15  2  0  0  0  0
  7  6  1  6  0  0  0
  7 19  1  0  0  0  0
  7  3  1  0  0  0  0
  8 12  1  0  0  0  0
  9 27  1  0  0  0  0
 10 17  1  0  0  0  0
 11  5  1  0  0  0  0
 11 20  2  0  0  0  0
 13 20  1  0  0  0  0
 13  9  2  0  0  0  0
 14  2  2  0  0  0  0
 15 12  1  0  0  0  0
 15  4  1  0  0  0  0
 16  8  1  0  0  0  0
 17 25  1  0  0  0  0
 18  4  1  0  0  0  0
 18  1  2  0  0  0  0
 19  6  1  6  0  0  0
 19  3  1  0  0  0  0
 19  5  1  0  0  0  0
 20 18  1  0  0  0  0
 22 24  1  0  0  0  0
 22 10  1  0  0  0  0
 23 21  1  0  0  0  0
 24 13  1  0  0  0  0
 25  9  1  0  0  0  0
 25 14  1  1  0  0  0
 26 21  2  0  0  0  0
 27  1  1  0  0  0  0
 27  2  1  0  0  0  0
 28 29  1  0  0  0  0
 28 17  1  0  0  0  0
 29 32  1  0  0  0  0
 30 33  1  0  0  0  0
 31 33  1  0  0  0  0
 32 34  1  0  0  0  0
 32 31  1  0  0  0  0
 34 30  1  0  0  0  0
M  END
>  <MODEL>
7

>  <REMARK>
 VINA RESULT:      -8.3      2.263      4.679
  Name = 
  3 active torsions:
  status: ('A' for Active; 'I' for Inactive)
    1  A    between atoms: N_17  and  C_28
    2  A    between atoms: C_28  and  C_29
    3  A    between atoms: C_29  and  N_32
                            x       y       z     vdW  Elec       q    Type
                         _______ _______ _______ _____ _____    ______ ____

>  <TORSDO>
F 3

$$$$
=
 OpenBabel11112417563D

 34 42  0  0  1  0  0  0  0  0999 V2000
  190.3450  174.9600  144.9730 C   0  0  0  0  0  0  0  0  0  0  0  0
  191.9270  173.4540  143.6120 C   0  0  0  0  0  3  0  0  0  0  0  0
  184.8180  177.8880  145.6230 C   0  0  2  0  0  3  0  0  0  0  0  0
  188.7590  176.4570  146.0760 C   0  0  0  0  0  0  0  0  0  0  0  0
  186.9700  177.4240  144.7480 C   0  0  0  0  0  0  0  0  0  0  0  0
  185.3590  178.7040  143.2450 C   0  0  0  0  0  2  0  0  0  0  0  0
  184.4400  177.9380  144.1600 C   0  0  1  0  0  3  0  0  0  0  0  0
  186.2380  179.2000  147.2260 C   0  0  0  0  0  2  0  0  0  0  0  0
  190.0880  174.4810  142.5470 C   0  0  0  0  0  0  0  0  0  0  0  0
  188.5230  173.0850  140.5410 C   0  0  0  0  0  2  0  0  0  0  0  0
  187.4440  176.7780  143.6470 N   0  0  0  0  0  0  0  0  0  0  0  0
  187.0630  177.8870  147.3150 C   0  0  0  0  0  2  0  0  0  0  0  0
  188.9990  175.2740  142.4600 C   0  0  0  0  0  0  0  0  0  0  0  0
  191.9870  173.1230  142.1150 C   0  0  0  0  0  3  0  0  0  0  0  0
  187.6270  177.2930  146.0080 C   0  0  0  0  0  0  0  0  0  0  0  0
  184.8140  179.0310  146.6200 C   0  0  0  0  0  2  0  0  0  0  0  0
  189.8680  172.6330  140.9420 N   0  0  0  0  0  0  0  0  0  0  0  0
  189.2150  175.7950  144.9150 C   0  0  0  0  0  0  0  0  0  0  0  0
  185.8380  178.3910  144.6370 C   0  0  2  0  0  0  0  0  0  0  0  0
  188.5330  175.9670  143.6930 C   0  0  0  0  0  0  0  0  0  0  0  0
  190.5730  175.4290  147.3370 C   0  0  0  0  0  3  0  0  0  0  0  0
  188.4980  174.5260  140.0300 C   0  0  0  0  0  2  0  0  0  0  0  0
  189.4500  176.2600  147.2840 C   0  0  0  0  0  3  0  0  0  0  0  0
  188.2420  175.5150  141.1690 C   0  0  0  0  0  2  0  0  0  0  0  0
  190.7330  173.7170  141.4410 C   0  0  1  0  0  3  0  0  0  0  0  0
  191.0210  174.7800  146.1840 C   0  0  0  0  0  3  0  0  0  0  0  0
  190.7730  174.3100  143.7710 N   0  0  0  0  0  0  0  0  0  0  0  0
  190.4940  172.0780  139.7480 C   0  0  0  0  0  2  0  0  0  0  0  0
  190.5520  170.5640  139.8540 C   0  0  0  0  0  2  0  0  0  0  0  0
  190.8260  168.9100  136.7150 C   0  0  0  0  0  2  0  0  0  0  0  0
  191.3820  171.0260  137.7120 C   0  0  0  0  0  2  0  0  0  0  0  0
  191.3520  170.0240  138.7680 N   0  0  0  0  0  0  0  0  0  0  0  0
  191.3150  170.2980  136.3860 C   0  0  0  0  0  2  0  0  0  0  0  0
  190.6100  168.9050  138.2120 C   0  0  0  0  0  2  0  0  0  0  0  0
  1 26  1  0  0  0  0
  2 27  1  0  0  0  0
  3 16  1  1  0  0  0
  4 23  2  0  0  0  0
  5 15  2  0  0  0  0
  7  6  1  1  0  0  0
  7 19  1  0  0  0  0
  7  3  1  0  0  0  0
  8 12  1  0  0  0  0
  9 27  1  0  0  0  0
 10 17  1  0  0  0  0
 11 20  2  0  0  0  0
 11  5  1  0  0  0  0
 13  9  2  0  0  0  0
 13 20  1  0  0  0  0
 14  2  2  0  0  0  0
 15  4  1  0  0  0  0
 15 12  1  0  0  0  0
 16  8  1  0  0  0  0
 17 25  1  0  0  0  0
 18  1  2  0  0  0  0
 18  4  1  0  0  0  0
 19  6  1  6  0  0  0
 19  5  1  0  0  0  0
 19  3  1  0  0  0  0
 20 18  1  0  0  0  0
 22 10  1  0  0  0  0
 22 24  1  0  0  0  0
 23 21  1  0  0  0  0
 24 13  1  0  0  0  0
 25 14  1  1  0  0  0
 25  9  1  0  0  0  0
 26 21  2  0  0  0  0
 27  1  1  0  0  0  0
 28 29  1  0  0  0  0
 28 17  1  0  0  0  0
 30 34  1  0  0  0  0
 31 32  1  0  0  0  0
 32 29  1  0  0  0  0
 33 30  1  0  0  0  0
 33 31  1  0  0  0  0
 34 32  1  0  0  0  0
M  END
>  <MODEL>
8

>  <REMARK>
 VINA RESULT:      -8.1      2.989      5.759
  Name = 
  3 active torsions:
  status: ('A' for Active; 'I' for Inactive)
    1  A    between atoms: N_17  and  C_28
    2  A    between atoms: C_28  and  C_29
    3  A    between atoms: C_29  and  N_32
                            x       y       z     vdW  Elec       q    Type
                         _______ _______ _______ _____ _____    ______ ____

>  <TORSDO>
F 3

$$$$
=
 OpenBabel11112417563D

 34 42  0  0  1  0  0  0  0  0999 V2000
  187.3360  176.2480  140.8100 C   0  0  0  0  0  0  0  0  0  0  0  0
  187.8160  175.0290  138.5940 C   0  0  0  0  0  3  0  0  0  0  0  0
  188.8320  177.4810  146.7920 C   0  0  2  0  0  3  0  0  0  0  0  0
  186.9710  177.2360  143.0150 C   0  0  0  0  0  0  0  0  0  0  0  0
  188.0780  176.2280  144.9280 C   0  0  0  0  0  0  0  0  0  0  0  0
  188.9410  174.9160  146.9340 C   0  0  0  0  0  2  0  0  0  0  0  0
  189.6510  176.2390  147.0580 C   0  0  1  0  0  3  0  0  0  0  0  0
  186.4090  178.1450  146.7650 C   0  0  0  0  0  2  0  0  0  0  0  0
  188.8090  174.2570  140.5910 C   0  0  0  0  0  0  0  0  0  0  0  0
  191.5450  173.2920  140.6510 C   0  0  0  0  0  2  0  0  0  0  0  0
  188.6310  175.2920  144.1090 N   0  0  0  0  0  0  0  0  0  0  0  0
  186.6640  178.3990  145.2540 C   0  0  0  0  0  2  0  0  0  0  0  0
  189.0550  174.2380  141.9180 C   0  0  0  0  0  0  0  0  0  0  0  0
  188.6040  173.7510  138.2810 C   0  0  0  0  0  3  0  0  0  0  0  0
  187.2100  177.2330  144.4040 C   0  0  0  0  0  0  0  0  0  0  0  0
  187.6980  178.0410  147.6310 C   0  0  0  0  0  2  0  0  0  0  0  0
  190.7860  173.4210  139.3930 N   0  0  0  0  0  0  0  0  0  0  0  0
  187.5710  176.2540  142.1960 C   0  0  0  0  0  0  0  0  0  0  0  0
  188.2520  176.1460  146.4080 C   0  0  2  0  0  0  0  0  0  0  0  0
  188.4130  175.2790  142.7680 C   0  0  0  0  0  0  0  0  0  0  0  0
  185.9150  178.1940  141.0390 C   0  0  0  0  0  3  0  0  0  0  0  0
  190.8600  172.3930  141.6810 C   0  0  0  0  0  2  0  0  0  0  0  0
  186.1450  178.2040  142.4190 C   0  0  0  0  0  3  0  0  0  0  0  0
  189.9310  173.2000  142.5910 C   0  0  0  0  0  2  0  0  0  0  0  0
  189.3270  173.3040  139.5680 C   0  0  1  0  0  3  0  0  0  0  0  0
  186.5080  177.2180  140.2350 C   0  0  0  0  0  3  0  0  0  0  0  0
  187.9630  175.2340  140.0180 N   0  0  0  0  0  0  0  0  0  0  0  0
  191.2200  172.3300  138.5310 C   0  0  0  0  0  2  0  0  0  0  0  0
  192.1110  172.8710  137.4260 C   0  0  0  0  0  2  0  0  0  0  0  0
  193.4050  176.0410  136.4510 C   0  0  0  0  0  2  0  0  0  0  0  0
  191.4420  174.6930  136.1120 C   0  0  0  0  0  2  0  0  0  0  0  0
  192.0290  174.3210  137.3920 N   0  0  0  0  0  0  0  0  0  0  0  0
  192.1400  175.9480  135.6340 C   0  0  0  0  0  2  0  0  0  0  0  0
  193.3930  174.8220  137.3470 C   0  0  0  0  0  2  0  0  0  0  0  0
  1 18  1  0  0  0  0
  2 27  1  0  0  0  0
  3  7  1  0  0  0  0
  3 16  1  1  0  0  0
  4 15  1  0  0  0  0
  5 19  1  0  0  0  0
  7  6  1  1  0  0  0
  8 16  1  0  0  0  0
  9 13  2  0  0  0  0
 10 22  1  0  0  0  0
 11  5  1  0  0  0  0
 12  8  1  0  0  0  0
 13 24  1  0  0  0  0
 13 20  1  0  0  0  0
 14  2  2  0  0  0  0
 15  5  2  0  0  0  0
 15 12  1  0  0  0  0
 17 25  1  0  0  0  0
 17 10  1  0  0  0  0
 18 20  1  0  0  0  0
 18  4  2  0  0  0  0
 19  3  1  0  0  0  0
 19  6  1  1  0  0  0
 19  7  1  0  0  0  0
 20 11  2  0  0  0  0
 21 23  2  0  0  0  0
 22 24  1  0  0  0  0
 23  4  1  0  0  0  0
 25 14  1  6  0  0  0
 25  9  1  0  0  0  0
 26  1  2  0  0  0  0
 26 21  1  0  0  0  0
 27  9  1  0  0  0  0
 27  1  1  0  0  0  0
 28 17  1  0  0  0  0
 29 28  1  0  0  0  0
 30 34  1  0  0  0  0
 31 32  1  0  0  0  0
 32 29  1  0  0  0  0
 33 31  1  0  0  0  0
 33 30  1  0  0  0  0
 34 32  1  0  0  0  0
M  END
>  <MODEL>
9

>  <REMARK>
 VINA RESULT:      -8.0      3.461      5.356
  Name = 
  3 active torsions:
  status: ('A' for Active; 'I' for Inactive)
    1  A    between atoms: N_17  and  C_28
    2  A    between atoms: C_28  and  C_29
    3  A    between atoms: C_29  and  N_32
                            x       y       z     vdW  Elec       q    Type
                         _______ _______ _______ _____ _____    ______ ____

>  <TORSDO>
F 3

$$$$
