=
 OpenBabel11112417553D

 34 41  0  0  1  0  0  0  0  0999 V2000
  189.4390  175.1300  142.8770 C   0  0  0  0  0  0  0  0  0  0  0  0
  191.6680  173.9130  142.4810 C   0  0  0  0  0  3  0  0  0  0  0  0
  185.7160  179.2790  146.2330 C   0  0  2  0  0  3  0  0  0  0  0  0
  187.3540  176.3080  143.3850 C   0  0  0  0  0  0  0  0  0  0  0  0
  187.1390  177.4060  145.6440 C   0  0  1  0  0  3  0  0  0  0  0  0
  186.6140  178.4650  147.9790 C   0  0  0  0  0  2  0  0  0  0  0  0
  185.9410  179.7900  147.6380 C   0  0  0  0  0  2  0  0  0  0  0  0
  184.1910  178.2510  144.5070 C   0  0  0  0  0  2  0  0  0  0  0  0
  190.9880  174.5860  144.6480 C   0  0  0  0  0  0  0  0  0  0  0  0
  192.8960  175.6270  146.5660 C   0  0  0  0  0  2  0  0  0  0  0  0
  187.9460  176.2510  146.2220 C   0  0  0  0  0  2  0  0  0  0  0  0
  185.5050  178.0220  143.7330 C   0  0  0  0  0  2  0  0  0  0  0  0
  190.1380  175.1410  145.6250 C   0  0  0  0  0  0  0  0  0  0  0  0
  192.7040  173.4050  143.4850 C   0  0  0  0  0  3  0  0  0  0  0  0
  186.3860  176.9230  144.3770 C   0  0  1  0  0  3  0  0  0  0  0  0
  184.3010  179.2450  145.6870 C   0  0  0  0  0  2  0  0  0  0  0  0
  193.3220  174.8740  145.3720 N   0  0  0  0  0  0  0  0  0  0  0  0
  188.5630  175.7160  143.8260 C   0  0  0  0  0  0  0  0  0  0  0  0
  186.1240  177.8950  146.6600 C   0  0  1  0  0  3  0  0  0  0  0  0
  188.9150  175.7140  145.2020 C   0  0  0  0  0  0  0  0  0  0  0  0
  187.8780  175.6480  141.1000 C   0  0  0  0  0  3  0  0  0  0  0  0
  191.9370  174.8440  147.4650 C   0  0  0  0  0  2  0  0  0  0  0  0
  187.0160  176.2400  142.0230 C   0  0  0  0  0  3  0  0  0  0  0  0
  190.4790  175.1320  147.1020 C   0  0  0  0  0  2  0  0  0  0  0  0
  192.3070  173.9250  144.8780 C   0  0  1  0  0  3  0  0  0  0  0  0
  189.0880  175.1010  141.5230 C   0  0  0  0  0  3  0  0  0  0  0  0
  190.6430  174.5750  143.3200 C   0  0  0  0  0  0  0  0  0  0  0  0
  194.4980  174.1070  145.7620 C   0  0  0  0  0  2  0  0  0  0  0  0
  195.7550  174.9090  145.4730 C   0  0  0  0  0  2  0  0  0  0  0  0
  197.2870  176.9100  143.1380 N   0  0  0  0  0  0  0  0  0  0  0  0
  197.0030  174.6310  143.3260 C   0  0  0  0  0  2  0  0  0  0  0  0
  195.8090  175.2940  144.0060 C   0  0  2  0  0  3  0  0  0  0  0  0
  197.8000  175.7830  142.8340 C   0  0  0  0  0  3  0  0  0  0  0  0
  196.0660  176.7910  143.8810 C   0  0  0  0  0  2  0  0  0  0  0  0
  1 27  2  0  0  0  0
  1 18  1  0  0  0  0
  2 27  1  0  0  0  0
  2 14  2  0  0  0  0
  3 16  1  1  0  0  0
  3 19  1  0  0  0  0
  3  7  1  0  0  0  0
  4 18  1  0  0  0  0
  4 15  1  0  0  0  0
  5 11  1  1  0  0  0
  5 19  1  0  0  0  0
  7  6  1  0  0  0  0
  8 16  1  0  0  0  0
  9 25  1  0  0  0  0
  9 13  2  0  0  0  0
 10 22  1  0  0  0  0
 12  8  1  0  0  0  0
 13 24  1  0  0  0  0
 15 12  1  6  0  0  0
 15  5  1  0  0  0  0
 17 28  1  0  0  0  0
 17 10  1  0  0  0  0
 18 20  2  0  0  0  0
 19  6  1  1  0  0  0
 20 13  1  0  0  0  0
 20 11  1  0  0  0  0
 21 26  2  0  0  0  0
 21 23  1  0  0  0  0
 23  4  2  0  0  0  0
 24 22  1  0  0  0  0
 25 14  1  6  0  0  0
 25 17  1  0  0  0  0
 26  1  1  0  0  0  0
 27  9  1  0  0  0  0
 29 28  1  0  0  0  0
 30 34  1  0  0  0  0
 31 32  1  0  0  0  0
 32 29  1  1  0  0  0
 33 30  2  0  0  0  0
 33 31  1  0  0  0  0
 34 32  1  0  0  0  0
M  END
>  <MODEL>
1

>  <REMARK>
 VINA RESULT:      -9.3      0.000      0.000
  Name = 
  3 active torsions:
  status: ('A' for Active; 'I' for Inactive)
    1  A    between atoms: N_17  and  C_28
    2  A    between atoms: C_28  and  C_29
    3  A    between atoms: C_29  and  C_32
                            x       y       z     vdW  Elec       q    Type
                         _______ _______ _______ _____ _____    ______ ____

>  <TORSDO>
F 3

$$$$
=
 OpenBabel11112417553D

 34 41  0  0  1  0  0  0  0  0999 V2000
  188.7820  176.3370  146.4910 C   0  0  0  0  0  0  0  0  0  0  0  0
  190.8520  175.3850  147.6800 C   0  0  0  0  0  3  0  0  0  0  0  0
  185.3180  177.5010  141.1080 C   0  0  2  0  0  3  0  0  0  0  0  0
  186.8820  177.2490  145.2450 C   0  0  0  0  0  0  0  0  0  0  0  0
  187.1080  177.4660  142.7430 C   0  0  1  0  0  3  0  0  0  0  0  0
  187.1730  177.9520  140.1720 C   0  0  0  0  0  2  0  0  0  0  0  0
  185.8070  177.4890  139.6770 C   0  0  0  0  0  2  0  0  0  0  0  0
  184.0690  178.6500  142.9740 C   0  0  0  0  0  2  0  0  0  0  0  0
  190.9510  176.1670  145.4450 C   0  0  0  0  0  0  0  0  0  0  0  0
  192.5460  174.8020  143.4460 C   0  0  0  0  0  2  0  0  0  0  0  0
  188.5770  177.8050  142.9590 C   0  0  0  0  0  2  0  0  0  0  0  0
  184.7770  177.6050  143.8590 C   0  0  0  0  0  2  0  0  0  0  0  0
  190.4740  176.7460  144.2530 C   0  0  0  0  0  0  0  0  0  0  0  0
  192.3050  175.3010  147.2080 C   0  0  0  0  0  3  0  0  0  0  0  0
  186.2960  177.8800  143.9970 C   0  0  1  0  0  3  0  0  0  0  0  0
  184.1060  178.3440  141.4580 C   0  0  0  0  0  2  0  0  0  0  0  0
  192.7430  174.5740  144.8890 N   0  0  0  0  0  0  0  0  0  0  0  0
  188.2570  176.9070  145.3040 C   0  0  0  0  0  0  0  0  0  0  0  0
  186.5690  178.2160  141.5400 C   0  0  1  0  0  3  0  0  0  0  0  0
  189.1090  177.1150  144.1880 C   0  0  0  0  0  0  0  0  0  0  0  0
  186.6160  176.5310  147.5570 C   0  0  0  0  0  3  0  0  0  0  0  0
  192.7100  176.2670  143.0370 C   0  0  0  0  0  2  0  0  0  0  0  0
  186.0850  177.0790  146.3880 C   0  0  0  0  0  3  0  0  0  0  0  0
  191.3670  177.0000  143.0550 C   0  0  0  0  0  2  0  0  0  0  0  0
  192.3480  175.7200  145.7290 C   0  0  1  0  0  3  0  0  0  0  0  0
  187.9570  176.1550  147.6070 C   0  0  0  0  0  3  0  0  0  0  0  0
  190.1320  175.9770  146.5300 C   0  0  0  0  0  0  0  0  0  0  0  0
  194.1690  174.3480  145.0840 C   0  0  0  0  0  2  0  0  0  0  0  0
  194.4410  172.8600  145.2200 C   0  0  0  0  0  2  0  0  0  0  0  0
  197.7430  172.7540  144.2760 N   0  0  0  0  0  0  0  0  0  0  0  0
  196.5910  173.9530  145.8720 C   0  0  0  0  0  2  0  0  0  0  0  0
  195.8640  172.6240  145.6910 C   0  0  2  0  0  3  0  0  0  0  0  0
  197.7350  173.8480  144.9310 C   0  0  0  0  0  3  0  0  0  0  0  0
  196.6450  171.8920  144.6070 C   0  0  0  0  0  2  0  0  0  0  0  0
  1 27  1  0  0  0  0
  1 26  2  0  0  0  0
  3  7  1  6  0  0  0
  3 16  1  0  0  0  0
  3 19  1  0  0  0  0
  4 18  2  0  0  0  0
  4 23  1  0  0  0  0
  5 11  1  1  0  0  0
  5 15  1  0  0  0  0
  7  6  1  0  0  0  0
  8 12  1  0  0  0  0
  9 25  1  0  0  0  0
  9 27  2  0  0  0  0
 10 17  1  0  0  0  0
 11 20  1  0  0  0  0
 13  9  1  0  0  0  0
 14  2  2  0  0  0  0
 15 12  1  6  0  0  0
 15  4  1  0  0  0  0
 16  8  1  0  0  0  0
 17 28  1  0  0  0  0
 17 25  1  0  0  0  0
 18  1  1  0  0  0  0
 19  6  1  6  0  0  0
 19  5  1  0  0  0  0
 20 13  2  0  0  0  0
 20 18  1  0  0  0  0
 21 26  1  0  0  0  0
 22 24  1  0  0  0  0
 22 10  1  0  0  0  0
 23 21  2  0  0  0  0
 24 13  1  0  0  0  0
 25 14  1  1  0  0  0
 27  2  1  0  0  0  0
 28 29  1  0  0  0  0
 30 34  1  0  0  0  0
 30 33  2  0  0  0  0
 32 29  1  6  0  0  0
 32 31  1  0  0  0  0
 33 31  1  0  0  0  0
 34 32  1  0  0  0  0
M  END
>  <MODEL>
2

>  <REMARK>
 VINA RESULT:      -8.7      1.923      4.068
  Name = 
  3 active torsions:
  status: ('A' for Active; 'I' for Inactive)
    1  A    between atoms: N_17  and  C_28
    2  A    between atoms: C_28  and  C_29
    3  A    between atoms: C_29  and  C_32
                            x       y       z     vdW  Elec       q    Type
                         _______ _______ _______ _____ _____    ______ ____

>  <TORSDO>
F 3

$$$$
=
 OpenBabel11112417553D

 34 41  0  0  1  0  0  0  0  0999 V2000
  189.6550  174.3180  144.9380 C   0  0  0  0  0  0  0  0  0  0  0  0
  191.2330  172.3790  144.3390 C   0  0  0  0  0  3  0  0  0  0  0  0
  184.4950  178.0770  143.6840 C   0  0  2  0  0  3  0  0  0  0  0  0
  188.1180  176.1720  145.3770 C   0  0  0  0  0  0  0  0  0  0  0  0
  186.6280  176.9400  143.4940 C   0  0  1  0  0  3  0  0  0  0  0  0
  185.1180  178.0260  141.6520 C   0  0  0  0  0  2  0  0  0  0  0  0
  183.7880  178.2600  142.3600 C   0  0  0  0  0  2  0  0  0  0  0  0
  185.5720  179.0760  145.7350 C   0  0  0  0  0  2  0  0  0  0  0  0
  190.1060  173.6260  142.6690 C   0  0  0  0  0  0  0  0  0  0  0  0
  189.0380  172.3410  140.3000 C   0  0  0  0  0  2  0  0  0  0  0  0
  187.7700  176.6310  142.5360 C   0  0  0  0  0  2  0  0  0  0  0  0
  186.1190  177.6470  145.9310 C   0  0  0  0  0  2  0  0  0  0  0  0
  189.2730  174.6350  142.1470 C   0  0  0  0  0  0  0  0  0  0  0  0
  191.7050  171.8820  142.9720 C   0  0  0  0  0  3  0  0  0  0  0  0
  187.2070  177.2830  144.8900 C   0  0  1  0  0  3  0  0  0  0  0  0
  184.4170  179.1890  144.7130 C   0  0  0  0  0  2  0  0  0  0  0  0
  190.0390  171.6830  141.1600 N   0  0  0  0  0  0  0  0  0  0  0  0
  188.7940  175.3350  144.4540 C   0  0  0  0  0  0  0  0  0  0  0  0
  185.8290  178.1270  142.9900 C   0  0  1  0  0  3  0  0  0  0  0  0
  188.6100  175.4940  143.0550 C   0  0  0  0  0  0  0  0  0  0  0  0
  189.2300  175.0240  147.2150 C   0  0  0  0  0  3  0  0  0  0  0  0
  189.5070  173.6880  139.7470 C   0  0  0  0  0  2  0  0  0  0  0  0
  188.3690  176.0190  146.7500 C   0  0  0  0  0  3  0  0  0  0  0  0
  189.0770  174.8400  140.6570 C   0  0  0  0  0  2  0  0  0  0  0  0
  190.9020  172.6280  141.8930 C   0  0  1  0  0  3  0  0  0  0  0  0
  189.8660  174.1730  146.3140 C   0  0  0  0  0  3  0  0  0  0  0  0
  190.2950  173.4800  144.0210 C   0  0  0  0  0  0  0  0  0  0  0  0
  190.8900  170.8940  140.2780 C   0  0  0  0  0  2  0  0  0  0  0  0
  190.0580  170.3030  139.1540 C   0  0  0  0  0  2  0  0  0  0  0  0
  190.5790  172.2170  136.3490 N   0  0  0  0  0  0  0  0  0  0  0  0
  191.9820  171.3640  137.9640 C   0  0  0  0  0  2  0  0  0  0  0  0
  190.8030  170.4040  137.8350 C   0  0  2  0  0  3  0  0  0  0  0  0
  191.6820  172.4120  136.9570 C   0  0  0  0  0  3  0  0  0  0  0  0
  189.8970  171.0330  136.7840 C   0  0  0  0  0  2  0  0  0  0  0  0
  1 26  2  0  0  0  0
  3  7  1  6  0  0  0
  3 16  1  0  0  0  0
  4 23  1  0  0  0  0
  5 11  1  6  0  0  0
  5 15  1  0  0  0  0
  6  7  1  0  0  0  0
  8 12  1  0  0  0  0
  9 27  2  0  0  0  0
 10 17  1  0  0  0  0
 11 20  1  0  0  0  0
 13  9  1  0  0  0  0
 13 20  2  0  0  0  0
 14  2  2  0  0  0  0
 15  4  1  0  0  0  0
 15 12  1  1  0  0  0
 16  8  1  0  0  0  0
 17 25  1  0  0  0  0
 18  1  1  0  0  0  0
 18  4  2  0  0  0  0
 19  6  1  6  0  0  0
 19  5  1  0  0  0  0
 19  3  1  0  0  0  0
 20 18  1  0  0  0  0
 22 10  1  0  0  0  0
 22 24  1  0  0  0  0
 23 21  2  0  0  0  0
 24 13  1  0  0  0  0
 25  9  1  0  0  0  0
 25 14  1  1  0  0  0
 26 21  1  0  0  0  0
 27  2  1  0  0  0  0
 27  1  1  0  0  0  0
 28 17  1  0  0  0  0
 29 28  1  0  0  0  0
 30 34  1  0  0  0  0
 30 33  2  0  0  0  0
 32 31  1  0  0  0  0
 32 29  1  1  0  0  0
 33 31  1  0  0  0  0
 34 32  1  0  0  0  0
M  END
>  <MODEL>
3

>  <REMARK>
 VINA RESULT:      -8.7      3.354      5.707
  Name = 
  3 active torsions:
  status: ('A' for Active; 'I' for Inactive)
    1  A    between atoms: N_17  and  C_28
    2  A    between atoms: C_28  and  C_29
    3  A    between atoms: C_29  and  C_32
                            x       y       z     vdW  Elec       q    Type
                         _______ _______ _______ _____ _____    ______ ____

>  <TORSDO>
F 3

$$$$
=
 OpenBabel11112417553D

 34 41  0  0  1  0  0  0  0  0999 V2000
  192.3820  176.1210  145.4490 C   0  0  0  0  0  0  0  0  0  0  0  0
  190.2090  176.8160  146.6320 C   0  0  0  0  0  3  0  0  0  0  0  0
  195.9630  175.3520  140.0710 C   0  0  2  0  0  3  0  0  0  0  0  0
  194.3800  175.4430  144.2080 C   0  0  0  0  0  0  0  0  0  0  0  0
  194.1820  175.1770  141.7090 C   0  0  1  0  0  3  0  0  0  0  0  0
  194.1790  174.6630  139.1420 C   0  0  0  0  0  2  0  0  0  0  0  0
  195.4760  175.2890  138.6410 C   0  0  0  0  0  2  0  0  0  0  0  0
  197.3470  174.3850  141.9450 C   0  0  0  0  0  2  0  0  0  0  0  0
  190.2080  176.0080  144.4050 C   0  0  0  0  0  0  0  0  0  0  0  0
  188.4530  177.1430  142.3960 C   0  0  0  0  0  2  0  0  0  0  0  0
  192.7680  174.6580  141.9300 C   0  0  0  0  0  2  0  0  0  0  0  0
  196.5130  175.3410  142.8230 C   0  0  0  0  0  2  0  0  0  0  0  0
  190.7540  175.4820  143.2180 C   0  0  0  0  0  0  0  0  0  0  0  0
  188.7570  176.7130  146.1620 C   0  0  0  0  0  3  0  0  0  0  0  0
  195.0410  174.8790  142.9650 C   0  0  1  0  0  3  0  0  0  0  0  0
  197.2710  174.6710  140.4270 C   0  0  0  0  0  2  0  0  0  0  0  0
  188.2300  177.3580  143.8370 N   0  0  0  0  0  0  0  0  0  0  0  0
  192.9740  175.6100  144.2660 C   0  0  0  0  0  0  0  0  0  0  0  0
  194.8110  174.4890  140.5110 C   0  0  1  0  0  3  0  0  0  0  0  0
  192.1540  175.2860  143.1530 C   0  0  0  0  0  0  0  0  0  0  0  0
  194.5550  176.2100  146.5130 C   0  0  0  0  0  3  0  0  0  0  0  0
  188.4750  175.6650  142.0010 C   0  0  0  0  0  2  0  0  0  0  0  0
  195.1500  175.7230  145.3480 C   0  0  0  0  0  3  0  0  0  0  0  0
  189.8990  175.1070  142.0230 C   0  0  0  0  0  2  0  0  0  0  0  0
  188.7660  176.2780  144.6860 C   0  0  1  0  0  3  0  0  0  0  0  0
  193.1780  176.4150  146.5620 C   0  0  0  0  0  3  0  0  0  0  0  0
  190.9980  176.3090  145.4860 C   0  0  0  0  0  0  0  0  0  0  0  0
  186.7870  177.4050  144.0320 C   0  0  0  0  0  2  0  0  0  0  0  0
  186.2270  178.6790  143.4260 C   0  0  0  0  0  2  0  0  0  0  0  0
  183.6910  178.6660  145.7450 N   0  0  0  0  0  0  0  0  0  0  0  0
  185.9540  179.0760  145.8770 C   0  0  0  0  0  2  0  0  0  0  0  0
  185.5000  179.4920  144.4820 C   0  0  2  0  0  3  0  0  0  0  0  0
  184.7010  178.6080  146.5200 C   0  0  0  0  0  3  0  0  0  0  0  0
  184.0120  179.1680  144.4400 C   0  0  0  0  0  2  0  0  0  0  0  0
  1 27  1  0  0  0  0
  1 26  2  0  0  0  0
  3  7  1  6  0  0  0
  3 16  1  0  0  0  0
  3 19  1  0  0  0  0
  4 18  2  0  0  0  0
  4 23  1  0  0  0  0
  5 11  1  1  0  0  0
  5 15  1  0  0  0  0
  7  6  1  0  0  0  0
  8 12  1  0  0  0  0
  9 25  1  0  0  0  0
  9 27  2  0  0  0  0
 10 17  1  0  0  0  0
 11 20  1  0  0  0  0
 13  9  1  0  0  0  0
 14  2  2  0  0  0  0
 15 12  1  6  0  0  0
 15  4  1  0  0  0  0
 16  8  1  0  0  0  0
 17 28  1  0  0  0  0
 17 25  1  0  0  0  0
 18  1  1  0  0  0  0
 19  6  1  6  0  0  0
 19  5  1  0  0  0  0
 20 13  2  0  0  0  0
 20 18  1  0  0  0  0
 21 26  1  0  0  0  0
 22 24  1  0  0  0  0
 22 10  1  0  0  0  0
 23 21  2  0  0  0  0
 24 13  1  0  0  0  0
 25 14  1  1  0  0  0
 27  2  1  0  0  0  0
 29 28  1  0  0  0  0
 30 33  2  0  0  0  0
 31 33  1  0  0  0  0
 32 29  1  6  0  0  0
 32 31  1  0  0  0  0
 34 32  1  0  0  0  0
 34 30  1  0  0  0  0
M  END
>  <MODEL>
4

>  <REMARK>
 VINA RESULT:      -8.5      2.793      9.221
  Name = 
  3 active torsions:
  status: ('A' for Active; 'I' for Inactive)
    1  A    between atoms: N_17  and  C_28
    2  A    between atoms: C_28  and  C_29
    3  A    between atoms: C_29  and  C_32
                            x       y       z     vdW  Elec       q    Type
                         _______ _______ _______ _____ _____    ______ ____

>  <TORSDO>
F 3

$$$$
=
 OpenBabel11112417553D

 34 41  0  0  1  0  0  0  0  0999 V2000
  189.5010  175.5640  142.8740 C   0  0  0  0  0  0  0  0  0  0  0  0
  191.7710  174.6920  142.0420 C   0  0  0  0  0  3  0  0  0  0  0  0
  185.9100  179.2510  146.8540 C   0  0  2  0  0  3  0  0  0  0  0  0
  187.3990  176.4260  143.7840 C   0  0  0  0  0  0  0  0  0  0  0  0
  187.4710  177.5950  146.0170 C   0  0  1  0  0  3  0  0  0  0  0  0
  187.2670  178.6820  148.3890 C   0  0  0  0  0  2  0  0  0  0  0  0
  186.3300  179.8650  148.1710 C   0  0  0  0  0  2  0  0  0  0  0  0
  184.2550  177.9060  145.5080 C   0  0  0  0  0  2  0  0  0  0  0  0
  191.4460  175.3640  144.2910 C   0  0  0  0  0  0  0  0  0  0  0  0
  193.5080  176.7920  145.7450 C   0  0  0  0  0  2  0  0  0  0  0  0
  188.5580  176.6140  146.4350 C   0  0  0  0  0  2  0  0  0  0  0  0
  185.4040  177.8450  144.4800 C   0  0  0  0  0  2  0  0  0  0  0  0
  190.7340  175.8310  145.4130 C   0  0  0  0  0  0  0  0  0  0  0  0
  193.0590  174.4070  142.8160 C   0  0  0  0  0  3  0  0  0  0  0  0
  186.5660  176.9330  144.9460 C   0  0  1  0  0  3  0  0  0  0  0  0
  184.4390  178.9660  146.6180 C   0  0  0  0  0  2  0  0  0  0  0  0
  193.7990  176.0530  144.5030 N   0  0  0  0  0  0  0  0  0  0  0  0
  188.7530  176.0550  143.9740 C   0  0  0  0  0  0  0  0  0  0  0  0
  186.6190  177.9730  147.2130 C   0  0  1  0  0  3  0  0  0  0  0  0
  189.3740  176.1810  145.2450 C   0  0  0  0  0  0  0  0  0  0  0  0
  187.5480  175.7350  141.4530 C   0  0  0  0  0  3  0  0  0  0  0  0
  192.8950  175.9180  146.8390 C   0  0  0  0  0  2  0  0  0  0  0  0
  186.8060  176.2340  142.5260 C   0  0  0  0  0  3  0  0  0  0  0  0
  191.3660  175.9540  146.7860 C   0  0  0  0  0  2  0  0  0  0  0  0
  192.8750  174.9320  144.2510 C   0  0  1  0  0  3  0  0  0  0  0  0
  188.8910  175.4080  141.6240 C   0  0  0  0  0  3  0  0  0  0  0  0
  190.8450  175.2290  143.0640 C   0  0  0  0  0  0  0  0  0  0  0  0
  195.1400  175.5020  144.6520 C   0  0  0  0  0  2  0  0  0  0  0  0
  195.1010  174.2970  145.5760 C   0  0  0  0  0  2  0  0  0  0  0  0
  196.8170  171.3740  146.1370 N   0  0  0  0  0  0  0  0  0  0  0  0
  194.8850  171.8780  144.9880 C   0  0  0  0  0  2  0  0  0  0  0  0
  195.7840  173.1090  144.9250 C   0  0  2  0  0  3  0  0  0  0  0  0
  195.6950  170.9020  145.7600 C   0  0  0  0  0  3  0  0  0  0  0  0
  197.0250  172.7320  145.7250 C   0  0  0  0  0  2  0  0  0  0  0  0
  1 27  2  0  0  0  0
  1 18  1  0  0  0  0
  2 14  2  0  0  0  0
  2 27  1  0  0  0  0
  3 16  1  1  0  0  0
  3 19  1  0  0  0  0
  3  7  1  0  0  0  0
  4 18  1  0  0  0  0
  4 15  1  0  0  0  0
  5 11  1  1  0  0  0
  5 19  1  0  0  0  0
  7  6  1  0  0  0  0
  8 16  1  0  0  0  0
  9 13  2  0  0  0  0
 10 22  1  0  0  0  0
 12  8  1  0  0  0  0
 13 24  1  0  0  0  0
 15 12  1  6  0  0  0
 15  5  1  0  0  0  0
 17 28  1  0  0  0  0
 17 10  1  0  0  0  0
 18 20  2  0  0  0  0
 19  6  1  1  0  0  0
 20 13  1  0  0  0  0
 20 11  1  0  0  0  0
 21 26  2  0  0  0  0
 21 23  1  0  0  0  0
 23  4  2  0  0  0  0
 24 22  1  0  0  0  0
 25 14  1  6  0  0  0
 25  9  1  0  0  0  0
 25 17  1  0  0  0  0
 26  1  1  0  0  0  0
 27  9  1  0  0  0  0
 28 29  1  0  0  0  0
 31 33  1  0  0  0  0
 32 31  1  0  0  0  0
 32 29  1  1  0  0  0
 32 34  1  0  0  0  0
 33 30  2  0  0  0  0
 34 30  1  0  0  0  0
M  END
>  <MODEL>
5

>  <REMARK>
 VINA RESULT:      -8.5      1.477      2.066
  Name = 
  3 active torsions:
  status: ('A' for Active; 'I' for Inactive)
    1  A    between atoms: N_17  and  C_28
    2  A    between atoms: C_28  and  C_29
    3  A    between atoms: C_29  and  C_32
                            x       y       z     vdW  Elec       q    Type
                         _______ _______ _______ _____ _____    ______ ____

>  <TORSDO>
F 3

$$$$
=
 OpenBabel11112417553D

 34 41  0  0  1  0  0  0  0  0999 V2000
  189.6330  174.5430  145.0540 C   0  0  0  0  0  0  0  0  0  0  0  0
  191.2270  172.5700  144.6380 C   0  0  0  0  0  3  0  0  0  0  0  0
  184.5160  178.2000  143.3890 C   0  0  2  0  0  3  0  0  0  0  0  0
  188.0840  176.4200  145.3180 C   0  0  0  0  0  0  0  0  0  0  0  0
  186.6530  177.0550  143.3420 C   0  0  1  0  0  3  0  0  0  0  0  0
  185.2010  178.0100  141.3850 C   0  0  0  0  0  2  0  0  0  0  0  0
  183.8500  178.2910  142.0350 C   0  0  0  0  0  2  0  0  0  0  0  0
  185.5310  179.3380  145.3980 C   0  0  0  0  0  2  0  0  0  0  0  0
  190.1520  173.6970  142.8530 C   0  0  0  0  0  0  0  0  0  0  0  0
  189.1560  172.2520  140.5450 C   0  0  0  0  0  2  0  0  0  0  0  0
  187.8240  176.6830  142.4430 C   0  0  0  0  0  2  0  0  0  0  0  0
  186.0710  177.9270  145.7080 C   0  0  0  0  0  2  0  0  0  0  0  0
  189.3360  174.6670  142.2370 C   0  0  0  0  0  0  0  0  0  0  0  0
  191.7400  171.9810  143.3230 C   0  0  0  0  0  3  0  0  0  0  0  0
  187.1900  177.4940  144.7290 C   0  0  1  0  0  3  0  0  0  0  0  0
  184.4070  179.3800  144.3360 C   0  0  0  0  0  2  0  0  0  0  0  0
  190.1300  171.6560  141.4790 N   0  0  0  0  0  0  0  0  0  0  0  0
  188.7870  175.5230  144.4760 C   0  0  0  0  0  0  0  0  0  0  0  0
  185.8700  178.2040  142.7340 C   0  0  1  0  0  3  0  0  0  0  0  0
  188.6470  175.5850  143.0640 C   0  0  0  0  0  0  0  0  0  0  0  0
  189.1390  175.4030  147.2630 C   0  0  0  0  0  3  0  0  0  0  0  0
  189.6430  173.5590  139.9160 C   0  0  0  0  0  2  0  0  0  0  0  0
  188.2930  176.3630  146.7050 C   0  0  0  0  0  3  0  0  0  0  0  0
  189.1860  174.7700  140.7320 C   0  0  0  0  0  2  0  0  0  0  0  0
  190.9700  172.6500  142.1720 C   0  0  1  0  0  3  0  0  0  0  0  0
  189.8010  174.4920  146.4420 C   0  0  0  0  0  3  0  0  0  0  0  0
  190.3000  173.6450  144.2160 C   0  0  0  0  0  0  0  0  0  0  0  0
  191.0070  170.8100  140.6800 C   0  0  0  0  0  2  0  0  0  0  0  0
  190.8160  169.3550  141.0720 C   0  0  0  0  0  2  0  0  0  0  0  0
  194.1930  169.6980  141.6060 N   0  0  0  0  0  0  0  0  0  0  0  0
  192.5730  168.3510  142.5390 C   0  0  0  0  0  2  0  0  0  0  0  0
  192.1520  168.6360  141.1000 C   0  0  2  0  0  3  0  0  0  0  0  0
  193.8640  169.0720  142.6670 C   0  0  0  0  0  3  0  0  0  0  0  0
  193.2360  169.5520  140.5470 C   0  0  0  0  0  2  0  0  0  0  0  0
  1 26  2  0  0  0  0
  3  7  1  6  0  0  0
  3 16  1  0  0  0  0
  4 23  1  0  0  0  0
  5 11  1  6  0  0  0
  5 15  1  0  0  0  0
  6  7  1  0  0  0  0
  8 12  1  0  0  0  0
  9 27  2  0  0  0  0
 10 17  1  0  0  0  0
 11 20  1  0  0  0  0
 13  9  1  0  0  0  0
 13 20  2  0  0  0  0
 14  2  2  0  0  0  0
 15  4  1  0  0  0  0
 15 12  1  1  0  0  0
 16  8  1  0  0  0  0
 17 25  1  0  0  0  0
 18  1  1  0  0  0  0
 18  4  2  0  0  0  0
 19  6  1  6  0  0  0
 19  5  1  0  0  0  0
 19  3  1  0  0  0  0
 20 18  1  0  0  0  0
 22 10  1  0  0  0  0
 22 24  1  0  0  0  0
 23 21  2  0  0  0  0
 24 13  1  0  0  0  0
 25  9  1  0  0  0  0
 25 14  1  1  0  0  0
 26 21  1  0  0  0  0
 27  2  1  0  0  0  0
 27  1  1  0  0  0  0
 28 29  1  0  0  0  0
 28 17  1  0  0  0  0
 30 33  2  0  0  0  0
 31 33  1  0  0  0  0
 32 29  1  1  0  0  0
 32 31  1  0  0  0  0
 34 32  1  0  0  0  0
 34 30  1  0  0  0  0
M  END
>  <MODEL>
6

>  <REMARK>
 VINA RESULT:      -8.4      3.221      5.236
  Name = 
  3 active torsions:
  status: ('A' for Active; 'I' for Inactive)
    1  A    between atoms: N_17  and  C_28
    2  A    between atoms: C_28  and  C_29
    3  A    between atoms: C_29  and  C_32
                            x       y       z     vdW  Elec       q    Type
                         _______ _______ _______ _____ _____    ______ ____

>  <TORSDO>
F 3

$$$$
=
 OpenBabel11112417553D

 34 41  0  0  1  0  0  0  0  0999 V2000
  192.1800  175.8320  145.4200 C   0  0  0  0  0  0  0  0  0  0  0  0
  190.1560  177.3810  145.0840 C   0  0  0  0  0  3  0  0  0  0  0  0
  195.8630  170.7770  143.6290 C   0  0  2  0  0  3  0  0  0  0  0  0
  194.0430  174.2640  145.6670 C   0  0  0  0  0  0  0  0  0  0  0  0
  193.9760  172.1320  144.3230 C   0  0  1  0  0  3  0  0  0  0  0  0
  194.0410  169.7810  143.1740 C   0  0  0  0  0  2  0  0  0  0  0  0
  195.4850  169.6440  142.7030 C   0  0  0  0  0  2  0  0  0  0  0  0
  196.8290  171.5700  145.8210 C   0  0  0  0  0  2  0  0  0  0  0  0
  190.1280  175.1230  144.3640 C   0  0  0  0  0  0  0  0  0  0  0  0
  188.8560  174.3570  141.8740 C   0  0  0  0  0  2  0  0  0  0  0  0
  192.4650  172.1210  144.5170 C   0  0  0  0  0  2  0  0  0  0  0  0
  196.1860  172.9130  145.4190 C   0  0  0  0  0  2  0  0  0  0  0  0
  190.6190  173.8160  144.1820 C   0  0  0  0  0  0  0  0  0  0  0  0
  188.7620  177.0710  144.5360 C   0  0  0  0  0  3  0  0  0  0  0  0
  194.6400  172.8790  145.5080 C   0  0  1  0  0  3  0  0  0  0  0  0
  196.9380  170.5390  144.6740 C   0  0  0  0  0  2  0  0  0  0  0  0
  188.5840  175.6530  142.5230 N   0  0  0  0  0  0  0  0  0  0  0  0
  192.7190  174.5330  145.2410 C   0  0  0  0  0  0  0  0  0  0  0  0
  194.5080  170.7120  144.2790 C   0  0  1  0  0  3  0  0  0  0  0  0
  191.9310  173.5250  144.6250 C   0  0  0  0  0  0  0  0  0  0  0  0
  194.2240  176.5430  146.5060 C   0  0  0  0  0  3  0  0  0  0  0  0
  188.5490  173.1560  142.7710 C   0  0  0  0  0  2  0  0  0  0  0  0
  194.7700  175.2720  146.3210 C   0  0  0  0  0  3  0  0  0  0  0  0
  189.7910  172.7140  143.5490 C   0  0  0  0  0  2  0  0  0  0  0  0
  188.7770  175.6360  143.9850 C   0  0  1  0  0  3  0  0  0  0  0  0
  192.9370  176.8250  146.0520 C   0  0  0  0  0  3  0  0  0  0  0  0
  190.8830  176.0960  144.9710 C   0  0  0  0  0  0  0  0  0  0  0  0
  187.1830  175.9620  142.2610 C   0  0  0  0  0  2  0  0  0  0  0  0
  187.0760  176.8870  141.0620 C   0  0  0  0  0  2  0  0  0  0  0  0
  183.9500  178.2890  141.3280 N   0  0  0  0  0  0  0  0  0  0  0  0
  185.6840  177.9950  142.8160 C   0  0  0  0  0  2  0  0  0  0  0  0
  186.2990  178.1380  141.4280 C   0  0  2  0  0  3  0  0  0  0  0  0
  184.2280  178.1320  142.5620 C   0  0  0  0  0  3  0  0  0  0  0  0
  185.1110  178.2950  140.4860 C   0  0  0  0  0  2  0  0  0  0  0  0
  1 26  2  0  0  0  0
  3  7  1  6  0  0  0
  3 19  1  0  0  0  0
  3 16  1  0  0  0  0
  4 23  1  0  0  0  0
  5 11  1  1  0  0  0
  5 15  1  0  0  0  0
  7  6  1  0  0  0  0
  9 27  2  0  0  0  0
 10 17  1  0  0  0  0
 10 22  1  0  0  0  0
 11 20  1  0  0  0  0
 12  8  1  0  0  0  0
 13  9  1  0  0  0  0
 13 20  2  0  0  0  0
 14  2  2  0  0  0  0
 15 12  1  6  0  0  0
 15  4  1  0  0  0  0
 16  8  1  0  0  0  0
 17 25  1  0  0  0  0
 18  1  1  0  0  0  0
 18  4  2  0  0  0  0
 19  6  1  6  0  0  0
 19  5  1  0  0  0  0
 20 18  1  0  0  0  0
 22 24  1  0  0  0  0
 23 21  2  0  0  0  0
 24 13  1  0  0  0  0
 25  9  1  0  0  0  0
 25 14  1  6  0  0  0
 26 21  1  0  0  0  0
 27  2  1  0  0  0  0
 27  1  1  0  0  0  0
 28 17  1  0  0  0  0
 29 28  1  0  0  0  0
 30 33  2  0  0  0  0
 32 29  1  6  0  0  0
 32 31  1  0  0  0  0
 33 31  1  0  0  0  0
 34 30  1  0  0  0  0
 34 32  1  0  0  0  0
M  END
>  <MODEL>
7

>  <REMARK>
 VINA RESULT:      -8.3      2.992      9.211
  Name = 
  3 active torsions:
  status: ('A' for Active; 'I' for Inactive)
    1  A    between atoms: N_17  and  C_28
    2  A    between atoms: C_28  and  C_29
    3  A    between atoms: C_29  and  C_32
                            x       y       z     vdW  Elec       q    Type
                         _______ _______ _______ _____ _____    ______ ____

>  <TORSDO>
F 3

$$$$
=
 OpenBabel11112417553D

 34 41  0  0  1  0  0  0  0  0999 V2000
  189.7590  174.7640  142.0570 C   0  0  0  0  0  0  0  0  0  0  0  0
  187.2700  175.3470  142.3220 C   0  0  0  0  0  3  0  0  0  0  0  0
  195.6700  173.6880  144.5550 C   0  0  2  0  0  3  0  0  0  0  0  0
  192.1530  174.2690  141.9250 C   0  0  0  0  0  0  0  0  0  0  0  0
  193.5690  174.7420  143.9570 C   0  0  1  0  0  3  0  0  0  0  0  0
  195.2660  175.3120  145.8660 C   0  0  0  0  0  2  0  0  0  0  0  0
  196.1820  174.0940  145.9180 C   0  0  0  0  0  2  0  0  0  0  0  0
  195.9710  173.6010  142.0520 C   0  0  0  0  0  2  0  0  0  0  0  0
  188.9010  176.1390  143.8470 C   0  0  0  0  0  0  0  0  0  0  0  0
  188.3480  176.3030  146.6880 C   0  0  0  0  0  2  0  0  0  0  0  0
  192.6860  175.9520  144.2240 C   0  0  0  0  0  2  0  0  0  0  0  0
  194.4730  173.2320  142.0590 C   0  0  0  0  0  2  0  0  0  0  0  0
  190.1910  176.3320  144.3790 C   0  0  0  0  0  0  0  0  0  0  0  0
  186.5780  176.2750  143.3220 C   0  0  0  0  0  3  0  0  0  0  0  0
  193.5710  174.4330  142.4370 C   0  0  1  0  0  3  0  0  0  0  0  0
  196.6680  173.4940  143.4290 C   0  0  0  0  0  2  0  0  0  0  0  0
  187.2710  176.1690  145.6900 N   0  0  0  0  0  0  0  0  0  0  0  0
  191.0720  174.9190  142.5710 C   0  0  0  0  0  0  0  0  0  0  0  0
  194.9920  175.0230  144.4010 C   0  0  1  0  0  3  0  0  0  0  0  0
  191.2840  175.7100  143.7310 C   0  0  0  0  0  0  0  0  0  0  0  0
  190.6160  173.4080  140.2430 C   0  0  0  0  0  3  0  0  0  0  0  0
  189.2300  177.5320  146.4650 C   0  0  0  0  0  2  0  0  0  0  0  0
  191.9100  173.5410  140.7490 C   0  0  0  0  0  3  0  0  0  0  0  0
  190.4480  177.1910  145.6030 C   0  0  0  0  0  2  0  0  0  0  0  0
  187.6220  176.7110  144.3640 C   0  0  1  0  0  3  0  0  0  0  0  0
  189.5440  174.0110  140.8980 C   0  0  0  0  0  3  0  0  0  0  0  0
  188.6960  175.3860  142.7180 C   0  0  0  0  0  0  0  0  0  0  0  0
  186.1370  176.9320  146.1970 C   0  0  0  0  0  2  0  0  0  0  0  0
  186.5410  178.3820  146.3980 C   0  0  0  0  0  2  0  0  0  0  0  0
  184.7410  179.3790  143.6460 N   0  0  0  0  0  0  0  0  0  0  0  0
  184.1450  178.5430  145.7080 C   0  0  0  0  0  2  0  0  0  0  0  0
  185.4510  179.3090  145.8910 C   0  0  2  0  0  3  0  0  0  0  0  0
  183.8490  178.7100  144.2640 C   0  0  0  0  0  3  0  0  0  0  0  0
  185.8130  179.8070  144.4970 C   0  0  0  0  0  2  0  0  0  0  0  0
  1 18  2  0  0  0  0
  1 27  1  0  0  0  0
  2 27  1  0  0  0  0
  2 14  2  0  0  0  0
  3 16  1  6  0  0  0
  3  7  1  0  0  0  0
  4 15  1  0  0  0  0
  4 18  1  0  0  0  0
  5 11  1  6  0  0  0
  5 19  1  0  0  0  0
  6  7  1  0  0  0  0
  8 12  1  0  0  0  0
  8 16  1  0  0  0  0
  9 25  1  0  0  0  0
  9 13  1  0  0  0  0
 13 24  1  0  0  0  0
 15 12  1  1  0  0  0
 15  5  1  0  0  0  0
 17 28  1  0  0  0  0
 17 10  1  0  0  0  0
 18 20  1  0  0  0  0
 19  3  1  0  0  0  0
 19  6  1  1  0  0  0
 20 11  1  0  0  0  0
 20 13  2  0  0  0  0
 21 23  1  0  0  0  0
 21 26  2  0  0  0  0
 22 10  1  0  0  0  0
 23  4  2  0  0  0  0
 24 22  1  0  0  0  0
 25 14  1  6  0  0  0
 25 17  1  0  0  0  0
 26  1  1  0  0  0  0
 27  9  2  0  0  0  0
 28 29  1  0  0  0  0
 30 33  2  0  0  0  0
 30 34  1  0  0  0  0
 31 32  1  0  0  0  0
 32 29  1  6  0  0  0
 33 31  1  0  0  0  0
 34 32  1  0  0  0  0
M  END
>  <MODEL>
8

>  <REMARK>
 VINA RESULT:      -8.1      2.541      8.259
  Name = 
  3 active torsions:
  status: ('A' for Active; 'I' for Inactive)
    1  A    between atoms: N_17  and  C_28
    2  A    between atoms: C_28  and  C_29
    3  A    between atoms: C_29  and  C_32
                            x       y       z     vdW  Elec       q    Type
                         _______ _______ _______ _____ _____    ______ ____

>  <TORSDO>
F 3

$$$$
=
 OpenBabel11112417553D

 34 41  0  0  1  0  0  0  0  0999 V2000
  190.0010  176.6820  146.6040 C   0  0  0  0  0  0  0  0  0  0  0  0
  187.5570  177.4750  146.6500 C   0  0  0  0  0  3  0  0  0  0  0  0
  195.3870  174.9560  143.3870 C   0  0  2  0  0  3  0  0  0  0  0  0
  192.3080  175.8810  146.4350 C   0  0  0  0  0  0  0  0  0  0  0  0
  193.1020  175.0360  144.1970 C   0  0  1  0  0  3  0  0  0  0  0  0
  194.0950  173.9490  142.0320 C   0  0  0  0  0  2  0  0  0  0  0  0
  195.5000  174.5340  141.9400 C   0  0  0  0  0  2  0  0  0  0  0  0
  195.8970  174.5450  145.8230 C   0  0  0  0  0  2  0  0  0  0  0  0
  188.4110  176.1800  144.8590 C   0  0  0  0  0  0  0  0  0  0  0  0
  187.6180  176.6980  142.1190 C   0  0  0  0  0  2  0  0  0  0  0  0
  191.7020  174.4830  143.9690 C   0  0  0  0  0  2  0  0  0  0  0  0
  194.8100  175.6150  146.0530 C   0  0  0  0  0  2  0  0  0  0  0  0
  189.3660  175.4360  144.1390 C   0  0  0  0  0  0  0  0  0  0  0  0
  186.4040  177.1640  145.6930 C   0  0  0  0  0  3  0  0  0  0  0  0
  193.3900  175.0960  145.7190 C   0  0  1  0  0  3  0  0  0  0  0  0
  196.4320  174.4690  144.3740 C   0  0  0  0  0  2  0  0  0  0  0  0
  186.8520  177.2210  143.2650 N   0  0  0  0  0  0  0  0  0  0  0  0
  190.9980  175.9580  145.9020 C   0  0  0  0  0  0  0  0  0  0  0  0
  194.1330  174.1380  143.5380 C   0  0  1  0  0  3  0  0  0  0  0  0
  190.6730  175.3300  144.6700 C   0  0  0  0  0  0  0  0  0  0  0  0
  191.5830  177.1670  148.3730 C   0  0  0  0  0  3  0  0  0  0  0  0
  187.7540  175.1740  142.1280 C   0  0  0  0  0  2  0  0  0  0  0  0
  192.5750  176.4680  147.6830 C   0  0  0  0  0  3  0  0  0  0  0  0
  189.0400  174.7380  142.8330 C   0  0  0  0  0  2  0  0  0  0  0  0
  186.9820  176.4050  144.4860 C   0  0  1  0  0  3  0  0  0  0  0  0
  190.3030  177.2790  147.8340 C   0  0  0  0  0  3  0  0  0  0  0  0
  188.7190  176.7760  146.0560 C   0  0  0  0  0  0  0  0  0  0  0  0
  185.4490  177.2090  142.8680 C   0  0  0  0  0  2  0  0  0  0  0  0
  185.3300  177.5470  141.3920 C   0  0  0  0  0  2  0  0  0  0  0  0
  181.9650  177.9180  140.8010 N   0  0  0  0  0  0  0  0  0  0  0  0
  183.3800  178.7070  142.4390 C   0  0  0  0  0  2  0  0  0  0  0  0
  184.2060  178.5430  141.1680 C   0  0  2  0  0  3  0  0  0  0  0  0
  182.0190  178.2910  142.0190 C   0  0  0  0  0  3  0  0  0  0  0  0
  183.2330  177.9900  140.1340 C   0  0  0  0  0  2  0  0  0  0  0  0
  1 26  2  0  0  0  0
  3  7  1  6  0  0  0
  3 19  1  0  0  0  0
  3 16  1  0  0  0  0
  4 23  1  0  0  0  0
  5 11  1  1  0  0  0
  5 15  1  0  0  0  0
  7  6  1  0  0  0  0
  8 12  1  0  0  0  0
  9 27  2  0  0  0  0
 10 22  1  0  0  0  0
 10 17  1  0  0  0  0
 11 20  1  0  0  0  0
 13 20  2  0  0  0  0
 13  9  1  0  0  0  0
 14  2  2  0  0  0  0
 15 12  1  6  0  0  0
 15  4  1  0  0  0  0
 16  8  1  0  0  0  0
 17 25  1  0  0  0  0
 18  4  2  0  0  0  0
 18  1  1  0  0  0  0
 19  6  1  6  0  0  0
 19  5  1  0  0  0  0
 20 18  1  0  0  0  0
 22 24  1  0  0  0  0
 23 21  2  0  0  0  0
 24 13  1  0  0  0  0
 25  9  1  0  0  0  0
 25 14  1  1  0  0  0
 26 21  1  0  0  0  0
 27  1  1  0  0  0  0
 27  2  1  0  0  0  0
 28 17  1  0  0  0  0
 29 28  1  0  0  0  0
 30 33  2  0  0  0  0
 32 29  1  1  0  0  0
 32 31  1  0  0  0  0
 33 31  1  0  0  0  0
 34 30  1  0  0  0  0
 34 32  1  0  0  0  0
M  END
>  <MODEL>
9

>  <REMARK>
 VINA RESULT:      -8.1      2.998      9.167
  Name = 
  3 active torsions:
  status: ('A' for Active; 'I' for Inactive)
    1  A    between atoms: N_17  and  C_28
    2  A    between atoms: C_28  and  C_29
    3  A    between atoms: C_29  and  C_32
                            x       y       z     vdW  Elec       q    Type
                         _______ _______ _______ _____ _____    ______ ____

>  <TORSDO>
F 3

$$$$
