=
 OpenBabel11112417173D

 37 43  0  0  1  0  0  0  0  0999 V2000
  192.3620  174.1970  140.7080 C   0  0  0  0  0  3  0  0  0  0  0  0
  195.5110  175.7410  143.0480 C   0  0  0  0  0  0  0  0  0  0  0  0
  191.9280  175.9720  144.9660 C   0  0  0  0  0  0  0  0  0  0  0  0
  191.8810  173.3270  139.6760 N   0  0  0  0  0  0  0  0  0  0  0  0
  190.4160  172.7580  144.4490 S   0  0  0  0  0  0  0  0  0  0  0  0
  194.2940  176.8820  145.0640 C   0  0  1  0  0  3  0  0  0  0  0  0
  191.1500  175.3740  143.9840 C   0  0  0  0  0  0  0  0  0  0  0  0
  190.4410  171.4800  140.5320 C   0  0  2  0  0  3  0  0  0  0  0  0
  193.0820  176.3860  144.3370 C   0  0  0  0  0  0  0  0  0  0  0  0
  189.9390  174.4960  144.1640 C   0  0  2  0  0  3  0  0  0  0  0  0
  194.3400  176.2850  146.4730 C   0  0  0  0  0  2  0  0  0  0  0  0
  190.5230  172.7790  139.7220 C   0  0  0  0  0  2  0  0  0  0  0  0
  193.0780  176.0350  143.0440 N   0  0  0  0  0  0  0  0  0  0  0  0
  195.4740  174.2850  143.4840 C   0  0  0  0  0  1  0  0  0  0  0  0
  190.5120  176.2460  146.9800 C   0  0  0  0  0  2  0  0  0  0  0  0
  192.9910  176.5060  147.1760 C   0  0  0  0  0  2  0  0  0  0  0  0
  194.2700  176.0690  142.2040 C   0  0  0  0  0  2  0  0  0  0  0  0
  190.8470  171.6240  141.9990 C   0  0  1  0  0  3  0  0  0  0  0  0
  189.7570  172.1720  142.8500 C   0  0  1  0  0  3  0  0  0  0  0  0
  191.8490  175.7720  146.4520 C   0  0  2  0  0  3  0  0  0  0  0  0
  191.8960  175.4230  142.8160 C   0  0  0  0  0  0  0  0  0  0  0  0
  195.6070  176.6550  144.2870 C   0  0  0  0  0  2  0  0  0  0  0  0
  188.8880  174.9930  145.1660 C   0  0  1  0  0  3  0  0  0  0  0  0
  196.7430  175.9520  142.1950 C   0  0  0  0  0  1  0  0  0  0  0  0
  190.0100  170.7910  142.7630 O   0  0  0  0  0  0  0  0  0  0  0  0
  191.2020  170.4950  139.9320 F   0  0  0  0  0  0  0  0  0  0  0  0
  191.5280  174.6390  141.6380 C   0  0  0  0  0  3  0  0  0  0  0  0
  189.3160  174.8770  146.9470 S   0  0  0  0  0  0  0  0  0  0  0  0
  188.3340  176.7460  143.4750 C   0  0  0  0  0  3  0  0  0  0  0  0
  188.1740  176.2530  144.7750 C   0  0  0  0  0  0  0  0  0  0  0  0
  187.3470  176.9370  145.6760 C   0  0  0  0  0  3  0  0  0  0  0  0
  185.6630  178.9540  146.4170 Cl  0  0  0  0  0  0  0  0  0  0  0  0
  186.8560  178.5970  143.9840 C   0  0  0  0  0  3  0  0  0  0  0  0
  186.6910  178.1060  145.2820 C   0  0  0  0  0  0  0  0  0  0  0  0
  187.6780  177.9160  143.0800 C   0  0  0  0  0  3  0  0  0  0  0  0
  192.0230  172.6830  137.3280 C   0  0  0  0  0  1  0  0  0  0  0  0
  192.7860  172.8930  138.6240 C   0  0  0  0  0  2  0  0  0  0  0  0
  1 27  2  0  0  0  0
  2 14  1  0  0  0  0
  2 22  1  0  0  0  0
  3 20  1  0  0  0  0
  4 12  1  0  0  0  0
  4  1  1  0  0  0  0
  6 22  1  6  0  0  0
  6 11  1  0  0  0  0
  7  3  1  0  0  0  0
  8 26  1  6  0  0  0
  8 18  1  0  0  0  0
  9  3  2  0  0  0  0
  9  6  1  0  0  0  0
 10  7  1  1  0  0  0
 10  5  1  0  0  0  0
 10 23  1  0  0  0  0
 11 16  1  0  0  0  0
 12  8  1  0  0  0  0
 13  9  1  0  0  0  0
 17 13  1  0  0  0  0
 17  2  1  0  0  0  0
 18 25  1  1  0  0  0
 18 19  1  0  0  0  0
 19 25  1  1  0  0  0
 19  5  1  0  0  0  0
 20 15  1  1  0  0  0
 20 16  1  0  0  0  0
 21 13  1  0  0  0  0
 21  7  2  0  0  0  0
 23 30  1  6  0  0  0
 23 28  1  0  0  0  0
 24  2  1  0  0  0  0
 27 21  1  0  0  0  0
 28 15  1  0  0  0  0
 29 30  1  0  0  0  0
 30 31  2  0  0  0  0
 33 34  2  0  0  0  0
 34 31  1  0  0  0  0
 34 32  1  0  0  0  0
 35 29  2  0  0  0  0
 35 33  1  0  0  0  0
 36 37  1  0  0  0  0
 37  4  1  0  0  0  0
M  END
>  <MODEL>
1

>  <REMARK>
 VINA RESULT:      -8.8      0.000      0.000
  Name = 
  2 active torsions:
  status: ('A' for Active; 'I' for Inactive)
    1  A    between atoms: N_4  and  C_37
    2  A    between atoms: C_23  and  C_30
                            x       y       z     vdW  Elec       q    Type
                         _______ _______ _______ _____ _____    ______ ____

>  <TORSDO>
F 2

$$$$
=
 OpenBabel11112417173D

 37 43  0  0  1  0  0  0  0  0999 V2000
  192.2320  173.0280  144.7190 C   0  0  0  0  0  3  0  0  0  0  0  0
  190.5720  171.4900  141.1630 C   0  0  0  0  0  0  0  0  0  0  0  0
  188.8620  175.0220  142.2440 C   0  0  0  0  0  0  0  0  0  0  0  0
  193.3220  173.1420  145.6430 N   0  0  0  0  0  0  0  0  0  0  0  0
  191.6270  177.1390  143.1110 S   0  0  0  0  0  0  0  0  0  0  0  0
  188.4980  173.0240  140.7230 C   0  0  1  0  0  3  0  0  0  0  0  0
  189.6260  175.2630  143.3770 C   0  0  0  0  0  0  0  0  0  0  0  0
  194.3340  175.4210  145.6990 C   0  0  2  0  0  3  0  0  0  0  0  0
  188.9800  173.6740  141.9830 C   0  0  0  0  0  0  0  0  0  0  0  0
  190.0890  176.5880  143.9220 C   0  0  2  0  0  3  0  0  0  0  0  0
  188.4800  174.0440  139.5830 C   0  0  0  0  0  2  0  0  0  0  0  0
  193.5130  174.3580  146.4380 C   0  0  0  0  0  2  0  0  0  0  0  0
  189.8080  173.0860  142.8580 N   0  0  0  0  0  0  0  0  0  0  0  0
  191.6920  172.3730  140.6360 C   0  0  0  0  0  1  0  0  0  0  0  0
  187.5230  177.0580  141.7990 C   0  0  0  0  0  2  0  0  0  0  0  0
  187.7240  175.3080  140.0250 C   0  0  0  0  0  2  0  0  0  0  0  0
  190.3580  171.7500  142.6610 C   0  0  0  0  0  2  0  0  0  0  0  0
  193.7050  175.9100  144.3940 C   0  0  1  0  0  3  0  0  0  0  0  0
  192.6520  176.9380  144.6090 C   0  0  1  0  0  3  0  0  0  0  0  0
  188.4320  176.0090  141.1970 C   0  0  2  0  0  3  0  0  0  0  0  0
  190.2010  174.0480  143.7210 C   0  0  0  0  0  0  0  0  0  0  0  0
  189.2810  171.7460  140.3570 C   0  0  0  0  0  2  0  0  0  0  0  0
  189.0290  177.6960  143.9950 C   0  0  1  0  0  3  0  0  0  0  0  0
  190.9770  170.0440  140.9770 C   0  0  0  0  0  1  0  0  0  0  0  0
  193.9730  177.2860  144.2740 O   0  0  0  0  0  0  0  0  0  0  0  0
  195.6110  174.9510  145.4540 F   0  0  0  0  0  0  0  0  0  0  0  0
  191.2950  173.9640  144.6880 C   0  0  0  0  0  3  0  0  0  0  0  0
  188.5120  178.4570  142.4060 S   0  0  0  0  0  0  0  0  0  0  0  0
  188.1140  176.5540  146.0190 C   0  0  0  0  0  3  0  0  0  0  0  0
  187.9120  177.4510  144.9650 C   0  0  0  0  0  0  0  0  0  0  0  0
  186.6780  178.1080  144.8440 C   0  0  0  0  0  3  0  0  0  0  0  0
  184.1210  178.6870  145.6020 Cl  0  0  0  0  0  0  0  0  0  0  0  0
  185.8620  176.9640  146.8140 C   0  0  0  0  0  3  0  0  0  0  0  0
  185.6570  177.8640  145.7650 C   0  0  0  0  0  0  0  0  0  0  0  0
  187.0910  176.3090  146.9410 C   0  0  0  0  0  3  0  0  0  0  0  0
  193.9560  170.9580  144.7640 C   0  0  0  0  0  1  0  0  0  0  0  0
  194.3150  172.0840  145.7170 C   0  0  0  0  0  2  0  0  0  0  0  0
  1  4  1  0  0  0  0
  2 17  1  0  0  0  0
  3  7  1  0  0  0  0
  4 37  1  0  0  0  0
  4 12  1  0  0  0  0
  6 11  1  6  0  0  0
  6  9  1  0  0  0  0
  7 21  2  0  0  0  0
  7 10  1  0  0  0  0
  8 26  1  6  0  0  0
  8 12  1  0  0  0  0
  9  3  2  0  0  0  0
  9 13  1  0  0  0  0
 10  5  1  6  0  0  0
 10 23  1  0  0  0  0
 11 16  1  0  0  0  0
 13 21  1  0  0  0  0
 14  2  1  0  0  0  0
 15 28  1  0  0  0  0
 17 13  1  0  0  0  0
 18 25  1  6  0  0  0
 18 19  1  0  0  0  0
 18  8  1  0  0  0  0
 19  5  1  6  0  0  0
 20 16  1  6  0  0  0
 20 15  1  0  0  0  0
 20  3  1  0  0  0  0
 21 27  1  0  0  0  0
 22  6  1  0  0  0  0
 22  2  1  0  0  0  0
 23 30  1  6  0  0  0
 24  2  1  0  0  0  0
 25 19  1  0  0  0  0
 27  1  2  0  0  0  0
 28 23  1  0  0  0  0
 29 35  1  0  0  0  0
 30 29  2  0  0  0  0
 31 30  1  0  0  0  0
 31 34  2  0  0  0  0
 32 34  1  0  0  0  0
 33 35  2  0  0  0  0
 34 33  1  0  0  0  0
 36 37  1  0  0  0  0
M  END
>  <MODEL>
2

>  <REMARK>
 VINA RESULT:      -8.2      2.969      5.803
  Name = 
  2 active torsions:
  status: ('A' for Active; 'I' for Inactive)
    1  A    between atoms: N_4  and  C_37
    2  A    between atoms: C_23  and  C_30
                            x       y       z     vdW  Elec       q    Type
                         _______ _______ _______ _____ _____    ______ ____

>  <TORSDO>
F 2

$$$$
=
 OpenBabel11112417173D

 37 43  0  0  1  0  0  0  0  0999 V2000
  189.7350  173.1970  143.1810 C   0  0  0  0  0  3  0  0  0  0  0  0
  189.7520  176.3290  146.0020 C   0  0  0  0  0  0  0  0  0  0  0  0
  193.4150  174.5960  145.6220 C   0  0  0  0  0  0  0  0  0  0  0  0
  189.1910  172.5690  142.0130 N   0  0  0  0  0  0  0  0  0  0  0  0
  193.9110  174.2940  142.0810 S   0  0  0  0  0  0  0  0  0  0  0  0
  192.0910  176.1220  147.1580 C   0  0  1  0  0  3  0  0  0  0  0  0
  193.0870  173.6760  144.6370 C   0  0  0  0  0  0  0  0  0  0  0  0
  190.7440  172.6000  140.0620 C   0  0  2  0  0  3  0  0  0  0  0  0
  192.2240  174.9780  146.2000 C   0  0  0  0  0  0  0  0  0  0  0  0
  193.9520  173.1670  143.5140 C   0  0  2  0  0  3  0  0  0  0  0  0
  193.2030  177.1430  146.9100 C   0  0  0  0  0  2  0  0  0  0  0  0
  190.0340  171.7590  141.1290 C   0  0  0  0  0  2  0  0  0  0  0  0
  191.1850  174.3840  145.5970 N   0  0  0  0  0  0  0  0  0  0  0  0
  190.1340  177.0530  144.7210 C   0  0  0  0  0  1  0  0  0  0  0  0
  195.8750  174.5410  145.9090 C   0  0  0  0  0  2  0  0  0  0  0  0
  194.5660  176.4330  146.8880 C   0  0  0  0  0  2  0  0  0  0  0  0
  189.8030  174.8100  145.7840 C   0  0  0  0  0  2  0  0  0  0  0  0
  191.6870  173.6660  140.6210 C   0  0  1  0  0  3  0  0  0  0  0  0
  193.0140  173.1200  141.0090 C   0  0  1  0  0  3  0  0  0  0  0  0
  194.6620  175.4270  145.7280 C   0  0  2  0  0  3  0  0  0  0  0  0
  191.7040  173.5780  144.6450 C   0  0  0  0  0  0  0  0  0  0  0  0
  190.6890  176.7650  147.1480 C   0  0  0  0  0  2  0  0  0  0  0  0
  195.3800  172.7500  143.8980 C   0  0  1  0  0  3  0  0  0  0  0  0
  188.3350  176.7170  146.3640 C   0  0  0  0  0  1  0  0  0  0  0  0
  192.8020  173.7470  139.7680 O   0  0  0  0  0  0  0  0  0  0  0  0
  189.8160  173.1900  139.2250 F   0  0  0  0  0  0  0  0  0  0  0  0
  190.9750  172.9240  143.5580 C   0  0  0  0  0  3  0  0  0  0  0  0
  196.5630  174.0990  144.2860 S   0  0  0  0  0  0  0  0  0  0  0  0
  196.5720  171.4430  145.6610 C   0  0  0  0  0  3  0  0  0  0  0  0
  195.4780  171.5530  144.7950 C   0  0  0  0  0  0  0  0  0  0  0  0
  194.4970  170.5510  144.7930 C   0  0  0  0  0  3  0  0  0  0  0  0
  193.3840  168.2030  145.6280 Cl  0  0  0  0  0  0  0  0  0  0  0  0
  195.7090  169.3420  146.5030 C   0  0  0  0  0  3  0  0  0  0  0  0
  194.6130  169.4490  145.6430 C   0  0  0  0  0  0  0  0  0  0  0  0
  196.6890  170.3400  146.5120 C   0  0  0  0  0  3  0  0  0  0  0  0
  187.4190  174.2440  142.0080 C   0  0  0  0  0  1  0  0  0  0  0  0
  187.8110  172.8250  141.6370 C   0  0  0  0  0  2  0  0  0  0  0  0
  1 27  2  0  0  0  0
  2 24  1  0  0  0  0
  2 22  1  0  0  0  0
  3 20  1  0  0  0  0
  3  9  2  0  0  0  0
  4  1  1  0  0  0  0
  6 11  1  6  0  0  0
  7 21  2  0  0  0  0
  7  3  1  0  0  0  0
  8 26  1  1  0  0  0
  8 18  1  0  0  0  0
  8 12  1  0  0  0  0
  9  6  1  0  0  0  0
 10  5  1  6  0  0  0
 10 23  1  0  0  0  0
 10  7  1  0  0  0  0
 12  4  1  0  0  0  0
 13 17  1  0  0  0  0
 13  9  1  0  0  0  0
 14  2  1  0  0  0  0
 16 11  1  0  0  0  0
 17  2  1  0  0  0  0
 18 25  1  6  0  0  0
 18 19  1  0  0  0  0
 19 25  1  6  0  0  0
 19  5  1  0  0  0  0
 20 15  1  1  0  0  0
 20 16  1  0  0  0  0
 21 13  1  0  0  0  0
 22  6  1  0  0  0  0
 23 28  1  0  0  0  0
 23 30  1  1  0  0  0
 27 21  1  0  0  0  0
 28 15  1  0  0  0  0
 29 35  1  0  0  0  0
 30 29  2  0  0  0  0
 31 30  1  0  0  0  0
 31 34  2  0  0  0  0
 32 34  1  0  0  0  0
 33 35  2  0  0  0  0
 34 33  1  0  0  0  0
 37 36  1  0  0  0  0
 37  4  1  0  0  0  0
M  END
>  <MODEL>
3

>  <REMARK>
 VINA RESULT:      -8.0      3.627      6.482
  Name = 
  2 active torsions:
  status: ('A' for Active; 'I' for Inactive)
    1  A    between atoms: N_4  and  C_37
    2  A    between atoms: C_23  and  C_30
                            x       y       z     vdW  Elec       q    Type
                         _______ _______ _______ _____ _____    ______ ____

>  <TORSDO>
F 2

$$$$
=
 OpenBabel11112417173D

 37 43  0  0  1  0  0  0  0  0999 V2000
  194.5080  172.1630  144.3060 C   0  0  0  0  0  3  0  0  0  0  0  0
  192.4520  170.2880  141.1400 C   0  0  0  0  0  0  0  0  0  0  0  0
  190.5490  173.6520  142.4170 C   0  0  0  0  0  0  0  0  0  0  0  0
  195.7200  172.4410  145.0190 N   0  0  0  0  0  0  0  0  0  0  0  0
  193.1520  176.1020  142.7260 S   0  0  0  0  0  0  0  0  0  0  0  0
  190.1660  171.5580  141.0350 C   0  0  1  0  0  3  0  0  0  0  0  0
  191.4630  174.0280  143.3900 C   0  0  0  0  0  0  0  0  0  0  0  0
  196.4500  174.8190  144.8360 C   0  0  2  0  0  3  0  0  0  0  0  0
  190.7780  172.3150  142.1730 C   0  0  0  0  0  0  0  0  0  0  0  0
  191.8540  175.4200  143.8100 C   0  0  2  0  0  3  0  0  0  0  0  0
  189.8310  172.5160  139.8900 C   0  0  0  0  0  2  0  0  0  0  0  0
  195.9000  173.7060  145.7370 C   0  0  0  0  0  2  0  0  0  0  0  0
  191.8090  171.8640  142.9020 N   0  0  0  0  0  0  0  0  0  0  0  0
  193.3510  171.2650  140.4010 C   0  0  0  0  0  1  0  0  0  0  0  0
  188.9220  175.5020  142.1640 C   0  0  0  0  0  2  0  0  0  0  0  0
  189.0190  173.7060  140.4270 C   0  0  0  0  0  2  0  0  0  0  0  0
  192.4710  170.5900  142.6450 C   0  0  0  0  0  2  0  0  0  0  0  0
  195.5510  175.1740  143.6520 C   0  0  1  0  0  3  0  0  0  0  0  0
  194.4370  176.0860  144.0230 C   0  0  1  0  0  3  0  0  0  0  0  0
  189.8310  174.5350  141.4370 C   0  0  2  0  0  3  0  0  0  0  0  0
  192.2290  172.9030  143.6570 C   0  0  0  0  0  0  0  0  0  0  0  0
  191.0200  170.3600  140.5690 C   0  0  0  0  0  2  0  0  0  0  0  0
  190.6980  176.4050  144.0410 C   0  0  1  0  0  3  0  0  0  0  0  0
  192.9870  168.8890  140.9230 C   0  0  0  0  0  1  0  0  0  0  0  0
  195.6300  176.5640  143.4510 O   0  0  0  0  0  0  0  0  0  0  0  0
  197.7110  174.4840  144.3820 F   0  0  0  0  0  0  0  0  0  0  0  0
  193.4750  172.9860  144.4170 C   0  0  0  0  0  3  0  0  0  0  0  0
  189.8290  177.0290  142.5500 S   0  0  0  0  0  0  0  0  0  0  0  0
  190.2210  175.1280  146.1340 C   0  0  0  0  0  3  0  0  0  0  0  0
  189.8020  176.0820  145.1990 C   0  0  0  0  0  0  0  0  0  0  0  0
  188.5660  176.7200  145.3700 C   0  0  0  0  0  3  0  0  0  0  0  0
  186.2100  177.2020  146.6620 Cl  0  0  0  0  0  0  0  0  0  0  0  0
  188.1740  175.4460  147.3900 C   0  0  0  0  0  3  0  0  0  0  0  0
  187.7540  176.4020  146.4610 C   0  0  0  0  0  0  0  0  0  0  0  0
  189.4080  174.8090  147.2260 C   0  0  0  0  0  3  0  0  0  0  0  0
  196.7840  170.5400  146.1130 C   0  0  0  0  0  1  0  0  0  0  0  0
  196.8290  171.5050  144.9430 C   0  0  0  0  0  2  0  0  0  0  0  0
  1 27  2  0  0  0  0
  1  4  1  0  0  0  0
  2 17  1  0  0  0  0
  3  7  1  0  0  0  0
  4 12  1  0  0  0  0
  6 11  1  6  0  0  0
  6  9  1  0  0  0  0
  7 21  2  0  0  0  0
  7 10  1  0  0  0  0
  8 26  1  6  0  0  0
  8 12  1  0  0  0  0
  9  3  2  0  0  0  0
  9 13  1  0  0  0  0
 10  5  1  6  0  0  0
 10 23  1  0  0  0  0
 11 16  1  0  0  0  0
 13 21  1  0  0  0  0
 14  2  1  0  0  0  0
 15 28  1  0  0  0  0
 17 13  1  0  0  0  0
 18 25  1  6  0  0  0
 18 19  1  0  0  0  0
 18  8  1  0  0  0  0
 19  5  1  6  0  0  0
 20 16  1  6  0  0  0
 20 15  1  0  0  0  0
 20  3  1  0  0  0  0
 21 27  1  0  0  0  0
 22  6  1  0  0  0  0
 22  2  1  0  0  0  0
 23 30  1  1  0  0  0
 24  2  1  0  0  0  0
 25 19  1  0  0  0  0
 28 23  1  0  0  0  0
 29 35  1  0  0  0  0
 30 31  1  0  0  0  0
 30 29  2  0  0  0  0
 31 34  2  0  0  0  0
 34 32  1  0  0  0  0
 34 33  1  0  0  0  0
 35 33  2  0  0  0  0
 37  4  1  0  0  0  0
 37 36  1  0  0  0  0
M  END
>  <MODEL>
4

>  <REMARK>
 VINA RESULT:      -7.9      3.096      5.938
  Name = 
  2 active torsions:
  status: ('A' for Active; 'I' for Inactive)
    1  A    between atoms: N_4  and  C_37
    2  A    between atoms: C_23  and  C_30
                            x       y       z     vdW  Elec       q    Type
                         _______ _______ _______ _____ _____    ______ ____

>  <TORSDO>
F 2

$$$$
=
 OpenBabel11112417173D

 37 43  0  0  1  0  0  0  0  0999 V2000
  190.4320  173.9080  141.5010 C   0  0  0  0  0  3  0  0  0  0  0  0
  190.1800  176.9120  144.4470 C   0  0  0  0  0  0  0  0  0  0  0  0
  193.5230  174.6300  144.8760 C   0  0  0  0  0  0  0  0  0  0  0  0
  190.1220  173.4090  140.1940 N   0  0  0  0  0  0  0  0  0  0  0  0
  194.8650  174.3570  141.5590 S   0  0  0  0  0  0  0  0  0  0  0  0
  192.0850  176.3000  146.1340 C   0  0  1  0  0  3  0  0  0  0  0  0
  193.3290  173.8030  143.7790 C   0  0  0  0  0  0  0  0  0  0  0  0
  192.1130  173.2500  138.7000 C   0  0  2  0  0  3  0  0  0  0  0  0
  192.2910  175.1790  145.1630 C   0  0  0  0  0  0  0  0  0  0  0  0
  194.3700  173.1960  142.8760 C   0  0  2  0  0  3  0  0  0  0  0  0
  193.3610  177.1380  146.2430 C   0  0  0  0  0  2  0  0  0  0  0  0
  191.0370  172.5020  139.4950 C   0  0  0  0  0  2  0  0  0  0  0  0
  191.3680  174.7760  144.2790 N   0  0  0  0  0  0  0  0  0  0  0  0
  190.9810  177.6030  143.3560 C   0  0  0  0  0  1  0  0  0  0  0  0
  195.7900  174.1740  145.7650 C   0  0  0  0  0  2  0  0  0  0  0  0
  194.5650  176.2220  146.5140 C   0  0  0  0  0  2  0  0  0  0  0  0
  190.0620  175.4110  144.1440 C   0  0  0  0  0  2  0  0  0  0  0  0
  193.0250  174.1350  139.5490 C   0  0  1  0  0  3  0  0  0  0  0  0
  194.1130  173.3730  140.2180 C   0  0  1  0  0  3  0  0  0  0  0  0
  194.8080  175.2480  145.3480 C   0  0  2  0  0  3  0  0  0  0  0  0
  191.9910  173.9260  143.4330 C   0  0  0  0  0  0  0  0  0  0  0  0
  190.8430  177.1590  145.8180 C   0  0  0  0  0  2  0  0  0  0  0  0
  195.5730  172.5460  143.5740 C   0  0  1  0  0  3  0  0  0  0  0  0
  188.7900  177.5100  144.4690 C   0  0  0  0  0  1  0  0  0  0  0  0
  194.3220  174.0630  139.0100 O   0  0  0  0  0  0  0  0  0  0  0  0
  191.5280  174.0050  137.7010 F   0  0  0  0  0  0  0  0  0  0  0  0
  191.4800  173.4300  142.1570 C   0  0  0  0  0  3  0  0  0  0  0  0
  196.8010  173.6770  144.3390 S   0  0  0  0  0  0  0  0  0  0  0  0
  194.1220  170.5730  144.0650 C   0  0  0  0  0  3  0  0  0  0  0  0
  195.2610  171.3220  144.3820 C   0  0  0  0  0  0  0  0  0  0  0  0
  196.0870  170.9090  145.4370 C   0  0  0  0  0  3  0  0  0  0  0  0
  196.8100  169.2580  147.4870 Cl  0  0  0  0  0  0  0  0  0  0  0  0
  194.6340  169.0190  145.8520 C   0  0  0  0  0  3  0  0  0  0  0  0
  195.7730  169.7620  146.1700 C   0  0  0  0  0  0  0  0  0  0  0  0
  193.8080  169.4240  144.7980 C   0  0  0  0  0  3  0  0  0  0  0  0
  188.1910  172.7340  138.8670 C   0  0  0  0  0  1  0  0  0  0  0  0
  188.9380  173.8920  139.5030 C   0  0  0  0  0  2  0  0  0  0  0  0
  1 27  2  0  0  0  0
  2 24  1  0  0  0  0
  2 22  1  0  0  0  0
  3  9  2  0  0  0  0
  3 20  1  0  0  0  0
  4  1  1  0  0  0  0
  6 22  1  6  0  0  0
  6 11  1  0  0  0  0
  7  3  1  0  0  0  0
  8 26  1  6  0  0  0
  8 12  1  0  0  0  0
  8 18  1  0  0  0  0
  9  6  1  0  0  0  0
 10  5  1  6  0  0  0
 10 23  1  0  0  0  0
 10  7  1  0  0  0  0
 11 16  1  0  0  0  0
 12  4  1  0  0  0  0
 13  9  1  0  0  0  0
 14  2  1  0  0  0  0
 17 13  1  0  0  0  0
 17  2  1  0  0  0  0
 18 25  1  6  0  0  0
 18 19  1  0  0  0  0
 19 25  1  6  0  0  0
 19  5  1  0  0  0  0
 20 15  1  1  0  0  0
 20 16  1  0  0  0  0
 21  7  2  0  0  0  0
 21 13  1  0  0  0  0
 23 28  1  0  0  0  0
 23 30  1  1  0  0  0
 27 21  1  0  0  0  0
 28 15  1  0  0  0  0
 29 30  2  0  0  0  0
 29 35  1  0  0  0  0
 30 31  1  0  0  0  0
 31 34  2  0  0  0  0
 33 34  1  0  0  0  0
 34 32  1  0  0  0  0
 35 33  2  0  0  0  0
 36 37  1  0  0  0  0
 37  4  1  0  0  0  0
M  END
>  <MODEL>
5

>  <REMARK>
 VINA RESULT:      -7.4      3.848      6.342
  Name = 
  2 active torsions:
  status: ('A' for Active; 'I' for Inactive)
    1  A    between atoms: N_4  and  C_37
    2  A    between atoms: C_23  and  C_30
                            x       y       z     vdW  Elec       q    Type
                         _______ _______ _______ _____ _____    ______ ____

>  <TORSDO>
F 2

$$$$
=
 OpenBabel11112417173D

 37 43  0  0  1  0  0  0  0  0999 V2000
  193.2810  176.3730  144.0670 C   0  0  0  0  0  3  0  0  0  0  0  0
  189.0710  176.2780  144.2730 C   0  0  0  0  0  0  0  0  0  0  0  0
  190.5050  173.9660  141.2450 C   0  0  0  0  0  0  0  0  0  0  0  0
  194.5590  176.5490  144.6900 N   0  0  0  0  0  0  0  0  0  0  0  0
  193.2140  172.1280  142.7140 S   0  0  0  0  0  0  0  0  0  0  0  0
  188.3620  175.0410  142.0790 C   0  0  1  0  0  3  0  0  0  0  0  0
  191.8570  174.1790  141.4690 C   0  0  0  0  0  0  0  0  0  0  0  0
  195.8910  174.4450  144.8210 C   0  0  2  0  0  3  0  0  0  0  0  0
  189.8460  174.9980  141.8770 C   0  0  0  0  0  0  0  0  0  0  0  0
  192.9960  173.2150  141.2660 C   0  0  2  0  0  3  0  0  0  0  0  0
  187.7970  173.6190  142.1040 C   0  0  0  0  0  2  0  0  0  0  0  0
  195.7430  175.8380  144.1980 C   0  0  0  0  0  2  0  0  0  0  0  0
  190.7090  175.8010  142.5150 N   0  0  0  0  0  0  0  0  0  0  0  0
  189.4590  175.0980  145.1490 C   0  0  0  0  0  1  0  0  0  0  0  0
  190.3000  172.1820  139.5390 C   0  0  0  0  0  2  0  0  0  0  0  0
  188.2920  172.8390  140.8750 C   0  0  0  0  0  2  0  0  0  0  0  0
  190.2980  176.7890  143.5050 C   0  0  0  0  0  2  0  0  0  0  0  0
  194.7270  173.4960  144.5340 C   0  0  1  0  0  3  0  0  0  0  0  0
  194.8170  172.8580  143.1940 C   0  0  1  0  0  3  0  0  0  0  0  0
  189.8220  172.6770  140.8860 C   0  0  2  0  0  3  0  0  0  0  0  0
  191.9440  175.3130  142.2640 C   0  0  0  0  0  0  0  0  0  0  0  0
  187.9370  175.8650  143.3120 C   0  0  0  0  0  2  0  0  0  0  0  0
  192.9960  172.4410  139.9390 C   0  0  1  0  0  3  0  0  0  0  0  0
  188.5650  177.3890  145.1670 C   0  0  0  0  0  1  0  0  0  0  0  0
  195.2550  172.2040  144.3600 O   0  0  0  0  0  0  0  0  0  0  0  0
  196.0810  174.5510  146.1860 F   0  0  0  0  0  0  0  0  0  0  0  0
  193.1860  175.6810  142.9410 C   0  0  0  0  0  3  0  0  0  0  0  0
  191.7490  171.1060  139.7560 S   0  0  0  0  0  0  0  0  0  0  0  0
  193.8520  174.5100  138.8320 C   0  0  0  0  0  3  0  0  0  0  0  0
  193.2070  173.2740  138.7110 C   0  0  0  0  0  0  0  0  0  0  0  0
  192.7830  172.8390  137.4470 C   0  0  0  0  0  3  0  0  0  0  0  0
  192.4590  173.0820  134.7480 Cl  0  0  0  0  0  0  0  0  0  0  0  0
  193.6370  174.8690  136.4460 C   0  0  0  0  0  3  0  0  0  0  0  0
  192.9960  173.6340  136.3190 C   0  0  0  0  0  0  0  0  0  0  0  0
  194.0660  175.3070  137.7030 C   0  0  0  0  0  3  0  0  0  0  0  0
  193.7610  176.8090  146.9790 C   0  0  0  0  0  1  0  0  0  0  0  0
  194.6670  177.3580  145.8920 C   0  0  0  0  0  2  0  0  0  0  0  0
  1  4  1  0  0  0  0
  2 14  1  0  0  0  0
  2 24  1  0  0  0  0
  3  7  1  0  0  0  0
  3  9  2  0  0  0  0
  4 37  1  0  0  0  0
  6 11  1  1  0  0  0
  6 22  1  0  0  0  0
  7 21  2  0  0  0  0
  8 26  1  1  0  0  0
  9  6  1  0  0  0  0
  9 13  1  0  0  0  0
 10  7  1  1  0  0  0
 10  5  1  0  0  0  0
 12  4  1  0  0  0  0
 12  8  1  0  0  0  0
 13 17  1  0  0  0  0
 15 28  1  0  0  0  0
 16 20  1  0  0  0  0
 16 11  1  0  0  0  0
 17  2  1  0  0  0  0
 18 25  1  1  0  0  0
 18  8  1  0  0  0  0
 19  5  1  1  0  0  0
 19 25  1  0  0  0  0
 19 18  1  0  0  0  0
 20 15  1  6  0  0  0
 20  3  1  0  0  0  0
 21 13  1  0  0  0  0
 21 27  1  0  0  0  0
 22  2  1  0  0  0  0
 23 30  1  6  0  0  0
 23 10  1  0  0  0  0
 27  1  2  0  0  0  0
 28 23  1  0  0  0  0
 30 29  1  0  0  0  0
 31 30  2  0  0  0  0
 32 34  1  0  0  0  0
 33 35  1  0  0  0  0
 34 33  2  0  0  0  0
 34 31  1  0  0  0  0
 35 29  2  0  0  0  0
 37 36  1  0  0  0  0
M  END
>  <MODEL>
6

>  <REMARK>
 VINA RESULT:      -7.3      3.538      7.491
  Name = 
  2 active torsions:
  status: ('A' for Active; 'I' for Inactive)
    1  A    between atoms: N_4  and  C_37
    2  A    between atoms: C_23  and  C_30
                            x       y       z     vdW  Elec       q    Type
                         _______ _______ _______ _____ _____    ______ ____

>  <TORSDO>
F 2

$$$$
=
 OpenBabel11112417173D

 37 43  0  0  1  0  0  0  0  0999 V2000
  189.8250  176.2570  142.3690 C   0  0  0  0  0  3  0  0  0  0  0  0
  189.2740  172.6010  140.3430 C   0  0  0  0  0  0  0  0  0  0  0  0
  192.6030  172.5630  142.6840 C   0  0  0  0  0  0  0  0  0  0  0  0
  189.3000  177.4620  142.9400 N   0  0  0  0  0  0  0  0  0  0  0  0
  191.5350  173.9870  145.8000 S   0  0  0  0  0  0  0  0  0  0  0  0
  191.5010  171.2980  140.7800 C   0  0  1  0  0  3  0  0  0  0  0  0
  192.4760  173.8390  143.2140 C   0  0  0  0  0  0  0  0  0  0  0  0
  189.4670  177.5300  145.4270 C   0  0  2  0  0  3  0  0  0  0  0  0
  191.8290  172.5440  141.5440 C   0  0  0  0  0  0  0  0  0  0  0  0
  192.8590  174.3170  144.5900 C   0  0  2  0  0  3  0  0  0  0  0  0
  191.5520  170.0850  141.7120 C   0  0  0  0  0  2  0  0  0  0  0  0
  189.9500  178.0990  144.0880 C   0  0  0  0  0  2  0  0  0  0  0  0
  191.1990  173.7140  141.3710 N   0  0  0  0  0  0  0  0  0  0  0  0
  188.5410  172.3540  141.6510 C   0  0  0  0  0  1  0  0  0  0  0  0
  194.4360  171.4260  143.9020 C   0  0  0  0  0  2  0  0  0  0  0  0
  192.8820  170.0760  142.4820 C   0  0  0  0  0  2  0  0  0  0  0  0
  190.0950  173.8960  140.4360 C   0  0  0  0  0  2  0  0  0  0  0  0
  189.7370  176.0370  145.6130 C   0  0  1  0  0  3  0  0  0  0  0  0
  191.1310  175.7500  146.0450 C   0  0  1  0  0  3  0  0  0  0  0  0
  193.0150  171.3060  143.3970 C   0  0  2  0  0  3  0  0  0  0  0  0
  191.5960  174.5170  142.3840 C   0  0  0  0  0  0  0  0  0  0  0  0
  190.1680  171.3900  140.0080 C   0  0  0  0  0  2  0  0  0  0  0  0
  194.2430  173.8840  145.0930 C   0  0  1  0  0  3  0  0  0  0  0  0
  188.2460  172.7610  139.2440 C   0  0  0  0  0  1  0  0  0  0  0  0
  190.0680  175.8230  146.9640 O   0  0  0  0  0  0  0  0  0  0  0  0
  188.1190  177.7850  145.5950 F   0  0  0  0  0  0  0  0  0  0  0  0
  190.9960  175.7900  142.7780 C   0  0  0  0  0  3  0  0  0  0  0  0
  194.4370  172.1240  145.5800 S   0  0  0  0  0  0  0  0  0  0  0  0
  196.7040  174.0880  144.7180 C   0  0  0  0  0  3  0  0  0  0  0  0
  195.4080  174.4570  144.3430 C   0  0  0  0  0  0  0  0  0  0  0  0
  195.2250  175.3430  143.2710 C   0  0  0  0  0  3  0  0  0  0  0  0
  196.0880  176.9650  141.2530 Cl  0  0  0  0  0  0  0  0  0  0  0  0
  197.6210  175.4890  142.9670 C   0  0  0  0  0  3  0  0  0  0  0  0
  196.3280  175.8580  142.5870 C   0  0  0  0  0  0  0  0  0  0  0  0
  197.8090  174.6030  144.0330 C   0  0  0  0  0  3  0  0  0  0  0  0
  186.9500  176.9540  142.5300 C   0  0  0  0  0  1  0  0  0  0  0  0
  188.0440  178.0030  142.4460 C   0  0  0  0  0  2  0  0  0  0  0  0
  1 27  2  0  0  0  0
  1  4  1  0  0  0  0
  2 17  1  0  0  0  0
  2 14  1  0  0  0  0
  3  7  1  0  0  0  0
  3 20  1  0  0  0  0
  4 12  1  0  0  0  0
  6 22  1  1  0  0  0
  6  9  1  0  0  0  0
  6 11  1  0  0  0  0
  8 26  1  6  0  0  0
  8 18  1  0  0  0  0
  9  3  2  0  0  0  0
 10  7  1  6  0  0  0
 10 23  1  0  0  0  0
 10  5  1  0  0  0  0
 11 16  1  0  0  0  0
 12  8  1  0  0  0  0
 13  9  1  0  0  0  0
 13 21  1  0  0  0  0
 15 28  1  0  0  0  0
 17 13  1  0  0  0  0
 18 19  1  0  0  0  0
 18 25  1  1  0  0  0
 19  5  1  6  0  0  0
 19 25  1  0  0  0  0
 20 16  1  6  0  0  0
 20 15  1  0  0  0  0
 21 27  1  0  0  0  0
 21  7  2  0  0  0  0
 22  2  1  0  0  0  0
 23 30  1  6  0  0  0
 23 28  1  0  0  0  0
 24  2  1  0  0  0  0
 30 29  1  0  0  0  0
 31 30  2  0  0  0  0
 32 34  1  0  0  0  0
 33 35  1  0  0  0  0
 34 33  2  0  0  0  0
 34 31  1  0  0  0  0
 35 29  2  0  0  0  0
 37 36  1  0  0  0  0
 37  4  1  0  0  0  0
M  END
>  <MODEL>
7

>  <REMARK>
 VINA RESULT:      -7.2      3.317      7.148
  Name = 
  2 active torsions:
  status: ('A' for Active; 'I' for Inactive)
    1  A    between atoms: N_4  and  C_37
    2  A    between atoms: C_23  and  C_30
                            x       y       z     vdW  Elec       q    Type
                         _______ _______ _______ _____ _____    ______ ____

>  <TORSDO>
F 2

$$$$
=
 OpenBabel11112417173D

 37 43  0  0  1  0  0  0  0  0999 V2000
  192.4450  173.0060  139.3650 C   0  0  0  0  0  3  0  0  0  0  0  0
  196.0780  175.0950  139.8260 C   0  0  0  0  0  0  0  0  0  0  0  0
  193.6340  175.5520  143.0490 C   0  0  0  0  0  0  0  0  0  0  0  0
  191.6830  171.9350  138.7960 N   0  0  0  0  0  0  0  0  0  0  0  0
  192.4390  172.2420  143.7550 S   0  0  0  0  0  0  0  0  0  0  0  0
  195.6960  176.5560  141.9630 C   0  0  1  0  0  3  0  0  0  0  0  0
  192.5930  174.7450  142.6120 C   0  0  0  0  0  0  0  0  0  0  0  0
  190.9670  170.2330  140.4730 C   0  0  2  0  0  3  0  0  0  0  0  0
  194.3590  175.8820  141.9250 C   0  0  0  0  0  0  0  0  0  0  0  0
  191.6840  173.8720  143.4360 C   0  0  2  0  0  3  0  0  0  0  0  0
  196.4000  176.2450  143.2860 C   0  0  0  0  0  2  0  0  0  0  0  0
  190.5450  171.3530  139.5150 C   0  0  0  0  0  2  0  0  0  0  0  0
  193.8530  175.2880  140.8350 N   0  0  0  0  0  0  0  0  0  0  0  0
  196.4010  173.7510  140.4580 C   0  0  0  0  0  1  0  0  0  0  0  0
  193.1750  176.1540  145.4080 C   0  0  0  0  0  2  0  0  0  0  0  0
  195.4560  176.5450  144.4620 C   0  0  0  0  0  2  0  0  0  0  0  0
  194.5680  175.2050  139.5670 C   0  0  0  0  0  2  0  0  0  0  0  0
  191.9310  170.6740  141.5740 C   0  0  1  0  0  3  0  0  0  0  0  0
  191.2440  171.3320  142.7170 C   0  0  1  0  0  3  0  0  0  0  0  0
  194.2120  175.6410  144.4330 C   0  0  2  0  0  3  0  0  0  0  0  0
  192.7660  174.5970  141.2440 C   0  0  0  0  0  0  0  0  0  0  0  0
  196.5770  176.2350  140.7380 C   0  0  0  0  0  2  0  0  0  0  0  0
  191.1000  174.5120  144.7040 C   0  0  1  0  0  3  0  0  0  0  0  0
  196.8020  175.1860  138.5010 C   0  0  0  0  0  1  0  0  0  0  0  0
  191.5990  169.9710  142.7470 O   0  0  0  0  0  0  0  0  0  0  0  0
  191.5160  169.1810  139.7650 F   0  0  0  0  0  0  0  0  0  0  0  0
  192.0330  173.5870  140.4830 C   0  0  0  0  0  3  0  0  0  0  0  0
  192.2490  174.7590  146.1140 S   0  0  0  0  0  0  0  0  0  0  0  0
  189.8260  176.4930  145.5340 C   0  0  0  0  0  3  0  0  0  0  0  0
  190.1440  175.6430  144.4690 C   0  0  0  0  0  0  0  0  0  0  0  0
  189.5740  175.8720  143.2090 C   0  0  0  0  0  3  0  0  0  0  0  0
  187.9810  177.2110  141.4420 Cl  0  0  0  0  0  0  0  0  0  0  0  0
  188.3720  177.7800  144.0860 C   0  0  0  0  0  3  0  0  0  0  0  0
  188.6900  176.9370  143.0190 C   0  0  0  0  0  0  0  0  0  0  0  0
  188.9410  177.5590  145.3440 C   0  0  0  0  0  3  0  0  0  0  0  0
  190.9040  170.8040  136.7810 C   0  0  0  0  0  1  0  0  0  0  0  0
  192.1050  171.3410  137.5380 C   0  0  0  0  0  2  0  0  0  0  0  0
  1 27  2  0  0  0  0
  2 14  1  0  0  0  0
  2 22  1  0  0  0  0
  3 20  1  0  0  0  0
  4  1  1  0  0  0  0
  4 12  1  0  0  0  0
  6 22  1  6  0  0  0
  6 11  1  0  0  0  0
  7  3  1  0  0  0  0
  8 26  1  6  0  0  0
  8 18  1  0  0  0  0
  9  6  1  0  0  0  0
  9  3  2  0  0  0  0
 10  7  1  1  0  0  0
 10  5  1  0  0  0  0
 10 23  1  0  0  0  0
 11 16  1  0  0  0  0
 12  8  1  0  0  0  0
 13 21  1  0  0  0  0
 13  9  1  0  0  0  0
 15 28  1  0  0  0  0
 17  2  1  0  0  0  0
 17 13  1  0  0  0  0
 18 19  1  0  0  0  0
 18 25  1  1  0  0  0
 19 25  1  1  0  0  0
 19  5  1  0  0  0  0
 20 16  1  6  0  0  0
 20 15  1  0  0  0  0
 21  7  2  0  0  0  0
 23 30  1  6  0  0  0
 23 28  1  0  0  0  0
 24  2  1  0  0  0  0
 27 21  1  0  0  0  0
 30 29  2  0  0  0  0
 31 30  1  0  0  0  0
 32 34  1  0  0  0  0
 33 35  2  0  0  0  0
 34 31  2  0  0  0  0
 34 33  1  0  0  0  0
 35 29  1  0  0  0  0
 36 37  1  0  0  0  0
 37  4  1  0  0  0  0
M  END
>  <MODEL>
8

>  <REMARK>
 VINA RESULT:      -7.1      1.926      2.734
  Name = 
  2 active torsions:
  status: ('A' for Active; 'I' for Inactive)
    1  A    between atoms: N_4  and  C_37
    2  A    between atoms: C_23  and  C_30
                            x       y       z     vdW  Elec       q    Type
                         _______ _______ _______ _____ _____    ______ ____

>  <TORSDO>
F 2

$$$$
=
 OpenBabel11112417173D

 37 43  0  0  1  0  0  0  0  0999 V2000
  193.7020  173.1220  144.2680 C   0  0  0  0  0  3  0  0  0  0  0  0
  190.8610  175.8740  145.7260 C   0  0  0  0  0  0  0  0  0  0  0  0
  190.0100  174.6650  141.9330 C   0  0  0  0  0  0  0  0  0  0  0  0
  194.6890  172.1070  144.4910 N   0  0  0  0  0  0  0  0  0  0  0  0
  190.4410  171.1030  142.0000 S   0  0  0  0  0  0  0  0  0  0  0  0
  189.4220  176.4660  143.6210 C   0  0  1  0  0  3  0  0  0  0  0  0
  191.0660  173.7780  141.7770 C   0  0  0  0  0  0  0  0  0  0  0  0
  193.9870  169.8540  143.6850 C   0  0  2  0  0  3  0  0  0  0  0  0
  190.3640  175.5010  142.9700 C   0  0  0  0  0  0  0  0  0  0  0  0
  191.0880  172.4860  141.0030 C   0  0  2  0  0  3  0  0  0  0  0  0
  187.9820  175.9740  143.4690 C   0  0  0  0  0  2  0  0  0  0  0  0
  194.9250  171.0520  143.5010 C   0  0  0  0  0  2  0  0  0  0  0  0
  191.5490  175.1480  143.4890 N   0  0  0  0  0  0  0  0  0  0  0  0
  190.2460  174.5420  146.1220 C   0  0  0  0  0  1  0  0  0  0  0  0
  188.5020  174.3850  139.9880 C   0  0  0  0  0  2  0  0  0  0  0  0
  187.6980  175.6410  141.9950 C   0  0  0  0  0  2  0  0  0  0  0  0
  192.0400  175.6460  144.7690 C   0  0  0  0  0  2  0  0  0  0  0  0
  192.5020  170.1860  143.5450 C   0  0  1  0  0  3  0  0  0  0  0  0
  192.0560  170.2600  142.1290 C   0  0  1  0  0  3  0  0  0  0  0  0
  188.5850  174.4870  141.4950 C   0  0  2  0  0  3  0  0  0  0  0  0
  191.9900  174.1000  142.7590 C   0  0  0  0  0  0  0  0  0  0  0  0
  189.7850  176.7780  145.0880 C   0  0  0  0  0  2  0  0  0  0  0  0
  190.4810  172.5340  139.5930 C   0  0  1  0  0  3  0  0  0  0  0  0
  191.3790  176.5500  146.9760 C   0  0  0  0  0  1  0  0  0  0  0  0
  191.8740  169.1020  142.9050 O   0  0  0  0  0  0  0  0  0  0  0  0
  194.2170  169.2520  144.9080 F   0  0  0  0  0  0  0  0  0  0  0  0
  193.0990  173.2060  143.0910 C   0  0  0  0  0  3  0  0  0  0  0  0
  188.6520  172.6460  139.4790 S   0  0  0  0  0  0  0  0  0  0  0  0
  190.5740  173.7770  137.4280 C   0  0  0  0  0  3  0  0  0  0  0  0
  191.2230  173.3820  138.6040 C   0  0  0  0  0  0  0  0  0  0  0  0
  192.5430  173.7940  138.8350 C   0  0  0  0  0  3  0  0  0  0  0  0
  194.8570  175.0930  138.1960 Cl  0  0  0  0  0  0  0  0  0  0  0  0
  192.5580  174.9760  136.7240 C   0  0  0  0  0  3  0  0  0  0  0  0
  193.2080  174.5870  137.8980 C   0  0  0  0  0  0  0  0  0  0  0  0
  191.2400  174.5710  136.4890 C   0  0  0  0  0  3  0  0  0  0  0  0
  196.8190  171.5820  145.5560 C   0  0  0  0  0  1  0  0  0  0  0  0
  195.3910  172.0550  145.7630 C   0  0  0  0  0  2  0  0  0  0  0  0
  1  4  1  0  0  0  0
  2 14  1  0  0  0  0
  2 24  1  0  0  0  0
  3  9  2  0  0  0  0
  4 37  1  0  0  0  0
  6 11  1  1  0  0  0
  6 22  1  0  0  0  0
  7  3  1  0  0  0  0
  7 21  2  0  0  0  0
  8 26  1  1  0  0  0
  9 13  1  0  0  0  0
  9  6  1  0  0  0  0
 10  7  1  1  0  0  0
 10  5  1  0  0  0  0
 12  8  1  0  0  0  0
 12  4  1  0  0  0  0
 13 17  1  0  0  0  0
 16 11  1  0  0  0  0
 17  2  1  0  0  0  0
 18 25  1  1  0  0  0
 18  8  1  0  0  0  0
 19  5  1  1  0  0  0
 19 25  1  0  0  0  0
 19 18  1  0  0  0  0
 20 15  1  6  0  0  0
 20  3  1  0  0  0  0
 20 16  1  0  0  0  0
 21 27  1  0  0  0  0
 21 13  1  0  0  0  0
 22  2  1  0  0  0  0
 23 30  1  1  0  0  0
 23 10  1  0  0  0  0
 27  1  2  0  0  0  0
 28 23  1  0  0  0  0
 28 15  1  0  0  0  0
 29 30  1  0  0  0  0
 30 31  2  0  0  0  0
 33 34  2  0  0  0  0
 34 32  1  0  0  0  0
 34 31  1  0  0  0  0
 35 33  1  0  0  0  0
 35 29  2  0  0  0  0
 36 37  1  0  0  0  0
M  END
>  <MODEL>
9

>  <REMARK>
 VINA RESULT:      -7.1      3.362      6.378
  Name = 
  2 active torsions:
  status: ('A' for Active; 'I' for Inactive)
    1  A    between atoms: N_4  and  C_37
    2  A    between atoms: C_23  and  C_30
                            x       y       z     vdW  Elec       q    Type
                         _______ _______ _______ _____ _____    ______ ____

>  <TORSDO>
F 2

$$$$
