=
 OpenBabel11112417023D

 31 35  0  0  1  0  0  0  0  0999 V2000
  184.6550  178.2670  146.6770 C   0  0  0  0  0  0  0  0  0  0  0  0
  187.2780  176.0930  144.9830 C   0  0  2  0  0  3  0  0  0  0  0  0
  187.5320  176.7040  143.5820 C   0  0  2  0  0  3  0  0  0  0  0  0
  186.4640  177.7810  141.5860 C   0  0  2  0  0  3  0  0  0  0  0  0
  186.6420  177.0810  145.9360 C   0  0  0  0  0  0  0  0  0  0  0  0
  185.4180  178.9750  147.6080 C   0  0  0  0  0  3  0  0  0  0  0  0
  186.2090  177.1600  142.9510 C   0  0  0  0  0  2  0  0  0  0  0  0
  189.5050  176.6620  146.0220 C   0  0  2  0  0  3  0  0  0  0  0  0
  183.3240  178.4990  146.5760 F   0  0  0  0  0  0  0  0  0  0  0  0
  189.4670  175.3240  143.2540 C   0  0  0  0  0  2  0  0  0  0  0  0
  185.1440  178.1360  140.9350 C   0  0  0  0  0  1  0  0  0  0  0  0
  188.8530  177.4700  147.1420 C   0  0  0  0  0  2  0  0  0  0  0  0
  188.5780  175.5210  145.5790 C   0  0  2  0  0  3  0  0  0  0  0  0
  185.2640  177.3240  145.8480 C   0  0  0  0  0  3  0  0  0  0  0  0
  187.2200  176.7980  140.7040 C   0  0  0  0  0  2  0  0  0  0  0  0
  187.4110  177.7940  146.8840 C   0  0  0  0  0  0  0  0  0  0  0  0
  186.7890  178.7310  147.7170 C   0  0  0  0  0  3  0  0  0  0  0  0
  189.2560  174.5930  144.5730 C   0  0  0  0  0  2  0  0  0  0  0  0
  188.1810  175.7220  142.6900 N   0  0  2  0  0  0  0  0  0  0  0  0
  188.4980  176.3700  141.4170 C   0  0  0  0  0  2  0  0  0  0  0  0
  192.0400  177.1290  144.7990 O   0  0  0  0  0  0  0  0  0  0  0  0
  192.0170  176.4110  145.8370 C   0  0  0  0  0  0  0  0  0  0  0  0
  190.7790  176.1310  146.4920 N   0  0  0  0  0  2  0  0  0  0  0  0
  195.5650  176.1240  144.5430 C   0  0  1  0  0  3  0  0  0  0  0  0
  194.3620  176.8990  146.6050 C   0  0  0  0  0  2  0  0  0  0  0  0
  192.8290  173.7080  145.3250 O   0  0  0  0  0  1  0  0  0  0  0  0
  196.1290  176.5400  143.3380 O   0  0  0  0  0  1  0  0  0  0  0  0
  194.9960  177.3310  145.2830 C   0  0  0  0  0  2  0  0  0  0  0  0
  193.8310  174.6470  145.5750 C   0  0  2  0  0  3  0  0  0  0  0  0
  193.2830  175.8300  146.3930 C   0  0  2  0  0  3  0  0  0  0  0  0
  194.4620  175.1080  144.2640 C   0  0  0  0  0  2  0  0  0  0  0  0
  1  6  1  0  0  0  0
  2 13  1  0  0  0  0
  2  5  1  1  0  0  0
  3  7  1  6  0  0  0
  3  2  1  0  0  0  0
  4 11  1  6  0  0  0
  4  7  1  0  0  0  0
  5 16  2  0  0  0  0
  6 17  2  0  0  0  0
  8 23  1  1  0  0  0
  8 12  1  0  0  0  0
  9  1  1  0  0  0  0
 10 18  1  0  0  0  0
 13 18  1  6  0  0  0
 13  8  1  0  0  0  0
 14  5  1  0  0  0  0
 14  1  2  0  0  0  0
 15 20  1  0  0  0  0
 15  4  1  0  0  0  0
 16 12  1  0  0  0  0
 16 17  1  0  0  0  0
 19 20  1  6  0  0  0
 19 10  1  0  0  0  0
 19  3  1  0  0  0  0
 21 22  2  0  0  0  0
 22 23  1  0  0  0  0
 24 27  1  6  0  0  0
 24 28  1  0  0  0  0
 28 25  1  0  0  0  0
 29 26  1  6  0  0  0
 29 30  1  0  0  0  0
 30 22  1  6  0  0  0
 30 25  1  0  0  0  0
 31 24  1  0  0  0  0
 31 29  1  0  0  0  0
M  END
>  <MODEL>
1

>  <REMARK>
 VINA RESULT:      -9.3      0.000      0.000
  Name = 
  2 active torsions:
  status: ('A' for Active; 'I' for Inactive)
    1  A    between atoms: C_5  and  C_30
    2  A    between atoms: C_10  and  N_16
                            x       y       z     vdW  Elec       q    Type
                         _______ _______ _______ _____ _____    ______ ____

>  <TORSDO>
F 2

$$$$
=
 OpenBabel11112417023D

 31 35  0  0  1  0  0  0  0  0999 V2000
  184.7360  177.8130  146.7060 C   0  0  0  0  0  0  0  0  0  0  0  0
  187.1160  176.1810  144.2260 C   0  0  2  0  0  3  0  0  0  0  0  0
  187.0250  176.9980  142.9130 C   0  0  2  0  0  3  0  0  0  0  0  0
  185.4870  178.2090  141.3480 C   0  0  2  0  0  3  0  0  0  0  0  0
  186.6140  176.9590  145.4230 C   0  0  0  0  0  0  0  0  0  0  0  0
  185.6160  178.4690  147.5690 C   0  0  0  0  0  3  0  0  0  0  0  0
  185.5690  177.3870  142.6260 C   0  0  0  0  0  2  0  0  0  0  0  0
  189.4570  176.8430  144.8910 C   0  0  2  0  0  3  0  0  0  0  0  0
  183.3980  177.9110  146.9010 F   0  0  0  0  0  0  0  0  0  0  0  0
  188.9540  175.8900  142.0110 C   0  0  0  0  0  2  0  0  0  0  0  0
  184.0370  178.5040  141.0260 C   0  0  0  0  0  1  0  0  0  0  0  0
  188.9890  177.4200  146.2250 C   0  0  0  0  0  2  0  0  0  0  0  0
  188.5510  175.6780  144.4670 C   0  0  2  0  0  3  0  0  0  0  0  0
  185.2330  177.0610  145.6410 C   0  0  0  0  0  3  0  0  0  0  0  0
  186.1200  177.4400  140.1970 C   0  0  0  0  0  2  0  0  0  0  0  0
  187.5030  177.6170  146.3030 C   0  0  0  0  0  0  0  0  0  0  0  0
  186.9940  178.3610  147.3730 C   0  0  0  0  0  3  0  0  0  0  0  0
  189.0780  174.9710  143.2180 C   0  0  0  0  0  2  0  0  0  0  0  0
  187.5520  176.2190  141.7730 N   0  0  2  0  0  0  0  0  0  0  0  0
  187.5470  177.0620  140.5770 C   0  0  0  0  0  2  0  0  0  0  0  0
  191.7310  178.1650  143.7860 O   0  0  0  0  0  0  0  0  0  0  0  0
  191.9340  177.1100  144.4480 C   0  0  0  0  0  0  0  0  0  0  0  0
  190.8380  176.3950  145.0200 N   0  0  0  0  0  2  0  0  0  0  0  0
  193.3930  173.6400  144.8730 C   0  0  1  0  0  3  0  0  0  0  0  0
  193.7640  175.6880  143.4700 C   0  0  0  0  0  2  0  0  0  0  0  0
  193.0800  176.6630  147.0400 O   0  0  0  0  0  1  0  0  0  0  0  0
  192.7730  172.3920  144.9130 O   0  0  0  0  0  1  0  0  0  0  0  0
  193.1010  174.3110  143.5340 C   0  0  0  0  0  2  0  0  0  0  0  0
  193.5420  175.8750  145.9860 C   0  0  2  0  0  3  0  0  0  0  0  0
  193.3260  176.5810  144.6360 C   0  0  2  0  0  3  0  0  0  0  0  0
  192.8740  174.5020  146.0190 C   0  0  0  0  0  2  0  0  0  0  0  0
  1  9  1  0  0  0  0
  1  6  1  0  0  0  0
  2 13  1  0  0  0  0
  2  5  1  1  0  0  0
  3  7  1  6  0  0  0
  3  2  1  0  0  0  0
  4 11  1  6  0  0  0
  4  7  1  0  0  0  0
  5 14  1  0  0  0  0
  5 16  2  0  0  0  0
  8 23  1  1  0  0  0
  8 12  1  0  0  0  0
 10 18  1  0  0  0  0
 12 16  1  0  0  0  0
 13 18  1  6  0  0  0
 13  8  1  0  0  0  0
 14  1  2  0  0  0  0
 15 20  1  0  0  0  0
 15  4  1  0  0  0  0
 16 17  1  0  0  0  0
 17  6  2  0  0  0  0
 19 20  1  6  0  0  0
 19 10  1  0  0  0  0
 19  3  1  0  0  0  0
 21 22  2  0  0  0  0
 22 23  1  0  0  0  0
 24 27  1  6  0  0  0
 24 31  1  0  0  0  0
 25 28  1  0  0  0  0
 25 30  1  0  0  0  0
 28 24  1  0  0  0  0
 29 31  1  0  0  0  0
 29 26  1  1  0  0  0
 30 22  1  6  0  0  0
 30 29  1  0  0  0  0
M  END
>  <MODEL>
2

>  <REMARK>
 VINA RESULT:      -9.1      1.358      1.959
  Name = 
  2 active torsions:
  status: ('A' for Active; 'I' for Inactive)
    1  A    between atoms: C_5  and  C_30
    2  A    between atoms: C_10  and  N_16
                            x       y       z     vdW  Elec       q    Type
                         _______ _______ _______ _____ _____    ______ ____

>  <TORSDO>
F 2

$$$$
=
 OpenBabel11112417023D

 31 35  0  0  1  0  0  0  0  0999 V2000
  186.1180  178.1830  140.7880 C   0  0  0  0  0  0  0  0  0  0  0  0
  188.2940  177.8250  143.8890 C   0  0  2  0  0  3  0  0  0  0  0  0
  187.3610  177.3810  145.0430 C   0  0  2  0  0  3  0  0  0  0  0  0
  185.1050  177.6820  146.0940 C   0  0  2  0  0  3  0  0  0  0  0  0
  187.6930  177.5530  142.5270 C   0  0  0  0  0  0  0  0  0  0  0  0
  186.4700  177.0510  140.0510 C   0  0  0  0  0  3  0  0  0  0  0  0
  186.0270  178.1370  144.9730 C   0  0  0  0  0  2  0  0  0  0  0  0
  189.5960  175.6780  143.6450 C   0  0  2  0  0  3  0  0  0  0  0  0
  185.1800  179.0370  140.3110 F   0  0  0  0  0  0  0  0  0  0  0  0
  189.2350  176.8740  146.4540 C   0  0  0  0  0  2  0  0  0  0  0  0
  183.8340  178.5030  146.0710 C   0  0  0  0  0  1  0  0  0  0  0  0
  189.1890  175.5180  142.1810 C   0  0  0  0  0  2  0  0  0  0  0  0
  189.6800  177.1660  144.0140 C   0  0  2  0  0  3  0  0  0  0  0  0
  186.7280  178.4330  142.0180 C   0  0  0  0  0  3  0  0  0  0  0  0
  185.8000  177.8530  147.4370 C   0  0  0  0  0  2  0  0  0  0  0  0
  188.0540  176.4110  141.7740 C   0  0  0  0  0  0  0  0  0  0  0  0
  187.4420  176.1750  140.5380 C   0  0  0  0  0  3  0  0  0  0  0  0
  190.2370  177.3720  145.4220 C   0  0  0  0  0  2  0  0  0  0  0  0
  187.9920  177.6320  146.3560 N   0  0  2  0  0  0  0  0  0  0  0  0
  187.1270  177.1040  147.4100 C   0  0  0  0  0  2  0  0  0  0  0  0
  190.0060  173.3110  145.1840 O   0  0  0  0  0  0  0  0  0  0  0  0
  191.0160  173.8330  144.6360 C   0  0  0  0  0  0  0  0  0  0  0  0
  190.8800  175.0250  143.8600 N   0  0  0  0  0  2  0  0  0  0  0  0
  194.5420  175.0490  143.9710 C   0  0  1  0  0  3  0  0  0  0  0  0
  193.2280  173.9810  145.8250 C   0  0  0  0  0  2  0  0  0  0  0  0
  192.3350  172.4090  142.5230 O   0  0  0  0  0  1  0  0  0  0  0  0
  195.0040  176.2620  143.4660 O   0  0  0  0  0  1  0  0  0  0  0  0
  193.7550  175.2990  145.2550 C   0  0  0  0  0  2  0  0  0  0  0  0
  193.1370  173.0400  143.4750 C   0  0  2  0  0  3  0  0  0  0  0  0
  192.3770  173.2220  144.8010 C   0  0  2  0  0  3  0  0  0  0  0  0
  193.6550  174.3700  142.9330 C   0  0  0  0  0  2  0  0  0  0  0  0
  1 14  1  0  0  0  0
  2  5  1  6  0  0  0
  2 13  1  0  0  0  0
  2  3  1  0  0  0  0
  3  7  1  1  0  0  0
  3 19  1  0  0  0  0
  4 11  1  1  0  0  0
  4 15  1  0  0  0  0
  6 17  1  0  0  0  0
  6  1  2  0  0  0  0
  7  4  1  0  0  0  0
  8 23  1  6  0  0  0
  8 13  1  0  0  0  0
  9  1  1  0  0  0  0
 12  8  1  0  0  0  0
 13 18  1  1  0  0  0
 14  5  2  0  0  0  0
 16 12  1  0  0  0  0
 16  5  1  0  0  0  0
 17 16  2  0  0  0  0
 18 10  1  0  0  0  0
 19 10  1  6  0  0  0
 19 20  1  0  0  0  0
 20 15  1  0  0  0  0
 22 21  2  0  0  0  0
 23 22  1  0  0  0  0
 24 27  1  6  0  0  0
 24 28  1  0  0  0  0
 28 25  1  0  0  0  0
 29 26  1  6  0  0  0
 29 30  1  0  0  0  0
 30 22  1  6  0  0  0
 30 25  1  0  0  0  0
 31 29  1  0  0  0  0
 31 24  1  0  0  0  0
M  END
>  <MODEL>
3

>  <REMARK>
 VINA RESULT:      -8.7      1.989      4.314
  Name = 
  2 active torsions:
  status: ('A' for Active; 'I' for Inactive)
    1  A    between atoms: C_5  and  C_30
    2  A    between atoms: C_10  and  N_16
                            x       y       z     vdW  Elec       q    Type
                         _______ _______ _______ _____ _____    ______ ____

>  <TORSDO>
F 2

$$$$
=
 OpenBabel11112417023D

 31 35  0  0  1  0  0  0  0  0999 V2000
  194.3930  176.3870  145.1070 C   0  0  0  0  0  0  0  0  0  0  0  0
  190.9440  176.6550  143.5210 C   0  0  2  0  0  3  0  0  0  0  0  0
  190.6280  175.2720  142.8980 C   0  0  2  0  0  3  0  0  0  0  0  0
  191.5700  173.3260  141.6290 C   0  0  2  0  0  3  0  0  0  0  0  0
  192.0310  176.5780  144.5720 C   0  0  0  0  0  0  0  0  0  0  0  0
  194.0860  176.3330  146.4680 C   0  0  0  0  0  3  0  0  0  0  0  0
  191.8780  174.6940  142.2200 C   0  0  0  0  0  2  0  0  0  0  0  0
  189.2540  176.5900  145.3920 C   0  0  2  0  0  3  0  0  0  0  0  0
  195.6830  176.3150  144.7000 F   0  0  0  0  0  0  0  0  0  0  0  0
  188.3330  175.8790  142.5460 C   0  0  0  0  0  2  0  0  0  0  0  0
  192.7820  172.8110  140.8820 C   0  0  0  0  0  1  0  0  0  0  0  0
  190.3310  176.7580  146.4620 C   0  0  0  0  0  2  0  0  0  0  0  0
  189.6730  177.3040  144.0990 C   0  0  2  0  0  3  0  0  0  0  0  0
  193.3700  176.5110  144.1650 C   0  0  0  0  0  3  0  0  0  0  0  0
  190.3880  173.4290  140.6770 C   0  0  0  0  0  2  0  0  0  0  0  0
  191.7230  176.5310  145.9510 C   0  0  0  0  0  0  0  0  0  0  0  0
  192.7570  176.4160  146.8870 C   0  0  0  0  0  3  0  0  0  0  0  0
  188.5560  177.2960  143.0560 C   0  0  0  0  0  2  0  0  0  0  0  0
  189.5430  175.3820  141.9000 N   0  0  2  0  0  0  0  0  0  0  0  0
  189.2050  174.0430  141.4150 C   0  0  0  0  0  2  0  0  0  0  0  0
  187.7140  175.4920  147.5270 O   0  0  0  0  0  0  0  0  0  0  0  0
  187.2770  176.5370  146.9700 C   0  0  0  0  0  0  0  0  0  0  0  0
  187.9950  177.1320  145.8890 N   0  0  0  0  0  2  0  0  0  0  0  0
  184.9000  179.0590  145.4410 C   0  0  1  0  0  3  0  0  0  0  0  0
  184.8160  176.7910  146.5130 C   0  0  0  0  0  2  0  0  0  0  0  0
  187.1910  179.0290  148.3880 O   0  0  0  0  0  1  0  0  0  0  0  0
  184.9530  179.7340  144.2230 O   0  0  0  0  0  1  0  0  0  0  0  0
  184.8640  177.5540  145.1890 C   0  0  0  0  0  2  0  0  0  0  0  0
  186.0810  178.6880  147.6140 C   0  0  2  0  0  3  0  0  0  0  0  0
  185.9910  177.1640  147.4240 C   0  0  2  0  0  3  0  0  0  0  0  0
  186.1230  179.4240  146.2770 C   0  0  0  0  0  2  0  0  0  0  0  0
  1  6  1  0  0  0  0
  2 13  1  0  0  0  0
  2  5  1  1  0  0  0
  3  7  1  6  0  0  0
  3  2  1  0  0  0  0
  4 11  1  6  0  0  0
  4  7  1  0  0  0  0
  5 16  2  0  0  0  0
  6 17  2  0  0  0  0
  8 23  1  1  0  0  0
  8 12  1  0  0  0  0
  9  1  1  0  0  0  0
 10 18  1  0  0  0  0
 13 18  1  6  0  0  0
 13  8  1  0  0  0  0
 14  5  1  0  0  0  0
 14  1  2  0  0  0  0
 15 20  1  0  0  0  0
 15  4  1  0  0  0  0
 16 12  1  0  0  0  0
 16 17  1  0  0  0  0
 19 20  1  1  0  0  0
 19 10  1  0  0  0  0
 19  3  1  0  0  0  0
 22 21  2  0  0  0  0
 23 22  1  0  0  0  0
 24 27  1  6  0  0  0
 24 31  1  0  0  0  0
 25 30  1  0  0  0  0
 28 24  1  0  0  0  0
 28 25  1  0  0  0  0
 29 26  1  6  0  0  0
 30 22  1  6  0  0  0
 30 29  1  0  0  0  0
 31 29  1  0  0  0  0
M  END
>  <MODEL>
4

>  <REMARK>
 VINA RESULT:      -8.5      3.575      7.123
  Name = 
  2 active torsions:
  status: ('A' for Active; 'I' for Inactive)
    1  A    between atoms: C_5  and  C_30
    2  A    between atoms: C_10  and  N_16
                            x       y       z     vdW  Elec       q    Type
                         _______ _______ _______ _____ _____    ______ ____

>  <TORSDO>
F 2

$$$$
=
 OpenBabel11112417023D

 31 35  0  0  1  0  0  0  0  0999 V2000
  191.6240  173.1690  141.2840 C   0  0  0  0  0  0  0  0  0  0  0  0
  191.0580  174.1110  144.9270 C   0  0  2  0  0  3  0  0  0  0  0  0
  192.0870  175.2180  145.2700 C   0  0  2  0  0  3  0  0  0  0  0  0
  194.4470  176.0000  144.9520 C   0  0  2  0  0  3  0  0  0  0  0  0
  190.8350  173.9740  143.4370 C   0  0  0  0  0  0  0  0  0  0  0  0
  190.5320  173.7680  140.6540 C   0  0  0  0  0  3  0  0  0  0  0  0
  193.4460  174.8990  144.6330 C   0  0  0  0  0  2  0  0  0  0  0  0
  188.9740  175.5290  145.0170 C   0  0  2  0  0  3  0  0  0  0  0  0
  192.5420  172.4930  140.5520 F   0  0  0  0  0  0  0  0  0  0  0  0
  190.9780  175.7020  147.3430 C   0  0  0  0  0  2  0  0  0  0  0  0
  195.8060  175.6260  144.4000 C   0  0  0  0  0  1  0  0  0  0  0  0
  188.6050  175.2000  143.5720 C   0  0  0  0  0  2  0  0  0  0  0  0
  189.7240  174.3520  145.6570 C   0  0  2  0  0  3  0  0  0  0  0  0
  191.7730  173.2710  142.6690 C   0  0  0  0  0  3  0  0  0  0  0  0
  194.5420  176.1910  146.4590 C   0  0  0  0  0  2  0  0  0  0  0  0
  189.7260  174.5720  142.7970 C   0  0  0  0  0  0  0  0  0  0  0  0
  189.5810  174.4570  141.4100 C   0  0  0  0  0  3  0  0  0  0  0  0
  189.9710  174.5770  147.1480 C   0  0  0  0  0  2  0  0  0  0  0  0
  192.2550  175.3450  146.7330 N   0  0  2  0  0  0  0  0  0  0  0  0
  193.1500  176.4670  147.0150 C   0  0  0  0  0  2  0  0  0  0  0  0
  188.6070  177.7770  146.7350 O   0  0  0  0  0  0  0  0  0  0  0  0
  187.6380  176.9790  146.6040 C   0  0  0  0  0  0  0  0  0  0  0  0
  187.7600  175.8290  145.7660 N   0  0  0  0  0  2  0  0  0  0  0  0
  184.4850  178.9210  145.8070 C   0  0  1  0  0  3  0  0  0  0  0  0
  185.1480  176.6280  146.5850 C   0  0  0  0  0  2  0  0  0  0  0  0
  187.2280  179.2430  148.3170 O   0  0  0  0  0  1  0  0  0  0  0  0
  184.1450  179.6820  144.6900 O   0  0  0  0  0  1  0  0  0  0  0  0
  184.7620  177.4830  145.3770 C   0  0  0  0  0  2  0  0  0  0  0  0
  186.1070  178.6920  147.6970 C   0  0  2  0  0  3  0  0  0  0  0  0
  186.3490  177.2160  147.3340 C   0  0  2  0  0  3  0  0  0  0  0  0
  185.7190  179.5190  146.4730 C   0  0  0  0  0  2  0  0  0  0  0  0
  1 14  1  0  0  0  0
  2  5  1  6  0  0  0
  2  3  1  0  0  0  0
  2 13  1  0  0  0  0
  3  7  1  6  0  0  0
  3 19  1  0  0  0  0
  4 11  1  1  0  0  0
  4 15  1  0  0  0  0
  6  1  2  0  0  0  0
  6 17  1  0  0  0  0
  7  4  1  0  0  0  0
  8 13  1  0  0  0  0
  8 23  1  1  0  0  0
  9  1  1  0  0  0  0
 12  8  1  0  0  0  0
 13 18  1  1  0  0  0
 14  5  2  0  0  0  0
 15 20  1  0  0  0  0
 16  5  1  0  0  0  0
 16 12  1  0  0  0  0
 17 16  2  0  0  0  0
 18 10  1  0  0  0  0
 19 20  1  6  0  0  0
 19 10  1  0  0  0  0
 22 21  2  0  0  0  0
 23 22  1  0  0  0  0
 24 27  1  6  0  0  0
 24 31  1  0  0  0  0
 25 30  1  0  0  0  0
 28 24  1  0  0  0  0
 28 25  1  0  0  0  0
 29 26  1  6  0  0  0
 30 22  1  6  0  0  0
 30 29  1  0  0  0  0
 31 29  1  0  0  0  0
M  END
>  <MODEL>
5

>  <REMARK>
 VINA RESULT:      -7.8      3.493      7.883
  Name = 
  2 active torsions:
  status: ('A' for Active; 'I' for Inactive)
    1  A    between atoms: C_5  and  C_30
    2  A    between atoms: C_10  and  N_16
                            x       y       z     vdW  Elec       q    Type
                         _______ _______ _______ _____ _____    ______ ____

>  <TORSDO>
F 2

$$$$
=
 OpenBabel11112417023D

 31 35  0  0  1  0  0  0  0  0999 V2000
  190.4890  171.3730  142.5830 C   0  0  0  0  0  0  0  0  0  0  0  0
  189.7310  174.3240  144.8630 C   0  0  2  0  0  3  0  0  0  0  0  0
  191.0550  175.1090  145.0350 C   0  0  2  0  0  3  0  0  0  0  0  0
  193.5350  174.9140  145.3400 C   0  0  2  0  0  3  0  0  0  0  0  0
  189.7470  173.4300  143.6410 C   0  0  0  0  0  0  0  0  0  0  0  0
  189.8970  171.7710  141.3820 C   0  0  0  0  0  3  0  0  0  0  0  0
  192.2340  174.1400  145.1940 C   0  0  0  0  0  2  0  0  0  0  0  0
  188.4860  176.0320  143.4850 C   0  0  2  0  0  3  0  0  0  0  0  0
  191.1410  170.1880  142.6560 F   0  0  0  0  0  0  0  0  0  0  0  0
  189.9070  176.9560  146.0510 C   0  0  0  0  0  2  0  0  0  0  0  0
  194.6750  173.9500  145.5930 C   0  0  0  0  0  1  0  0  0  0  0  0
  188.2820  175.0530  142.3310 C   0  0  0  0  0  2  0  0  0  0  0  0
  188.5230  175.2780  144.8230 C   0  0  2  0  0  3  0  0  0  0  0  0
  190.4110  172.1970  143.7060 C   0  0  0  0  0  3  0  0  0  0  0  0
  193.4270  175.8930  146.5000 C   0  0  0  0  0  2  0  0  0  0  0  0
  189.1420  173.8270  142.4260 C   0  0  0  0  0  0  0  0  0  0  0  0
  189.2180  172.9880  141.3090 C   0  0  0  0  0  3  0  0  0  0  0  0
  188.5670  176.2340  146.0140 C   0  0  0  0  0  2  0  0  0  0  0  0
  190.9910  175.9930  146.2180 N   0  0  2  0  0  0  0  0  0  0  0  0
  192.2150  176.7920  146.2830 C   0  0  0  0  0  2  0  0  0  0  0  0
  188.3140  178.2890  141.7500 O   0  0  0  0  0  0  0  0  0  0  0  0
  187.3770  178.1170  142.5770 C   0  0  0  0  0  0  0  0  0  0  0  0
  187.4070  177.0110  143.4810 N   0  0  0  0  0  2  0  0  0  0  0  0
  184.4630  178.5800  144.9530 C   0  0  1  0  0  3  0  0  0  0  0  0
  186.2710  179.9570  143.8880 C   0  0  0  0  0  2  0  0  0  0  0  0
  184.8310  177.5410  141.3870 O   0  0  0  0  0  1  0  0  0  0  0  0
  184.1060  177.8740  146.1010 O   0  0  0  0  0  1  0  0  0  0  0  0
  185.8520  179.1840  145.1390 C   0  0  0  0  0  2  0  0  0  0  0  0
  184.8490  178.3960  142.4890 C   0  0  2  0  0  3  0  0  0  0  0  0
  186.2230  179.0750  142.6350 C   0  0  2  0  0  3  0  0  0  0  0  0
  184.4550  177.6370  143.7540 C   0  0  0  0  0  2  0  0  0  0  0  0
  1  9  1  0  0  0  0
  1 14  1  0  0  0  0
  2  5  1  6  0  0  0
  2  3  1  0  0  0  0
  3  7  1  1  0  0  0
  3 19  1  0  0  0  0
  4 11  1  1  0  0  0
  4 15  1  0  0  0  0
  5 14  2  0  0  0  0
  6  1  2  0  0  0  0
  7  4  1  0  0  0  0
  8 23  1  1  0  0  0
  8 13  1  0  0  0  0
 12 16  1  0  0  0  0
 12  8  1  0  0  0  0
 13  2  1  0  0  0  0
 13 18  1  1  0  0  0
 16  5  1  0  0  0  0
 17  6  1  0  0  0  0
 17 16  2  0  0  0  0
 18 10  1  0  0  0  0
 19 10  1  6  0  0  0
 19 20  1  0  0  0  0
 20 15  1  0  0  0  0
 21 22  2  0  0  0  0
 22 23  1  0  0  0  0
 24 28  1  0  0  0  0
 24 27  1  1  0  0  0
 25 28  1  0  0  0  0
 29 26  1  6  0  0  0
 29 30  1  0  0  0  0
 29 31  1  0  0  0  0
 30 22  1  1  0  0  0
 30 25  1  0  0  0  0
 31 24  1  0  0  0  0
M  END
>  <MODEL>
6

>  <REMARK>
 VINA RESULT:      -7.7      3.582      7.902
  Name = 
  2 active torsions:
  status: ('A' for Active; 'I' for Inactive)
    1  A    between atoms: C_5  and  C_30
    2  A    between atoms: C_10  and  N_16
                            x       y       z     vdW  Elec       q    Type
                         _______ _______ _______ _____ _____    ______ ____

>  <TORSDO>
F 2

$$$$
=
 OpenBabel11112417023D

 31 35  0  0  1  0  0  0  0  0999 V2000
  186.9730  178.5360  147.7030 C   0  0  0  0  0  0  0  0  0  0  0  0
  188.4600  175.7470  145.5830 C   0  0  2  0  0  3  0  0  0  0  0  0
  188.4830  176.2580  144.1210 C   0  0  2  0  0  3  0  0  0  0  0  0
  187.2310  177.5480  142.3750 C   0  0  2  0  0  3  0  0  0  0  0  0
  188.3510  176.8760  146.5860 C   0  0  0  0  0  0  0  0  0  0  0  0
  188.0990  179.0370  148.3590 C   0  0  0  0  0  3  0  0  0  0  0  0
  187.1940  177.0280  143.8040 C   0  0  0  0  0  2  0  0  0  0  0  0
  190.9490  175.7420  145.9930 C   0  0  2  0  0  3  0  0  0  0  0  0
  185.7590  179.0980  147.9170 F   0  0  0  0  0  0  0  0  0  0  0  0
  189.8720  174.4270  143.4310 C   0  0  0  0  0  2  0  0  0  0  0  0
  185.9150  178.2210  142.0450 C   0  0  0  0  0  1  0  0  0  0  0  0
  190.8250  176.7030  147.1740 C   0  0  0  0  0  2  0  0  0  0  0  0
  189.6900  174.8700  145.8820 C   0  0  2  0  0  3  0  0  0  0  0  0
  187.0990  177.4600  146.8230 C   0  0  0  0  0  3  0  0  0  0  0  0
  187.4710  176.3960  141.4110 C   0  0  0  0  0  2  0  0  0  0  0  0
  189.4880  177.3800  147.2580 C   0  0  0  0  0  0  0  0  0  0  0  0
  189.3490  178.4530  148.1440 C   0  0  0  0  0  3  0  0  0  0  0  0
  189.8390  173.7890  144.8130 C   0  0  0  0  0  2  0  0  0  0  0  0
  188.6210  175.1330  143.1730 N   0  0  2  0  0  0  0  0  0  0  0  0
  188.7460  175.6650  141.8160 C   0  0  0  0  0  2  0  0  0  0  0  0
  193.1390  175.5740  144.1730 O   0  0  0  0  0  0  0  0  0  0  0  0
  193.2000  174.8790  145.2250 C   0  0  0  0  0  0  0  0  0  0  0  0
  192.1320  174.9110  146.1730 N   0  0  0  0  0  2  0  0  0  0  0  0
  196.4960  174.3010  143.4510 C   0  0  1  0  0  3  0  0  0  0  0  0
  195.6560  174.8130  145.7610 C   0  0  0  0  0  2  0  0  0  0  0  0
  193.4510  172.2460  144.1120 O   0  0  0  0  0  1  0  0  0  0  0  0
  197.0100  174.8630  142.2840 O   0  0  0  0  0  1  0  0  0  0  0  0
  196.2310  175.4040  144.4730 C   0  0  0  0  0  2  0  0  0  0  0  0
  194.6270  172.9390  144.4020 C   0  0  2  0  0  3  0  0  0  0  0  0
  194.3860  173.9990  145.4920 C   0  0  2  0  0  3  0  0  0  0  0  0
  195.2040  173.5560  143.1310 C   0  0  0  0  0  2  0  0  0  0  0  0
  1  9  1  0  0  0  0
  1  6  1  0  0  0  0
  2 13  1  0  0  0  0
  2  5  1  1  0  0  0
  3  7  1  6  0  0  0
  3  2  1  0  0  0  0
  4 11  1  6  0  0  0
  4  7  1  0  0  0  0
  5 14  1  0  0  0  0
  5 16  2  0  0  0  0
  8 23  1  1  0  0  0
  8 12  1  0  0  0  0
 10 18  1  0  0  0  0
 12 16  1  0  0  0  0
 13 18  1  6  0  0  0
 13  8  1  0  0  0  0
 14  1  2  0  0  0  0
 15 20  1  0  0  0  0
 15  4  1  0  0  0  0
 16 17  1  0  0  0  0
 17  6  2  0  0  0  0
 19 20  1  6  0  0  0
 19 10  1  0  0  0  0
 19  3  1  0  0  0  0
 21 22  2  0  0  0  0
 22 23  1  0  0  0  0
 24 27  1  6  0  0  0
 24 28  1  0  0  0  0
 28 25  1  0  0  0  0
 29 26  1  6  0  0  0
 29 30  1  0  0  0  0
 30 22  1  6  0  0  0
 30 25  1  0  0  0  0
 31 24  1  0  0  0  0
 31 29  1  0  0  0  0
M  END
>  <MODEL>
7

>  <REMARK>
 VINA RESULT:      -7.6      1.528      1.933
  Name = 
  2 active torsions:
  status: ('A' for Active; 'I' for Inactive)
    1  A    between atoms: C_5  and  C_30
    2  A    between atoms: C_10  and  N_16
                            x       y       z     vdW  Elec       q    Type
                         _______ _______ _______ _____ _____    ______ ____

>  <TORSDO>
F 2

$$$$
=
 OpenBabel11112417023D

 31 35  0  0  1  0  0  0  0  0999 V2000
  185.5840  178.3000  140.9720 C   0  0  0  0  0  0  0  0  0  0  0  0
  188.2240  178.0000  143.6960 C   0  0  2  0  0  3  0  0  0  0  0  0
  187.5430  177.3150  144.9070 C   0  0  2  0  0  3  0  0  0  0  0  0
  185.4480  177.1690  146.2760 C   0  0  2  0  0  3  0  0  0  0  0  0
  187.4720  177.7640  142.4040 C   0  0  0  0  0  0  0  0  0  0  0  0
  185.9780  177.3070  140.0720 C   0  0  0  0  0  3  0  0  0  0  0  0
  186.1220  177.8610  145.1000 C   0  0  0  0  0  2  0  0  0  0  0  0
  189.7620  176.1100  143.0420 C   0  0  2  0  0  3  0  0  0  0  0  0
  184.4760  179.0390  140.7220 F   0  0  0  0  0  0  0  0  0  0  0  0
  189.6580  176.9760  145.9910 C   0  0  0  0  0  2  0  0  0  0  0  0
  184.0860  177.7840  146.5140 C   0  0  0  0  0  1  0  0  0  0  0  0
  189.1690  176.0230  141.6370 C   0  0  0  0  0  2  0  0  0  0  0  0
  189.6920  177.5540  143.5610 C   0  0  2  0  0  3  0  0  0  0  0  0
  186.3290  178.5280  142.1300 C   0  0  0  0  0  3  0  0  0  0  0  0
  186.3040  177.3220  147.5250 C   0  0  0  0  0  2  0  0  0  0  0  0
  187.8730  176.7650  141.4870 C   0  0  0  0  0  0  0  0  0  0  0  0
  187.1240  176.5510  140.3250 C   0  0  0  0  0  3  0  0  0  0  0  0
  190.4160  177.7150  144.8970 C   0  0  0  0  0  2  0  0  0  0  0  0
  188.3210  177.5410  146.1440 N   0  0  2  0  0  0  0  0  0  0  0  0
  187.7040  176.7920  147.2390 C   0  0  0  0  0  2  0  0  0  0  0  0
  190.6770  173.5900  144.0140 O   0  0  0  0  0  0  0  0  0  0  0  0
  191.5340  174.3650  143.5070 C   0  0  0  0  0  0  0  0  0  0  0  0
  191.1420  175.6460  143.0100 N   0  0  0  0  0  2  0  0  0  0  0  0
  193.3650  171.0660  143.8430 C   0  0  1  0  0  3  0  0  0  0  0  0
  193.2450  173.0090  142.2580 C   0  0  0  0  0  2  0  0  0  0  0  0
  193.2270  174.2300  145.8190 O   0  0  0  0  0  1  0  0  0  0  0  0
  192.8840  169.7830  144.0980 O   0  0  0  0  0  1  0  0  0  0  0  0
  192.7410  171.5960  142.5550 C   0  0  0  0  0  2  0  0  0  0  0  0
  193.5320  173.3930  144.7450 C   0  0  2  0  0  3  0  0  0  0  0  0
  192.9780  173.9630  143.4280 C   0  0  2  0  0  3  0  0  0  0  0  0
  193.0170  171.9810  145.0130 C   0  0  0  0  0  2  0  0  0  0  0  0
  1 14  1  0  0  0  0
  2  5  1  6  0  0  0
  2  3  1  0  0  0  0
  3  7  1  1  0  0  0
  3 19  1  0  0  0  0
  4 11  1  1  0  0  0
  4 15  1  0  0  0  0
  6 17  1  0  0  0  0
  6  1  2  0  0  0  0
  7  4  1  0  0  0  0
  8 23  1  6  0  0  0
  8 13  1  0  0  0  0
  9  1  1  0  0  0  0
 12  8  1  0  0  0  0
 13  2  1  0  0  0  0
 13 18  1  1  0  0  0
 14  5  2  0  0  0  0
 16 12  1  0  0  0  0
 16  5  1  0  0  0  0
 17 16  2  0  0  0  0
 18 10  1  0  0  0  0
 19 10  1  6  0  0  0
 19 20  1  0  0  0  0
 20 15  1  0  0  0  0
 22 21  2  0  0  0  0
 23 22  1  0  0  0  0
 24 27  1  1  0  0  0
 24 31  1  0  0  0  0
 25 28  1  0  0  0  0
 25 30  1  0  0  0  0
 28 24  1  0  0  0  0
 29 31  1  0  0  0  0
 29 26  1  1  0  0  0
 30 22  1  1  0  0  0
 30 29  1  0  0  0  0
M  END
>  <MODEL>
8

>  <REMARK>
 VINA RESULT:      -7.6      2.402      4.826
  Name = 
  2 active torsions:
  status: ('A' for Active; 'I' for Inactive)
    1  A    between atoms: C_5  and  C_30
    2  A    between atoms: C_10  and  N_16
                            x       y       z     vdW  Elec       q    Type
                         _______ _______ _______ _____ _____    ______ ____

>  <TORSDO>
F 2

$$$$
=
 OpenBabel11112417023D

 31 35  0  0  1  0  0  0  0  0999 V2000
  194.6680  176.7210  145.0840 C   0  0  0  0  0  0  0  0  0  0  0  0
  191.2200  175.5510  143.9790 C   0  0  2  0  0  3  0  0  0  0  0  0
  191.3320  174.0330  143.6910 C   0  0  2  0  0  3  0  0  0  0  0  0
  192.7680  172.2280  142.7100 C   0  0  2  0  0  3  0  0  0  0  0  0
  192.3420  176.0540  144.8600 C   0  0  0  0  0  0  0  0  0  0  0  0
  194.4920  176.8930  146.4580 C   0  0  0  0  0  3  0  0  0  0  0  0
  192.6510  173.7220  142.9710 C   0  0  0  0  0  2  0  0  0  0  0  0
  189.7800  175.4100  146.0460 C   0  0  2  0  0  3  0  0  0  0  0  0
  195.8780  176.9530  144.5210 F   0  0  0  0  0  0  0  0  0  0  0  0
  188.9460  173.8130  143.5540 C   0  0  0  0  0  2  0  0  0  0  0  0
  194.0260  171.9480  141.9160 C   0  0  0  0  0  1  0  0  0  0  0  0
  190.8150  176.1410  146.8990 C   0  0  0  0  0  2  0  0  0  0  0  0
  189.8500  175.8980  144.5910 C   0  0  2  0  0  3  0  0  0  0  0  0
  193.5980  176.3060  144.2900 C   0  0  0  0  0  3  0  0  0  0  0  0
  191.5540  171.7420  141.9330 C   0  0  0  0  0  2  0  0  0  0  0  0
  192.1650  176.2370  146.2510 C   0  0  0  0  0  0  0  0  0  0  0  0
  193.2430  176.6620  147.0360 C   0  0  0  0  0  3  0  0  0  0  0  0
  188.7270  175.3080  143.7390 C   0  0  0  0  0  2  0  0  0  0  0  0
  190.2030  173.5720  142.8550 N   0  0  2  0  0  0  0  0  0  0  0  0
  190.2890  172.1210  142.6950 C   0  0  0  0  0  2  0  0  0  0  0  0
  188.3620  177.8830  145.9500 O   0  0  0  0  0  0  0  0  0  0  0  0
  187.7930  176.9060  146.5090 C   0  0  0  0  0  0  0  0  0  0  0  0
  188.4520  175.6420  146.5990 N   0  0  0  0  0  2  0  0  0  0  0  0
  184.7250  178.9130  145.5540 C   0  0  1  0  0  3  0  0  0  0  0  0
  185.3280  176.5510  146.1510 C   0  0  0  0  0  2  0  0  0  0  0  0
  187.1420  178.9650  148.3980 O   0  0  0  0  0  1  0  0  0  0  0  0
  184.5090  179.7920  144.4940 O   0  0  0  0  0  1  0  0  0  0  0  0
  185.0760  177.5320  145.0060 C   0  0  0  0  0  2  0  0  0  0  0  0
  186.1120  178.4820  147.5900 C   0  0  2  0  0  3  0  0  0  0  0  0
  186.4210  177.0560  147.1000 C   0  0  2  0  0  3  0  0  0  0  0  0
  185.8610  179.4380  146.4270 C   0  0  0  0  0  2  0  0  0  0  0  0
  1  6  1  0  0  0  0
  2 13  1  0  0  0  0
  2  5  1  1  0  0  0
  3  7  1  6  0  0  0
  3  2  1  0  0  0  0
  4 11  1  6  0  0  0
  4  7  1  0  0  0  0
  5 16  2  0  0  0  0
  6 17  2  0  0  0  0
  8 23  1  1  0  0  0
  8 12  1  0  0  0  0
  9  1  1  0  0  0  0
 10 18  1  0  0  0  0
 13 18  1  6  0  0  0
 13  8  1  0  0  0  0
 14  5  1  0  0  0  0
 14  1  2  0  0  0  0
 15 20  1  0  0  0  0
 15  4  1  0  0  0  0
 16 12  1  0  0  0  0
 16 17  1  0  0  0  0
 19 20  1  1  0  0  0
 19 10  1  0  0  0  0
 19  3  1  0  0  0  0
 21 22  2  0  0  0  0
 22 23  1  0  0  0  0
 24 27  1  6  0  0  0
 24 31  1  0  0  0  0
 25 30  1  0  0  0  0
 28 24  1  0  0  0  0
 28 25  1  0  0  0  0
 29 26  1  6  0  0  0
 30 22  1  6  0  0  0
 30 29  1  0  0  0  0
 31 29  1  0  0  0  0
M  END
>  <MODEL>
9

>  <REMARK>
 VINA RESULT:      -7.5      3.570      7.400
  Name = 
  2 active torsions:
  status: ('A' for Active; 'I' for Inactive)
    1  A    between atoms: C_5  and  C_30
    2  A    between atoms: C_10  and  N_16
                            x       y       z     vdW  Elec       q    Type
                         _______ _______ _______ _____ _____    ______ ____

>  <TORSDO>
F 2

$$$$
