=
 OpenBabel11112416163D

 30 35  0  0  1  0  0  0  0  0999 V2000
  187.2130  176.8600  143.9260 C   0  0  1  0  0  3  0  0  0  0  0  0
  185.2280  178.3020  144.6940 C   0  0  2  0  0  3  0  0  0  0  0  0
  189.2430  177.5770  147.6630 C   0  0  0  0  0  2  0  0  0  0  0  0
  188.5240  176.1400  144.3590 C   0  0  1  0  0  3  0  0  0  0  0  0
  186.4430  176.0020  143.1100 O   0  0  0  0  0  0  0  0  0  0  0  0
  189.1270  175.1350  140.7840 O   0  0  0  0  0  1  0  0  0  0  0  0
  191.7390  176.2670  143.7030 C   0  0  1  0  0  3  0  0  0  0  0  0
  188.4710  175.1950  142.0160 C   0  0  2  0  0  3  0  0  0  0  0  0
  191.7060  176.6200  145.1940 C   0  0  2  0  0  3  0  0  0  0  0  0
  190.4320  176.7710  147.3410 C   0  0  0  0  0  0  0  0  0  0  0  0
  187.0910  175.8540  141.8610 C   0  0  2  0  0  3  0  0  0  0  0  0
  189.3210  175.9410  143.0510 C   0  0  2  0  0  3  0  0  0  0  0  0
  184.3570  178.6560  145.9070 C   0  0  0  0  0  2  0  0  0  0  0  0
  192.9090  175.9160  145.7930 C   0  0  0  0  0  2  0  0  0  0  0  0
  193.1360  175.7460  143.4010 C   0  0  0  0  0  2  0  0  0  0  0  0
  184.4190  177.7090  143.7240 O   0  0  0  0  0  1  0  0  0  0  0  0
  188.3770  177.1890  146.4850 C   0  0  2  0  0  3  0  0  0  0  0  0
  185.1390  178.8730  147.1820 C   0  0  0  0  0  3  0  0  0  0  0  0
  186.3680  177.3640  145.1130 C   0  0  2  0  0  3  0  0  0  0  0  0
  189.2580  176.9680  145.3330 N   0  0  1  0  0  0  0  0  0  0  0  0
  191.2960  176.4970  148.1580 O   0  0  0  0  0  0  0  0  0  0  0  0
  190.4020  176.2690  145.9320 C   0  0  1  0  0  3  0  0  0  0  0  0
  193.9320  175.8750  144.6830 C   0  0  0  0  0  2  0  0  0  0  0  0
  190.6470  173.9440  143.9690 C   0  0  0  0  0  1  0  0  0  0  0  0
  186.4440  178.5860  147.2920 C   0  0  0  0  0  3  0  0  0  0  0  0
  187.2500  178.1260  146.1050 C   0  0  1  0  0  3  0  0  0  0  0  0
  190.6850  175.2700  143.2110 C   0  0  2  0  0  3  0  0  0  0  0  0
  187.1260  177.1610  141.0610 C   0  0  0  0  0  2  0  0  0  0  0  0
  185.2890  178.2030  140.4270 C   0  0  0  0  0  1  0  0  0  0  0  0
  186.1310  177.1460  140.0840 O   0  0  0  0  0  0  0  0  0  0  0  0
  1  5  1  1  0  0  0
  1  4  1  0  0  0  0
  1 19  1  0  0  0  0
  2 16  1  6  0  0  0
  2 19  1  0  0  0  0
  2 13  1  0  0  0  0
  4 20  1  0  0  0  0
  6  8  1  0  0  0  0
  7  9  1  0  0  0  0
  8 12  1  0  0  0  0
  9 14  1  0  0  0  0
  9 22  1  0  0  0  0
 10  3  1  0  0  0  0
 10 21  2  0  0  0  0
 11  8  1  0  0  0  0
 11  5  1  0  0  0  0
 12 27  1  0  0  0  0
 12  4  1  0  0  0  0
 13 18  1  0  0  0  0
 15  7  1  0  0  0  0
 15 23  1  0  0  0  0
 17  3  1  0  0  0  0
 18 25  2  0  0  0  0
 19 26  1  0  0  0  0
 20 22  1  0  0  0  0
 20 17  1  0  0  0  0
 22 10  1  0  0  0  0
 23 14  1  0  0  0  0
 26 17  1  0  0  0  0
 26 25  1  0  0  0  0
 27  7  1  0  0  0  0
 27 24  1  0  0  0  0
 28 11  1  0  0  0  0
 30 29  1  0  0  0  0
 30 28  1  0  0  0  0
M  END
>  <MODEL>
1

>  <REMARK>
 VINA RESULT:      -8.4      0.000      0.000
  Name = 
  2 active torsions:
  status: ('A' for Active; 'I' for Inactive)
    1  A    between atoms: C_11  and  C_28
    2  A    between atoms: C_28  and  O_30
                            x       y       z     vdW  Elec       q    Type
                         _______ _______ _______ _____ _____    ______ ____

>  <TORSDO>
F 2

$$$$
=
 OpenBabel11112416163D

 30 35  0  0  1  0  0  0  0  0999 V2000
  190.6560  174.9840  143.8640 C   0  0  1  0  0  3  0  0  0  0  0  0
  192.9170  173.7880  144.1230 C   0  0  2  0  0  3  0  0  0  0  0  0
  191.2350  176.9990  147.6330 C   0  0  0  0  0  2  0  0  0  0  0  0
  189.7300  176.1150  144.4010 C   0  0  1  0  0  3  0  0  0  0  0  0
  190.6870  175.0200  142.4530 O   0  0  0  0  0  0  0  0  0  0  0  0
  187.0650  175.0580  141.9640 O   0  0  0  0  0  1  0  0  0  0  0  0
  186.7720  176.4280  145.7930 C   0  0  1  0  0  3  0  0  0  0  0  0
  188.3030  175.5410  142.3960 C   0  0  2  0  0  3  0  0  0  0  0  0
  187.6970  176.9750  146.8870 C   0  0  2  0  0  3  0  0  0  0  0  0
  189.9680  177.7470  147.5970 C   0  0  0  0  0  0  0  0  0  0  0  0
  189.4320  174.5960  141.9550 C   0  0  2  0  0  3  0  0  0  0  0  0
  188.3130  175.7350  143.9160 C   0  0  2  0  0  3  0  0  0  0  0  0
  194.3630  173.9740  144.6010 C   0  0  0  0  0  2  0  0  0  0  0  0
  186.9550  178.1600  147.4750 C   0  0  0  0  0  2  0  0  0  0  0  0
  185.3900  177.0110  146.0480 C   0  0  0  0  0  2  0  0  0  0  0  0
  192.9330  173.5190  142.7540 O   0  0  0  0  0  1  0  0  0  0  0  0
  191.2110  176.4370  146.2290 C   0  0  2  0  0  3  0  0  0  0  0  0
  194.4840  174.7060  145.9180 C   0  0  0  0  0  3  0  0  0  0  0  0
  192.0880  175.0430  144.4300 C   0  0  2  0  0  3  0  0  0  0  0  0
  189.8120  176.1820  145.8710 N   0  0  1  0  0  0  0  0  0  0  0  0
  189.6890  178.6300  148.3900 O   0  0  0  0  0  0  0  0  0  0  0  0
  189.1180  177.3490  146.4310 C   0  0  1  0  0  3  0  0  0  0  0  0
  185.4910  177.8200  147.3250 C   0  0  0  0  0  2  0  0  0  0  0  0
  187.4560  178.1530  143.9990 C   0  0  0  0  0  1  0  0  0  0  0  0
  193.4450  175.3120  146.5110 C   0  0  0  0  0  3  0  0  0  0  0  0
  192.0510  175.2080  145.9510 C   0  0  1  0  0  3  0  0  0  0  0  0
  187.1970  176.6870  144.3450 C   0  0  2  0  0  3  0  0  0  0  0  0
  189.1490  173.1210  142.2610 C   0  0  0  0  0  2  0  0  0  0  0  0
  190.2720  171.2250  142.3460 C   0  0  0  0  0  1  0  0  0  0  0  0
  190.0000  172.3090  141.5130 O   0  0  0  0  0  0  0  0  0  0  0  0
  1  5  1  6  0  0  0
  1  4  1  0  0  0  0
  1 19  1  0  0  0  0
  2 16  1  6  0  0  0
  2 19  1  0  0  0  0
  2 13  1  0  0  0  0
  4 20  1  0  0  0  0
  6  8  1  0  0  0  0
  7 15  1  0  0  0  0
  7  9  1  0  0  0  0
  8 12  1  0  0  0  0
  9 14  1  0  0  0  0
 10  3  1  0  0  0  0
 10 21  2  0  0  0  0
 11 28  1  0  0  0  0
 11  8  1  0  0  0  0
 11  5  1  0  0  0  0
 12 27  1  0  0  0  0
 12  4  1  0  0  0  0
 13 18  1  0  0  0  0
 15 23  1  0  0  0  0
 17  3  1  0  0  0  0
 18 25  2  0  0  0  0
 19 26  1  0  0  0  0
 20 17  1  0  0  0  0
 20 22  1  0  0  0  0
 22  9  1  0  0  0  0
 22 10  1  0  0  0  0
 23 14  1  0  0  0  0
 24 27  1  0  0  0  0
 26 17  1  0  0  0  0
 26 25  1  0  0  0  0
 27  7  1  0  0  0  0
 30 28  1  0  0  0  0
 30 29  1  0  0  0  0
M  END
>  <MODEL>
2

>  <REMARK>
 VINA RESULT:      -8.0      1.799      5.868
  Name = 
  2 active torsions:
  status: ('A' for Active; 'I' for Inactive)
    1  A    between atoms: C_11  and  C_28
    2  A    between atoms: C_28  and  O_30
                            x       y       z     vdW  Elec       q    Type
                         _______ _______ _______ _____ _____    ______ ____

>  <TORSDO>
F 2

$$$$
=
 OpenBabel11112416163D

 30 35  0  0  1  0  0  0  0  0999 V2000
  187.5630  176.3270  143.5450 C   0  0  1  0  0  3  0  0  0  0  0  0
  185.8410  177.9350  144.5740 C   0  0  2  0  0  3  0  0  0  0  0  0
  189.9610  176.5250  147.1240 C   0  0  0  0  0  2  0  0  0  0  0  0
  188.8050  175.4280  143.8140 C   0  0  1  0  0  3  0  0  0  0  0  0
  186.6300  175.6280  142.7480 O   0  0  0  0  0  0  0  0  0  0  0  0
  188.9900  174.6210  140.1440 O   0  0  0  0  0  1  0  0  0  0  0  0
  191.9480  175.2210  142.8850 C   0  0  1  0  0  3  0  0  0  0  0  0
  188.4480  174.6680  141.4310 C   0  0  2  0  0  3  0  0  0  0  0  0
  192.0790  175.4660  144.3930 C   0  0  2  0  0  3  0  0  0  0  0  0
  191.0110  175.6100  146.6490 C   0  0  0  0  0  0  0  0  0  0  0  0
  187.1530  175.4960  141.4390 C   0  0  2  0  0  3  0  0  0  0  0  0
  189.4640  175.2310  142.4310 C   0  0  2  0  0  3  0  0  0  0  0  0
  185.1200  178.3000  145.8780 C   0  0  0  0  0  2  0  0  0  0  0  0
  193.2300  174.5830  144.8370 C   0  0  0  0  0  2  0  0  0  0  0  0
  193.2410  174.5620  142.4280 C   0  0  0  0  0  2  0  0  0  0  0  0
  184.8900  177.5140  143.6440 O   0  0  0  0  0  1  0  0  0  0  0  0
  188.9610  176.3290  146.0060 C   0  0  2  0  0  3  0  0  0  0  0  0
  186.0230  178.3290  147.0900 C   0  0  0  0  0  3  0  0  0  0  0  0
  186.8860  176.8400  144.8310 C   0  0  2  0  0  3  0  0  0  0  0  0
  189.7120  176.0910  144.7690 N   0  0  1  0  0  0  0  0  0  0  0  0
  191.8970  175.1780  147.3670 O   0  0  0  0  0  0  0  0  0  0  0  0
  190.8050  175.2190  145.2200 C   0  0  1  0  0  3  0  0  0  0  0  0
  194.1480  174.5020  143.6410 C   0  0  0  0  0  2  0  0  0  0  0  0
  190.6010  173.0300  143.1010 C   0  0  0  0  0  1  0  0  0  0  0  0
  187.2870  177.8830  147.0660 C   0  0  0  0  0  3  0  0  0  0  0  0
  187.9320  177.4180  145.7860 C   0  0  1  0  0  3  0  0  0  0  0  0
  190.7430  174.3940  142.4270 C   0  0  2  0  0  3  0  0  0  0  0  0
  187.2850  176.8440  140.7220 C   0  0  0  0  0  2  0  0  0  0  0  0
  185.5350  178.1560  140.4390 C   0  0  0  0  0  1  0  0  0  0  0  0
  186.1840  177.0490  139.8920 O   0  0  0  0  0  0  0  0  0  0  0  0
  1  5  1  1  0  0  0
  1  4  1  0  0  0  0
  1 19  1  0  0  0  0
  2 16  1  6  0  0  0
  2 19  1  0  0  0  0
  2 13  1  0  0  0  0
  4 20  1  0  0  0  0
  6  8  1  0  0  0  0
  7  9  1  0  0  0  0
  8 11  1  0  0  0  0
  8 12  1  0  0  0  0
  9 14  1  0  0  0  0
  9 22  1  0  0  0  0
 10  3  1  0  0  0  0
 10 21  2  0  0  0  0
 11  5  1  0  0  0  0
 12  4  1  0  0  0  0
 13 18  1  0  0  0  0
 15  7  1  0  0  0  0
 15 23  1  0  0  0  0
 17  3  1  0  0  0  0
 19 26  1  0  0  0  0
 20 22  1  0  0  0  0
 20 17  1  0  0  0  0
 22 10  1  0  0  0  0
 23 14  1  0  0  0  0
 25 18  2  0  0  0  0
 26 17  1  0  0  0  0
 26 25  1  0  0  0  0
 27 12  1  0  0  0  0
 27  7  1  0  0  0  0
 27 24  1  0  0  0  0
 28 11  1  0  0  0  0
 30 29  1  0  0  0  0
 30 28  1  0  0  0  0
M  END
>  <MODEL>
3

>  <REMARK>
 VINA RESULT:      -7.7      1.011      1.101
  Name = 
  2 active torsions:
  status: ('A' for Active; 'I' for Inactive)
    1  A    between atoms: C_11  and  C_28
    2  A    between atoms: C_28  and  O_30
                            x       y       z     vdW  Elec       q    Type
                         _______ _______ _______ _____ _____    ______ ____

>  <TORSDO>
F 2

$$$$
=
 OpenBabel11112416163D

 30 35  0  0  1  0  0  0  0  0999 V2000
  188.1070  176.7370  144.1760 C   0  0  1  0  0  3  0  0  0  0  0  0
  186.0530  178.1150  143.4780 C   0  0  2  0  0  3  0  0  0  0  0  0
  188.2910  174.9340  140.2630 C   0  0  0  0  0  2  0  0  0  0  0  0
  189.2720  175.8260  143.6880 C   0  0  1  0  0  3  0  0  0  0  0  0
  188.5980  177.6890  145.0970 O   0  0  0  0  0  0  0  0  0  0  0  0
  190.3370  175.3110  147.2600 O   0  0  0  0  0  1  0  0  0  0  0  0
  190.3280  172.7430  144.0930 C   0  0  1  0  0  3  0  0  0  0  0  0
  190.0700  176.0080  146.0790 C   0  0  2  0  0  3  0  0  0  0  0  0
  190.0270  172.7800  142.5900 C   0  0  2  0  0  3  0  0  0  0  0  0
  189.4710  174.1000  140.5400 C   0  0  0  0  0  0  0  0  0  0  0  0
  188.9430  177.0290  146.3000 C   0  0  2  0  0  3  0  0  0  0  0  0
  189.7190  175.0420  144.9420 C   0  0  2  0  0  3  0  0  0  0  0  0
  185.4330  178.9020  142.3160 C   0  0  0  0  0  2  0  0  0  0  0  0
  191.1420  171.9790  141.9450 C   0  0  0  0  0  2  0  0  0  0  0  0
  191.3220  171.6130  144.3190 C   0  0  0  0  0  2  0  0  0  0  0  0
  186.2790  178.9930  144.5380 O   0  0  0  0  0  1  0  0  0  0  0  0
  188.3000  175.7710  141.5220 C   0  0  2  0  0  3  0  0  0  0  0  0
  185.5550  178.2150  140.9750 C   0  0  0  0  0  3  0  0  0  0  0  0
  187.3580  177.4420  143.0290 C   0  0  2  0  0  3  0  0  0  0  0  0
  188.8000  174.9310  142.6150 N   0  0  1  0  0  0  0  0  0  0  0  0
  190.0660  173.4750  139.6780 O   0  0  0  0  0  0  0  0  0  0  0  0
  189.8890  174.1830  141.9740 C   0  0  1  0  0  3  0  0  0  0  0  0
  191.5300  170.9450  142.9750 C   0  0  0  0  0  2  0  0  0  0  0  0
  192.0880  174.6300  144.0440 C   0  0  0  0  0  1  0  0  0  0  0  0
  186.3080  177.1220  140.7840 C   0  0  0  0  0  3  0  0  0  0  0  0
  187.0020  176.4360  141.9320 C   0  0  1  0  0  3  0  0  0  0  0  0
  190.8510  174.0390  144.7190 C   0  0  2  0  0  3  0  0  0  0  0  0
  187.7220  176.4450  147.0180 C   0  0  0  0  0  2  0  0  0  0  0  0
  185.5960  177.0210  147.1290 C   0  0  0  0  0  1  0  0  0  0  0  0
  186.8790  177.4740  147.4340 O   0  0  0  0  0  0  0  0  0  0  0  0
  1  5  1  1  0  0  0
  2 16  1  1  0  0  0
  3 10  1  0  0  0  0
  3 17  1  0  0  0  0
  4  1  1  0  0  0  0
  4 12  1  0  0  0  0
  5 11  1  0  0  0  0
  7 15  1  0  0  0  0
  7 27  1  0  0  0  0
  8 11  1  0  0  0  0
  8  6  1  0  0  0  0
  9  7  1  0  0  0  0
 10 22  1  0  0  0  0
 11 28  1  0  0  0  0
 12  8  1  0  0  0  0
 13  2  1  0  0  0  0
 14  9  1  0  0  0  0
 14 23  1  0  0  0  0
 17 26  1  0  0  0  0
 17 20  1  0  0  0  0
 18 13  1  0  0  0  0
 19  2  1  0  0  0  0
 19  1  1  0  0  0  0
 20  4  1  0  0  0  0
 21 10  2  0  0  0  0
 22  9  1  0  0  0  0
 22 20  1  0  0  0  0
 23 15  1  0  0  0  0
 24 27  1  0  0  0  0
 25 18  2  0  0  0  0
 25 26  1  0  0  0  0
 26 19  1  0  0  0  0
 27 12  1  0  0  0  0
 28 30  1  0  0  0  0
 29 30  1  0  0  0  0
M  END
>  <MODEL>
4

>  <REMARK>
 VINA RESULT:      -7.4      1.994      5.052
  Name = 
  2 active torsions:
  status: ('A' for Active; 'I' for Inactive)
    1  A    between atoms: C_11  and  C_28
    2  A    between atoms: C_28  and  O_30
                            x       y       z     vdW  Elec       q    Type
                         _______ _______ _______ _____ _____    ______ ____

>  <TORSDO>
F 2

$$$$
=
 OpenBabel11112416163D

 30 35  0  0  1  0  0  0  0  0999 V2000
  188.3840  175.8550  143.6980 C   0  0  1  0  0  3  0  0  0  0  0  0
  186.2110  177.2280  143.7320 C   0  0  2  0  0  3  0  0  0  0  0  0
  189.6330  177.6470  147.4160 C   0  0  0  0  0  2  0  0  0  0  0  0
  189.6300  175.3980  144.5120 C   0  0  1  0  0  3  0  0  0  0  0  0
  187.8330  174.7530  143.0080 O   0  0  0  0  0  0  0  0  0  0  0  0
  190.9510  173.6360  141.4610 O   0  0  0  0  0  1  0  0  0  0  0  0
  192.8990  175.6940  144.3930 C   0  0  1  0  0  3  0  0  0  0  0  0
  190.0730  173.9210  142.5110 C   0  0  2  0  0  3  0  0  0  0  0  0
  192.5660  176.3870  145.7190 C   0  0  2  0  0  3  0  0  0  0  0  0
  190.9050  176.9150  147.5130 C   0  0  0  0  0  0  0  0  0  0  0  0
  188.7110  174.3790  141.9640 C   0  0  2  0  0  3  0  0  0  0  0  0
  190.6690  174.9750  143.4500 C   0  0  2  0  0  3  0  0  0  0  0  0
  185.1090  177.7700  144.6510 C   0  0  0  0  0  2  0  0  0  0  0  0
  193.6740  175.9740  146.6690 C   0  0  0  0  0  2  0  0  0  0  0  0
  194.3550  175.2620  144.4710 C   0  0  0  0  0  2  0  0  0  0  0  0
  185.6340  176.3410  142.8220 O   0  0  0  0  0  1  0  0  0  0  0  0
  189.0270  176.9030  146.2480 C   0  0  2  0  0  3  0  0  0  0  0  0
  185.6240  178.3630  145.9420 C   0  0  0  0  0  3  0  0  0  0  0  0
  187.3050  176.5390  144.5600 C   0  0  2  0  0  3  0  0  0  0  0  0
  190.1190  176.5060  145.3530 N   0  0  1  0  0  0  0  0  0  0  0  0
  191.6150  176.9340  148.5050 O   0  0  0  0  0  0  0  0  0  0  0  0
  191.1690  176.0910  146.2930 C   0  0  1  0  0  3  0  0  0  0  0  0
  194.8880  175.7740  145.7930 C   0  0  0  0  0  2  0  0  0  0  0  0
  191.9120  173.4020  145.0520 C   0  0  0  0  0  1  0  0  0  0  0  0
  186.9000  178.2460  146.3380 C   0  0  0  0  0  3  0  0  0  0  0  0
  187.9390  177.6020  145.4590 C   0  0  1  0  0  3  0  0  0  0  0  0
  192.0150  174.5060  144.0010 C   0  0  2  0  0  3  0  0  0  0  0  0
  188.8200  175.4530  140.8770 C   0  0  0  0  0  2  0  0  0  0  0  0
  188.4260  174.2070  139.1010 C   0  0  0  0  0  1  0  0  0  0  0  0
  187.8710  175.2190  139.8820 O   0  0  0  0  0  0  0  0  0  0  0  0
  1  5  1  1  0  0  0
  1  4  1  0  0  0  0
  1 19  1  0  0  0  0
  2 16  1  6  0  0  0
  2 19  1  0  0  0  0
  2 13  1  0  0  0  0
  3 10  1  0  0  0  0
  4 20  1  0  0  0  0
  6  8  1  0  0  0  0
  7 15  1  0  0  0  0
  7  9  1  0  0  0  0
  8 12  1  0  0  0  0
  9 22  1  0  0  0  0
  9 14  1  0  0  0  0
 10 21  2  0  0  0  0
 11  8  1  0  0  0  0
 11  5  1  0  0  0  0
 12 27  1  0  0  0  0
 12  4  1  0  0  0  0
 13 18  1  0  0  0  0
 15 23  1  0  0  0  0
 17  3  1  0  0  0  0
 18 25  2  0  0  0  0
 19 26  1  0  0  0  0
 20 17  1  0  0  0  0
 20 22  1  0  0  0  0
 22 10  1  0  0  0  0
 23 14  1  0  0  0  0
 26 17  1  0  0  0  0
 26 25  1  0  0  0  0
 27  7  1  0  0  0  0
 27 24  1  0  0  0  0
 28 11  1  0  0  0  0
 29 30  1  0  0  0  0
 30 28  1  0  0  0  0
M  END
>  <MODEL>
5

>  <REMARK>
 VINA RESULT:      -7.4      1.380      1.838
  Name = 
  2 active torsions:
  status: ('A' for Active; 'I' for Inactive)
    1  A    between atoms: C_11  and  C_28
    2  A    between atoms: C_28  and  O_30
                            x       y       z     vdW  Elec       q    Type
                         _______ _______ _______ _____ _____    ______ ____

>  <TORSDO>
F 2

$$$$
=
 OpenBabel11112416163D

 30 35  0  0  1  0  0  0  0  0999 V2000
  189.2950  175.6250  143.8770 C   0  0  1  0  0  3  0  0  0  0  0  0
  190.8880  174.3570  145.4450 C   0  0  2  0  0  3  0  0  0  0  0  0
  187.6100  177.7520  147.2290 C   0  0  0  0  0  2  0  0  0  0  0  0
  188.2910  176.8080  143.7450 C   0  0  1  0  0  3  0  0  0  0  0  0
  190.1650  175.6090  142.7640 O   0  0  0  0  0  0  0  0  0  0  0  0
  187.5600  175.7640  140.2050 O   0  0  0  0  0  1  0  0  0  0  0  0
  185.1090  177.2810  143.0880 C   0  0  1  0  0  3  0  0  0  0  0  0
  188.3170  176.2160  141.2880 C   0  0  2  0  0  3  0  0  0  0  0  0
  185.2240  177.8320  144.5140 C   0  0  2  0  0  3  0  0  0  0  0  0
  186.6560  178.5440  146.4370 C   0  0  0  0  0  0  0  0  0  0  0  0
  189.4360  175.2140  141.6180 C   0  0  2  0  0  3  0  0  0  0  0  0
  187.4270  176.4640  142.5110 C   0  0  2  0  0  3  0  0  0  0  0  0
  191.7700  174.5060  146.6930 C   0  0  0  0  0  2  0  0  0  0  0  0
  184.3390  179.0640  144.5330 C   0  0  0  0  0  2  0  0  0  0  0  0
  183.8810  177.9240  142.4620 C   0  0  0  0  0  2  0  0  0  0  0  0
  191.7050  174.0380  144.3600 O   0  0  0  0  0  1  0  0  0  0  0  0
  188.4010  177.1410  146.0940 C   0  0  2  0  0  3  0  0  0  0  0  0
  191.1170  175.2800  147.8150 C   0  0  0  0  0  3  0  0  0  0  0  0
  190.1060  175.6520  145.1870 C   0  0  2  0  0  3  0  0  0  0  0  0
  187.4820  176.9250  144.9720 N   0  0  1  0  0  0  0  0  0  0  0  0
  186.0040  179.4660  146.8990 O   0  0  0  0  0  0  0  0  0  0  0  0
  186.6520  178.1370  144.9970 C   0  0  1  0  0  3  0  0  0  0  0  0
  183.2390  178.7740  143.5390 C   0  0  0  0  0  2  0  0  0  0  0  0
  186.8160  178.9130  142.0490 C   0  0  0  0  0  1  0  0  0  0  0  0
  189.9630  175.9450  147.6640 C   0  0  0  0  0  3  0  0  0  0  0  0
  189.1760  175.8720  146.3820 C   0  0  1  0  0  3  0  0  0  0  0  0
  186.3270  177.4720  142.1800 C   0  0  2  0  0  3  0  0  0  0  0  0
  188.9510  173.7630  141.7030 C   0  0  0  0  0  2  0  0  0  0  0  0
  190.6060  172.3400  141.3870 C   0  0  0  0  0  1  0  0  0  0  0  0
  189.5720  172.9960  140.7190 O   0  0  0  0  0  0  0  0  0  0  0  0
  1  5  1  6  0  0  0
  1 19  1  0  0  0  0
  2 16  1  6  0  0  0
  2 13  1  0  0  0  0
  4  1  1  0  0  0  0
  4 20  1  0  0  0  0
  6  8  1  0  0  0  0
  7  9  1  0  0  0  0
  8 11  1  0  0  0  0
  8 12  1  0  0  0  0
  9 14  1  0  0  0  0
  9 22  1  0  0  0  0
 10 21  2  0  0  0  0
 10  3  1  0  0  0  0
 11 28  1  0  0  0  0
 11  5  1  0  0  0  0
 12  4  1  0  0  0  0
 13 18  1  0  0  0  0
 15  7  1  0  0  0  0
 15 23  1  0  0  0  0
 17 26  1  0  0  0  0
 17  3  1  0  0  0  0
 19  2  1  0  0  0  0
 19 26  1  0  0  0  0
 20 22  1  0  0  0  0
 20 17  1  0  0  0  0
 22 10  1  0  0  0  0
 23 14  1  0  0  0  0
 24 27  1  0  0  0  0
 25 18  2  0  0  0  0
 26 25  1  0  0  0  0
 27 12  1  0  0  0  0
 27  7  1  0  0  0  0
 30 29  1  0  0  0  0
 30 28  1  0  0  0  0
M  END
>  <MODEL>
6

>  <REMARK>
 VINA RESULT:      -7.2      2.000      5.672
  Name = 
  2 active torsions:
  status: ('A' for Active; 'I' for Inactive)
    1  A    between atoms: C_11  and  C_28
    2  A    between atoms: C_28  and  O_30
                            x       y       z     vdW  Elec       q    Type
                         _______ _______ _______ _____ _____    ______ ____

>  <TORSDO>
F 2

$$$$
=
 OpenBabel11112416163D

 30 35  0  0  1  0  0  0  0  0999 V2000
  188.6550  175.1930  141.7360 C   0  0  1  0  0  3  0  0  0  0  0  0
  187.3820  176.5120  139.9330 C   0  0  2  0  0  3  0  0  0  0  0  0
  187.3970  178.0060  144.7530 C   0  0  0  0  0  2  0  0  0  0  0  0
  188.8890  174.9990  143.2620 C   0  0  1  0  0  3  0  0  0  0  0  0
  188.5010  173.9350  141.1120 O   0  0  0  0  0  0  0  0  0  0  0  0
  191.5170  172.4140  142.5080 O   0  0  0  0  0  1  0  0  0  0  0  0
  191.3410  175.2490  145.4330 C   0  0  1  0  0  3  0  0  0  0  0  0
  190.2470  172.9950  142.5350 C   0  0  2  0  0  3  0  0  0  0  0  0
  190.3540  176.3030  145.9470 C   0  0  2  0  0  3  0  0  0  0  0  0
  188.0780  177.3370  145.8720 C   0  0  0  0  0  0  0  0  0  0  0  0
  189.7500  173.2700  141.1070 C   0  0  2  0  0  3  0  0  0  0  0  0
  190.2530  174.2810  143.3690 C   0  0  2  0  0  3  0  0  0  0  0  0
  186.0940  177.3000  139.6600 C   0  0  0  0  0  2  0  0  0  0  0  0
  190.4090  176.1910  147.4590 C   0  0  0  0  0  2  0  0  0  0  0  0
  192.2280  174.8610  146.6070 C   0  0  0  0  0  2  0  0  0  0  0  0
  187.4040  175.3950  139.0970 O   0  0  0  0  0  1  0  0  0  0  0  0
  187.6030  176.9490  143.6920 C   0  0  2  0  0  3  0  0  0  0  0  0
  185.7090  178.2500  140.7710 C   0  0  0  0  0  3  0  0  0  0  0  0
  187.4510  176.0990  141.4100 C   0  0  2  0  0  3  0  0  0  0  0  0
  188.8970  176.3060  143.9440 N   0  0  1  0  0  0  0  0  0  0  0  0
  187.9120  177.6490  147.0400 O   0  0  0  0  0  0  0  0  0  0  0  0
  188.9170  176.1880  145.4080 C   0  0  1  0  0  3  0  0  0  0  0  0
  191.8170  175.7420  147.7680 C   0  0  0  0  0  2  0  0  0  0  0  0
  189.7210  173.2540  145.6600 C   0  0  0  0  0  1  0  0  0  0  0  0
  186.3190  178.2560  141.9660 C   0  0  0  0  0  3  0  0  0  0  0  0
  187.5130  177.3820  142.2430 C   0  0  1  0  0  3  0  0  0  0  0  0
  190.7340  173.9970  144.7920 C   0  0  2  0  0  3  0  0  0  0  0  0
  190.7860  173.9750  140.2240 C   0  0  0  0  0  2  0  0  0  0  0  0
  190.7440  172.2180  138.8930 C   0  0  0  0  0  1  0  0  0  0  0  0
  190.6040  173.6050  138.8930 O   0  0  0  0  0  0  0  0  0  0  0  0
  1  5  1  6  0  0  0
  1  4  1  0  0  0  0
  2 16  1  6  0  0  0
  2 19  1  0  0  0  0
  3 10  1  0  0  0  0
  4 12  1  0  0  0  0
  4 20  1  0  0  0  0
  6  8  1  0  0  0  0
  7  9  1  0  0  0  0
  7 15  1  0  0  0  0
  8 12  1  0  0  0  0
  9 14  1  0  0  0  0
 10 21  2  0  0  0  0
 11  5  1  0  0  0  0
 11  8  1  0  0  0  0
 12 27  1  0  0  0  0
 13  2  1  0  0  0  0
 13 18  1  0  0  0  0
 14 23  1  0  0  0  0
 15 23  1  0  0  0  0
 17 20  1  0  0  0  0
 17  3  1  0  0  0  0
 18 25  2  0  0  0  0
 19  1  1  0  0  0  0
 19 26  1  0  0  0  0
 20 22  1  0  0  0  0
 22 10  1  0  0  0  0
 22  9  1  0  0  0  0
 25 26  1  0  0  0  0
 26 17  1  0  0  0  0
 27  7  1  0  0  0  0
 27 24  1  0  0  0  0
 28 11  1  0  0  0  0
 30 29  1  0  0  0  0
 30 28  1  0  0  0  0
M  END
>  <MODEL>
7

>  <REMARK>
 VINA RESULT:      -7.1      2.090      4.096
  Name = 
  2 active torsions:
  status: ('A' for Active; 'I' for Inactive)
    1  A    between atoms: C_11  and  C_28
    2  A    between atoms: C_28  and  O_30
                            x       y       z     vdW  Elec       q    Type
                         _______ _______ _______ _____ _____    ______ ____

>  <TORSDO>
F 2

$$$$
=
 OpenBabel11112416163D

 30 35  0  0  1  0  0  0  0  0999 V2000
  192.1210  175.2050  144.7250 C   0  0  1  0  0  3  0  0  0  0  0  0
  193.8670  174.6000  142.9380 C   0  0  2  0  0  3  0  0  0  0  0  0
  188.9660  174.9640  141.7960 C   0  0  0  0  0  2  0  0  0  0  0  0
  190.6050  175.2830  145.0680 C   0  0  1  0  0  3  0  0  0  0  0  0
  192.8250  174.6180  145.8000 O   0  0  0  0  0  0  0  0  0  0  0  0
  191.4590  176.7790  148.4120 O   0  0  0  0  0  1  0  0  0  0  0  0
  188.3700  177.5530  145.8660 C   0  0  1  0  0  3  0  0  0  0  0  0
  191.4240  175.8200  147.3970 C   0  0  2  0  0  3  0  0  0  0  0  0
  187.8140  177.0120  144.5440 C   0  0  2  0  0  3  0  0  0  0  0  0
  187.8750  175.2950  142.7260 C   0  0  0  0  0  0  0  0  0  0  0  0
  192.8430  175.5250  146.8860 C   0  0  2  0  0  3  0  0  0  0  0  0
  190.5120  176.2720  146.2500 C   0  0  2  0  0  3  0  0  0  0  0  0
  194.1190  173.7150  141.7090 C   0  0  0  0  0  2  0  0  0  0  0  0
  186.3110  176.9540  144.7420 C   0  0  0  0  0  2  0  0  0  0  0  0
  187.2030  178.1770  146.6160 C   0  0  0  0  0  2  0  0  0  0  0  0
  194.7690  174.2380  143.9380 O   0  0  0  0  0  1  0  0  0  0  0  0
  190.0850  174.8050  142.8000 C   0  0  2  0  0  3  0  0  0  0  0  0
  192.9600  173.6660  140.7400 C   0  0  0  0  0  3  0  0  0  0  0  0
  192.4170  174.4450  143.4170 C   0  0  2  0  0  3  0  0  0  0  0  0
  189.8440  175.7510  143.8950 N   0  0  1  0  0  0  0  0  0  0  0  0
  186.6940  175.2080  142.4320 O   0  0  0  0  0  0  0  0  0  0  0  0
  188.3900  175.6620  144.0820 C   0  0  1  0  0  3  0  0  0  0  0  0
  185.9980  178.0770  145.7030 C   0  0  0  0  0  2  0  0  0  0  0  0
  188.3010  175.2940  147.1120 C   0  0  0  0  0  1  0  0  0  0  0  0
  191.7550  174.1810  141.0220 C   0  0  0  0  0  3  0  0  0  0  0  0
  191.5060  174.9470  142.2950 C   0  0  1  0  0  3  0  0  0  0  0  0
  189.0990  176.5490  146.7640 C   0  0  2  0  0  3  0  0  0  0  0  0
  193.6580  176.7870  146.5820 C   0  0  0  0  0  2  0  0  0  0  0  0
  195.2490  177.3760  145.1740 C   0  0  0  0  0  1  0  0  0  0  0  0
  194.9360  176.4340  146.1530 O   0  0  0  0  0  0  0  0  0  0  0  0
  1  4  1  0  0  0  0
  1  5  1  1  0  0  0
  2 19  1  0  0  0  0
  2 16  1  1  0  0  0
  3 10  1  0  0  0  0
  3 17  1  0  0  0  0
  4 12  1  0  0  0  0
  5 11  1  0  0  0  0
  7 15  1  0  0  0  0
  7 27  1  0  0  0  0
  8  6  1  0  0  0  0
  9 14  1  0  0  0  0
  9  7  1  0  0  0  0
 10 22  1  0  0  0  0
 11  8  1  0  0  0  0
 12 27  1  0  0  0  0
 12  8  1  0  0  0  0
 13  2  1  0  0  0  0
 14 23  1  0  0  0  0
 17 20  1  0  0  0  0
 18 25  2  0  0  0  0
 18 13  1  0  0  0  0
 19  1  1  0  0  0  0
 20 22  1  0  0  0  0
 20  4  1  0  0  0  0
 21 10  2  0  0  0  0
 22  9  1  0  0  0  0
 23 15  1  0  0  0  0
 25 26  1  0  0  0  0
 26 17  1  0  0  0  0
 26 19  1  0  0  0  0
 27 24  1  0  0  0  0
 28 11  1  0  0  0  0
 29 30  1  0  0  0  0
 30 28  1  0  0  0  0
M  END
>  <MODEL>
8

>  <REMARK>
 VINA RESULT:      -7.1      2.041      7.343
  Name = 
  2 active torsions:
  status: ('A' for Active; 'I' for Inactive)
    1  A    between atoms: C_11  and  C_28
    2  A    between atoms: C_28  and  O_30
                            x       y       z     vdW  Elec       q    Type
                         _______ _______ _______ _____ _____    ______ ____

>  <TORSDO>
F 2

$$$$
=
 OpenBabel11112416163D

 30 35  0  0  1  0  0  0  0  0999 V2000
  187.5930  176.4300  141.2860 C   0  0  1  0  0  3  0  0  0  0  0  0
  187.1430  175.4360  138.9590 C   0  0  2  0  0  3  0  0  0  0  0  0
  190.4890  173.3410  142.1020 C   0  0  0  0  0  2  0  0  0  0  0  0
  188.5220  176.4130  142.5350 C   0  0  1  0  0  3  0  0  0  0  0  0
  187.3160  177.7650  140.9150 O   0  0  0  0  0  0  0  0  0  0  0  0
  186.2620  178.9010  144.2260 O   0  0  0  0  0  1  0  0  0  0  0  0
  188.3320  175.7320  145.7420 C   0  0  1  0  0  3  0  0  0  0  0  0
  187.1460  178.4020  143.2650 C   0  0  2  0  0  3  0  0  0  0  0  0
  189.3410  174.6860  145.2550 C   0  0  2  0  0  3  0  0  0  0  0  0
  190.8380  173.8170  143.4500 C   0  0  0  0  0  0  0  0  0  0  0  0
  186.4670  178.3450  141.8870 C   0  0  2  0  0  3  0  0  0  0  0  0
  187.6740  177.0230  143.6730 C   0  0  2  0  0  3  0  0  0  0  0  0
  187.8160  174.7720  137.7500 C   0  0  0  0  0  2  0  0  0  0  0  0
  190.3830  174.6010  146.3550 C   0  0  0  0  0  2  0  0  0  0  0  0
  188.5620  175.9100  147.2360 C   0  0  0  0  0  2  0  0  0  0  0  0
  186.5860  176.6470  138.5470 O   0  0  0  0  0  1  0  0  0  0  0  0
  189.6390  174.5090  141.6570 C   0  0  2  0  0  3  0  0  0  0  0  0
  188.8320  173.7150  138.1180 C   0  0  0  0  0  3  0  0  0  0  0  0
  188.1640  175.6510  140.0850 C   0  0  2  0  0  3  0  0  0  0  0  0
  188.9400  175.0310  142.8360 N   0  0  1  0  0  0  0  0  0  0  0  0
  191.7690  173.3690  144.0980 O   0  0  0  0  0  0  0  0  0  0  0  0
  189.9720  174.9600  143.8790 C   0  0  1  0  0  3  0  0  0  0  0  0
  189.6350  174.9160  147.6290 C   0  0  0  0  0  2  0  0  0  0  0  0
  189.7240  177.7810  145.0190 C   0  0  0  0  0  1  0  0  0  0  0  0
  189.2530  173.5170  139.3760 C   0  0  0  0  0  3  0  0  0  0  0  0
  188.6520  174.2720  140.5330 C   0  0  1  0  0  3  0  0  0  0  0  0
  188.3610  177.0920  145.0370 C   0  0  2  0  0  3  0  0  0  0  0  0
  185.0800  177.6940  141.9170 C   0  0  0  0  0  2  0  0  0  0  0  0
  183.4880  178.2910  140.5130 C   0  0  0  0  0  1  0  0  0  0  0  0
  184.0980  178.6620  141.7110 O   0  0  0  0  0  0  0  0  0  0  0  0
  1  5  1  6  0  0  0
  1  4  1  0  0  0  0
  2 16  1  6  0  0  0
  2 19  1  0  0  0  0
  3 10  1  0  0  0  0
  4 20  1  0  0  0  0
  4 12  1  0  0  0  0
  5 11  1  0  0  0  0
  7 15  1  0  0  0  0
  8 12  1  0  0  0  0
  8  6  1  0  0  0  0
  9  7  1  0  0  0  0
  9 14  1  0  0  0  0
 10 22  1  0  0  0  0
 10 21  2  0  0  0  0
 11 28  1  0  0  0  0
 11  8  1  0  0  0  0
 12 27  1  0  0  0  0
 13 18  1  0  0  0  0
 13  2  1  0  0  0  0
 14 23  1  0  0  0  0
 15 23  1  0  0  0  0
 17  3  1  0  0  0  0
 17 20  1  0  0  0  0
 18 25  2  0  0  0  0
 19 26  1  0  0  0  0
 19  1  1  0  0  0  0
 20 22  1  0  0  0  0
 22  9  1  0  0  0  0
 24 27  1  0  0  0  0
 25 26  1  0  0  0  0
 26 17  1  0  0  0  0
 27  7  1  0  0  0  0
 29 30  1  0  0  0  0
 30 28  1  0  0  0  0
M  END
>  <MODEL>
9

>  <REMARK>
 VINA RESULT:      -7.0      2.489      5.292
  Name = 
  2 active torsions:
  status: ('A' for Active; 'I' for Inactive)
    1  A    between atoms: C_11  and  C_28
    2  A    between atoms: C_28  and  O_30
                            x       y       z     vdW  Elec       q    Type
                         _______ _______ _______ _____ _____    ______ ____

>  <TORSDO>
F 2

$$$$
