=
 OpenBabel11112416323D

 32 38  0  0  1  0  0  0  0  0999 V2000
  192.4000  174.9230  144.4170 C   0  0  1  0  0  3  0  0  0  0  0  0
  187.5940  177.0070  143.6340 C   0  0  0  0  0  0  0  0  0  0  0  0
  186.1470  178.2820  148.1280 C   0  0  0  0  0  3  0  0  0  0  0  0
  184.9040  178.6650  147.6280 C   0  0  0  0  0  3  0  0  0  0  0  0
  186.0220  177.3110  141.7070 C   0  0  0  0  0  0  0  0  0  0  0  0
  184.7600  177.7160  141.2900 C   0  0  0  0  0  0  0  0  0  0  0  0
  190.0370  176.4220  143.2950 C   0  0  1  0  0  3  0  0  0  0  0  0
  189.2170  176.8080  145.6000 C   0  0  0  0  0  2  0  0  0  0  0  0
  182.7410  178.4950  141.4330 N   0  0  0  0  0  0  0  0  0  0  0  0
  191.4220  175.6380  145.3500 C   0  0  2  0  0  3  0  0  0  0  0  0
  187.1180  177.7760  147.2640 C   0  0  0  0  0  3  0  0  0  0  0  0
  187.8500  177.1260  145.0270 C   0  0  0  0  0  0  0  0  0  0  0  0
  186.8640  177.6440  145.8870 C   0  0  0  0  0  0  0  0  0  0  0  0
  185.3310  177.9210  144.0010 C   0  0  0  0  0  0  0  0  0  0  0  0
  183.0080  178.2030  140.1660 N   0  0  0  0  0  0  0  0  0  0  0  0
  191.8060  174.5800  143.0340 C   0  0  0  0  0  2  0  0  0  0  0  0
  190.0310  175.8720  144.7230 C   0  0  2  0  0  3  0  0  0  0  0  0
  184.2450  177.7220  140.0440 N   0  0  0  0  0  0  0  0  0  0  0  0
  191.0050  175.6990  142.3560 C   0  0  0  0  0  2  0  0  0  0  0  0
  192.5490  176.4180  144.6800 C   0  0  1  0  0  3  0  0  0  0  0  0
  184.6360  178.5440  146.2650 C   0  0  0  0  0  3  0  0  0  0  0  0
  185.6040  178.0350  145.3790 C   0  0  0  0  0  0  0  0  0  0  0  0
  184.0660  178.3180  143.5060 C   0  0  0  0  0  3  0  0  0  0  0  0
  188.6240  176.3430  142.7450 C   0  0  0  0  0  2  0  0  0  0  0  0
  186.9230  176.8460  140.7560 O   0  0  0  0  0  1  0  0  0  0  0  0
  181.4840  179.0410  141.9120 C   0  0  0  0  0  1  0  0  0  0  0  0
  186.3330  177.4030  143.1040 C   0  0  0  0  0  0  0  0  0  0  0  0
  183.8310  178.1940  142.1480 C   0  0  0  0  0  0  0  0  0  0  0  0
  193.5940  176.6280  145.6180 O   0  0  0  0  0  0  0  0  0  0  0  0
  194.8680  176.0820  145.4500 C   0  0  0  0  0  0  0  0  0  0  0  0
  195.7110  176.4160  144.2650 C   0  0  0  0  0  1  0  0  0  0  0  0
  195.3170  175.2880  146.3160 O   0  0  0  0  0  0  0  0  0  0  0  0
  1 16  1  6  0  0  0
  1 20  1  0  0  0  0
  1 10  1  0  0  0  0
  2 12  1  0  0  0  0
  4  3  1  0  0  0  0
  5 27  1  0  0  0  0
  6  5  2  0  0  0  0
  6 28  1  0  0  0  0
  7 19  1  6  0  0  0
  7 17  1  0  0  0  0
  9 26  1  0  0  0  0
  9 28  1  0  0  0  0
 11  3  2  0  0  0  0
 12  8  1  0  0  0  0
 12 13  2  0  0  0  0
 13 11  1  0  0  0  0
 14 22  2  0  0  0  0
 15  9  1  0  0  0  0
 17 10  1  0  0  0  0
 17  8  1  0  0  0  0
 18 15  2  0  0  0  0
 18  6  1  0  0  0  0
 19 16  1  0  0  0  0
 20 10  1  0  0  0  0
 20 29  1  0  0  0  0
 21  4  2  0  0  0  0
 22 13  1  0  0  0  0
 22 21  1  0  0  0  0
 23 14  1  0  0  0  0
 24  7  1  0  0  0  0
 24  2  1  0  0  0  0
 25  5  1  0  0  0  0
 27  2  2  0  0  0  0
 27 14  1  0  0  0  0
 28 23  2  0  0  0  0
 30 29  1  0  0  0  0
 30 32  2  0  0  0  0
 31 30  1  0  0  0  0
M  END
>  <MODEL>
1

>  <REMARK>
 VINA RESULT:      -9.5      0.000      0.000
  Name = 
  2 active torsions:
  status: ('A' for Active; 'I' for Inactive)
    1  A    between atoms: C_20  and  O_29
    2  A    between atoms: O_29  and  C_30
                            x       y       z     vdW  Elec       q    Type
                         _______ _______ _______ _____ _____    ______ ____

>  <TORSDO>
F 2

$$$$
=
 OpenBabel11112416323D

 32 38  0  0  1  0  0  0  0  0999 V2000
  185.0410  177.4880  146.4710 C   0  0  1  0  0  3  0  0  0  0  0  0
  189.8560  175.9630  144.8720 C   0  0  0  0  0  0  0  0  0  0  0  0
  189.0360  174.0000  140.4680 C   0  0  0  0  0  3  0  0  0  0  0  0
  190.3760  173.6280  140.3760 C   0  0  0  0  0  3  0  0  0  0  0  0
  192.1690  175.9000  145.8310 C   0  0  0  0  0  0  0  0  0  0  0  0
  193.4870  175.4960  145.6600 C   0  0  0  0  0  0  0  0  0  0  0  0
  188.0020  177.3370  145.9220 C   0  0  1  0  0  3  0  0  0  0  0  0
  187.5270  176.1090  143.8250 C   0  0  0  0  0  2  0  0  0  0  0  0
  195.2150  174.6030  144.7020 N   0  0  0  0  0  0  0  0  0  0  0  0
  185.5570  176.9200  145.1480 C   0  0  2  0  0  3  0  0  0  0  0  0
  188.5770  174.6680  141.6030 C   0  0  0  0  0  3  0  0  0  0  0  0
  188.9700  175.6430  143.8070 C   0  0  0  0  0  0  0  0  0  0  0  0
  189.4470  174.9750  142.6650 C   0  0  0  0  0  0  0  0  0  0  0  0
  191.6980  174.9050  143.6170 C   0  0  0  0  0  0  0  0  0  0  0  0
  195.5780  175.1070  145.8750 N   0  0  0  0  0  0  0  0  0  0  0  0
  186.0760  177.4390  147.6160 C   0  0  0  0  0  2  0  0  0  0  0  0
  187.0100  176.4060  145.2220 C   0  0  2  0  0  3  0  0  0  0  0  0
  194.5350  175.6650  146.4900 N   0  0  0  0  0  0  0  0  0  0  0  0
  187.4940  177.8950  147.2530 C   0  0  0  0  0  2  0  0  0  0  0  0
  185.4160  178.4270  145.3300 C   0  0  1  0  0  3  0  0  0  0  0  0
  191.2530  173.9260  141.4180 C   0  0  0  0  0  3  0  0  0  0  0  0
  190.8070  174.5990  142.5710 C   0  0  0  0  0  0  0  0  0  0  0  0
  193.0570  174.5240  143.5090 C   0  0  0  0  0  3  0  0  0  0  0  0
  189.3000  176.5790  146.1390 C   0  0  0  0  0  2  0  0  0  0  0  0
  191.8250  176.5840  146.9920 O   0  0  0  0  0  1  0  0  0  0  0  0
  196.1080  173.9280  143.7760 C   0  0  0  0  0  1  0  0  0  0  0  0
  191.2290  175.5990  144.7900 C   0  0  0  0  0  0  0  0  0  0  0  0
  193.9070  174.8400  144.5550 C   0  0  0  0  0  0  0  0  0  0  0  0
  184.2340  178.8690  144.6790 O   0  0  0  0  0  0  0  0  0  0  0  0
  184.0390  178.7180  143.3050 C   0  0  0  0  0  0  0  0  0  0  0  0
  185.1880  178.6450  142.3550 C   0  0  0  0  0  1  0  0  0  0  0  0
  182.8670  178.6420  142.8530 O   0  0  0  0  0  0  0  0  0  0  0  0
  1 16  1  1  0  0  0
  2 24  1  0  0  0  0
  3 11  1  0  0  0  0
  4  3  2  0  0  0  0
  4 21  1  0  0  0  0
  5 25  1  0  0  0  0
  6  5  1  0  0  0  0
  6 18  1  0  0  0  0
  7 24  1  1  0  0  0
  7 19  1  0  0  0  0
  8 17  1  0  0  0  0
  9 15  1  0  0  0  0
 10 17  1  0  0  0  0
 10 20  1  0  0  0  0
 10  1  1  0  0  0  0
 11 13  2  0  0  0  0
 12  8  1  0  0  0  0
 12  2  2  0  0  0  0
 13 12  1  0  0  0  0
 14 27  1  0  0  0  0
 15 18  2  0  0  0  0
 17  7  1  0  0  0  0
 19 16  1  0  0  0  0
 20  1  1  0  0  0  0
 21 22  2  0  0  0  0
 22 13  1  0  0  0  0
 22 14  1  0  0  0  0
 23 14  2  0  0  0  0
 23 28  1  0  0  0  0
 26  9  1  0  0  0  0
 27  2  1  0  0  0  0
 27  5  2  0  0  0  0
 28  9  1  0  0  0  0
 28  6  2  0  0  0  0
 29 20  1  0  0  0  0
 30 29  1  0  0  0  0
 31 30  1  0  0  0  0
 32 30  2  0  0  0  0
M  END
>  <MODEL>
2

>  <REMARK>
 VINA RESULT:      -8.9      4.308      8.873
  Name = 
  2 active torsions:
  status: ('A' for Active; 'I' for Inactive)
    1  A    between atoms: C_20  and  O_29
    2  A    between atoms: O_29  and  C_30
                            x       y       z     vdW  Elec       q    Type
                         _______ _______ _______ _____ _____    ______ ____

>  <TORSDO>
F 2

$$$$
=
 OpenBabel11112416323D

 32 38  0  0  1  0  0  0  0  0999 V2000
  185.6720  179.1580  143.8890 C   0  0  1  0  0  3  0  0  0  0  0  0
  189.0010  175.1280  143.0240 C   0  0  0  0  0  0  0  0  0  0  0  0
  192.1930  175.4620  146.7140 C   0  0  0  0  0  3  0  0  0  0  0  0
  192.9370  174.4140  146.1760 C   0  0  0  0  0  3  0  0  0  0  0  0
  189.3430  173.3830  141.2610 C   0  0  0  0  0  0  0  0  0  0  0  0
  190.1390  172.3460  140.7910 C   0  0  0  0  0  0  0  0  0  0  0  0
  186.8610  176.4790  143.1810 C   0  0  1  0  0  3  0  0  0  0  0  0
  188.6140  176.8300  144.8950 C   0  0  0  0  0  2  0  0  0  0  0  0
  191.7860  170.9370  140.7290 N   0  0  0  0  0  0  0  0  0  0  0  0
  186.8300  178.5820  144.7070 C   0  0  2  0  0  3  0  0  0  0  0  0
  191.0370  175.8980  146.0670 C   0  0  0  0  0  3  0  0  0  0  0  0
  189.4410  175.7490  144.2250 C   0  0  0  0  0  0  0  0  0  0  0  0
  190.6050  175.2950  144.8720 C   0  0  0  0  0  0  0  0  0  0  0  0
  190.9390  173.6060  143.1360 C   0  0  0  0  0  0  0  0  0  0  0  0
  190.9930  170.7290  139.6850 N   0  0  0  0  0  0  0  0  0  0  0  0
  185.5670  178.5770  142.4630 C   0  0  0  0  0  2  0  0  0  0  0  0
  187.6660  177.5360  143.9400 C   0  0  2  0  0  3  0  0  0  0  0  0
  189.9690  171.5820  139.6950 N   0  0  0  0  0  0  0  0  0  0  0  0
  185.7110  177.0540  142.3510 C   0  0  0  0  0  2  0  0  0  0  0  0
  185.3970  178.1480  144.9980 C   0  0  1  0  0  3  0  0  0  0  0  0
  192.5230  173.8040  144.9930 C   0  0  0  0  0  3  0  0  0  0  0  0
  191.3580  174.2310  144.3260 C   0  0  0  0  0  0  0  0  0  0  0  0
  191.7020  172.5400  142.6020 C   0  0  0  0  0  3  0  0  0  0  0  0
  187.8120  175.7050  142.2850 C   0  0  0  0  0  2  0  0  0  0  0  0
  188.1960  173.7190  140.5500 O   0  0  0  0  0  1  0  0  0  0  0  0
  192.9910  170.1800  141.0210 C   0  0  0  0  0  1  0  0  0  0  0  0
  189.7430  174.0500  142.4660 C   0  0  0  0  0  0  0  0  0  0  0  0
  191.2620  171.9480  141.4310 C   0  0  0  0  0  0  0  0  0  0  0  0
  184.9250  178.8310  146.1490 O   0  0  0  0  0  0  0  0  0  0  0  0
  185.6090  178.8030  147.3660 C   0  0  0  0  0  0  0  0  0  0  0  0
  185.9190  177.5170  148.0590 C   0  0  0  0  0  1  0  0  0  0  0  0
  185.9720  179.8850  147.8950 O   0  0  0  0  0  0  0  0  0  0  0  0
  1 16  1  6  0  0  0
  1 10  1  0  0  0  0
  1 20  1  0  0  0  0
  2 12  1  0  0  0  0
  4  3  1  0  0  0  0
  5 27  1  0  0  0  0
  6  5  2  0  0  0  0
  6 28  1  0  0  0  0
  7 24  1  6  0  0  0
  7 17  1  0  0  0  0
  9 26  1  0  0  0  0
  9 28  1  0  0  0  0
 10 20  1  0  0  0  0
 11  3  2  0  0  0  0
 12 13  2  0  0  0  0
 12  8  1  0  0  0  0
 13 11  1  0  0  0  0
 14 22  2  0  0  0  0
 15 18  2  0  0  0  0
 15  9  1  0  0  0  0
 17 10  1  0  0  0  0
 17  8  1  0  0  0  0
 18  6  1  0  0  0  0
 19 16  1  0  0  0  0
 19  7  1  0  0  0  0
 20 29  1  0  0  0  0
 21  4  2  0  0  0  0
 22 13  1  0  0  0  0
 22 21  1  0  0  0  0
 23 14  1  0  0  0  0
 24  2  1  0  0  0  0
 25  5  1  0  0  0  0
 27  2  2  0  0  0  0
 27 14  1  0  0  0  0
 28 23  2  0  0  0  0
 29 30  1  0  0  0  0
 30 32  2  0  0  0  0
 30 31  1  0  0  0  0
M  END
>  <MODEL>
3

>  <REMARK>
 VINA RESULT:      -8.7      3.973      7.646
  Name = 
  2 active torsions:
  status: ('A' for Active; 'I' for Inactive)
    1  A    between atoms: C_20  and  O_29
    2  A    between atoms: O_29  and  C_30
                            x       y       z     vdW  Elec       q    Type
                         _______ _______ _______ _____ _____    ______ ____

>  <TORSDO>
F 2

$$$$
=
 OpenBabel11112416323D

 32 38  0  0  1  0  0  0  0  0999 V2000
  185.7790  177.1460  146.2640 C   0  0  1  0  0  3  0  0  0  0  0  0
  190.4130  175.7680  144.1000 C   0  0  0  0  0  0  0  0  0  0  0  0
  189.1280  173.6420  139.8870 C   0  0  0  0  0  3  0  0  0  0  0  0
  190.4600  173.3210  139.6340 C   0  0  0  0  0  3  0  0  0  0  0  0
  192.8300  175.8270  144.7560 C   0  0  0  0  0  0  0  0  0  0  0  0
  194.1320  175.4710  144.4290 C   0  0  0  0  0  0  0  0  0  0  0  0
  188.6500  177.0970  145.3440 C   0  0  1  0  0  3  0  0  0  0  0  0
  187.9660  175.7890  143.3560 C   0  0  0  0  0  2  0  0  0  0  0  0
  195.7620  174.6200  143.2790 N   0  0  0  0  0  0  0  0  0  0  0  0
  186.1470  176.5590  144.9000 C   0  0  2  0  0  3  0  0  0  0  0  0
  188.7880  174.3250  141.0550 C   0  0  0  0  0  3  0  0  0  0  0  0
  189.4150  175.3810  143.1660 C   0  0  0  0  0  0  0  0  0  0  0  0
  189.7720  174.6980  141.9880 C   0  0  0  0  0  0  0  0  0  0  0  0
  192.1260  174.7470  142.6470 C   0  0  0  0  0  0  0  0  0  0  0  0
  196.2480  175.1730  144.3840 N   0  0  0  0  0  0  0  0  0  0  0  0
  186.9510  177.1730  147.2680 C   0  0  0  0  0  2  0  0  0  0  0  0
  187.6190  176.1070  144.8000 C   0  0  2  0  0  3  0  0  0  0  0  0
  195.2690  175.7060  145.1130 N   0  0  0  0  0  0  0  0  0  0  0  0
  188.2910  177.6750  146.7150 C   0  0  0  0  0  2  0  0  0  0  0  0
  185.9640  178.0650  145.0620 C   0  0  1  0  0  3  0  0  0  0  0  0
  191.4490  173.6850  140.5470 C   0  0  0  0  0  3  0  0  0  0  0  0
  191.1230  174.3750  141.7310 C   0  0  0  0  0  0  0  0  0  0  0  0
  193.4760  174.4180  142.3750 C   0  0  0  0  0  3  0  0  0  0  0  0
  189.9970  176.3990  145.4120 C   0  0  0  0  0  2  0  0  0  0  0  0
  192.6060  176.5310  145.9350 O   0  0  0  0  0  1  0  0  0  0  0  0
  196.5580  173.9530  142.2640 C   0  0  0  0  0  1  0  0  0  0  0  0
  191.7800  175.4570  143.8520 C   0  0  0  0  0  0  0  0  0  0  0  0
  194.4360  174.7990  143.2950 C   0  0  0  0  0  0  0  0  0  0  0  0
  184.6910  178.4390  144.5560 O   0  0  0  0  0  0  0  0  0  0  0  0
  184.4230  178.5090  143.1880 C   0  0  0  0  0  0  0  0  0  0  0  0
  185.5200  178.4980  142.1750 C   0  0  0  0  0  1  0  0  0  0  0  0
  183.2300  178.5860  142.7960 O   0  0  0  0  0  0  0  0  0  0  0  0
  1 16  1  1  0  0  0
  2 24  1  0  0  0  0
  3 11  1  0  0  0  0
  4  3  2  0  0  0  0
  4 21  1  0  0  0  0
  5 25  1  0  0  0  0
  6  5  1  0  0  0  0
  6 18  1  0  0  0  0
  7 24  1  1  0  0  0
  7 19  1  0  0  0  0
  8 17  1  0  0  0  0
  9 28  1  0  0  0  0
  9 15  1  0  0  0  0
 10 20  1  0  0  0  0
 10  1  1  0  0  0  0
 11 13  2  0  0  0  0
 12  8  1  0  0  0  0
 12  2  2  0  0  0  0
 13 12  1  0  0  0  0
 14 27  1  0  0  0  0
 15 18  2  0  0  0  0
 17 10  1  0  0  0  0
 17  7  1  0  0  0  0
 19 16  1  0  0  0  0
 20  1  1  0  0  0  0
 21 22  2  0  0  0  0
 22 13  1  0  0  0  0
 22 14  1  0  0  0  0
 23 14  2  0  0  0  0
 23 28  1  0  0  0  0
 26  9  1  0  0  0  0
 27  2  1  0  0  0  0
 27  5  2  0  0  0  0
 28  6  2  0  0  0  0
 29 20  1  0  0  0  0
 30 29  1  0  0  0  0
 31 30  1  0  0  0  0
 32 30  2  0  0  0  0
M  END
>  <MODEL>
4

>  <REMARK>
 VINA RESULT:      -8.3      4.332      8.915
  Name = 
  2 active torsions:
  status: ('A' for Active; 'I' for Inactive)
    1  A    between atoms: C_20  and  O_29
    2  A    between atoms: O_29  and  C_30
                            x       y       z     vdW  Elec       q    Type
                         _______ _______ _______ _____ _____    ______ ____

>  <TORSDO>
F 2

$$$$
=
 OpenBabel11112416323D

 32 38  0  0  1  0  0  0  0  0999 V2000
  189.9920  172.1710  139.3370 C   0  0  1  0  0  3  0  0  0  0  0  0
  188.5140  175.4230  143.2490 C   0  0  0  0  0  0  0  0  0  0  0  0
  192.0660  174.9120  146.5720 C   0  0  0  0  0  3  0  0  0  0  0  0
  191.3760  175.7470  147.4490 C   0  0  0  0  0  3  0  0  0  0  0  0
  186.5470  176.8830  143.7710 C   0  0  0  0  0  0  0  0  0  0  0  0
  185.9240  177.7050  144.7020 C   0  0  0  0  0  0  0  0  0  0  0  0
  188.9250  174.5030  140.9230 C   0  0  1  0  0  3  0  0  0  0  0  0
  190.5840  174.0250  142.6970 C   0  0  0  0  0  2  0  0  0  0  0  0
  185.6230  178.7810  146.5600 N   0  0  0  0  0  0  0  0  0  0  0  0
  190.6830  172.6130  140.6280 C   0  0  2  0  0  3  0  0  0  0  0  0
  191.5270  174.6250  145.3180 C   0  0  0  0  0  3  0  0  0  0  0  0
  189.7570  174.8640  143.6530 C   0  0  0  0  0  0  0  0  0  0  0  0
  190.2920  175.1660  144.9190 C   0  0  0  0  0  0  0  0  0  0  0  0
  188.3590  176.5760  145.4250 C   0  0  0  0  0  0  0  0  0  0  0  0
  184.6000  179.0170  145.7480 N   0  0  0  0  0  0  0  0  0  0  0  0
  188.5150  172.6080  139.2400 C   0  0  0  0  0  2  0  0  0  0  0  0
  189.7630  173.4050  141.5800 C   0  0  2  0  0  3  0  0  0  0  0  0
  184.7560  178.3670  144.5950 N   0  0  0  0  0  0  0  0  0  0  0  0
  188.2210  174.0600  139.6380 C   0  0  0  0  0  2  0  0  0  0  0  0
  190.9880  173.3250  139.3150 C   0  0  1  0  0  3  0  0  0  0  0  0
  190.1510  176.2940  147.0700 C   0  0  0  0  0  3  0  0  0  0  0  0
  189.5930  176.0150  145.8070 C   0  0  0  0  0  0  0  0  0  0  0  0
  187.6700  177.4250  146.3240 C   0  0  0  0  0  3  0  0  0  0  0  0
  187.9020  174.9950  141.9320 C   0  0  0  0  0  2  0  0  0  0  0  0
  185.9330  176.6850  142.5380 O   0  0  0  0  0  1  0  0  0  0  0  0
  185.7700  179.3360  147.8950 C   0  0  0  0  0  1  0  0  0  0  0  0
  187.8010  176.2850  144.1280 C   0  0  0  0  0  0  0  0  0  0  0  0
  186.4610  177.9600  145.9170 C   0  0  0  0  0  0  0  0  0  0  0  0
  192.2310  172.8630  138.8090 O   0  0  0  0  0  0  0  0  0  0  0  0
  193.4440  173.1410  139.4420 C   0  0  0  0  0  0  0  0  0  0  0  0
  193.7750  174.5120  139.9320 C   0  0  0  0  0  1  0  0  0  0  0  0
  194.2820  172.2160  139.6040 O   0  0  0  0  0  0  0  0  0  0  0  0
  1 16  1  1  0  0  0
  1 10  1  0  0  0  0
  2 12  2  0  0  0  0
  2 27  1  0  0  0  0
  3  4  1  0  0  0  0
  5 27  2  0  0  0  0
  5  6  1  0  0  0  0
  6 28  2  0  0  0  0
  7 19  1  6  0  0  0
  7 17  1  0  0  0  0
  7 24  1  0  0  0  0
  8 12  1  0  0  0  0
  9 26  1  0  0  0  0
 10 17  1  0  0  0  0
 11  3  2  0  0  0  0
 12 13  1  0  0  0  0
 13 11  1  0  0  0  0
 13 22  2  0  0  0  0
 14 22  1  0  0  0  0
 14 23  2  0  0  0  0
 15  9  1  0  0  0  0
 16 19  1  0  0  0  0
 17  8  1  0  0  0  0
 18  6  1  0  0  0  0
 18 15  2  0  0  0  0
 20  1  1  0  0  0  0
 20 10  1  0  0  0  0
 21  4  2  0  0  0  0
 22 21  1  0  0  0  0
 24  2  1  0  0  0  0
 25  5  1  0  0  0  0
 27 14  1  0  0  0  0
 28 23  1  0  0  0  0
 28  9  1  0  0  0  0
 29 20  1  0  0  0  0
 29 30  1  0  0  0  0
 30 32  2  0  0  0  0
 30 31  1  0  0  0  0
M  END
>  <MODEL>
5

>  <REMARK>
 VINA RESULT:      -8.3      3.256      5.142
  Name = 
  2 active torsions:
  status: ('A' for Active; 'I' for Inactive)
    1  A    between atoms: C_20  and  O_29
    2  A    between atoms: O_29  and  C_30
                            x       y       z     vdW  Elec       q    Type
                         _______ _______ _______ _____ _____    ______ ____

>  <TORSDO>
F 2

$$$$
=
 OpenBabel11112416323D

 32 38  0  0  1  0  0  0  0  0999 V2000
  186.6680  178.4270  143.1430 C   0  0  1  0  0  3  0  0  0  0  0  0
  190.1440  174.4690  143.6990 C   0  0  0  0  0  0  0  0  0  0  0  0
  193.6720  176.4170  146.4700 C   0  0  0  0  0  3  0  0  0  0  0  0
  194.4220  175.2500  146.3490 C   0  0  0  0  0  3  0  0  0  0  0  0
  190.4150  172.1350  142.8300 C   0  0  0  0  0  0  0  0  0  0  0  0
  191.2240  171.0080  142.7600 C   0  0  0  0  0  0  0  0  0  0  0  0
  187.9490  175.7230  143.5180 C   0  0  1  0  0  3  0  0  0  0  0  0
  189.8420  176.8090  144.6870 C   0  0  0  0  0  2  0  0  0  0  0  0
  192.9440  169.7340  143.1110 N   0  0  0  0  0  0  0  0  0  0  0  0
  187.9380  178.2800  143.9820 C   0  0  2  0  0  3  0  0  0  0  0  0
  192.4290  176.5120  145.8430 C   0  0  0  0  0  3  0  0  0  0  0  0
  190.6640  175.5550  144.4530 C   0  0  0  0  0  0  0  0  0  0  0  0
  191.9160  175.4440  145.0850 C   0  0  0  0  0  0  0  0  0  0  0  0
  192.1780  173.1730  144.2180 C   0  0  0  0  0  0  0  0  0  0  0  0
  192.0630  169.0820  142.3620 N   0  0  0  0  0  0  0  0  0  0  0  0
  186.4540  177.2830  142.1290 C   0  0  0  0  0  2  0  0  0  0  0  0
  188.7570  177.0160  143.6450 C   0  0  2  0  0  3  0  0  0  0  0  0
  190.9920  169.8410  142.1290 N   0  0  0  0  0  0  0  0  0  0  0  0
  186.6840  175.8650  142.6670 C   0  0  0  0  0  2  0  0  0  0  0  0
  186.5740  177.9960  144.6020 C   0  0  1  0  0  3  0  0  0  0  0  0
  193.9290  174.1800  145.6030 C   0  0  0  0  0  3  0  0  0  0  0  0
  192.6760  174.2590  144.9640 C   0  0  0  0  0  0  0  0  0  0  0  0
  192.9500  171.9910  144.1070 C   0  0  0  0  0  3  0  0  0  0  0  0
  188.8500  174.6500  142.9340 C   0  0  0  0  0  2  0  0  0  0  0  0
  189.1810  172.1130  142.1890 O   0  0  0  0  0  1  0  0  0  0  0  0
  194.2190  169.1960  143.5520 C   0  0  0  0  0  1  0  0  0  0  0  0
  190.8930  173.2650  143.5730 C   0  0  0  0  0  0  0  0  0  0  0  0
  192.4310  170.9430  143.3670 C   0  0  0  0  0  0  0  0  0  0  0  0
  186.1810  179.1050  145.3950 O   0  0  0  0  0  0  0  0  0  0  0  0
  185.4060  178.9610  146.5480 C   0  0  0  0  0  0  0  0  0  0  0  0
  184.0730  178.2910  146.5150 C   0  0  0  0  0  1  0  0  0  0  0  0
  185.8400  179.4070  147.6420 O   0  0  0  0  0  0  0  0  0  0  0  0
  1 16  1  6  0  0  0
  1 10  1  0  0  0  0
  1 20  1  0  0  0  0
  2 12  1  0  0  0  0
  4  3  1  0  0  0  0
  5 27  1  0  0  0  0
  6  5  2  0  0  0  0
  6 28  1  0  0  0  0
  7 19  1  6  0  0  0
  7 17  1  0  0  0  0
  9 28  1  0  0  0  0
  9 26  1  0  0  0  0
 10 20  1  0  0  0  0
 11  3  2  0  0  0  0
 12  8  1  0  0  0  0
 12 13  2  0  0  0  0
 13 11  1  0  0  0  0
 14 22  2  0  0  0  0
 15  9  1  0  0  0  0
 16 19  1  0  0  0  0
 17 10  1  0  0  0  0
 17  8  1  0  0  0  0
 18 15  2  0  0  0  0
 18  6  1  0  0  0  0
 20 29  1  0  0  0  0
 21  4  2  0  0  0  0
 22 13  1  0  0  0  0
 22 21  1  0  0  0  0
 23 14  1  0  0  0  0
 24  7  1  0  0  0  0
 24  2  1  0  0  0  0
 25  5  1  0  0  0  0
 27  2  2  0  0  0  0
 27 14  1  0  0  0  0
 28 23  2  0  0  0  0
 29 30  1  0  0  0  0
 30 32  2  0  0  0  0
 31 30  1  0  0  0  0
M  END
>  <MODEL>
6

>  <REMARK>
 VINA RESULT:      -8.3      4.434      8.402
  Name = 
  2 active torsions:
  status: ('A' for Active; 'I' for Inactive)
    1  A    between atoms: C_20  and  O_29
    2  A    between atoms: O_29  and  C_30
                            x       y       z     vdW  Elec       q    Type
                         _______ _______ _______ _____ _____    ______ ____

>  <TORSDO>
F 2

$$$$
=
 OpenBabel11112416323D

 32 38  0  0  1  0  0  0  0  0999 V2000
  194.8530  175.1070  145.7740 C   0  0  1  0  0  3  0  0  0  0  0  0
  189.9390  176.1410  144.0860 C   0  0  0  0  0  0  0  0  0  0  0  0
  189.6600  173.7520  139.8280 C   0  0  0  0  0  3  0  0  0  0  0  0
  188.3870  174.2750  139.6080 C   0  0  0  0  0  3  0  0  0  0  0  0
  188.0040  177.5450  144.8330 C   0  0  0  0  0  0  0  0  0  0  0  0
  186.7330  178.0230  144.5400 C   0  0  0  0  0  0  0  0  0  0  0  0
  191.8820  175.6040  145.6220 C   0  0  1  0  0  3  0  0  0  0  0  0
  191.8570  174.6160  143.3520 C   0  0  0  0  0  2  0  0  0  0  0  0
  184.8930  178.3090  143.4300 N   0  0  0  0  0  0  0  0  0  0  0  0
  194.0390  174.5870  144.5880 C   0  0  2  0  0  3  0  0  0  0  0  0
  190.3580  174.0860  140.9880 C   0  0  0  0  0  3  0  0  0  0  0  0
  190.5150  175.2810  143.1120 C   0  0  0  0  0  0  0  0  0  0  0  0
  189.7970  174.9470  141.9480 C   0  0  0  0  0  0  0  0  0  0  0  0
  187.9210  176.3330  142.6800 C   0  0  0  0  0  0  0  0  0  0  0  0
  184.8310  178.9970  144.5630 N   0  0  0  0  0  0  0  0  0  0  0  0
  194.1910  176.2880  146.5150 C   0  0  0  0  0  2  0  0  0  0  0  0
  192.7170  175.3520  144.3650 C   0  0  2  0  0  3  0  0  0  0  0  0
  185.9500  178.8410  145.2700 N   0  0  0  0  0  0  0  0  0  0  0  0
  192.6920  176.1370  146.8060 C   0  0  0  0  0  2  0  0  0  0  0  0
  194.0900  173.7910  145.8870 C   0  0  1  0  0  3  0  0  0  0  0  0
  187.8150  175.1300  140.5500 C   0  0  0  0  0  3  0  0  0  0  0  0
  188.5060  175.4770  141.7270 C   0  0  0  0  0  0  0  0  0  0  0  0
  186.6260  176.8550  142.4460 C   0  0  0  0  0  3  0  0  0  0  0  0
  190.7710  176.5780  145.2730 C   0  0  0  0  0  2  0  0  0  0  0  0
  188.5990  177.9210  146.0330 O   0  0  0  0  0  1  0  0  0  0  0  0
  183.8400  178.2580  142.4300 C   0  0  0  0  0  1  0  0  0  0  0  0
  188.6370  176.6770  143.8820 C   0  0  0  0  0  0  0  0  0  0  0  0
  186.0800  177.6940  143.4020 C   0  0  0  0  0  0  0  0  0  0  0  0
  194.9960  172.7090  145.7370 O   0  0  0  0  0  0  0  0  0  0  0  0
  194.5640  171.3980  145.5230 C   0  0  0  0  0  0  0  0  0  0  0  0
  193.4470  171.0870  144.5830 C   0  0  0  0  0  1  0  0  0  0  0  0
  195.1280  170.4560  146.1370 O   0  0  0  0  0  0  0  0  0  0  0  0
  1 20  1  0  0  0  0
  1 16  1  1  0  0  0
  2 24  1  0  0  0  0
  3 11  1  0  0  0  0
  4  3  2  0  0  0  0
  4 21  1  0  0  0  0
  5 25  1  0  0  0  0
  6  5  1  0  0  0  0
  6 18  1  0  0  0  0
  7 24  1  6  0  0  0
  7 19  1  0  0  0  0
  8 17  1  0  0  0  0
  9 15  1  0  0  0  0
 10  1  1  0  0  0  0
 10 20  1  0  0  0  0
 11 13  2  0  0  0  0
 12  8  1  0  0  0  0
 12  2  2  0  0  0  0
 13 12  1  0  0  0  0
 14 27  1  0  0  0  0
 15 18  2  0  0  0  0
 16 19  1  0  0  0  0
 17 10  1  0  0  0  0
 17  7  1  0  0  0  0
 21 22  2  0  0  0  0
 22 13  1  0  0  0  0
 22 14  1  0  0  0  0
 23 14  2  0  0  0  0
 23 28  1  0  0  0  0
 26  9  1  0  0  0  0
 27  2  1  0  0  0  0
 27  5  2  0  0  0  0
 28  9  1  0  0  0  0
 28  6  2  0  0  0  0
 29 20  1  0  0  0  0
 30 29  1  0  0  0  0
 30 32  2  0  0  0  0
 31 30  1  0  0  0  0
M  END
>  <MODEL>
7

>  <REMARK>
 VINA RESULT:      -8.2      2.536      4.911
  Name = 
  2 active torsions:
  status: ('A' for Active; 'I' for Inactive)
    1  A    between atoms: C_20  and  O_29
    2  A    between atoms: O_29  and  C_30
                            x       y       z     vdW  Elec       q    Type
                         _______ _______ _______ _____ _____    ______ ____

>  <TORSDO>
F 2

$$$$
=
 OpenBabel11112416323D

 32 38  0  0  1  0  0  0  0  0999 V2000
  186.1830  178.2760  141.5640 C   0  0  1  0  0  3  0  0  0  0  0  0
  190.1760  175.5390  143.7140 C   0  0  0  0  0  0  0  0  0  0  0  0
  190.6670  177.5210  148.1580 C   0  0  0  0  0  3  0  0  0  0  0  0
  191.7790  176.7180  148.4020 C   0  0  0  0  0  3  0  0  0  0  0  0
  191.7780  173.7580  142.9820 C   0  0  0  0  0  0  0  0  0  0  0  0
  192.8920  172.9940  143.3040 C   0  0  0  0  0  0  0  0  0  0  0  0
  188.0810  176.0860  142.3960 C   0  0  1  0  0  3  0  0  0  0  0  0
  188.4880  177.2810  144.5260 C   0  0  0  0  0  2  0  0  0  0  0  0
  194.5480  172.2380  144.4830 N   0  0  0  0  0  0  0  0  0  0  0  0
  186.7890  178.2670  142.9680 C   0  0  2  0  0  3  0  0  0  0  0  0
  189.9980  177.4290  146.9370 C   0  0  0  0  0  3  0  0  0  0  0  0
  189.7460  176.4540  144.7120 C   0  0  0  0  0  0  0  0  0  0  0  0
  190.4270  176.5330  145.9420 C   0  0  0  0  0  0  0  0  0  0  0  0
  191.9960  174.8060  145.2100 C   0  0  0  0  0  0  0  0  0  0  0  0
  194.5220  171.6100  143.3140 N   0  0  0  0  0  0  0  0  0  0  0  0
  186.9990  177.4760  140.5270 C   0  0  0  0  0  2  0  0  0  0  0  0
  188.1000  177.4600  143.0690 C   0  0  2  0  0  3  0  0  0  0  0  0
  193.5130  172.0530  142.5650 N   0  0  0  0  0  0  0  0  0  0  0  0
  187.4880  176.0960  140.9850 C   0  0  0  0  0  2  0  0  0  0  0  0
  185.5560  177.4220  142.6610 C   0  0  1  0  0  3  0  0  0  0  0  0
  192.2180  175.8230  147.4260 C   0  0  0  0  0  3  0  0  0  0  0  0
  191.5540  175.7170  146.1900 C   0  0  0  0  0  0  0  0  0  0  0  0
  193.1250  173.9930  145.4730 C   0  0  0  0  0  3  0  0  0  0  0  0
  189.5010  175.5500  142.3580 C   0  0  0  0  0  2  0  0  0  0  0  0
  191.1710  173.5660  141.7450 O   0  0  0  0  0  1  0  0  0  0  0  0
  195.5180  171.9940  145.5360 C   0  0  0  0  0  1  0  0  0  0  0  0
  191.3040  174.7040  143.9500 C   0  0  0  0  0  0  0  0  0  0  0  0
  193.5320  173.1090  144.4900 C   0  0  0  0  0  0  0  0  0  0  0  0
  184.4020  178.0780  143.1640 O   0  0  0  0  0  0  0  0  0  0  0  0
  184.3880  178.7140  144.4070 C   0  0  0  0  0  0  0  0  0  0  0  0
  184.4400  177.9390  145.6820 C   0  0  0  0  0  1  0  0  0  0  0  0
  184.3280  179.9690  144.4570 O   0  0  0  0  0  0  0  0  0  0  0  0
  1 16  1  6  0  0  0
  1 20  1  0  0  0  0
  1 10  1  0  0  0  0
  2 27  2  0  0  0  0
  2 12  1  0  0  0  0
  3  4  1  0  0  0  0
  5  6  2  0  0  0  0
  5 27  1  0  0  0  0
  6 28  1  0  0  0  0
  7 19  1  6  0  0  0
  7 17  1  0  0  0  0
  8 12  1  0  0  0  0
  9 28  1  0  0  0  0
  9 26  1  0  0  0  0
 10 17  1  0  0  0  0
 11  3  2  0  0  0  0
 12 13  2  0  0  0  0
 13 22  1  0  0  0  0
 13 11  1  0  0  0  0
 14 23  1  0  0  0  0
 14 22  2  0  0  0  0
 15  9  1  0  0  0  0
 16 19  1  0  0  0  0
 17  8  1  0  0  0  0
 18  6  1  0  0  0  0
 18 15  2  0  0  0  0
 20 10  1  0  0  0  0
 20 29  1  0  0  0  0
 21  4  2  0  0  0  0
 22 21  1  0  0  0  0
 24  7  1  0  0  0  0
 24  2  1  0  0  0  0
 25  5  1  0  0  0  0
 27 14  1  0  0  0  0
 28 23  2  0  0  0  0
 29 30  1  0  0  0  0
 30 32  2  0  0  0  0
 30 31  1  0  0  0  0
M  END
>  <MODEL>
8

>  <REMARK>
 VINA RESULT:      -8.2      4.366      8.225
  Name = 
  2 active torsions:
  status: ('A' for Active; 'I' for Inactive)
    1  A    between atoms: C_20  and  O_29
    2  A    between atoms: O_29  and  C_30
                            x       y       z     vdW  Elec       q    Type
                         _______ _______ _______ _____ _____    ______ ____

>  <TORSDO>
F 2

$$$$
=
 OpenBabel11112416323D

 32 38  0  0  1  0  0  0  0  0999 V2000
  185.6040  179.1570  144.1720 C   0  0  1  0  0  3  0  0  0  0  0  0
  188.6450  175.3410  142.1090 C   0  0  0  0  0  0  0  0  0  0  0  0
  191.7990  174.3160  145.7040 C   0  0  0  0  0  3  0  0  0  0  0  0
  192.4730  173.4270  144.8690 C   0  0  0  0  0  3  0  0  0  0  0  0
  188.8870  174.1870  139.8990 C   0  0  0  0  0  0  0  0  0  0  0  0
  189.6130  173.2840  139.1340 C   0  0  0  0  0  0  0  0  0  0  0  0
  186.6070  176.7350  142.6810 C   0  0  1  0  0  3  0  0  0  0  0  0
  188.3550  176.4260  144.4070 C   0  0  0  0  0  2  0  0  0  0  0  0
  191.1550  171.8410  138.6380 N   0  0  0  0  0  0  0  0  0  0  0  0
  186.7040  178.2790  144.7690 C   0  0  2  0  0  3  0  0  0  0  0  0
  190.6870  175.0100  145.2260 C   0  0  0  0  0  3  0  0  0  0  0  0
  189.1110  175.5390  143.4370 C   0  0  0  0  0  0  0  0  0  0  0  0
  190.2300  174.8280  143.9080 C   0  0  0  0  0  0  0  0  0  0  0  0
  190.4670  173.7180  141.7420 C   0  0  0  0  0  0  0  0  0  0  0  0
  190.3650  172.0160  137.5850 N   0  0  0  0  0  0  0  0  0  0  0  0
  185.4780  179.0410  142.6370 C   0  0  0  0  0  2  0  0  0  0  0  0
  187.4740  177.4530  143.7170 C   0  0  2  0  0  3  0  0  0  0  0  0
  189.4050  172.8990  137.8590 N   0  0  0  0  0  0  0  0  0  0  0  0
  185.5130  177.6160  142.0710 C   0  0  0  0  0  2  0  0  0  0  0  0
  185.2400  177.8830  144.9270 C   0  0  1  0  0  3  0  0  0  0  0  0
  192.0330  173.2320  143.5600 C   0  0  0  0  0  3  0  0  0  0  0  0
  190.9130  173.9240  143.0620 C   0  0  0  0  0  0  0  0  0  0  0  0
  191.1590  172.8100  140.9060 C   0  0  0  0  0  3  0  0  0  0  0  0
  187.5120  176.1990  141.5860 C   0  0  0  0  0  2  0  0  0  0  0  0
  187.7780  174.8040  139.3310 O   0  0  0  0  0  1  0  0  0  0  0  0
  192.2970  170.9460  138.6790 C   0  0  0  0  0  1  0  0  0  0  0  0
  189.3160  174.4300  141.2460 C   0  0  0  0  0  0  0  0  0  0  0  0
  190.6950  172.6310  139.6150 C   0  0  0  0  0  0  0  0  0  0  0  0
  184.8020  178.2220  146.2340 O   0  0  0  0  0  0  0  0  0  0  0  0
  185.6220  178.0820  147.3550 C   0  0  0  0  0  0  0  0  0  0  0  0
  186.1220  179.2690  148.1110 C   0  0  0  0  0  1  0  0  0  0  0  0
  185.9510  176.9300  147.7390 O   0  0  0  0  0  0  0  0  0  0  0  0
  1 16  1  6  0  0  0
  1 10  1  0  0  0  0
  1 20  1  0  0  0  0
  2 12  1  0  0  0  0
  4  3  1  0  0  0  0
  5 27  1  0  0  0  0
  6 28  1  0  0  0  0
  6  5  2  0  0  0  0
  7 24  1  6  0  0  0
  7 17  1  0  0  0  0
  9 26  1  0  0  0  0
  9 28  1  0  0  0  0
 10 20  1  0  0  0  0
 11  3  2  0  0  0  0
 12 13  2  0  0  0  0
 12  8  1  0  0  0  0
 13 11  1  0  0  0  0
 14 22  2  0  0  0  0
 15 18  2  0  0  0  0
 15  9  1  0  0  0  0
 17  8  1  0  0  0  0
 17 10  1  0  0  0  0
 18  6  1  0  0  0  0
 19 16  1  0  0  0  0
 19  7  1  0  0  0  0
 20 29  1  0  0  0  0
 21  4  2  0  0  0  0
 22 21  1  0  0  0  0
 22 13  1  0  0  0  0
 23 14  1  0  0  0  0
 24  2  1  0  0  0  0
 25  5  1  0  0  0  0
 27 14  1  0  0  0  0
 27  2  2  0  0  0  0
 28 23  2  0  0  0  0
 29 30  1  0  0  0  0
 30 32  2  0  0  0  0
 30 31  1  0  0  0  0
M  END
>  <MODEL>
9

>  <REMARK>
 VINA RESULT:      -8.1      3.829      7.471
  Name = 
  2 active torsions:
  status: ('A' for Active; 'I' for Inactive)
    1  A    between atoms: C_20  and  O_29
    2  A    between atoms: O_29  and  C_30
                            x       y       z     vdW  Elec       q    Type
                         _______ _______ _______ _____ _____    ______ ____

>  <TORSDO>
F 2

$$$$
