=
 OpenBabel11112416303D

 32 37  0  0  1  0  0  0  0  0999 V2000
  194.9280  175.7050  145.2520 C   0  0  0  0  0  2  0  0  0  0  0  0
  189.4650  175.3850  145.0720 C   0  0  1  0  0  3  0  0  0  0  0  0
  190.0690  172.5310  141.0710 C   0  0  0  0  0  2  0  0  0  0  0  0
  188.8730  173.1700  140.3790 C   0  0  0  0  0  2  0  0  0  0  0  0
  187.8910  177.3900  145.0640 C   0  0  1  0  0  3  0  0  0  0  0  0
  186.7930  178.0390  144.2710 C   0  0  0  0  0  0  0  0  0  0  0  0
  191.6390  175.7210  145.5710 C   0  0  1  0  0  3  0  0  0  0  0  0
  190.9410  173.3770  145.1400 C   0  0  0  0  0  2  0  0  0  0  0  0
  185.4620  178.4130  142.5630 N   0  0  0  0  0  0  0  0  0  0  0  0
  193.3190  173.8230  145.7640 C   0  0  0  0  0  2  0  0  0  0  0  0
  189.8590  172.5880  142.5800 C   0  0  0  0  0  2  0  0  0  0  0  0
  189.6670  173.9640  144.5030 C   0  0  2  0  0  3  0  0  0  0  0  0
  189.7620  173.9820  143.0300 N   0  0  2  0  0  0  0  0  0  0  0  0
  188.2810  175.9800  142.9420 C   0  0  1  0  0  3  0  0  0  0  0  0
  185.2400  179.3150  143.5450 C   0  0  0  0  0  3  0  0  0  0  0  0
  193.8670  176.6420  144.6890 C   0  0  0  0  0  2  0  0  0  0  0  0
  192.1020  174.3580  145.0270 C   0  0  2  0  0  3  0  0  0  0  0  0
  186.0540  179.1150  144.6150 N   0  0  0  0  0  0  0  0  0  0  0  0
  192.7300  176.7910  145.6930 C   0  0  0  0  0  2  0  0  0  0  0  0
  194.5820  174.2330  145.0180 C   0  0  2  0  0  3  0  0  0  0  0  0
  188.6610  174.5810  140.9090 C   0  0  0  0  0  2  0  0  0  0  0  0
  188.5320  174.5550  142.4370 C   0  0  1  0  0  3  0  0  0  0  0  0
  187.0600  176.5370  142.3520 N   0  0  0  0  0  2  0  0  0  0  0  0
  190.5790  176.2020  144.7850 O   0  0  0  0  0  0  0  0  0  0  0  0
  187.4780  177.2720  146.5220 C   0  0  0  0  0  1  0  0  0  0  0  0
  184.7920  178.3350  141.2780 C   0  0  0  0  0  1  0  0  0  0  0  0
  188.1950  175.9860  144.4850 C   0  0  1  0  0  3  0  0  0  0  0  0
  186.4450  177.6350  143.0230 C   0  0  0  0  0  0  0  0  0  0  0  0
  195.6870  173.3950  145.4580 N   0  0  0  0  0  2  0  0  0  0  0  0
  196.0230  172.1640  144.8160 C   0  0  0  0  0  0  0  0  0  0  0  0
  195.3440  171.7390  143.8440 O   0  0  0  0  0  0  0  0  0  0  0  0
  197.1800  171.3720  145.3060 C   0  0  0  0  0  1  0  0  0  0  0  0
  2 24  1  6  0  0  0
  3 11  1  0  0  0  0
  4 21  1  0  0  0  0
  4  3  1  0  0  0  0
  5 25  1  1  0  0  0
  6 18  1  0  0  0  0
  6  5  1  0  0  0  0
  7 19  1  6  0  0  0
  9 28  1  0  0  0  0
  9 15  1  0  0  0  0
 12  2  1  0  0  0  0
 12  8  1  1  0  0  0
 13 11  1  6  0  0  0
 13 12  1  0  0  0  0
 14 23  1  6  0  0  0
 14 27  1  0  0  0  0
 15 18  2  0  0  0  0
 16  1  1  0  0  0  0
 16 19  1  0  0  0  0
 17  8  1  1  0  0  0
 17  7  1  0  0  0  0
 17 10  1  0  0  0  0
 20  1  1  0  0  0  0
 20 29  1  1  0  0  0
 20 10  1  0  0  0  0
 22 21  1  6  0  0  0
 22 14  1  0  0  0  0
 22 13  1  0  0  0  0
 23 28  1  0  0  0  0
 24  7  1  0  0  0  0
 26  9  1  0  0  0  0
 27  5  1  0  0  0  0
 27  2  1  0  0  0  0
 28  6  2  0  0  0  0
 30 32  1  0  0  0  0
 30 29  1  0  0  0  0
 31 30  2  0  0  0  0
M  END
>  <MODEL>
1

>  <REMARK>
 VINA RESULT:      -8.7      0.000      0.000
  Name = 
  1 active torsions:
  status: ('A' for Active; 'I' for Inactive)
    1  A    between atoms: C_20  and  N_29
                            x       y       z     vdW  Elec       q    Type
                         _______ _______ _______ _____ _____    ______ ____

>  <TORSDO>
F 1

$$$$
=
 OpenBabel11112416303D

 32 37  0  0  1  0  0  0  0  0999 V2000
  187.0640  177.2100  146.5260 C   0  0  0  0  0  2  0  0  0  0  0  0
  191.8470  176.0840  144.1110 C   0  0  1  0  0  3  0  0  0  0  0  0
  189.3310  172.8530  141.3250 C   0  0  0  0  0  2  0  0  0  0  0  0
  190.4720  171.8470  141.3810 C   0  0  0  0  0  2  0  0  0  0  0  0
  193.9760  175.4180  145.3430 C   0  0  1  0  0  3  0  0  0  0  0  0
  195.0080  174.3310  145.4370 C   0  0  0  0  0  0  0  0  0  0  0  0
  190.1190  176.9060  145.3060 C   0  0  1  0  0  3  0  0  0  0  0  0
  189.8190  176.7890  142.8440 C   0  0  0  0  0  2  0  0  0  0  0  0
  195.9330  172.3670  145.0960 N   0  0  0  0  0  0  0  0  0  0  0  0
  187.9770  177.7500  144.2310 C   0  0  0  0  0  2  0  0  0  0  0  0
  189.9030  174.2610  141.4470 C   0  0  0  0  0  2  0  0  0  0  0  0
  191.0250  175.8320  142.8280 C   0  0  2  0  0  3  0  0  0  0  0  0
  190.5920  174.4220  142.7340 N   0  0  2  0  0  0  0  0  0  0  0  0
  192.6160  173.6990  143.9870 C   0  0  1  0  0  3  0  0  0  0  0  0
  196.6890  173.1090  145.9370 C   0  0  0  0  0  3  0  0  0  0  0  0
  188.2190  176.2990  146.9210 C   0  0  0  0  0  2  0  0  0  0  0  0
  189.0880  176.7160  144.1800 C   0  0  2  0  0  3  0  0  0  0  0  0
  196.1390  174.3300  146.1730 N   0  0  0  0  0  0  0  0  0  0  0  0
  189.5410  177.0300  146.7200 C   0  0  0  0  0  2  0  0  0  0  0  0
  186.8000  177.1880  145.0190 C   0  0  2  0  0  3  0  0  0  0  0  0
  191.2900  172.0620  142.6480 C   0  0  0  0  0  2  0  0  0  0  0  0
  191.7640  173.5180  142.7260 C   0  0  1  0  0  3  0  0  0  0  0  0
  193.7750  172.8010  143.9700 N   0  0  0  0  0  2  0  0  0  0  0  0
  191.0590  175.8630  145.2600 O   0  0  0  0  0  0  0  0  0  0  0  0
  194.6580  176.7710  145.2210 C   0  0  0  0  0  1  0  0  0  0  0  0
  196.2030  171.0160  144.6390 C   0  0  0  0  0  1  0  0  0  0  0  0
  193.0660  175.1720  144.1140 C   0  0  1  0  0  3  0  0  0  0  0  0
  194.8800  173.1350  144.8070 C   0  0  0  0  0  0  0  0  0  0  0  0
  185.6100  177.9710  144.7200 N   0  0  0  0  0  2  0  0  0  0  0  0
  184.8980  177.8490  143.4880 C   0  0  0  0  0  0  0  0  0  0  0  0
  185.2990  177.0630  142.5880 O   0  0  0  0  0  0  0  0  0  0  0  0
  183.6770  178.6640  143.2620 C   0  0  0  0  0  1  0  0  0  0  0  0
  1 16  1  0  0  0  0
  2 27  1  0  0  0  0
  2 24  1  1  0  0  0
  3  4  1  0  0  0  0
  3 11  1  0  0  0  0
  4 21  1  0  0  0  0
  5 25  1  6  0  0  0
  5  6  1  0  0  0  0
  6 18  1  0  0  0  0
  7 19  1  1  0  0  0
  9 15  1  0  0  0  0
 10 20  1  0  0  0  0
 12  8  1  1  0  0  0
 12  2  1  0  0  0  0
 13 11  1  6  0  0  0
 13 12  1  0  0  0  0
 14 23  1  6  0  0  0
 14 27  1  0  0  0  0
 15 18  2  0  0  0  0
 17  8  1  6  0  0  0
 17 10  1  0  0  0  0
 17  7  1  0  0  0  0
 19 16  1  0  0  0  0
 20 29  1  1  0  0  0
 20  1  1  0  0  0  0
 22 21  1  1  0  0  0
 22 13  1  0  0  0  0
 22 14  1  0  0  0  0
 23 28  1  0  0  0  0
 24  7  1  0  0  0  0
 26  9  1  0  0  0  0
 27  5  1  0  0  0  0
 28  9  1  0  0  0  0
 28  6  2  0  0  0  0
 30 29  1  0  0  0  0
 31 30  2  0  0  0  0
 32 30  1  0  0  0  0
M  END
>  <MODEL>
2

>  <REMARK>
 VINA RESULT:      -8.3      1.873      7.918
  Name = 
  1 active torsions:
  status: ('A' for Active; 'I' for Inactive)
    1  A    between atoms: C_20  and  N_29
                            x       y       z     vdW  Elec       q    Type
                         _______ _______ _______ _____ _____    ______ ____

>  <TORSDO>
F 1

$$$$
=
 OpenBabel11112416303D

 32 37  0  0  1  0  0  0  0  0999 V2000
  190.8850  171.7370  141.1240 C   0  0  0  0  0  2  0  0  0  0  0  0
  189.3500  176.6640  142.9520 C   0  0  1  0  0  3  0  0  0  0  0  0
  192.2790  175.7920  146.8490 C   0  0  0  0  0  2  0  0  0  0  0  0
  191.2820  176.4380  147.8000 C   0  0  0  0  0  2  0  0  0  0  0  0
  186.9330  177.4220  143.2340 C   0  0  1  0  0  3  0  0  0  0  0  0
  185.9600  177.9450  144.2510 C   0  0  0  0  0  0  0  0  0  0  0  0
  189.7610  174.7700  141.7980 C   0  0  1  0  0  3  0  0  0  0  0  0
  191.7370  176.0140  142.6430 C   0  0  0  0  0  2  0  0  0  0  0  0
  185.1770  178.4800  146.2330 N   0  0  0  0  0  0  0  0  0  0  0  0
  192.1110  173.9410  141.2990 C   0  0  0  0  0  2  0  0  0  0  0  0
  192.1400  176.4340  145.4730 C   0  0  0  0  0  2  0  0  0  0  0  0
  190.7630  176.7630  143.5690 C   0  0  2  0  0  3  0  0  0  0  0  0
  190.7910  176.2120  144.9390 N   0  0  2  0  0  0  0  0  0  0  0  0
  188.4130  176.8640  145.2700 C   0  0  1  0  0  3  0  0  0  0  0  0
  184.2430  178.6950  145.2800 C   0  0  0  0  0  3  0  0  0  0  0  0
  189.6500  172.2060  141.8830 C   0  0  0  0  0  2  0  0  0  0  0  0
  191.2050  174.6250  142.3090 C   0  0  2  0  0  3  0  0  0  0  0  0
  184.6950  178.3670  144.0400 N   0  0  0  0  0  0  0  0  0  0  0  0
  189.1180  173.4880  141.2540 C   0  0  0  0  0  2  0  0  0  0  0  0
  192.1560  172.4470  141.5920 C   0  0  2  0  0  3  0  0  0  0  0  0
  189.8760  176.3390  147.2230 C   0  0  0  0  0  2  0  0  0  0  0  0
  189.8440  176.9410  145.8130 C   0  0  1  0  0  3  0  0  0  0  0  0
  187.4820  177.5910  146.1400 N   0  0  0  0  0  2  0  0  0  0  0  0
  188.9590  175.3150  142.8140 O   0  0  0  0  0  0  0  0  0  0  0  0
  186.8920  178.2850  141.9840 C   0  0  0  0  0  1  0  0  0  0  0  0
  185.0370  178.7010  147.6610 C   0  0  0  0  0  1  0  0  0  0  0  0
  188.3630  177.4210  143.8290 C   0  0  1  0  0  3  0  0  0  0  0  0
  186.2350  177.9960  145.5800 C   0  0  0  0  0  0  0  0  0  0  0  0
  193.3130  171.8670  140.9260 N   0  0  0  0  0  2  0  0  0  0  0  0
  194.5710  171.6900  141.5800 C   0  0  0  0  0  0  0  0  0  0  0  0
  194.7330  172.0620  142.7740 O   0  0  0  0  0  0  0  0  0  0  0  0
  195.7010  171.0690  140.8440 C   0  0  0  0  0  1  0  0  0  0  0  0
  1 20  1  0  0  0  0
  1 16  1  0  0  0  0
  2 24  1  1  0  0  0
  2 12  1  0  0  0  0
  2 27  1  0  0  0  0
  3  4  1  0  0  0  0
  5 25  1  6  0  0  0
  5 27  1  0  0  0  0
  5  6  1  0  0  0  0
  6 28  2  0  0  0  0
  7 19  1  1  0  0  0
  7 17  1  0  0  0  0
  7 24  1  0  0  0  0
  9 26  1  0  0  0  0
 10 20  1  0  0  0  0
 11  3  1  0  0  0  0
 12  8  1  6  0  0  0
 12 13  1  0  0  0  0
 13 11  1  1  0  0  0
 13 22  1  0  0  0  0
 14 22  1  0  0  0  0
 14 23  1  1  0  0  0
 15  9  1  0  0  0  0
 17 10  1  6  0  0  0
 17  8  1  0  0  0  0
 18  6  1  0  0  0  0
 18 15  2  0  0  0  0
 19 16  1  0  0  0  0
 20 29  1  6  0  0  0
 21  4  1  0  0  0  0
 22 21  1  1  0  0  0
 27 14  1  0  0  0  0
 28 23  1  0  0  0  0
 28  9  1  0  0  0  0
 29 30  1  0  0  0  0
 30 31  2  0  0  0  0
 32 30  1  0  0  0  0
M  END
>  <MODEL>
3

>  <REMARK>
 VINA RESULT:      -8.2      2.335      4.510
  Name = 
  1 active torsions:
  status: ('A' for Active; 'I' for Inactive)
    1  A    between atoms: C_20  and  N_29
                            x       y       z     vdW  Elec       q    Type
                         _______ _______ _______ _____ _____    ______ ____

>  <TORSDO>
F 1

$$$$
=
 OpenBabel11112416303D

 32 37  0  0  1  0  0  0  0  0999 V2000
  187.9870  177.2590  146.8940 C   0  0  0  0  0  2  0  0  0  0  0  0
  192.3570  175.4110  144.1620 C   0  0  1  0  0  3  0  0  0  0  0  0
  189.2320  172.3460  141.8480 C   0  0  0  0  0  2  0  0  0  0  0  0
  190.2490  171.2140  141.8770 C   0  0  0  0  0  2  0  0  0  0  0  0
  194.5020  174.5680  145.2510 C   0  0  1  0  0  3  0  0  0  0  0  0
  195.4050  173.3710  145.3340 C   0  0  0  0  0  0  0  0  0  0  0  0
  190.8580  176.5100  145.4400 C   0  0  1  0  0  3  0  0  0  0  0  0
  190.3140  176.2790  143.0280 C   0  0  0  0  0  2  0  0  0  0  0  0
  196.0600  171.2920  145.0580 N   0  0  0  0  0  0  0  0  0  0  0  0
  188.7350  177.5410  144.4960 C   0  0  0  0  0  2  0  0  0  0  0  0
  189.9730  173.6780  141.8170 C   0  0  0  0  0  2  0  0  0  0  0  0
  191.3940  175.1830  142.9770 C   0  0  2  0  0  3  0  0  0  0  0  0
  190.7940  173.8340  143.0240 N   0  0  2  0  0  0  0  0  0  0  0  0
  192.8300  172.9470  144.1460 C   0  0  1  0  0  3  0  0  0  0  0  0
  196.9730  171.9870  145.7740 C   0  0  0  0  0  3  0  0  0  0  0  0
  189.0610  176.2400  147.2530 C   0  0  0  0  0  2  0  0  0  0  0  0
  189.7090  176.3780  144.4240 C   0  0  2  0  0  3  0  0  0  0  0  0
  196.5930  173.2780  145.9670 N   0  0  0  0  0  0  0  0  0  0  0  0
  190.4330  176.7910  146.8860 C   0  0  0  0  0  2  0  0  0  0  0  0
  187.5810  177.1770  145.4220 C   0  0  2  0  0  3  0  0  0  0  0  0
  191.2030  171.4050  143.0490 C   0  0  0  0  0  2  0  0  0  0  0  0
  191.8470  172.7940  142.9800 C   0  0  1  0  0  3  0  0  0  0  0  0
  193.8710  171.9160  144.0940 N   0  0  0  0  0  2  0  0  0  0  0  0
  191.6610  175.3600  145.3890 O   0  0  0  0  0  0  0  0  0  0  0  0
  195.3220  175.8180  144.9720 C   0  0  0  0  0  1  0  0  0  0  0  0
  196.1270  169.8930  144.6780 C   0  0  0  0  0  1  0  0  0  0  0  0
  193.4580  174.3600  144.1270 C   0  0  1  0  0  3  0  0  0  0  0  0
  195.0810  172.1630  144.8060 C   0  0  0  0  0  0  0  0  0  0  0  0
  186.4670  178.0780  145.1700 N   0  0  0  0  0  2  0  0  0  0  0  0
  185.1500  177.8320  145.6650 C   0  0  0  0  0  0  0  0  0  0  0  0
  184.8950  176.7910  146.3270 O   0  0  0  0  0  0  0  0  0  0  0  0
  184.0660  178.8100  145.3880 C   0  0  0  0  0  1  0  0  0  0  0  0
  1 16  1  0  0  0  0
  2 24  1  1  0  0  0
  3  4  1  0  0  0  0
  4 21  1  0  0  0  0
  5 25  1  6  0  0  0
  5  6  1  0  0  0  0
  6 18  1  0  0  0  0
  7 19  1  1  0  0  0
  9 15  1  0  0  0  0
 10 20  1  0  0  0  0
 11  3  1  0  0  0  0
 12 13  1  0  0  0  0
 12  8  1  1  0  0  0
 12  2  1  0  0  0  0
 13 11  1  6  0  0  0
 14 23  1  6  0  0  0
 15 18  2  0  0  0  0
 17  8  1  6  0  0  0
 17 10  1  0  0  0  0
 17  7  1  0  0  0  0
 19 16  1  0  0  0  0
 20 29  1  1  0  0  0
 20  1  1  0  0  0  0
 22 13  1  0  0  0  0
 22 21  1  1  0  0  0
 22 14  1  0  0  0  0
 23 28  1  0  0  0  0
 24  7  1  0  0  0  0
 26  9  1  0  0  0  0
 27 14  1  0  0  0  0
 27  2  1  0  0  0  0
 27  5  1  0  0  0  0
 28  9  1  0  0  0  0
 28  6  2  0  0  0  0
 29 30  1  0  0  0  0
 30 31  2  0  0  0  0
 32 30  1  0  0  0  0
M  END
>  <MODEL>
4

>  <REMARK>
 VINA RESULT:      -8.1      2.026      8.062
  Name = 
  1 active torsions:
  status: ('A' for Active; 'I' for Inactive)
    1  A    between atoms: C_20  and  N_29
                            x       y       z     vdW  Elec       q    Type
                         _______ _______ _______ _____ _____    ______ ____

>  <TORSDO>
F 1

$$$$
=
 OpenBabel11112416303D

 32 37  0  0  1  0  0  0  0  0999 V2000
  186.9900  178.2800  143.0720 C   0  0  0  0  0  2  0  0  0  0  0  0
  191.1400  174.7120  142.9210 C   0  0  1  0  0  3  0  0  0  0  0  0
  192.6790  176.7910  147.1440 C   0  0  0  0  0  2  0  0  0  0  0  0
  194.1360  176.6940  146.7140 C   0  0  0  0  0  2  0  0  0  0  0  0
  192.7080  174.3890  140.9370 C   0  0  1  0  0  3  0  0  0  0  0  0
  194.1570  174.4280  140.5450 C   0  0  0  0  0  0  0  0  0  0  0  0
  189.2580  175.9190  142.6240 C   0  0  1  0  0  3  0  0  0  0  0  0
  189.6080  174.9310  144.8760 C   0  0  0  0  0  2  0  0  0  0  0  0
  196.3080  174.8320  140.7380 N   0  0  0  0  0  0  0  0  0  0  0  0
  187.5150  176.2260  144.4490 C   0  0  0  0  0  2  0  0  0  0  0  0
  191.8920  175.6620  146.4880 C   0  0  0  0  0  2  0  0  0  0  0  0
  191.0780  174.7290  144.4640 C   0  0  2  0  0  3  0  0  0  0  0  0
  191.9450  175.7840  145.0260 N   0  0  2  0  0  0  0  0  0  0  0  0
  193.4910  175.5720  143.0890 C   0  0  1  0  0  3  0  0  0  0  0  0
  196.0240  174.3440  139.5090 C   0  0  0  0  0  3  0  0  0  0  0  0
  188.3210  178.2910  142.3300 C   0  0  0  0  0  2  0  0  0  0  0  0
  188.9950  176.1100  144.1290 C   0  0  2  0  0  3  0  0  0  0  0  0
  194.6980  174.0900  139.3560 N   0  0  0  0  0  0  0  0  0  0  0  0
  188.5660  176.9260  141.6980 C   0  0  0  0  0  2  0  0  0  0  0  0
  187.1180  177.6960  144.4800 C   0  0  2  0  0  3  0  0  0  0  0  0
  194.2280  176.6940  145.1930 C   0  0  0  0  0  2  0  0  0  0  0  0
  193.3520  175.5770  144.6150 C   0  0  1  0  0  3  0  0  0  0  0  0
  194.8870  175.3630  142.6900 N   0  0  0  0  0  2  0  0  0  0  0  0
  190.6420  175.9200  142.3880 O   0  0  0  0  0  0  0  0  0  0  0  0
  192.0710  173.1000  140.4420 C   0  0  0  0  0  1  0  0  0  0  0  0
  197.6100  175.2270  141.2440 C   0  0  0  0  0  1  0  0  0  0  0  0
  192.5790  174.4840  142.4770 C   0  0  1  0  0  3  0  0  0  0  0  0
  195.1320  174.8950  141.3660 C   0  0  0  0  0  0  0  0  0  0  0  0
  185.8510  177.8320  145.1820 N   0  0  0  0  0  2  0  0  0  0  0  0
  185.7710  178.1440  146.5740 C   0  0  0  0  0  0  0  0  0  0  0  0
  186.8170  178.2910  147.2610 O   0  0  0  0  0  0  0  0  0  0  0  0
  184.4410  178.2910  147.2190 C   0  0  0  0  0  1  0  0  0  0  0  0
  1 20  1  0  0  0  0
  2 24  1  6  0  0  0
  2 12  1  0  0  0  0
  4  3  1  0  0  0  0
  5 25  1  1  0  0  0
  5 27  1  0  0  0  0
  6  5  1  0  0  0  0
  6 28  2  0  0  0  0
  7 19  1  6  0  0  0
  7 17  1  0  0  0  0
  9 26  1  0  0  0  0
  9 28  1  0  0  0  0
 10 20  1  0  0  0  0
 11  3  1  0  0  0  0
 12  8  1  6  0  0  0
 12 13  1  0  0  0  0
 13 11  1  1  0  0  0
 14 23  1  1  0  0  0
 14 22  1  0  0  0  0
 15  9  1  0  0  0  0
 16  1  1  0  0  0  0
 17 10  1  6  0  0  0
 17  8  1  0  0  0  0
 18 15  2  0  0  0  0
 18  6  1  0  0  0  0
 19 16  1  0  0  0  0
 20 29  1  6  0  0  0
 21  4  1  0  0  0  0
 22 13  1  0  0  0  0
 22 21  1  1  0  0  0
 24  7  1  0  0  0  0
 27  2  1  0  0  0  0
 27 14  1  0  0  0  0
 28 23  1  0  0  0  0
 29 30  1  0  0  0  0
 30 32  1  0  0  0  0
 30 31  2  0  0  0  0
M  END
>  <MODEL>
5

>  <REMARK>
 VINA RESULT:      -7.8      2.930      8.238
  Name = 
  1 active torsions:
  status: ('A' for Active; 'I' for Inactive)
    1  A    between atoms: C_20  and  N_29
                            x       y       z     vdW  Elec       q    Type
                         _______ _______ _______ _____ _____    ______ ____

>  <TORSDO>
F 1

$$$$
=
 OpenBabel11112416303D

 32 37  0  0  1  0  0  0  0  0999 V2000
  190.2850  171.9460  142.4240 C   0  0  0  0  0  2  0  0  0  0  0  0
  187.9190  176.8630  141.9770 C   0  0  1  0  0  3  0  0  0  0  0  0
  188.4090  177.2070  146.8930 C   0  0  0  0  0  2  0  0  0  0  0  0
  187.0500  177.8780  147.0270 C   0  0  0  0  0  2  0  0  0  0  0  0
  185.6920  177.3050  140.8180 C   0  0  1  0  0  3  0  0  0  0  0  0
  184.3210  177.8730  141.0480 C   0  0  0  0  0  0  0  0  0  0  0  0
  188.9100  174.8580  141.6850 C   0  0  1  0  0  3  0  0  0  0  0  0
  190.1310  176.5160  143.0730 C   0  0  0  0  0  2  0  0  0  0  0  0
  182.6100  178.6690  142.1730 N   0  0  0  0  0  0  0  0  0  0  0  0
  191.1930  174.2950  142.6480 C   0  0  0  0  0  2  0  0  0  0  0  0
  188.9940  177.5390  145.5240 C   0  0  0  0  0  2  0  0  0  0  0  0
  188.8010  177.2850  143.1730 C   0  0  2  0  0  3  0  0  0  0  0  0
  188.1230  177.0240  144.4590 N   0  0  2  0  0  0  0  0  0  0  0  0
  185.9080  177.3790  143.3850 C   0  0  1  0  0  3  0  0  0  0  0  0
  182.3040  178.5550  140.8610 C   0  0  0  0  0  3  0  0  0  0  0  0
  188.8260  172.3730  142.3230 C   0  0  0  0  0  2  0  0  0  0  0  0
  189.8800  175.0260  142.8670 C   0  0  2  0  0  3  0  0  0  0  0  0
  183.3430  178.0580  140.1380 N   0  0  0  0  0  0  0  0  0  0  0  0
  188.6720  173.4150  141.2230 C   0  0  0  0  0  2  0  0  0  0  0  0
  191.1120  172.9100  143.2770 C   0  0  2  0  0  3  0  0  0  0  0  0
  186.1520  177.4650  145.8680 C   0  0  0  0  0  2  0  0  0  0  0  0
  186.8450  177.7670  144.5340 C   0  0  1  0  0  3  0  0  0  0  0  0
  184.6450  178.1210  143.4650 N   0  0  0  0  0  2  0  0  0  0  0  0
  187.6850  175.4720  141.9950 O   0  0  0  0  0  0  0  0  0  0  0  0
  186.2890  177.8900  139.5480 C   0  0  0  0  0  1  0  0  0  0  0  0
  181.7430  179.1440  143.2350 C   0  0  0  0  0  1  0  0  0  0  0  0
  186.6030  177.6280  142.0280 C   0  0  1  0  0  3  0  0  0  0  0  0
  183.8640  178.2230  142.2770 C   0  0  0  0  0  0  0  0  0  0  0  0
  192.4580  172.3840  143.4440 N   0  0  0  0  0  2  0  0  0  0  0  0
  193.2680  172.6870  144.5800 C   0  0  0  0  0  0  0  0  0  0  0  0
  192.8470  173.4580  145.4840 O   0  0  0  0  0  0  0  0  0  0  0  0
  194.6250  172.0930  144.6940 C   0  0  0  0  0  1  0  0  0  0  0  0
  1 20  1  0  0  0  0
  2 24  1  1  0  0  0
  2 27  1  0  0  0  0
  2 12  1  0  0  0  0
  3  4  1  0  0  0  0
  5 25  1  6  0  0  0
  5  6  1  0  0  0  0
  5 27  1  0  0  0  0
  6 28  2  0  0  0  0
  7 19  1  1  0  0  0
  7 24  1  0  0  0  0
  7 17  1  0  0  0  0
  9 28  1  0  0  0  0
  9 26  1  0  0  0  0
 10 20  1  0  0  0  0
 11  3  1  0  0  0  0
 12  8  1  1  0  0  0
 12 13  1  0  0  0  0
 13 22  1  0  0  0  0
 13 11  1  1  0  0  0
 14 23  1  6  0  0  0
 14 22  1  0  0  0  0
 15  9  1  0  0  0  0
 16  1  1  0  0  0  0
 17 10  1  6  0  0  0
 17  8  1  0  0  0  0
 18 15  2  0  0  0  0
 18  6  1  0  0  0  0
 19 16  1  0  0  0  0
 20 29  1  6  0  0  0
 21  4  1  0  0  0  0
 22 21  1  1  0  0  0
 27 14  1  0  0  0  0
 28 23  1  0  0  0  0
 29 30  1  0  0  0  0
 30 32  1  0  0  0  0
 30 31  2  0  0  0  0
M  END
>  <MODEL>
6

>  <REMARK>
 VINA RESULT:      -7.6      2.272      4.787
  Name = 
  1 active torsions:
  status: ('A' for Active; 'I' for Inactive)
    1  A    between atoms: C_20  and  N_29
                            x       y       z     vdW  Elec       q    Type
                         _______ _______ _______ _____ _____    ______ ____

>  <TORSDO>
F 1

$$$$
=
 OpenBabel11112416303D

 32 37  0  0  1  0  0  0  0  0999 V2000
  184.1680  178.5860  144.5090 C   0  0  0  0  0  2  0  0  0  0  0  0
  189.2810  177.3570  142.9840 C   0  0  1  0  0  3  0  0  0  0  0  0
  187.4410  173.0480  141.3820 C   0  0  0  0  0  2  0  0  0  0  0  0
  188.6670  172.2910  141.8710 C   0  0  0  0  0  2  0  0  0  0  0  0
  191.3180  177.4600  144.5130 C   0  0  1  0  0  3  0  0  0  0  0  0
  192.4410  176.6250  145.0590 C   0  0  0  0  0  0  0  0  0  0  0  0
  187.3550  178.2990  143.6870 C   0  0  1  0  0  3  0  0  0  0  0  0
  187.3440  177.2930  141.4160 C   0  0  0  0  0  2  0  0  0  0  0  0
  193.5980  174.8120  145.5090 N   0  0  0  0  0  0  0  0  0  0  0  0
  185.2690  178.4140  142.2400 C   0  0  0  0  0  2  0  0  0  0  0  0
  187.8470  174.4740  141.0290 C   0  0  0  0  0  2  0  0  0  0  0  0
  188.6370  176.5650  141.8250 C   0  0  2  0  0  3  0  0  0  0  0  0
  188.3670  175.1660  142.2150 N   0  0  2  0  0  0  0  0  0  0  0  0
  190.3040  175.2070  143.7760 C   0  0  1  0  0  3  0  0  0  0  0  0
  194.1740  175.8960  146.0750 C   0  0  0  0  0  3  0  0  0  0  0  0
  185.3610  178.0370  145.2820 C   0  0  0  0  0  2  0  0  0  0  0  0
  186.4810  177.5900  142.6370 C   0  0  2  0  0  3  0  0  0  0  0  0
  193.4770  177.0350  145.8210 N   0  0  0  0  0  0  0  0  0  0  0  0
  186.6130  178.8260  144.9200 C   0  0  0  0  0  2  0  0  0  0  0  0
  184.0770  178.0060  143.0970 C   0  0  2  0  0  3  0  0  0  0  0  0
  189.3130  173.0420  143.0280 C   0  0  0  0  0  2  0  0  0  0  0  0
  189.6210  174.4840  142.6100 C   0  0  1  0  0  3  0  0  0  0  0  0
  191.5450  174.5280  144.1600 N   0  0  0  0  0  2  0  0  0  0  0  0
  188.3970  177.4440  144.0810 O   0  0  0  0  0  0  0  0  0  0  0  0
  191.8650  178.7660  143.9590 C   0  0  0  0  0  1  0  0  0  0  0  0
  194.0560  173.4370  145.5850 C   0  0  0  0  0  1  0  0  0  0  0  0
  190.5810  176.6800  143.3960 C   0  0  1  0  0  3  0  0  0  0  0  0
  192.5090  175.2790  144.8940 C   0  0  0  0  0  0  0  0  0  0  0  0
  182.8530  178.4650  142.4580 N   0  0  0  0  0  2  0  0  0  0  0  0
  182.5460  178.1860  141.0910 C   0  0  0  0  0  0  0  0  0  0  0  0
  183.3530  177.5420  140.3690 O   0  0  0  0  0  0  0  0  0  0  0  0
  181.2650  178.6660  140.5130 C   0  0  0  0  0  1  0  0  0  0  0  0
  1 16  1  0  0  0  0
  2 27  1  0  0  0  0
  2 24  1  1  0  0  0
  3  4  1  0  0  0  0
  4 21  1  0  0  0  0
  5 25  1  6  0  0  0
  5  6  1  0  0  0  0
  6 18  1  0  0  0  0
  7 24  1  0  0  0  0
  7 19  1  1  0  0  0
  9 26  1  0  0  0  0
  9 15  1  0  0  0  0
 10 17  1  0  0  0  0
 10 20  1  0  0  0  0
 11  3  1  0  0  0  0
 12  8  1  1  0  0  0
 12 13  1  0  0  0  0
 12  2  1  0  0  0  0
 13 11  1  6  0  0  0
 13 22  1  0  0  0  0
 14 23  1  6  0  0  0
 17  8  1  6  0  0  0
 17  7  1  0  0  0  0
 18 15  2  0  0  0  0
 19 16  1  0  0  0  0
 20 29  1  6  0  0  0
 20  1  1  0  0  0  0
 22 21  1  1  0  0  0
 22 14  1  0  0  0  0
 23 28  1  0  0  0  0
 27 14  1  0  0  0  0
 27  5  1  0  0  0  0
 28  6  2  0  0  0  0
 28  9  1  0  0  0  0
 30 29  1  0  0  0  0
 31 30  2  0  0  0  0
 32 30  1  0  0  0  0
M  END
>  <MODEL>
7

>  <REMARK>
 VINA RESULT:      -7.2      2.446      8.168
  Name = 
  1 active torsions:
  status: ('A' for Active; 'I' for Inactive)
    1  A    between atoms: C_20  and  N_29
                            x       y       z     vdW  Elec       q    Type
                         _______ _______ _______ _____ _____    ______ ____

>  <TORSDO>
F 1

$$$$
=
 OpenBabel11112416303D

 32 37  0  0  1  0  0  0  0  0999 V2000
  190.8160  176.6380  147.7540 C   0  0  0  0  0  2  0  0  0  0  0  0
  193.1180  175.7970  142.8580 C   0  0  1  0  0  3  0  0  0  0  0  0
  189.2890  172.8010  141.9140 C   0  0  0  0  0  2  0  0  0  0  0  0
  190.1860  171.8090  141.1880 C   0  0  0  0  0  2  0  0  0  0  0  0
  195.5270  175.0490  142.4940 C   0  0  1  0  0  3  0  0  0  0  0  0
  196.3560  173.9710  141.8570 C   0  0  0  0  0  0  0  0  0  0  0  0
  192.5000  176.4850  144.9150 C   0  0  1  0  0  3  0  0  0  0  0  0
  190.7700  176.5890  143.1360 C   0  0  0  0  0  2  0  0  0  0  0  0
  196.7990  172.0580  140.8710 N   0  0  0  0  0  0  0  0  0  0  0  0
  190.1830  177.3960  145.4270 C   0  0  0  0  0  2  0  0  0  0  0  0
  189.8820  174.1990  141.7770 C   0  0  0  0  0  2  0  0  0  0  0  0
  191.6780  175.6520  142.3180 C   0  0  2  0  0  3  0  0  0  0  0  0
  191.2140  174.2520  142.3930 N   0  0  2  0  0  0  0  0  0  0  0  0
  193.5480  173.4430  142.1040 C   0  0  1  0  0  3  0  0  0  0  0  0
  197.9410  172.7300  141.1390 C   0  0  0  0  0  3  0  0  0  0  0  0
  191.9340  175.7100  147.2960 C   0  0  0  0  0  2  0  0  0  0  0  0
  190.9910  176.3850  144.6310 C   0  0  2  0  0  3  0  0  0  0  0  0
  197.7010  173.9170  141.7560 N   0  0  0  0  0  0  0  0  0  0  0  0
  192.8980  176.4730  146.3960 C   0  0  0  0  0  2  0  0  0  0  0  0
  189.6970  176.7510  146.7180 C   0  0  2  0  0  3  0  0  0  0  0  0
  191.6110  171.9180  141.7140 C   0  0  0  0  0  2  0  0  0  0  0  0
  192.1010  173.3660  141.6050 C   0  0  1  0  0  3  0  0  0  0  0  0
  194.4210  172.5660  141.3170 N   0  0  0  0  0  2  0  0  0  0  0  0
  193.1740  175.4630  144.2280 O   0  0  0  0  0  0  0  0  0  0  0  0
  196.0570  176.4160  142.0930 C   0  0  0  0  0  1  0  0  0  0  0  0
  196.6770  170.7580  140.2370 C   0  0  0  0  0  1  0  0  0  0  0  0
  194.0500  174.9040  142.0500 C   0  0  1  0  0  3  0  0  0  0  0  0
  195.8210  172.8350  141.3400 C   0  0  0  0  0  0  0  0  0  0  0  0
  188.6040  177.5420  147.2620 N   0  0  0  0  0  2  0  0  0  0  0  0
  187.2380  177.3150  146.9100 C   0  0  0  0  0  0  0  0  0  0  0  0
  186.9280  176.4210  146.0780 O   0  0  0  0  0  0  0  0  0  0  0  0
  186.1730  178.1480  147.5250 C   0  0  0  0  0  1  0  0  0  0  0  0
  2 24  1  1  0  0  0
  4 21  1  0  0  0  0
  4  3  1  0  0  0  0
  5 25  1  6  0  0  0
  6  5  1  0  0  0  0
  7 19  1  1  0  0  0
  9 15  1  0  0  0  0
  9 28  1  0  0  0  0
 10 20  1  0  0  0  0
 11  3  1  0  0  0  0
 12 13  1  0  0  0  0
 12  2  1  0  0  0  0
 12  8  1  1  0  0  0
 13 11  1  6  0  0  0
 14 23  1  6  0  0  0
 15 18  2  0  0  0  0
 16  1  1  0  0  0  0
 17  8  1  6  0  0  0
 17  7  1  0  0  0  0
 17 10  1  0  0  0  0
 18  6  1  0  0  0  0
 19 16  1  0  0  0  0
 20 29  1  1  0  0  0
 20  1  1  0  0  0  0
 22 21  1  1  0  0  0
 22 14  1  0  0  0  0
 22 13  1  0  0  0  0
 23 28  1  0  0  0  0
 24  7  1  0  0  0  0
 26  9  1  0  0  0  0
 27 14  1  0  0  0  0
 27  5  1  0  0  0  0
 27  2  1  0  0  0  0
 28  6  2  0  0  0  0
 30 29  1  0  0  0  0
 30 32  1  0  0  0  0
 31 30  2  0  0  0  0
M  END
>  <MODEL>
8

>  <REMARK>
 VINA RESULT:      -7.1      3.098      7.775
  Name = 
  1 active torsions:
  status: ('A' for Active; 'I' for Inactive)
    1  A    between atoms: C_20  and  N_29
                            x       y       z     vdW  Elec       q    Type
                         _______ _______ _______ _____ _____    ______ ____

>  <TORSDO>
F 1

$$$$
=
 OpenBabel11112416303D

 32 37  0  0  1  0  0  0  0  0999 V2000
  195.6670  174.9850  143.0670 C   0  0  0  0  0  2  0  0  0  0  0  0
  190.3720  174.4790  144.3630 C   0  0  1  0  0  3  0  0  0  0  0  0
  189.7550  172.6010  139.8220 C   0  0  0  0  0  2  0  0  0  0  0  0
  188.4260  173.3240  139.6550 C   0  0  0  0  0  2  0  0  0  0  0  0
  188.9040  176.3670  145.2440 C   0  0  1  0  0  3  0  0  0  0  0  0
  187.6410  177.1270  144.9570 C   0  0  0  0  0  0  0  0  0  0  0  0
  192.6050  174.7900  144.2930 C   0  0  1  0  0  3  0  0  0  0  0  0
  191.7630  172.5700  143.5640 C   0  0  0  0  0  2  0  0  0  0  0  0
  185.8890  177.8090  143.8190 N   0  0  0  0  0  0  0  0  0  0  0  0
  194.2290  172.9700  143.5780 C   0  0  0  0  0  2  0  0  0  0  0  0
  189.9830  172.3160  141.3030 C   0  0  0  0  0  2  0  0  0  0  0  0
  190.3740  173.2270  143.4590 C   0  0  2  0  0  3  0  0  0  0  0  0
  190.0470  173.5720  142.0600 N   0  0  2  0  0  0  0  0  0  0  0  0
  188.6460  175.4750  142.8390 C   0  0  1  0  0  3  0  0  0  0  0  0
  185.9740  178.4630  144.9990 C   0  0  0  0  0  3  0  0  0  0  0  0
  194.5110  175.9770  143.0490 C   0  0  0  0  0  2  0  0  0  0  0  0
  192.8660  173.6010  143.3510 C   0  0  2  0  0  3  0  0  0  0  0  0
  187.0530  178.0680  145.7250 N   0  0  0  0  0  0  0  0  0  0  0  0
  193.7090  175.8530  144.3380 C   0  0  0  0  0  2  0  0  0  0  0  0
  195.2370  173.5870  142.6180 C   0  0  2  0  0  3  0  0  0  0  0  0
  188.4040  174.5750  140.5240 C   0  0  0  0  0  2  0  0  0  0  0  0
  188.7120  174.2080  141.9800 C   0  0  1  0  0  3  0  0  0  0  0  0
  187.3200  176.0960  142.7560 N   0  0  0  0  0  2  0  0  0  0  0  0
  191.3770  175.3860  143.9630 O   0  0  0  0  0  0  0  0  0  0  0  0
  188.9180  175.9140  146.6950 C   0  0  0  0  0  1  0  0  0  0  0  0
  184.8810  177.9860  142.7910 C   0  0  0  0  0  1  0  0  0  0  0  0
  189.0010  175.1390  144.3060 C   0  0  1  0  0  3  0  0  0  0  0  0
  186.9450  176.9920  143.7990 C   0  0  0  0  0  0  0  0  0  0  0  0
  196.4030  172.7210  142.5320 N   0  0  0  0  0  2  0  0  0  0  0  0
  196.6420  171.8590  141.4180 C   0  0  0  0  0  0  0  0  0  0  0  0
  195.8210  171.7980  140.4650 O   0  0  0  0  0  0  0  0  0  0  0  0
  197.8670  171.0200  141.3880 C   0  0  0  0  0  1  0  0  0  0  0  0
  2 24  1  6  0  0  0
  3 11  1  0  0  0  0
  4  3  1  0  0  0  0
  4 21  1  0  0  0  0
  5 25  1  1  0  0  0
  6  5  1  0  0  0  0
  6 18  1  0  0  0  0
  7 19  1  6  0  0  0
  9 15  1  0  0  0  0
 12  8  1  6  0  0  0
 12  2  1  0  0  0  0
 13 11  1  6  0  0  0
 13 12  1  0  0  0  0
 14 23  1  1  0  0  0
 14 27  1  0  0  0  0
 15 18  2  0  0  0  0
 16  1  1  0  0  0  0
 16 19  1  0  0  0  0
 17  8  1  1  0  0  0
 17 10  1  0  0  0  0
 17  7  1  0  0  0  0
 20 29  1  1  0  0  0
 20  1  1  0  0  0  0
 20 10  1  0  0  0  0
 22 21  1  6  0  0  0
 22 13  1  0  0  0  0
 22 14  1  0  0  0  0
 23 28  1  0  0  0  0
 24  7  1  0  0  0  0
 26  9  1  0  0  0  0
 27  2  1  0  0  0  0
 27  5  1  0  0  0  0
 28  9  1  0  0  0  0
 28  6  2  0  0  0  0
 30 29  1  0  0  0  0
 31 30  2  0  0  0  0
 32 30  1  0  0  0  0
M  END
>  <MODEL>
9

>  <REMARK>
 VINA RESULT:      -7.0      1.796      1.947
  Name = 
  1 active torsions:
  status: ('A' for Active; 'I' for Inactive)
    1  A    between atoms: C_20  and  N_29
                            x       y       z     vdW  Elec       q    Type
                         _______ _______ _______ _____ _____    ______ ____

>  <TORSDO>
F 1

$$$$
