=
 OpenBabel11112418023D

 34 40  0  0  1  0  0  0  0  0999 V2000
  188.5520  175.8360  142.5200 C   0  0  0  0  0  0  0  0  0  0  0  0
  190.1040  173.8440  141.9950 C   0  0  0  0  0  3  0  0  0  0  0  0
  184.7220  178.6350  146.7860 C   0  0  0  0  0  0  0  0  0  0  0  0
  187.0810  177.6410  143.2170 C   0  0  0  0  0  0  0  0  0  0  0  0
  186.8520  178.1680  145.5880 C   0  0  0  0  0  0  0  0  0  0  0  0
  186.9250  178.9550  148.0050 C   0  0  0  0  0  1  0  0  0  0  0  0
  184.2550  178.2340  147.8860 O   0  0  0  0  0  0  0  0  0  0  0  0
  184.1300  179.1040  144.3870 C   0  0  0  0  0  3  0  0  0  0  0  0
  189.8010  174.5380  144.2240 C   0  0  0  0  0  0  0  0  0  0  0  0
  192.1270  174.4410  146.1700 C   0  0  0  0  0  3  0  0  0  0  0  0
  187.7340  177.1220  145.9010 C   0  0  0  0  0  3  0  0  0  0  0  0
  185.5080  179.4960  143.9360 C   0  0  0  0  0  2  0  0  0  0  0  0
  189.2520  175.2360  145.2240 C   0  0  0  0  0  0  0  0  0  0  0  0
  190.9480  172.9410  142.9090 C   0  0  0  0  0  3  0  0  0  0  0  0
  186.5120  178.4190  144.2430 C   0  0  0  0  0  0  0  0  0  0  0  0
  183.8010  178.7420  145.6350 C   0  0  0  0  0  3  0  0  0  0  0  0
  192.0000  173.6170  145.1070 C   0  0  0  0  0  0  0  0  0  0  0  0
  187.9830  176.6100  143.5470 C   0  0  0  0  0  0  0  0  0  0  0  0
  186.1870  178.9810  146.6700 C   0  0  2  0  0  3  0  0  0  0  0  0
  188.3120  176.3430  144.8940 C   0  0  0  0  0  0  0  0  0  0  0  0
  187.3580  177.0650  140.8800 C   0  0  0  0  0  3  0  0  0  0  0  0
  191.1240  175.3860  146.7790 C   0  0  0  0  0  2  0  0  0  0  0  0
  186.7700  177.8610  141.8670 C   0  0  0  0  0  3  0  0  0  0  0  0
  189.6760  174.9520  146.6270 C   0  0  0  0  0  2  0  0  0  0  0  0
  190.6970  173.3640  144.3710 C   0  0  1  0  0  3  0  0  0  0  0  0
  188.2300  176.0770  141.2210 N   0  0  0  0  0  0  0  0  0  0  0  0
  189.4690  174.7970  142.8780 N   0  0  0  0  0  0  0  0  0  0  0  0
  193.1070  172.8570  144.7030 O   0  0  0  0  0  0  0  0  0  0  0  0
  194.1710  172.4900  145.5750 C   0  0  0  0  0  2  0  0  0  0  0  0
  195.5230  174.8510  143.5690 O   0  0  0  0  0  0  0  0  0  0  0  0
  195.7310  174.3980  145.7350 C   0  0  0  0  0  3  0  0  0  0  0  0
  195.4770  173.0820  145.0750 C   0  0  2  0  0  3  0  0  0  0  0  0
  195.7490  175.3590  144.8320 C   0  0  0  0  0  3  0  0  0  0  0  0
  195.3380  173.4470  143.6000 C   0  0  0  0  0  2  0  0  0  0  0  0
  1 27  1  0  0  0  0
  1 18  1  0  0  0  0
  2 27  1  0  0  0  0
  2 14  2  0  0  0  0
  3  7  2  0  0  0  0
  4 18  2  0  0  0  0
  4 15  1  0  0  0  0
  5 11  1  0  0  0  0
  5 19  1  0  0  0  0
  8 16  2  0  0  0  0
  9 25  1  0  0  0  0
  9 13  2  0  0  0  0
 10 22  1  0  0  0  0
 12 15  1  0  0  0  0
 12  8  1  0  0  0  0
 13 24  1  0  0  0  0
 15  5  2  0  0  0  0
 16  3  1  0  0  0  0
 17 10  2  0  0  0  0
 18 20  1  0  0  0  0
 19  3  1  0  0  0  0
 19  6  1  1  0  0  0
 20 13  1  0  0  0  0
 20 11  2  0  0  0  0
 21 26  1  0  0  0  0
 21 23  2  0  0  0  0
 23  4  1  0  0  0  0
 24 22  1  0  0  0  0
 25 14  1  6  0  0  0
 25 17  1  0  0  0  0
 26  1  2  0  0  0  0
 27  9  1  0  0  0  0
 28 17  1  0  0  0  0
 28 29  1  0  0  0  0
 30 34  1  0  0  0  0
 30 33  1  0  0  0  0
 32 29  1  1  0  0  0
 32 31  1  0  0  0  0
 33 31  2  0  0  0  0
 34 32  1  0  0  0  0
M  END
>  <MODEL>
1

>  <REMARK>
 VINA RESULT:      -9.7      0.000      0.000
  Name = 
  3 active torsions:
  status: ('A' for Active; 'I' for Inactive)
    1  A    between atoms: C_17  and  O_28
    2  A    between atoms: O_28  and  C_29
    3  A    between atoms: C_29  and  C_32
                            x       y       z     vdW  Elec       q    Type
                         _______ _______ _______ _____ _____    ______ ____

>  <TORSDO>
F 3

$$$$
=
 OpenBabel11112418023D

 34 40  0  0  1  0  0  0  0  0999 V2000
  188.8250  175.9330  142.8220 C   0  0  0  0  0  0  0  0  0  0  0  0
  190.5000  174.0140  142.4180 C   0  0  0  0  0  3  0  0  0  0  0  0
  184.6730  178.6310  146.8450 C   0  0  0  0  0  0  0  0  0  0  0  0
  187.2320  177.6740  143.4060 C   0  0  0  0  0  0  0  0  0  0  0  0
  186.8740  178.2480  145.7510 C   0  0  0  0  0  0  0  0  0  0  0  0
  186.8010  179.0990  148.1460 C   0  0  0  0  0  1  0  0  0  0  0  0
  184.1800  178.2340  147.9340 O   0  0  0  0  0  0  0  0  0  0  0  0
  184.1610  179.0060  144.4110 C   0  0  0  0  0  3  0  0  0  0  0  0
  190.0650  174.7470  144.6120 C   0  0  0  0  0  0  0  0  0  0  0  0
  192.3060  174.8240  146.6560 C   0  0  0  0  0  3  0  0  0  0  0  0
  187.7950  177.2590  146.1290 C   0  0  0  0  0  3  0  0  0  0  0  0
  185.5350  179.4600  144.0070 C   0  0  0  0  0  2  0  0  0  0  0  0
  189.4380  175.4400  145.5680 C   0  0  0  0  0  0  0  0  0  0  0  0
  191.3500  173.1810  143.3910 C   0  0  0  0  0  3  0  0  0  0  0  0
  186.5800  178.4470  144.3860 C   0  0  0  0  0  0  0  0  0  0  0  0
  183.7980  178.6600  145.6530 C   0  0  0  0  0  3  0  0  0  0  0  0
  192.2690  173.9680  145.6120 C   0  0  0  0  0  0  0  0  0  0  0  0
  188.1730  176.7010  143.8020 C   0  0  0  0  0  0  0  0  0  0  0  0
  186.1210  179.0520  146.7800 C   0  0  2  0  0  3  0  0  0  0  0  0
  188.4560  176.4870  145.1690 C   0  0  0  0  0  0  0  0  0  0  0  0
  187.6410  177.0540  141.1000 C   0  0  0  0  0  3  0  0  0  0  0  0
  191.2300  175.7300  147.1960 C   0  0  0  0  0  2  0  0  0  0  0  0
  186.9700  177.8420  142.0390 C   0  0  0  0  0  3  0  0  0  0  0  0
  189.8150  175.2150  146.9950 C   0  0  0  0  0  2  0  0  0  0  0  0
  191.0140  173.6270  144.8280 C   0  0  1  0  0  3  0  0  0  0  0  0
  188.5470  176.1230  141.5050 N   0  0  0  0  0  0  0  0  0  0  0  0
  189.7790  174.9540  143.2470 N   0  0  0  0  0  0  0  0  0  0  0  0
  193.4310  173.2570  145.2750 O   0  0  0  0  0  0  0  0  0  0  0  0
  194.7430  173.7970  145.3880 C   0  0  0  0  0  2  0  0  0  0  0  0
  196.7970  171.2760  146.3120 O   0  0  0  0  0  0  0  0  0  0  0  0
  195.1520  171.4270  144.8250 C   0  0  0  0  0  3  0  0  0  0  0  0
  195.7610  172.7890  144.8840 C   0  0  2  0  0  3  0  0  0  0  0  0
  195.7820  170.6150  145.6510 C   0  0  0  0  0  3  0  0  0  0  0  0
  196.8760  172.6330  145.9150 C   0  0  0  0  0  2  0  0  0  0  0  0
  1 27  1  0  0  0  0
  1 18  1  0  0  0  0
  2 27  1  0  0  0  0
  2 14  2  0  0  0  0
  3  7  2  0  0  0  0
  4 18  2  0  0  0  0
  4 15  1  0  0  0  0
  5 11  1  0  0  0  0
  5 19  1  0  0  0  0
  8 16  2  0  0  0  0
  9 25  1  0  0  0  0
  9 13  2  0  0  0  0
 10 22  1  0  0  0  0
 12 15  1  0  0  0  0
 12  8  1  0  0  0  0
 13 24  1  0  0  0  0
 15  5  2  0  0  0  0
 16  3  1  0  0  0  0
 17 10  2  0  0  0  0
 18 20  1  0  0  0  0
 19  3  1  0  0  0  0
 19  6  1  1  0  0  0
 20 13  1  0  0  0  0
 20 11  2  0  0  0  0
 21 26  1  0  0  0  0
 21 23  2  0  0  0  0
 23  4  1  0  0  0  0
 24 22  1  0  0  0  0
 25 14  1  6  0  0  0
 25 17  1  0  0  0  0
 26  1  2  0  0  0  0
 27  9  1  0  0  0  0
 28 29  1  0  0  0  0
 28 17  1  0  0  0  0
 31 32  1  0  0  0  0
 31 33  2  0  0  0  0
 32 29  1  1  0  0  0
 32 34  1  0  0  0  0
 33 30  1  0  0  0  0
 34 30  1  0  0  0  0
M  END
>  <MODEL>
2

>  <REMARK>
 VINA RESULT:      -9.4      1.039      1.442
  Name = 
  3 active torsions:
  status: ('A' for Active; 'I' for Inactive)
    1  A    between atoms: C_17  and  O_28
    2  A    between atoms: O_28  and  C_29
    3  A    between atoms: C_29  and  C_32
                            x       y       z     vdW  Elec       q    Type
                         _______ _______ _______ _____ _____    ______ ____

>  <TORSDO>
F 3

$$$$
=
 OpenBabel11112418023D

 34 40  0  0  1  0  0  0  0  0999 V2000
  188.2650  175.2280  141.0440 C   0  0  0  0  0  0  0  0  0  0  0  0
  186.8240  176.6450  139.4430 C   0  0  0  0  0  3  0  0  0  0  0  0
  191.4820  175.0140  146.5490 C   0  0  0  0  0  0  0  0  0  0  0  0
  189.6080  174.0530  142.6950 C   0  0  0  0  0  0  0  0  0  0  0  0
  189.5280  174.7460  145.0330 C   0  0  0  0  0  0  0  0  0  0  0  0
  189.1390  175.2180  147.5020 C   0  0  0  0  0  1  0  0  0  0  0  0
  191.8140  175.9160  147.3640 O   0  0  0  0  0  0  0  0  0  0  0  0
  192.3650  173.4760  144.7650 C   0  0  0  0  0  3  0  0  0  0  0  0
  186.8330  177.1260  141.7470 C   0  0  0  0  0  0  0  0  0  0  0  0
  184.2820  178.0400  143.1130 C   0  0  0  0  0  3  0  0  0  0  0  0
  188.6300  175.7700  144.6950 C   0  0  0  0  0  3  0  0  0  0  0  0
  191.0480  172.8510  144.4010 C   0  0  0  0  0  2  0  0  0  0  0  0
  187.2400  177.0230  143.0160 C   0  0  0  0  0  0  0  0  0  0  0  0
  185.8860  177.8360  139.6980 C   0  0  0  0  0  3  0  0  0  0  0  0
  190.0310  173.8930  144.0290 C   0  0  0  0  0  0  0  0  0  0  0  0
  192.5400  174.4080  145.7110 C   0  0  0  0  0  3  0  0  0  0  0  0
  184.5550  178.2540  141.8080 C   0  0  0  0  0  0  0  0  0  0  0  0
  188.6880  175.0720  142.3760 C   0  0  0  0  0  0  0  0  0  0  0  0
  190.0390  174.5860  146.4430 C   0  0  2  0  0  3  0  0  0  0  0  0
  188.1970  175.9400  143.3770 C   0  0  0  0  0  0  0  0  0  0  0  0
  189.6360  173.4180  140.3570 C   0  0  0  0  0  3  0  0  0  0  0  0
  185.1860  177.5530  144.2170 C   0  0  0  0  0  2  0  0  0  0  0  0
  190.0820  173.2250  141.6680 C   0  0  0  0  0  3  0  0  0  0  0  0
  186.6480  177.9270  144.0450 C   0  0  0  0  0  2  0  0  0  0  0  0
  185.9450  178.1820  141.2000 C   0  0  1  0  0  3  0  0  0  0  0  0
  188.7440  174.4060  140.0730 N   0  0  0  0  0  0  0  0  0  0  0  0
  187.3270  176.2660  140.7440 N   0  0  0  0  0  0  0  0  0  0  0  0
  183.5200  178.6730  140.9590 O   0  0  0  0  0  0  0  0  0  0  0  0
  182.3060  177.9510  140.7830 C   0  0  0  0  0  2  0  0  0  0  0  0
  178.9550  178.2120  141.1400 O   0  0  0  0  0  0  0  0  0  0  0  0
  180.6710  179.2290  142.1210 C   0  0  0  0  0  3  0  0  0  0  0  0
  181.1340  178.9140  140.7370 C   0  0  2  0  0  3  0  0  0  0  0  0
  179.4320  178.8110  142.2880 C   0  0  0  0  0  3  0  0  0  0  0  0
  179.9280  178.2180  140.1110 C   0  0  0  0  0  2  0  0  0  0  0  0
  1 18  1  0  0  0  0
  2 14  2  0  0  0  0
  2 27  1  0  0  0  0
  3  7  2  0  0  0  0
  4 15  1  0  0  0  0
  5 19  1  0  0  0  0
  8 16  2  0  0  0  0
  9 13  2  0  0  0  0
 10 22  1  0  0  0  0
 11  5  1  0  0  0  0
 12  8  1  0  0  0  0
 13 20  1  0  0  0  0
 13 24  1  0  0  0  0
 15 12  1  0  0  0  0
 15  5  2  0  0  0  0
 16  3  1  0  0  0  0
 17 10  2  0  0  0  0
 18  4  2  0  0  0  0
 18 20  1  0  0  0  0
 19  3  1  0  0  0  0
 19  6  1  1  0  0  0
 20 11  2  0  0  0  0
 21 23  2  0  0  0  0
 23  4  1  0  0  0  0
 24 22  1  0  0  0  0
 25 14  1  6  0  0  0
 25  9  1  0  0  0  0
 25 17  1  0  0  0  0
 26 21  1  0  0  0  0
 26  1  2  0  0  0  0
 27  1  1  0  0  0  0
 27  9  1  0  0  0  0
 28 17  1  0  0  0  0
 29 28  1  0  0  0  0
 30 33  1  0  0  0  0
 31 33  2  0  0  0  0
 32 29  1  1  0  0  0
 32 31  1  0  0  0  0
 34 32  1  0  0  0  0
 34 30  1  0  0  0  0
M  END
>  <MODEL>
3

>  <REMARK>
 VINA RESULT:      -8.9      2.961      8.941
  Name = 
  3 active torsions:
  status: ('A' for Active; 'I' for Inactive)
    1  A    between atoms: C_17  and  O_28
    2  A    between atoms: O_28  and  C_29
    3  A    between atoms: C_29  and  C_32
                            x       y       z     vdW  Elec       q    Type
                         _______ _______ _______ _____ _____    ______ ____

>  <TORSDO>
F 3

$$$$
=
 OpenBabel11112418023D

 34 40  0  0  1  0  0  0  0  0999 V2000
  189.6980  174.8080  142.0340 C   0  0  0  0  0  0  0  0  0  0  0  0
  187.2290  175.5490  142.0740 C   0  0  0  0  0  3  0  0  0  0  0  0
  195.6930  176.1310  143.7690 C   0  0  0  0  0  0  0  0  0  0  0  0
  192.0670  174.2700  142.1320 C   0  0  0  0  0  0  0  0  0  0  0  0
  193.4260  175.1270  143.9690 C   0  0  0  0  0  0  0  0  0  0  0  0
  194.7320  175.6920  146.0770 C   0  0  0  0  0  1  0  0  0  0  0  0
  196.2160  177.1650  144.2630 O   0  0  0  0  0  0  0  0  0  0  0  0
  195.4930  174.7750  141.6600 C   0  0  0  0  0  3  0  0  0  0  0  0
  188.6840  176.2290  143.7940 C   0  0  0  0  0  0  0  0  0  0  0  0
  187.6660  176.4380  146.6460 C   0  0  0  0  0  3  0  0  0  0  0  0
  192.3010  175.7860  144.4890 C   0  0  0  0  0  3  0  0  0  0  0  0
  194.5460  173.7420  142.2000 C   0  0  0  0  0  2  0  0  0  0  0  0
  189.8590  176.3800  144.4140 C   0  0  0  0  0  0  0  0  0  0  0  0
  186.4380  176.4110  143.0720 C   0  0  0  0  0  3  0  0  0  0  0  0
  193.3130  174.3780  142.7790 C   0  0  0  0  0  0  0  0  0  0  0  0
  195.9930  175.8030  142.3590 C   0  0  0  0  0  3  0  0  0  0  0  0
  186.8870  176.5990  145.5550 C   0  0  0  0  0  0  0  0  0  0  0  0
  190.9420  174.9190  142.6800 C   0  0  0  0  0  0  0  0  0  0  0  0
  194.7830  175.2700  144.6110 C   0  0  2  0  0  3  0  0  0  0  0  0
  191.0550  175.6850  143.8620 C   0  0  0  0  0  0  0  0  0  0  0  0
  190.6570  173.4530  140.3400 C   0  0  0  0  0  3  0  0  0  0  0  0
  189.1680  176.3630  146.7520 C   0  0  0  0  0  2  0  0  0  0  0  0
  191.9120  173.5340  140.9490 C   0  0  0  0  0  3  0  0  0  0  0  0
  189.9140  177.1520  145.6900 C   0  0  0  0  0  2  0  0  0  0  0  0
  187.4130  176.9010  144.1620 C   0  0  1  0  0  3  0  0  0  0  0  0
  189.5840  174.0850  140.8880 N   0  0  0  0  0  0  0  0  0  0  0  0
  188.5690  175.4710  142.6110 N   0  0  0  0  0  0  0  0  0  0  0  0
  185.4920  176.5930  145.7100 O   0  0  0  0  0  0  0  0  0  0  0  0
  184.8200  177.2200  146.7980 C   0  0  0  0  0  2  0  0  0  0  0  0
  185.7360  179.9330  145.0020 O   0  0  0  0  0  0  0  0  0  0  0  0
  183.9100  178.6660  145.0140 C   0  0  0  0  0  3  0  0  0  0  0  0
  184.4260  178.6350  146.4150 C   0  0  2  0  0  3  0  0  0  0  0  0
  184.6910  179.4170  144.2630 C   0  0  0  0  0  3  0  0  0  0  0  0
  185.6730  179.5110  146.3520 C   0  0  0  0  0  2  0  0  0  0  0  0
  1 27  1  0  0  0  0
  1 18  1  0  0  0  0
  2 27  1  0  0  0  0
  2 14  2  0  0  0  0
  3  7  2  0  0  0  0
  3 19  1  0  0  0  0
  4 18  2  0  0  0  0
  4 15  1  0  0  0  0
  5 11  1  0  0  0  0
  5 19  1  0  0  0  0
  8 12  1  0  0  0  0
  8 16  2  0  0  0  0
  9 25  1  0  0  0  0
  9 13  2  0  0  0  0
 10 22  1  0  0  0  0
 12 15  1  0  0  0  0
 13 24  1  0  0  0  0
 15  5  2  0  0  0  0
 16  3  1  0  0  0  0
 17 28  1  0  0  0  0
 17 10  2  0  0  0  0
 18 20  1  0  0  0  0
 19  6  1  1  0  0  0
 20 13  1  0  0  0  0
 20 11  2  0  0  0  0
 21 26  1  0  0  0  0
 21 23  2  0  0  0  0
 23  4  1  0  0  0  0
 24 22  1  0  0  0  0
 25 14  1  6  0  0  0
 25 17  1  0  0  0  0
 26  1  2  0  0  0  0
 27  9  1  0  0  0  0
 28 29  1  0  0  0  0
 30 34  1  0  0  0  0
 31 32  1  0  0  0  0
 32 29  1  6  0  0  0
 33 30  1  0  0  0  0
 33 31  2  0  0  0  0
 34 32  1  0  0  0  0
M  END
>  <MODEL>
4

>  <REMARK>
 VINA RESULT:      -8.8      1.934      8.092
  Name = 
  3 active torsions:
  status: ('A' for Active; 'I' for Inactive)
    1  A    between atoms: C_17  and  O_28
    2  A    between atoms: O_28  and  C_29
    3  A    between atoms: C_29  and  C_32
                            x       y       z     vdW  Elec       q    Type
                         _______ _______ _______ _____ _____    ______ ____

>  <TORSDO>
F 3

$$$$
=
 OpenBabel11112418023D

 34 40  0  0  1  0  0  0  0  0999 V2000
  189.4170  175.6830  143.0730 C   0  0  0  0  0  0  0  0  0  0  0  0
  191.3000  173.9720  142.6500 C   0  0  0  0  0  3  0  0  0  0  0  0
  185.3120  178.1640  147.2790 C   0  0  0  0  0  0  0  0  0  0  0  0
  187.6570  177.2450  143.6810 C   0  0  0  0  0  0  0  0  0  0  0  0
  187.4360  177.9760  145.9980 C   0  0  0  0  0  0  0  0  0  0  0  0
  187.4630  179.0230  148.3160 C   0  0  0  0  0  1  0  0  0  0  0  0
  184.9800  177.8050  148.4400 O   0  0  0  0  0  0  0  0  0  0  0  0
  184.5340  178.2470  144.8880 C   0  0  0  0  0  3  0  0  0  0  0  0
  190.9680  174.8370  144.8140 C   0  0  0  0  0  0  0  0  0  0  0  0
  193.3530  175.3920  146.6060 C   0  0  0  0  0  3  0  0  0  0  0  0
  188.5170  177.1550  146.3560 C   0  0  0  0  0  3  0  0  0  0  0  0
  185.7890  178.8390  144.3130 C   0  0  0  0  0  2  0  0  0  0  0  0
  190.3400  175.5240  145.7720 C   0  0  0  0  0  0  0  0  0  0  0  0
  192.3430  173.3490  143.5920 C   0  0  0  0  0  3  0  0  0  0  0  0
  186.9950  178.0100  144.6600 C   0  0  0  0  0  0  0  0  0  0  0  0
  184.3360  177.9690  146.1840 C   0  0  0  0  0  3  0  0  0  0  0  0
  193.3410  174.4480  145.6400 C   0  0  0  0  0  0  0  0  0  0  0  0
  188.7560  176.4440  144.0530 C   0  0  0  0  0  0  0  0  0  0  0  0
  186.6750  178.7640  147.0340 C   0  0  2  0  0  3  0  0  0  0  0  0
  189.1890  176.3930  145.3960 C   0  0  0  0  0  0  0  0  0  0  0  0
  187.9370  176.4780  141.4000 C   0  0  0  0  0  3  0  0  0  0  0  0
  192.2140  176.1930  147.1820 C   0  0  0  0  0  2  0  0  0  0  0  0
  187.2510  177.2530  142.3390 C   0  0  0  0  0  3  0  0  0  0  0  0
  190.8720  175.4810  147.1660 C   0  0  0  0  0  2  0  0  0  0  0  0
  192.0800  173.8750  145.0180 C   0  0  1  0  0  3  0  0  0  0  0  0
  188.9980  175.7150  141.7810 N   0  0  0  0  0  0  0  0  0  0  0  0
  190.5330  174.8800  143.4730 N   0  0  0  0  0  0  0  0  0  0  0  0
  194.5550  173.8680  145.2430 O   0  0  0  0  0  0  0  0  0  0  0  0
  195.8280  174.4450  145.5140 C   0  0  0  0  0  2  0  0  0  0  0  0
  195.3380  174.8420  142.1920 O   0  0  0  0  0  0  0  0  0  0  0  0
  195.9450  176.2350  143.8150 C   0  0  0  0  0  3  0  0  0  0  0  0
  196.4770  174.8980  144.2180 C   0  0  2  0  0  3  0  0  0  0  0  0
  195.3140  176.1400  142.6610 C   0  0  0  0  0  3  0  0  0  0  0  0
  196.0330  173.9840  143.0800 C   0  0  0  0  0  2  0  0  0  0  0  0
  1 27  1  0  0  0  0
  1 18  1  0  0  0  0
  2 27  1  0  0  0  0
  2 14  2  0  0  0  0
  3  7  2  0  0  0  0
  4 18  2  0  0  0  0
  4 15  1  0  0  0  0
  5 11  1  0  0  0  0
  5 19  1  0  0  0  0
  8 16  2  0  0  0  0
  9 25  1  0  0  0  0
  9 13  2  0  0  0  0
 10 22  1  0  0  0  0
 12 15  1  0  0  0  0
 12  8  1  0  0  0  0
 13 24  1  0  0  0  0
 15  5  2  0  0  0  0
 16  3  1  0  0  0  0
 17 10  2  0  0  0  0
 18 20  1  0  0  0  0
 19  3  1  0  0  0  0
 19  6  1  1  0  0  0
 20 13  1  0  0  0  0
 20 11  2  0  0  0  0
 21 26  1  0  0  0  0
 21 23  2  0  0  0  0
 23  4  1  0  0  0  0
 24 22  1  0  0  0  0
 25 14  1  6  0  0  0
 25 17  1  0  0  0  0
 26  1  2  0  0  0  0
 27  9  1  0  0  0  0
 28 29  1  0  0  0  0
 28 17  1  0  0  0  0
 30 33  1  0  0  0  0
 30 34  1  0  0  0  0
 31 32  1  0  0  0  0
 32 29  1  1  0  0  0
 33 31  2  0  0  0  0
 34 32  1  0  0  0  0
M  END
>  <MODEL>
5

>  <REMARK>
 VINA RESULT:      -8.7      1.134      1.393
  Name = 
  3 active torsions:
  status: ('A' for Active; 'I' for Inactive)
    1  A    between atoms: C_17  and  O_28
    2  A    between atoms: O_28  and  C_29
    3  A    between atoms: C_29  and  C_32
                            x       y       z     vdW  Elec       q    Type
                         _______ _______ _______ _____ _____    ______ ____

>  <TORSDO>
F 3

$$$$
=
 OpenBabel11112418023D

 34 40  0  0  1  0  0  0  0  0999 V2000
  187.4330  176.1230  140.8220 C   0  0  0  0  0  0  0  0  0  0  0  0
  188.3000  174.2770  139.2430 C   0  0  0  0  0  3  0  0  0  0  0  0
  185.9020  177.7420  146.8000 C   0  0  0  0  0  0  0  0  0  0  0  0
  186.6640  177.7310  142.4740 C   0  0  0  0  0  0  0  0  0  0  0  0
  187.3640  177.5030  144.8000 C   0  0  0  0  0  0  0  0  0  0  0  0
  188.4070  177.4830  147.1200 C   0  0  0  0  0  1  0  0  0  0  0  0
  185.7700  177.0560  147.8480 O   0  0  0  0  0  0  0  0  0  0  0  0
  184.6290  178.9870  145.0230 C   0  0  0  0  0  3  0  0  0  0  0  0
  188.9150  174.2590  141.5150 C   0  0  0  0  0  0  0  0  0  0  0  0
  191.7000  173.3670  142.3230 C   0  0  0  0  0  3  0  0  0  0  0  0
  188.0810  176.3440  144.4670 C   0  0  0  0  0  3  0  0  0  0  0  0
  185.8180  179.3870  144.1980 C   0  0  0  0  0  2  0  0  0  0  0  0
  188.8850  174.6490  142.7930 C   0  0  0  0  0  0  0  0  0  0  0  0
  189.2150  173.0670  139.4930 C   0  0  0  0  0  3  0  0  0  0  0  0
  186.6400  178.1910  143.8050 C   0  0  0  0  0  0  0  0  0  0  0  0
  184.6820  178.2800  146.1600 C   0  0  0  0  0  3  0  0  0  0  0  0
  191.0630  172.9320  141.2150 C   0  0  0  0  0  0  0  0  0  0  0  0
  187.4090  176.5790  142.1520 C   0  0  0  0  0  0  0  0  0  0  0  0
  187.2760  177.9870  146.2260 C   0  0  2  0  0  3  0  0  0  0  0  0
  188.1200  175.8770  143.1500 C   0  0  0  0  0  0  0  0  0  0  0  0
  186.0120  177.8970  140.1470 C   0  0  0  0  0  3  0  0  0  0  0  0
  191.1660  174.1520  143.4940 C   0  0  0  0  0  2  0  0  0  0  0  0
  185.9600  178.3880  141.4550 C   0  0  0  0  0  3  0  0  0  0  0  0
  189.6990  173.9060  143.7990 C   0  0  0  0  0  2  0  0  0  0  0  0
  189.5630  173.0290  140.9950 C   0  0  1  0  0  3  0  0  0  0  0  0
  186.7400  176.7850  139.8570 N   0  0  0  0  0  0  0  0  0  0  0  0
  188.2000  174.9530  140.5170 N   0  0  0  0  0  0  0  0  0  0  0  0
  191.7970  172.2490  140.2330 O   0  0  0  0  0  0  0  0  0  0  0  0
  193.0060  172.7460  139.6690 C   0  0  0  0  0  2  0  0  0  0  0  0
  194.3350  175.2130  137.7780 O   0  0  0  0  0  0  0  0  0  0  0  0
  192.3770  174.1610  137.7450 C   0  0  0  0  0  3  0  0  0  0  0  0
  192.8010  174.1670  139.1770 C   0  0  2  0  0  3  0  0  0  0  0  0
  193.2830  174.7680  137.0040 C   0  0  0  0  0  3  0  0  0  0  0  0
  194.1430  174.8930  139.1440 C   0  0  0  0  0  2  0  0  0  0  0  0
  1 18  1  0  0  0  0
  2 14  2  0  0  0  0
  2 27  1  0  0  0  0
  3  7  2  0  0  0  0
  4 15  1  0  0  0  0
  5 19  1  0  0  0  0
  8 16  2  0  0  0  0
  9 13  2  0  0  0  0
 10 22  1  0  0  0  0
 11  5  1  0  0  0  0
 12  8  1  0  0  0  0
 13 20  1  0  0  0  0
 13 24  1  0  0  0  0
 15 12  1  0  0  0  0
 15  5  2  0  0  0  0
 16  3  1  0  0  0  0
 17 10  2  0  0  0  0
 18  4  2  0  0  0  0
 18 20  1  0  0  0  0
 19  3  1  0  0  0  0
 19  6  1  1  0  0  0
 20 11  2  0  0  0  0
 21 23  2  0  0  0  0
 22 24  1  0  0  0  0
 23  4  1  0  0  0  0
 25 14  1  6  0  0  0
 25 17  1  0  0  0  0
 25  9  1  0  0  0  0
 26 21  1  0  0  0  0
 26  1  2  0  0  0  0
 27  1  1  0  0  0  0
 27  9  1  0  0  0  0
 28 17  1  0  0  0  0
 29 28  1  0  0  0  0
 30 34  1  0  0  0  0
 31 32  1  0  0  0  0
 32 29  1  6  0  0  0
 33 31  2  0  0  0  0
 33 30  1  0  0  0  0
 34 32  1  0  0  0  0
M  END
>  <MODEL>
6

>  <REMARK>
 VINA RESULT:      -8.4      2.572      3.663
  Name = 
  3 active torsions:
  status: ('A' for Active; 'I' for Inactive)
    1  A    between atoms: C_17  and  O_28
    2  A    between atoms: O_28  and  C_29
    3  A    between atoms: C_29  and  C_32
                            x       y       z     vdW  Elec       q    Type
                         _______ _______ _______ _____ _____    ______ ____

>  <TORSDO>
F 3

$$$$
=
 OpenBabel11112418023D

 34 40  0  0  1  0  0  0  0  0999 V2000
  192.6640  175.4040  145.5060 C   0  0  0  0  0  0  0  0  0  0  0  0
  190.8040  177.1720  145.7550 C   0  0  0  0  0  3  0  0  0  0  0  0
  194.1270  169.1990  145.2620 C   0  0  0  0  0  0  0  0  0  0  0  0
  194.2620  173.5890  145.2590 C   0  0  0  0  0  0  0  0  0  0  0  0
  193.5240  171.4410  144.3680 C   0  0  0  0  0  0  0  0  0  0  0  0
  192.8350  169.3570  143.0830 C   0  0  0  0  0  1  0  0  0  0  0  0
  193.4490  168.1660  145.5060 O   0  0  0  0  0  0  0  0  0  0  0  0
  195.9640  170.6690  146.1520 C   0  0  0  0  0  3  0  0  0  0  0  0
  190.2960  175.0550  144.8600 C   0  0  0  0  0  0  0  0  0  0  0  0
  188.2630  174.8050  142.6210 C   0  0  0  0  0  3  0  0  0  0  0  0
  192.2150  171.9370  144.2670 C   0  0  0  0  0  3  0  0  0  0  0  0
  195.9280  171.6880  145.0480 C   0  0  0  0  0  2  0  0  0  0  0  0
  190.5270  173.7820  144.5230 C   0  0  0  0  0  0  0  0  0  0  0  0
  189.3070  177.1330  145.4080 C   0  0  0  0  0  3  0  0  0  0  0  0
  194.5490  172.2640  144.8790 C   0  0  0  0  0  0  0  0  0  0  0  0
  195.1810  169.5840  146.2250 C   0  0  0  0  0  3  0  0  0  0  0  0
  188.2460  175.7890  143.5460 C   0  0  0  0  0  0  0  0  0  0  0  0
  192.9470  174.0790  145.1290 C   0  0  0  0  0  0  0  0  0  0  0  0
  193.8480  170.0100  144.0200 C   0  0  2  0  0  3  0  0  0  0  0  0
  191.9150  173.2520  144.6340 C   0  0  0  0  0  0  0  0  0  0  0  0
  194.9250  175.7490  146.1340 C   0  0  0  0  0  3  0  0  0  0  0  0
  189.0690  173.5320  142.5850 C   0  0  0  0  0  2  0  0  0  0  0  0
  195.2530  174.4390  145.7700 C   0  0  0  0  0  3  0  0  0  0  0  0
  189.4140  172.9680  143.9520 C   0  0  0  0  0  2  0  0  0  0  0  0
  188.9710  175.7240  144.8790 C   0  0  1  0  0  3  0  0  0  0  0  0
  193.6490  176.2020  145.9960 N   0  0  0  0  0  0  0  0  0  0  0  0
  191.3230  175.8810  145.3610 N   0  0  0  0  0  0  0  0  0  0  0  0
  187.4310  176.9100  143.3300 O   0  0  0  0  0  0  0  0  0  0  0  0
  186.0650  176.9780  143.7270 C   0  0  0  0  0  2  0  0  0  0  0  0
  183.7710  178.6660  145.5480 O   0  0  0  0  0  0  0  0  0  0  0  0
  185.6400  177.5880  146.0830 C   0  0  0  0  0  3  0  0  0  0  0  0
  185.8680  178.1210  144.7070 C   0  0  2  0  0  3  0  0  0  0  0  0
  184.4390  177.9300  146.5060 C   0  0  0  0  0  3  0  0  0  0  0  0
  184.5630  178.8450  144.3870 C   0  0  0  0  0  2  0  0  0  0  0  0
  1 26  1  0  0  0  0
  3  7  2  0  0  0  0
  3 16  1  0  0  0  0
  4 23  2  0  0  0  0
  5 15  2  0  0  0  0
  8 16  2  0  0  0  0
  9 25  1  0  0  0  0
  9 27  1  0  0  0  0
 10 17  2  0  0  0  0
 11  5  1  0  0  0  0
 11 20  2  0  0  0  0
 12  8  1  0  0  0  0
 13 20  1  0  0  0  0
 13  9  2  0  0  0  0
 14  2  2  0  0  0  0
 15 12  1  0  0  0  0
 15  4  1  0  0  0  0
 17 25  1  0  0  0  0
 18  4  1  0  0  0  0
 18  1  2  0  0  0  0
 19  6  1  1  0  0  0
 19  5  1  0  0  0  0
 19  3  1  0  0  0  0
 20 18  1  0  0  0  0
 22 10  1  0  0  0  0
 22 24  1  0  0  0  0
 23 21  1  0  0  0  0
 24 13  1  0  0  0  0
 25 14  1  6  0  0  0
 26 21  2  0  0  0  0
 27  1  1  0  0  0  0
 27  2  1  0  0  0  0
 28 17  1  0  0  0  0
 28 29  1  0  0  0  0
 30 33  1  0  0  0  0
 31 33  2  0  0  0  0
 32 29  1  6  0  0  0
 32 31  1  0  0  0  0
 34 32  1  0  0  0  0
 34 30  1  0  0  0  0
M  END
>  <MODEL>
7

>  <REMARK>
 VINA RESULT:      -8.3      2.359      9.196
  Name = 
  3 active torsions:
  status: ('A' for Active; 'I' for Inactive)
    1  A    between atoms: C_17  and  O_28
    2  A    between atoms: O_28  and  C_29
    3  A    between atoms: C_29  and  C_32
                            x       y       z     vdW  Elec       q    Type
                         _______ _______ _______ _____ _____    ______ ____

>  <TORSDO>
F 3

$$$$
=
 OpenBabel11112418023D

 34 40  0  0  1  0  0  0  0  0999 V2000
  189.9380  173.3300  142.7250 C   0  0  0  0  0  0  0  0  0  0  0  0
  187.7570  174.4950  141.9940 C   0  0  0  0  0  3  0  0  0  0  0  0
  196.1320  173.9860  144.1070 C   0  0  0  0  0  0  0  0  0  0  0  0
  192.0810  172.4260  143.4310 C   0  0  0  0  0  0  0  0  0  0  0  0
  193.6880  173.8720  144.5630 C   0  0  0  0  0  0  0  0  0  0  0  0
  195.1780  175.2720  146.0760 C   0  0  0  0  0  1  0  0  0  0  0  0
  196.9280  174.9500  143.9560 O   0  0  0  0  0  0  0  0  0  0  0  0
  195.4980  171.7240  143.2060 C   0  0  0  0  0  3  0  0  0  0  0  0
  189.4060  175.7140  143.1500 C   0  0  0  0  0  0  0  0  0  0  0  0
  188.5910  177.8360  145.1600 C   0  0  0  0  0  3  0  0  0  0  0  0
  192.8000  174.9510  144.4380 C   0  0  0  0  0  3  0  0  0  0  0  0
  194.3330  171.4860  144.1230 C   0  0  0  0  0  2  0  0  0  0  0  0
  190.6020  175.9290  143.7070 C   0  0  0  0  0  0  0  0  0  0  0  0
  187.2630  175.9400  142.1740 C   0  0  0  0  0  3  0  0  0  0  0  0
  193.3350  172.6090  144.0450 C   0  0  0  0  0  0  0  0  0  0  0  0
  196.2800  172.8130  143.2190 C   0  0  0  0  0  3  0  0  0  0  0  0
  187.8400  177.4800  144.0950 C   0  0  0  0  0  0  0  0  0  0  0  0
  191.1910  173.5150  143.3360 C   0  0  0  0  0  0  0  0  0  0  0  0
  195.0590  174.0520  145.1670 C   0  0  2  0  0  3  0  0  0  0  0  0
  191.5490  174.7860  143.8370 C   0  0  0  0  0  0  0  0  0  0  0  0
  190.4370  171.0490  142.3050 C   0  0  0  0  0  3  0  0  0  0  0  0
  190.0210  177.4920  145.4860 C   0  0  0  0  0  2  0  0  0  0  0  0
  191.6920  171.1870  142.9060 C   0  0  0  0  0  3  0  0  0  0  0  0
  190.9090  177.2760  144.2730 C   0  0  0  0  0  2  0  0  0  0  0  0
  188.3740  176.7450  142.8780 C   0  0  1  0  0  3  0  0  0  0  0  0
  189.5920  172.1130  142.2270 N   0  0  0  0  0  0  0  0  0  0  0  0
  189.0490  174.4480  142.6420 N   0  0  0  0  0  0  0  0  0  0  0  0
  186.5010  177.8960  144.0400 O   0  0  0  0  0  0  0  0  0  0  0  0
  186.0030  179.0390  144.7270 C   0  0  0  0  0  2  0  0  0  0  0  0
  185.7040  176.8430  147.2800 O   0  0  0  0  0  0  0  0  0  0  0  0
  185.6950  179.0630  147.1780 C   0  0  0  0  0  3  0  0  0  0  0  0
  185.1170  178.6030  145.8800 C   0  0  2  0  0  3  0  0  0  0  0  0
  186.0050  178.0240  147.9270 C   0  0  0  0  0  3  0  0  0  0  0  0
  185.1490  177.0820  145.9990 C   0  0  0  0  0  2  0  0  0  0  0  0
  1 18  1  0  0  0  0
  2 14  2  0  0  0  0
  2 27  1  0  0  0  0
  3 19  1  0  0  0  0
  4 15  1  0  0  0  0
  5 19  1  0  0  0  0
  7  3  2  0  0  0  0
  8 16  2  0  0  0  0
  8 12  1  0  0  0  0
  9 13  2  0  0  0  0
 10 22  1  0  0  0  0
 11  5  1  0  0  0  0
 13 20  1  0  0  0  0
 13 24  1  0  0  0  0
 15 12  1  0  0  0  0
 15  5  2  0  0  0  0
 16  3  1  0  0  0  0
 17 10  2  0  0  0  0
 18  4  2  0  0  0  0
 18 20  1  0  0  0  0
 19  6  1  6  0  0  0
 20 11  2  0  0  0  0
 21 23  2  0  0  0  0
 23  4  1  0  0  0  0
 24 22  1  0  0  0  0
 25 14  1  1  0  0  0
 25  9  1  0  0  0  0
 25 17  1  0  0  0  0
 26 21  1  0  0  0  0
 26  1  2  0  0  0  0
 27  1  1  0  0  0  0
 27  9  1  0  0  0  0
 28 17  1  0  0  0  0
 28 29  1  0  0  0  0
 30 33  1  0  0  0  0
 31 33  2  0  0  0  0
 32 29  1  6  0  0  0
 32 34  1  0  0  0  0
 32 31  1  0  0  0  0
 34 30  1  0  0  0  0
M  END
>  <MODEL>
8

>  <REMARK>
 VINA RESULT:      -8.2      1.718      8.393
  Name = 
  3 active torsions:
  status: ('A' for Active; 'I' for Inactive)
    1  A    between atoms: C_17  and  O_28
    2  A    between atoms: O_28  and  C_29
    3  A    between atoms: C_29  and  C_32
                            x       y       z     vdW  Elec       q    Type
                         _______ _______ _______ _____ _____    ______ ____

>  <TORSDO>
F 3

$$$$
=
 OpenBabel11112418023D

 34 40  0  0  1  0  0  0  0  0999 V2000
  187.4280  176.2120  140.9580 C   0  0  0  0  0  0  0  0  0  0  0  0
  188.3750  174.4360  139.3450 C   0  0  0  0  0  3  0  0  0  0  0  0
  185.8770  177.6700  146.9720 C   0  0  0  0  0  0  0  0  0  0  0  0
  186.5910  177.7550  142.6390 C   0  0  0  0  0  0  0  0  0  0  0  0
  187.3280  177.5350  144.9550 C   0  0  0  0  0  0  0  0  0  0  0  0
  188.3950  177.5420  147.2630 C   0  0  0  0  0  1  0  0  0  0  0  0
  185.7940  176.9640  148.0120 O   0  0  0  0  0  0  0  0  0  0  0  0
  184.5200  178.8670  145.2250 C   0  0  0  0  0  3  0  0  0  0  0  0
  189.0140  174.4210  141.6100 C   0  0  0  0  0  0  0  0  0  0  0  0
  191.8520  173.6700  142.3780 C   0  0  0  0  0  3  0  0  0  0  0  0
  188.1030  176.4210  144.5980 C   0  0  0  0  0  3  0  0  0  0  0  0
  185.6770  179.3420  144.3930 C   0  0  0  0  0  2  0  0  0  0  0  0
  188.9770  174.7940  142.8930 C   0  0  0  0  0  0  0  0  0  0  0  0
  189.3560  173.2740  139.5690 C   0  0  0  0  0  3  0  0  0  0  0  0
  186.5580  178.1960  143.9760 C   0  0  0  0  0  0  0  0  0  0  0  0
  184.6230  178.1500  146.3520 C   0  0  0  0  0  3  0  0  0  0  0  0
  191.2270  173.2160  141.2700 C   0  0  0  0  0  0  0  0  0  0  0  0
  187.3940  176.6490  142.2930 C   0  0  0  0  0  0  0  0  0  0  0  0
  187.2300  177.9960  146.3870 C   0  0  2  0  0  3  0  0  0  0  0  0
  188.1520  175.9730  143.2750 C   0  0  0  0  0  0  0  0  0  0  0  0
  185.9060  177.9160  140.3210 C   0  0  0  0  0  3  0  0  0  0  0  0
  191.2900  174.4100  143.5650 C   0  0  0  0  0  2  0  0  0  0  0  0
  185.8420  178.3860  141.6350 C   0  0  0  0  0  3  0  0  0  0  0  0
  189.8410  174.0820  143.8820 C   0  0  0  0  0  2  0  0  0  0  0  0
  189.7220  173.2360  141.0670 C   0  0  1  0  0  3  0  0  0  0  0  0
  186.6900  176.8480  140.0090 N   0  0  0  0  0  0  0  0  0  0  0  0
  188.2530  175.0900  140.6290 N   0  0  0  0  0  0  0  0  0  0  0  0
  191.9860  172.5860  140.2730 O   0  0  0  0  0  0  0  0  0  0  0  0
  192.4280  171.2360  140.3550 C   0  0  0  0  0  2  0  0  0  0  0  0
  195.2530  173.0270  140.8440 O   0  0  0  0  0  0  0  0  0  0  0  0
  194.5060  171.1100  141.6840 C   0  0  0  0  0  3  0  0  0  0  0  0
  193.9450  171.1840  140.3030 C   0  0  2  0  0  3  0  0  0  0  0  0
  195.2390  172.1780  141.9320 C   0  0  0  0  0  3  0  0  0  0  0  0
  194.4810  172.5110  139.7740 C   0  0  0  0  0  2  0  0  0  0  0  0
  1 18  1  0  0  0  0
  2 14  2  0  0  0  0
  2 27  1  0  0  0  0
  3  7  2  0  0  0  0
  4 15  1  0  0  0  0
  5 19  1  0  0  0  0
  8 16  2  0  0  0  0
  9 13  2  0  0  0  0
 10 22  1  0  0  0  0
 11  5  1  0  0  0  0
 12  8  1  0  0  0  0
 13 20  1  0  0  0  0
 13 24  1  0  0  0  0
 15 12  1  0  0  0  0
 15  5  2  0  0  0  0
 16  3  1  0  0  0  0
 17 10  2  0  0  0  0
 18  4  2  0  0  0  0
 18 20  1  0  0  0  0
 19  3  1  0  0  0  0
 19  6  1  1  0  0  0
 20 11  2  0  0  0  0
 21 23  2  0  0  0  0
 22 24  1  0  0  0  0
 23  4  1  0  0  0  0
 25 14  1  6  0  0  0
 25 17  1  0  0  0  0
 25  9  1  0  0  0  0
 26 21  1  0  0  0  0
 26  1  2  0  0  0  0
 27  1  1  0  0  0  0
 27  9  1  0  0  0  0
 28 29  1  0  0  0  0
 28 17  1  0  0  0  0
 30 33  1  0  0  0  0
 31 33  2  0  0  0  0
 32 29  1  1  0  0  0
 32 31  1  0  0  0  0
 34 32  1  0  0  0  0
 34 30  1  0  0  0  0
M  END
>  <MODEL>
9

>  <REMARK>
 VINA RESULT:      -8.1      2.185      2.967
  Name = 
  3 active torsions:
  status: ('A' for Active; 'I' for Inactive)
    1  A    between atoms: C_17  and  O_28
    2  A    between atoms: O_28  and  C_29
    3  A    between atoms: C_29  and  C_32
                            x       y       z     vdW  Elec       q    Type
                         _______ _______ _______ _____ _____    ______ ____

>  <TORSDO>
F 3

$$$$
