=
 OpenBabel11112418093D

 34 41  0  0  1  0  0  0  0  0999 V2000
  191.0880  175.6980  146.1600 C   0  0  2  0  0  3  0  0  0  0  0  0
  193.4820  175.2550  146.7680 C   0  0  0  0  0  2  0  0  0  0  0  0
  186.2820  177.2270  141.4590 C   0  0  2  0  0  3  0  0  0  0  0  0
  188.7660  176.0410  145.2240 C   0  0  1  0  0  3  0  0  0  0  0  0
  188.4740  177.1220  142.9250 C   0  0  2  0  0  3  0  0  0  0  0  0
  187.7890  175.4290  141.4170 O   0  0  0  0  0  0  0  0  0  0  0  0
  186.2320  178.5650  141.8880 O   0  0  0  0  0  0  0  0  0  0  0  0
  185.8060  177.6340  144.0330 C   0  0  0  0  0  2  0  0  0  0  0  0
  193.0940  176.7660  144.9790 C   0  0  2  0  0  3  0  0  0  0  0  0
  194.7960  175.7350  142.4700 C   0  0  0  0  0  2  0  0  0  0  0  0
  189.9120  176.6040  142.7680 C   0  0  0  0  0  2  0  0  0  0  0  0
  186.5670  176.4970  144.3260 O   0  0  0  0  0  0  0  0  0  0  0  0
  192.2160  176.4840  143.7480 C   0  0  1  0  0  3  0  0  0  0  0  0
  194.7380  175.5550  146.2160 O   0  0  0  0  0  0  0  0  0  0  0  0
  187.8970  176.9520  144.3550 C   0  0  1  0  0  3  0  0  0  0  0  0
  185.3620  177.6800  142.5620 C   0  0  2  0  0  3  0  0  0  0  0  0
  194.7180  175.0730  143.8420 C   0  0  2  0  0  3  0  0  0  0  0  0
  190.1860  176.6220  145.3210 C   0  0  2  0  0  3  0  0  0  0  0  0
  187.5530  176.5340  141.8820 C   0  0  0  0  0  0  0  0  0  0  0  0
  190.7940  177.0190  143.9460 C   0  0  2  0  0  3  0  0  0  0  0  0
  189.0630  174.9470  147.4490 C   0  0  0  0  0  2  0  0  0  0  0  0
  193.4000  176.0110  141.9250 C   0  0  0  0  0  2  0  0  0  0  0  0
  188.1820  175.8830  146.6250 C   0  0  0  0  0  2  0  0  0  0  0  0
  192.8010  177.0680  142.6190 O   0  0  0  0  0  0  0  0  0  0  0  0
  194.4860  176.1190  144.9500 C   0  0  1  0  0  3  0  0  0  0  0  0
  190.4790  175.5080  147.5510 C   0  0  0  0  0  2  0  0  0  0  0  0
  192.4950  176.2930  146.2870 C   0  0  1  0  0  3  0  0  0  0  0  0
  195.9110  174.3850  144.0800 O   0  0  0  0  0  0  0  0  0  0  0  0
  195.5850  173.0340  143.9120 C   0  0  0  0  0  2  0  0  0  0  0  0
  196.7090  170.5610  146.0800 C   0  0  0  0  0  3  0  0  0  0  0  0
  194.7830  171.0830  145.0950 O   0  0  0  0  0  0  0  0  0  0  0  0
  195.3900  172.3510  145.2600 C   0  0  1  0  0  3  0  0  0  0  0  0
  195.5840  170.0730  145.5940 C   0  0  0  0  0  3  0  0  0  0  0  0
  196.7330  172.0450  145.9220 C   0  0  0  0  0  2  0  0  0  0  0  0
  1 27  1  0  0  0  0
  1 26  1  1  0  0  0
  3 19  1  1  0  0  0
  3  7  1  0  0  0  0
  3 16  1  0  0  0  0
  4 18  1  0  0  0  0
  4 23  1  1  0  0  0
  5 11  1  1  0  0  0
  5 15  1  0  0  0  0
  6 19  2  0  0  0  0
  7 16  1  0  0  0  0
  8 12  1  0  0  0  0
  9 27  1  0  0  0  0
 10 17  1  0  0  0  0
 11 20  1  0  0  0  0
 12 15  1  0  0  0  0
 13 20  1  0  0  0  0
 13  9  1  0  0  0  0
 14  2  1  0  0  0  0
 15  4  1  0  0  0  0
 16  8  1  0  0  0  0
 17 28  1  0  0  0  0
 17 25  1  0  0  0  0
 18  1  1  0  0  0  0
 19  5  1  0  0  0  0
 20 18  1  0  0  0  0
 21 26  1  0  0  0  0
 22 10  1  0  0  0  0
 22 24  1  0  0  0  0
 23 21  1  0  0  0  0
 24 13  1  0  0  0  0
 25  9  1  0  0  0  0
 25 14  1  0  0  0  0
 27  2  1  0  0  0  0
 29 28  1  0  0  0  0
 29 32  1  0  0  0  0
 31 32  1  0  0  0  0
 31 33  1  0  0  0  0
 32 34  1  0  0  0  0
 33 30  2  0  0  0  0
 34 30  1  0  0  0  0
M  END
>  <MODEL>
1

>  <REMARK>
 VINA RESULT:      -8.7      0.000      0.000
  Name = 
  3 active torsions:
  status: ('A' for Active; 'I' for Inactive)
    1  A    between atoms: C_17  and  O_28
    2  A    between atoms: O_28  and  C_29
    3  A    between atoms: C_29  and  C_32
                            x       y       z     vdW  Elec       q    Type
                         _______ _______ _______ _____ _____    ______ ____

>  <TORSDO>
F 3

$$$$
=
 OpenBabel11112418093D

 34 41  0  0  1  0  0  0  0  0999 V2000
  190.9420  175.6370  146.2570 C   0  0  2  0  0  3  0  0  0  0  0  0
  193.3510  175.0970  146.7040 C   0  0  0  0  0  2  0  0  0  0  0  0
  185.9680  177.7540  141.9770 C   0  0  2  0  0  3  0  0  0  0  0  0
  188.5890  176.1140  145.4690 C   0  0  1  0  0  3  0  0  0  0  0  0
  188.2180  177.4550  143.3230 C   0  0  2  0  0  3  0  0  0  0  0  0
  187.4400  175.9530  141.6650 O   0  0  0  0  0  0  0  0  0  0  0  0
  185.9600  179.0350  142.5570 O   0  0  0  0  0  0  0  0  0  0  0  0
  185.6100  177.8710  144.5990 C   0  0  0  0  0  2  0  0  0  0  0  0
  192.9150  176.8070  145.1170 C   0  0  2  0  0  3  0  0  0  0  0  0
  194.4900  176.0480  142.4340 C   0  0  0  0  0  2  0  0  0  0  0  0
  189.6380  176.9390  143.0450 C   0  0  0  0  0  2  0  0  0  0  0  0
  186.3620  176.6980  144.7280 O   0  0  0  0  0  0  0  0  0  0  0  0
  191.9800  176.6790  143.9020 C   0  0  1  0  0  3  0  0  0  0  0  0
  194.5880  175.4420  146.1340 O   0  0  0  0  0  0  0  0  0  0  0  0
  187.7000  177.1290  144.7490 C   0  0  1  0  0  3  0  0  0  0  0  0
  185.1040  178.0900  143.1640 C   0  0  2  0  0  3  0  0  0  0  0  0
  194.4580  175.2340  143.7240 C   0  0  2  0  0  3  0  0  0  0  0  0
  190.0220  176.6620  145.5690 C   0  0  2  0  0  3  0  0  0  0  0  0
  187.2440  177.0010  142.2630 C   0  0  0  0  0  0  0  0  0  0  0  0
  190.5780  177.2060  144.2230 C   0  0  2  0  0  3  0  0  0  0  0  0
  188.9610  174.7710  147.5410 C   0  0  0  0  0  2  0  0  0  0  0  0
  193.0770  176.4010  141.9860 C   0  0  0  0  0  2  0  0  0  0  0  0
  188.0630  175.8050  146.8690 C   0  0  0  0  0  2  0  0  0  0  0  0
  192.5270  177.3800  142.8220 O   0  0  0  0  0  0  0  0  0  0  0  0
  194.2920  176.1500  144.9530 C   0  0  1  0  0  3  0  0  0  0  0  0
  190.3890  175.2970  147.6430 C   0  0  0  0  0  2  0  0  0  0  0  0
  192.3630  176.1950  146.3880 C   0  0  1  0  0  3  0  0  0  0  0  0
  195.6470  174.5080  143.8290 O   0  0  0  0  0  0  0  0  0  0  0  0
  196.6570  175.4300  143.5310 C   0  0  0  0  0  2  0  0  0  0  0  0
  197.7810  173.9740  140.5820 C   0  0  0  0  0  3  0  0  0  0  0  0
  197.5930  173.3550  142.7110 O   0  0  0  0  0  0  0  0  0  0  0  0
  197.8210  174.7490  142.8210 C   0  0  1  0  0  3  0  0  0  0  0  0
  197.5860  172.9500  141.3900 C   0  0  0  0  0  3  0  0  0  0  0  0
  197.9410  175.2280  141.3750 C   0  0  0  0  0  2  0  0  0  0  0  0
  1 27  1  0  0  0  0
  1 26  1  1  0  0  0
  3 19  1  1  0  0  0
  3  7  1  0  0  0  0
  3 16  1  0  0  0  0
  4 18  1  0  0  0  0
  4 23  1  1  0  0  0
  5 11  1  6  0  0  0
  5 15  1  0  0  0  0
  6 19  2  0  0  0  0
  7 16  1  0  0  0  0
  8 12  1  0  0  0  0
  9 27  1  0  0  0  0
 10 17  1  0  0  0  0
 11 20  1  0  0  0  0
 12 15  1  0  0  0  0
 13 20  1  0  0  0  0
 13  9  1  0  0  0  0
 14  2  1  0  0  0  0
 15  4  1  0  0  0  0
 16  8  1  0  0  0  0
 17 28  1  0  0  0  0
 17 25  1  0  0  0  0
 18  1  1  0  0  0  0
 19  5  1  0  0  0  0
 20 18  1  0  0  0  0
 21 26  1  0  0  0  0
 22 10  1  0  0  0  0
 22 24  1  0  0  0  0
 23 21  1  0  0  0  0
 24 13  1  0  0  0  0
 25  9  1  0  0  0  0
 25 14  1  0  0  0  0
 27  2  1  0  0  0  0
 29 28  1  0  0  0  0
 30 34  1  0  0  0  0
 30 33  2  0  0  0  0
 31 32  1  0  0  0  0
 32 29  1  0  0  0  0
 33 31  1  0  0  0  0
 34 32  1  0  0  0  0
M  END
>  <MODEL>
2

>  <REMARK>
 VINA RESULT:      -8.4      1.828      2.134
  Name = 
  3 active torsions:
  status: ('A' for Active; 'I' for Inactive)
    1  A    between atoms: C_17  and  O_28
    2  A    between atoms: O_28  and  C_29
    3  A    between atoms: C_29  and  C_32
                            x       y       z     vdW  Elec       q    Type
                         _______ _______ _______ _____ _____    ______ ____

>  <TORSDO>
F 3

$$$$
=
 OpenBabel11112418093D

 34 41  0  0  1  0  0  0  0  0999 V2000
  192.0150  176.0450  145.7870 C   0  0  2  0  0  3  0  0  0  0  0  0
  189.9540  177.4770  145.8010 C   0  0  0  0  0  2  0  0  0  0  0  0
  195.5190  170.6070  143.4030 C   0  0  2  0  0  3  0  0  0  0  0  0
  193.9950  174.5120  145.4470 C   0  0  1  0  0  3  0  0  0  0  0  0
  193.6600  172.2430  144.3160 C   0  0  2  0  0  3  0  0  0  0  0  0
  194.6120  172.3730  142.1510 O   0  0  0  0  0  0  0  0  0  0  0  0
  195.2290  169.8640  144.5600 O   0  0  0  0  0  0  0  0  0  0  0  0
  196.1790  171.7070  145.7200 C   0  0  0  0  0  2  0  0  0  0  0  0
  189.6500  175.1680  145.3420 C   0  0  2  0  0  3  0  0  0  0  0  0
  188.0180  174.9460  142.5950 C   0  0  0  0  0  2  0  0  0  0  0  0
  192.4300  172.9760  143.7590 C   0  0  0  0  0  2  0  0  0  0  0  0
  195.8290  172.9570  145.1970 O   0  0  0  0  0  0  0  0  0  0  0  0
  190.4070  174.3650  144.2710 C   0  0  1  0  0  3  0  0  0  0  0  0
  188.6050  177.3130  145.4450 O   0  0  0  0  0  0  0  0  0  0  0  0
  194.4400  173.0500  145.3880 C   0  0  1  0  0  3  0  0  0  0  0  0
  196.3990  170.6520  144.6240 C   0  0  2  0  0  3  0  0  0  0  0  0
  188.4620  176.2350  143.2800 C   0  0  2  0  0  3  0  0  0  0  0  0
  192.4910  174.5820  145.7620 C   0  0  2  0  0  3  0  0  0  0  0  0
  194.5720  171.7660  143.2110 C   0  0  0  0  0  0  0  0  0  0  0  0
  191.6220  173.6500  144.8700 C   0  0  2  0  0  3  0  0  0  0  0  0
  194.3180  176.7470  146.5130 C   0  0  0  0  0  2  0  0  0  0  0  0
  189.1900  173.9840  142.4470 C   0  0  0  0  0  2  0  0  0  0  0  0
  194.7730  175.2900  146.5050 C   0  0  0  0  0  2  0  0  0  0  0  0
  189.5370  173.4370  143.6880 O   0  0  0  0  0  0  0  0  0  0  0  0
  188.5170  176.0580  144.8110 C   0  0  1  0  0  3  0  0  0  0  0  0
  192.8260  176.8330  146.8190 C   0  0  0  0  0  2  0  0  0  0  0  0
  190.5240  176.1190  146.1350 C   0  0  1  0  0  3  0  0  0  0  0  0
  187.5640  177.2540  142.9520 O   0  0  0  0  0  0  0  0  0  0  0  0
  186.3170  176.6230  142.8820 C   0  0  0  0  0  2  0  0  0  0  0  0
  185.5670  179.6830  144.3480 C   0  0  0  0  0  3  0  0  0  0  0  0
  185.1870  177.5410  144.8140 O   0  0  0  0  0  0  0  0  0  0  0  0
  185.2150  177.5410  143.3980 C   0  0  1  0  0  3  0  0  0  0  0  0
  185.3880  178.8110  145.3210 C   0  0  0  0  0  3  0  0  0  0  0  0
  185.4920  178.9970  143.0250 C   0  0  0  0  0  2  0  0  0  0  0  0
  1 27  1  0  0  0  0
  1 26  1  1  0  0  0
  2 27  1  0  0  0  0
  3 19  1  1  0  0  0
  3  7  1  0  0  0  0
  3 16  1  0  0  0  0
  4 18  1  0  0  0  0
  4 23  1  1  0  0  0
  5 11  1  6  0  0  0
  5 15  1  0  0  0  0
  6 19  2  0  0  0  0
  7 16  1  0  0  0  0
  9 27  1  0  0  0  0
 10 17  1  0  0  0  0
 11 20  1  0  0  0  0
 12 15  1  0  0  0  0
 12  8  1  0  0  0  0
 13 20  1  0  0  0  0
 13  9  1  0  0  0  0
 14  2  1  0  0  0  0
 15  4  1  0  0  0  0
 16  8  1  0  0  0  0
 17 25  1  0  0  0  0
 18  1  1  0  0  0  0
 19  5  1  0  0  0  0
 20 18  1  0  0  0  0
 21 26  1  0  0  0  0
 22 10  1  0  0  0  0
 22 24  1  0  0  0  0
 23 21  1  0  0  0  0
 24 13  1  0  0  0  0
 25  9  1  0  0  0  0
 25 14  1  0  0  0  0
 28 17  1  0  0  0  0
 29 28  1  0  0  0  0
 29 32  1  0  0  0  0
 30 33  2  0  0  0  0
 31 33  1  0  0  0  0
 32 31  1  0  0  0  0
 34 32  1  0  0  0  0
 34 30  1  0  0  0  0
M  END
>  <MODEL>
3

>  <REMARK>
 VINA RESULT:      -8.4      1.949      8.389
  Name = 
  3 active torsions:
  status: ('A' for Active; 'I' for Inactive)
    1  A    between atoms: C_17  and  O_28
    2  A    between atoms: O_28  and  C_29
    3  A    between atoms: C_29  and  C_32
                            x       y       z     vdW  Elec       q    Type
                         _______ _______ _______ _____ _____    ______ ____

>  <TORSDO>
F 3

$$$$
=
 OpenBabel11112418093D

 34 41  0  0  1  0  0  0  0  0999 V2000
  189.7940  175.0000  142.4920 C   0  0  2  0  0  3  0  0  0  0  0  0
  187.4120  175.6660  142.9160 C   0  0  0  0  0  2  0  0  0  0  0  0
  196.4150  174.8740  144.4090 C   0  0  2  0  0  3  0  0  0  0  0  0
  192.2330  174.3460  142.4130 C   0  0  1  0  0  3  0  0  0  0  0  0
  193.9210  175.5670  143.8970 C   0  0  2  0  0  3  0  0  0  0  0  0
  194.5700  174.0780  145.6210 O   0  0  0  0  0  0  0  0  0  0  0  0
  196.7350  175.9100  143.5140 O   0  0  0  0  0  0  0  0  0  0  0  0
  195.7550  174.4990  141.8710 C   0  0  0  0  0  2  0  0  0  0  0  0
  189.0940  177.1090  143.7650 C   0  0  2  0  0  3  0  0  0  0  0  0
  188.5070  177.5340  146.8840 C   0  0  0  0  0  2  0  0  0  0  0  0
  192.6420  175.8500  144.6990 C   0  0  0  0  0  2  0  0  0  0  0  0
  194.5960  173.8410  142.2970 O   0  0  0  0  0  0  0  0  0  0  0  0
  190.2760  176.6780  144.6500 C   0  0  1  0  0  3  0  0  0  0  0  0
  186.7560  176.6360  143.6910 O   0  0  0  0  0  0  0  0  0  0  0  0
  193.6650  174.8680  142.5350 C   0  0  1  0  0  3  0  0  0  0  0  0
  196.8120  174.6040  142.9820 C   0  0  2  0  0  3  0  0  0  0  0  0
  187.6990  176.6680  145.9230 C   0  0  2  0  0  3  0  0  0  0  0  0
  191.2430  175.5110  142.5720 C   0  0  2  0  0  3  0  0  0  0  0  0
  194.9400  174.8170  144.7210 C   0  0  0  0  0  0  0  0  0  0  0  0
  191.5280  176.4080  143.8100 C   0  0  2  0  0  3  0  0  0  0  0  0
  190.5720  173.1310  140.9990 C   0  0  0  0  0  2  0  0  0  0  0  0
  189.9900  177.1960  146.7950 C   0  0  0  0  0  2  0  0  0  0  0  0
  192.0020  173.6610  141.0680 C   0  0  0  0  0  2  0  0  0  0  0  0
  190.5320  177.6760  145.5970 O   0  0  0  0  0  0  0  0  0  0  0  0
  187.7470  177.2370  144.4900 C   0  0  1  0  0  3  0  0  0  0  0  0
  189.5760  174.2760  141.1610 C   0  0  0  0  0  2  0  0  0  0  0  0
  188.8060  176.1650  142.6160 C   0  0  1  0  0  3  0  0  0  0  0  0
  186.3760  176.6130  146.3670 O   0  0  0  0  0  0  0  0  0  0  0  0
  186.2740  177.6370  147.3170 C   0  0  0  0  0  2  0  0  0  0  0  0
  184.0710  178.6660  144.8340 C   0  0  0  0  0  3  0  0  0  0  0  0
  185.7290  179.5890  145.9970 O   0  0  0  0  0  0  0  0  0  0  0  0
  185.2050  178.6460  146.9150 C   0  0  1  0  0  3  0  0  0  0  0  0
  185.0320  179.5700  144.8040 C   0  0  0  0  0  3  0  0  0  0  0  0
  184.0670  177.9680  146.1530 C   0  0  0  0  0  2  0  0  0  0  0  0
  1 26  1  6  0  0  0
  1 18  1  0  0  0  0
  1 27  1  0  0  0  0
  2 14  1  0  0  0  0
  3  7  1  6  0  0  0
  3 19  1  0  0  0  0
  4 23  1  6  0  0  0
  4 15  1  0  0  0  0
  4 18  1  0  0  0  0
  5 11  1  1  0  0  0
  5 19  1  0  0  0  0
  8 12  1  0  0  0  0
  8 16  1  0  0  0  0
  9 25  1  0  0  0  0
  9 13  1  0  0  0  0
 12 15  1  0  0  0  0
 13 24  1  0  0  0  0
 14 25  1  0  0  0  0
 15  5  1  0  0  0  0
 16  7  1  0  0  0  0
 16  3  1  0  0  0  0
 17 28  1  0  0  0  0
 17 10  1  0  0  0  0
 18 20  1  0  0  0  0
 19  6  2  0  0  0  0
 20 13  1  0  0  0  0
 20 11  1  0  0  0  0
 21 23  1  0  0  0  0
 21 26  1  0  0  0  0
 22 10  1  0  0  0  0
 24 22  1  0  0  0  0
 25 17  1  0  0  0  0
 27  2  1  0  0  0  0
 27  9  1  0  0  0  0
 28 29  1  0  0  0  0
 30 34  1  0  0  0  0
 31 32  1  0  0  0  0
 32 29  1  0  0  0  0
 33 30  2  0  0  0  0
 33 31  1  0  0  0  0
 34 32  1  0  0  0  0
M  END
>  <MODEL>
4

>  <REMARK>
 VINA RESULT:      -8.3      2.220      8.590
  Name = 
  3 active torsions:
  status: ('A' for Active; 'I' for Inactive)
    1  A    between atoms: C_17  and  O_28
    2  A    between atoms: O_28  and  C_29
    3  A    between atoms: C_29  and  C_32
                            x       y       z     vdW  Elec       q    Type
                         _______ _______ _______ _____ _____    ______ ____

>  <TORSDO>
F 3

$$$$
=
 OpenBabel11112418093D

 34 41  0  0  1  0  0  0  0  0999 V2000
  191.9760  176.0420  145.8270 C   0  0  2  0  0  3  0  0  0  0  0  0
  189.9240  177.3150  146.5090 C   0  0  0  0  0  2  0  0  0  0  0  0
  195.1830  171.6910  141.5470 C   0  0  2  0  0  3  0  0  0  0  0  0
  193.9070  174.7640  144.8150 C   0  0  1  0  0  3  0  0  0  0  0  0
  193.4460  172.9070  143.1180 C   0  0  2  0  0  3  0  0  0  0  0  0
  194.1090  173.7010  140.9870 O   0  0  0  0  0  0  0  0  0  0  0  0
  195.0510  170.6320  142.4620 O   0  0  0  0  0  0  0  0  0  0  0  0
  196.1290  172.1020  143.9870 C   0  0  0  0  0  2  0  0  0  0  0  0
  189.5800  175.2270  145.4350 C   0  0  2  0  0  3  0  0  0  0  0  0
  187.6080  175.7360  142.9630 C   0  0  0  0  0  2  0  0  0  0  0  0
  192.1490  173.7140  142.9540 C   0  0  0  0  0  2  0  0  0  0  0  0
  195.7050  173.4320  143.9000 O   0  0  0  0  0  0  0  0  0  0  0  0
  190.1980  174.8030  144.0920 C   0  0  1  0  0  3  0  0  0  0  0  0
  188.5410  177.2000  146.2870 O   0  0  0  0  0  0  0  0  0  0  0  0
  194.3510  173.4040  144.2770 C   0  0  1  0  0  3  0  0  0  0  0  0
  196.2130  171.4200  142.6120 C   0  0  2  0  0  3  0  0  0  0  0  0
  188.1280  176.7900  143.9360 C   0  0  2  0  0  3  0  0  0  0  0  0
  192.4560  174.6720  145.3160 C   0  0  2  0  0  3  0  0  0  0  0  0
  194.2100  172.8120  141.8200 C   0  0  0  0  0  0  0  0  0  0  0  0
  191.4860  174.0010  144.3030 C   0  0  2  0  0  3  0  0  0  0  0  0
  194.3490  176.6070  146.4410 C   0  0  0  0  0  2  0  0  0  0  0  0
  188.7590  174.9120  142.3980 C   0  0  0  0  0  2  0  0  0  0  0  0
  194.8090  175.2370  145.9520 C   0  0  0  0  0  2  0  0  0  0  0  0
  189.2670  174.0450  143.3730 O   0  0  0  0  0  0  0  0  0  0  0  0
  188.3810  176.1800  145.3290 C   0  0  1  0  0  3  0  0  0  0  0  0
  192.9070  176.5340  146.9370 C   0  0  0  0  0  2  0  0  0  0  0  0
  190.5420  175.9450  146.3590 C   0  0  1  0  0  3  0  0  0  0  0  0
  187.1870  177.8190  144.0320 O   0  0  0  0  0  0  0  0  0  0  0  0
  185.9470  177.1700  144.0560 C   0  0  0  0  0  2  0  0  0  0  0  0
  185.6720  179.1280  146.9140 C   0  0  0  0  0  3  0  0  0  0  0  0
  184.9410  177.1320  146.2560 O   0  0  0  0  0  0  0  0  0  0  0  0
  184.9980  177.8490  145.0360 C   0  0  1  0  0  3  0  0  0  0  0  0
  185.3350  177.9200  147.3210 C   0  0  0  0  0  3  0  0  0  0  0  0
  185.5150  179.2320  145.4330 C   0  0  0  0  0  2  0  0  0  0  0  0
  1 27  1  0  0  0  0
  1 26  1  1  0  0  0
  3 19  1  1  0  0  0
  3  7  1  0  0  0  0
  3 16  1  0  0  0  0
  4 18  1  0  0  0  0
  4 23  1  1  0  0  0
  5 11  1  6  0  0  0
  5 15  1  0  0  0  0
  6 19  2  0  0  0  0
  7 16  1  0  0  0  0
  9 27  1  0  0  0  0
 10 17  1  0  0  0  0
 11 20  1  0  0  0  0
 12  8  1  0  0  0  0
 12 15  1  0  0  0  0
 13 20  1  0  0  0  0
 13  9  1  0  0  0  0
 14  2  1  0  0  0  0
 15  4  1  0  0  0  0
 16  8  1  0  0  0  0
 17 28  1  0  0  0  0
 17 25  1  0  0  0  0
 18  1  1  0  0  0  0
 19  5  1  0  0  0  0
 20 18  1  0  0  0  0
 21 26  1  0  0  0  0
 22 10  1  0  0  0  0
 22 24  1  0  0  0  0
 23 21  1  0  0  0  0
 24 13  1  0  0  0  0
 25  9  1  0  0  0  0
 25 14  1  0  0  0  0
 27  2  1  0  0  0  0
 28 29  1  0  0  0  0
 29 32  1  0  0  0  0
 30 33  2  0  0  0  0
 31 33  1  0  0  0  0
 32 34  1  0  0  0  0
 32 31  1  0  0  0  0
 34 30  1  0  0  0  0
M  END
>  <MODEL>
5

>  <REMARK>
 VINA RESULT:      -8.3      2.043      8.154
  Name = 
  3 active torsions:
  status: ('A' for Active; 'I' for Inactive)
    1  A    between atoms: C_17  and  O_28
    2  A    between atoms: O_28  and  C_29
    3  A    between atoms: C_29  and  C_32
                            x       y       z     vdW  Elec       q    Type
                         _______ _______ _______ _____ _____    ______ ____

>  <TORSDO>
F 3

$$$$
=
 OpenBabel11112418093D

 34 41  0  0  1  0  0  0  0  0999 V2000
  187.9190  177.3160  145.5910 C   0  0  2  0  0  3  0  0  0  0  0  0
  185.5660  178.0960  145.2020 C   0  0  0  0  0  2  0  0  0  0  0  0
  193.8850  174.8340  143.1860 C   0  0  2  0  0  3  0  0  0  0  0  0
  190.3470  176.6180  145.6460 C   0  0  1  0  0  3  0  0  0  0  0  0
  191.3380  175.3250  143.6750 C   0  0  2  0  0  3  0  0  0  0  0  0
  192.7850  176.7930  142.5090 O   0  0  0  0  0  0  0  0  0  0  0  0
  193.5730  173.5400  143.6370 O   0  0  0  0  0  0  0  0  0  0  0  0
  193.2740  174.5830  145.7510 C   0  0  0  0  0  2  0  0  0  0  0  0
  186.3870  176.4080  143.7500 C   0  0  2  0  0  3  0  0  0  0  0  0
  185.9450  177.4310  140.7470 C   0  0  0  0  0  2  0  0  0  0  0  0
  190.1620  176.0000  142.9550 C   0  0  0  0  0  2  0  0  0  0  0  0
  192.6310  175.8240  145.6930 O   0  0  0  0  0  0  0  0  0  0  0  0
  187.7010  176.4800  142.9530 C   0  0  1  0  0  3  0  0  0  0  0  0
  184.5880  177.9080  144.2110 O   0  0  0  0  0  0  0  0  0  0  0  0
  191.3410  175.5400  145.2120 C   0  0  1  0  0  3  0  0  0  0  0  0
  194.2360  174.3640  144.5730 C   0  0  2  0  0  3  0  0  0  0  0  0
  185.5860  178.1890  142.0220 C   0  0  2  0  0  3  0  0  0  0  0  0
  188.9300  176.2240  145.1970 C   0  0  2  0  0  3  0  0  0  0  0  0
  192.6630  175.7090  143.0600 C   0  0  0  0  0  0  0  0  0  0  0  0
  188.8450  175.7930  143.7050 C   0  0  2  0  0  3  0  0  0  0  0  0
  189.3810  177.9170  147.5480 C   0  0  0  0  0  2  0  0  0  0  0  0
  187.3880  176.9440  140.7990 C   0  0  0  0  0  2  0  0  0  0  0  0
  190.3650  176.8160  147.1600 C   0  0  0  0  0  2  0  0  0  0  0  0
  187.5150  175.8820  141.7010 O   0  0  0  0  0  0  0  0  0  0  0  0
  185.2220  177.2160  143.1610 C   0  0  1  0  0  3  0  0  0  0  0  0
  187.9690  177.5440  147.1030 C   0  0  0  0  0  2  0  0  0  0  0  0
  186.5010  176.9100  145.1740 C   0  0  1  0  0  3  0  0  0  0  0  0
  184.5060  179.0340  141.7560 O   0  0  0  0  0  0  0  0  0  0  0  0
  183.7790  178.3830  140.7520 C   0  0  0  0  0  2  0  0  0  0  0  0
  180.3450  178.8920  140.5930 C   0  0  0  0  0  3  0  0  0  0  0  0
  181.9000  178.8980  142.1860 O   0  0  0  0  0  0  0  0  0  0  0  0
  182.4120  177.9490  141.2670 C   0  0  1  0  0  3  0  0  0  0  0  0
  180.6920  179.4130  141.7540 C   0  0  0  0  0  3  0  0  0  0  0  0
  181.3820  177.9200  140.1380 C   0  0  0  0  0  2  0  0  0  0  0  0
  1 26  1  1  0  0  0
  3 19  1  1  0  0  0
  3  7  1  0  0  0  0
  3 16  1  0  0  0  0
  4 23  1  1  0  0  0
  5 11  1  6  0  0  0
  5 15  1  0  0  0  0
  6 19  2  0  0  0  0
  7 16  1  0  0  0  0
  9 27  1  0  0  0  0
 10 22  1  0  0  0  0
 10 17  1  0  0  0  0
 11 20  1  0  0  0  0
 12  8  1  0  0  0  0
 13 20  1  0  0  0  0
 13  9  1  0  0  0  0
 14  2  1  0  0  0  0
 15  4  1  0  0  0  0
 15 12  1  0  0  0  0
 16  8  1  0  0  0  0
 17 25  1  0  0  0  0
 18  1  1  0  0  0  0
 18  4  1  0  0  0  0
 19  5  1  0  0  0  0
 20 18  1  0  0  0  0
 22 24  1  0  0  0  0
 23 21  1  0  0  0  0
 24 13  1  0  0  0  0
 25  9  1  0  0  0  0
 25 14  1  0  0  0  0
 26 21  1  0  0  0  0
 27  2  1  0  0  0  0
 27  1  1  0  0  0  0
 28 17  1  0  0  0  0
 29 32  1  0  0  0  0
 29 28  1  0  0  0  0
 30 33  2  0  0  0  0
 32 31  1  0  0  0  0
 33 31  1  0  0  0  0
 34 30  1  0  0  0  0
 34 32  1  0  0  0  0
M  END
>  <MODEL>
6

>  <REMARK>
 VINA RESULT:      -8.2      2.227      9.224
  Name = 
  3 active torsions:
  status: ('A' for Active; 'I' for Inactive)
    1  A    between atoms: C_17  and  O_28
    2  A    between atoms: O_28  and  C_29
    3  A    between atoms: C_29  and  C_32
                            x       y       z     vdW  Elec       q    Type
                         _______ _______ _______ _____ _____    ______ ____

>  <TORSDO>
F 3

$$$$
=
 OpenBabel11112418093D

 34 41  0  0  1  0  0  0  0  0999 V2000
  192.4570  176.0610  145.9240 C   0  0  2  0  0  3  0  0  0  0  0  0
  194.8640  175.3860  146.1380 C   0  0  0  0  0  2  0  0  0  0  0  0
  186.8010  176.9530  142.0830 C   0  0  2  0  0  3  0  0  0  0  0  0
  190.0240  176.5280  145.4280 C   0  0  1  0  0  3  0  0  0  0  0  0
  189.2710  176.8940  143.0110 C   0  0  2  0  0  3  0  0  0  0  0  0
  188.0440  174.9800  142.3440 O   0  0  0  0  0  0  0  0  0  0  0  0
  187.0080  178.3430  142.0320 O   0  0  0  0  0  0  0  0  0  0  0  0
  187.0480  178.2050  144.4040 C   0  0  0  0  0  2  0  0  0  0  0  0
  194.1970  176.3260  144.0630 C   0  0  2  0  0  3  0  0  0  0  0  0
  195.0780  174.2830  141.7600 C   0  0  0  0  0  2  0  0  0  0  0  0
  190.5560  176.0940  142.7470 C   0  0  0  0  0  2  0  0  0  0  0  0
  187.7310  177.0910  144.9030 O   0  0  0  0  0  0  0  0  0  0  0  0
  193.0080  175.8510  143.2110 C   0  0  1  0  0  3  0  0  0  0  0  0
  195.9620  175.2650  145.2700 O   0  0  0  0  0  0  0  0  0  0  0  0
  189.0650  177.2770  144.5010 C   0  0  1  0  0  3  0  0  0  0  0  0
  186.2490  177.8830  143.1310 C   0  0  2  0  0  3  0  0  0  0  0  0
  195.2820  174.0960  143.2600 C   0  0  2  0  0  3  0  0  0  0  0  0
  191.4760  176.8360  145.0270 C   0  0  2  0  0  3  0  0  0  0  0  0
  188.0560  176.1980  142.4450 C   0  0  0  0  0  0  0  0  0  0  0  0
  191.7510  176.6760  143.5040 C   0  0  2  0  0  3  0  0  0  0  0  0
  190.7610  176.1290  147.7800 C   0  0  0  0  0  2  0  0  0  0  0  0
  193.6270  174.6340  141.4540 C   0  0  0  0  0  2  0  0  0  0  0  0
  189.8050  176.9160  146.8880 C   0  0  0  0  0  2  0  0  0  0  0  0
  193.3440  175.9450  141.8560 O   0  0  0  0  0  0  0  0  0  0  0  0
  195.4570  175.4540  143.9690 C   0  0  1  0  0  3  0  0  0  0  0  0
  192.2080  176.4200  147.3910 C   0  0  0  0  0  2  0  0  0  0  0  0
  193.9050  176.3930  145.5480 C   0  0  1  0  0  3  0  0  0  0  0  0
  196.4150  173.3030  143.4660 O   0  0  0  0  0  0  0  0  0  0  0  0
  195.9150  172.0160  143.6950 C   0  0  0  0  0  2  0  0  0  0  0  0
  196.3970  170.0410  146.5130 C   0  0  0  0  0  3  0  0  0  0  0  0
  194.6530  170.7630  145.3340 O   0  0  0  0  0  0  0  0  0  0  0  0
  195.5860  171.8160  145.1690 C   0  0  1  0  0  3  0  0  0  0  0  0
  195.1670  169.7570  146.1300 C   0  0  0  0  0  3  0  0  0  0  0  0
  196.8160  171.3580  145.9510 C   0  0  0  0  0  2  0  0  0  0  0  0
  1 26  1  1  0  0  0
  3  7  1  6  0  0  0
  3 19  1  0  0  0  0
  3 16  1  0  0  0  0
  4 23  1  1  0  0  0
  5 11  1  1  0  0  0
  5 15  1  0  0  0  0
  6 19  2  0  0  0  0
  7 16  1  0  0  0  0
  8 12  1  0  0  0  0
  9 27  1  0  0  0  0
 10 17  1  0  0  0  0
 11 20  1  0  0  0  0
 13 20  1  0  0  0  0
 13  9  1  0  0  0  0
 14  2  1  0  0  0  0
 15 12  1  0  0  0  0
 15  4  1  0  0  0  0
 16  8  1  0  0  0  0
 17 28  1  0  0  0  0
 17 25  1  0  0  0  0
 18  4  1  0  0  0  0
 18  1  1  0  0  0  0
 19  5  1  0  0  0  0
 20 18  1  0  0  0  0
 22 10  1  0  0  0  0
 22 24  1  0  0  0  0
 23 21  1  0  0  0  0
 24 13  1  0  0  0  0
 25  9  1  0  0  0  0
 25 14  1  0  0  0  0
 26 21  1  0  0  0  0
 27  1  1  0  0  0  0
 27  2  1  0  0  0  0
 28 29  1  0  0  0  0
 29 32  1  0  0  0  0
 31 33  1  0  0  0  0
 32 31  1  0  0  0  0
 32 34  1  0  0  0  0
 33 30  2  0  0  0  0
 34 30  1  0  0  0  0
M  END
>  <MODEL>
7

>  <REMARK>
 VINA RESULT:      -8.2      1.134      1.297
  Name = 
  3 active torsions:
  status: ('A' for Active; 'I' for Inactive)
    1  A    between atoms: C_17  and  O_28
    2  A    between atoms: O_28  and  C_29
    3  A    between atoms: C_29  and  C_32
                            x       y       z     vdW  Elec       q    Type
                         _______ _______ _______ _____ _____    ______ ____

>  <TORSDO>
F 3

$$$$
=
 OpenBabel11112418093D

 34 41  0  0  1  0  0  0  0  0999 V2000
  191.9860  176.1230  145.8970 C   0  0  2  0  0  3  0  0  0  0  0  0
  189.6880  176.3920  146.8660 C   0  0  0  0  0  2  0  0  0  0  0  0
  196.1120  174.7950  140.5340 C   0  0  2  0  0  3  0  0  0  0  0  0
  194.1540  175.9340  144.6110 C   0  0  1  0  0  3  0  0  0  0  0  0
  194.1760  174.7810  142.3290 C   0  0  2  0  0  3  0  0  0  0  0  0
  194.4620  176.4570  140.6800 O   0  0  0  0  0  0  0  0  0  0  0  0
  196.3470  173.4860  140.9900 O   0  0  0  0  0  0  0  0  0  0  0  0
  197.0190  174.5420  143.0100 C   0  0  0  0  0  2  0  0  0  0  0  0
  189.9230  174.8410  145.0850 C   0  0  2  0  0  3  0  0  0  0  0  0
  187.7630  175.6160  142.8510 C   0  0  0  0  0  2  0  0  0  0  0  0
  192.6920  175.1710  142.3890 C   0  0  0  0  0  2  0  0  0  0  0  0
  196.2160  175.6230  143.3870 O   0  0  0  0  0  0  0  0  0  0  0  0
  190.5680  175.1410  143.7210 C   0  0  1  0  0  3  0  0  0  0  0  0
  188.3920  175.9650  146.5320 O   0  0  0  0  0  0  0  0  0  0  0  0
  194.9530  175.0610  143.6430 C   0  0  1  0  0  3  0  0  0  0  0  0
  197.2300  174.4690  141.4890 C   0  0  2  0  0  3  0  0  0  0  0  0
  187.9960  176.3420  144.1720 C   0  0  2  0  0  3  0  0  0  0  0  0
  192.8240  175.2420  144.9530 C   0  0  2  0  0  3  0  0  0  0  0  0
  194.8660  175.3970  141.1350 C   0  0  0  0  0  0  0  0  0  0  0  0
  192.0450  174.7350  143.7050 C   0  0  2  0  0  3  0  0  0  0  0  0
  194.1140  177.0950  146.8210 C   0  0  0  0  0  2  0  0  0  0  0  0
  189.0750  175.4340  142.0980 C   0  0  0  0  0  2  0  0  0  0  0  0
  194.9340  176.2010  145.8960 C   0  0  0  0  0  2  0  0  0  0  0  0
  189.8670  174.4620  142.7190 O   0  0  0  0  0  0  0  0  0  0  0  0
  188.4920  175.3680  145.2600 C   0  0  1  0  0  3  0  0  0  0  0  0
  192.7870  176.4240  147.1660 C   0  0  0  0  0  2  0  0  0  0  0  0
  190.6750  175.4200  146.2650 C   0  0  1  0  0  3  0  0  0  0  0  0
  186.7990  176.9390  144.5770 O   0  0  0  0  0  0  0  0  0  0  0  0
  186.9180  178.2790  144.1930 C   0  0  0  0  0  2  0  0  0  0  0  0
  184.5180  178.4120  146.7030 C   0  0  0  0  0  3  0  0  0  0  0  0
  184.7390  179.2280  144.6440 O   0  0  0  0  0  0  0  0  0  0  0  0
  186.0810  179.1780  145.0950 C   0  0  1  0  0  3  0  0  0  0  0  0
  183.8660  178.7790  145.6170 C   0  0  0  0  0  3  0  0  0  0  0  0
  185.9850  178.6040  146.5080 C   0  0  0  0  0  2  0  0  0  0  0  0
  1 27  1  0  0  0  0
  1 26  1  1  0  0  0
  3  7  1  1  0  0  0
  3 19  1  0  0  0  0
  3 16  1  0  0  0  0
  4 18  1  0  0  0  0
  4 23  1  1  0  0  0
  5 11  1  1  0  0  0
  5 15  1  0  0  0  0
  6 19  2  0  0  0  0
  7 16  1  0  0  0  0
  8 12  1  0  0  0  0
  9 25  1  0  0  0  0
  9 27  1  0  0  0  0
 10 17  1  0  0  0  0
 11 20  1  0  0  0  0
 12 15  1  0  0  0  0
 13  9  1  0  0  0  0
 14  2  1  0  0  0  0
 15  4  1  0  0  0  0
 16  8  1  0  0  0  0
 17 28  1  0  0  0  0
 17 25  1  0  0  0  0
 18  1  1  0  0  0  0
 19  5  1  0  0  0  0
 20 13  1  0  0  0  0
 20 18  1  0  0  0  0
 21 26  1  0  0  0  0
 22 24  1  0  0  0  0
 22 10  1  0  0  0  0
 23 21  1  0  0  0  0
 24 13  1  0  0  0  0
 25 14  1  0  0  0  0
 27  2  1  0  0  0  0
 29 28  1  0  0  0  0
 29 32  1  0  0  0  0
 31 32  1  0  0  0  0
 31 33  1  0  0  0  0
 32 34  1  0  0  0  0
 33 30  2  0  0  0  0
 34 30  1  0  0  0  0
M  END
>  <MODEL>
8

>  <REMARK>
 VINA RESULT:      -8.1      2.368      8.172
  Name = 
  3 active torsions:
  status: ('A' for Active; 'I' for Inactive)
    1  A    between atoms: C_17  and  O_28
    2  A    between atoms: O_28  and  C_29
    3  A    between atoms: C_29  and  C_32
                            x       y       z     vdW  Elec       q    Type
                         _______ _______ _______ _____ _____    ______ ____

>  <TORSDO>
F 3

$$$$
=
 OpenBabel11112418093D

 34 41  0  0  1  0  0  0  0  0999 V2000
  192.0320  176.0010  145.8520 C   0  0  2  0  0  3  0  0  0  0  0  0
  189.8780  177.1160  146.4910 C   0  0  0  0  0  2  0  0  0  0  0  0
  195.6420  171.8990  141.6470 C   0  0  2  0  0  3  0  0  0  0  0  0
  194.0740  174.8700  144.8820 C   0  0  1  0  0  3  0  0  0  0  0  0
  193.7870  172.9830  143.1810 C   0  0  2  0  0  3  0  0  0  0  0  0
  194.4320  173.8220  141.0620 O   0  0  0  0  0  0  0  0  0  0  0  0
  195.5710  170.8340  142.5620 O   0  0  0  0  0  0  0  0  0  0  0  0
  196.5060  172.3810  144.1050 C   0  0  0  0  0  2  0  0  0  0  0  0
  189.7130  175.0070  145.4140 C   0  0  2  0  0  3  0  0  0  0  0  0
  187.7590  175.3660  142.9020 C   0  0  0  0  0  2  0  0  0  0  0  0
  192.4370  173.6890  142.9890 C   0  0  0  0  0  2  0  0  0  0  0  0
  195.9850  173.6760  144.0060 O   0  0  0  0  0  0  0  0  0  0  0  0
  190.3880  174.6300  144.0850 C   0  0  1  0  0  3  0  0  0  0  0  0
  188.5120  176.8980  146.2420 O   0  0  0  0  0  0  0  0  0  0  0  0
  194.6300  173.5460  144.3560 C   0  0  1  0  0  3  0  0  0  0  0  0
  196.6680  171.7070  142.7330 C   0  0  2  0  0  3  0  0  0  0  0  0
  188.1780  176.4560  143.8830 C   0  0  2  0  0  3  0  0  0  0  0  0
  192.6240  174.6700  145.3550 C   0  0  2  0  0  3  0  0  0  0  0  0
  194.5830  172.9440  141.8980 C   0  0  0  0  0  0  0  0  0  0  0  0
  191.7280  173.9270  144.3230 C   0  0  2  0  0  3  0  0  0  0  0  0
  194.3430  176.7420  146.5120 C   0  0  0  0  0  2  0  0  0  0  0  0
  188.9790  174.6290  142.3630 C   0  0  0  0  0  2  0  0  0  0  0  0
  194.9150  175.4100  146.0350 C   0  0  0  0  0  2  0  0  0  0  0  0
  189.5310  173.8040  143.3490 O   0  0  0  0  0  0  0  0  0  0  0  0
  188.4480  175.8680  145.2830 C   0  0  1  0  0  3  0  0  0  0  0  0
  192.9020  176.5620  146.9800 C   0  0  0  0  0  2  0  0  0  0  0  0
  190.5990  175.7960  146.3560 C   0  0  1  0  0  3  0  0  0  0  0  0
  187.1610  177.4110  143.9580 O   0  0  0  0  0  0  0  0  0  0  0  0
  187.2960  178.1700  142.7900 C   0  0  0  0  0  2  0  0  0  0  0  0
  184.1070  178.9970  143.8970 C   0  0  0  0  0  3  0  0  0  0  0  0
  185.0130  178.2800  141.9960 O   0  0  0  0  0  0  0  0  0  0  0  0
  186.0650  179.0400  142.5630 C   0  0  1  0  0  3  0  0  0  0  0  0
  183.8930  178.2910  142.8040 C   0  0  0  0  0  3  0  0  0  0  0  0
  185.4960  179.5450  143.8880 C   0  0  0  0  0  2  0  0  0  0  0  0
  1 27  1  0  0  0  0
  1 26  1  1  0  0  0
  3 19  1  1  0  0  0
  3  7  1  0  0  0  0
  3 16  1  0  0  0  0
  4 18  1  0  0  0  0
  4 23  1  1  0  0  0
  5 11  1  6  0  0  0
  5 15  1  0  0  0  0
  6 19  2  0  0  0  0
  7 16  1  0  0  0  0
  9 27  1  0  0  0  0
 10 17  1  0  0  0  0
 11 20  1  0  0  0  0
 12  8  1  0  0  0  0
 12 15  1  0  0  0  0
 13 20  1  0  0  0  0
 13  9  1  0  0  0  0
 14  2  1  0  0  0  0
 15  4  1  0  0  0  0
 16  8  1  0  0  0  0
 17 28  1  0  0  0  0
 17 25  1  0  0  0  0
 18  1  1  0  0  0  0
 19  5  1  0  0  0  0
 20 18  1  0  0  0  0
 21 26  1  0  0  0  0
 22 10  1  0  0  0  0
 22 24  1  0  0  0  0
 23 21  1  0  0  0  0
 24 13  1  0  0  0  0
 25  9  1  0  0  0  0
 25 14  1  0  0  0  0
 27  2  1  0  0  0  0
 29 28  1  0  0  0  0
 31 32  1  0  0  0  0
 31 33  1  0  0  0  0
 32 29  1  0  0  0  0
 32 34  1  0  0  0  0
 33 30  2  0  0  0  0
 34 30  1  0  0  0  0
M  END
>  <MODEL>
9

>  <REMARK>
 VINA RESULT:      -7.9      1.958      8.397
  Name = 
  3 active torsions:
  status: ('A' for Active; 'I' for Inactive)
    1  A    between atoms: C_17  and  O_28
    2  A    between atoms: O_28  and  C_29
    3  A    between atoms: C_29  and  C_32
                            x       y       z     vdW  Elec       q    Type
                         _______ _______ _______ _____ _____    ______ ____

>  <TORSDO>
F 3

$$$$
