=
 OpenBabel11112417343D

 37 42  0  0  1  0  0  0  0  0999 V2000
  191.0220  175.0130  145.4060 C   0  0  1  0  0  3  0  0  0  0  0  0
  188.1090  174.9500  143.8050 O   0  0  0  0  0  0  0  0  0  0  0  0
  193.4330  173.9810  145.6070 C   0  0  2  0  0  3  0  0  0  0  0  0
  190.4190  175.4350  144.0820 C   0  0  2  0  0  3  0  0  0  0  0  0
  192.0200  173.9360  144.9850 C   0  0  2  0  0  3  0  0  0  0  0  0
  188.9970  175.9810  144.1440 C   0  0  2  0  0  3  0  0  0  0  0  0
  193.8660  175.3670  146.0780 C   0  0  0  0  0  2  0  0  0  0  0  0
  191.9200  173.8840  143.4690 C   0  0  0  0  0  2  0  0  0  0  0  0
  190.4820  177.0160  146.7660 C   0  0  0  0  0  2  0  0  0  0  0  0
  192.7760  175.9820  146.9380 C   0  0  0  0  0  2  0  0  0  0  0  0
  188.3160  176.0360  141.5000 C   0  0  0  0  0  2  0  0  0  0  0  0
  187.7860  174.9350  142.4130 C   0  0  1  0  0  3  0  0  0  0  0  0
  191.6000  176.2800  146.0320 C   0  0  1  0  0  3  0  0  0  0  0  0
  190.5440  174.3040  143.1720 N   0  0  2  0  0  0  0  0  0  0  0  0
  188.6490  176.6200  145.5030 C   0  0  1  0  0  3  0  0  0  0  0  0
  188.9660  174.6580  141.4390 C   0  0  2  0  0  3  0  0  0  0  0  0
  190.3720  174.8230  141.8640 N   0  0  0  0  0  0  0  0  0  0  0  0
  189.5980  177.6030  145.8420 O   0  0  0  0  0  0  0  0  0  0  0  0
  186.2870  176.7080  146.3180 C   0  0  0  0  0  3  0  0  0  0  0  0
  187.2790  177.2220  145.4760 C   0  0  0  0  0  0  0  0  0  0  0  0
  186.9730  178.2800  144.6080 C   0  0  0  0  0  3  0  0  0  0  0  0
  185.3910  179.8420  143.7470 F   0  0  0  0  0  0  0  0  0  0  0  0
  184.6960  178.3030  145.4310 C   0  0  0  0  0  3  0  0  0  0  0  0
  185.6830  178.8190  144.5870 C   0  0  0  0  0  0  0  0  0  0  0  0
  184.9980  177.2470  146.2970 C   0  0  0  0  0  3  0  0  0  0  0  0
  191.1310  174.0390  140.8810 C   0  0  0  0  0  2  0  0  0  0  0  0
  190.3140  172.8510  140.3800 C   0  0  1  0  0  3  0  0  0  0  0  0
  189.0200  172.1370  138.7280 C   0  0  0  0  0  1  0  0  0  0  0  0
  190.1310  172.9370  138.9950 O   0  0  0  0  0  0  0  0  0  0  0  0
  191.0010  171.5410  140.7460 C   0  0  0  0  0  2  0  0  0  0  0  0
  190.3730  170.9180  141.9820 C   0  0  0  0  0  2  0  0  0  0  0  0
  189.1910  171.5650  142.2940 F   0  0  0  0  0  0  0  0  0  0  0  0
  194.3980  173.4350  144.7430 O   0  0  0  0  0  0  0  0  0  0  0  0
  195.0320  172.3680  145.4110 C   0  0  0  0  0  0  0  0  0  0  0  0
  196.0910  172.8270  146.1810 F   0  0  0  0  0  0  0  0  0  0  0  0
  194.1320  171.6810  146.2120 F   0  0  0  0  0  0  0  0  0  0  0  0
  195.5300  171.4920  144.4660 F   0  0  0  0  0  0  0  0  0  0  0  0
  1 13  1  0  0  0  0
  2  6  1  0  0  0  0
  3  7  1  0  0  0  0
  4  6  1  0  0  0  0
  4  1  1  0  0  0  0
  5  1  1  0  0  0  0
  5  3  1  0  0  0  0
  6 15  1  0  0  0  0
  7 10  1  0  0  0  0
  8  5  1  0  0  0  0
 11 12  1  0  0  0  0
 12  2  1  0  0  0  0
 13  9  1  0  0  0  0
 13 10  1  0  0  0  0
 14  8  1  0  0  0  0
 14  4  1  0  0  0  0
 15 18  1  0  0  0  0
 16 11  1  0  0  0  0
 16 17  1  0  0  0  0
 16 12  1  0  0  0  0
 17 14  1  0  0  0  0
 18  9  1  0  0  0  0
 20 15  1  0  0  0  0
 20 19  2  0  0  0  0
 21 20  1  0  0  0  0
 22 24  1  0  0  0  0
 23 25  2  0  0  0  0
 24 21  2  0  0  0  0
 24 23  1  0  0  0  0
 25 19  1  0  0  0  0
 26 17  1  0  0  0  0
 27 30  1  0  0  0  0
 27 26  1  0  0  0  0
 28 29  1  0  0  0  0
 29 27  1  0  0  0  0
 30 31  1  0  0  0  0
 31 32  1  0  0  0  0
 33 34  1  0  0  0  0
 33  3  1  0  0  0  0
 34 35  1  0  0  0  0
 34 36  1  0  0  0  0
 37 34  1  0  0  0  0
M  END
>  <MODEL>
1

>  <REMARK>
 VINA RESULT:      -7.5      0.000      0.000
  Name = 
  8 active torsions:
  status: ('A' for Active; 'I' for Inactive)
    1  A    between atoms: C_1  and  C_4
    2  A    between atoms: C_1  and  N_27
    3  A    between atoms: C_2  and  O_22
    4  A    between atoms: C_4  and  C_12
    5  A    between atoms: C_4  and  O_37
    6  A    between atoms: C_6  and  O_22
    7  A    between atoms: C_8  and  C_12
    8  A    between atoms: C_23  and  C_30
                            x       y       z     vdW  Elec       q    Type
                         _______ _______ _______ _____ _____    ______ ____

>  <TORSDO>
F 8

$$$$
=
 OpenBabel11112417343D

 37 42  0  0  1  0  0  0  0  0999 V2000
  188.7690  176.6010  144.7150 C   0  0  1  0  0  3  0  0  0  0  0  0
  191.5100  175.7200  143.0540 O   0  0  0  0  0  0  0  0  0  0  0  0
  186.2900  177.4660  144.5480 C   0  0  2  0  0  3  0  0  0  0  0  0
  189.2950  175.4560  143.8740 C   0  0  2  0  0  3  0  0  0  0  0  0
  187.6320  177.1470  143.8520 C   0  0  2  0  0  3  0  0  0  0  0  0
  190.7670  175.1090  144.0740 C   0  0  2  0  0  3  0  0  0  0  0  0
  186.0450  176.6750  145.8290 C   0  0  0  0  0  2  0  0  0  0  0  0
  187.5950  176.2360  142.6360 C   0  0  0  0  0  2  0  0  0  0  0  0
  189.6280  175.9160  146.9380 C   0  0  0  0  0  2  0  0  0  0  0  0
  187.2630  176.7660  146.7320 C   0  0  0  0  0  2  0  0  0  0  0  0
  191.2180  173.4210  141.9760 C   0  0  0  0  0  2  0  0  0  0  0  0
  191.7090  174.8640  141.9270 C   0  0  1  0  0  3  0  0  0  0  0  0
  188.3810  175.9960  146.0610 C   0  0  1  0  0  3  0  0  0  0  0  0
  188.9760  175.7590  142.4860 N   0  0  2  0  0  0  0  0  0  0  0  0
  191.2950  175.4760  145.4750 C   0  0  1  0  0  3  0  0  0  0  0  0
  190.4270  174.4350  141.1590 C   0  0  2  0  0  3  0  0  0  0  0  0
  189.0870  174.5380  141.7750 N   0  0  0  0  0  0  0  0  0  0  0  0
  190.4850  174.9010  146.4720 O   0  0  0  0  0  0  0  0  0  0  0  0
  193.6870  175.9610  146.0140 C   0  0  0  0  0  3  0  0  0  0  0  0
  192.7120  175.0280  145.6470 C   0  0  0  0  0  0  0  0  0  0  0  0
  193.0780  173.6910  145.4280 C   0  0  0  0  0  3  0  0  0  0  0  0
  194.7590  172.0030  145.3680 F   0  0  0  0  0  0  0  0  0  0  0  0
  195.3790  174.2310  145.9490 C   0  0  0  0  0  3  0  0  0  0  0  0
  194.4090  173.2950  145.5800 C   0  0  0  0  0  0  0  0  0  0  0  0
  195.0190  175.5640  146.1660 C   0  0  0  0  0  3  0  0  0  0  0  0
  188.1700  174.5080  140.6290 C   0  0  0  0  0  2  0  0  0  0  0  0
  188.7610  173.7040  139.4740 C   0  0  1  0  0  3  0  0  0  0  0  0
  189.3030  171.6960  138.7070 C   0  0  0  0  0  1  0  0  0  0  0  0
  188.5000  172.3400  139.6480 O   0  0  0  0  0  0  0  0  0  0  0  0
  188.1960  174.1890  138.1440 C   0  0  0  0  0  2  0  0  0  0  0  0
  187.4000  175.4710  138.3200 C   0  0  0  0  0  2  0  0  0  0  0  0
  186.7650  175.8050  137.1380 F   0  0  0  0  0  0  0  0  0  0  0  0
  185.2030  177.3210  143.6690 O   0  0  0  0  0  0  0  0  0  0  0  0
  184.5250  178.5550  143.6000 C   0  0  0  0  0  0  0  0  0  0  0  0
  183.7490  178.7560  144.7320 F   0  0  0  0  0  0  0  0  0  0  0  0
  185.4220  179.6040  143.4530 F   0  0  0  0  0  0  0  0  0  0  0  0
  183.6920  178.5390  142.4990 F   0  0  0  0  0  0  0  0  0  0  0  0
  1 13  1  0  0  0  0
  2  6  1  0  0  0  0
  3  7  1  0  0  0  0
  4  6  1  0  0  0  0
  4  1  1  0  0  0  0
  5  3  1  0  0  0  0
  5  1  1  0  0  0  0
  6 15  1  0  0  0  0
  7 10  1  0  0  0  0
  8  5  1  0  0  0  0
 12 11  1  0  0  0  0
 12  2  1  0  0  0  0
 13 10  1  0  0  0  0
 13  9  1  0  0  0  0
 14  8  1  0  0  0  0
 14  4  1  0  0  0  0
 15 20  1  0  0  0  0
 15 18  1  0  0  0  0
 16 17  1  0  0  0  0
 16 12  1  0  0  0  0
 16 11  1  0  0  0  0
 17 14  1  0  0  0  0
 18  9  1  0  0  0  0
 19 25  1  0  0  0  0
 20 19  2  0  0  0  0
 21 24  2  0  0  0  0
 21 20  1  0  0  0  0
 22 24  1  0  0  0  0
 23 25  2  0  0  0  0
 24 23  1  0  0  0  0
 26 17  1  0  0  0  0
 27 29  1  0  0  0  0
 27 26  1  0  0  0  0
 28 29  1  0  0  0  0
 30 31  1  0  0  0  0
 30 27  1  0  0  0  0
 32 31  1  0  0  0  0
 33  3  1  0  0  0  0
 34 33  1  0  0  0  0
 34 35  1  0  0  0  0
 36 34  1  0  0  0  0
 37 34  1  0  0  0  0
M  END
>  <MODEL>
2

>  <REMARK>
 VINA RESULT:      -7.3      2.040      7.102
  Name = 
  8 active torsions:
  status: ('A' for Active; 'I' for Inactive)
    1  A    between atoms: C_1  and  C_4
    2  A    between atoms: C_1  and  N_27
    3  A    between atoms: C_2  and  O_22
    4  A    between atoms: C_4  and  C_12
    5  A    between atoms: C_4  and  O_37
    6  A    between atoms: C_6  and  O_22
    7  A    between atoms: C_8  and  C_12
    8  A    between atoms: C_23  and  C_30
                            x       y       z     vdW  Elec       q    Type
                         _______ _______ _______ _____ _____    ______ ____

>  <TORSDO>
F 8

$$$$
=
 OpenBabel11112417343D

 37 42  0  0  1  0  0  0  0  0999 V2000
  186.9580  176.2050  143.2310 C   0  0  1  0  0  3  0  0  0  0  0  0
  188.8690  173.4860  143.2460 O   0  0  0  0  0  0  0  0  0  0  0  0
  185.6290  177.9570  144.6760 C   0  0  2  0  0  3  0  0  0  0  0  0
  188.3800  175.7910  143.5480 C   0  0  2  0  0  3  0  0  0  0  0  0
  186.4280  176.6370  144.5970 C   0  0  2  0  0  3  0  0  0  0  0  0
  188.9860  174.7390  142.6270 C   0  0  2  0  0  3  0  0  0  0  0  0
  185.9560  178.9530  143.5670 C   0  0  0  0  0  2  0  0  0  0  0  0
  187.6060  176.4690  145.5420 C   0  0  0  0  0  2  0  0  0  0  0  0
  187.1780  176.6150  140.7940 C   0  0  0  0  0  2  0  0  0  0  0  0
  185.8990  178.2580  142.2180 C   0  0  0  0  0  2  0  0  0  0  0  0
  191.2470  174.0510  143.9960 C   0  0  0  0  0  2  0  0  0  0  0  0
  190.0260  173.1370  144.0090 C   0  0  1  0  0  3  0  0  0  0  0  0
  187.0610  177.2880  142.1600 C   0  0  1  0  0  3  0  0  0  0  0  0
  188.4090  175.3920  144.9480 N   0  0  2  0  0  0  0  0  0  0  0  0
  188.3760  174.7440  141.2110 C   0  0  1  0  0  3  0  0  0  0  0  0
  190.3450  174.0530  145.2250 C   0  0  2  0  0  3  0  0  0  0  0  0
  189.7720  175.4090  145.3410 N   0  0  0  0  0  0  0  0  0  0  0  0
  188.4500  176.0320  140.6480 O   0  0  0  0  0  0  0  0  0  0  0  0
  188.3110  172.8840  139.5420 C   0  0  0  0  0  3  0  0  0  0  0  0
  189.0720  173.7590  140.3260 C   0  0  0  0  0  0  0  0  0  0  0  0
  190.4720  173.6900  140.2830 C   0  0  0  0  0  3  0  0  0  0  0  0
  192.4560  172.6890  139.4200 F   0  0  0  0  0  0  0  0  0  0  0  0
  190.3380  171.8830  138.6770 C   0  0  0  0  0  3  0  0  0  0  0  0
  191.1030  172.7530  139.4590 C   0  0  0  0  0  0  0  0  0  0  0  0
  188.9430  171.9480  138.7180 C   0  0  0  0  0  3  0  0  0  0  0  0
  189.9070  175.7280  146.7670 C   0  0  0  0  0  2  0  0  0  0  0  0
  190.8990  176.8680  146.9830 C   0  0  1  0  0  3  0  0  0  0  0  0
  191.4460  177.6120  148.9980 C   0  0  0  0  0  1  0  0  0  0  0  0
  190.4610  177.7050  148.0140 O   0  0  0  0  0  0  0  0  0  0  0  0
  192.2840  176.3140  147.2980 C   0  0  0  0  0  2  0  0  0  0  0  0
  193.2070  176.4280  146.0960 C   0  0  0  0  0  2  0  0  0  0  0  0
  192.5620  177.0750  145.0580 F   0  0  0  0  0  0  0  0  0  0  0  0
  185.7590  178.5670  145.9350 O   0  0  0  0  0  0  0  0  0  0  0  0
  184.5710  178.3380  146.6580 C   0  0  0  0  0  0  0  0  0  0  0  0
  184.2840  176.9830  146.7210 F   0  0  0  0  0  0  0  0  0  0  0  0
  184.6650  178.8590  147.9410 F   0  0  0  0  0  0  0  0  0  0  0  0
  183.5310  178.9730  146.0080 F   0  0  0  0  0  0  0  0  0  0  0  0
  1  4  1  0  0  0  0
  1  5  1  0  0  0  0
  2 12  1  0  0  0  0
  3 33  1  0  0  0  0
  4 14  1  0  0  0  0
  5  3  1  0  0  0  0
  5  8  1  0  0  0  0
  6  2  1  0  0  0  0
  6  4  1  0  0  0  0
  7  3  1  0  0  0  0
  9 13  1  0  0  0  0
 10  7  1  0  0  0  0
 11 12  1  0  0  0  0
 11 16  1  0  0  0  0
 12 16  1  0  0  0  0
 13 10  1  0  0  0  0
 13  1  1  0  0  0  0
 14 17  1  0  0  0  0
 14  8  1  0  0  0  0
 15  6  1  0  0  0  0
 16 17  1  0  0  0  0
 17 26  1  0  0  0  0
 18  9  1  0  0  0  0
 18 15  1  0  0  0  0
 19 20  1  0  0  0  0
 20 15  1  0  0  0  0
 21 20  2  0  0  0  0
 22 24  1  0  0  0  0
 23 25  1  0  0  0  0
 23 24  2  0  0  0  0
 24 21  1  0  0  0  0
 25 19  2  0  0  0  0
 26 27  1  0  0  0  0
 27 30  1  0  0  0  0
 27 29  1  0  0  0  0
 29 28  1  0  0  0  0
 31 30  1  0  0  0  0
 32 31  1  0  0  0  0
 33 34  1  0  0  0  0
 34 35  1  0  0  0  0
 34 36  1  0  0  0  0
 37 34  1  0  0  0  0
M  END
>  <MODEL>
3

>  <REMARK>
 VINA RESULT:      -7.2      2.704      8.054
  Name = 
  8 active torsions:
  status: ('A' for Active; 'I' for Inactive)
    1  A    between atoms: C_1  and  C_4
    2  A    between atoms: C_1  and  N_27
    3  A    between atoms: C_2  and  O_22
    4  A    between atoms: C_4  and  C_12
    5  A    between atoms: C_4  and  O_37
    6  A    between atoms: C_6  and  O_22
    7  A    between atoms: C_8  and  C_12
    8  A    between atoms: C_23  and  C_30
                            x       y       z     vdW  Elec       q    Type
                         _______ _______ _______ _____ _____    ______ ____

>  <TORSDO>
F 8

$$$$
=
 OpenBabel11112417343D

 37 42  0  0  1  0  0  0  0  0999 V2000
  186.8510  176.8730  143.2070 C   0  0  1  0  0  3  0  0  0  0  0  0
  189.0510  174.4460  142.6390 O   0  0  0  0  0  0  0  0  0  0  0  0
  185.8340  178.5390  144.9710 C   0  0  2  0  0  3  0  0  0  0  0  0
  188.3430  176.6810  143.0260 C   0  0  2  0  0  3  0  0  0  0  0  0
  186.7530  177.3360  144.6590 C   0  0  2  0  0  3  0  0  0  0  0  0
  188.7570  175.6500  141.9820 C   0  0  2  0  0  3  0  0  0  0  0  0
  185.6100  179.4780  143.7900 C   0  0  0  0  0  2  0  0  0  0  0  0
  188.1920  177.4050  145.1430 C   0  0  0  0  0  2  0  0  0  0  0  0
  186.1700  177.1120  140.8340 C   0  0  0  0  0  2  0  0  0  0  0  0
  185.2100  178.6760  142.5630 C   0  0  0  0  0  2  0  0  0  0  0  0
  191.4250  175.3860  142.5050 C   0  0  0  0  0  2  0  0  0  0  0  0
  190.4360  174.3190  142.9660 C   0  0  1  0  0  3  0  0  0  0  0  0
  186.4180  177.8700  142.1360 C   0  0  1  0  0  3  0  0  0  0  0  0
  188.9040  176.4030  144.3400 N   0  0  2  0  0  0  0  0  0  0  0  0
  187.7120  175.4590  140.8650 C   0  0  1  0  0  3  0  0  0  0  0  0
  191.0020  175.3630  143.9690 C   0  0  2  0  0  3  0  0  0  0  0  0
  190.2990  176.6360  144.2370 N   0  0  0  0  0  0  0  0  0  0  0  0
  187.3930  176.6960  140.2740 O   0  0  0  0  0  0  0  0  0  0  0  0
  188.1070  174.8580  138.4710 C   0  0  0  0  0  3  0  0  0  0  0  0
  188.2110  174.5100  139.8220 C   0  0  0  0  0  0  0  0  0  0  0  0
  188.7650  173.2710  140.1790 C   0  0  0  0  0  3  0  0  0  0  0  0
  189.7480  171.1960  139.5370 F   0  0  0  0  0  0  0  0  0  0  0  0
  189.1080  172.7450  137.8410 C   0  0  0  0  0  3  0  0  0  0  0  0
  189.2130  172.3920  139.1890 C   0  0  0  0  0  0  0  0  0  0  0  0
  188.5560  173.9780  137.4810 C   0  0  0  0  0  3  0  0  0  0  0  0
  190.8560  177.0820  145.5200 C   0  0  0  0  0  2  0  0  0  0  0  0
  191.4280  175.9070  146.3080 C   0  0  1  0  0  3  0  0  0  0  0  0
  193.4800  175.0700  146.2560 C   0  0  0  0  0  1  0  0  0  0  0  0
  192.7470  176.1750  146.6910 O   0  0  0  0  0  0  0  0  0  0  0  0
  190.5660  175.6170  147.5310 C   0  0  0  0  0  2  0  0  0  0  0  0
  189.4710  174.6150  147.2060 C   0  0  0  0  0  2  0  0  0  0  0  0
  188.2330  175.1410  147.5270 F   0  0  0  0  0  0  0  0  0  0  0  0
  186.2850  179.2590  146.0900 O   0  0  0  0  0  0  0  0  0  0  0  0
  185.5130  178.8720  147.2030 C   0  0  0  0  0  0  0  0  0  0  0  0
  184.1840  178.7020  146.8470 F   0  0  0  0  0  0  0  0  0  0  0  0
  186.0030  177.7000  147.7610 F   0  0  0  0  0  0  0  0  0  0  0  0
  185.5830  179.8690  148.1560 F   0  0  0  0  0  0  0  0  0  0  0  0
  1  5  1  0  0  0  0
  2 12  1  0  0  0  0
  3 33  1  0  0  0  0
  4  1  1  0  0  0  0
  4 14  1  0  0  0  0
  5  3  1  0  0  0  0
  5  8  1  0  0  0  0
  6  2  1  0  0  0  0
  6  4  1  0  0  0  0
  7  3  1  0  0  0  0
  9 13  1  0  0  0  0
 10  7  1  0  0  0  0
 11 12  1  0  0  0  0
 11 16  1  0  0  0  0
 12 16  1  0  0  0  0
 13 10  1  0  0  0  0
 13  1  1  0  0  0  0
 14  8  1  0  0  0  0
 15  6  1  0  0  0  0
 16 17  1  0  0  0  0
 17 14  1  0  0  0  0
 17 26  1  0  0  0  0
 18  9  1  0  0  0  0
 18 15  1  0  0  0  0
 19 20  1  0  0  0  0
 20 21  2  0  0  0  0
 20 15  1  0  0  0  0
 23 24  2  0  0  0  0
 24 22  1  0  0  0  0
 24 21  1  0  0  0  0
 25 23  1  0  0  0  0
 25 19  2  0  0  0  0
 26 27  1  0  0  0  0
 27 29  1  0  0  0  0
 27 30  1  0  0  0  0
 28 29  1  0  0  0  0
 31 32  1  0  0  0  0
 31 30  1  0  0  0  0
 33 34  1  0  0  0  0
 34 36  1  0  0  0  0
 34 37  1  0  0  0  0
 35 34  1  0  0  0  0
M  END
>  <MODEL>
4

>  <REMARK>
 VINA RESULT:      -7.1      2.962      7.734
  Name = 
  8 active torsions:
  status: ('A' for Active; 'I' for Inactive)
    1  A    between atoms: C_1  and  C_4
    2  A    between atoms: C_1  and  N_27
    3  A    between atoms: C_2  and  O_22
    4  A    between atoms: C_4  and  C_12
    5  A    between atoms: C_4  and  O_37
    6  A    between atoms: C_6  and  O_22
    7  A    between atoms: C_8  and  C_12
    8  A    between atoms: C_23  and  C_30
                            x       y       z     vdW  Elec       q    Type
                         _______ _______ _______ _____ _____    ______ ____

>  <TORSDO>
F 8

$$$$
=
 OpenBabel11112417343D

 37 42  0  0  1  0  0  0  0  0999 V2000
  190.5240  174.1900  141.3740 C   0  0  1  0  0  3  0  0  0  0  0  0
  189.7130  177.2910  142.2560 O   0  0  0  0  0  0  0  0  0  0  0  0
  192.4700  172.4730  140.9450 C   0  0  2  0  0  3  0  0  0  0  0  0
  190.4600  175.0630  142.6110 C   0  0  2  0  0  3  0  0  0  0  0  0
  192.0220  173.9220  141.2390 C   0  0  2  0  0  3  0  0  0  0  0  0
  189.2800  176.0270  142.6810 C   0  0  2  0  0  3  0  0  0  0  0  0
  191.4810  171.4060  141.4040 C   0  0  0  0  0  2  0  0  0  0  0  0
  192.6520  174.6260  142.4290 C   0  0  0  0  0  2  0  0  0  0  0  0
  188.1890  173.3560  141.3300 C   0  0  0  0  0  2  0  0  0  0  0  0
  190.0870  171.7500  140.9080 C   0  0  0  0  0  2  0  0  0  0  0  0
  190.0060  177.6250  144.7730 C   0  0  0  0  0  2  0  0  0  0  0  0
  190.1460  178.1190  143.3370 C   0  0  1  0  0  3  0  0  0  0  0  0
  189.6320  172.9840  141.6590 C   0  0  1  0  0  3  0  0  0  0  0  0
  191.7430  175.7400  142.7270 N   0  0  2  0  0  0  0  0  0  0  0  0
  188.0490  175.5420  141.8920 C   0  0  1  0  0  3  0  0  0  0  0  0
  191.3870  177.6180  144.1290 C   0  0  2  0  0  3  0  0  0  0  0  0
  191.8280  176.2100  144.0620 N   0  0  0  0  0  0  0  0  0  0  0  0
  187.6840  174.2450  142.2980 O   0  0  0  0  0  0  0  0  0  0  0  0
  186.2800  176.5720  143.3270 C   0  0  0  0  0  3  0  0  0  0  0  0
  186.8950  176.4760  142.0740 C   0  0  0  0  0  0  0  0  0  0  0  0
  186.4110  177.2430  141.0030 C   0  0  0  0  0  3  0  0  0  0  0  0
  184.8580  178.8400  140.1540 F   0  0  0  0  0  0  0  0  0  0  0  0
  184.7130  178.1930  142.4450 C   0  0  0  0  0  3  0  0  0  0  0  0
  185.3220  178.1000  141.1900 C   0  0  0  0  0  0  0  0  0  0  0  0
  185.1920  177.4290  143.5140 C   0  0  0  0  0  3  0  0  0  0  0  0
  193.2230  176.2550  144.5180 C   0  0  0  0  0  2  0  0  0  0  0  0
  193.3800  175.5680  145.8720 C   0  0  1  0  0  3  0  0  0  0  0  0
  194.5750  177.4140  146.1500 C   0  0  0  0  0  1  0  0  0  0  0  0
  193.7890  176.4910  146.8410 O   0  0  0  0  0  0  0  0  0  0  0  0
  192.0720  174.9050  146.2870 C   0  0  0  0  0  2  0  0  0  0  0  0
  191.5330  175.5090  147.5730 C   0  0  0  0  0  2  0  0  0  0  0  0
  190.3480  174.8920  147.9290 F   0  0  0  0  0  0  0  0  0  0  0  0
  193.7490  172.2100  141.4660 O   0  0  0  0  0  0  0  0  0  0  0  0
  194.6730  172.2430  140.4020 C   0  0  0  0  0  0  0  0  0  0  0  0
  195.2970  173.4790  140.3280 F   0  0  0  0  0  0  0  0  0  0  0  0
  195.6250  171.2440  140.5430 F   0  0  0  0  0  0  0  0  0  0  0  0
  193.9900  172.0290  139.2200 F   0  0  0  0  0  0  0  0  0  0  0  0
  1 13  1  0  0  0  0
  1  4  1  0  0  0  0
  2  6  1  0  0  0  0
  2 12  1  0  0  0  0
  3  5  1  0  0  0  0
  3  7  1  0  0  0  0
  3 33  1  0  0  0  0
  4  6  1  0  0  0  0
  4 14  1  0  0  0  0
  5  1  1  0  0  0  0
  5  8  1  0  0  0  0
  8 14  1  0  0  0  0
  9 13  1  0  0  0  0
  9 18  1  0  0  0  0
 10  7  1  0  0  0  0
 10 13  1  0  0  0  0
 12 16  1  0  0  0  0
 12 11  1  0  0  0  0
 14 17  1  0  0  0  0
 15 20  1  0  0  0  0
 15 18  1  0  0  0  0
 15  6  1  0  0  0  0
 16 11  1  0  0  0  0
 17 16  1  0  0  0  0
 17 26  1  0  0  0  0
 19 25  1  0  0  0  0
 20 19  2  0  0  0  0
 21 24  2  0  0  0  0
 21 20  1  0  0  0  0
 22 24  1  0  0  0  0
 23 25  2  0  0  0  0
 24 23  1  0  0  0  0
 26 27  1  0  0  0  0
 27 30  1  0  0  0  0
 27 29  1  0  0  0  0
 28 29  1  0  0  0  0
 30 31  1  0  0  0  0
 31 32  1  0  0  0  0
 34 36  1  0  0  0  0
 34 33  1  0  0  0  0
 35 34  1  0  0  0  0
 37 34  1  0  0  0  0
M  END
>  <MODEL>
5

>  <REMARK>
 VINA RESULT:      -6.9      2.686      5.193
  Name = 
  8 active torsions:
  status: ('A' for Active; 'I' for Inactive)
    1  A    between atoms: C_1  and  C_4
    2  A    between atoms: C_1  and  N_27
    3  A    between atoms: C_2  and  O_22
    4  A    between atoms: C_4  and  C_12
    5  A    between atoms: C_4  and  O_37
    6  A    between atoms: C_6  and  O_22
    7  A    between atoms: C_8  and  C_12
    8  A    between atoms: C_23  and  C_30
                            x       y       z     vdW  Elec       q    Type
                         _______ _______ _______ _____ _____    ______ ____

>  <TORSDO>
F 8

$$$$
=
 OpenBabel11112417343D

 37 42  0  0  1  0  0  0  0  0999 V2000
  192.6120  174.4960  145.4500 C   0  0  1  0  0  3  0  0  0  0  0  0
  189.5440  173.9220  144.3080 O   0  0  0  0  0  0  0  0  0  0  0  0
  195.0790  173.6040  145.6450 C   0  0  2  0  0  3  0  0  0  0  0  0
  191.8430  174.5000  144.1450 C   0  0  2  0  0  3  0  0  0  0  0  0
  193.6080  173.3570  145.2420 C   0  0  2  0  0  3  0  0  0  0  0  0
  190.4120  175.0200  144.2200 C   0  0  2  0  0  3  0  0  0  0  0  0
  195.4930  175.0720  145.6350 C   0  0  0  0  0  2  0  0  0  0  0  0
  193.3390  172.8580  143.8320 C   0  0  0  0  0  2  0  0  0  0  0  0
  192.1310  176.8040  146.2230 C   0  0  0  0  0  2  0  0  0  0  0  0
  194.4780  175.8990  146.4050 C   0  0  0  0  0  2  0  0  0  0  0  0
  189.4340  174.2820  141.7790 C   0  0  0  0  0  2  0  0  0  0  0  0
  189.0660  173.4930  143.0320 C   0  0  1  0  0  3  0  0  0  0  0  0
  193.1940  175.8990  145.6030 C   0  0  1  0  0  3  0  0  0  0  0  0
  191.9200  173.1530  143.5960 N   0  0  2  0  0  0  0  0  0  0  0  0
  190.1890  176.0270  145.3650 C   0  0  1  0  0  3  0  0  0  0  0  0
  190.1400  172.9570  142.0430 C   0  0  2  0  0  3  0  0  0  0  0  0
  191.5750  173.2590  142.2250 N   0  0  0  0  0  0  0  0  0  0  0  0
  191.1200  177.0790  145.2830 O   0  0  0  0  0  0  0  0  0  0  0  0
  188.3660  177.2860  144.2070 C   0  0  0  0  0  3  0  0  0  0  0  0
  188.7970  176.5750  145.3320 C   0  0  0  0  0  0  0  0  0  0  0  0
  187.9260  176.4000  146.4180 C   0  0  0  0  0  3  0  0  0  0  0  0
  185.7960  176.7620  147.4250 F   0  0  0  0  0  0  0  0  0  0  0  0
  186.2080  177.6400  145.2470 C   0  0  0  0  0  3  0  0  0  0  0  0
  186.6340  176.9320  146.3740 C   0  0  0  0  0  0  0  0  0  0  0  0
  187.0730  177.8180  144.1630 C   0  0  0  0  0  3  0  0  0  0  0  0
  192.2550  172.2310  141.4280 C   0  0  0  0  0  2  0  0  0  0  0  0
  192.8660  172.8320  140.1650 C   0  0  1  0  0  3  0  0  0  0  0  0
  191.7900  173.7890  138.4800 C   0  0  0  0  0  1  0  0  0  0  0  0
  192.0640  172.5470  139.0550 O   0  0  0  0  0  0  0  0  0  0  0  0
  193.0430  174.3370  140.3240 C   0  0  0  0  0  2  0  0  0  0  0  0
  194.5070  174.7020  140.5040 C   0  0  0  0  0  2  0  0  0  0  0  0
  195.1040  173.8470  141.4110 F   0  0  0  0  0  0  0  0  0  0  0  0
  195.9650  172.8400  144.8660 O   0  0  0  0  0  0  0  0  0  0  0  0
  196.8040  172.1150  145.7370 C   0  0  0  0  0  0  0  0  0  0  0  0
  197.1880  172.8970  146.8160 F   0  0  0  0  0  0  0  0  0  0  0  0
  196.1710  170.9670  146.1910 F   0  0  0  0  0  0  0  0  0  0  0  0
  197.9390  171.7410  145.0450 F   0  0  0  0  0  0  0  0  0  0  0  0
  1 13  1  0  0  0  0
  4  6  1  0  0  0  0
  4  1  1  0  0  0  0
  5  1  1  0  0  0  0
  5  3  1  0  0  0  0
  6  2  1  0  0  0  0
  6 15  1  0  0  0  0
  7  3  1  0  0  0  0
  7 10  1  0  0  0  0
  8  5  1  0  0  0  0
 11 16  1  0  0  0  0
 11 12  1  0  0  0  0
 12  2  1  0  0  0  0
 13  9  1  0  0  0  0
 13 10  1  0  0  0  0
 14  8  1  0  0  0  0
 14  4  1  0  0  0  0
 16 17  1  0  0  0  0
 16 12  1  0  0  0  0
 17 14  1  0  0  0  0
 18 15  1  0  0  0  0
 18  9  1  0  0  0  0
 19 20  1  0  0  0  0
 20 15  1  0  0  0  0
 20 21  2  0  0  0  0
 23 24  2  0  0  0  0
 24 21  1  0  0  0  0
 24 22  1  0  0  0  0
 25 19  2  0  0  0  0
 25 23  1  0  0  0  0
 26 17  1  0  0  0  0
 27 30  1  0  0  0  0
 27 26  1  0  0  0  0
 28 29  1  0  0  0  0
 29 27  1  0  0  0  0
 30 31  1  0  0  0  0
 31 32  1  0  0  0  0
 33  3  1  0  0  0  0
 33 34  1  0  0  0  0
 34 36  1  0  0  0  0
 34 35  1  0  0  0  0
 37 34  1  0  0  0  0
M  END
>  <MODEL>
6

>  <REMARK>
 VINA RESULT:      -6.8      2.008      2.613
  Name = 
  8 active torsions:
  status: ('A' for Active; 'I' for Inactive)
    1  A    between atoms: C_1  and  C_4
    2  A    between atoms: C_1  and  N_27
    3  A    between atoms: C_2  and  O_22
    4  A    between atoms: C_4  and  C_12
    5  A    between atoms: C_4  and  O_37
    6  A    between atoms: C_6  and  O_22
    7  A    between atoms: C_8  and  C_12
    8  A    between atoms: C_23  and  C_30
                            x       y       z     vdW  Elec       q    Type
                         _______ _______ _______ _____ _____    ______ ____

>  <TORSDO>
F 8

$$$$
=
 OpenBabel11112417343D

 37 42  0  0  1  0  0  0  0  0999 V2000
  186.6740  176.4590  142.8840 C   0  0  1  0  0  3  0  0  0  0  0  0
  188.4060  173.6540  142.4630 O   0  0  0  0  0  0  0  0  0  0  0  0
  185.6320  178.1530  144.6070 C   0  0  2  0  0  3  0  0  0  0  0  0
  188.0960  175.9490  142.9950 C   0  0  2  0  0  3  0  0  0  0  0  0
  186.3350  176.8050  144.3330 C   0  0  2  0  0  3  0  0  0  0  0  0
  188.5260  174.9450  141.9300 C   0  0  2  0  0  3  0  0  0  0  0  0
  185.8870  179.2180  143.5440 C   0  0  0  0  0  2  0  0  0  0  0  0
  187.6040  176.5010  145.1120 C   0  0  0  0  0  2  0  0  0  0  0  0
  186.6310  177.0550  140.4760 C   0  0  0  0  0  2  0  0  0  0  0  0
  185.6300  178.6390  142.1630 C   0  0  0  0  0  2  0  0  0  0  0  0
  190.8860  174.0340  142.9590 C   0  0  0  0  0  2  0  0  0  0  0  0
  189.6210  173.1860  143.0520 C   0  0  1  0  0  3  0  0  0  0  0  0
  186.7160  177.6190  141.8920 C   0  0  1  0  0  3  0  0  0  0  0  0
  188.2660  175.4360  144.3470 N   0  0  2  0  0  0  0  0  0  0  0  0
  187.7550  175.0970  140.6040 C   0  0  1  0  0  3  0  0  0  0  0  0
  190.1360  173.9820  144.2850 C   0  0  2  0  0  3  0  0  0  0  0  0
  189.6630  175.3520  144.5710 N   0  0  0  0  0  0  0  0  0  0  0  0
  187.8410  176.4200  140.1340 O   0  0  0  0  0  0  0  0  0  0  0  0
  188.7070  172.8770  139.9560 C   0  0  0  0  0  3  0  0  0  0  0  0
  188.2810  174.1530  139.5690 C   0  0  0  0  0  0  0  0  0  0  0  0
  188.3700  174.5350  138.2220 C   0  0  0  0  0  3  0  0  0  0  0  0
  188.9620  174.0160  135.9720 F   0  0  0  0  0  0  0  0  0  0  0  0
  189.3000  172.3700  137.6640 C   0  0  0  0  0  3  0  0  0  0  0  0
  188.8780  173.6440  137.2720 C   0  0  0  0  0  0  0  0  0  0  0  0
  189.2140  171.9870  139.0060 C   0  0  0  0  0  3  0  0  0  0  0  0
  189.9830  175.5460  145.9900 C   0  0  0  0  0  2  0  0  0  0  0  0
  191.0300  176.6430  146.1710 C   0  0  1  0  0  3  0  0  0  0  0  0
  191.5360  175.2950  147.8560 C   0  0  0  0  0  1  0  0  0  0  0  0
  192.1060  176.1680  146.9290 O   0  0  0  0  0  0  0  0  0  0  0  0
  191.5120  177.1460  144.8160 C   0  0  0  0  0  2  0  0  0  0  0  0
  192.9770  176.8070  144.5930 C   0  0  0  0  0  2  0  0  0  0  0  0
  193.1920  176.4680  143.2700 F   0  0  0  0  0  0  0  0  0  0  0  0
  185.9450  178.6510  145.8830 O   0  0  0  0  0  0  0  0  0  0  0  0
  184.8180  178.4780  146.7110 C   0  0  0  0  0  0  0  0  0  0  0  0
  185.0330  179.0380  147.9610 F   0  0  0  0  0  0  0  0  0  0  0  0
  183.6890  179.0400  146.1330 F   0  0  0  0  0  0  0  0  0  0  0  0
  184.5950  177.1250  146.8730 F   0  0  0  0  0  0  0  0  0  0  0  0
  1  4  1  0  0  0  0
  1  5  1  0  0  0  0
  2 12  1  0  0  0  0
  3 33  1  0  0  0  0
  4 14  1  0  0  0  0
  5  3  1  0  0  0  0
  5  8  1  0  0  0  0
  6  2  1  0  0  0  0
  6  4  1  0  0  0  0
  7  3  1  0  0  0  0
  9 13  1  0  0  0  0
 10  7  1  0  0  0  0
 11 12  1  0  0  0  0
 11 16  1  0  0  0  0
 12 16  1  0  0  0  0
 13 10  1  0  0  0  0
 13  1  1  0  0  0  0
 14 17  1  0  0  0  0
 14  8  1  0  0  0  0
 15  6  1  0  0  0  0
 16 17  1  0  0  0  0
 17 26  1  0  0  0  0
 18  9  1  0  0  0  0
 18 15  1  0  0  0  0
 20 19  1  0  0  0  0
 20 15  1  0  0  0  0
 21 20  2  0  0  0  0
 22 24  1  0  0  0  0
 23 25  1  0  0  0  0
 24 23  2  0  0  0  0
 24 21  1  0  0  0  0
 25 19  2  0  0  0  0
 26 27  1  0  0  0  0
 27 29  1  0  0  0  0
 29 28  1  0  0  0  0
 30 27  1  0  0  0  0
 31 30  1  0  0  0  0
 32 31  1  0  0  0  0
 33 34  1  0  0  0  0
 34 37  1  0  0  0  0
 34 35  1  0  0  0  0
 36 34  1  0  0  0  0
M  END
>  <MODEL>
7

>  <REMARK>
 VINA RESULT:      -6.6      2.805      7.818
  Name = 
  8 active torsions:
  status: ('A' for Active; 'I' for Inactive)
    1  A    between atoms: C_1  and  C_4
    2  A    between atoms: C_1  and  N_27
    3  A    between atoms: C_2  and  O_22
    4  A    between atoms: C_4  and  C_12
    5  A    between atoms: C_4  and  O_37
    6  A    between atoms: C_6  and  O_22
    7  A    between atoms: C_8  and  C_12
    8  A    between atoms: C_23  and  C_30
                            x       y       z     vdW  Elec       q    Type
                         _______ _______ _______ _____ _____    ______ ____

>  <TORSDO>
F 8

$$$$
=
 OpenBabel11112417343D

 37 42  0  0  1  0  0  0  0  0999 V2000
  192.6800  174.3710  145.4250 C   0  0  1  0  0  3  0  0  0  0  0  0
  189.5940  173.3020  144.8070 O   0  0  0  0  0  0  0  0  0  0  0  0
  195.2360  173.7550  145.5090 C   0  0  2  0  0  3  0  0  0  0  0  0
  191.7910  174.0190  144.2510 C   0  0  2  0  0  3  0  0  0  0  0  0
  193.7690  173.3020  145.3460 C   0  0  2  0  0  3  0  0  0  0  0  0
  190.3260  174.4220  144.3840 C   0  0  2  0  0  3  0  0  0  0  0  0
  195.4870  175.2140  145.1370 C   0  0  0  0  0  2  0  0  0  0  0  0
  193.4170  172.4800  144.1170 C   0  0  0  0  0  2  0  0  0  0  0  0
  192.0310  176.7450  145.7420 C   0  0  0  0  0  2  0  0  0  0  0  0
  194.4690  176.1030  145.8300 C   0  0  0  0  0  2  0  0  0  0  0  0
  189.1980  173.0780  142.2910 C   0  0  0  0  0  2  0  0  0  0  0  0
  189.0420  172.5600  143.7180 C   0  0  1  0  0  3  0  0  0  0  0  0
  193.1190  175.8170  145.2060 C   0  0  1  0  0  3  0  0  0  0  0  0
  191.9580  172.5950  143.9960 N   0  0  2  0  0  0  0  0  0  0  0  0
  190.1090  175.6360  145.3080 C   0  0  1  0  0  3  0  0  0  0  0  0
  190.0660  171.9090  142.7440 C   0  0  2  0  0  3  0  0  0  0  0  0
  191.4710  172.3640  142.6850 N   0  0  0  0  0  0  0  0  0  0  0  0
  190.9090  176.7180  144.8930 O   0  0  0  0  0  0  0  0  0  0  0  0
  188.0180  176.2080  146.5540 C   0  0  0  0  0  3  0  0  0  0  0  0
  188.6700  176.0440  145.3260 C   0  0  0  0  0  0  0  0  0  0  0  0
  187.9620  176.2480  144.1320 C   0  0  0  0  0  3  0  0  0  0  0  0
  185.9330  176.8110  143.0160 F   0  0  0  0  0  0  0  0  0  0  0  0
  185.9680  176.7780  145.4000 C   0  0  0  0  0  3  0  0  0  0  0  0
  186.6140  176.6150  144.1710 C   0  0  0  0  0  0  0  0  0  0  0  0
  186.6700  176.5750  146.5920 C   0  0  0  0  0  3  0  0  0  0  0  0
  192.1760  171.2440  142.0490 C   0  0  0  0  0  2  0  0  0  0  0  0
  192.4950  171.5560  140.5890 C   0  0  1  0  0  3  0  0  0  0  0  0
  192.0600  169.8530  139.2390 C   0  0  0  0  0  1  0  0  0  0  0  0
  191.5070  171.0260  139.7520 O   0  0  0  0  0  0  0  0  0  0  0  0
  192.6200  173.0610  140.3810 C   0  0  0  0  0  2  0  0  0  0  0  0
  191.7580  173.5290  139.2210 C   0  0  0  0  0  2  0  0  0  0  0  0
  192.4670  173.4470  138.0370 F   0  0  0  0  0  0  0  0  0  0  0  0
  196.1190  172.9140  144.8090 O   0  0  0  0  0  0  0  0  0  0  0  0
  196.8280  172.1410  145.7510 C   0  0  0  0  0  0  0  0  0  0  0  0
  197.9410  171.5520  145.1680 F   0  0  0  0  0  0  0  0  0  0  0  0
  197.2200  172.9160  146.8320 F   0  0  0  0  0  0  0  0  0  0  0  0
  195.9970  171.1390  146.2120 F   0  0  0  0  0  0  0  0  0  0  0  0
  4  6  1  0  0  0  0
  4  1  1  0  0  0  0
  5  1  1  0  0  0  0
  5  3  1  0  0  0  0
  6  2  1  0  0  0  0
  6 15  1  0  0  0  0
  7  3  1  0  0  0  0
  7 10  1  0  0  0  0
  8  5  1  0  0  0  0
 11 16  1  0  0  0  0
 11 12  1  0  0  0  0
 12  2  1  0  0  0  0
 13  1  1  0  0  0  0
 13  9  1  0  0  0  0
 13 10  1  0  0  0  0
 14  8  1  0  0  0  0
 14  4  1  0  0  0  0
 15 20  1  0  0  0  0
 16 12  1  0  0  0  0
 17 16  1  0  0  0  0
 17 14  1  0  0  0  0
 18 15  1  0  0  0  0
 18  9  1  0  0  0  0
 19 25  1  0  0  0  0
 20 19  2  0  0  0  0
 21 24  2  0  0  0  0
 21 20  1  0  0  0  0
 22 24  1  0  0  0  0
 23 25  2  0  0  0  0
 24 23  1  0  0  0  0
 26 17  1  0  0  0  0
 27 26  1  0  0  0  0
 28 29  1  0  0  0  0
 29 27  1  0  0  0  0
 30 27  1  0  0  0  0
 31 30  1  0  0  0  0
 32 31  1  0  0  0  0
 33  3  1  0  0  0  0
 33 34  1  0  0  0  0
 34 37  1  0  0  0  0
 34 36  1  0  0  0  0
 35 34  1  0  0  0  0
M  END
>  <MODEL>
8

>  <REMARK>
 VINA RESULT:      -6.6      2.014      2.583
  Name = 
  8 active torsions:
  status: ('A' for Active; 'I' for Inactive)
    1  A    between atoms: C_1  and  C_4
    2  A    between atoms: C_1  and  N_27
    3  A    between atoms: C_2  and  O_22
    4  A    between atoms: C_4  and  C_12
    5  A    between atoms: C_4  and  O_37
    6  A    between atoms: C_6  and  O_22
    7  A    between atoms: C_8  and  C_12
    8  A    between atoms: C_23  and  C_30
                            x       y       z     vdW  Elec       q    Type
                         _______ _______ _______ _____ _____    ______ ____

>  <TORSDO>
F 8

$$$$
=
 OpenBabel11112417343D

 37 42  0  0  1  0  0  0  0  0999 V2000
  188.7340  175.1570  142.8800 C   0  0  1  0  0  3  0  0  0  0  0  0
  191.4090  173.1850  142.9240 O   0  0  0  0  0  0  0  0  0  0  0  0
  187.2760  176.9010  144.2030 C   0  0  2  0  0  3  0  0  0  0  0  0
  190.2430  175.2510  142.7890 C   0  0  2  0  0  3  0  0  0  0  0  0
  188.4370  175.8820  144.1910 C   0  0  2  0  0  3  0  0  0  0  0  0
  190.9320  174.1360  142.0100 C   0  0  2  0  0  3  0  0  0  0  0  0
  186.9580  177.5050  142.8390 C   0  0  0  0  0  2  0  0  0  0  0  0
  189.7930  176.3520  144.6910 C   0  0  0  0  0  2  0  0  0  0  0  0
  188.1980  174.7480  140.4920 C   0  0  0  0  0  2  0  0  0  0  0  0
  186.8180  176.3990  141.8070 C   0  0  0  0  0  2  0  0  0  0  0  0
  193.5510  174.5550  142.6570 C   0  0  0  0  0  2  0  0  0  0  0  0
  192.7640  173.4240  143.3110 C   0  0  1  0  0  3  0  0  0  0  0  0
  188.1920  175.7950  141.6030 C   0  0  1  0  0  3  0  0  0  0  0  0
  190.7480  175.3780  144.1490 N   0  0  2  0  0  0  0  0  0  0  0  0
  190.0320  173.5000  140.9320 C   0  0  1  0  0  3  0  0  0  0  0  0
  193.0330  174.7500  144.0780 C   0  0  2  0  0  3  0  0  0  0  0  0
  192.0730  175.8730  144.0380 N   0  0  0  0  0  0  0  0  0  0  0  0
  189.5180  174.4910  140.0740 O   0  0  0  0  0  0  0  0  0  0  0  0
  191.8790  172.8870  139.3620 C   0  0  0  0  0  3  0  0  0  0  0  0
  190.7870  172.4810  140.1380 C   0  0  0  0  0  0  0  0  0  0  0  0
  190.4060  171.1310  140.1470 C   0  0  0  0  0  3  0  0  0  0  0  0
  190.7450  168.8940  139.3990 F   0  0  0  0  0  0  0  0  0  0  0  0
  192.2060  170.6070  138.6160 C   0  0  0  0  0  3  0  0  0  0  0  0
  191.1160  170.1970  139.3880 C   0  0  0  0  0  0  0  0  0  0  0  0
  192.5880  171.9520  138.6030 C   0  0  0  0  0  3  0  0  0  0  0  0
  192.4320  176.6840  145.2080 C   0  0  0  0  0  2  0  0  0  0  0  0
  193.0610  175.8230  146.3000 C   0  0  1  0  0  3  0  0  0  0  0  0
  194.5380  177.4220  145.8840 C   0  0  0  0  0  1  0  0  0  0  0  0
  194.1890  176.4590  146.8300 O   0  0  0  0  0  0  0  0  0  0  0  0
  192.0460  175.5340  147.4000 C   0  0  0  0  0  2  0  0  0  0  0  0
  191.2920  176.7920  147.7970 C   0  0  0  0  0  2  0  0  0  0  0  0
  191.5640  177.1160  149.1130 F   0  0  0  0  0  0  0  0  0  0  0  0
  187.4890  177.9190  145.1500 O   0  0  0  0  0  0  0  0  0  0  0  0
  186.6980  177.6380  146.2820 C   0  0  0  0  0  0  0  0  0  0  0  0
  185.7290  176.6920  145.9850 F   0  0  0  0  0  0  0  0  0  0  0  0
  187.4830  177.1920  147.3350 F   0  0  0  0  0  0  0  0  0  0  0  0
  186.0650  178.8010  146.6750 F   0  0  0  0  0  0  0  0  0  0  0  0
  1  5  1  0  0  0  0
  2 12  1  0  0  0  0
  3 33  1  0  0  0  0
  4  1  1  0  0  0  0
  4 14  1  0  0  0  0
  5  3  1  0  0  0  0
  5  8  1  0  0  0  0
  6  4  1  0  0  0  0
  6  2  1  0  0  0  0
  7  3  1  0  0  0  0
  9 13  1  0  0  0  0
 10  7  1  0  0  0  0
 11 12  1  0  0  0  0
 11 16  1  0  0  0  0
 12 16  1  0  0  0  0
 13 10  1  0  0  0  0
 13  1  1  0  0  0  0
 14  8  1  0  0  0  0
 15  6  1  0  0  0  0
 17 16  1  0  0  0  0
 17 14  1  0  0  0  0
 17 26  1  0  0  0  0
 18  9  1  0  0  0  0
 18 15  1  0  0  0  0
 19 20  1  0  0  0  0
 20 21  2  0  0  0  0
 20 15  1  0  0  0  0
 23 24  2  0  0  0  0
 24 22  1  0  0  0  0
 24 21  1  0  0  0  0
 25 23  1  0  0  0  0
 25 19  2  0  0  0  0
 26 27  1  0  0  0  0
 27 29  1  0  0  0  0
 27 30  1  0  0  0  0
 28 29  1  0  0  0  0
 30 31  1  0  0  0  0
 31 32  1  0  0  0  0
 33 34  1  0  0  0  0
 34 37  1  0  0  0  0
 34 36  1  0  0  0  0
 35 34  1  0  0  0  0
M  END
>  <MODEL>
9

>  <REMARK>
 VINA RESULT:      -6.5      2.735      7.956
  Name = 
  8 active torsions:
  status: ('A' for Active; 'I' for Inactive)
    1  A    between atoms: C_1  and  C_4
    2  A    between atoms: C_1  and  N_27
    3  A    between atoms: C_2  and  O_22
    4  A    between atoms: C_4  and  C_12
    5  A    between atoms: C_4  and  O_37
    6  A    between atoms: C_6  and  O_22
    7  A    between atoms: C_8  and  C_12
    8  A    between atoms: C_23  and  C_30
                            x       y       z     vdW  Elec       q    Type
                         _______ _______ _______ _____ _____    ______ ____

>  <TORSDO>
F 8

$$$$
