=
 OpenBabel11112417463D

 34 40  0  0  1  0  0  0  0  0999 V2000
  190.3960  175.1060  142.3610 C   0  0  2  0  0  3  0  0  0  0  0  0
  192.5640  173.7360  142.3400 C   0  0  0  0  0  2  0  0  0  0  0  0
  185.9400  178.7170  145.5560 C   0  0  0  0  0  0  0  0  0  0  0  0
  187.9890  175.8180  142.8730 C   0  0  0  0  0  0  0  0  0  0  0  0
  187.4570  176.7560  145.1140 C   0  0  0  0  0  0  0  0  0  0  0  0
  185.4170  176.4620  146.4960 C   0  0  0  0  0  1  0  0  0  0  0  0
  185.2200  179.3900  146.2760 O   0  0  0  0  0  0  0  0  0  0  0  0
  185.5830  178.3650  143.0780 C   0  0  0  0  0  2  0  0  0  0  0  0
  191.8170  174.6480  144.3630 C   0  0  0  0  0  0  0  0  0  0  0  0
  193.9090  175.8380  146.4270 C   0  0  0  0  0  2  0  0  0  0  0  0
  188.6770  176.4060  145.5470 C   0  0  0  0  0  3  0  0  0  0  0  0
  185.7230  176.8530  143.2850 C   0  0  0  0  0  2  0  0  0  0  0  0
  191.0030  175.3610  145.1650 C   0  0  0  0  0  0  0  0  0  0  0  0
  193.5950  173.4080  143.4270 C   0  0  0  0  0  2  0  0  0  0  0  0
  187.0640  176.4920  143.7450 N   0  0  0  0  0  0  0  0  0  0  0  0
  186.2460  179.2100  144.1690 C   0  0  0  0  0  2  0  0  0  0  0  0
  194.1220  175.3230  145.0050 C   0  0  2  0  0  3  0  0  0  0  0  0
  189.3530  175.5540  143.3570 C   0  0  0  0  0  0  0  0  0  0  0  0
  186.5200  177.4240  146.0830 C   0  0  2  0  0  3  0  0  0  0  0  0
  189.6720  175.7790  144.6470 C   0  0  0  0  0  0  0  0  0  0  0  0
  188.5490  174.4760  140.9070 C   0  0  0  0  0  3  0  0  0  0  0  0
  192.6170  176.6320  146.5680 C   0  0  0  0  0  2  0  0  0  0  0  0
  187.6120  175.3040  141.6960 C   0  0  0  0  0  3  0  0  0  0  0  0
  191.4090  175.7050  146.5660 C   0  0  0  0  0  2  0  0  0  0  0  0
  193.1760  174.1500  144.7070 C   0  0  1  0  0  3  0  0  0  0  0  0
  189.7990  174.3490  141.2550 N   0  0  0  0  0  0  0  0  0  0  0  0
  191.4470  174.3450  143.0300 N   0  0  0  0  0  0  0  0  0  0  0  0
  195.4540  174.9180  144.8780 O   0  0  0  0  0  0  0  0  0  0  0  0
  195.8090  174.4520  146.1460 C   0  0  0  0  0  2  0  0  0  0  0  0
  196.7800  171.7820  144.5630 O   0  0  0  0  0  0  0  0  0  0  0  0
  197.7910  173.9030  144.7770 C   0  0  0  0  0  2  0  0  0  0  0  0
  197.0620  173.6010  146.0540 C   0  0  2  0  0  3  0  0  0  0  0  0
  197.8080  172.5820  144.0470 C   0  0  0  0  0  2  0  0  0  0  0  0
  196.6750  172.1470  145.9140 C   0  0  0  0  0  2  0  0  0  0  0  0
  1 26  1  6  0  0  0
  1 27  1  0  0  0  0
  1 18  1  0  0  0  0
  2 27  1  0  0  0  0
  2 14  1  0  0  0  0
  3 19  1  0  0  0  0
  3  7  2  0  0  0  0
  4 18  1  0  0  0  0
  4 15  1  0  0  0  0
  5 11  2  0  0  0  0
  5 19  1  0  0  0  0
  8 12  1  0  0  0  0
  8 16  1  0  0  0  0
  9 25  1  0  0  0  0
  9 13  2  0  0  0  0
 10 22  1  0  0  0  0
 12 15  1  0  0  0  0
 13 24  1  0  0  0  0
 15  5  1  0  0  0  0
 16  3  1  0  0  0  0
 17 28  1  1  0  0  0
 17 10  1  0  0  0  0
 18 20  2  0  0  0  0
 19  6  1  6  0  0  0
 20 13  1  0  0  0  0
 20 11  1  0  0  0  0
 21 26  2  0  0  0  0
 21 23  1  0  0  0  0
 23  4  2  0  0  0  0
 24 22  1  0  0  0  0
 25 14  1  6  0  0  0
 25 17  1  0  0  0  0
 27  9  1  0  0  0  0
 28 29  1  0  0  0  0
 30 34  1  0  0  0  0
 31 32  1  0  0  0  0
 32 29  1  6  0  0  0
 33 30  1  0  0  0  0
 33 31  1  0  0  0  0
 34 32  1  0  0  0  0
M  END
>  <MODEL>
1

>  <REMARK>
 VINA RESULT:      -8.8      0.000      0.000
  Name = 
  3 active torsions:
  status: ('A' for Active; 'I' for Inactive)
    1  A    between atoms: C_17  and  O_28
    2  A    between atoms: O_28  and  C_29
    3  A    between atoms: C_29  and  C_32
                            x       y       z     vdW  Elec       q    Type
                         _______ _______ _______ _____ _____    ______ ____

>  <TORSDO>
F 3

$$$$
=
 OpenBabel11112417463D

 34 40  0  0  1  0  0  0  0  0999 V2000
  190.5090  174.0470  142.7240 C   0  0  2  0  0  3  0  0  0  0  0  0
  192.5590  172.5660  143.1510 C   0  0  0  0  0  2  0  0  0  0  0  0
  186.3370  178.7340  144.6550 C   0  0  0  0  0  0  0  0  0  0  0  0
  188.1650  175.0550  142.9460 C   0  0  0  0  0  0  0  0  0  0  0  0
  187.6930  176.6190  144.8210 C   0  0  0  0  0  0  0  0  0  0  0  0
  185.6250  176.8790  146.1680 C   0  0  0  0  0  1  0  0  0  0  0  0
  185.6690  179.6350  145.1370 O   0  0  0  0  0  0  0  0  0  0  0  0
  185.9720  177.7320  142.3620 C   0  0  0  0  0  2  0  0  0  0  0  0
  191.8730  174.0620  144.8170 C   0  0  0  0  0  0  0  0  0  0  0  0
  194.0380  175.6190  146.5300 C   0  0  0  0  0  2  0  0  0  0  0  0
  188.8770  176.3130  145.3710 C   0  0  0  0  0  3  0  0  0  0  0  0
  185.9860  176.3320  142.9850 C   0  0  0  0  0  2  0  0  0  0  0  0
  191.1140  175.0290  145.3640 C   0  0  0  0  0  0  0  0  0  0  0  0
  193.5520  172.4780  144.3160 C   0  0  0  0  0  2  0  0  0  0  0  0
  187.2910  176.0140  143.5680 N   0  0  0  0  0  0  0  0  0  0  0  0
  186.6920  178.7960  143.1950 C   0  0  0  0  0  2  0  0  0  0  0  0
  194.2200  174.7120  145.3140 C   0  0  2  0  0  3  0  0  0  0  0  0
  189.4990  174.8350  143.5250 C   0  0  0  0  0  0  0  0  0  0  0  0
  186.8050  177.6000  145.5380 C   0  0  2  0  0  3  0  0  0  0  0  0
  189.8250  175.3860  144.7110 C   0  0  0  0  0  0  0  0  0  0  0  0
  188.6290  173.1780  141.4480 C   0  0  0  0  0  3  0  0  0  0  0  0
  192.8140  176.5160  146.4060 C   0  0  0  0  0  2  0  0  0  0  0  0
  187.7560  174.2620  141.9470 C   0  0  0  0  0  3  0  0  0  0  0  0
  191.5350  175.7200  146.6260 C   0  0  0  0  0  2  0  0  0  0  0  0
  193.1850  173.5780  145.3260 C   0  0  1  0  0  3  0  0  0  0  0  0
  189.8620  173.0590  141.8550 N   0  0  0  0  0  0  0  0  0  0  0  0
  191.4900  173.4260  143.6100 N   0  0  0  0  0  0  0  0  0  0  0  0
  195.5160  174.1880  145.3450 O   0  0  0  0  0  0  0  0  0  0  0  0
  196.2900  175.1050  144.6310 C   0  0  0  0  0  2  0  0  0  0  0  0
  197.5480  175.9320  141.7490 O   0  0  0  0  0  0  0  0  0  0  0  0
  196.3960  173.9890  142.4300 C   0  0  0  0  0  2  0  0  0  0  0  0
  195.8320  175.1560  143.1860 C   0  0  2  0  0  3  0  0  0  0  0  0
  197.2330  174.6260  141.3480 C   0  0  0  0  0  2  0  0  0  0  0  0
  196.4460  176.3580  142.5050 C   0  0  0  0  0  2  0  0  0  0  0  0
  1 26  1  1  0  0  0
  1 18  1  0  0  0  0
  1 27  1  0  0  0  0
  2 27  1  0  0  0  0
  2 14  1  0  0  0  0
  3  7  2  0  0  0  0
  3 19  1  0  0  0  0
  4 18  1  0  0  0  0
  4 15  1  0  0  0  0
  5 11  2  0  0  0  0
  5 19  1  0  0  0  0
  8 12  1  0  0  0  0
  8 16  1  0  0  0  0
  9 25  1  0  0  0  0
  9 13  2  0  0  0  0
 12 15  1  0  0  0  0
 13 24  1  0  0  0  0
 15  5  1  0  0  0  0
 16  3  1  0  0  0  0
 17 25  1  0  0  0  0
 17 28  1  1  0  0  0
 17 10  1  0  0  0  0
 18 20  2  0  0  0  0
 19  6  1  6  0  0  0
 20 13  1  0  0  0  0
 20 11  1  0  0  0  0
 21 26  2  0  0  0  0
 21 23  1  0  0  0  0
 22 10  1  0  0  0  0
 22 24  1  0  0  0  0
 23  4  2  0  0  0  0
 25 14  1  6  0  0  0
 27  9  1  0  0  0  0
 29 28  1  0  0  0  0
 30 34  1  0  0  0  0
 31 32  1  0  0  0  0
 32 29  1  1  0  0  0
 33 30  1  0  0  0  0
 33 31  1  0  0  0  0
 34 32  1  0  0  0  0
M  END
>  <MODEL>
2

>  <REMARK>
 VINA RESULT:      -8.5      1.505      1.812
  Name = 
  3 active torsions:
  status: ('A' for Active; 'I' for Inactive)
    1  A    between atoms: C_17  and  O_28
    2  A    between atoms: O_28  and  C_29
    3  A    between atoms: C_29  and  C_32
                            x       y       z     vdW  Elec       q    Type
                         _______ _______ _______ _____ _____    ______ ____

>  <TORSDO>
F 3

$$$$
=
 OpenBabel11112417463D

 34 40  0  0  1  0  0  0  0  0999 V2000
  191.7920  176.7920  145.6740 C   0  0  2  0  0  3  0  0  0  0  0  0
  189.5080  176.8010  146.8400 C   0  0  0  0  0  2  0  0  0  0  0  0
  195.5360  175.5090  140.4360 C   0  0  0  0  0  0  0  0  0  0  0  0
  193.9390  175.9420  144.5660 C   0  0  0  0  0  0  0  0  0  0  0  0
  193.8360  175.0680  142.2400 C   0  0  0  0  0  0  0  0  0  0  0  0
  195.0780  173.1810  141.2150 C   0  0  0  0  0  1  0  0  0  0  0  0
  196.0900  175.2470  139.3800 O   0  0  0  0  0  0  0  0  0  0  0  0
  196.6730  176.5370  142.4470 C   0  0  0  0  0  2  0  0  0  0  0  0
  189.6700  175.9410  144.6670 C   0  0  0  0  0  0  0  0  0  0  0  0
  187.3510  176.4880  142.5760 C   0  0  0  0  0  2  0  0  0  0  0  0
  192.4970  175.1080  142.2880 C   0  0  0  0  0  3  0  0  0  0  0  0
  196.0820  175.4330  143.3300 C   0  0  0  0  0  2  0  0  0  0  0  0
  190.2880  175.6190  143.5160 C   0  0  0  0  0  0  0  0  0  0  0  0
  188.1040  176.3970  146.3750 C   0  0  0  0  0  2  0  0  0  0  0  0
  194.6210  175.5030  143.3770 N   0  0  0  0  0  0  0  0  0  0  0  0
  195.8990  176.7820  141.1490 C   0  0  0  0  0  2  0  0  0  0  0  0
  187.5480  177.0430  143.9850 C   0  0  2  0  0  3  0  0  0  0  0  0
  192.4750  176.0750  144.5330 C   0  0  0  0  0  0  0  0  0  0  0  0
  194.4920  174.5630  140.9830 C   0  0  2  0  0  3  0  0  0  0  0  0
  191.7750  175.6260  143.4730 C   0  0  0  0  0  0  0  0  0  0  0  0
  193.8130  176.3890  146.9680 C   0  0  0  0  0  3  0  0  0  0  0  0
  188.6590  176.3930  141.8020 C   0  0  0  0  0  2  0  0  0  0  0  0
  194.5750  176.1000  145.7340 C   0  0  0  0  0  3  0  0  0  0  0  0
  189.5000  175.2260  142.3020 C   0  0  0  0  0  2  0  0  0  0  0  0
  188.2000  175.9910  144.8950 C   0  0  1  0  0  3  0  0  0  0  0  0
  192.5350  176.6460  146.9300 N   0  0  0  0  0  0  0  0  0  0  0  0
  190.4100  176.3380  145.8080 N   0  0  0  0  0  0  0  0  0  0  0  0
  186.2990  177.4160  144.4910 O   0  0  0  0  0  0  0  0  0  0  0  0
  186.2300  178.7970  144.2910 C   0  0  0  0  0  2  0  0  0  0  0  0
  184.0660  177.8060  146.5080 O   0  0  0  0  0  0  0  0  0  0  0  0
  185.9410  179.2260  146.7060 C   0  0  0  0  0  2  0  0  0  0  0  0
  185.3410  179.4300  145.3450 C   0  0  2  0  0  3  0  0  0  0  0  0
  184.8930  178.4330  147.4500 C   0  0  0  0  0  2  0  0  0  0  0  0
  184.0290  178.6820  145.4130 C   0  0  0  0  0  2  0  0  0  0  0  0
  1 18  1  6  0  0  0
  1 27  1  0  0  0  0
  1 26  1  0  0  0  0
  3 19  1  0  0  0  0
  3 16  1  0  0  0  0
  4 23  2  0  0  0  0
  5 11  2  0  0  0  0
  5 15  1  0  0  0  0
  7  3  2  0  0  0  0
  8 12  1  0  0  0  0
  9 25  1  0  0  0  0
  9 27  1  0  0  0  0
 10 17  1  0  0  0  0
 11 20  1  0  0  0  0
 12 15  1  0  0  0  0
 13  9  2  0  0  0  0
 14  2  1  0  0  0  0
 15  4  1  0  0  0  0
 16  8  1  0  0  0  0
 17 28  1  1  0  0  0
 17 25  1  0  0  0  0
 18  4  1  0  0  0  0
 19  6  1  1  0  0  0
 19  5  1  0  0  0  0
 20 13  1  0  0  0  0
 20 18  2  0  0  0  0
 22 24  1  0  0  0  0
 22 10  1  0  0  0  0
 23 21  1  0  0  0  0
 24 13  1  0  0  0  0
 25 14  1  1  0  0  0
 26 21  2  0  0  0  0
 27  2  1  0  0  0  0
 29 28  1  0  0  0  0
 30 33  1  0  0  0  0
 31 33  1  0  0  0  0
 32 29  1  6  0  0  0
 32 34  1  0  0  0  0
 32 31  1  0  0  0  0
 34 30  1  0  0  0  0
M  END
>  <MODEL>
3

>  <REMARK>
 VINA RESULT:      -8.4      2.563      8.979
  Name = 
  3 active torsions:
  status: ('A' for Active; 'I' for Inactive)
    1  A    between atoms: C_17  and  O_28
    2  A    between atoms: O_28  and  C_29
    3  A    between atoms: C_29  and  C_32
                            x       y       z     vdW  Elec       q    Type
                         _______ _______ _______ _____ _____    ______ ____

>  <TORSDO>
F 3

$$$$
=
 OpenBabel11112417463D

 34 40  0  0  1  0  0  0  0  0999 V2000
  189.7840  174.4140  142.4670 C   0  0  2  0  0  3  0  0  0  0  0  0
  187.4080  175.3800  142.5090 C   0  0  0  0  0  2  0  0  0  0  0  0
  195.9480  174.2870  144.7220 C   0  0  0  0  0  0  0  0  0  0  0  0
  192.3190  174.2410  142.1480 C   0  0  0  0  0  0  0  0  0  0  0  0
  193.8240  175.2970  143.8230 C   0  0  0  0  0  0  0  0  0  0  0  0
  195.9930  176.4520  143.4780 C   0  0  0  0  0  1  0  0  0  0  0  0
  197.0400  174.3610  145.2630 O   0  0  0  0  0  0  0  0  0  0  0  0
  195.3460  172.6340  142.9060 C   0  0  0  0  0  2  0  0  0  0  0  0
  189.0250  176.2800  143.9450 C   0  0  0  0  0  0  0  0  0  0  0  0
  188.2210  177.1380  146.8890 C   0  0  0  0  0  2  0  0  0  0  0  0
  192.7680  175.9000  144.3870 C   0  0  0  0  0  3  0  0  0  0  0  0
  194.8020  173.7850  142.0550 C   0  0  0  0  0  2  0  0  0  0  0  0
  190.2390  176.3860  144.5170 C   0  0  0  0  0  0  0  0  0  0  0  0
  186.7400  176.4550  143.3750 C   0  0  0  0  0  2  0  0  0  0  0  0
  193.6430  174.4210  142.6830 N   0  0  0  0  0  0  0  0  0  0  0  0
  195.3850  172.9290  144.4080 C   0  0  0  0  0  2  0  0  0  0  0  0
  187.4020  176.4110  145.8230 C   0  0  2  0  0  3  0  0  0  0  0  0
  191.1800  174.8310  142.8660 C   0  0  0  0  0  0  0  0  0  0  0  0
  195.1880  175.5540  144.4030 C   0  0  2  0  0  3  0  0  0  0  0  0
  191.3890  175.6700  143.9000 C   0  0  0  0  0  0  0  0  0  0  0  0
  190.7490  173.6580  140.3660 C   0  0  0  0  0  3  0  0  0  0  0  0
  189.6720  176.6750  146.9220 C   0  0  0  0  0  2  0  0  0  0  0  0
  192.1060  173.6750  140.9530 C   0  0  0  0  0  3  0  0  0  0  0  0
  190.4460  177.2340  145.7360 C   0  0  0  0  0  2  0  0  0  0  0  0
  187.7680  176.9180  144.4210 C   0  0  1  0  0  3  0  0  0  0  0  0
  189.7100  174.0520  141.0480 N   0  0  0  0  0  0  0  0  0  0  0  0
  188.8220  175.4580  142.8090 N   0  0  0  0  0  0  0  0  0  0  0  0
  186.0460  176.6320  146.0820 O   0  0  0  0  0  0  0  0  0  0  0  0
  186.0280  177.5770  147.1110 C   0  0  0  0  0  2  0  0  0  0  0  0
  185.5700  179.6140  144.6180 O   0  0  0  0  0  0  0  0  0  0  0  0
  184.0520  178.2310  145.7810 C   0  0  0  0  0  2  0  0  0  0  0  0
  185.0870  178.7130  146.7550 C   0  0  2  0  0  3  0  0  0  0  0  0
  184.2690  179.0970  144.5630 C   0  0  0  0  0  2  0  0  0  0  0  0
  185.8440  179.7710  145.9850 C   0  0  0  0  0  2  0  0  0  0  0  0
  1 26  1  6  0  0  0
  1 27  1  0  0  0  0
  1 18  1  0  0  0  0
  2 27  1  0  0  0  0
  2 14  1  0  0  0  0
  3  7  2  0  0  0  0
  4 15  1  0  0  0  0
  4 18  1  0  0  0  0
  5 11  2  0  0  0  0
  5 19  1  0  0  0  0
  8 16  1  0  0  0  0
  9 25  1  0  0  0  0
  9 13  2  0  0  0  0
 10 22  1  0  0  0  0
 12 15  1  0  0  0  0
 12  8  1  0  0  0  0
 13 24  1  0  0  0  0
 15  5  1  0  0  0  0
 16  3  1  0  0  0  0
 17 28  1  1  0  0  0
 17 10  1  0  0  0  0
 18 20  2  0  0  0  0
 19  6  1  6  0  0  0
 19  3  1  0  0  0  0
 20 11  1  0  0  0  0
 20 13  1  0  0  0  0
 21 23  1  0  0  0  0
 21 26  2  0  0  0  0
 23  4  2  0  0  0  0
 24 22  1  0  0  0  0
 25 14  1  6  0  0  0
 25 17  1  0  0  0  0
 27  9  1  0  0  0  0
 28 29  1  0  0  0  0
 30 34  1  0  0  0  0
 31 32  1  0  0  0  0
 32 29  1  6  0  0  0
 33 30  1  0  0  0  0
 33 31  1  0  0  0  0
 34 32  1  0  0  0  0
M  END
>  <MODEL>
4

>  <REMARK>
 VINA RESULT:      -8.3      1.655      8.416
  Name = 
  3 active torsions:
  status: ('A' for Active; 'I' for Inactive)
    1  A    between atoms: C_17  and  O_28
    2  A    between atoms: O_28  and  C_29
    3  A    between atoms: C_29  and  C_32
                            x       y       z     vdW  Elec       q    Type
                         _______ _______ _______ _____ _____    ______ ____

>  <TORSDO>
F 3

$$$$
=
 OpenBabel11112417463D

 34 40  0  0  1  0  0  0  0  0999 V2000
  191.2140  174.2610  142.9480 C   0  0  2  0  0  3  0  0  0  0  0  0
  189.6860  176.3200  142.9020 C   0  0  0  0  0  2  0  0  0  0  0  0
  195.8230  170.6220  145.8840 C   0  0  0  0  0  0  0  0  0  0  0  0
  193.3310  172.8190  142.9230 C   0  0  0  0  0  0  0  0  0  0  0  0
  194.7390  172.7030  144.9710 C   0  0  0  0  0  0  0  0  0  0  0  0
  197.2080  172.5740  145.1730 C   0  0  0  0  0  1  0  0  0  0  0  0
  196.6540  170.0410  146.5630 O   0  0  0  0  0  0  0  0  0  0  0  0
  194.9100  169.7770  143.6820 C   0  0  0  0  0  2  0  0  0  0  0  0
  191.1650  176.0440  144.6960 C   0  0  0  0  0  0  0  0  0  0  0  0
  190.2500  176.8210  147.6300 C   0  0  0  0  0  2  0  0  0  0  0  0
  194.0220  173.6960  145.5160 C   0  0  0  0  0  3  0  0  0  0  0  0
  195.2120  171.1390  143.0480 C   0  0  0  0  0  2  0  0  0  0  0  0
  192.1080  175.4220  145.4280 C   0  0  0  0  0  0  0  0  0  0  0  0
  189.4600  177.4670  143.8940 C   0  0  0  0  0  2  0  0  0  0  0  0
  194.4110  172.2060  143.6500 N   0  0  0  0  0  0  0  0  0  0  0  0
  194.7490  169.8170  145.2050 C   0  0  0  0  0  2  0  0  0  0  0  0
  189.4430  176.7750  146.3340 C   0  0  2  0  0  3  0  0  0  0  0  0
  192.5030  173.8260  143.6040 C   0  0  0  0  0  0  0  0  0  0  0  0
  195.8810  172.1270  145.7630 C   0  0  2  0  0  3  0  0  0  0  0  0
  192.8600  174.2910  144.8180 C   0  0  0  0  0  0  0  0  0  0  0  0
  192.1250  173.3800  140.8710 C   0  0  0  0  0  3  0  0  0  0  0  0
  191.2320  175.6620  147.7440 C   0  0  0  0  0  2  0  0  0  0  0  0
  193.1410  172.6050  141.6150 C   0  0  0  0  0  3  0  0  0  0  0  0
  192.4250  175.8730  146.8220 C   0  0  0  0  0  2  0  0  0  0  0  0
  190.3170  177.1840  145.1390 C   0  0  1  0  0  3  0  0  0  0  0  0
  191.2940  174.1730  141.4860 N   0  0  0  0  0  0  0  0  0  0  0  0
  190.8440  175.6030  143.3890 N   0  0  0  0  0  0  0  0  0  0  0  0
  188.3550  177.6430  146.4610 O   0  0  0  0  0  0  0  0  0  0  0  0
  187.2730  176.8180  146.7780 C   0  0  0  0  0  2  0  0  0  0  0  0
  184.3740  178.2910  146.7410 O   0  0  0  0  0  0  0  0  0  0  0  0
  186.2010  178.4410  145.2550 C   0  0  0  0  0  2  0  0  0  0  0  0
  186.1450  177.0390  145.7870 C   0  0  2  0  0  3  0  0  0  0  0  0
  184.8800  179.0410  145.6700 C   0  0  0  0  0  2  0  0  0  0  0  0
  184.8200  176.9810  146.5130 C   0  0  0  0  0  2  0  0  0  0  0  0
  1 26  1  6  0  0  0
  1 27  1  0  0  0  0
  1 18  1  0  0  0  0
  2 27  1  0  0  0  0
  2 14  1  0  0  0  0
  3  7  2  0  0  0  0
  4 18  1  0  0  0  0
  4 15  1  0  0  0  0
  5 11  2  0  0  0  0
  5 19  1  0  0  0  0
  8 16  1  0  0  0  0
  9 25  1  0  0  0  0
  9 13  2  0  0  0  0
 10 22  1  0  0  0  0
 12 15  1  0  0  0  0
 12  8  1  0  0  0  0
 13 24  1  0  0  0  0
 15  5  1  0  0  0  0
 16  3  1  0  0  0  0
 17 28  1  1  0  0  0
 17 10  1  0  0  0  0
 18 20  2  0  0  0  0
 19  6  1  6  0  0  0
 19  3  1  0  0  0  0
 20 13  1  0  0  0  0
 20 11  1  0  0  0  0
 21 26  2  0  0  0  0
 21 23  1  0  0  0  0
 23  4  2  0  0  0  0
 24 22  1  0  0  0  0
 25 14  1  6  0  0  0
 25 17  1  0  0  0  0
 27  9  1  0  0  0  0
 28 29  1  0  0  0  0
 31 33  1  0  0  0  0
 31 32  1  0  0  0  0
 32 34  1  0  0  0  0
 32 29  1  1  0  0  0
 33 30  1  0  0  0  0
 34 30  1  0  0  0  0
M  END
>  <MODEL>
5

>  <REMARK>
 VINA RESULT:      -8.1      1.883      8.604
  Name = 
  3 active torsions:
  status: ('A' for Active; 'I' for Inactive)
    1  A    between atoms: C_17  and  O_28
    2  A    between atoms: O_28  and  C_29
    3  A    between atoms: C_29  and  C_32
                            x       y       z     vdW  Elec       q    Type
                         _______ _______ _______ _____ _____    ______ ____

>  <TORSDO>
F 3

$$$$
=
 OpenBabel11112417463D

 34 40  0  0  1  0  0  0  0  0999 V2000
  192.6910  176.1790  144.8470 C   0  0  2  0  0  3  0  0  0  0  0  0
  190.6010  177.6640  144.9020 C   0  0  0  0  0  2  0  0  0  0  0  0
  195.5190  170.3100  144.0370 C   0  0  0  0  0  0  0  0  0  0  0  0
  194.3860  174.3660  145.4760 C   0  0  0  0  0  0  0  0  0  0  0  0
  193.8750  171.9920  144.9360 C   0  0  0  0  0  0  0  0  0  0  0  0
  194.3880  169.9400  146.2330 C   0  0  0  0  0  1  0  0  0  0  0  0
  195.8980  169.1690  143.8280 O   0  0  0  0  0  0  0  0  0  0  0  0
  197.0390  172.2690  144.5350 C   0  0  0  0  0  2  0  0  0  0  0  0
  190.3540  175.3710  144.4960 C   0  0  0  0  0  0  0  0  0  0  0  0
  188.2130  174.3630  142.3860 C   0  0  0  0  0  2  0  0  0  0  0  0
  192.6240  172.3410  144.6040 C   0  0  0  0  0  3  0  0  0  0  0  0
  196.1790  172.6090  145.7570 C   0  0  0  0  0  2  0  0  0  0  0  0
  190.7680  174.1050  144.3010 C   0  0  0  0  0  0  0  0  0  0  0  0
  189.1160  177.3770  144.6450 C   0  0  0  0  0  2  0  0  0  0  0  0
  194.8220  172.9980  145.3720 N   0  0  0  0  0  0  0  0  0  0  0  0
  196.3090  171.4540  143.4640 C   0  0  0  0  0  2  0  0  0  0  0  0
  188.6580  175.7850  142.7250 C   0  0  2  0  0  3  0  0  0  0  0  0
  193.0420  174.7180  144.9960 C   0  0  0  0  0  0  0  0  0  0  0  0
  194.2610  170.5410  144.8430 C   0  0  2  0  0  3  0  0  0  0  0  0
  192.1750  173.7520  144.6320 C   0  0  0  0  0  0  0  0  0  0  0  0
  194.5490  176.6450  146.3470 C   0  0  0  0  0  3  0  0  0  0  0  0
  189.3750  173.3790  142.3720 C   0  0  0  0  0  2  0  0  0  0  0  0
  195.1060  175.2950  146.1170 C   0  0  0  0  0  3  0  0  0  0  0  0
  189.8280  173.0560  143.7890 C   0  0  0  0  0  2  0  0  0  0  0  0
  188.9920  175.9050  144.2190 C   0  0  1  0  0  3  0  0  0  0  0  0
  193.4200  177.0130  145.8090 N   0  0  0  0  0  0  0  0  0  0  0  0
  191.2470  176.3710  144.9530 N   0  0  0  0  0  0  0  0  0  0  0  0
  187.6250  176.6640  142.3850 O   0  0  0  0  0  0  0  0  0  0  0  0
  186.4780  176.1020  142.9480 C   0  0  0  0  0  2  0  0  0  0  0  0
  185.9780  178.7350  144.7900 O   0  0  0  0  0  0  0  0  0  0  0  0
  185.8470  178.4380  142.4520 C   0  0  0  0  0  2  0  0  0  0  0  0
  185.4060  177.1640  143.1120 C   0  0  2  0  0  3  0  0  0  0  0  0
  185.8800  179.4390  143.5820 C   0  0  0  0  0  2  0  0  0  0  0  0
  185.2840  177.5360  144.5720 C   0  0  0  0  0  2  0  0  0  0  0  0
  1 27  1  0  0  0  0
  1 18  1  1  0  0  0
  1 26  1  0  0  0  0
  2 27  1  0  0  0  0
  3 19  1  0  0  0  0
  4 23  2  0  0  0  0
  5 15  1  0  0  0  0
  7  3  2  0  0  0  0
  8 12  1  0  0  0  0
  9 27  1  0  0  0  0
 10 17  1  0  0  0  0
 11 20  1  0  0  0  0
 11  5  2  0  0  0  0
 13  9  2  0  0  0  0
 13 20  1  0  0  0  0
 14  2  1  0  0  0  0
 15  4  1  0  0  0  0
 15 12  1  0  0  0  0
 16  3  1  0  0  0  0
 16  8  1  0  0  0  0
 17 28  1  1  0  0  0
 17 25  1  0  0  0  0
 18  4  1  0  0  0  0
 19  5  1  0  0  0  0
 19  6  1  1  0  0  0
 20 18  2  0  0  0  0
 22 10  1  0  0  0  0
 22 24  1  0  0  0  0
 23 21  1  0  0  0  0
 24 13  1  0  0  0  0
 25  9  1  0  0  0  0
 25 14  1  6  0  0  0
 26 21  2  0  0  0  0
 28 29  1  0  0  0  0
 31 32  1  0  0  0  0
 31 33  1  0  0  0  0
 32 29  1  1  0  0  0
 32 34  1  0  0  0  0
 33 30  1  0  0  0  0
 34 30  1  0  0  0  0
M  END
>  <MODEL>
6

>  <REMARK>
 VINA RESULT:      -7.9      2.173      9.053
  Name = 
  3 active torsions:
  status: ('A' for Active; 'I' for Inactive)
    1  A    between atoms: C_17  and  O_28
    2  A    between atoms: O_28  and  C_29
    3  A    between atoms: C_29  and  C_32
                            x       y       z     vdW  Elec       q    Type
                         _______ _______ _______ _____ _____    ______ ____

>  <TORSDO>
F 3

$$$$
=
 OpenBabel11112417463D

 34 40  0  0  1  0  0  0  0  0999 V2000
  190.3880  173.8680  142.2930 C   0  0  2  0  0  3  0  0  0  0  0  0
  188.7800  175.8610  142.1460 C   0  0  0  0  0  2  0  0  0  0  0  0
  194.6270  170.1760  145.6830 C   0  0  0  0  0  0  0  0  0  0  0  0
  192.5530  172.5190  142.5200 C   0  0  0  0  0  0  0  0  0  0  0  0
  193.6020  172.2830  144.7630 C   0  0  0  0  0  0  0  0  0  0  0  0
  196.0050  172.2360  145.3760 C   0  0  0  0  0  1  0  0  0  0  0  0
  195.3630  169.5720  146.4470 O   0  0  0  0  0  0  0  0  0  0  0  0
  194.1440  169.4890  143.2980 C   0  0  0  0  0  2  0  0  0  0  0  0
  189.9500  175.4900  144.1410 C   0  0  0  0  0  0  0  0  0  0  0  0
  188.5140  175.9730  146.9260 C   0  0  0  0  0  2  0  0  0  0  0  0
  192.7510  173.1960  145.2530 C   0  0  0  0  0  3  0  0  0  0  0  0
  194.4750  170.9110  142.8340 C   0  0  0  0  0  2  0  0  0  0  0  0
  190.7880  174.8450  144.9730 C   0  0  0  0  0  0  0  0  0  0  0  0
  188.3290  176.9080  143.1720 C   0  0  0  0  0  2  0  0  0  0  0  0
  193.5280  171.8890  143.3710 N   0  0  0  0  0  0  0  0  0  0  0  0
  193.7290  169.3910  144.7690 C   0  0  0  0  0  2  0  0  0  0  0  0
  187.9400  176.0070  145.5110 C   0  0  2  0  0  3  0  0  0  0  0  0
  191.5700  173.4300  143.1250 C   0  0  0  0  0  0  0  0  0  0  0  0
  194.6240  171.6870  145.6920 C   0  0  2  0  0  3  0  0  0  0  0  0
  191.6920  173.8030  144.4150 C   0  0  0  0  0  0  0  0  0  0  0  0
  191.6810  173.2080  140.3410 C   0  0  0  0  0  3  0  0  0  0  0  0
  189.5240  174.8490  147.1160 C   0  0  0  0  0  2  0  0  0  0  0  0
  192.5980  172.4120  141.1860 C   0  0  0  0  0  3  0  0  0  0  0  0
  190.8420  175.1860  146.4320 C   0  0  0  0  0  2  0  0  0  0  0  0
  188.9780  176.5530  144.5200 C   0  0  1  0  0  3  0  0  0  0  0  0
  190.7160  173.9110  140.8640 N   0  0  0  0  0  0  0  0  0  0  0  0
  189.8770  175.1520  142.7680 N   0  0  0  0  0  0  0  0  0  0  0  0
  186.8000  176.8170  145.5160 O   0  0  0  0  0  0  0  0  0  0  0  0
  186.9190  177.5940  146.6710 C   0  0  0  0  0  2  0  0  0  0  0  0
  184.6460  178.7330  144.6430 O   0  0  0  0  0  0  0  0  0  0  0  0
  184.6250  178.4550  146.9860 C   0  0  0  0  0  2  0  0  0  0  0  0
  186.0210  178.8140  146.5700 C   0  0  2  0  0  3  0  0  0  0  0  0
  183.7960  178.7380  145.7570 C   0  0  0  0  0  2  0  0  0  0  0  0
  185.8750  179.2130  145.1190 C   0  0  0  0  0  2  0  0  0  0  0  0
  1 26  1  6  0  0  0
  1 27  1  0  0  0  0
  1 18  1  0  0  0  0
  2 27  1  0  0  0  0
  2 14  1  0  0  0  0
  3 19  1  0  0  0  0
  3  7  2  0  0  0  0
  4 18  1  0  0  0  0
  4 15  1  0  0  0  0
  5 11  2  0  0  0  0
  5 19  1  0  0  0  0
  8 16  1  0  0  0  0
  9 25  1  0  0  0  0
  9 13  2  0  0  0  0
 10 22  1  0  0  0  0
 12  8  1  0  0  0  0
 12 15  1  0  0  0  0
 13 24  1  0  0  0  0
 15  5  1  0  0  0  0
 16  3  1  0  0  0  0
 17 28  1  1  0  0  0
 17 10  1  0  0  0  0
 18 20  2  0  0  0  0
 19  6  1  6  0  0  0
 20 13  1  0  0  0  0
 20 11  1  0  0  0  0
 21 26  2  0  0  0  0
 21 23  1  0  0  0  0
 23  4  2  0  0  0  0
 24 22  1  0  0  0  0
 25 14  1  6  0  0  0
 25 17  1  0  0  0  0
 27  9  1  0  0  0  0
 28 29  1  0  0  0  0
 30 34  1  0  0  0  0
 30 33  1  0  0  0  0
 32 29  1  6  0  0  0
 32 31  1  0  0  0  0
 33 31  1  0  0  0  0
 34 32  1  0  0  0  0
M  END
>  <MODEL>
7

>  <REMARK>
 VINA RESULT:      -7.9      2.017      8.623
  Name = 
  3 active torsions:
  status: ('A' for Active; 'I' for Inactive)
    1  A    between atoms: C_17  and  O_28
    2  A    between atoms: O_28  and  C_29
    3  A    between atoms: C_29  and  C_32
                            x       y       z     vdW  Elec       q    Type
                         _______ _______ _______ _____ _____    ______ ____

>  <TORSDO>
F 3

$$$$
=
 OpenBabel11112417463D

 34 40  0  0  1  0  0  0  0  0999 V2000
  190.3120  174.0490  141.4850 C   0  0  2  0  0  3  0  0  0  0  0  0
  187.9270  174.9290  141.8200 C   0  0  0  0  0  2  0  0  0  0  0  0
  196.7740  174.4790  142.5670 C   0  0  0  0  0  0  0  0  0  0  0  0
  192.7580  173.9130  140.7360 C   0  0  0  0  0  0  0  0  0  0  0  0
  194.4670  175.2660  141.9340 C   0  0  0  0  0  0  0  0  0  0  0  0
  196.4660  176.4260  141.0330 C   0  0  0  0  0  1  0  0  0  0  0  0
  197.9370  174.6720  142.8830 O   0  0  0  0  0  0  0  0  0  0  0  0
  195.9630  172.5450  141.1540 C   0  0  0  0  0  2  0  0  0  0  0  0
  189.7130  176.0950  142.7870 C   0  0  0  0  0  0  0  0  0  0  0  0
  189.3890  177.3710  145.6710 C   0  0  0  0  0  2  0  0  0  0  0  0
  193.4920  175.9130  142.5880 C   0  0  0  0  0  3  0  0  0  0  0  0
  195.2080  173.5320  140.2570 C   0  0  0  0  0  2  0  0  0  0  0  0
  191.0000  176.3290  143.1060 C   0  0  0  0  0  0  0  0  0  0  0  0
  187.3570  176.1020  142.6270 C   0  0  0  0  0  2  0  0  0  0  0  0
  194.1410  174.2190  140.9870 N   0  0  0  0  0  0  0  0  0  0  0  0
  196.2470  173.0710  142.5640 C   0  0  0  0  0  2  0  0  0  0  0  0
  188.4410  176.4600  144.8920 C   0  0  2  0  0  3  0  0  0  0  0  0
  191.7290  174.5690  141.5560 C   0  0  0  0  0  0  0  0  0  0  0  0
  195.8940  175.6550  142.2110 C   0  0  2  0  0  3  0  0  0  0  0  0
  192.0640  175.5650  142.4010 C   0  0  0  0  0  0  0  0  0  0  0  0
  190.9370  173.0090  139.3760 C   0  0  0  0  0  3  0  0  0  0  0  0
  190.8480  176.9670  145.5060 C   0  0  0  0  0  2  0  0  0  0  0  0
  192.3720  173.1620  139.6960 C   0  0  0  0  0  3  0  0  0  0  0  0
  191.3660  177.3610  144.1290 C   0  0  0  0  0  2  0  0  0  0  0  0
  188.5230  176.7560  143.3870 C   0  0  1  0  0  3  0  0  0  0  0  0
  190.0120  173.4690  140.1720 N   0  0  0  0  0  0  0  0  0  0  0  0
  189.3640  175.1010  141.8410 N   0  0  0  0  0  0  0  0  0  0  0  0
  187.1410  176.6730  145.3600 O   0  0  0  0  0  0  0  0  0  0  0  0
  187.2200  176.4730  146.7400 C   0  0  0  0  0  2  0  0  0  0  0  0
  185.6460  179.3190  146.6930 O   0  0  0  0  0  0  0  0  0  0  0  0
  184.8460  177.1090  146.4840 C   0  0  0  0  0  2  0  0  0  0  0  0
  186.0170  177.0960  147.4240 C   0  0  2  0  0  3  0  0  0  0  0  0
  184.5130  178.5740  146.3380 C   0  0  0  0  0  2  0  0  0  0  0  0
  186.2880  178.5610  147.6840 C   0  0  0  0  0  2  0  0  0  0  0  0
  1 26  1  6  0  0  0
  1 18  1  0  0  0  0
  1 27  1  0  0  0  0
  2 27  1  0  0  0  0
  2 14  1  0  0  0  0
  3  7  2  0  0  0  0
  4 15  1  0  0  0  0
  4 18  1  0  0  0  0
  5 19  1  0  0  0  0
  5 11  2  0  0  0  0
  8 16  1  0  0  0  0
  9 13  2  0  0  0  0
  9 25  1  0  0  0  0
 12 15  1  0  0  0  0
 12  8  1  0  0  0  0
 13 24  1  0  0  0  0
 15  5  1  0  0  0  0
 16  3  1  0  0  0  0
 17 28  1  1  0  0  0
 17 10  1  0  0  0  0
 18 20  2  0  0  0  0
 19  6  1  6  0  0  0
 19  3  1  0  0  0  0
 20 11  1  0  0  0  0
 20 13  1  0  0  0  0
 21 23  1  0  0  0  0
 21 26  2  0  0  0  0
 22 10  1  0  0  0  0
 23  4  2  0  0  0  0
 24 22  1  0  0  0  0
 25 14  1  6  0  0  0
 25 17  1  0  0  0  0
 27  9  1  0  0  0  0
 28 29  1  0  0  0  0
 30 34  1  0  0  0  0
 31 32  1  0  0  0  0
 32 29  1  6  0  0  0
 32 34  1  0  0  0  0
 33 31  1  0  0  0  0
 33 30  1  0  0  0  0
M  END
>  <MODEL>
8

>  <REMARK>
 VINA RESULT:      -7.8      2.264      8.507
  Name = 
  3 active torsions:
  status: ('A' for Active; 'I' for Inactive)
    1  A    between atoms: C_17  and  O_28
    2  A    between atoms: O_28  and  C_29
    3  A    between atoms: C_29  and  C_32
                            x       y       z     vdW  Elec       q    Type
                         _______ _______ _______ _____ _____    ______ ____

>  <TORSDO>
F 3

$$$$
=
 OpenBabel11112417463D

 34 40  0  0  1  0  0  0  0  0999 V2000
  190.2830  175.1950  145.6030 C   0  0  2  0  0  3  0  0  0  0  0  0
  192.1170  173.8830  144.3800 C   0  0  0  0  0  2  0  0  0  0  0  0
  184.4410  178.1900  145.6290 C   0  0  0  0  0  0  0  0  0  0  0  0
  188.7080  177.1020  146.2690 C   0  0  0  0  0  0  0  0  0  0  0  0
  186.7560  177.6200  144.8170 C   0  0  0  0  0  0  0  0  0  0  0  0
  185.7510  179.8200  144.2630 C   0  0  0  0  0  1  0  0  0  0  0  0
  183.3310  178.6770  145.4860 O   0  0  0  0  0  0  0  0  0  0  0  0
  185.7310  178.1500  147.8040 C   0  0  0  0  0  2  0  0  0  0  0  0
  190.2160  174.5570  143.1890 C   0  0  0  0  0  0  0  0  0  0  0  0
  188.9480  172.6270  141.0170 C   0  0  0  0  0  2  0  0  0  0  0  0
  187.2360  176.7910  143.8800 C   0  0  0  0  0  3  0  0  0  0  0  0
  186.9510  178.7260  147.0770 C   0  0  0  0  0  2  0  0  0  0  0  0
  189.0070  175.1250  143.0210 C   0  0  0  0  0  0  0  0  0  0  0  0
  192.2280  173.3430  142.9490 C   0  0  0  0  0  2  0  0  0  0  0  0
  187.4660  177.7990  146.0680 N   0  0  0  0  0  0  0  0  0  0  0  0
  184.7410  177.4250  146.8880 C   0  0  0  0  0  2  0  0  0  0  0  0
  190.0810  172.3720  142.0090 C   0  0  2  0  0  3  0  0  0  0  0  0
  189.1380  176.1190  145.2620 C   0  0  0  0  0  0  0  0  0  0  0  0
  185.4710  178.3510  144.5350 C   0  0  2  0  0  3  0  0  0  0  0  0
  188.4730  176.0050  144.0960 C   0  0  0  0  0  0  0  0  0  0  0  0
  190.8860  176.7910  147.3370 C   0  0  0  0  0  3  0  0  0  0  0  0
  187.8160  173.4450  141.6260 C   0  0  0  0  0  2  0  0  0  0  0  0
  189.5470  177.4150  147.2640 C   0  0  0  0  0  3  0  0  0  0  0  0
  188.2190  174.9060  141.7650 C   0  0  0  0  0  2  0  0  0  0  0  0
  190.9040  173.6500  142.2290 C   0  0  1  0  0  3  0  0  0  0  0  0
  191.2260  175.8210  146.5360 N   0  0  0  0  0  0  0  0  0  0  0  0
  190.9500  174.7400  144.3860 N   0  0  0  0  0  0  0  0  0  0  0  0
  190.8920  171.3530  141.5000 O   0  0  0  0  0  0  0  0  0  0  0  0
  190.4610  171.1770  140.1840 C   0  0  0  0  0  2  0  0  0  0  0  0
  192.7570  173.2420  139.1640 O   0  0  0  0  0  0  0  0  0  0  0  0
  192.9250  171.0590  140.0430 C   0  0  0  0  0  2  0  0  0  0  0  0
  191.6550  171.1470  139.2470 C   0  0  2  0  0  3  0  0  0  0  0  0
  193.6770  172.3120  139.6660 C   0  0  0  0  0  2  0  0  0  0  0  0
  191.7680  172.4740  138.5320 C   0  0  0  0  0  2  0  0  0  0  0  0
  1 18  1  6  0  0  0
  1 26  1  0  0  0  0
  2 27  1  0  0  0  0
  3 16  1  0  0  0  0
  4 23  2  0  0  0  0
  5 15  1  0  0  0  0
  7  3  2  0  0  0  0
  9 27  1  0  0  0  0
 10 22  1  0  0  0  0
 10 17  1  0  0  0  0
 11 20  1  0  0  0  0
 11  5  2  0  0  0  0
 12  8  1  0  0  0  0
 13  9  2  0  0  0  0
 13 20  1  0  0  0  0
 14  2  1  0  0  0  0
 15  4  1  0  0  0  0
 15 12  1  0  0  0  0
 16  8  1  0  0  0  0
 17 28  1  6  0  0  0
 17 25  1  0  0  0  0
 18  4  1  0  0  0  0
 19  6  1  1  0  0  0
 19  5  1  0  0  0  0
 19  3  1  0  0  0  0
 20 18  2  0  0  0  0
 22 24  1  0  0  0  0
 23 21  1  0  0  0  0
 24 13  1  0  0  0  0
 25 14  1  1  0  0  0
 25  9  1  0  0  0  0
 26 21  2  0  0  0  0
 27  1  1  0  0  0  0
 29 28  1  0  0  0  0
 30 33  1  0  0  0  0
 32 31  1  0  0  0  0
 32 29  1  1  0  0  0
 33 31  1  0  0  0  0
 34 30  1  0  0  0  0
 34 32  1  0  0  0  0
M  END
>  <MODEL>
9

>  <REMARK>
 VINA RESULT:      -7.7      2.940      5.117
  Name = 
  3 active torsions:
  status: ('A' for Active; 'I' for Inactive)
    1  A    between atoms: C_17  and  O_28
    2  A    between atoms: O_28  and  C_29
    3  A    between atoms: C_29  and  C_32
                            x       y       z     vdW  Elec       q    Type
                         _______ _______ _______ _____ _____    ______ ____

>  <TORSDO>
F 3

$$$$
