=
 OpenBabel11112416543D

 31 35  0  0  1  0  0  0  0  0999 V2000
  184.8540  178.1140  146.8110 C   0  0  0  0  0  0  0  0  0  0  0  0
  186.6390  177.7470  143.5160 C   0  0  0  0  0  0  0  0  0  0  0  0
  185.6640  177.8960  142.4870 C   0  0  0  0  0  0  0  0  0  0  0  0
  183.3820  178.2750  141.7040 C   0  0  0  0  0  0  0  0  0  0  0  0
  186.3660  177.8190  144.9150 C   0  0  0  0  0  0  0  0  0  0  0  0
  185.9150  177.9460  147.6990 C   0  0  0  0  0  3  0  0  0  0  0  0
  184.3020  178.1360  142.7450 C   0  0  0  0  0  3  0  0  0  0  0  0
  188.9900  177.3520  144.0680 C   0  0  0  0  0  0  0  0  0  0  0  0
  183.6050  178.3390  147.2830 F   0  0  0  0  0  0  0  0  0  0  0  0
  187.3760  177.5690  140.8390 N   0  0  0  0  0  0  0  0  0  0  0  0
  182.0440  178.5110  141.9900 O   0  0  0  0  0  1  0  0  0  0  0  0
  188.6930  177.4250  145.3890 N   0  0  0  0  0  0  0  0  0  0  0  0
  187.9780  177.5080  143.1120 C   0  0  0  0  0  0  0  0  0  0  0  0
  190.3360  177.1070  143.6490 N   0  0  0  0  0  2  0  0  0  0  0  0
  185.0800  178.0510  145.4340 C   0  0  0  0  0  3  0  0  0  0  0  0
  183.8050  178.1760  140.3800 C   0  0  0  0  0  3  0  0  0  0  0  0
  187.4330  177.6510  145.8340 C   0  0  0  0  0  0  0  0  0  0  0  0
  187.2010  177.7150  147.2120 C   0  0  0  0  0  3  0  0  0  0  0  0
  188.2920  177.4290  141.7920 N   0  0  0  0  0  0  0  0  0  0  0  0
  186.0750  177.7990  141.1360 C   0  0  0  0  0  0  0  0  0  0  0  0
  185.1510  177.9390  140.0960 C   0  0  0  0  0  3  0  0  0  0  0  0
  192.5850  177.5680  144.0830 O   0  0  0  0  0  1  0  0  0  0  0  0
  191.4410  176.9430  144.5830 C   0  0  2  0  0  3  0  0  0  0  0  0
  194.4770  174.5930  145.5800 C   0  0  1  0  0  3  0  0  0  0  0  0
  192.1510  175.1710  146.3000 C   0  0  0  0  0  2  0  0  0  0  0  0
  192.3100  174.4360  142.8030 O   0  0  0  0  0  0  0  0  0  0  0  0
  195.8290  174.7940  145.8470 O   0  0  0  0  0  1  0  0  0  0  0  0
  193.6390  175.4360  146.5350 C   0  0  0  0  0  2  0  0  0  0  0  0
  192.7090  174.8960  143.8600 C   0  0  0  0  0  0  0  0  0  0  0  0
  191.7280  175.4630  144.8510 C   0  0  2  0  0  3  0  0  0  0  0  0
  194.1830  174.9700  144.1320 C   0  0  0  0  0  2  0  0  0  0  0  0
  1  9  1  0  0  0  0
  1  6  1  0  0  0  0
  2  5  1  0  0  0  0
  3  7  1  0  0  0  0
  3  2  2  0  0  0  0
  4 11  1  0  0  0  0
  4  7  2  0  0  0  0
  5 15  1  0  0  0  0
  5 17  2  0  0  0  0
  8 12  2  0  0  0  0
 10 20  2  0  0  0  0
 10 19  1  0  0  0  0
 12 17  1  0  0  0  0
 13  2  1  0  0  0  0
 13  8  1  0  0  0  0
 14  8  1  0  0  0  0
 14 23  1  0  0  0  0
 15  1  2  0  0  0  0
 16  4  1  0  0  0  0
 17 18  1  0  0  0  0
 18  6  2  0  0  0  0
 19 13  2  0  0  0  0
 20  3  1  0  0  0  0
 21 16  2  0  0  0  0
 21 20  1  0  0  0  0
 23 22  1  6  0  0  0
 24 27  1  1  0  0  0
 24 28  1  0  0  0  0
 25 28  1  0  0  0  0
 26 29  2  0  0  0  0
 29 31  1  0  0  0  0
 29 30  1  0  0  0  0
 30 23  1  1  0  0  0
 30 25  1  0  0  0  0
 31 24  1  0  0  0  0
M  END
>  <MODEL>
1

>  <REMARK>
 VINA RESULT:      -9.6      0.000      0.000
  Name = 
  2 active torsions:
  status: ('A' for Active; 'I' for Inactive)
    1  A    between atoms: C_5  and  N_16
    2  A    between atoms: C_5  and  C_30
                            x       y       z     vdW  Elec       q    Type
                         _______ _______ _______ _____ _____    ______ ____

>  <TORSDO>
F 2

$$$$
=
 OpenBabel11112416543D

 31 35  0  0  1  0  0  0  0  0999 V2000
  184.9210  178.0320  146.8620 C   0  0  0  0  0  0  0  0  0  0  0  0
  186.4900  177.6630  143.4580 C   0  0  0  0  0  0  0  0  0  0  0  0
  185.4640  177.8790  142.4930 C   0  0  0  0  0  0  0  0  0  0  0  0
  183.1590  178.3770  141.8570 C   0  0  0  0  0  0  0  0  0  0  0  0
  186.3030  177.7150  144.8730 C   0  0  0  0  0  0  0  0  0  0  0  0
  186.0250  177.7960  147.6810 C   0  0  0  0  0  3  0  0  0  0  0  0
  184.1320  178.1730  142.8380 C   0  0  0  0  0  3  0  0  0  0  0  0
  188.8490  177.1530  143.8600 C   0  0  0  0  0  0  0  0  0  0  0  0
  183.7140  178.3010  147.4130 F   0  0  0  0  0  0  0  0  0  0  0  0
  187.0580  177.5160  140.7390 N   0  0  0  0  0  0  0  0  0  0  0  0
  181.8520  178.6660  142.2280 O   0  0  0  0  0  1  0  0  0  0  0  0
  188.6340  177.2070  145.1980 N   0  0  0  0  0  0  0  0  0  0  0  0
  187.7910  177.3750  142.9700 C   0  0  0  0  0  0  0  0  0  0  0  0
  190.1550  176.8580  143.3560 N   0  0  0  0  0  2  0  0  0  0  0  0
  185.0620  177.9910  145.4730 C   0  0  0  0  0  3  0  0  0  0  0  0
  183.4980  178.2910  140.5080 C   0  0  0  0  0  3  0  0  0  0  0  0
  187.4140  177.4780  145.7220 C   0  0  0  0  0  0  0  0  0  0  0  0
  187.2680  177.5210  147.1130 C   0  0  0  0  0  3  0  0  0  0  0  0
  188.0220  177.3130  141.6330 N   0  0  0  0  0  0  0  0  0  0  0  0
  185.7890  177.7960  141.1180 C   0  0  0  0  0  0  0  0  0  0  0  0
  184.8120  178.0010  140.1390 C   0  0  0  0  0  3  0  0  0  0  0  0
  192.2390  177.6480  144.0560 O   0  0  0  0  0  1  0  0  0  0  0  0
  191.3050  176.6230  144.2190 C   0  0  2  0  0  3  0  0  0  0  0  0
  190.2630  172.8450  143.6150 C   0  0  1  0  0  3  0  0  0  0  0  0
  191.5740  174.6910  142.5510 C   0  0  0  0  0  2  0  0  0  0  0  0
  192.4820  174.2310  145.9800 O   0  0  0  0  0  0  0  0  0  0  0  0
  189.0560  172.1500  143.5890 O   0  0  0  0  0  1  0  0  0  0  0  0
  190.2280  173.9650  142.5820 C   0  0  0  0  0  2  0  0  0  0  0  0
  191.7160  174.2810  145.0310 C   0  0  0  0  0  0  0  0  0  0  0  0
  191.9560  175.2700  143.9220 C   0  0  2  0  0  3  0  0  0  0  0  0
  190.4930  173.4110  145.0130 C   0  0  0  0  0  2  0  0  0  0  0  0
  1  9  1  0  0  0  0
  1  6  1  0  0  0  0
  2  5  1  0  0  0  0
  3  7  1  0  0  0  0
  3  2  2  0  0  0  0
  4 11  1  0  0  0  0
  4  7  2  0  0  0  0
  5 15  1  0  0  0  0
  5 17  2  0  0  0  0
  8 12  2  0  0  0  0
 10 20  2  0  0  0  0
 10 19  1  0  0  0  0
 12 17  1  0  0  0  0
 13  2  1  0  0  0  0
 13  8  1  0  0  0  0
 14  8  1  0  0  0  0
 14 23  1  0  0  0  0
 15  1  2  0  0  0  0
 16  4  1  0  0  0  0
 17 18  1  0  0  0  0
 18  6  2  0  0  0  0
 19 13  2  0  0  0  0
 20  3  1  0  0  0  0
 21 16  2  0  0  0  0
 21 20  1  0  0  0  0
 23 22  1  6  0  0  0
 24 27  1  1  0  0  0
 24 31  1  0  0  0  0
 25 28  1  0  0  0  0
 25 30  1  0  0  0  0
 28 24  1  0  0  0  0
 29 26  2  0  0  0  0
 30 23  1  1  0  0  0
 30 29  1  0  0  0  0
 31 29  1  0  0  0  0
M  END
>  <MODEL>
2

>  <REMARK>
 VINA RESULT:      -9.3      1.372      2.266
  Name = 
  2 active torsions:
  status: ('A' for Active; 'I' for Inactive)
    1  A    between atoms: C_5  and  N_16
    2  A    between atoms: C_5  and  C_30
                            x       y       z     vdW  Elec       q    Type
                         _______ _______ _______ _____ _____    ______ ____

>  <TORSDO>
F 2

$$$$
=
 OpenBabel11112416543D

 31 35  0  0  1  0  0  0  0  0999 V2000
  185.4500  177.9430  140.9120 C   0  0  0  0  0  0  0  0  0  0  0  0
  187.2040  176.7480  144.0220 C   0  0  0  0  0  0  0  0  0  0  0  0
  186.4370  177.1910  145.1380 C   0  0  0  0  0  0  0  0  0  0  0  0
  184.5300  178.3480  146.1330 C   0  0  0  0  0  0  0  0  0  0  0  0
  186.8750  176.9980  142.6550 C   0  0  0  0  0  0  0  0  0  0  0  0
  186.3020  177.4450  139.9280 C   0  0  0  0  0  3  0  0  0  0  0  0
  185.2500  177.9350  145.0100 C   0  0  0  0  0  3  0  0  0  0  0  0
  189.1850  175.5380  143.2500 C   0  0  0  0  0  0  0  0  0  0  0  0
  184.3450  178.6420  140.5610 F   0  0  0  0  0  0  0  0  0  0  0  0
  188.0190  176.1590  146.6170 N   0  0  0  0  0  0  0  0  0  0  0  0
  183.3610  179.0810  145.9760 O   0  0  0  0  0  1  0  0  0  0  0  0
  188.8430  175.7960  141.9640 N   0  0  0  0  0  0  0  0  0  0  0  0
  188.3820  176.0060  144.2970 C   0  0  0  0  0  0  0  0  0  0  0  0
  190.3730  174.7940  143.5400 N   0  0  0  0  0  2  0  0  0  0  0  0
  185.7360  177.7200  142.2610 C   0  0  0  0  0  3  0  0  0  0  0  0
  184.9830  178.0250  147.4120 C   0  0  0  0  0  3  0  0  0  0  0  0
  187.7310  176.4990  141.6400 C   0  0  0  0  0  0  0  0  0  0  0  0
  187.4390  176.7250  140.2910 C   0  0  0  0  0  3  0  0  0  0  0  0
  188.7410  175.7410  145.5810 N   0  0  0  0  0  0  0  0  0  0  0  0
  186.8810  176.8730  146.4440 C   0  0  0  0  0  0  0  0  0  0  0  0
  186.1580  177.2880  147.5670 C   0  0  0  0  0  3  0  0  0  0  0  0
  190.9060  172.9480  142.2100 O   0  0  0  0  0  1  0  0  0  0  0  0
  191.2530  174.2680  142.5050 C   0  0  2  0  0  3  0  0  0  0  0  0
  193.4480  175.5810  145.5360 C   0  0  1  0  0  3  0  0  0  0  0  0
  193.0370  173.5130  144.1890 C   0  0  0  0  0  2  0  0  0  0  0  0
  193.6400  176.3530  142.1010 O   0  0  0  0  0  0  0  0  0  0  0  0
  193.1740  176.2210  146.7430 O   0  0  0  0  0  1  0  0  0  0  0  0
  192.6900  174.2590  145.4780 C   0  0  0  0  0  2  0  0  0  0  0  0
  193.1930  175.7630  143.0710 C   0  0  0  0  0  0  0  0  0  0  0  0
  192.7210  174.3400  142.9330 C   0  0  2  0  0  3  0  0  0  0  0  0
  193.0390  176.4850  144.3780 C   0  0  0  0  0  2  0  0  0  0  0  0
  1 15  1  0  0  0  0
  2 13  2  0  0  0  0
  2  3  1  0  0  0  0
  3 20  1  0  0  0  0
  4 16  2  0  0  0  0
  5  2  1  0  0  0  0
  6 18  1  0  0  0  0
  6  1  2  0  0  0  0
  7  3  2  0  0  0  0
  7  4  1  0  0  0  0
  8 14  1  0  0  0  0
  8 13  1  0  0  0  0
  9  1  1  0  0  0  0
 11  4  1  0  0  0  0
 12  8  2  0  0  0  0
 13 19  1  0  0  0  0
 15  5  2  0  0  0  0
 16 21  1  0  0  0  0
 17 12  1  0  0  0  0
 17  5  1  0  0  0  0
 18 17  2  0  0  0  0
 19 10  2  0  0  0  0
 20 10  1  0  0  0  0
 20 21  2  0  0  0  0
 23 22  1  1  0  0  0
 23 14  1  0  0  0  0
 24 27  1  1  0  0  0
 25 28  1  0  0  0  0
 26 29  2  0  0  0  0
 28 24  1  0  0  0  0
 29 31  1  0  0  0  0
 30 23  1  1  0  0  0
 30 29  1  0  0  0  0
 30 25  1  0  0  0  0
 31 24  1  0  0  0  0
M  END
>  <MODEL>
3

>  <REMARK>
 VINA RESULT:      -8.8      2.111      4.323
  Name = 
  2 active torsions:
  status: ('A' for Active; 'I' for Inactive)
    1  A    between atoms: C_5  and  N_16
    2  A    between atoms: C_5  and  C_30
                            x       y       z     vdW  Elec       q    Type
                         _______ _______ _______ _____ _____    ______ ____

>  <TORSDO>
F 2

$$$$
=
 OpenBabel11112416543D

 31 35  0  0  1  0  0  0  0  0999 V2000
  186.6900  176.7930  141.1730 C   0  0  0  0  0  0  0  0  0  0  0  0
  187.7130  176.4370  144.7790 C   0  0  0  0  0  0  0  0  0  0  0  0
  186.7330  177.1090  145.5660 C   0  0  0  0  0  0  0  0  0  0  0  0
  184.6790  178.4060  145.8230 C   0  0  0  0  0  0  0  0  0  0  0  0
  187.6900  176.3410  143.3550 C   0  0  0  0  0  0  0  0  0  0  0  0
  187.7240  176.1030  140.5420 C   0  0  0  0  0  3  0  0  0  0  0  0
  185.6150  177.7600  145.0130 C   0  0  0  0  0  3  0  0  0  0  0  0
  189.7890  175.1430  144.7620 C   0  0  0  0  0  0  0  0  0  0  0  0
  185.7000  177.3510  140.4360 F   0  0  0  0  0  0  0  0  0  0  0  0
  187.9400  176.5140  147.5510 N   0  0  0  0  0  0  0  0  0  0  0  0
  183.5860  179.0410  145.2480 O   0  0  0  0  0  1  0  0  0  0  0  0
  189.7360  175.0740  143.4080 N   0  0  0  0  0  0  0  0  0  0  0  0
  188.7900  175.8220  145.4700 C   0  0  0  0  0  0  0  0  0  0  0  0
  190.8720  174.5300  145.4680 N   0  0  0  0  0  2  0  0  0  0  0  0
  186.6760  176.9100  142.5650 C   0  0  0  0  0  3  0  0  0  0  0  0
  184.8420  178.4140  147.2080 C   0  0  0  0  0  3  0  0  0  0  0  0
  188.7330  175.6420  142.6960 C   0  0  0  0  0  0  0  0  0  0  0  0
  188.7420  175.5280  141.3020 C   0  0  0  0  0  3  0  0  0  0  0  0
  188.8600  175.8840  146.8250 N   0  0  0  0  0  0  0  0  0  0  0  0
  186.8810  177.1270  146.9740 C   0  0  0  0  0  0  0  0  0  0  0  0
  185.9420  177.7750  147.7830 C   0  0  0  0  0  3  0  0  0  0  0  0
  191.5790  172.4640  144.6380 O   0  0  0  0  0  1  0  0  0  0  0  0
  191.9440  173.8010  144.8020 C   0  0  2  0  0  3  0  0  0  0  0  0
  195.3790  175.7810  144.7180 C   0  0  1  0  0  3  0  0  0  0  0  0
  193.4750  175.2610  146.2560 C   0  0  0  0  0  2  0  0  0  0  0  0
  194.7670  172.3090  144.7050 O   0  0  0  0  0  0  0  0  0  0  0  0
  195.9340  176.7530  143.8880 O   0  0  0  0  0  1  0  0  0  0  0  0
  194.0590  176.2900  145.2870 C   0  0  0  0  0  2  0  0  0  0  0  0
  194.4370  173.4820  144.7560 C   0  0  0  0  0  0  0  0  0  0  0  0
  193.2530  173.8940  145.5900 C   0  0  2  0  0  3  0  0  0  0  0  0
  195.1610  174.4980  143.9220 C   0  0  0  0  0  2  0  0  0  0  0  0
  1 15  1  0  0  0  0
  2 13  2  0  0  0  0
  2  3  1  0  0  0  0
  3 20  1  0  0  0  0
  4 16  2  0  0  0  0
  5  2  1  0  0  0  0
  6  1  2  0  0  0  0
  6 18  1  0  0  0  0
  7  3  2  0  0  0  0
  7  4  1  0  0  0  0
  8 14  1  0  0  0  0
  8 13  1  0  0  0  0
  9  1  1  0  0  0  0
 11  4  1  0  0  0  0
 12  8  2  0  0  0  0
 13 19  1  0  0  0  0
 15  5  2  0  0  0  0
 16 21  1  0  0  0  0
 17  5  1  0  0  0  0
 17 12  1  0  0  0  0
 18 17  2  0  0  0  0
 19 10  2  0  0  0  0
 20 10  1  0  0  0  0
 20 21  2  0  0  0  0
 23 22  1  1  0  0  0
 23 14  1  0  0  0  0
 24 27  1  6  0  0  0
 24 28  1  0  0  0  0
 26 29  2  0  0  0  0
 28 25  1  0  0  0  0
 29 30  1  0  0  0  0
 30 23  1  6  0  0  0
 30 25  1  0  0  0  0
 31 24  1  0  0  0  0
 31 29  1  0  0  0  0
M  END
>  <MODEL>
4

>  <REMARK>
 VINA RESULT:      -8.8      2.510      4.435
  Name = 
  2 active torsions:
  status: ('A' for Active; 'I' for Inactive)
    1  A    between atoms: C_5  and  N_16
    2  A    between atoms: C_5  and  C_30
                            x       y       z     vdW  Elec       q    Type
                         _______ _______ _______ _____ _____    ______ ____

>  <TORSDO>
F 2

$$$$
=
 OpenBabel11112416543D

 31 35  0  0  1  0  0  0  0  0999 V2000
  190.5990  176.9770  147.2620 C   0  0  0  0  0  0  0  0  0  0  0  0
  187.8900  176.7030  144.6610 C   0  0  0  0  0  0  0  0  0  0  0  0
  186.7830  177.4760  145.1200 C   0  0  0  0  0  0  0  0  0  0  0  0
  185.6790  178.9270  146.7450 C   0  0  0  0  0  0  0  0  0  0  0  0
  189.1230  176.5480  145.3650 C   0  0  0  0  0  0  0  0  0  0  0  0
  191.5910  176.1850  146.6850 C   0  0  0  0  0  3  0  0  0  0  0  0
  186.7880  178.1820  146.3360 C   0  0  0  0  0  3  0  0  0  0  0  0
  188.7940  175.2650  142.9010 C   0  0  0  0  0  0  0  0  0  0  0  0
  190.8180  177.5740  148.4580 F   0  0  0  0  0  0  0  0  0  0  0  0
  185.5660  176.8790  143.1410 N   0  0  0  0  0  0  0  0  0  0  0  0
  185.7130  179.6140  147.9510 O   0  0  0  0  0  1  0  0  0  0  0  0
  189.9510  175.1380  143.5980 N   0  0  0  0  0  0  0  0  0  0  0  0
  187.7480  176.0410  143.4140 C   0  0  0  0  0  0  0  0  0  0  0  0
  188.6380  174.5990  141.6440 N   0  0  0  0  0  2  0  0  0  0  0  0
  189.3790  177.1550  146.6060 C   0  0  0  0  0  3  0  0  0  0  0  0
  184.5390  178.9800  145.9440 C   0  0  0  0  0  3  0  0  0  0  0  0
  190.1440  175.7470  144.7930 C   0  0  0  0  0  0  0  0  0  0  0  0
  191.3640  175.5730  145.4540 C   0  0  0  0  0  3  0  0  0  0  0  0
  186.5940  176.1550  142.7050 N   0  0  0  0  0  0  0  0  0  0  0  0
  185.6170  177.5420  144.3190 C   0  0  0  0  0  0  0  0  0  0  0  0
  184.5090  178.2890  144.7320 C   0  0  0  0  0  3  0  0  0  0  0  0
  189.7630  174.0420  139.6740 O   0  0  0  0  0  1  0  0  0  0  0  0
  189.6840  173.7820  141.0430 C   0  0  2  0  0  3  0  0  0  0  0  0
  191.4620  170.6450  142.6950 C   0  0  1  0  0  3  0  0  0  0  0  0
  189.3070  171.9150  142.7650 C   0  0  0  0  0  2  0  0  0  0  0  0
  190.2500  171.0920  139.4140 O   0  0  0  0  0  0  0  0  0  0  0  0
  192.6750  170.4330  143.3470 O   0  0  0  0  0  1  0  0  0  0  0  0
  190.6720  171.7230  143.4290 C   0  0  0  0  0  2  0  0  0  0  0  0
  190.4430  171.4330  140.5700 C   0  0  0  0  0  0  0  0  0  0  0  0
  189.4300  172.2910  141.2790 C   0  0  2  0  0  3  0  0  0  0  0  0
  191.7270  171.0630  141.2520 C   0  0  0  0  0  2  0  0  0  0  0  0
  1  9  1  0  0  0  0
  2  3  1  0  0  0  0
  2  5  1  0  0  0  0
  3  7  1  0  0  0  0
  4 11  1  0  0  0  0
  5 15  1  0  0  0  0
  6  1  1  0  0  0  0
  7  4  2  0  0  0  0
  8 13  1  0  0  0  0
  8 12  2  0  0  0  0
 10 20  1  0  0  0  0
 12 17  1  0  0  0  0
 13  2  2  0  0  0  0
 14  8  1  0  0  0  0
 15  1  2  0  0  0  0
 16  4  1  0  0  0  0
 17  5  2  0  0  0  0
 17 18  1  0  0  0  0
 18  6  2  0  0  0  0
 19 10  2  0  0  0  0
 19 13  1  0  0  0  0
 20 21  1  0  0  0  0
 20  3  2  0  0  0  0
 21 16  2  0  0  0  0
 23 22  1  6  0  0  0
 23 14  1  0  0  0  0
 24 27  1  1  0  0  0
 24 28  1  0  0  0  0
 25 28  1  0  0  0  0
 26 29  2  0  0  0  0
 29 31  1  0  0  0  0
 29 30  1  0  0  0  0
 30 23  1  1  0  0  0
 30 25  1  0  0  0  0
 31 24  1  0  0  0  0
M  END
>  <MODEL>
5

>  <REMARK>
 VINA RESULT:      -8.6      3.476      4.835
  Name = 
  2 active torsions:
  status: ('A' for Active; 'I' for Inactive)
    1  A    between atoms: C_5  and  N_16
    2  A    between atoms: C_5  and  C_30
                            x       y       z     vdW  Elec       q    Type
                         _______ _______ _______ _____ _____    ______ ____

>  <TORSDO>
F 2

$$$$
=
 OpenBabel11112416543D

 31 35  0  0  1  0  0  0  0  0999 V2000
  185.4580  177.9630  140.9430 C   0  0  0  0  0  0  0  0  0  0  0  0
  187.2810  176.7270  143.9980 C   0  0  0  0  0  0  0  0  0  0  0  0
  186.5390  177.1570  145.1370 C   0  0  0  0  0  0  0  0  0  0  0  0
  184.6570  178.3040  146.1880 C   0  0  0  0  0  0  0  0  0  0  0  0
  186.9210  176.9940  142.6420 C   0  0  0  0  0  0  0  0  0  0  0  0
  186.2880  177.4760  139.9340 C   0  0  0  0  0  3  0  0  0  0  0  0
  185.3510  177.9040  145.0440 C   0  0  0  0  0  3  0  0  0  0  0  0
  189.2420  175.5240  143.1660 C   0  0  0  0  0  0  0  0  0  0  0  0
  184.3460  178.6670  140.6260 F   0  0  0  0  0  0  0  0  0  0  0  0
  188.1530  176.1050  146.5660 N   0  0  0  0  0  0  0  0  0  0  0  0
  183.4860  179.0400  146.0660 O   0  0  0  0  0  1  0  0  0  0  0  0
  188.8710  175.7980  141.8910 N   0  0  0  0  0  0  0  0  0  0  0  0
  188.4630  175.9800  144.2370 C   0  0  0  0  0  0  0  0  0  0  0  0
  190.4350  174.7750  143.4200 N   0  0  0  0  0  2  0  0  0  0  0  0
  185.7740  177.7230  142.2820 C   0  0  0  0  0  3  0  0  0  0  0  0
  185.1390  177.9650  147.4520 C   0  0  0  0  0  3  0  0  0  0  0  0
  187.7530  176.5070  141.6020 C   0  0  0  0  0  0  0  0  0  0  0  0
  187.4310  176.7500  140.2620 C   0  0  0  0  0  3  0  0  0  0  0  0
  188.8510  175.7000  145.5090 N   0  0  0  0  0  0  0  0  0  0  0  0
  187.0130  176.8220  146.4280 C   0  0  0  0  0  0  0  0  0  0  0  0
  186.3150  177.2250  147.5710 C   0  0  0  0  0  3  0  0  0  0  0  0
  190.6790  173.1680  141.7420 O   0  0  0  0  0  1  0  0  0  0  0  0
  191.2910  174.2610  142.3590 C   0  0  2  0  0  3  0  0  0  0  0  0
  195.0300  175.5830  142.3790 C   0  0  1  0  0  3  0  0  0  0  0  0
  193.2270  174.8340  143.9440 C   0  0  0  0  0  2  0  0  0  0  0  0
  193.7270  172.4940  141.2860 O   0  0  0  0  0  0  0  0  0  0  0  0
  195.6830  176.6940  141.8500 O   0  0  0  0  0  1  0  0  0  0  0  0
  193.9060  176.0440  143.3010 C   0  0  0  0  0  2  0  0  0  0  0  0
  193.6490  173.6030  141.7890 C   0  0  0  0  0  0  0  0  0  0  0  0
  192.6650  173.8570  142.9000 C   0  0  2  0  0  3  0  0  0  0  0  0
  194.4750  174.7300  141.2430 C   0  0  0  0  0  2  0  0  0  0  0  0
  1 15  1  0  0  0  0
  2 13  2  0  0  0  0
  2  3  1  0  0  0  0
  3 20  1  0  0  0  0
  4 16  2  0  0  0  0
  5  2  1  0  0  0  0
  6 18  1  0  0  0  0
  6  1  2  0  0  0  0
  7  3  2  0  0  0  0
  7  4  1  0  0  0  0
  8 14  1  0  0  0  0
  8 13  1  0  0  0  0
  9  1  1  0  0  0  0
 11  4  1  0  0  0  0
 12  8  2  0  0  0  0
 13 19  1  0  0  0  0
 15  5  2  0  0  0  0
 16 21  1  0  0  0  0
 17 12  1  0  0  0  0
 17  5  1  0  0  0  0
 18 17  2  0  0  0  0
 19 10  2  0  0  0  0
 20 10  1  0  0  0  0
 20 21  2  0  0  0  0
 23 22  1  1  0  0  0
 23 14  1  0  0  0  0
 24 27  1  6  0  0  0
 24 28  1  0  0  0  0
 26 29  2  0  0  0  0
 28 25  1  0  0  0  0
 29 30  1  0  0  0  0
 30 23  1  6  0  0  0
 30 25  1  0  0  0  0
 31 29  1  0  0  0  0
 31 24  1  0  0  0  0
M  END
>  <MODEL>
6

>  <REMARK>
 VINA RESULT:      -8.4      2.375      4.485
  Name = 
  2 active torsions:
  status: ('A' for Active; 'I' for Inactive)
    1  A    between atoms: C_5  and  N_16
    2  A    between atoms: C_5  and  C_30
                            x       y       z     vdW  Elec       q    Type
                         _______ _______ _______ _____ _____    ______ ____

>  <TORSDO>
F 2

$$$$
=
 OpenBabel11112416543D

 31 35  0  0  1  0  0  0  0  0999 V2000
  190.8110  176.8160  147.4760 C   0  0  0  0  0  0  0  0  0  0  0  0
  188.2330  176.3770  144.7670 C   0  0  0  0  0  0  0  0  0  0  0  0
  187.0960  177.1550  145.1340 C   0  0  0  0  0  0  0  0  0  0  0  0
  185.8990  178.6680  146.6320 C   0  0  0  0  0  0  0  0  0  0  0  0
  189.4330  176.2740  145.5340 C   0  0  0  0  0  0  0  0  0  0  0  0
  191.8390  176.0110  146.9860 C   0  0  0  0  0  3  0  0  0  0  0  0
  187.0350  177.9200  146.3130 C   0  0  0  0  0  3  0  0  0  0  0  0
  189.2380  174.8680  143.1240 C   0  0  0  0  0  0  0  0  0  0  0  0
  190.9660  177.4730  148.6490 F   0  0  0  0  0  0  0  0  0  0  0  0
  185.9830  176.4450  143.1310 N   0  0  0  0  0  0  0  0  0  0  0  0
  185.8670  179.4130  147.8030 O   0  0  0  0  0  1  0  0  0  0  0  0
  190.3610  174.7920  143.8790 N   0  0  0  0  0  0  0  0  0  0  0  0
  188.1580  175.6530  143.5480 C   0  0  0  0  0  0  0  0  0  0  0  0
  189.1490  174.1390  141.8960 N   0  0  0  0  0  2  0  0  0  0  0  0
  189.6220  176.9440  146.7550 C   0  0  0  0  0  3  0  0  0  0  0  0
  184.7980  178.6660  145.7760 C   0  0  0  0  0  3  0  0  0  0  0  0
  190.4890  175.4600  145.0510 C   0  0  0  0  0  0  0  0  0  0  0  0
  191.6780  175.3360  145.7770 C   0  0  0  0  0  3  0  0  0  0  0  0
  187.0390  175.7160  142.7810 N   0  0  0  0  0  0  0  0  0  0  0  0
  185.9690  177.1660  144.2770 C   0  0  0  0  0  0  0  0  0  0  0  0
  184.8340  177.9160  144.6000 C   0  0  0  0  0  3  0  0  0  0  0  0
  190.9980  174.0340  140.4710 O   0  0  0  0  0  1  0  0  0  0  0  0
  190.2320  173.3090  141.3850 C   0  0  2  0  0  3  0  0  0  0  0  0
  191.1450  170.8300  138.4270 C   0  0  1  0  0  3  0  0  0  0  0  0
  190.6270  170.8240  140.8750 C   0  0  0  0  0  2  0  0  0  0  0  0
  188.1910  172.6660  139.0130 O   0  0  0  0  0  0  0  0  0  0  0  0
  192.1680  170.7590  137.4840 O   0  0  0  0  0  1  0  0  0  0  0  0
  191.7430  170.8190  139.8290 C   0  0  0  0  0  2  0  0  0  0  0  0
  189.3130  172.2720  139.2880 C   0  0  0  0  0  0  0  0  0  0  0  0
  189.6940  172.0360  140.7250 C   0  0  2  0  0  3  0  0  0  0  0  0
  190.3320  172.1010  138.2010 C   0  0  0  0  0  2  0  0  0  0  0  0
  1  9  1  0  0  0  0
  2  3  1  0  0  0  0
  2  5  1  0  0  0  0
  3  7  1  0  0  0  0
  4 11  1  0  0  0  0
  5 15  1  0  0  0  0
  6  1  1  0  0  0  0
  7  4  2  0  0  0  0
  8 13  1  0  0  0  0
  8 12  2  0  0  0  0
 10 20  1  0  0  0  0
 12 17  1  0  0  0  0
 13  2  2  0  0  0  0
 14  8  1  0  0  0  0
 15  1  2  0  0  0  0
 16  4  1  0  0  0  0
 17  5  2  0  0  0  0
 17 18  1  0  0  0  0
 18  6  2  0  0  0  0
 19 10  2  0  0  0  0
 19 13  1  0  0  0  0
 20 21  1  0  0  0  0
 20  3  2  0  0  0  0
 21 16  2  0  0  0  0
 23 22  1  6  0  0  0
 23 14  1  0  0  0  0
 24 27  1  6  0  0  0
 24 28  1  0  0  0  0
 26 29  2  0  0  0  0
 28 25  1  0  0  0  0
 29 30  1  0  0  0  0
 30 25  1  0  0  0  0
 30 23  1  6  0  0  0
 31 24  1  0  0  0  0
 31 29  1  0  0  0  0
M  END
>  <MODEL>
7

>  <REMARK>
 VINA RESULT:      -8.3      3.999      5.546
  Name = 
  2 active torsions:
  status: ('A' for Active; 'I' for Inactive)
    1  A    between atoms: C_5  and  N_16
    2  A    between atoms: C_5  and  C_30
                            x       y       z     vdW  Elec       q    Type
                         _______ _______ _______ _____ _____    ______ ____

>  <TORSDO>
F 2

$$$$
=
 OpenBabel11112416543D

 31 35  0  0  1  0  0  0  0  0999 V2000
  188.5320  174.8590  140.8700 C   0  0  0  0  0  0  0  0  0  0  0  0
  189.3300  175.6680  144.4600 C   0  0  0  0  0  0  0  0  0  0  0  0
  188.2220  176.3950  144.9870 C   0  0  0  0  0  0  0  0  0  0  0  0
  186.0160  177.4230  144.7900 C   0  0  0  0  0  0  0  0  0  0  0  0
  189.4200  175.1750  143.1230 C   0  0  0  0  0  0  0  0  0  0  0  0
  189.6830  174.1660  140.5000 C   0  0  0  0  0  3  0  0  0  0  0  0
  187.0780  176.7080  144.2320 C   0  0  0  0  0  3  0  0  0  0  0  0
  191.5420  174.7130  144.8860 C   0  0  0  0  0  0  0  0  0  0  0  0
  187.5370  175.0490  139.9710 F   0  0  0  0  0  0  0  0  0  0  0  0
  189.3470  176.5480  147.1000 N   0  0  0  0  0  0  0  0  0  0  0  0
  184.8980  177.7180  144.0200 O   0  0  0  0  0  1  0  0  0  0  0  0
  191.5940  174.2620  143.6080 N   0  0  0  0  0  0  0  0  0  0  0  0
  190.4200  175.4220  145.3350 C   0  0  0  0  0  0  0  0  0  0  0  0
  192.6370  174.4750  145.7750 N   0  0  0  0  0  2  0  0  0  0  0  0
  188.4040  175.3570  142.1690 C   0  0  0  0  0  3  0  0  0  0  0  0
  186.0770  177.8400  146.1190 C   0  0  0  0  0  3  0  0  0  0  0  0
  190.5840  174.4670  142.7290 C   0  0  0  0  0  0  0  0  0  0  0  0
  190.7060  173.9700  141.4270 C   0  0  0  0  0  3  0  0  0  0  0  0
  190.3850  175.8700  146.6160 N   0  0  0  0  0  0  0  0  0  0  0  0
  188.2660  176.8260  146.3340 C   0  0  0  0  0  0  0  0  0  0  0  0
  187.2010  177.5420  146.8910 C   0  0  0  0  0  3  0  0  0  0  0  0
  193.8350  172.4800  145.9860 O   0  0  0  0  0  1  0  0  0  0  0  0
  193.8330  173.7400  145.3840 C   0  0  2  0  0  3  0  0  0  0  0  0
  196.4620  176.2170  143.7470 C   0  0  1  0  0  3  0  0  0  0  0  0
  194.9390  176.0310  145.7230 C   0  0  0  0  0  2  0  0  0  0  0  0
  196.9640  173.1090  145.3350 O   0  0  0  0  0  0  0  0  0  0  0  0
  196.6200  176.7910  142.4870 O   0  0  0  0  0  1  0  0  0  0  0  0
  195.0970  176.5960  144.3110 C   0  0  0  0  0  2  0  0  0  0  0  0
  196.2890  174.0510  144.9530 C   0  0  0  0  0  0  0  0  0  0  0  0
  195.1040  174.5040  145.7630 C   0  0  2  0  0  3  0  0  0  0  0  0
  196.5940  174.7010  143.6360 C   0  0  0  0  0  2  0  0  0  0  0  0
  1 15  1  0  0  0  0
  2  3  2  0  0  0  0
  2 13  1  0  0  0  0
  3 20  1  0  0  0  0
  4 16  1  0  0  0  0
  5  2  1  0  0  0  0
  6  1  2  0  0  0  0
  6 18  1  0  0  0  0
  7  4  2  0  0  0  0
  7  3  1  0  0  0  0
  8 13  1  0  0  0  0
  8 14  1  0  0  0  0
  9  1  1  0  0  0  0
 11  4  1  0  0  0  0
 12  8  2  0  0  0  0
 13 19  2  0  0  0  0
 15  5  2  0  0  0  0
 16 21  2  0  0  0  0
 17  5  1  0  0  0  0
 17 12  1  0  0  0  0
 18 17  2  0  0  0  0
 19 10  1  0  0  0  0
 20 21  1  0  0  0  0
 20 10  2  0  0  0  0
 23 14  1  0  0  0  0
 23 22  1  1  0  0  0
 24 27  1  6  0  0  0
 24 28  1  0  0  0  0
 25 30  1  0  0  0  0
 28 25  1  0  0  0  0
 29 26  2  0  0  0  0
 29 30  1  0  0  0  0
 30 23  1  6  0  0  0
 31 24  1  0  0  0  0
 31 29  1  0  0  0  0
M  END
>  <MODEL>
8

>  <REMARK>
 VINA RESULT:      -8.1      3.244      5.221
  Name = 
  2 active torsions:
  status: ('A' for Active; 'I' for Inactive)
    1  A    between atoms: C_5  and  N_16
    2  A    between atoms: C_5  and  C_30
                            x       y       z     vdW  Elec       q    Type
                         _______ _______ _______ _____ _____    ______ ____

>  <TORSDO>
F 2

$$$$
=
 OpenBabel11112416543D

 31 35  0  0  1  0  0  0  0  0999 V2000
  186.8880  176.7780  139.5590 C   0  0  0  0  0  0  0  0  0  0  0  0
  188.7330  174.8480  142.2140 C   0  0  0  0  0  0  0  0  0  0  0  0
  189.2020  173.6430  141.6130 C   0  0  0  0  0  0  0  0  0  0  0  0
  189.4520  172.1230  139.7180 C   0  0  0  0  0  0  0  0  0  0  0  0
  187.9830  175.8580  141.5390 C   0  0  0  0  0  0  0  0  0  0  0  0
  186.4960  177.9030  140.2840 C   0  0  0  0  0  3  0  0  0  0  0  0
  188.9730  173.3150  140.2650 C   0  0  0  0  0  3  0  0  0  0  0  0
  188.6090  176.2120  144.2410 C   0  0  0  0  0  0  0  0  0  0  0  0
  186.5550  176.6650  138.2510 F   0  0  0  0  0  0  0  0  0  0  0  0
  190.1810  172.9980  143.7060 N   0  0  0  0  0  0  0  0  0  0  0  0
  189.2100  171.8260  138.3840 O   0  0  0  0  0  1  0  0  0  0  0  0
  187.8960  177.1490  143.5690 N   0  0  0  0  0  0  0  0  0  0  0  0
  189.0370  175.0510  143.5850 C   0  0  0  0  0  0  0  0  0  0  0  0
  188.9180  176.4030  145.6250 N   0  0  0  0  0  2  0  0  0  0  0  0
  187.6230  175.7680  140.1830 C   0  0  0  0  0  3  0  0  0  0  0  0
  190.1720  171.2310  140.5120 C   0  0  0  0  0  3  0  0  0  0  0  0
  187.5770  177.0100  142.2590 C   0  0  0  0  0  0  0  0  0  0  0  0
  186.8410  178.0190  141.6300 C   0  0  0  0  0  3  0  0  0  0  0  0
  189.7470  174.1200  144.2750 N   0  0  0  0  0  0  0  0  0  0  0  0
  189.9360  172.7260  142.4030 C   0  0  0  0  0  0  0  0  0  0  0  0
  190.4140  171.5320  141.8530 C   0  0  0  0  0  3  0  0  0  0  0  0
  189.5860  178.0570  147.1340 O   0  0  0  0  0  1  0  0  0  0  0  0
  188.5140  177.5870  146.3730 C   0  0  2  0  0  3  0  0  0  0  0  0
  184.5990  178.2070  146.4960 C   0  0  1  0  0  3  0  0  0  0  0  0
  186.2770  176.3570  146.6410 C   0  0  0  0  0  2  0  0  0  0  0  0
  187.1010  179.0650  148.8280 O   0  0  0  0  0  0  0  0  0  0  0  0
  183.6770  178.8390  145.6650 O   0  0  0  0  0  1  0  0  0  0  0  0
  185.3130  177.1050  145.7200 C   0  0  0  0  0  2  0  0  0  0  0  0
  186.6860  178.5540  147.8010 C   0  0  0  0  0  0  0  0  0  0  0  0
  187.3170  177.2910  147.2800 C   0  0  2  0  0  3  0  0  0  0  0  0
  185.6010  179.2330  147.0160 C   0  0  0  0  0  2  0  0  0  0  0  0
  1 15  2  0  0  0  0
  1  6  1  0  0  0  0
  2 13  1  0  0  0  0
  3  2  2  0  0  0  0
  3 20  1  0  0  0  0
  4  7  2  0  0  0  0
  4 16  1  0  0  0  0
  5  2  1  0  0  0  0
  5 17  2  0  0  0  0
  6 18  2  0  0  0  0
  7  3  1  0  0  0  0
  8 14  1  0  0  0  0
  9  1  1  0  0  0  0
 10 19  1  0  0  0  0
 11  4  1  0  0  0  0
 12  8  2  0  0  0  0
 13  8  1  0  0  0  0
 13 19  2  0  0  0  0
 14 23  1  0  0  0  0
 15  5  1  0  0  0  0
 16 21  2  0  0  0  0
 17 12  1  0  0  0  0
 18 17  1  0  0  0  0
 20 10  2  0  0  0  0
 21 20  1  0  0  0  0
 23 22  1  1  0  0  0
 24 27  1  6  0  0  0
 24 31  1  0  0  0  0
 25 30  1  0  0  0  0
 28 24  1  0  0  0  0
 28 25  1  0  0  0  0
 29 26  2  0  0  0  0
 30 23  1  6  0  0  0
 30 29  1  0  0  0  0
 31 29  1  0  0  0  0
M  END
>  <MODEL>
9

>  <REMARK>
 VINA RESULT:      -8.0      3.771      7.107
  Name = 
  2 active torsions:
  status: ('A' for Active; 'I' for Inactive)
    1  A    between atoms: C_5  and  N_16
    2  A    between atoms: C_5  and  C_30
                            x       y       z     vdW  Elec       q    Type
                         _______ _______ _______ _____ _____    ______ ____

>  <TORSDO>
F 2

$$$$
