=
 OpenBabel11112417353D

 28 32  0  0  1  0  0  0  0  0999 V2000
  189.9880  176.3580  145.4570 C   0  0  0  0  0  0  0  0  0  0  0  0
  189.7100  172.2280  142.6530 O   0  0  0  0  0  0  0  0  0  0  0  0
  184.5700  177.6260  142.3070 O   0  0  0  0  0  0  0  0  0  0  0  0
  192.2280  174.8900  144.6310 C   0  0  0  0  0  3  0  0  0  0  0  0
  186.6130  177.3610  141.1790 N   0  0  0  0  0  0  0  0  0  0  0  0
  188.8810  177.2240  145.9550 C   0  0  0  0  0  2  0  0  0  0  0  0
  187.2750  172.6470  142.7170 O   0  0  0  0  0  0  0  0  0  0  0  0
  188.5720  172.9970  142.0430 S   0  0  0  0  0  0  0  0  0  0  0  0
  188.4850  173.7820  139.3940 C   0  0  0  0  0  0  0  0  0  0  0  0
  188.8800  174.7340  142.1170 C   0  0  1  0  0  3  0  0  0  0  0  0
  185.2560  176.4730  146.2300 O   0  0  0  0  0  1  0  0  0  0  0  0
  187.9860  176.7840  143.0420 C   0  0  1  0  0  3  0  0  0  0  0  0
  188.2950  175.0180  139.7740 N   0  0  0  0  0  0  0  0  0  0  0  0
  188.4740  172.6910  140.3380 N   0  0  0  0  0  2  0  0  0  0  0  0
  186.3970  177.2550  146.0410 C   0  0  2  0  0  3  0  0  0  0  0  0
  189.9100  175.5890  144.2630 C   0  0  0  0  0  0  0  0  0  0  0  0
  185.7950  177.3360  142.3280 C   0  0  0  0  0  0  0  0  0  0  0  0
  188.7640  173.4970  137.9620 C   0  0  0  0  0  1  0  0  0  0  0  0
  186.3690  177.8980  144.6510 C   0  0  0  0  0  2  0  0  0  0  0  0
  191.0510  174.8510  143.8850 C   0  0  0  0  0  3  0  0  0  0  0  0
  191.1780  176.3920  146.1940 C   0  0  0  0  0  3  0  0  0  0  0  0
  192.2930  175.6610  145.7860 C   0  0  0  0  0  3  0  0  0  0  0  0
  187.6420  176.4090  146.2730 C   0  0  0  0  0  2  0  0  0  0  0  0
  187.9160  176.8080  141.4930 C   0  0  1  0  0  3  0  0  0  0  0  0
  186.5190  176.8730  143.5330 C   0  0  2  0  0  3  0  0  0  0  0  0
  187.9270  175.3410  141.1480 C   0  0  2  0  0  3  0  0  0  0  0  0
  186.1390  177.6270  139.8300 C   0  0  0  0  0  1  0  0  0  0  0  0
  188.6200  175.4340  143.4490 C   0  0  2  0  0  3  0  0  0  0  0  0
  1  6  1  0  0  0  0
  1 21  1  0  0  0  0
  3 17  2  0  0  0  0
  4 22  1  0  0  0  0
  5 24  1  0  0  0  0
  5 17  1  0  0  0  0
  6 23  1  0  0  0  0
  8  2  2  0  0  0  0
  8  7  2  0  0  0  0
  9 13  2  0  0  0  0
  9 14  1  0  0  0  0
 10  8  1  1  0  0  0
 10 28  1  0  0  0  0
 12 28  1  0  0  0  0
 12 25  1  0  0  0  0
 13 26  1  0  0  0  0
 14  8  1  0  0  0  0
 15 11  1  0  0  0  0
 15 23  1  0  0  0  0
 16  1  2  0  0  0  0
 17 25  1  0  0  0  0
 18  9  1  0  0  0  0
 19 15  1  0  0  0  0
 20 16  1  0  0  0  0
 20  4  2  0  0  0  0
 22 21  2  0  0  0  0
 24 12  1  0  0  0  0
 25 19  1  0  0  0  0
 26 24  1  0  0  0  0
 26 10  1  0  0  0  0
 27  5  1  0  0  0  0
 28 16  1  0  0  0  0
M  END
>  <MODEL>
1

>  <REMARK>
 VINA RESULT:      -8.4      0.000      0.000
  Name = 
  0 active torsions:
  status: ('A' for Active; 'I' for Inactive)
                            x       y       z     vdW  Elec       q    Type
                         _______ _______ _______ _____ _____    ______ ____

>  <TORSDO>
F 0

$$$$
=
 OpenBabel11112417353D

 28 32  0  0  1  0  0  0  0  0999 V2000
  192.2730  176.0690  144.8510 C   0  0  0  0  0  0  0  0  0  0  0  0
  190.1240  174.0870  140.7940 O   0  0  0  0  0  0  0  0  0  0  0  0
  186.1380  177.0530  146.3620 O   0  0  0  0  0  0  0  0  0  0  0  0
  193.4960  175.9860  142.3310 C   0  0  0  0  0  3  0  0  0  0  0  0
  187.1070  178.0330  144.4600 N   0  0  0  0  0  0  0  0  0  0  0  0
  191.7310  176.1770  146.2350 C   0  0  0  0  0  2  0  0  0  0  0  0
  188.2250  173.6540  142.3160 O   0  0  0  0  0  0  0  0  0  0  0  0
  188.9010  174.6720  141.4400 S   0  0  0  0  0  0  0  0  0  0  0  0
  187.3280  176.6280  140.2800 C   0  0  0  0  0  0  0  0  0  0  0  0
  189.3090  176.1260  142.3540 C   0  0  1  0  0  3  0  0  0  0  0  0
  188.9160  174.3340  147.8040 O   0  0  0  0  0  1  0  0  0  0  0  0
  189.2690  177.0350  144.5970 C   0  0  1  0  0  3  0  0  0  0  0  0
  187.4810  177.3720  141.3430 N   0  0  0  0  0  0  0  0  0  0  0  0
  187.8000  175.2650  140.2370 N   0  0  0  0  0  2  0  0  0  0  0  0
  189.7790  175.4050  147.5670 C   0  0  2  0  0  3  0  0  0  0  0  0
  191.4570  176.0340  143.6860 C   0  0  0  0  0  0  0  0  0  0  0  0
  187.1190  177.1800  145.5830 C   0  0  0  0  0  0  0  0  0  0  0  0
  186.6940  177.2120  139.0700 C   0  0  0  0  0  1  0  0  0  0  0  0
  188.9840  176.6230  147.0860 C   0  0  0  0  0  2  0  0  0  0  0  0
  192.1060  175.9790  142.4350 C   0  0  0  0  0  3  0  0  0  0  0  0
  193.6680  176.0820  144.7320 C   0  0  0  0  0  3  0  0  0  0  0  0
  194.2790  176.0390  143.4790 C   0  0  0  0  0  3  0  0  0  0  0  0
  190.8620  174.9830  146.5840 C   0  0  0  0  0  2  0  0  0  0  0  0
  188.3050  177.8220  143.6720 C   0  0  1  0  0  3  0  0  0  0  0  0
  188.3790  176.4130  145.7020 C   0  0  2  0  0  3  0  0  0  0  0  0
  188.0130  176.8210  142.5850 C   0  0  2  0  0  3  0  0  0  0  0  0
  185.9500  178.7900  144.0090 C   0  0  0  0  0  1  0  0  0  0  0  0
  189.9280  175.9330  143.7360 C   0  0  2  0  0  3  0  0  0  0  0  0
  1  6  1  0  0  0  0
  2  8  2  0  0  0  0
  4 20  2  0  0  0  0
  4 22  1  0  0  0  0
  5 17  1  0  0  0  0
  6 23  1  0  0  0  0
  8  7  2  0  0  0  0
  9 13  2  0  0  0  0
 10  8  1  1  0  0  0
 10 26  1  0  0  0  0
 10 28  1  0  0  0  0
 12 25  1  0  0  0  0
 13 26  1  0  0  0  0
 14  9  1  0  0  0  0
 14  8  1  0  0  0  0
 15 11  1  0  0  0  0
 16 28  1  0  0  0  0
 16  1  2  0  0  0  0
 17 25  1  0  0  0  0
 17  3  2  0  0  0  0
 18  9  1  0  0  0  0
 19 15  1  0  0  0  0
 20 16  1  0  0  0  0
 21  1  1  0  0  0  0
 22 21  2  0  0  0  0
 23 15  1  0  0  0  0
 24  5  1  0  0  0  0
 24 12  1  0  0  0  0
 25 19  1  0  0  0  0
 26 24  1  0  0  0  0
 27  5  1  0  0  0  0
 28 12  1  0  0  0  0
M  END
>  <MODEL>
2

>  <REMARK>
 VINA RESULT:      -8.0      1.830      3.044
  Name = 
  0 active torsions:
  status: ('A' for Active; 'I' for Inactive)
                            x       y       z     vdW  Elec       q    Type
                         _______ _______ _______ _____ _____    ______ ____

>  <TORSDO>
F 0

$$$$
=
 OpenBabel11112417353D

 28 32  0  0  1  0  0  0  0  0999 V2000
  191.5680  176.1990  146.1690 C   0  0  0  0  0  0  0  0  0  0  0  0
  191.3910  171.6230  144.1590 O   0  0  0  0  0  0  0  0  0  0  0  0
  185.9730  176.6450  143.1050 O   0  0  0  0  0  0  0  0  0  0  0  0
  193.8460  174.7030  145.5110 C   0  0  0  0  0  3  0  0  0  0  0  0
  187.9820  176.2700  141.9460 N   0  0  0  0  0  0  0  0  0  0  0  0
  190.4390  177.0910  146.5570 C   0  0  0  0  0  2  0  0  0  0  0  0
  188.9420  171.9420  144.2630 O   0  0  0  0  0  0  0  0  0  0  0  0
  190.1930  172.2210  143.4780 S   0  0  0  0  0  0  0  0  0  0  0  0
  189.9620  172.5130  140.7380 C   0  0  0  0  0  0  0  0  0  0  0  0
  190.4140  173.9540  143.2270 C   0  0  1  0  0  3  0  0  0  0  0  0
  186.8710  176.2460  147.1340 O   0  0  0  0  0  1  0  0  0  0  0  0
  189.4540  176.0960  143.8150 C   0  0  1  0  0  3  0  0  0  0  0  0
  189.7240  173.7880  140.9010 N   0  0  0  0  0  0  0  0  0  0  0  0
  190.0440  171.6100  141.8610 N   0  0  0  0  0  2  0  0  0  0  0  0
  187.9620  177.0300  146.7550 C   0  0  2  0  0  3  0  0  0  0  0  0
  191.4820  175.2240  145.1350 C   0  0  0  0  0  0  0  0  0  0  0  0
  187.2120  176.4170  143.1190 C   0  0  0  0  0  0  0  0  0  0  0  0
  190.1980  171.9870  139.3680 C   0  0  0  0  0  1  0  0  0  0  0  0
  187.8470  177.4110  145.2750 C   0  0  0  0  0  2  0  0  0  0  0  0
  192.6440  174.4810  144.8400 C   0  0  0  0  0  3  0  0  0  0  0  0
  192.7830  176.4160  146.8310 C   0  0  0  0  0  3  0  0  0  0  0  0
  193.9170  175.6720  146.5060 C   0  0  0  0  0  3  0  0  0  0  0  0
  189.2560  176.2940  147.0730 C   0  0  0  0  0  2  0  0  0  0  0  0
  189.3220  175.8390  142.2910 C   0  0  1  0  0  3  0  0  0  0  0  0
  188.0050  176.2100  144.3510 C   0  0  2  0  0  3  0  0  0  0  0  0
  189.3950  174.3360  142.2120 C   0  0  2  0  0  3  0  0  0  0  0  0
  187.4410  176.2690  140.5960 C   0  0  0  0  0  1  0  0  0  0  0  0
  190.1710  174.8700  144.4240 C   0  0  2  0  0  3  0  0  0  0  0  0
  1  6  1  0  0  0  0
  1 21  1  0  0  0  0
  3 17  2  0  0  0  0
  4 22  1  0  0  0  0
  5 24  1  0  0  0  0
  5 17  1  0  0  0  0
  6 23  1  0  0  0  0
  8  2  2  0  0  0  0
  8  7  2  0  0  0  0
  9 13  2  0  0  0  0
  9 14  1  0  0  0  0
 10  8  1  1  0  0  0
 10 28  1  0  0  0  0
 12 25  1  0  0  0  0
 12 28  1  0  0  0  0
 13 26  1  0  0  0  0
 14  8  1  0  0  0  0
 15 23  1  0  0  0  0
 15 11  1  0  0  0  0
 16  1  2  0  0  0  0
 17 25  1  0  0  0  0
 18  9  1  0  0  0  0
 19 15  1  0  0  0  0
 20 16  1  0  0  0  0
 20  4  2  0  0  0  0
 22 21  2  0  0  0  0
 24 12  1  0  0  0  0
 25 19  1  0  0  0  0
 26 24  1  0  0  0  0
 26 10  1  0  0  0  0
 27  5  1  0  0  0  0
 28 16  1  0  0  0  0
M  END
>  <MODEL>
3

>  <REMARK>
 VINA RESULT:      -8.0      1.596      1.992
  Name = 
  0 active torsions:
  status: ('A' for Active; 'I' for Inactive)
                            x       y       z     vdW  Elec       q    Type
                         _______ _______ _______ _____ _____    ______ ____

>  <TORSDO>
F 0

$$$$
=
 OpenBabel11112417353D

 28 32  0  0  1  0  0  0  0  0999 V2000
  187.5240  176.4140  146.4910 C   0  0  0  0  0  0  0  0  0  0  0  0
  186.7350  179.0410  142.3100 O   0  0  0  0  0  0  0  0  0  0  0  0
  192.1650  173.9490  142.8460 O   0  0  0  0  0  0  0  0  0  0  0  0
  185.0200  177.4270  145.7440 C   0  0  0  0  0  3  0  0  0  0  0  0
  189.9000  173.7400  142.2590 N   0  0  0  0  0  0  0  0  0  0  0  0
  188.7960  175.8220  146.9940 C   0  0  0  0  0  2  0  0  0  0  0  0
  189.1480  178.6740  141.9190 O   0  0  0  0  0  0  0  0  0  0  0  0
  187.7710  178.0850  141.7890 S   0  0  0  0  0  0  0  0  0  0  0  0
  187.3210  176.2880  139.7380 C   0  0  0  0  0  0  0  0  0  0  0  0
  187.6630  176.5310  142.6190 C   0  0  1  0  0  3  0  0  0  0  0  0
  192.2940  176.6050  146.0280 O   0  0  0  0  0  1  0  0  0  0  0  0
  188.9450  175.0330  144.0220 C   0  0  1  0  0  3  0  0  0  0  0  0
  187.7150  175.3130  140.5150 N   0  0  0  0  0  0  0  0  0  0  0  0
  187.4410  177.6690  140.1380 N   0  0  0  0  0  2  0  0  0  0  0  0
  191.2240  175.8190  146.4580 C   0  0  2  0  0  3  0  0  0  0  0  0
  187.2480  176.6290  145.1120 C   0  0  0  0  0  0  0  0  0  0  0  0
  190.9550  174.2280  143.0580 C   0  0  0  0  0  0  0  0  0  0  0  0
  186.6910  175.9650  138.4310 C   0  0  0  0  0  1  0  0  0  0  0  0
  190.9930  174.6640  145.4770 C   0  0  0  0  0  2  0  0  0  0  0  0
  185.9830  177.1530  144.7730 C   0  0  0  0  0  3  0  0  0  0  0  0
  186.5470  176.6880  147.4550 C   0  0  0  0  0  3  0  0  0  0  0  0
  185.3010  177.1940  147.0860 C   0  0  0  0  0  3  0  0  0  0  0  0
  189.9890  176.6910  146.6410 C   0  0  0  0  0  2  0  0  0  0  0  0
  188.6570  174.3790  142.6460 C   0  0  1  0  0  3  0  0  0  0  0  0
  190.4870  175.1450  144.1220 C   0  0  2  0  0  3  0  0  0  0  0  0
  188.4210  175.5770  141.7640 C   0  0  2  0  0  3  0  0  0  0  0  0
  190.0730  172.9450  141.0540 C   0  0  0  0  0  1  0  0  0  0  0  0
  188.2920  176.4340  144.0070 C   0  0  2  0  0  3  0  0  0  0  0  0
  1  6  1  0  0  0  0
  1 21  1  0  0  0  0
  3 17  2  0  0  0  0
  4 22  1  0  0  0  0
  5 24  1  0  0  0  0
  5 17  1  0  0  0  0
  8  7  2  0  0  0  0
  8  2  2  0  0  0  0
  9 14  1  0  0  0  0
  9 13  2  0  0  0  0
 10  8  1  6  0  0  0
 10 28  1  0  0  0  0
 11 15  1  0  0  0  0
 12 25  1  0  0  0  0
 13 26  1  0  0  0  0
 14  8  1  0  0  0  0
 15 23  1  0  0  0  0
 16  1  2  0  0  0  0
 17 25  1  0  0  0  0
 18  9  1  0  0  0  0
 19 15  1  0  0  0  0
 20 16  1  0  0  0  0
 20  4  2  0  0  0  0
 22 21  2  0  0  0  0
 23  6  1  0  0  0  0
 24 12  1  0  0  0  0
 25 19  1  0  0  0  0
 26 10  1  0  0  0  0
 26 24  1  0  0  0  0
 27  5  1  0  0  0  0
 28 12  1  0  0  0  0
 28 16  1  0  0  0  0
M  END
>  <MODEL>
4

>  <REMARK>
 VINA RESULT:      -7.9      2.280      4.923
  Name = 
  0 active torsions:
  status: ('A' for Active; 'I' for Inactive)
                            x       y       z     vdW  Elec       q    Type
                         _______ _______ _______ _____ _____    ______ ____

>  <TORSDO>
F 0

$$$$
=
 OpenBabel11112417353D

 28 32  0  0  1  0  0  0  0  0999 V2000
  188.8110  173.6090  142.6080 C   0  0  0  0  0  0  0  0  0  0  0  0
  192.8410  175.5520  144.8410 O   0  0  0  0  0  0  0  0  0  0  0  0
  186.3150  179.1600  144.5690 O   0  0  0  0  0  0  0  0  0  0  0  0
  190.8430  172.0610  143.7640 C   0  0  0  0  0  3  0  0  0  0  0  0
  187.1470  177.5800  146.0950 N   0  0  0  0  0  0  0  0  0  0  0  0
  187.6680  174.3170  141.9650 C   0  0  0  0  0  2  0  0  0  0  0  0
  191.8030  177.7220  144.2720 O   0  0  0  0  0  0  0  0  0  0  0  0
  191.8300  176.5830  145.2530 S   0  0  0  0  0  0  0  0  0  0  0  0
  191.1600  177.1230  147.8800 C   0  0  0  0  0  0  0  0  0  0  0  0
  190.2300  175.8570  145.4280 C   0  0  1  0  0  3  0  0  0  0  0  0
  187.4420  177.8360  140.8050 O   0  0  0  0  0  1  0  0  0  0  0  0
  187.9820  175.9760  144.5410 C   0  0  1  0  0  3  0  0  0  0  0  0
  189.9020  176.9090  147.5960 N   0  0  0  0  0  0  0  0  0  0  0  0
  192.1700  177.1660  146.8520 N   0  0  0  0  0  2  0  0  0  0  0  0
  186.9910  176.6220  141.3240 C   0  0  2  0  0  3  0  0  0  0  0  0
  189.5830  174.1600  143.6690 C   0  0  0  0  0  0  0  0  0  0  0  0
  186.9110  178.0740  144.7950 C   0  0  0  0  0  0  0  0  0  0  0  0
  191.5670  177.2790  149.3010 C   0  0  0  0  0  1  0  0  0  0  0  0
  186.4210  176.8320  142.7310 C   0  0  0  0  0  2  0  0  0  0  0  0
  190.6060  173.3580  144.2170 C   0  0  0  0  0  3  0  0  0  0  0  0
  189.0550  172.3030  142.1660 C   0  0  0  0  0  3  0  0  0  0  0  0
  190.0670  171.5320  142.7380 C   0  0  0  0  0  3  0  0  0  0  0  0
  188.1200  175.6010  141.2940 C   0  0  0  0  0  2  0  0  0  0  0  0
  188.0050  176.4140  146.0280 C   0  0  1  0  0  3  0  0  0  0  0  0
  187.4950  177.2120  143.7440 C   0  0  2  0  0  3  0  0  0  0  0  0
  189.4370  176.8410  146.2150 C   0  0  2  0  0  3  0  0  0  0  0  0
  186.8230  178.2910  147.3220 C   0  0  0  0  0  1  0  0  0  0  0  0
  189.4320  175.6070  144.1510 C   0  0  2  0  0  3  0  0  0  0  0  0
  1 16  1  0  0  0  0
  2  8  2  0  0  0  0
  3 17  2  0  0  0  0
  4 20  1  0  0  0  0
  5 27  1  0  0  0  0
  6  1  1  0  0  0  0
  7  8  2  0  0  0  0
  8 14  1  0  0  0  0
  9 18  1  0  0  0  0
 10  8  1  6  0  0  0
 10 26  1  0  0  0  0
 11 15  1  0  0  0  0
 12 24  1  0  0  0  0
 13  9  2  0  0  0  0
 14  9  1  0  0  0  0
 15 19  1  0  0  0  0
 16 28  1  0  0  0  0
 16 20  2  0  0  0  0
 17  5  1  0  0  0  0
 19 25  1  0  0  0  0
 21  1  2  0  0  0  0
 21 22  1  0  0  0  0
 22  4  2  0  0  0  0
 23 15  1  0  0  0  0
 23  6  1  0  0  0  0
 24  5  1  0  0  0  0
 24 26  1  0  0  0  0
 25 12  1  0  0  0  0
 25 17  1  0  0  0  0
 26 13  1  0  0  0  0
 28 12  1  0  0  0  0
 28 10  1  0  0  0  0
M  END
>  <MODEL>
5

>  <REMARK>
 VINA RESULT:      -7.6      3.352      5.605
  Name = 
  0 active torsions:
  status: ('A' for Active; 'I' for Inactive)
                            x       y       z     vdW  Elec       q    Type
                         _______ _______ _______ _____ _____    ______ ____

>  <TORSDO>
F 0

$$$$
=
 OpenBabel11112417353D

 28 32  0  0  1  0  0  0  0  0999 V2000
  193.7580  176.0010  144.3130 C   0  0  0  0  0  0  0  0  0  0  0  0
  192.2770  171.8340  141.9790 O   0  0  0  0  0  0  0  0  0  0  0  0
  187.5180  176.2180  145.6960 O   0  0  0  0  0  0  0  0  0  0  0  0
  195.0480  174.9410  142.0620 C   0  0  0  0  0  3  0  0  0  0  0  0
  188.2880  176.3000  143.4780 N   0  0  0  0  0  0  0  0  0  0  0  0
  193.1600  176.6640  145.5060 C   0  0  0  0  0  2  0  0  0  0  0  0
  190.4870  171.8120  143.6830 O   0  0  0  0  0  0  0  0  0  0  0  0
  190.9290  172.3750  142.3610 S   0  0  0  0  0  0  0  0  0  0  0  0
  188.9750  173.0800  140.5370 C   0  0  0  0  0  0  0  0  0  0  0  0
  190.9500  174.1400  142.3970 C   0  0  1  0  0  3  0  0  0  0  0  0
  190.8150  175.2820  148.0310 O   0  0  0  0  0  1  0  0  0  0  0  0
  190.6200  176.0140  143.8910 C   0  0  1  0  0  3  0  0  0  0  0  0
  188.9120  174.2700  141.0750 N   0  0  0  0  0  0  0  0  0  0  0  0
  189.7600  172.0240  141.1290 N   0  0  0  0  0  2  0  0  0  0  0  0
  191.4050  176.2510  147.2190 C   0  0  2  0  0  3  0  0  0  0  0  0
  193.0120  175.2070  143.3970 C   0  0  0  0  0  0  0  0  0  0  0  0
  188.4670  176.1520  144.8700 C   0  0  0  0  0  0  0  0  0  0  0  0
  188.2610  172.8220  139.2600 C   0  0  0  0  0  1  0  0  0  0  0  0
  190.3590  176.8530  146.2730 C   0  0  0  0  0  2  0  0  0  0  0  0
  193.6970  174.6780  142.2830 C   0  0  0  0  0  3  0  0  0  0  0  0
  195.1130  176.2610  144.0760 C   0  0  0  0  0  3  0  0  0  0  0  0
  195.7570  175.7340  142.9580 C   0  0  0  0  0  3  0  0  0  0  0  0
  192.5890  175.6470  146.4770 C   0  0  0  0  0  2  0  0  0  0  0  0
  189.5280  175.9960  142.7910 C   0  0  1  0  0  3  0  0  0  0  0  0
  189.8680  175.8500  145.2360 C   0  0  2  0  0  3  0  0  0  0  0  0
  189.5180  174.5490  142.3720 C   0  0  2  0  0  3  0  0  0  0  0  0
  187.0010  176.4510  142.8200 C   0  0  0  0  0  1  0  0  0  0  0  0
  191.5510  174.8080  143.6310 C   0  0  2  0  0  3  0  0  0  0  0  0
  1  6  1  0  0  0  0
  2  8  2  0  0  0  0
  4 20  2  0  0  0  0
  4 22  1  0  0  0  0
  5 17  1  0  0  0  0
  6 23  1  0  0  0  0
  8  7  2  0  0  0  0
  9 13  2  0  0  0  0
  9 14  1  0  0  0  0
 10  8  1  1  0  0  0
 10 28  1  0  0  0  0
 12 25  1  0  0  0  0
 13 26  1  0  0  0  0
 14  8  1  0  0  0  0
 15 11  1  0  0  0  0
 16 28  1  0  0  0  0
 16  1  2  0  0  0  0
 17 25  1  0  0  0  0
 17  3  2  0  0  0  0
 18  9  1  0  0  0  0
 19 15  1  0  0  0  0
 20 16  1  0  0  0  0
 21  1  1  0  0  0  0
 22 21  2  0  0  0  0
 23 15  1  0  0  0  0
 24  5  1  0  0  0  0
 24 12  1  0  0  0  0
 25 19  1  0  0  0  0
 26 10  1  0  0  0  0
 26 24  1  0  0  0  0
 27  5  1  0  0  0  0
 28 12  1  0  0  0  0
M  END
>  <MODEL>
6

>  <REMARK>
 VINA RESULT:      -7.2      2.256      3.566
  Name = 
  0 active torsions:
  status: ('A' for Active; 'I' for Inactive)
                            x       y       z     vdW  Elec       q    Type
                         _______ _______ _______ _____ _____    ______ ____

>  <TORSDO>
F 0

$$$$
=
 OpenBabel11112417353D

 28 32  0  0  1  0  0  0  0  0999 V2000
  188.5690  173.9840  141.7070 C   0  0  0  0  0  0  0  0  0  0  0  0
  193.3850  175.2910  141.3850 O   0  0  0  0  0  0  0  0  0  0  0  0
  189.0180  177.5400  147.0030 O   0  0  0  0  0  0  0  0  0  0  0  0
  190.5210  172.4200  140.4400 C   0  0  0  0  0  3  0  0  0  0  0  0
  190.2960  175.5890  146.7220 N   0  0  0  0  0  0  0  0  0  0  0  0
  187.4450  174.7190  142.3530 C   0  0  0  0  0  2  0  0  0  0  0  0
  192.6730  177.2850  142.6610 O   0  0  0  0  0  0  0  0  0  0  0  0
  193.0880  175.8430  142.7510 S   0  0  0  0  0  0  0  0  0  0  0  0
  194.3450  175.0000  145.0640 C   0  0  0  0  0  0  0  0  0  0  0  0
  191.8540  174.8760  143.5620 C   0  0  1  0  0  3  0  0  0  0  0  0
  187.2340  178.2920  143.3360 O   0  0  0  0  0  1  0  0  0  0  0  0
  189.6290  175.0330  144.5000 C   0  0  1  0  0  3  0  0  0  0  0  0
  193.1790  174.7470  145.5970 N   0  0  0  0  0  0  0  0  0  0  0  0
  194.4650  175.6700  143.7910 N   0  0  0  0  0  2  0  0  0  0  0  0
  186.9840  176.9210  143.4100 C   0  0  2  0  0  3  0  0  0  0  0  0
  189.9260  174.0990  142.1220 C   0  0  0  0  0  0  0  0  0  0  0  0
  189.3960  176.5810  146.2790 C   0  0  0  0  0  0  0  0  0  0  0  0
  195.5770  174.5480  145.7620 C   0  0  0  0  0  1  0  0  0  0  0  0
  187.4830  176.3680  144.7500 C   0  0  0  0  0  2  0  0  0  0  0  0
  190.8830  173.3080  141.4530 C   0  0  0  0  0  3  0  0  0  0  0  0
  188.2190  173.0850  140.6930 C   0  0  0  0  0  3  0  0  0  0  0  0
  189.1870  172.3070  140.0600 C   0  0  0  0  0  3  0  0  0  0  0  0
  187.6130  176.2200  142.2140 C   0  0  0  0  0  2  0  0  0  0  0  0
  190.6690  174.7360  145.6110 C   0  0  1  0  0  3  0  0  0  0  0  0
  189.0030  176.4030  144.8630 C   0  0  2  0  0  3  0  0  0  0  0  0
  191.9470  175.2490  145.0000 C   0  0  2  0  0  3  0  0  0  0  0  0
  190.9650  175.5950  148.0130 C   0  0  0  0  0  1  0  0  0  0  0  0
  190.4000  175.1190  143.1640 C   0  0  2  0  0  3  0  0  0  0  0  0
  1 16  1  0  0  0  0
  1  6  1  0  0  0  0
  2  8  2  0  0  0  0
  4 20  1  0  0  0  0
  5 27  1  0  0  0  0
  7  8  2  0  0  0  0
  8 14  1  0  0  0  0
  9 13  2  0  0  0  0
  9 18  1  0  0  0  0
 10  8  1  6  0  0  0
 10 26  1  0  0  0  0
 11 15  1  0  0  0  0
 12 25  1  0  0  0  0
 12 24  1  0  0  0  0
 14  9  1  0  0  0  0
 15 19  1  0  0  0  0
 16 28  1  0  0  0  0
 17  5  1  0  0  0  0
 17  3  2  0  0  0  0
 19 25  1  0  0  0  0
 20 16  2  0  0  0  0
 21  1  2  0  0  0  0
 22  4  2  0  0  0  0
 22 21  1  0  0  0  0
 23  6  1  0  0  0  0
 23 15  1  0  0  0  0
 24  5  1  0  0  0  0
 25 17  1  0  0  0  0
 26 13  1  0  0  0  0
 26 24  1  0  0  0  0
 28 10  1  0  0  0  0
 28 12  1  0  0  0  0
M  END
>  <MODEL>
7

>  <REMARK>
 VINA RESULT:      -7.1      3.400      5.761
  Name = 
  0 active torsions:
  status: ('A' for Active; 'I' for Inactive)
                            x       y       z     vdW  Elec       q    Type
                         _______ _______ _______ _____ _____    ______ ____

>  <TORSDO>
F 0

$$$$
=
 OpenBabel11112417353D

 28 32  0  0  1  0  0  0  0  0999 V2000
  187.3250  176.5290  142.8560 C   0  0  0  0  0  0  0  0  0  0  0  0
  189.5680  175.9070  147.2820 O   0  0  0  0  0  0  0  0  0  0  0  0
  192.5190  173.3350  140.9280 O   0  0  0  0  0  0  0  0  0  0  0  0
  187.0160  178.2910  145.0140 C   0  0  0  0  0  3  0  0  0  0  0  0
  192.6840  175.4320  141.9740 N   0  0  0  0  0  0  0  0  0  0  0  0
  187.4110  175.6740  141.6380 C   0  0  0  0  0  2  0  0  0  0  0  0
  190.5440  173.8960  146.2250 O   0  0  0  0  0  0  0  0  0  0  0  0
  190.6620  175.3850  146.3940 S   0  0  0  0  0  0  0  0  0  0  0  0
  193.1820  176.5090  146.2260 C   0  0  0  0  0  0  0  0  0  0  0  0
  190.6450  176.2050  144.8300 C   0  0  1  0  0  3  0  0  0  0  0  0
  188.5610  172.1590  141.3150 O   0  0  0  0  0  1  0  0  0  0  0  0
  190.3760  175.7780  142.4640 C   0  0  1  0  0  3  0  0  0  0  0  0
  193.0390  176.6200  144.9320 N   0  0  0  0  0  0  0  0  0  0  0  0
  192.2190  175.8020  147.0350 N   0  0  0  0  0  2  0  0  0  0  0  0
  188.3470  173.4820  140.9280 C   0  0  2  0  0  3  0  0  0  0  0  0
  188.3640  176.6280  143.8230 C   0  0  0  0  0  0  0  0  0  0  0  0
  191.9710  174.3010  141.5220 C   0  0  0  0  0  0  0  0  0  0  0  0
  194.3400  177.1660  146.8880 C   0  0  0  0  0  1  0  0  0  0  0  0
  189.6860  174.1660  140.6280 C   0  0  0  0  0  2  0  0  0  0  0  0
  188.1680  177.5140  144.9030 C   0  0  0  0  0  3  0  0  0  0  0  0
  186.1760  177.3190  142.9760 C   0  0  0  0  0  3  0  0  0  0  0  0
  186.0190  178.1940  144.0500 C   0  0  0  0  0  3  0  0  0  0  0  0
  187.5450  174.2070  142.0010 C   0  0  0  0  0  2  0  0  0  0  0  0
  191.8130  176.2740  142.7680 C   0  0  1  0  0  3  0  0  0  0  0  0
  190.5360  174.3530  141.8790 C   0  0  2  0  0  3  0  0  0  0  0  0
  191.9740  175.9190  144.2240 C   0  0  2  0  0  3  0  0  0  0  0  0
  194.1280  175.5840  141.8990 C   0  0  0  0  0  1  0  0  0  0  0  0
  189.6120  175.7390  143.8070 C   0  0  2  0  0  3  0  0  0  0  0  0
  1 21  2  0  0  0  0
  1 16  1  0  0  0  0
  3 17  2  0  0  0  0
  5 24  1  0  0  0  0
  6 23  1  0  0  0  0
  6  1  1  0  0  0  0
  7  8  2  0  0  0  0
  8 14  1  0  0  0  0
  8  2  2  0  0  0  0
  9 18  1  0  0  0  0
  9 14  1  0  0  0  0
 10  8  1  1  0  0  0
 12 24  1  0  0  0  0
 12 28  1  0  0  0  0
 13  9  2  0  0  0  0
 15 11  1  0  0  0  0
 15 23  1  0  0  0  0
 16 20  2  0  0  0  0
 17 25  1  0  0  0  0
 17  5  1  0  0  0  0
 19 15  1  0  0  0  0
 19 25  1  0  0  0  0
 20  4  1  0  0  0  0
 21 22  1  0  0  0  0
 22  4  2  0  0  0  0
 24 26  1  0  0  0  0
 25 12  1  0  0  0  0
 26 10  1  0  0  0  0
 26 13  1  0  0  0  0
 27  5  1  0  0  0  0
 28 16  1  0  0  0  0
 28 10  1  0  0  0  0
M  END
>  <MODEL>
8

>  <REMARK>
 VINA RESULT:      -7.1      3.151      6.230
  Name = 
  0 active torsions:
  status: ('A' for Active; 'I' for Inactive)
                            x       y       z     vdW  Elec       q    Type
                         _______ _______ _______ _____ _____    ______ ____

>  <TORSDO>
F 0

$$$$
=
 OpenBabel11112417353D

 28 32  0  0  1  0  0  0  0  0999 V2000
  187.8450  176.5800  146.8880 C   0  0  0  0  0  0  0  0  0  0  0  0
  187.5200  177.2490  141.9430 O   0  0  0  0  0  0  0  0  0  0  0  0
  193.0800  173.3840  145.0790 O   0  0  0  0  0  0  0  0  0  0  0  0
  185.4220  176.9460  145.5270 C   0  0  0  0  0  3  0  0  0  0  0  0
  190.9360  172.7230  144.3840 N   0  0  0  0  0  0  0  0  0  0  0  0
  189.0620  176.3720  147.7230 C   0  0  0  0  0  2  0  0  0  0  0  0
  189.9800  177.0150  141.9990 O   0  0  0  0  0  0  0  0  0  0  0  0
  188.6690  176.2810  141.9690 S   0  0  0  0  0  0  0  0  0  0  0  0
  188.6110  173.7840  140.7840 C   0  0  0  0  0  0  0  0  0  0  0  0
  188.5260  175.1770  143.3390 C   0  0  1  0  0  3  0  0  0  0  0  0
  192.6150  177.0760  146.9090 O   0  0  0  0  0  1  0  0  0  0  0  0
  189.6730  174.4960  145.3580 C   0  0  1  0  0  3  0  0  0  0  0  0
  188.9410  173.2420  141.9260 N   0  0  0  0  0  0  0  0  0  0  0  0
  188.6000  175.2160  140.6020 N   0  0  0  0  0  2  0  0  0  0  0  0
  191.5380  176.4140  147.5010 C   0  0  2  0  0  3  0  0  0  0  0  0
  187.7560  176.2040  145.5180 C   0  0  0  0  0  0  0  0  0  0  0  0
  191.8390  173.5940  145.0280 C   0  0  0  0  0  0  0  0  0  0  0  0
  188.1910  172.9090  139.6580 C   0  0  0  0  0  1  0  0  0  0  0  0
  191.5100  174.9490  147.0520 C   0  0  0  0  0  2  0  0  0  0  0  0
  186.5260  176.4160  144.8610 C   0  0  0  0  0  3  0  0  0  0  0  0
  186.7270  177.1070  147.5460 C   0  0  0  0  0  3  0  0  0  0  0  0
  185.5210  177.2910  146.8700 C   0  0  0  0  0  3  0  0  0  0  0  0
  190.2450  177.1520  147.1810 C   0  0  0  0  0  2  0  0  0  0  0  0
  189.6190  173.3270  144.3420 C   0  0  1  0  0  3  0  0  0  0  0  0
  191.1770  174.8010  145.5720 C   0  0  2  0  0  3  0  0  0  0  0  0
  189.4470  174.0490  143.0310 C   0  0  2  0  0  3  0  0  0  0  0  0
  191.3210  171.5410  143.6300 C   0  0  0  0  0  1  0  0  0  0  0  0
  188.9560  175.7010  144.7080 C   0  0  2  0  0  3  0  0  0  0  0  0
  1 21  1  0  0  0  0
  1  6  1  0  0  0  0
  2  8  2  0  0  0  0
  4 22  1  0  0  0  0
  5 17  1  0  0  0  0
  8  7  2  0  0  0  0
  9 13  2  0  0  0  0
 10  8  1  6  0  0  0
 10 28  1  0  0  0  0
 11 15  1  0  0  0  0
 12 25  1  0  0  0  0
 13 26  1  0  0  0  0
 14  9  1  0  0  0  0
 14  8  1  0  0  0  0
 16  1  2  0  0  0  0
 17  3  2  0  0  0  0
 17 25  1  0  0  0  0
 18  9  1  0  0  0  0
 19 15  1  0  0  0  0
 20 16  1  0  0  0  0
 20  4  2  0  0  0  0
 22 21  2  0  0  0  0
 23 15  1  0  0  0  0
 23  6  1  0  0  0  0
 24  5  1  0  0  0  0
 24 12  1  0  0  0  0
 25 19  1  0  0  0  0
 26 10  1  0  0  0  0
 26 24  1  0  0  0  0
 27  5  1  0  0  0  0
 28 12  1  0  0  0  0
 28 16  1  0  0  0  0
M  END
>  <MODEL>
9

>  <REMARK>
 VINA RESULT:      -7.0      2.570      5.170
  Name = 
  0 active torsions:
  status: ('A' for Active; 'I' for Inactive)
                            x       y       z     vdW  Elec       q    Type
                         _______ _______ _______ _____ _____    ______ ____

>  <TORSDO>
F 0

$$$$
