=
 OpenBabel11112416303D

 32 37  0  0  1  0  0  0  0  0999 V2000
  186.3010  176.7720  146.7400 C   0  0  0  0  0  2  0  0  0  0  0  0
  190.8890  175.8860  143.7820 N   0  0  1  0  0  0  0  0  0  0  0  0
  189.7440  173.5780  139.6080 C   0  0  0  0  0  3  0  0  0  0  0  0
  191.0990  173.3790  139.3420 C   0  0  0  0  0  3  0  0  0  0  0  0
  193.2890  176.1160  144.4510 C   0  0  0  0  0  0  0  0  0  0  0  0
  194.7380  175.7440  144.2940 C   0  0  1  0  0  3  0  0  0  0  0  0
  189.1640  176.9750  145.1610 C   0  0  1  0  0  3  0  0  0  0  0  0
  188.5490  175.8050  143.0220 C   0  0  0  0  0  2  0  0  0  0  0  0
  195.8510  173.6730  143.9310 C   0  0  2  0  0  3  0  0  0  0  0  0
  186.7590  177.0360  144.2330 C   0  0  0  0  0  2  0  0  0  0  0  0
  189.3490  174.1280  140.8290 C   0  0  0  0  0  3  0  0  0  0  0  0
  189.8680  175.0260  143.1430 C   0  0  1  0  0  3  0  0  0  0  0  0
  190.3030  174.5060  141.7900 C   0  0  0  0  0  0  0  0  0  0  0  0
  192.6570  174.6130  142.5650 C   0  0  0  0  0  0  0  0  0  0  0  0
  196.2480  174.2630  145.2720 C   0  0  0  0  0  2  0  0  0  0  0  0
  187.7230  176.4150  147.2090 C   0  0  0  0  0  2  0  0  0  0  0  0
  188.0510  176.2310  144.3960 C   0  0  2  0  0  3  0  0  0  0  0  0
  195.3300  175.3640  145.5710 N   0  0  0  0  0  2  0  0  0  0  0  0
  188.8060  177.3210  146.6160 C   0  0  0  0  0  2  0  0  0  0  0  0
  186.2480  177.6970  145.5170 C   0  0  1  0  0  3  0  0  0  0  0  0
  192.0530  173.7200  140.3010 C   0  0  0  0  0  3  0  0  0  0  0  0
  191.6630  174.2710  141.5340 C   0  0  0  0  0  0  0  0  0  0  0  0
  193.9390  174.2590  142.4110 C   0  0  0  0  0  3  0  0  0  0  0  0
  190.4220  176.1150  145.1560 C   0  0  0  0  0  2  0  0  0  0  0  0
  193.0090  177.1520  145.0330 O   0  0  0  0  0  0  0  0  0  0  0  0
  197.0680  173.5790  143.0320 C   0  0  0  0  0  1  0  0  0  0  0  0
  192.1990  175.2060  143.8870 C   0  0  2  0  0  3  0  0  0  0  0  0
  194.9110  174.6210  143.3940 N   0  0  0  0  0  0  0  0  0  0  0  0
  184.8330  178.2010  145.2880 C   0  0  0  0  0  2  0  0  0  0  0  0
  184.7240  178.9550  143.9730 C   0  0  0  0  0  3  0  0  0  0  0  0
  185.2990  180.2200  144.0970 O   0  0  0  0  0  1  0  0  0  0  0  0
  183.3800  179.0930  143.6310 O   0  0  0  0  0  1  0  0  0  0  0  0
  1 16  1  0  0  0  0
  2 27  1  0  0  0  0
  2 24  1  1  0  0  0
  3 11  1  0  0  0  0
  4  3  2  0  0  0  0
  4 21  1  0  0  0  0
  5 25  2  0  0  0  0
  6  5  1  1  0  0  0
  6 18  1  0  0  0  0
  7 24  1  1  0  0  0
  7 19  1  0  0  0  0
  9 26  1  6  0  0  0
  9 15  1  0  0  0  0
 10 17  1  0  0  0  0
 10 20  1  0  0  0  0
 11 13  2  0  0  0  0
 12  8  1  6  0  0  0
 12  2  1  0  0  0  0
 13 12  1  0  0  0  0
 15 18  1  0  0  0  0
 17  8  1  6  0  0  0
 17  7  1  0  0  0  0
 19 16  1  0  0  0  0
 20 29  1  6  0  0  0
 20  1  1  0  0  0  0
 21 22  2  0  0  0  0
 22 13  1  0  0  0  0
 22 14  1  0  0  0  0
 23 14  2  0  0  0  0
 23 28  1  0  0  0  0
 27 14  1  6  0  0  0
 27  5  1  0  0  0  0
 28  9  1  0  0  0  0
 28  6  1  0  0  0  0
 30 31  1  0  0  0  0
 30 29  1  0  0  0  0
 32 30  1  0  0  0  0
M  END
>  <MODEL>
1

>  <REMARK>
 VINA RESULT:      -8.5      0.000      0.000
  Name = 
  2 active torsions:
  status: ('A' for Active; 'I' for Inactive)
    1  A    between atoms: C_20  and  C_29
    2  A    between atoms: C_29  and  C_30
                            x       y       z     vdW  Elec       q    Type
                         _______ _______ _______ _____ _____    ______ ____

>  <TORSDO>
F 2

$$$$
=
 OpenBabel11112416303D

 32 37  0  0  1  0  0  0  0  0999 V2000
  185.6930  179.2010  143.5800 C   0  0  0  0  0  2  0  0  0  0  0  0
  189.3600  175.1720  142.6280 N   0  0  1  0  0  0  0  0  0  0  0  0
  193.7110  176.4160  144.5200 C   0  0  0  0  0  3  0  0  0  0  0  0
  194.3030  175.3220  143.8880 C   0  0  0  0  0  3  0  0  0  0  0  0
  189.1880  173.1810  141.1230 C   0  0  0  0  0  0  0  0  0  0  0  0
  189.8280  172.1170  140.2730 C   0  0  1  0  0  3  0  0  0  0  0  0
  187.2990  176.3640  143.2570 C   0  0  1  0  0  3  0  0  0  0  0  0
  189.5150  177.0200  144.2480 C   0  0  0  0  0  2  0  0  0  0  0  0
  191.6430  172.1420  138.7360 C   0  0  2  0  0  3  0  0  0  0  0  0
  187.4750  178.1600  145.0980 C   0  0  0  0  0  2  0  0  0  0  0  0
  192.3750  176.7290  144.2620 C   0  0  0  0  0  3  0  0  0  0  0  0
  190.1840  176.3270  143.0500 C   0  0  1  0  0  3  0  0  0  0  0  0
  191.6070  175.9390  143.3880 C   0  0  0  0  0  0  0  0  0  0  0  0
  191.4270  174.0690  141.7680 C   0  0  0  0  0  0  0  0  0  0  0  0
  190.3480  171.7950  138.0250 C   0  0  0  0  0  2  0  0  0  0  0  0
  185.8540  178.2840  142.3560 C   0  0  0  0  0  2  0  0  0  0  0  0
  188.1240  177.5120  143.8730 C   0  0  2  0  0  3  0  0  0  0  0  0
  189.2400  172.0770  138.9400 N   0  0  0  0  0  2  0  0  0  0  0  0
  185.9270  176.7960  142.7130 C   0  0  0  0  0  2  0  0  0  0  0  0
  185.9980  178.5260  144.9250 C   0  0  1  0  0  3  0  0  0  0  0  0
  193.5610  174.5500  142.9930 C   0  0  0  0  0  3  0  0  0  0  0  0
  192.2150  174.8600  142.7270 C   0  0  0  0  0  0  0  0  0  0  0  0
  192.0200  173.1370  141.0120 C   0  0  0  0  0  3  0  0  0  0  0  0
  188.1010  175.7370  142.1230 C   0  0  0  0  0  2  0  0  0  0  0  0
  188.0380  173.0190  141.4980 O   0  0  0  0  0  0  0  0  0  0  0  0
  192.6100  170.9790  138.6390 C   0  0  0  0  0  1  0  0  0  0  0  0
  189.9750  174.4340  141.5030 C   0  0  2  0  0  3  0  0  0  0  0  0
  191.2490  172.3460  140.1050 N   0  0  0  0  0  0  0  0  0  0  0  0
  185.5670  179.4160  146.0790 C   0  0  0  0  0  2  0  0  0  0  0  0
  184.8150  178.6200  147.1340 C   0  0  0  0  0  3  0  0  0  0  0  0
  185.7150  178.0340  148.0240 O   0  0  0  0  0  1  0  0  0  0  0  0
  184.0680  177.6210  146.5130 O   0  0  0  0  0  1  0  0  0  0  0  0
  1 20  1  0  0  0  0
  2 24  1  6  0  0  0
  2 12  1  0  0  0  0
  4  3  2  0  0  0  0
  5 25  2  0  0  0  0
  6 18  1  6  0  0  0
  6  5  1  0  0  0  0
  7 24  1  6  0  0  0
  7 17  1  0  0  0  0
  9 26  1  1  0  0  0
  9 28  1  0  0  0  0
 11  3  1  0  0  0  0
 12 13  1  0  0  0  0
 12  8  1  1  0  0  0
 13 11  2  0  0  0  0
 14 22  1  0  0  0  0
 15  9  1  0  0  0  0
 15 18  1  0  0  0  0
 16 19  1  0  0  0  0
 16  1  1  0  0  0  0
 17  8  1  1  0  0  0
 17 10  1  0  0  0  0
 19  7  1  0  0  0  0
 20 10  1  0  0  0  0
 20 29  1  1  0  0  0
 21  4  1  0  0  0  0
 22 21  2  0  0  0  0
 22 13  1  0  0  0  0
 23 14  2  0  0  0  0
 27  5  1  1  0  0  0
 27 14  1  0  0  0  0
 27  2  1  0  0  0  0
 28  6  1  0  0  0  0
 28 23  1  0  0  0  0
 29 30  1  0  0  0  0
 30 31  1  0  0  0  0
 32 30  1  0  0  0  0
M  END
>  <MODEL>
2

>  <REMARK>
 VINA RESULT:      -8.5      2.635      4.853
  Name = 
  2 active torsions:
  status: ('A' for Active; 'I' for Inactive)
    1  A    between atoms: C_20  and  C_29
    2  A    between atoms: C_29  and  C_30
                            x       y       z     vdW  Elec       q    Type
                         _______ _______ _______ _____ _____    ______ ____

>  <TORSDO>
F 2

$$$$
=
 OpenBabel11112416303D

 32 37  0  0  1  0  0  0  0  0999 V2000
  186.3210  178.5300  142.8830 C   0  0  0  0  0  2  0  0  0  0  0  0
  190.0200  174.5370  143.8610 N   0  0  1  0  0  0  0  0  0  0  0  0
  193.8620  176.3990  146.2760 C   0  0  0  0  0  3  0  0  0  0  0  0
  194.5560  175.2020  146.1020 C   0  0  0  0  0  3  0  0  0  0  0  0
  190.1470  172.2180  142.9330 C   0  0  0  0  0  0  0  0  0  0  0  0
  190.9380  170.9950  142.5560 C   0  0  1  0  0  3  0  0  0  0  0  0
  187.8970  175.7710  143.6810 C   0  0  1  0  0  3  0  0  0  0  0  0
  189.8480  176.7480  144.9310 C   0  0  0  0  0  2  0  0  0  0  0  0
  193.0520  170.6880  141.5090 C   0  0  2  0  0  3  0  0  0  0  0  0
  187.6940  177.9910  144.9770 C   0  0  0  0  0  2  0  0  0  0  0  0
  192.6240  176.5810  145.6560 C   0  0  0  0  0  3  0  0  0  0  0  0
  190.7530  175.7940  144.1370 C   0  0  1  0  0  3  0  0  0  0  0  0
  192.0550  175.5620  144.8720 C   0  0  0  0  0  0  0  0  0  0  0  0
  192.2030  173.3290  143.8010 C   0  0  0  0  0  0  0  0  0  0  0  0
  191.9430  170.1170  140.6450 C   0  0  0  0  0  2  0  0  0  0  0  0
  186.7320  177.3320  142.0090 C   0  0  0  0  0  2  0  0  0  0  0  0
  188.5870  177.0710  144.1410 C   0  0  2  0  0  3  0  0  0  0  0  0
  190.6640  170.5860  141.1840 N   0  0  0  0  0  2  0  0  0  0  0  0
  186.6910  175.9930  142.7520 C   0  0  0  0  0  2  0  0  0  0  0  0
  186.3020  178.2420  144.3900 C   0  0  1  0  0  3  0  0  0  0  0  0
  194.0170  174.1960  145.3000 C   0  0  0  0  0  3  0  0  0  0  0  0
  192.7720  174.3730  144.6700 C   0  0  0  0  0  0  0  0  0  0  0  0
  192.9300  172.2560  143.4680 C   0  0  0  0  0  3  0  0  0  0  0  0
  188.9190  174.9020  142.9590 C   0  0  0  0  0  2  0  0  0  0  0  0
  188.9390  172.1140  143.0720 O   0  0  0  0  0  0  0  0  0  0  0  0
  193.9920  169.5780  141.9380 C   0  0  0  0  0  1  0  0  0  0  0  0
  190.8550  173.5560  143.1350 C   0  0  2  0  0  3  0  0  0  0  0  0
  192.3660  171.2260  142.6540 N   0  0  0  0  0  0  0  0  0  0  0  0
  185.6420  179.3840  145.1450 C   0  0  0  0  0  2  0  0  0  0  0  0
  184.7600  178.8630  146.2680 C   0  0  0  0  0  3  0  0  0  0  0  0
  185.4120  179.0020  147.4930 O   0  0  0  0  0  1  0  0  0  0  0  0
  184.4810  177.5150  146.0480 O   0  0  0  0  0  1  0  0  0  0  0  0
  1 20  1  0  0  0  0
  2 24  1  6  0  0  0
  2 12  1  0  0  0  0
  4  3  1  0  0  0  0
  5 25  2  0  0  0  0
  6 18  1  6  0  0  0
  6 28  1  0  0  0  0
  6  5  1  0  0  0  0
  7 19  1  6  0  0  0
  7 17  1  0  0  0  0
  9 26  1  1  0  0  0
  9 28  1  0  0  0  0
 11  3  2  0  0  0  0
 12 13  1  0  0  0  0
 12  8  1  1  0  0  0
 13 11  1  0  0  0  0
 14 22  1  0  0  0  0
 15 18  1  0  0  0  0
 15  9  1  0  0  0  0
 16 19  1  0  0  0  0
 16  1  1  0  0  0  0
 17  8  1  1  0  0  0
 17 10  1  0  0  0  0
 20 10  1  0  0  0  0
 20 29  1  1  0  0  0
 21  4  2  0  0  0  0
 22 13  2  0  0  0  0
 22 21  1  0  0  0  0
 23 14  2  0  0  0  0
 24  7  1  0  0  0  0
 27  5  1  1  0  0  0
 27 14  1  0  0  0  0
 27  2  1  0  0  0  0
 28 23  1  0  0  0  0
 29 30  1  0  0  0  0
 30 31  1  0  0  0  0
 32 30  1  0  0  0  0
M  END
>  <MODEL>
3

>  <REMARK>
 VINA RESULT:      -8.4      2.756      4.571
  Name = 
  2 active torsions:
  status: ('A' for Active; 'I' for Inactive)
    1  A    between atoms: C_20  and  C_29
    2  A    between atoms: C_29  and  C_30
                            x       y       z     vdW  Elec       q    Type
                         _______ _______ _______ _____ _____    ______ ____

>  <TORSDO>
F 2

$$$$
=
 OpenBabel11112416303D

 32 37  0  0  1  0  0  0  0  0999 V2000
  186.0810  178.0330  143.8830 C   0  0  0  0  0  2  0  0  0  0  0  0
  190.8490  175.3430  143.1040 N   0  0  1  0  0  0  0  0  0  0  0  0
  193.9040  176.2820  146.8250 C   0  0  0  0  0  3  0  0  0  0  0  0
  194.9410  175.6510  146.1380 C   0  0  0  0  0  3  0  0  0  0  0  0
  191.7040  174.1660  141.0690 C   0  0  0  0  0  0  0  0  0  0  0  0
  192.8410  173.6600  140.2230 C   0  0  1  0  0  3  0  0  0  0  0  0
  188.4460  175.8540  143.2570 C   0  0  1  0  0  3  0  0  0  0  0  0
  189.9870  176.3410  145.1830 C   0  0  0  0  0  2  0  0  0  0  0  0
  194.9450  174.5860  139.6110 C   0  0  2  0  0  3  0  0  0  0  0  0
  187.5520  176.7160  145.5160 C   0  0  0  0  0  2  0  0  0  0  0  0
  192.6730  176.4800  146.1960 C   0  0  0  0  0  3  0  0  0  0  0  0
  191.1490  176.3180  144.1770 C   0  0  1  0  0  3  0  0  0  0  0  0
  192.4560  176.0300  144.8820 C   0  0  0  0  0  0  0  0  0  0  0  0
  193.3020  175.0100  142.7850 C   0  0  0  0  0  0  0  0  0  0  0  0
  194.0730  174.3890  138.3850 C   0  0  0  0  0  2  0  0  0  0  0  0
  186.8510  177.7480  142.5820 C   0  0  0  0  0  2  0  0  0  0  0  0
  188.6910  176.7410  144.4940 C   0  0  2  0  0  3  0  0  0  0  0  0
  192.7110  174.1000  138.8400 N   0  0  0  0  0  2  0  0  0  0  0  0
  187.2330  176.2750  142.4100 C   0  0  0  0  0  2  0  0  0  0  0  0
  186.1520  176.9070  144.9240 C   0  0  1  0  0  3  0  0  0  0  0  0
  194.7490  175.2290  144.8220 C   0  0  0  0  0  3  0  0  0  0  0  0
  193.5120  175.4280  144.1810 C   0  0  0  0  0  0  0  0  0  0  0  0
  194.3320  174.5760  142.0470 C   0  0  0  0  0  3  0  0  0  0  0  0
  189.6910  175.8820  142.3790 C   0  0  0  0  0  2  0  0  0  0  0  0
  190.5900  173.6990  140.8920 O   0  0  0  0  0  0  0  0  0  0  0  0
  196.1860  173.7220  139.5030 C   0  0  0  0  0  1  0  0  0  0  0  0
  191.9530  175.2410  142.1240 C   0  0  2  0  0  3  0  0  0  0  0  0
  194.1220  174.1380  140.7030 N   0  0  0  0  0  0  0  0  0  0  0  0
  185.1640  177.1580  146.0510 C   0  0  0  0  0  2  0  0  0  0  0  0
  185.0130  178.6450  146.3270 C   0  0  0  0  0  3  0  0  0  0  0  0
  185.3970  178.9310  147.6380 O   0  0  0  0  0  1  0  0  0  0  0  0
  183.6810  179.0140  146.1490 O   0  0  0  0  0  1  0  0  0  0  0  0
  1 20  1  0  0  0  0
  2 24  1  6  0  0  0
  2 12  1  0  0  0  0
  4  3  2  0  0  0  0
  6 18  1  6  0  0  0
  6 28  1  0  0  0  0
  6  5  1  0  0  0  0
  7 24  1  6  0  0  0
  7 17  1  0  0  0  0
  9 26  1  6  0  0  0
  9 28  1  0  0  0  0
 11  3  1  0  0  0  0
 12 13  1  0  0  0  0
 12  8  1  1  0  0  0
 13 11  2  0  0  0  0
 14 22  1  0  0  0  0
 15 18  1  0  0  0  0
 15  9  1  0  0  0  0
 16  1  1  0  0  0  0
 17  8  1  1  0  0  0
 17 10  1  0  0  0  0
 19 16  1  0  0  0  0
 19  7  1  0  0  0  0
 20 10  1  0  0  0  0
 20 29  1  1  0  0  0
 21  4  1  0  0  0  0
 22 21  2  0  0  0  0
 22 13  1  0  0  0  0
 23 14  2  0  0  0  0
 25  5  2  0  0  0  0
 27  5  1  6  0  0  0
 27 14  1  0  0  0  0
 27  2  1  0  0  0  0
 28 23  1  0  0  0  0
 29 30  1  0  0  0  0
 30 31  1  0  0  0  0
 32 30  1  0  0  0  0
M  END
>  <MODEL>
4

>  <REMARK>
 VINA RESULT:      -8.2      2.204      4.289
  Name = 
  2 active torsions:
  status: ('A' for Active; 'I' for Inactive)
    1  A    between atoms: C_20  and  C_29
    2  A    between atoms: C_29  and  C_30
                            x       y       z     vdW  Elec       q    Type
                         _______ _______ _______ _____ _____    ______ ____

>  <TORSDO>
F 2

$$$$
=
 OpenBabel11112416303D

 32 37  0  0  1  0  0  0  0  0999 V2000
  195.3470  175.2480  145.8030 C   0  0  0  0  0  2  0  0  0  0  0  0
  190.1100  175.2470  144.0240 N   0  0  1  0  0  0  0  0  0  0  0  0
  189.9090  173.4150  139.4790 C   0  0  0  0  0  3  0  0  0  0  0  0
  188.5720  173.8000  139.3780 C   0  0  0  0  0  3  0  0  0  0  0  0
  188.0930  176.3580  145.0010 C   0  0  0  0  0  0  0  0  0  0  0  0
  186.7230  176.9620  144.8510 C   0  0  1  0  0  3  0  0  0  0  0  0
  192.1040  174.9540  145.4380 C   0  0  1  0  0  3  0  0  0  0  0  0
  192.0270  173.9980  143.1140 C   0  0  0  0  0  2  0  0  0  0  0  0
  185.7480  178.3870  143.2150 C   0  0  2  0  0  3  0  0  0  0  0  0
  194.0080  173.4770  144.5230 C   0  0  0  0  0  2  0  0  0  0  0  0
  190.6590  173.7910  140.5950 C   0  0  0  0  0  3  0  0  0  0  0  0
  190.9140  175.0110  142.8030 C   0  0  1  0  0  3  0  0  0  0  0  0
  190.0770  174.5370  141.6350 C   0  0  0  0  0  0  0  0  0  0  0  0
  188.1500  175.7850  142.5750 C   0  0  0  0  0  0  0  0  0  0  0  0
  185.8000  179.0820  144.5630 C   0  0  0  0  0  2  0  0  0  0  0  0
  194.2230  176.2690  146.0470 C   0  0  0  0  0  2  0  0  0  0  0  0
  192.9370  174.5250  144.2140 C   0  0  2  0  0  3  0  0  0  0  0  0
  186.6590  178.2900  145.4470 N   0  0  0  0  0  2  0  0  0  0  0  0
  192.9210  175.6350  146.5490 C   0  0  0  0  0  2  0  0  0  0  0  0
  194.8780  173.7870  145.7450 C   0  0  1  0  0  3  0  0  0  0  0  0
  187.9920  174.5690  140.3880 C   0  0  0  0  0  3  0  0  0  0  0  0
  188.7420  174.9540  141.5140 C   0  0  0  0  0  0  0  0  0  0  0  0
  186.9350  176.3230  142.4140 C   0  0  0  0  0  3  0  0  0  0  0  0
  191.0110  175.9100  144.9770 C   0  0  0  0  0  2  0  0  0  0  0  0
  188.4640  176.0160  146.1120 O   0  0  0  0  0  0  0  0  0  0  0  0
  184.3050  178.2170  142.7800 C   0  0  0  0  0  1  0  0  0  0  0  0
  188.9910  176.1830  143.7780 C   0  0  2  0  0  3  0  0  0  0  0  0
  186.3460  177.1010  143.4580 N   0  0  0  0  0  0  0  0  0  0  0  0
  196.0680  172.8430  145.7630 C   0  0  0  0  0  2  0  0  0  0  0  0
  196.7120  172.7450  144.3890 C   0  0  0  0  0  3  0  0  0  0  0  0
  196.9170  171.4080  144.0500 O   0  0  0  0  0  1  0  0  0  0  0  0
  197.9380  173.4080  144.4070 O   0  0  0  0  0  1  0  0  0  0  0  0
  1 16  1  0  0  0  0
  2 24  1  1  0  0  0
  3 11  1  0  0  0  0
  4  3  2  0  0  0  0
  4 21  1  0  0  0  0
  5 25  2  0  0  0  0
  6  5  1  6  0  0  0
  6 18  1  0  0  0  0
  7 24  1  6  0  0  0
  7 19  1  0  0  0  0
  9 26  1  1  0  0  0
  9 28  1  0  0  0  0
  9 15  1  0  0  0  0
 10 20  1  0  0  0  0
 11 13  2  0  0  0  0
 12  8  1  1  0  0  0
 12  2  1  0  0  0  0
 13 12  1  0  0  0  0
 15 18  1  0  0  0  0
 16 19  1  0  0  0  0
 17  8  1  6  0  0  0
 17 10  1  0  0  0  0
 17  7  1  0  0  0  0
 20 29  1  6  0  0  0
 20  1  1  0  0  0  0
 21 22  2  0  0  0  0
 22 13  1  0  0  0  0
 22 14  1  0  0  0  0
 23 14  2  0  0  0  0
 23 28  1  0  0  0  0
 27 14  1  6  0  0  0
 27  2  1  0  0  0  0
 27  5  1  0  0  0  0
 28  6  1  0  0  0  0
 30 32  1  0  0  0  0
 30 29  1  0  0  0  0
 31 30  1  0  0  0  0
M  END
>  <MODEL>
5

>  <REMARK>
 VINA RESULT:      -8.1      2.535      7.904
  Name = 
  2 active torsions:
  status: ('A' for Active; 'I' for Inactive)
    1  A    between atoms: C_20  and  C_29
    2  A    between atoms: C_29  and  C_30
                            x       y       z     vdW  Elec       q    Type
                         _______ _______ _______ _____ _____    ______ ____

>  <TORSDO>
F 2

$$$$
=
 OpenBabel11112416303D

 32 37  0  0  1  0  0  0  0  0999 V2000
  186.4990  177.2970  146.3070 C   0  0  0  0  0  2  0  0  0  0  0  0
  190.4620  174.4770  143.6740 N   0  0  1  0  0  0  0  0  0  0  0  0
  188.6900  172.6660  139.4740 C   0  0  0  0  0  3  0  0  0  0  0  0
  189.8540  171.9160  139.3020 C   0  0  0  0  0  3  0  0  0  0  0  0
  192.7030  173.7290  144.4970 C   0  0  0  0  0  0  0  0  0  0  0  0
  193.8750  172.7880  144.4430 C   0  0  1  0  0  3  0  0  0  0  0  0
  189.2700  176.2370  144.9170 C   0  0  1  0  0  3  0  0  0  0  0  0
  188.3410  175.3320  142.7620 C   0  0  0  0  0  2  0  0  0  0  0  0
  194.0520  170.4290  144.1900 C   0  0  2  0  0  3  0  0  0  0  0  0
  187.1570  177.2400  143.8310 C   0  0  0  0  0  2  0  0  0  0  0  0
  188.4920  173.3810  140.6570 C   0  0  0  0  0  3  0  0  0  0  0  0
  189.2120  174.0860  142.9840 C   0  0  1  0  0  3  0  0  0  0  0  0
  189.4650  173.3750  141.6730 C   0  0  0  0  0  0  0  0  0  0  0  0
  191.6090  172.5390  142.5990 C   0  0  0  0  0  0  0  0  0  0  0  0
  194.5850  170.8610  145.5440 C   0  0  0  0  0  2  0  0  0  0  0  0
  187.6190  176.4070  146.8740 C   0  0  0  0  0  2  0  0  0  0  0  0
  187.9910  175.9840  144.0930 C   0  0  2  0  0  3  0  0  0  0  0  0
  194.1890  172.2540  145.7630 N   0  0  0  0  0  2  0  0  0  0  0  0
  189.0100  176.7620  146.3390 C   0  0  0  0  0  2  0  0  0  0  0  0
  186.8980  178.1080  145.0670 C   0  0  1  0  0  3  0  0  0  0  0  0
  190.8110  171.8750  140.3160 C   0  0  0  0  0  3  0  0  0  0  0  0
  190.6180  172.5910  141.5110 C   0  0  0  0  0  0  0  0  0  0  0  0
  192.6370  171.6830  142.5360 C   0  0  0  0  0  3  0  0  0  0  0  0
  190.0590  174.9360  145.0110 C   0  0  0  0  0  2  0  0  0  0  0  0
  192.8460  174.8120  145.0410 O   0  0  0  0  0  0  0  0  0  0  0  0
  195.1680  169.8040  143.3750 C   0  0  0  0  0  1  0  0  0  0  0  0
  191.3670  173.3240  143.8780 C   0  0  2  0  0  3  0  0  0  0  0  0
  193.6170  171.6550  143.5760 N   0  0  0  0  0  0  0  0  0  0  0  0
  185.8310  179.1390  144.7360 C   0  0  0  0  0  2  0  0  0  0  0  0
  184.4470  178.5110  144.7240 C   0  0  0  0  0  3  0  0  0  0  0  0
  183.8100  178.7790  143.5120 O   0  0  0  0  0  1  0  0  0  0  0  0
  183.6900  179.0410  145.7670 O   0  0  0  0  0  1  0  0  0  0  0  0
  1 16  1  0  0  0  0
  2 27  1  0  0  0  0
  2 24  1  1  0  0  0
  3 11  1  0  0  0  0
  4  3  2  0  0  0  0
  4 21  1  0  0  0  0
  5 25  2  0  0  0  0
  6  5  1  1  0  0  0
  6 18  1  0  0  0  0
  7 24  1  1  0  0  0
  7 19  1  0  0  0  0
  9 26  1  6  0  0  0
  9 15  1  0  0  0  0
 10 17  1  0  0  0  0
 10 20  1  0  0  0  0
 11 13  2  0  0  0  0
 12  8  1  6  0  0  0
 12  2  1  0  0  0  0
 13 12  1  0  0  0  0
 15 18  1  0  0  0  0
 17  8  1  6  0  0  0
 17  7  1  0  0  0  0
 19 16  1  0  0  0  0
 20 29  1  6  0  0  0
 20  1  1  0  0  0  0
 21 22  2  0  0  0  0
 22 13  1  0  0  0  0
 22 14  1  0  0  0  0
 23 14  2  0  0  0  0
 23 28  1  0  0  0  0
 27 14  1  6  0  0  0
 27  5  1  0  0  0  0
 28  9  1  0  0  0  0
 28  6  1  0  0  0  0
 30 29  1  0  0  0  0
 30 32  1  0  0  0  0
 31 30  1  0  0  0  0
M  END
>  <MODEL>
6

>  <REMARK>
 VINA RESULT:      -8.0      1.965      2.131
  Name = 
  2 active torsions:
  status: ('A' for Active; 'I' for Inactive)
    1  A    between atoms: C_20  and  C_29
    2  A    between atoms: C_29  and  C_30
                            x       y       z     vdW  Elec       q    Type
                         _______ _______ _______ _____ _____    ______ ____

>  <TORSDO>
F 2

$$$$
=
 OpenBabel11112416303D

 32 37  0  0  1  0  0  0  0  0999 V2000
  195.4310  175.2170  145.7860 C   0  0  0  0  0  2  0  0  0  0  0  0
  189.9630  175.4970  145.0090 N   0  0  1  0  0  0  0  0  0  0  0  0
  188.9070  174.5240  140.3190 C   0  0  0  0  0  3  0  0  0  0  0  0
  187.5840  174.9100  140.5330 C   0  0  0  0  0  3  0  0  0  0  0  0
  188.1800  176.3930  146.5180 C   0  0  0  0  0  0  0  0  0  0  0  0
  186.8210  177.0020  146.7300 C   0  0  1  0  0  3  0  0  0  0  0  0
  192.1700  174.9680  145.9640 C   0  0  1  0  0  3  0  0  0  0  0  0
  191.6540  174.4510  143.5580 C   0  0  0  0  0  2  0  0  0  0  0  0
  185.6040  178.6940  145.5820 C   0  0  2  0  0  3  0  0  0  0  0  0
  193.8430  173.6990  144.4690 C   0  0  0  0  0  2  0  0  0  0  0  0
  189.8540  174.6970  141.3310 C   0  0  0  0  0  3  0  0  0  0  0  0
  190.5290  175.4940  143.6410 C   0  0  1  0  0  3  0  0  0  0  0  0
  189.4850  175.2350  142.5760 C   0  0  0  0  0  0  0  0  0  0  0  0
  187.7890  176.2730  144.0590 C   0  0  0  0  0  0  0  0  0  0  0  0
  185.9130  179.1310  147.0020 C   0  0  0  0  0  2  0  0  0  0  0  0
  194.3940  176.1670  146.4100 C   0  0  0  0  0  2  0  0  0  0  0  0
  192.7590  174.7770  144.5530 C   0  0  2  0  0  3  0  0  0  0  0  0
  186.8970  178.1990  147.5580 N   0  0  0  0  0  2  0  0  0  0  0  0
  193.1880  175.4410  147.0150 C   0  0  0  0  0  2  0  0  0  0  0  0
  194.9240  173.7880  145.5500 C   0  0  1  0  0  3  0  0  0  0  0  0
  187.2130  175.4760  141.7530 C   0  0  0  0  0  3  0  0  0  0  0  0
  188.1610  175.6550  142.7760 C   0  0  0  0  0  0  0  0  0  0  0  0
  186.5780  176.8210  144.2200 C   0  0  0  0  0  3  0  0  0  0  0  0
  191.0350  175.9820  145.8890 C   0  0  0  0  0  2  0  0  0  0  0  0
  188.7360  175.8570  147.4640 O   0  0  0  0  0  0  0  0  0  0  0  0
  184.1030  178.5940  145.3910 C   0  0  0  0  0  1  0  0  0  0  0  0
  188.8410  176.4520  145.1430 C   0  0  2  0  0  3  0  0  0  0  0  0
  186.2040  177.3900  145.4760 N   0  0  0  0  0  0  0  0  0  0  0  0
  196.0740  172.8660  145.1810 C   0  0  0  0  0  2  0  0  0  0  0  0
  195.7830  171.4320  145.5920 C   0  0  0  0  0  3  0  0  0  0  0  0
  196.8270  170.9350  146.3710 O   0  0  0  0  0  1  0  0  0  0  0  0
  195.6460  170.6440  144.4510 O   0  0  0  0  0  1  0  0  0  0  0  0
  1 16  1  0  0  0  0
  2 27  1  0  0  0  0
  2 24  1  1  0  0  0
  3  4  2  0  0  0  0
  3 11  1  0  0  0  0
  4 21  1  0  0  0  0
  5 25  2  0  0  0  0
  6  5  1  6  0  0  0
  6 18  1  0  0  0  0
  7 24  1  6  0  0  0
  7 19  1  0  0  0  0
  9 26  1  1  0  0  0
  9 15  1  0  0  0  0
 10 17  1  0  0  0  0
 10 20  1  0  0  0  0
 11 13  2  0  0  0  0
 12  8  1  1  0  0  0
 12  2  1  0  0  0  0
 13 22  1  0  0  0  0
 13 12  1  0  0  0  0
 14 23  2  0  0  0  0
 15 18  1  0  0  0  0
 16 19  1  0  0  0  0
 17  8  1  6  0  0  0
 17  7  1  0  0  0  0
 20 29  1  6  0  0  0
 20  1  1  0  0  0  0
 21 22  2  0  0  0  0
 22 14  1  0  0  0  0
 23 28  1  0  0  0  0
 27 14  1  6  0  0  0
 27  5  1  0  0  0  0
 28  9  1  0  0  0  0
 28  6  1  0  0  0  0
 29 30  1  0  0  0  0
 30 31  1  0  0  0  0
 32 30  1  0  0  0  0
M  END
>  <MODEL>
7

>  <REMARK>
 VINA RESULT:      -7.6      2.797      8.060
  Name = 
  2 active torsions:
  status: ('A' for Active; 'I' for Inactive)
    1  A    between atoms: C_20  and  C_29
    2  A    between atoms: C_29  and  C_30
                            x       y       z     vdW  Elec       q    Type
                         _______ _______ _______ _____ _____    ______ ____

>  <TORSDO>
F 2

$$$$
=
 OpenBabel11112416303D

 32 37  0  0  1  0  0  0  0  0999 V2000
  185.9870  178.2910  141.2930 C   0  0  0  0  0  2  0  0  0  0  0  0
  189.6500  175.7500  144.5670 N   0  0  1  0  0  0  0  0  0  0  0  0
  190.2710  178.3490  148.6800 C   0  0  0  0  0  3  0  0  0  0  0  0
  191.3420  177.5300  149.0400 C   0  0  0  0  0  3  0  0  0  0  0  0
  191.1930  173.8470  144.0600 C   0  0  0  0  0  0  0  0  0  0  0  0
  192.4590  173.0780  144.3190 C   0  0  1  0  0  3  0  0  0  0  0  0
  187.7460  176.1670  143.0610 C   0  0  1  0  0  3  0  0  0  0  0  0
  188.0360  177.5100  145.1670 C   0  0  0  0  0  2  0  0  0  0  0  0
  194.6960  173.7430  144.7820 C   0  0  2  0  0  3  0  0  0  0  0  0
  185.9770  177.8810  143.8220 C   0  0  0  0  0  2  0  0  0  0  0  0
  189.6710  178.1980  147.4280 C   0  0  0  0  0  3  0  0  0  0  0  0
  189.5190  177.1070  145.1450 C   0  0  1  0  0  3  0  0  0  0  0  0
  190.1190  177.2130  146.5300 C   0  0  0  0  0  0  0  0  0  0  0  0
  191.7240  175.4240  145.9160 C   0  0  0  0  0  0  0  0  0  0  0  0
  194.6250  172.9930  143.4640 C   0  0  0  0  0  2  0  0  0  0  0  0
  187.2590  177.5050  140.9270 C   0  0  0  0  0  2  0  0  0  0  0  0
  187.4620  177.5120  143.7570 C   0  0  2  0  0  3  0  0  0  0  0  0
  193.2140  172.8680  143.0900 N   0  0  0  0  0  2  0  0  0  0  0  0
  187.3310  176.1220  141.5810 C   0  0  0  0  0  2  0  0  0  0  0  0
  185.2200  177.7320  142.4990 C   0  0  1  0  0  3  0  0  0  0  0  0
  191.8160  176.5710  148.1440 C   0  0  0  0  0  3  0  0  0  0  0  0
  191.2180  176.4150  146.8810 C   0  0  0  0  0  0  0  0  0  0  0  0
  192.8610  174.7610  146.1620 C   0  0  0  0  0  3  0  0  0  0  0  0
  189.2380  175.8680  143.1610 C   0  0  0  0  0  2  0  0  0  0  0  0
  190.2890  173.3000  143.4490 O   0  0  0  0  0  0  0  0  0  0  0  0
  195.5600  172.9750  145.7630 C   0  0  0  0  0  1  0  0  0  0  0  0
  191.0540  175.2840  144.5590 C   0  0  2  0  0  3  0  0  0  0  0  0
  193.3330  173.7750  145.2420 N   0  0  0  0  0  0  0  0  0  0  0  0
  183.8610  178.4010  142.6250 C   0  0  0  0  0  2  0  0  0  0  0  0
  182.9080  177.9160  141.5460 C   0  0  0  0  0  3  0  0  0  0  0  0
  183.2590  178.4650  140.3130 O   0  0  0  0  0  1  0  0  0  0  0  0
  181.6090  178.3050  141.8680 O   0  0  0  0  0  1  0  0  0  0  0  0
  1 20  1  0  0  0  0
  2 24  1  6  0  0  0
  2 12  1  0  0  0  0
  3  4  1  0  0  0  0
  5  6  1  0  0  0  0
  6 18  1  6  0  0  0
  6 28  1  0  0  0  0
  7 19  1  6  0  0  0
  7 24  1  0  0  0  0
  7 17  1  0  0  0  0
  9 28  1  0  0  0  0
  9 26  1  1  0  0  0
 11  3  2  0  0  0  0
 12  8  1  1  0  0  0
 12 13  1  0  0  0  0
 13 22  2  0  0  0  0
 13 11  1  0  0  0  0
 14 23  2  0  0  0  0
 14 22  1  0  0  0  0
 15  9  1  0  0  0  0
 16  1  1  0  0  0  0
 16 19  1  0  0  0  0
 17 10  1  1  0  0  0
 17  8  1  0  0  0  0
 18 15  1  0  0  0  0
 20 29  1  1  0  0  0
 20 10  1  0  0  0  0
 21  4  2  0  0  0  0
 22 21  1  0  0  0  0
 25  5  2  0  0  0  0
 27  5  1  1  0  0  0
 27  2  1  0  0  0  0
 27 14  1  0  0  0  0
 28 23  1  0  0  0  0
 30 32  1  0  0  0  0
 30 29  1  0  0  0  0
 31 30  1  0  0  0  0
M  END
>  <MODEL>
8

>  <REMARK>
 VINA RESULT:      -7.5      2.502      4.755
  Name = 
  2 active torsions:
  status: ('A' for Active; 'I' for Inactive)
    1  A    between atoms: C_20  and  C_29
    2  A    between atoms: C_29  and  C_30
                            x       y       z     vdW  Elec       q    Type
                         _______ _______ _______ _____ _____    ______ ____

>  <TORSDO>
F 2

$$$$
=
 OpenBabel11112416303D

 32 37  0  0  1  0  0  0  0  0999 V2000
  187.7220  177.0730  146.5390 C   0  0  0  0  0  2  0  0  0  0  0  0
  190.9030  175.2860  142.3820 N   0  0  1  0  0  0  0  0  0  0  0  0
  188.1970  172.6720  139.2350 C   0  0  0  0  0  3  0  0  0  0  0  0
  189.3540  172.2760  138.5640 C   0  0  0  0  0  3  0  0  0  0  0  0
  193.3950  175.2910  142.1640 C   0  0  0  0  0  0  0  0  0  0  0  0
  194.6650  174.7260  141.5890 C   0  0  1  0  0  3  0  0  0  0  0  0
  189.8590  176.7340  144.0780 C   0  0  1  0  0  3  0  0  0  0  0  0
  188.4460  175.4100  142.4730 C   0  0  0  0  0  2  0  0  0  0  0  0
  195.4180  172.5040  141.1910 C   0  0  2  0  0  3  0  0  0  0  0  0
  187.2940  176.9860  144.0140 C   0  0  0  0  0  2  0  0  0  0  0  0
  188.2980  173.4040  140.4210 C   0  0  0  0  0  3  0  0  0  0  0  0
  189.6600  174.4920  142.2620 C   0  0  1  0  0  3  0  0  0  0  0  0
  189.5540  173.7690  140.9370 C   0  0  0  0  0  0  0  0  0  0  0  0
  192.0310  173.6710  140.8500 C   0  0  0  0  0  0  0  0  0  0  0  0
  196.3030  173.1910  142.2160 C   0  0  0  0  0  2  0  0  0  0  0  0
  189.1850  176.5980  146.5510 C   0  0  0  0  0  2  0  0  0  0  0  0
  188.4950  176.0510  143.8530 C   0  0  2  0  0  3  0  0  0  0  0  0
  195.6350  174.4260  142.6350 N   0  0  0  0  0  2  0  0  0  0  0  0
  190.0600  177.2880  145.4990 C   0  0  0  0  0  2  0  0  0  0  0  0
  187.3160  177.8500  145.2790 C   0  0  1  0  0  3  0  0  0  0  0  0
  190.6070  172.6040  139.0830 C   0  0  0  0  0  3  0  0  0  0  0  0
  190.7160  173.3390  140.2780 C   0  0  0  0  0  0  0  0  0  0  0  0
  193.1470  173.1450  140.3300 C   0  0  0  0  0  3  0  0  0  0  0  0
  190.9650  175.7290  143.7820 C   0  0  0  0  0  2  0  0  0  0  0  0
  193.4180  176.4140  142.6420 O   0  0  0  0  0  0  0  0  0  0  0  0
  196.2330  172.1570  139.9600 C   0  0  0  0  0  1  0  0  0  0  0  0
  192.1110  174.4650  142.1440 C   0  0  2  0  0  3  0  0  0  0  0  0
  194.4260  173.4940  140.8640 N   0  0  0  0  0  0  0  0  0  0  0  0
  185.9540  178.4960  145.4650 C   0  0  0  0  0  2  0  0  0  0  0  0
  185.4200  178.2570  146.8680 C   0  0  0  0  0  3  0  0  0  0  0  0
  184.0660  177.9270  146.8160 O   0  0  0  0  0  1  0  0  0  0  0  0
  185.5810  179.4160  147.6260 O   0  0  0  0  0  1  0  0  0  0  0  0
  1 16  1  0  0  0  0
  2 24  1  1  0  0  0
  3 11  1  0  0  0  0
  4 21  1  0  0  0  0
  4  3  2  0  0  0  0
  5 25  2  0  0  0  0
  6  5  1  1  0  0  0
  6 18  1  0  0  0  0
  7 24  1  1  0  0  0
  7 19  1  0  0  0  0
  9 26  1  6  0  0  0
  9 15  1  0  0  0  0
 10 20  1  0  0  0  0
 11 13  2  0  0  0  0
 12  2  1  0  0  0  0
 12  8  1  6  0  0  0
 13 12  1  0  0  0  0
 15 18  1  0  0  0  0
 17  8  1  6  0  0  0
 17 10  1  0  0  0  0
 17  7  1  0  0  0  0
 19 16  1  0  0  0  0
 20 29  1  1  0  0  0
 20  1  1  0  0  0  0
 21 22  2  0  0  0  0
 22 14  1  0  0  0  0
 22 13  1  0  0  0  0
 23 14  2  0  0  0  0
 23 28  1  0  0  0  0
 27 14  1  6  0  0  0
 27  5  1  0  0  0  0
 27  2  1  0  0  0  0
 28  9  1  0  0  0  0
 28  6  1  0  0  0  0
 29 30  1  0  0  0  0
 30 32  1  0  0  0  0
 31 30  1  0  0  0  0
M  END
>  <MODEL>
9

>  <REMARK>
 VINA RESULT:      -7.5      1.723      2.287
  Name = 
  2 active torsions:
  status: ('A' for Active; 'I' for Inactive)
    1  A    between atoms: C_20  and  C_29
    2  A    between atoms: C_29  and  C_30
                            x       y       z     vdW  Elec       q    Type
                         _______ _______ _______ _____ _____    ______ ____

>  <TORSDO>
F 2

$$$$
