=
 OpenBabel11112417093D

 37 43  0  0  1  0  0  0  0  0999 V2000
  189.3520  173.9640  140.9740 O   0  0  0  0  0  0  0  0  0  0  0  0
  187.3000  177.3050  143.1020 C   0  0  0  0  0  0  0  0  0  0  0  0
  190.3330  175.5910  145.2780 C   0  0  0  0  0  0  0  0  0  0  0  0
  189.3580  172.8520  140.1190 C   0  0  2  0  0  3  0  0  0  0  0  0
  193.0340  174.8580  142.8760 O   0  0  0  0  0  0  0  0  0  0  0  0
  188.5300  177.1830  145.3430 C   0  0  0  0  0  0  0  0  0  0  0  0
  190.9170  174.5930  144.3460 C   0  0  2  0  0  3  0  0  0  0  0  0
  191.8470  172.9470  139.8640 C   0  0  0  0  0  0  0  0  0  0  0  0
  189.1960  176.1310  144.7570 C   0  0  0  0  0  0  0  0  0  0  0  0
  192.4310  174.7410  144.1540 C   0  0  0  0  0  0  0  0  0  0  0  0
  188.9440  177.6030  146.6170 C   0  0  0  0  0  3  0  0  0  0  0  0
  190.5480  172.8680  139.3330 O   0  0  0  0  0  0  0  0  0  0  0  0
  188.8030  175.5700  143.4720 C   0  0  1  0  0  3  0  0  0  0  0  0
  186.9980  178.4610  142.1720 C   0  0  0  0  0  1  0  0  0  0  0  0
  191.8280  175.2340  147.2370 C   0  0  0  0  0  3  0  0  0  0  0  0
  190.0330  176.9530  147.2400 C   0  0  0  0  0  3  0  0  0  0  0  0
  188.4590  176.6300  142.6020 O   0  0  0  0  0  0  0  0  0  0  0  0
  192.1370  173.1870  141.3250 C   0  0  1  0  0  3  0  0  0  0  0  0
  192.4410  174.6640  141.5920 C   0  0  0  0  0  2  0  0  0  0  0  0
  190.7470  175.9460  146.5600 C   0  0  0  0  0  0  0  0  0  0  0  0
  190.0800  174.8350  143.0590 C   0  0  2  0  0  3  0  0  0  0  0  0
  187.4890  177.9000  144.5320 C   0  0  0  0  0  2  0  0  0  0  0  0
  193.2830  174.6980  145.2130 C   0  0  0  0  0  0  0  0  0  0  0  0
  186.0800  176.3880  143.0880 C   0  0  0  0  0  1  0  0  0  0  0  0
  191.0340  172.6500  142.2360 C   0  0  0  0  0  2  0  0  0  0  0  0
  192.8230  172.8500  139.0760 O   0  0  0  0  0  0  0  0  0  0  0  0
  189.7810  173.5640  142.2610 C   0  0  2  0  0  3  0  0  0  0  0  0
  192.8890  174.6810  146.6470 C   0  0  0  0  0  3  0  0  0  0  0  0
  195.4780  173.5340  145.5180 C   0  0  0  0  0  3  0  0  0  0  0  0
  194.7490  174.6120  144.9900 C   0  0  0  0  0  0  0  0  0  0  0  0
  195.4190  175.5720  144.2120 C   0  0  0  0  0  3  0  0  0  0  0  0
  197.6150  176.6770  143.0260 Cl  0  0  0  0  0  0  0  0  0  0  0  0
  197.5110  174.3970  144.5260 C   0  0  0  0  0  3  0  0  0  0  0  0
  196.7940  175.4670  143.9870 C   0  0  0  0  0  0  0  0  0  0  0  0
  196.8540  173.4290  145.2890 C   0  0  0  0  0  3  0  0  0  0  0  0
  188.1960  174.1390  138.3350 C   0  0  0  0  0  1  0  0  0  0  0  0
  188.1490  172.8970  139.2030 C   0  0  0  0  0  2  0  0  0  0  0  0
  1 27  1  0  0  0  0
  2 22  1  0  0  0  0
  3 20  1  0  0  0  0
  4 37  1  6  0  0  0
  4  1  1  0  0  0  0
  5 10  1  0  0  0  0
  6 11  2  0  0  0  0
  7 10  1  6  0  0  0
  7  3  1  0  0  0  0
  8 18  1  0  0  0  0
  9  3  2  0  0  0  0
  9  6  1  0  0  0  0
 10 23  2  0  0  0  0
 11 16  1  0  0  0  0
 12  8  1  0  0  0  0
 12  4  1  0  0  0  0
 13 17  1  6  0  0  0
 13  9  1  0  0  0  0
 14  2  1  0  0  0  0
 17  2  1  0  0  0  0
 18 19  1  6  0  0  0
 18 25  1  0  0  0  0
 19  5  1  0  0  0  0
 20 15  1  0  0  0  0
 20 16  2  0  0  0  0
 21 13  1  0  0  0  0
 21  7  1  0  0  0  0
 22  6  1  0  0  0  0
 23 28  1  0  0  0  0
 24  2  1  0  0  0  0
 25 27  1  0  0  0  0
 26  8  2  0  0  0  0
 27 21  1  0  0  0  0
 28 15  2  0  0  0  0
 30 23  1  0  0  0  0
 30 29  2  0  0  0  0
 31 30  1  0  0  0  0
 32 34  1  0  0  0  0
 33 35  2  0  0  0  0
 34 31  2  0  0  0  0
 34 33  1  0  0  0  0
 35 29  1  0  0  0  0
 36 37  1  0  0  0  0
M  END
>  <MODEL>
1

>  <REMARK>
 VINA RESULT:      -9.3      0.000      0.000
  Name = 
  2 active torsions:
  status: ('A' for Active; 'I' for Inactive)
    1  A    between atoms: C_4  and  C_37
    2  A    between atoms: C_23  and  C_30
                            x       y       z     vdW  Elec       q    Type
                         _______ _______ _______ _____ _____    ______ ____

>  <TORSDO>
F 2

$$$$
=
 OpenBabel11112417093D

 37 43  0  0  1  0  0  0  0  0999 V2000
  190.2660  176.6970  146.8270 O   0  0  0  0  0  0  0  0  0  0  0  0
  185.9670  177.7860  147.3160 C   0  0  0  0  0  0  0  0  0  0  0  0
  187.0900  177.2500  143.4010 C   0  0  0  0  0  0  0  0  0  0  0  0
  191.6190  176.7830  147.1860 C   0  0  2  0  0  3  0  0  0  0  0  0
  189.4090  174.3840  143.3790 O   0  0  0  0  0  0  0  0  0  0  0  0
  185.3010  177.9530  144.8500 C   0  0  0  0  0  0  0  0  0  0  0  0
  188.5040  176.8090  143.4950 C   0  0  2  0  0  3  0  0  0  0  0  0
  192.1900  174.7220  145.8870 C   0  0  0  0  0  0  0  0  0  0  0  0
  186.6210  177.6350  144.6210 C   0  0  0  0  0  0  0  0  0  0  0  0
  188.7900  175.4970  142.7560 C   0  0  0  0  0  0  0  0  0  0  0  0
  184.4410  178.0490  143.7450 C   0  0  0  0  0  3  0  0  0  0  0  0
  192.2240  175.4980  147.0570 O   0  0  0  0  0  0  0  0  0  0  0  0
  187.6130  177.5790  145.6860 C   0  0  1  0  0  3  0  0  0  0  0  0
  185.3370  177.0670  148.4910 C   0  0  0  0  0  1  0  0  0  0  0  0
  186.8140  177.1880  140.9270 C   0  0  0  0  0  3  0  0  0  0  0  0
  184.9460  177.7990  142.4500 C   0  0  0  0  0  3  0  0  0  0  0  0
  187.0280  176.9650  146.8160 O   0  0  0  0  0  0  0  0  0  0  0  0
  191.3710  175.0800  144.6710 C   0  0  1  0  0  3  0  0  0  0  0  0
  190.0420  174.3200  144.6570 C   0  0  0  0  0  2  0  0  0  0  0  0
  186.2810  177.3790  142.2740 C   0  0  0  0  0  0  0  0  0  0  0  0
  188.7100  176.7350  145.0340 C   0  0  2  0  0  3  0  0  0  0  0  0
  184.8350  178.0500  146.2750 C   0  0  0  0  0  2  0  0  0  0  0  0
  188.5210  175.3630  141.4290 C   0  0  0  0  0  0  0  0  0  0  0  0
  186.5010  179.1160  147.8390 C   0  0  0  0  0  1  0  0  0  0  0  0
  191.1760  176.5880  144.5220 C   0  0  0  0  0  2  0  0  0  0  0  0
  192.8470  173.6480  145.8610 O   0  0  0  0  0  0  0  0  0  0  0  0
  190.1090  177.1520  145.4970 C   0  0  2  0  0  3  0  0  0  0  0  0
  187.7900  176.3450  140.5860 C   0  0  0  0  0  3  0  0  0  0  0  0
  188.1190  173.4010  139.9270 C   0  0  0  0  0  3  0  0  0  0  0  0
  189.0130  174.1760  140.6830 C   0  0  0  0  0  0  0  0  0  0  0  0
  190.3770  173.8400  140.6780 C   0  0  0  0  0  3  0  0  0  0  0  0
  192.5340  172.3260  139.9660 Cl  0  0  0  0  0  0  0  0  0  0  0  0
  189.9340  171.9670  139.2120 C   0  0  0  0  0  3  0  0  0  0  0  0
  190.8330  172.7370  139.9510 C   0  0  0  0  0  0  0  0  0  0  0  0
  188.5760  172.3000  139.1970 C   0  0  0  0  0  3  0  0  0  0  0  0
  190.6990  178.3150  148.9180 C   0  0  0  0  0  1  0  0  0  0  0  0
  191.7430  177.2570  148.6230 C   0  0  0  0  0  2  0  0  0  0  0  0
  1  4  1  0  0  0  0
  2 24  1  0  0  0  0
  2 14  1  0  0  0  0
  3  7  1  0  0  0  0
  3  9  1  0  0  0  0
  4 37  1  1  0  0  0
  5 19  1  0  0  0  0
  6 22  1  0  0  0  0
  7 10  1  6  0  0  0
  7 21  1  0  0  0  0
  8 12  1  0  0  0  0
  9  6  2  0  0  0  0
 10  5  1  0  0  0  0
 11  6  1  0  0  0  0
 12  4  1  0  0  0  0
 13  9  1  6  0  0  0
 13 17  1  0  0  0  0
 15 20  1  0  0  0  0
 16 11  2  0  0  0  0
 17  2  1  0  0  0  0
 18 25  1  1  0  0  0
 18  8  1  0  0  0  0
 19 18  1  0  0  0  0
 20 16  1  0  0  0  0
 20  3  2  0  0  0  0
 21 27  1  0  0  0  0
 21 13  1  0  0  0  0
 22  2  1  0  0  0  0
 23 10  2  0  0  0  0
 25 27  1  0  0  0  0
 26  8  2  0  0  0  0
 27  1  1  0  0  0  0
 28 15  2  0  0  0  0
 28 23  1  0  0  0  0
 29 30  1  0  0  0  0
 30 23  1  0  0  0  0
 31 30  2  0  0  0  0
 33 34  2  0  0  0  0
 34 32  1  0  0  0  0
 34 31  1  0  0  0  0
 35 33  1  0  0  0  0
 35 29  2  0  0  0  0
 37 36  1  0  0  0  0
M  END
>  <MODEL>
2

>  <REMARK>
 VINA RESULT:      -9.1      2.798      6.580
  Name = 
  2 active torsions:
  status: ('A' for Active; 'I' for Inactive)
    1  A    between atoms: C_4  and  C_37
    2  A    between atoms: C_23  and  C_30
                            x       y       z     vdW  Elec       q    Type
                         _______ _______ _______ _____ _____    ______ ____

>  <TORSDO>
F 2

$$$$
=
 OpenBabel11112417093D

 37 43  0  0  1  0  0  0  0  0999 V2000
  194.5690  174.6230  144.3210 O   0  0  0  0  0  0  0  0  0  0  0  0
  194.7950  173.9980  139.9090 C   0  0  0  0  0  0  0  0  0  0  0  0
  190.9610  173.9280  141.3820 C   0  0  0  0  0  0  0  0  0  0  0  0
  195.0570  174.4610  145.6250 C   0  0  2  0  0  3  0  0  0  0  0  0
  190.8080  176.5470  143.9730 O   0  0  0  0  0  0  0  0  0  0  0  0
  192.3170  173.5790  139.4240 C   0  0  0  0  0  0  0  0  0  0  0  0
  191.1300  174.2480  142.8220 C   0  0  2  0  0  3  0  0  0  0  0  0
  193.5780  176.2810  146.5010 C   0  0  0  0  0  0  0  0  0  0  0  0
  192.1710  173.7450  140.7830 C   0  0  0  0  0  0  0  0  0  0  0  0
  190.2680  175.4250  143.2960 C   0  0  0  0  0  0  0  0  0  0  0  0
  191.1590  173.4210  138.6480 C   0  0  0  0  0  3  0  0  0  0  0  0
  194.8310  175.6600  146.3650 O   0  0  0  0  0  0  0  0  0  0  0  0
  193.3080  173.8460  141.6890 C   0  0  1  0  0  3  0  0  0  0  0  0
  195.8150  174.9150  139.2650 C   0  0  0  0  0  1  0  0  0  0  0  0
  188.4830  173.7000  141.3080 C   0  0  0  0  0  3  0  0  0  0  0  0
  189.8940  173.4590  139.2750 C   0  0  0  0  0  3  0  0  0  0  0  0
  194.2990  174.6500  141.0830 O   0  0  0  0  0  0  0  0  0  0  0  0
  192.3450  175.8470  145.7480 C   0  0  1  0  0  3  0  0  0  0  0  0
  192.1210  176.7160  144.5070 C   0  0  0  0  0  2  0  0  0  0  0  0
  189.7900  173.7300  140.6560 C   0  0  0  0  0  0  0  0  0  0  0  0
  192.6620  174.4980  142.9140 C   0  0  2  0  0  3  0  0  0  0  0  0
  193.6960  173.7070  138.8410 C   0  0  0  0  0  2  0  0  0  0  0  0
  188.9160  175.4120  143.1470 C   0  0  0  0  0  0  0  0  0  0  0  0
  195.5190  172.7030  140.2630 C   0  0  0  0  0  1  0  0  0  0  0  0
  192.3600  174.3560  145.4140 C   0  0  0  0  0  2  0  0  0  0  0  0
  193.4840  177.2790  147.2630 O   0  0  0  0  0  0  0  0  0  0  0  0
  193.2940  174.0190  144.2230 C   0  0  2  0  0  3  0  0  0  0  0  0
  188.1340  174.4010  142.3880 C   0  0  0  0  0  3  0  0  0  0  0  0
  187.5550  177.5110  143.0660 C   0  0  0  0  0  3  0  0  0  0  0  0
  188.0810  176.4450  143.8120 C   0  0  0  0  0  0  0  0  0  0  0  0
  187.7640  176.3470  145.1770 C   0  0  0  0  0  3  0  0  0  0  0  0
  186.5800  177.1800  147.4920 Cl  0  0  0  0  0  0  0  0  0  0  0  0
  186.4470  178.3730  145.0390 C   0  0  0  0  0  3  0  0  0  0  0  0
  186.9560  177.3100  145.7880 C   0  0  0  0  0  0  0  0  0  0  0  0
  186.7440  178.4730  143.6770 C   0  0  0  0  0  3  0  0  0  0  0  0
  196.8160  172.7790  146.1380 C   0  0  0  0  0  1  0  0  0  0  0  0
  196.5450  174.1660  145.5890 C   0  0  0  0  0  2  0  0  0  0  0  0
  1  4  1  0  0  0  0
  2 24  1  0  0  0  0
  2 17  1  0  0  0  0
  4 37  1  6  0  0  0
  4 12  1  0  0  0  0
  5 19  1  0  0  0  0
  6  9  2  0  0  0  0
  7  3  1  6  0  0  0
  7 21  1  0  0  0  0
  7 10  1  0  0  0  0
  8 26  2  0  0  0  0
  9  3  1  0  0  0  0
 10  5  1  0  0  0  0
 11 16  2  0  0  0  0
 11  6  1  0  0  0  0
 12  8  1  0  0  0  0
 13  9  1  6  0  0  0
 13 21  1  0  0  0  0
 14  2  1  0  0  0  0
 15 28  2  0  0  0  0
 16 20  1  0  0  0  0
 17 13  1  0  0  0  0
 18 19  1  6  0  0  0
 18  8  1  0  0  0  0
 20 15  1  0  0  0  0
 20  3  2  0  0  0  0
 21 27  1  0  0  0  0
 22  6  1  0  0  0  0
 22  2  1  0  0  0  0
 23 10  2  0  0  0  0
 23 30  1  0  0  0  0
 25 18  1  0  0  0  0
 27  1  1  0  0  0  0
 27 25  1  0  0  0  0
 28 23  1  0  0  0  0
 29 35  2  0  0  0  0
 29 30  1  0  0  0  0
 30 31  2  0  0  0  0
 31 34  1  0  0  0  0
 33 34  2  0  0  0  0
 34 32  1  0  0  0  0
 35 33  1  0  0  0  0
 37 36  1  0  0  0  0
M  END
>  <MODEL>
3

>  <REMARK>
 VINA RESULT:      -9.0      2.776      7.792
  Name = 
  2 active torsions:
  status: ('A' for Active; 'I' for Inactive)
    1  A    between atoms: C_4  and  C_37
    2  A    between atoms: C_23  and  C_30
                            x       y       z     vdW  Elec       q    Type
                         _______ _______ _______ _____ _____    ______ ____

>  <TORSDO>
F 2

$$$$
=
 OpenBabel11112417093D

 37 43  0  0  1  0  0  0  0  0999 V2000
  190.2490  176.5040  145.9770 O   0  0  0  0  0  0  0  0  0  0  0  0
  186.0870  177.6440  147.1090 C   0  0  0  0  0  0  0  0  0  0  0  0
  186.7230  177.5740  143.0510 C   0  0  0  0  0  0  0  0  0  0  0  0
  191.6370  176.5060  146.1780 C   0  0  2  0  0  3  0  0  0  0  0  0
  188.8990  174.6680  142.4020 O   0  0  0  0  0  0  0  0  0  0  0  0
  185.1470  178.1390  144.7800 C   0  0  0  0  0  0  0  0  0  0  0  0
  188.1190  177.0840  142.9200 C   0  0  2  0  0  3  0  0  0  0  0  0
  191.9640  174.6090  144.5780 C   0  0  0  0  0  0  0  0  0  0  0  0
  186.4160  177.8150  144.3570 C   0  0  0  0  0  0  0  0  0  0  0  0
  188.2600  175.8670  141.9980 C   0  0  0  0  0  0  0  0  0  0  0  0
  184.1690  178.3980  143.8070 C   0  0  0  0  0  3  0  0  0  0  0  0
  192.1670  175.2310  145.8220 O   0  0  0  0  0  0  0  0  0  0  0  0
  187.5220  177.5980  145.2800 C   0  0  1  0  0  3  0  0  0  0  0  0
  185.5670  176.8010  148.2550 C   0  0  0  0  0  1  0  0  0  0  0  0
  186.1590  177.8300  140.6400 C   0  0  0  0  0  3  0  0  0  0  0  0
  184.5100  178.2970  142.4400 C   0  0  0  0  0  3  0  0  0  0  0  0
  187.0460  176.8620  146.3890 O   0  0  0  0  0  0  0  0  0  0  0  0
  191.0250  175.1400  143.5230 C   0  0  1  0  0  3  0  0  0  0  0  0
  189.6720  174.4260  143.5770 C   0  0  0  0  0  2  0  0  0  0  0  0
  185.7960  177.8660  142.0540 C   0  0  0  0  0  0  0  0  0  0  0  0
  188.4990  176.8110  144.4030 C   0  0  2  0  0  3  0  0  0  0  0  0
  184.8540  178.0690  146.2520 C   0  0  0  0  0  2  0  0  0  0  0  0
  187.8340  175.9090  140.7070 C   0  0  0  0  0  0  0  0  0  0  0  0
  186.7350  178.8820  147.7210 C   0  0  0  0  0  1  0  0  0  0  0  0
  190.8800  176.6600  143.5830 C   0  0  0  0  0  2  0  0  0  0  0  0
  192.5670  173.5290  144.3440 O   0  0  0  0  0  0  0  0  0  0  0  0
  189.9580  177.1270  144.7400 C   0  0  2  0  0  3  0  0  0  0  0  0
  187.0520  177.0100  140.0840 C   0  0  0  0  0  3  0  0  0  0  0  0
  187.8410  174.9140  138.4100 C   0  0  0  0  0  3  0  0  0  0  0  0
  188.1840  174.8130  139.7680 C   0  0  0  0  0  0  0  0  0  0  0  0
  188.9020  173.6880  140.2070 C   0  0  0  0  0  3  0  0  0  0  0  0
  190.1330  171.2740  139.8750 Cl  0  0  0  0  0  0  0  0  0  0  0  0
  188.8940  172.7790  137.9630 C   0  0  0  0  0  3  0  0  0  0  0  0
  189.2490  172.6740  139.3100 C   0  0  0  0  0  0  0  0  0  0  0  0
  188.1920  173.9010  137.5120 C   0  0  0  0  0  3  0  0  0  0  0  0
  191.5660  175.6010  148.4950 C   0  0  0  0  0  1  0  0  0  0  0  0
  191.9480  176.7910  147.6360 C   0  0  0  0  0  2  0  0  0  0  0  0
  1  4  1  0  0  0  0
  2 24  1  0  0  0  0
  2 14  1  0  0  0  0
  3  9  1  0  0  0  0
  4 37  1  1  0  0  0
  5 19  1  0  0  0  0
  6 22  1  0  0  0  0
  7 10  1  6  0  0  0
  7  3  1  0  0  0  0
  7 21  1  0  0  0  0
  8 12  1  0  0  0  0
  9  6  2  0  0  0  0
 10  5  1  0  0  0  0
 11  6  1  0  0  0  0
 12  4  1  0  0  0  0
 13  9  1  6  0  0  0
 13 17  1  0  0  0  0
 15 20  1  0  0  0  0
 16 11  2  0  0  0  0
 17  2  1  0  0  0  0
 18 19  1  1  0  0  0
 18 25  1  0  0  0  0
 18  8  1  0  0  0  0
 20 16  1  0  0  0  0
 20  3  2  0  0  0  0
 21 27  1  0  0  0  0
 21 13  1  0  0  0  0
 22  2  1  0  0  0  0
 23 10  2  0  0  0  0
 25 27  1  0  0  0  0
 26  8  2  0  0  0  0
 27  1  1  0  0  0  0
 28 15  2  0  0  0  0
 28 23  1  0  0  0  0
 29 30  1  0  0  0  0
 30 31  2  0  0  0  0
 30 23  1  0  0  0  0
 33 34  2  0  0  0  0
 34 32  1  0  0  0  0
 34 31  1  0  0  0  0
 35 33  1  0  0  0  0
 35 29  2  0  0  0  0
 37 36  1  0  0  0  0
M  END
>  <MODEL>
4

>  <REMARK>
 VINA RESULT:      -8.7      2.998      6.842
  Name = 
  2 active torsions:
  status: ('A' for Active; 'I' for Inactive)
    1  A    between atoms: C_4  and  C_37
    2  A    between atoms: C_23  and  C_30
                            x       y       z     vdW  Elec       q    Type
                         _______ _______ _______ _____ _____    ______ ____

>  <TORSDO>
F 2

$$$$
=
 OpenBabel11112417093D

 37 43  0  0  1  0  0  0  0  0999 V2000
  187.9600  177.0930  145.2530 O   0  0  0  0  0  0  0  0  0  0  0  0
  191.9390  175.6830  146.6950 C   0  0  0  0  0  0  0  0  0  0  0  0
  190.5050  173.5490  143.4910 C   0  0  0  0  0  0  0  0  0  0  0  0
  186.6740  177.6120  145.4630 C   0  0  2  0  0  3  0  0  0  0  0  0
  188.8890  176.0030  141.2630 O   0  0  0  0  0  0  0  0  0  0  0  0
  192.2530  173.6750  145.1400 C   0  0  0  0  0  0  0  0  0  0  0  0
  189.2440  174.2490  143.1360 C   0  0  2  0  0  3  0  0  0  0  0  0
  186.4210  178.2100  143.0450 C   0  0  0  0  0  0  0  0  0  0  0  0
  191.0190  174.0400  144.6540 C   0  0  0  0  0  0  0  0  0  0  0  0
  189.1690  174.6730  141.6650 C   0  0  0  0  0  0  0  0  0  0  0  0
  192.9340  172.6260  144.5010 C   0  0  0  0  0  3  0  0  0  0  0  0
  186.3570  178.5240  144.4130 O   0  0  0  0  0  0  0  0  0  0  0  0
  190.1980  175.0660  145.2840 C   0  0  1  0  0  3  0  0  0  0  0  0
  192.8480  176.8410  147.0530 C   0  0  0  0  0  1  0  0  0  0  0  0
  190.4910  171.7820  141.7380 C   0  0  0  0  0  3  0  0  0  0  0  0
  192.3450  172.0010  143.3790 C   0  0  0  0  0  3  0  0  0  0  0  0
  191.0340  176.1330  145.6820 O   0  0  0  0  0  0  0  0  0  0  0  0
  186.9910  176.9180  142.5120 C   0  0  1  0  0  3  0  0  0  0  0  0
  188.4430  177.0980  142.0620 C   0  0  0  0  0  2  0  0  0  0  0  0
  191.1250  172.4760  142.8560 C   0  0  0  0  0  0  0  0  0  0  0  0
  189.2440  175.4320  144.1450 C   0  0  2  0  0  3  0  0  0  0  0  0
  192.8530  174.5030  146.2410 C   0  0  0  0  0  2  0  0  0  0  0  0
  189.3000  173.7630  140.6620 C   0  0  0  0  0  0  0  0  0  0  0  0
  191.1910  175.2910  147.9650 C   0  0  0  0  0  1  0  0  0  0  0  0
  186.8290  175.7590  143.4940 C   0  0  0  0  0  2  0  0  0  0  0  0
  186.0190  179.0660  142.2140 O   0  0  0  0  0  0  0  0  0  0  0  0
  187.8540  175.8140  144.6580 C   0  0  2  0  0  3  0  0  0  0  0  0
  189.6920  172.3380  140.8270 C   0  0  0  0  0  3  0  0  0  0  0  0
  189.8710  173.7760  138.2250 C   0  0  0  0  0  3  0  0  0  0  0  0
  188.9970  174.1470  139.2590 C   0  0  0  0  0  0  0  0  0  0  0  0
  187.8160  174.8370  138.9390 C   0  0  0  0  0  3  0  0  0  0  0  0
  186.0590  176.0410  137.2320 Cl  0  0  0  0  0  0  0  0  0  0  0  0
  188.4100  174.8070  136.5930 C   0  0  0  0  0  3  0  0  0  0  0  0
  187.5280  175.1700  137.6130 C   0  0  0  0  0  0  0  0  0  0  0  0
  189.5810  174.1070  136.8980 C   0  0  0  0  0  3  0  0  0  0  0  0
  185.1810  178.6270  147.1750 C   0  0  0  0  0  1  0  0  0  0  0  0
  186.6200  178.3380  146.7940 C   0  0  0  0  0  2  0  0  0  0  0  0
  1  4  1  0  0  0  0
  2 14  1  0  0  0  0
  2 24  1  0  0  0  0
  3  9  1  0  0  0  0
  4 37  1  1  0  0  0
  5 10  1  0  0  0  0
  5 19  1  0  0  0  0
  6 22  1  0  0  0  0
  7 10  1  6  0  0  0
  7  3  1  0  0  0  0
  7 21  1  0  0  0  0
  8 12  1  0  0  0  0
  9  6  2  0  0  0  0
 11  6  1  0  0  0  0
 12  4  1  0  0  0  0
 13  9  1  6  0  0  0
 13 17  1  0  0  0  0
 15 20  1  0  0  0  0
 16 11  2  0  0  0  0
 17  2  1  0  0  0  0
 18 19  1  1  0  0  0
 18  8  1  0  0  0  0
 18 25  1  0  0  0  0
 20 16  1  0  0  0  0
 20  3  2  0  0  0  0
 21 27  1  0  0  0  0
 21 13  1  0  0  0  0
 22  2  1  0  0  0  0
 23 28  1  0  0  0  0
 23 10  2  0  0  0  0
 25 27  1  0  0  0  0
 26  8  2  0  0  0  0
 27  1  1  0  0  0  0
 28 15  2  0  0  0  0
 29 30  1  0  0  0  0
 30 23  1  0  0  0  0
 31 30  2  0  0  0  0
 32 34  1  0  0  0  0
 33 35  1  0  0  0  0
 33 34  2  0  0  0  0
 34 31  1  0  0  0  0
 35 29  2  0  0  0  0
 37 36  1  0  0  0  0
M  END
>  <MODEL>
5

>  <REMARK>
 VINA RESULT:      -8.5      3.174      7.311
  Name = 
  2 active torsions:
  status: ('A' for Active; 'I' for Inactive)
    1  A    between atoms: C_4  and  C_37
    2  A    between atoms: C_23  and  C_30
                            x       y       z     vdW  Elec       q    Type
                         _______ _______ _______ _____ _____    ______ ____

>  <TORSDO>
F 2

$$$$
=
 OpenBabel11112417093D

 37 43  0  0  1  0  0  0  0  0999 V2000
  195.3640  175.1000  141.6660 O   0  0  0  0  0  0  0  0  0  0  0  0
  193.4310  174.4850  137.6920 C   0  0  0  0  0  0  0  0  0  0  0  0
  191.1090  173.2650  140.8530 C   0  0  0  0  0  0  0  0  0  0  0  0
  196.4800  175.1240  142.5150 C   0  0  2  0  0  3  0  0  0  0  0  0
  191.6100  175.7610  143.5210 O   0  0  0  0  0  0  0  0  0  0  0  0
  191.2880  173.3120  138.4540 C   0  0  0  0  0  0  0  0  0  0  0  0
  191.9040  173.6510  142.0470 C   0  0  2  0  0  3  0  0  0  0  0  0
  195.2370  176.4160  144.2620 C   0  0  0  0  0  0  0  0  0  0  0  0
  191.8280  173.4520  139.7120 C   0  0  0  0  0  0  0  0  0  0  0  0
  191.1290  174.5130  143.0500 C   0  0  0  0  0  0  0  0  0  0  0  0
  189.9900  172.7880  138.3450 C   0  0  0  0  0  3  0  0  0  0  0  0
  196.3510  176.2090  143.4320 O   0  0  0  0  0  0  0  0  0  0  0  0
  193.1910  173.9180  139.9340 C   0  0  1  0  0  3  0  0  0  0  0  0
  193.6710  175.6580  136.7650 C   0  0  0  0  0  1  0  0  0  0  0  0
  189.1260  172.2820  141.9930 C   0  0  0  0  0  3  0  0  0  0  0  0
  189.2810  172.4460  139.5170 C   0  0  0  0  0  3  0  0  0  0  0  0
  193.4590  174.9760  139.0370 O   0  0  0  0  0  0  0  0  0  0  0  0
  193.9670  175.6070  144.1710 C   0  0  1  0  0  3  0  0  0  0  0  0
  192.9040  176.3380  143.3470 C   0  0  0  0  0  2  0  0  0  0  0  0
  189.8370  172.7000  140.7880 C   0  0  0  0  0  0  0  0  0  0  0  0
  193.1240  174.3630  141.3970 C   0  0  2  0  0  3  0  0  0  0  0  0
  192.0670  173.8470  137.2860 C   0  0  0  0  0  2  0  0  0  0  0  0
  189.9600  174.0810  143.5950 C   0  0  0  0  0  0  0  0  0  0  0  0
  194.5560  173.4830  137.4490 C   0  0  0  0  0  1  0  0  0  0  0  0
  194.2140  174.1860  143.6640 C   0  0  0  0  0  2  0  0  0  0  0  0
  195.2820  177.3510  145.1030 O   0  0  0  0  0  0  0  0  0  0  0  0
  194.4460  174.1300  142.1320 C   0  0  2  0  0  3  0  0  0  0  0  0
  189.2100  172.8620  143.1910 C   0  0  0  0  0  3  0  0  0  0  0  0
  189.6460  174.4530  146.0500 C   0  0  0  0  0  3  0  0  0  0  0  0
  189.3460  174.8190  144.7280 C   0  0  0  0  0  0  0  0  0  0  0  0
  188.5000  175.9180  144.5010 C   0  0  0  0  0  3  0  0  0  0  0  0
  186.8880  177.9800  145.2750 Cl  0  0  0  0  0  0  0  0  0  0  0  0
  188.2450  176.2420  146.8860 C   0  0  0  0  0  3  0  0  0  0  0  0
  187.9490  176.6210  145.5750 C   0  0  0  0  0  0  0  0  0  0  0  0
  189.0960  175.1590  147.1240 C   0  0  0  0  0  3  0  0  0  0  0  0
  197.4020  175.6680  140.2700 C   0  0  0  0  0  1  0  0  0  0  0  0
  197.7470  175.3010  141.7000 C   0  0  0  0  0  2  0  0  0  0  0  0
  1 27  1  0  0  0  0
  1  4  1  0  0  0  0
  2 17  1  0  0  0  0
  4 37  1  6  0  0  0
  4 12  1  0  0  0  0
  6  9  1  0  0  0  0
  7  3  1  6  0  0  0
  7 10  1  0  0  0  0
  8 26  2  0  0  0  0
  9 13  1  0  0  0  0
  9  3  2  0  0  0  0
 10  5  1  0  0  0  0
 10 23  2  0  0  0  0
 11  6  2  0  0  0  0
 11 16  1  0  0  0  0
 12  8  1  0  0  0  0
 13 17  1  6  0  0  0
 13 21  1  0  0  0  0
 14  2  1  0  0  0  0
 15 28  2  0  0  0  0
 16 20  2  0  0  0  0
 18 19  1  6  0  0  0
 18  8  1  0  0  0  0
 19  5  1  0  0  0  0
 20  3  1  0  0  0  0
 20 15  1  0  0  0  0
 21  7  1  0  0  0  0
 21 27  1  0  0  0  0
 22  2  1  0  0  0  0
 22  6  1  0  0  0  0
 23 30  1  0  0  0  0
 24  2  1  0  0  0  0
 25 18  1  0  0  0  0
 27 25  1  0  0  0  0
 28 23  1  0  0  0  0
 29 35  1  0  0  0  0
 30 29  2  0  0  0  0
 31 30  1  0  0  0  0
 31 34  2  0  0  0  0
 32 34  1  0  0  0  0
 33 35  2  0  0  0  0
 34 33  1  0  0  0  0
 36 37  1  0  0  0  0
M  END
>  <MODEL>
6

>  <REMARK>
 VINA RESULT:      -8.4      2.767      7.162
  Name = 
  2 active torsions:
  status: ('A' for Active; 'I' for Inactive)
    1  A    between atoms: C_4  and  C_37
    2  A    between atoms: C_23  and  C_30
                            x       y       z     vdW  Elec       q    Type
                         _______ _______ _______ _____ _____    ______ ____

>  <TORSDO>
F 2

$$$$
=
 OpenBabel11112417093D

 37 43  0  0  1  0  0  0  0  0999 V2000
  191.6890  171.8990  140.7070 O   0  0  0  0  0  0  0  0  0  0  0  0
  194.2510  171.4280  144.3290 C   0  0  0  0  0  0  0  0  0  0  0  0
  192.6130  175.1770  143.9530 C   0  0  0  0  0  0  0  0  0  0  0  0
  191.3770  171.6450  139.3640 C   0  0  2  0  0  3  0  0  0  0  0  0
  189.1820  174.6780  142.6980 O   0  0  0  0  0  0  0  0  0  0  0  0
  194.1510  173.8260  145.2190 C   0  0  0  0  0  0  0  0  0  0  0  0
  191.7430  175.0640  142.7550 C   0  0  2  0  0  3  0  0  0  0  0  0
  189.0330  172.4730  139.6570 C   0  0  0  0  0  0  0  0  0  0  0  0
  193.3640  174.0510  144.1120 C   0  0  0  0  0  0  0  0  0  0  0  0
  190.2940  175.5010  143.0030 C   0  0  0  0  0  0  0  0  0  0  0  0
  194.3180  174.8740  146.1380 C   0  0  0  0  0  3  0  0  0  0  0  0
  189.9630  171.5130  139.2250 O   0  0  0  0  0  0  0  0  0  0  0  0
  193.1830  173.0590  143.0620 C   0  0  1  0  0  3  0  0  0  0  0  0
  194.0340  170.0880  144.9990 C   0  0  0  0  0  1  0  0  0  0  0  0
  192.1670  177.5520  144.5520 C   0  0  0  0  0  3  0  0  0  0  0  0
  193.6630  176.1040  145.9110 C   0  0  0  0  0  3  0  0  0  0  0  0
  193.0370  171.7870  143.6610 O   0  0  0  0  0  0  0  0  0  0  0  0
  189.4040  173.6900  140.4680 C   0  0  1  0  0  3  0  0  0  0  0  0
  189.1560  173.4560  141.9600 C   0  0  0  0  0  2  0  0  0  0  0  0
  192.7870  176.2560  144.8160 C   0  0  0  0  0  0  0  0  0  0  0  0
  191.9050  173.5630  142.3870 C   0  0  2  0  0  3  0  0  0  0  0  0
  194.6770  172.4370  145.4410 C   0  0  0  0  0  2  0  0  0  0  0  0
  190.0040  176.7460  143.4700 C   0  0  0  0  0  0  0  0  0  0  0  0
  195.3940  171.2520  143.3340 C   0  0  0  0  0  1  0  0  0  0  0  0
  190.8290  174.1660  140.1860 C   0  0  0  0  0  2  0  0  0  0  0  0
  187.8160  172.2910  139.3880 O   0  0  0  0  0  0  0  0  0  0  0  0
  191.9010  173.2860  140.8810 C   0  0  2  0  0  3  0  0  0  0  0  0
  190.9930  177.7470  143.9500 C   0  0  0  0  0  3  0  0  0  0  0  0
  188.0810  177.9160  142.3750 C   0  0  0  0  0  3  0  0  0  0  0  0
  188.6000  177.2300  143.4850 C   0  0  0  0  0  0  0  0  0  0  0  0
  187.7580  176.9700  144.5790 C   0  0  0  0  0  3  0  0  0  0  0  0
  185.3990  177.0850  145.9470 Cl  0  0  0  0  0  0  0  0  0  0  0  0
  185.9280  178.0970  143.4670 C   0  0  0  0  0  3  0  0  0  0  0  0
  186.4310  177.4070  144.5720 C   0  0  0  0  0  0  0  0  0  0  0  0
  186.7520  178.3500  142.3670 C   0  0  0  0  0  3  0  0  0  0  0  0
  192.9630  169.8370  139.9990 C   0  0  0  0  0  1  0  0  0  0  0  0
  192.0490  170.3630  138.9100 C   0  0  0  0  0  2  0  0  0  0  0  0
  1 27  1  0  0  0  0
  2 14  1  0  0  0  0
  2 22  1  0  0  0  0
  3  9  2  0  0  0  0
  3 20  1  0  0  0  0
  4 37  1  1  0  0  0
  4  1  1  0  0  0  0
  5 10  1  0  0  0  0
  6 22  1  0  0  0  0
  6 11  2  0  0  0  0
  7 10  1  1  0  0  0
  7  3  1  0  0  0  0
  8 18  1  0  0  0  0
  9  6  1  0  0  0  0
 10 23  2  0  0  0  0
 12  4  1  0  0  0  0
 12  8  1  0  0  0  0
 13 17  1  1  0  0  0
 13  9  1  0  0  0  0
 15 20  1  0  0  0  0
 16 11  1  0  0  0  0
 17  2  1  0  0  0  0
 18 25  1  1  0  0  0
 18 19  1  0  0  0  0
 19  5  1  0  0  0  0
 20 16  2  0  0  0  0
 21  7  1  0  0  0  0
 21 13  1  0  0  0  0
 23 30  1  0  0  0  0
 23 28  1  0  0  0  0
 24  2  1  0  0  0  0
 25 27  1  0  0  0  0
 26  8  2  0  0  0  0
 27 21  1  0  0  0  0
 28 15  2  0  0  0  0
 29 30  1  0  0  0  0
 30 31  2  0  0  0  0
 33 34  2  0  0  0  0
 34 31  1  0  0  0  0
 34 32  1  0  0  0  0
 35 29  2  0  0  0  0
 35 33  1  0  0  0  0
 37 36  1  0  0  0  0
M  END
>  <MODEL>
7

>  <REMARK>
 VINA RESULT:      -8.2      2.791      6.550
  Name = 
  2 active torsions:
  status: ('A' for Active; 'I' for Inactive)
    1  A    between atoms: C_4  and  C_37
    2  A    between atoms: C_23  and  C_30
                            x       y       z     vdW  Elec       q    Type
                         _______ _______ _______ _____ _____    ______ ____

>  <TORSDO>
F 2

$$$$
=
 OpenBabel11112417093D

 37 43  0  0  1  0  0  0  0  0999 V2000
  191.7060  172.1120  140.8230 O   0  0  0  0  0  0  0  0  0  0  0  0
  195.0980  171.1660  143.5620 C   0  0  0  0  0  0  0  0  0  0  0  0
  193.3200  174.7860  144.3420 C   0  0  0  0  0  0  0  0  0  0  0  0
  191.0780  172.0910  139.5700 C   0  0  2  0  0  3  0  0  0  0  0  0
  189.7000  174.2770  143.8660 O   0  0  0  0  0  0  0  0  0  0  0  0
  195.1600  173.3410  144.9100 C   0  0  0  0  0  0  0  0  0  0  0  0
  192.1840  174.8350  143.3880 C   0  0  2  0  0  3  0  0  0  0  0  0
  188.8590  172.6730  140.5710 C   0  0  0  0  0  0  0  0  0  0  0  0
  194.1170  173.7100  144.0900 C   0  0  0  0  0  0  0  0  0  0  0  0
  190.8310  175.1090  144.0550 C   0  0  0  0  0  0  0  0  0  0  0  0
  195.5210  174.2080  145.9520 C   0  0  0  0  0  3  0  0  0  0  0  0
  189.6780  171.8830  139.7480 O   0  0  0  0  0  0  0  0  0  0  0  0
  193.7070  172.9200  142.9370 C   0  0  1  0  0  3  0  0  0  0  0  0
  195.0890  169.7110  143.9840 C   0  0  0  0  0  1  0  0  0  0  0  0
  192.9750  176.9680  145.4900 C   0  0  0  0  0  3  0  0  0  0  0  0
  194.7980  175.4070  146.1380 C   0  0  0  0  0  3  0  0  0  0  0  0
  193.7480  171.5520  143.2880 O   0  0  0  0  0  0  0  0  0  0  0  0
  189.3880  173.7420  141.4960 C   0  0  1  0  0  3  0  0  0  0  0  0
  189.5230  173.2160  142.9270 C   0  0  0  0  0  2  0  0  0  0  0  0
  193.6750  175.6960  145.3350 C   0  0  0  0  0  0  0  0  0  0  0  0
  192.2890  173.4450  142.7000 C   0  0  2  0  0  3  0  0  0  0  0  0
  195.7600  171.9780  144.7190 C   0  0  0  0  0  2  0  0  0  0  0  0
  190.6330  176.2200  144.8150 C   0  0  0  0  0  0  0  0  0  0  0  0
  195.9630  171.2640  142.3100 C   0  0  0  0  0  1  0  0  0  0  0  0
  190.6850  174.3660  140.9840 C   0  0  0  0  0  2  0  0  0  0  0  0
  187.6190  172.4550  140.5680 O   0  0  0  0  0  0  0  0  0  0  0  0
  191.9190  173.4550  141.2140 C   0  0  2  0  0  3  0  0  0  0  0  0
  191.6840  177.1840  145.2360 C   0  0  0  0  0  3  0  0  0  0  0  0
  188.7460  176.0550  146.4520 C   0  0  0  0  0  3  0  0  0  0  0  0
  189.2640  176.5870  145.2600 C   0  0  0  0  0  0  0  0  0  0  0  0
  188.4890  177.5030  144.5300 C   0  0  0  0  0  3  0  0  0  0  0  0
  186.2550  178.9950  144.0450 Cl  0  0  0  0  0  0  0  0  0  0  0  0
  186.7030  177.3180  146.1530 C   0  0  0  0  0  3  0  0  0  0  0  0
  187.2130  177.8620  144.9720 C   0  0  0  0  0  0  0  0  0  0  0  0
  187.4710  176.4160  146.8950 C   0  0  0  0  0  3  0  0  0  0  0  0
  190.6840  169.8030  138.6770 C   0  0  0  0  0  1  0  0  0  0  0  0
  191.6510  170.9700  138.7220 C   0  0  0  0  0  2  0  0  0  0  0  0
  1 27  1  0  0  0  0
  2 14  1  0  0  0  0
  2 22  1  0  0  0  0
  3 20  1  0  0  0  0
  4 37  1  6  0  0  0
  4 12  1  0  0  0  0
  4  1  1  0  0  0  0
  5 10  1  0  0  0  0
  6 11  2  0  0  0  0
  7 10  1  1  0  0  0
  7  3  1  0  0  0  0
  8 18  1  0  0  0  0
  9  3  2  0  0  0  0
  9  6  1  0  0  0  0
 10 23  2  0  0  0  0
 11 16  1  0  0  0  0
 12  8  1  0  0  0  0
 13 17  1  1  0  0  0
 13  9  1  0  0  0  0
 17  2  1  0  0  0  0
 18 25  1  6  0  0  0
 18 19  1  0  0  0  0
 19  5  1  0  0  0  0
 20 15  1  0  0  0  0
 20 16  2  0  0  0  0
 21 13  1  0  0  0  0
 21  7  1  0  0  0  0
 22  6  1  0  0  0  0
 23 28  1  0  0  0  0
 23 30  1  0  0  0  0
 24  2  1  0  0  0  0
 25 27  1  0  0  0  0
 26  8  2  0  0  0  0
 27 21  1  0  0  0  0
 28 15  2  0  0  0  0
 29 35  1  0  0  0  0
 30 29  2  0  0  0  0
 31 34  2  0  0  0  0
 31 30  1  0  0  0  0
 32 34  1  0  0  0  0
 33 35  2  0  0  0  0
 34 33  1  0  0  0  0
 36 37  1  0  0  0  0
M  END
>  <MODEL>
8

>  <REMARK>
 VINA RESULT:      -8.1      2.713      6.422
  Name = 
  2 active torsions:
  status: ('A' for Active; 'I' for Inactive)
    1  A    between atoms: C_4  and  C_37
    2  A    between atoms: C_23  and  C_30
                            x       y       z     vdW  Elec       q    Type
                         _______ _______ _______ _____ _____    ______ ____

>  <TORSDO>
F 2

$$$$
=
 OpenBabel11112417093D

 37 43  0  0  1  0  0  0  0  0999 V2000
  193.2150  171.9770  140.5090 O   0  0  0  0  0  0  0  0  0  0  0  0
  196.5800  170.5420  143.0620 C   0  0  0  0  0  0  0  0  0  0  0  0
  194.7570  173.9310  144.5010 C   0  0  0  0  0  0  0  0  0  0  0  0
  192.6030  172.1950  139.2660 C   0  0  2  0  0  3  0  0  0  0  0  0
  191.1480  173.4970  143.8830 O   0  0  0  0  0  0  0  0  0  0  0  0
  196.6030  172.4160  144.8060 C   0  0  0  0  0  0  0  0  0  0  0  0
  193.6320  174.1550  143.5580 C   0  0  2  0  0  3  0  0  0  0  0  0
  190.3660  172.5560  140.3280 C   0  0  0  0  0  0  0  0  0  0  0  0
  195.5670  172.9290  144.0580 C   0  0  0  0  0  0  0  0  0  0  0  0
  192.2680  174.2850  144.2460 C   0  0  0  0  0  0  0  0  0  0  0  0
  196.9420  173.0680  146.0020 C   0  0  0  0  0  3  0  0  0  0  0  0
  191.2030  171.9460  139.3790 O   0  0  0  0  0  0  0  0  0  0  0  0
  195.1800  172.3740  142.7680 C   0  0  1  0  0  3  0  0  0  0  0  0
  196.5800  169.0340  143.1940 C   0  0  0  0  0  1  0  0  0  0  0  0
  194.3750  175.8460  146.0450 C   0  0  0  0  0  3  0  0  0  0  0  0
  196.2050  174.2030  146.4050 C   0  0  0  0  0  3  0  0  0  0  0  0
  195.2290  170.9640  142.8480 O   0  0  0  0  0  0  0  0  0  0  0  0
  190.8720  173.4290  141.4500 C   0  0  1  0  0  3  0  0  0  0  0  0
  190.9940  172.6370  142.7540 C   0  0  0  0  0  2  0  0  0  0  0  0
  195.0900  174.6330  145.6570 C   0  0  0  0  0  0  0  0  0  0  0  0
  193.7600  172.9250  142.6160 C   0  0  2  0  0  3  0  0  0  0  0  0
  197.2190  171.1190  144.3640 C   0  0  0  0  0  2  0  0  0  0  0  0
  192.0500  175.2260  145.2040 C   0  0  0  0  0  0  0  0  0  0  0  0
  197.4600  170.8870  141.8650 C   0  0  0  0  0  1  0  0  0  0  0  0
  192.1690  174.1500  141.0880 C   0  0  0  0  0  2  0  0  0  0  0  0
  189.1280  172.3330  140.2650 O   0  0  0  0  0  0  0  0  0  0  0  0
  193.4090  173.2200  141.1550 C   0  0  2  0  0  3  0  0  0  0  0  0
  193.0850  176.0980  145.8190 C   0  0  0  0  0  3  0  0  0  0  0  0
  190.1720  174.7890  146.8010 C   0  0  0  0  0  3  0  0  0  0  0  0
  190.6720  175.4900  145.6920 C   0  0  0  0  0  0  0  0  0  0  0  0
  189.8680  176.4720  145.0890 C   0  0  0  0  0  3  0  0  0  0  0  0
  187.5900  177.9490  144.8020 Cl  0  0  0  0  0  0  0  0  0  0  0  0
  188.0920  176.0210  146.6690 C   0  0  0  0  0  3  0  0  0  0  0  0
  188.5830  176.7310  145.5720 C   0  0  0  0  0  0  0  0  0  0  0  0
  188.8870  175.0510  147.2860 C   0  0  0  0  0  3  0  0  0  0  0  0
  192.1240  170.3500  137.6660 C   0  0  0  0  0  1  0  0  0  0  0  0
  193.1980  171.2630  138.2260 C   0  0  0  0  0  2  0  0  0  0  0  0
  1 27  1  0  0  0  0
  2 14  1  0  0  0  0
  2 22  1  0  0  0  0
  3 20  1  0  0  0  0
  4 37  1  6  0  0  0
  4 12  1  0  0  0  0
  4  1  1  0  0  0  0
  5 10  1  0  0  0  0
  6 11  2  0  0  0  0
  7 10  1  1  0  0  0
  7  3  1  0  0  0  0
  8 18  1  0  0  0  0
  9  3  2  0  0  0  0
  9  6  1  0  0  0  0
 10 23  2  0  0  0  0
 11 16  1  0  0  0  0
 12  8  1  0  0  0  0
 13 17  1  1  0  0  0
 13  9  1  0  0  0  0
 17  2  1  0  0  0  0
 18 25  1  6  0  0  0
 18 19  1  0  0  0  0
 19  5  1  0  0  0  0
 20 15  1  0  0  0  0
 20 16  2  0  0  0  0
 21 13  1  0  0  0  0
 21  7  1  0  0  0  0
 22  6  1  0  0  0  0
 23 30  1  0  0  0  0
 23 28  1  0  0  0  0
 24  2  1  0  0  0  0
 25 27  1  0  0  0  0
 26  8  2  0  0  0  0
 27 21  1  0  0  0  0
 28 15  2  0  0  0  0
 29 35  1  0  0  0  0
 30 29  2  0  0  0  0
 31 34  2  0  0  0  0
 31 30  1  0  0  0  0
 32 34  1  0  0  0  0
 33 35  2  0  0  0  0
 34 33  1  0  0  0  0
 36 37  1  0  0  0  0
M  END
>  <MODEL>
9

>  <REMARK>
 VINA RESULT:      -7.9      2.688      6.713
  Name = 
  2 active torsions:
  status: ('A' for Active; 'I' for Inactive)
    1  A    between atoms: C_4  and  C_37
    2  A    between atoms: C_23  and  C_30
                            x       y       z     vdW  Elec       q    Type
                         _______ _______ _______ _____ _____    ______ ____

>  <TORSDO>
F 2

$$$$
