=
 OpenBabel11112416133D

 30 35  0  0  1  0  0  0  0  0999 V2000
  187.8180  176.7590  145.7010 C   0  0  0  0  0  0  0  0  0  0  0  0
  185.9790  177.7960  147.0660 C   0  0  0  0  0  0  0  0  0  0  0  0
  185.6550  177.4020  142.0690 C   0  0  0  0  0  2  0  0  0  0  0  0
  188.3210  176.4260  144.4190 C   0  0  0  0  0  0  0  0  0  0  0  0
  188.6010  176.3160  146.9090 C   0  0  0  0  0  2  0  0  0  0  0  0
  191.8510  176.0380  145.2660 O   0  0  0  0  0  0  0  0  0  0  0  0
  188.7130  174.1070  142.6400 C   0  0  1  0  0  3  0  0  0  0  0  0
  190.6010  176.0930  145.4140 C   0  0  0  0  0  0  0  0  0  0  0  0
  188.7300  175.2030  141.6020 C   0  0  1  0  0  3  0  0  0  0  0  0
  186.6470  176.6960  141.1250 C   0  0  1  0  0  3  0  0  0  0  0  0
  190.0360  176.4270  146.6900 N   0  0  0  0  0  0  0  0  0  0  0  0
  189.7040  175.8380  144.2360 C   0  0  1  0  0  3  0  0  0  0  0  0
  184.7610  178.4010  147.0990 N   0  0  0  0  0  0  0  0  0  0  0  0
  188.3640  174.4840  140.3210 C   0  0  0  0  0  2  0  0  0  0  0  0
  188.9760  172.8250  141.8750 C   0  0  0  0  0  2  0  0  0  0  0  0
  186.5800  177.6000  148.1550 O   0  0  0  0  0  0  0  0  0  0  0  0
  186.3140  177.3070  143.4040 C   0  0  0  0  0  0  0  0  0  0  0  0
  184.0460  178.6600  145.9750 C   0  0  0  0  0  3  0  0  0  0  0  0
  186.5480  177.4080  145.8230 C   0  0  0  0  0  0  0  0  0  0  0  0
  187.5250  176.6910  143.2950 C   0  0  0  0  0  0  0  0  0  0  0  0
  187.1360  177.6800  140.0790 C   0  0  0  0  0  1  0  0  0  0  0  0
  187.7690  176.2590  141.9610 N   0  0  0  0  0  0  0  0  0  0  0  0
  188.7820  173.0920  140.4520 N   0  0  0  0  0  2  0  0  0  0  0  0
  191.0000  173.9980  143.4010 O   0  0  0  0  0  1  0  0  0  0  0  0
  184.5510  178.3060  144.7290 C   0  0  0  0  0  2  0  0  0  0  0  0
  185.7990  177.6860  144.6450 C   0  0  0  0  0  0  0  0  0  0  0  0
  189.7060  174.3630  143.7890 C   0  0  2  0  0  3  0  0  0  0  0  0
  190.8880  176.6900  147.8400 C   0  0  0  0  0  2  0  0  0  0  0  0
  191.4240  178.0610  149.4810 C   0  0  0  0  0  1  0  0  0  0  0  0
  190.5820  177.9400  148.3780 O   0  0  0  0  0  0  0  0  0  0  0  0
  1 19  1  0  0  0  0
  1  5  1  0  0  0  0
  2 13  1  0  0  0  0
  2 16  2  0  0  0  0
  3 17  1  0  0  0  0
  4  1  2  0  0  0  0
  6  8  2  0  0  0  0
  7 15  1  6  0  0  0
  7 27  1  0  0  0  0
  8 11  1  0  0  0  0
  9 14  1  6  0  0  0
  9 22  1  0  0  0  0
  9  7  1  0  0  0  0
 10 21  1  6  0  0  0
 10 22  1  0  0  0  0
 10  3  1  0  0  0  0
 11  5  1  0  0  0  0
 11 28  1  0  0  0  0
 12  4  1  1  0  0  0
 12  8  1  0  0  0  0
 14 23  1  0  0  0  0
 17 26  1  0  0  0  0
 18 13  2  0  0  0  0
 19  2  1  0  0  0  0
 20 17  2  0  0  0  0
 20  4  1  0  0  0  0
 22 20  1  0  0  0  0
 23 15  1  0  0  0  0
 25 18  1  0  0  0  0
 26 25  1  0  0  0  0
 26 19  2  0  0  0  0
 27 24  1  6  0  0  0
 27 12  1  0  0  0  0
 28 30  1  0  0  0  0
 30 29  1  0  0  0  0
M  END
>  <MODEL>
1

>  <REMARK>
 VINA RESULT:      -8.4      0.000      0.000
  Name = 
  2 active torsions:
  status: ('A' for Active; 'I' for Inactive)
    1  A    between atoms: N_11  and  C_28
    2  A    between atoms: C_28  and  O_30
                            x       y       z     vdW  Elec       q    Type
                         _______ _______ _______ _____ _____    ______ ____

>  <TORSDO>
F 2

$$$$
=
 OpenBabel11112416133D

 30 35  0  0  1  0  0  0  0  0999 V2000
  187.2730  176.7010  142.5390 C   0  0  0  0  0  0  0  0  0  0  0  0
  185.1240  177.9970  142.6980 C   0  0  0  0  0  0  0  0  0  0  0  0
  187.6500  176.5610  146.7960 C   0  0  0  0  0  2  0  0  0  0  0  0
  188.3240  176.0290  143.2120 C   0  0  0  0  0  0  0  0  0  0  0  0
  187.3560  176.8280  141.0400 C   0  0  0  0  0  2  0  0  0  0  0  0
  189.5440  173.9610  140.4620 O   0  0  0  0  0  0  0  0  0  0  0  0
  191.1620  176.3600  143.9410 C   0  0  1  0  0  3  0  0  0  0  0  0
  188.9690  174.9100  141.0610 C   0  0  0  0  0  0  0  0  0  0  0  0
  190.7700  175.3430  144.9840 C   0  0  1  0  0  3  0  0  0  0  0  0
  189.0230  175.8650  146.8470 C   0  0  1  0  0  3  0  0  0  0  0  0
  187.8980  175.6230  140.4280 N   0  0  0  0  0  0  0  0  0  0  0  0
  189.3920  175.2670  142.4570 C   0  0  1  0  0  3  0  0  0  0  0  0
  184.1730  178.5710  143.4820 N   0  0  0  0  0  0  0  0  0  0  0  0
  191.8100  175.5280  146.0690 C   0  0  0  0  0  2  0  0  0  0  0  0
  192.6460  176.5910  144.1420 C   0  0  0  0  0  2  0  0  0  0  0  0
  184.9970  178.0750  141.4470 O   0  0  0  0  0  0  0  0  0  0  0  0
  187.3470  176.6340  145.3370 C   0  0  0  0  0  0  0  0  0  0  0  0
  184.2250  178.5280  144.8370 C   0  0  0  0  0  3  0  0  0  0  0  0
  186.2250  177.3230  143.2910 C   0  0  0  0  0  0  0  0  0  0  0  0
  188.3400  176.0430  144.6150 C   0  0  0  0  0  0  0  0  0  0  0  0
  188.8980  174.5590  147.6070 C   0  0  0  0  0  1  0  0  0  0  0  0
  189.3990  175.5980  145.4550 N   0  0  0  0  0  0  0  0  0  0  0  0
  193.0230  176.0460  145.4450 N   0  0  0  0  0  2  0  0  0  0  0  0
  191.7390  175.0210  142.0180 O   0  0  0  0  0  1  0  0  0  0  0  0
  185.2760  177.8810  145.4770 C   0  0  0  0  0  2  0  0  0  0  0  0
  186.2740  177.2730  144.7130 C   0  0  0  0  0  0  0  0  0  0  0  0
  190.7870  175.9190  142.5130 C   0  0  2  0  0  3  0  0  0  0  0  0
  187.4660  175.2840  139.0800 C   0  0  0  0  0  2  0  0  0  0  0  0
  186.6130  176.0150  137.1830 C   0  0  0  0  0  1  0  0  0  0  0  0
  186.7690  176.3570  138.5240 O   0  0  0  0  0  0  0  0  0  0  0  0
  1  4  2  0  0  0  0
  1 19  1  0  0  0  0
  2 19  1  0  0  0  0
  2 13  1  0  0  0  0
  3 10  1  0  0  0  0
  4 20  1  0  0  0  0
  5  1  1  0  0  0  0
  6  8  2  0  0  0  0
  7 15  1  6  0  0  0
  7  9  1  0  0  0  0
  9 22  1  0  0  0  0
  9 14  1  1  0  0  0
 10 21  1  1  0  0  0
 11  5  1  0  0  0  0
 11  8  1  0  0  0  0
 12  8  1  6  0  0  0
 12 27  1  0  0  0  0
 12  4  1  0  0  0  0
 13 18  2  0  0  0  0
 15 23  1  0  0  0  0
 16  2  2  0  0  0  0
 17  3  1  0  0  0  0
 18 25  1  0  0  0  0
 19 26  2  0  0  0  0
 20 17  2  0  0  0  0
 20 22  1  0  0  0  0
 22 10  1  0  0  0  0
 23 14  1  0  0  0  0
 26 17  1  0  0  0  0
 26 25  1  0  0  0  0
 27 24  1  1  0  0  0
 27  7  1  0  0  0  0
 28 11  1  0  0  0  0
 29 30  1  0  0  0  0
 30 28  1  0  0  0  0
M  END
>  <MODEL>
2

>  <REMARK>
 VINA RESULT:      -8.3      2.495      5.634
  Name = 
  2 active torsions:
  status: ('A' for Active; 'I' for Inactive)
    1  A    between atoms: N_11  and  C_28
    2  A    between atoms: C_28  and  O_30
                            x       y       z     vdW  Elec       q    Type
                         _______ _______ _______ _____ _____    ______ ____

>  <TORSDO>
F 2

$$$$
=
 OpenBabel11112416133D

 30 35  0  0  1  0  0  0  0  0999 V2000
  188.1070  175.6970  141.9770 C   0  0  0  0  0  0  0  0  0  0  0  0
  186.6480  176.9500  140.3570 C   0  0  0  0  0  0  0  0  0  0  0  0
  186.6790  178.0300  145.2630 C   0  0  0  0  0  2  0  0  0  0  0  0
  188.5080  175.4880  143.3200 C   0  0  0  0  0  0  0  0  0  0  0  0
  188.8200  174.9280  140.8940 C   0  0  0  0  0  2  0  0  0  0  0  0
  189.9510  172.1520  142.9810 O   0  0  0  0  0  0  0  0  0  0  0  0
  190.7470  176.0380  145.1580 C   0  0  1  0  0  3  0  0  0  0  0  0
  189.5410  173.2990  142.6580 C   0  0  0  0  0  0  0  0  0  0  0  0
  189.6540  175.8340  146.1770 C   0  0  1  0  0  3  0  0  0  0  0  0
  187.5960  177.4250  146.3430 C   0  0  1  0  0  3  0  0  0  0  0  0
  189.1210  173.5660  141.3130 N   0  0  0  0  0  0  0  0  0  0  0  0
  189.4640  174.3780  143.7000 C   0  0  1  0  0  3  0  0  0  0  0  0
  185.7170  177.9190  140.1480 N   0  0  0  0  0  0  0  0  0  0  0  0
  190.1690  176.5620  147.4010 C   0  0  0  0  0  2  0  0  0  0  0  0
  192.0100  176.2700  145.9630 C   0  0  0  0  0  2  0  0  0  0  0  0
  187.0660  176.2960  139.3660 O   0  0  0  0  0  0  0  0  0  0  0  0
  187.0290  177.2590  144.0340 C   0  0  0  0  0  0  0  0  0  0  0  0
  185.2040  178.6660  141.1570 C   0  0  0  0  0  3  0  0  0  0  0  0
  187.1230  176.6900  141.6710 C   0  0  0  0  0  0  0  0  0  0  0  0
  187.9660  176.3110  144.3180 C   0  0  0  0  0  0  0  0  0  0  0  0
  186.7450  176.8090  147.4380 C   0  0  0  0  0  1  0  0  0  0  0  0
  188.3830  176.3830  145.6770 N   0  0  0  0  0  0  0  0  0  0  0  0
  191.6270  176.5620  147.3430 N   0  0  0  0  0  2  0  0  0  0  0  0
  191.5570  173.8070  144.7260 O   0  0  0  0  0  1  0  0  0  0  0  0
  185.6270  178.4570  142.4650 C   0  0  0  0  0  2  0  0  0  0  0  0
  186.5790  177.4710  142.7300 C   0  0  0  0  0  0  0  0  0  0  0  0
  190.8510  174.8710  144.1570 C   0  0  2  0  0  3  0  0  0  0  0  0
  189.1770  172.5310  140.2910 C   0  0  0  0  0  2  0  0  0  0  0  0
  188.7470  172.6330  138.1310 C   0  0  0  0  0  1  0  0  0  0  0  0
  188.1360  172.7110  139.3810 O   0  0  0  0  0  0  0  0  0  0  0  0
  1  4  1  0  0  0  0
  2 19  1  0  0  0  0
  3 10  1  0  0  0  0
  4 12  1  0  0  0  0
  4 20  2  0  0  0  0
  5 11  1  0  0  0  0
  5  1  1  0  0  0  0
  7 15  1  1  0  0  0
  7  9  1  0  0  0  0
  8  6  2  0  0  0  0
  9 14  1  1  0  0  0
 10 21  1  1  0  0  0
 11  8  1  0  0  0  0
 12  8  1  6  0  0  0
 12 27  1  0  0  0  0
 13  2  1  0  0  0  0
 13 18  2  0  0  0  0
 15 23  1  0  0  0  0
 16  2  2  0  0  0  0
 17 20  1  0  0  0  0
 17  3  1  0  0  0  0
 18 25  1  0  0  0  0
 19  1  2  0  0  0  0
 19 26  1  0  0  0  0
 20 22  1  0  0  0  0
 22  9  1  0  0  0  0
 22 10  1  0  0  0  0
 23 14  1  0  0  0  0
 25 26  1  0  0  0  0
 26 17  2  0  0  0  0
 27 24  1  1  0  0  0
 27  7  1  0  0  0  0
 28 11  1  0  0  0  0
 29 30  1  0  0  0  0
 30 28  1  0  0  0  0
M  END
>  <MODEL>
3

>  <REMARK>
 VINA RESULT:      -7.7      2.317      5.878
  Name = 
  2 active torsions:
  status: ('A' for Active; 'I' for Inactive)
    1  A    between atoms: N_11  and  C_28
    2  A    between atoms: C_28  and  O_30
                            x       y       z     vdW  Elec       q    Type
                         _______ _______ _______ _____ _____    ______ ____

>  <TORSDO>
F 2

$$$$
=
 OpenBabel11112416133D

 30 35  0  0  1  0  0  0  0  0999 V2000
  188.5870  175.8700  142.9340 C   0  0  0  0  0  0  0  0  0  0  0  0
  186.4290  177.1540  143.0620 C   0  0  0  0  0  0  0  0  0  0  0  0
  189.6850  177.0780  146.8860 C   0  0  0  0  0  2  0  0  0  0  0  0
  189.7710  175.4420  143.5840 C   0  0  0  0  0  0  0  0  0  0  0  0
  188.4070  175.5180  141.4800 C   0  0  0  0  0  2  0  0  0  0  0  0
  190.6180  172.6110  141.4410 O   0  0  0  0  0  0  0  0  0  0  0  0
  192.6690  175.9800  143.6580 C   0  0  1  0  0  3  0  0  0  0  0  0
  190.1030  173.7010  141.8080 C   0  0  0  0  0  0  0  0  0  0  0  0
  192.5160  175.3450  145.0180 C   0  0  1  0  0  3  0  0  0  0  0  0
  191.0830  176.4310  146.9050 C   0  0  1  0  0  3  0  0  0  0  0  0
  188.9030  174.1810  141.1860 N   0  0  0  0  0  0  0  0  0  0  0  0
  190.7360  174.4790  142.9260 C   0  0  1  0  0  3  0  0  0  0  0  0
  185.5940  177.9470  143.7860 N   0  0  0  0  0  0  0  0  0  0  0  0
  193.7120  175.8610  145.7880 C   0  0  0  0  0  2  0  0  0  0  0  0
  194.1510  176.2610  143.5100 C   0  0  0  0  0  2  0  0  0  0  0  0
  186.0870  176.8340  141.8930 O   0  0  0  0  0  0  0  0  0  0  0  0
  189.1370  176.6880  145.5550 C   0  0  0  0  0  0  0  0  0  0  0  0
  185.8770  178.3340  145.0550 C   0  0  0  0  0  3  0  0  0  0  0  0
  187.6490  176.6990  143.6290 C   0  0  0  0  0  0  0  0  0  0  0  0
  190.0240  175.8980  144.8870 C   0  0  0  0  0  0  0  0  0  0  0  0
  191.1600  175.4310  148.0430 C   0  0  0  0  0  1  0  0  0  0  0  0
  191.2320  175.7380  145.6220 N   0  0  0  0  0  0  0  0  0  0  0  0
  194.7720  176.1530  144.8290 N   0  0  0  0  0  2  0  0  0  0  0  0
  192.9840  174.1030  142.1760 O   0  0  0  0  0  1  0  0  0  0  0  0
  187.0540  177.9190  145.6660 C   0  0  0  0  0  2  0  0  0  0  0  0
  187.9400  177.1000  144.9640 C   0  0  0  0  0  0  0  0  0  0  0  0
  192.0830  175.1130  142.5280 C   0  0  2  0  0  3  0  0  0  0  0  0
  188.2670  173.4350  140.1100 C   0  0  0  0  0  2  0  0  0  0  0  0
  189.2500  173.6820  138.1520 C   0  0  0  0  0  1  0  0  0  0  0  0
  188.2390  174.2110  138.9510 O   0  0  0  0  0  0  0  0  0  0  0  0
  1  4  2  0  0  0  0
  1 19  1  0  0  0  0
  2 19  1  0  0  0  0
  2 13  1  0  0  0  0
  3 10  1  0  0  0  0
  4 20  1  0  0  0  0
  5  1  1  0  0  0  0
  6  8  2  0  0  0  0
  7 15  1  6  0  0  0
  7  9  1  0  0  0  0
  9 22  1  0  0  0  0
  9 14  1  1  0  0  0
 10 21  1  1  0  0  0
 11  5  1  0  0  0  0
 11  8  1  0  0  0  0
 12  8  1  6  0  0  0
 12  4  1  0  0  0  0
 13 18  2  0  0  0  0
 15 23  1  0  0  0  0
 16  2  2  0  0  0  0
 17  3  1  0  0  0  0
 18 25  1  0  0  0  0
 19 26  2  0  0  0  0
 20 17  2  0  0  0  0
 20 22  1  0  0  0  0
 22 10  1  0  0  0  0
 23 14  1  0  0  0  0
 26 17  1  0  0  0  0
 26 25  1  0  0  0  0
 27 24  1  1  0  0  0
 27 12  1  0  0  0  0
 27  7  1  0  0  0  0
 28 11  1  0  0  0  0
 29 30  1  0  0  0  0
 30 28  1  0  0  0  0
M  END
>  <MODEL>
4

>  <REMARK>
 VINA RESULT:      -7.7      2.507      5.807
  Name = 
  2 active torsions:
  status: ('A' for Active; 'I' for Inactive)
    1  A    between atoms: N_11  and  C_28
    2  A    between atoms: C_28  and  O_30
                            x       y       z     vdW  Elec       q    Type
                         _______ _______ _______ _____ _____    ______ ____

>  <TORSDO>
F 2

$$$$
=
 OpenBabel11112416133D

 30 35  0  0  1  0  0  0  0  0999 V2000
  187.9420  175.8440  142.1280 C   0  0  0  0  0  0  0  0  0  0  0  0
  185.9640  177.3700  141.8420 C   0  0  0  0  0  0  0  0  0  0  0  0
  188.0080  176.5160  146.3500 C   0  0  0  0  0  2  0  0  0  0  0  0
  188.8530  175.2100  143.0090 C   0  0  0  0  0  0  0  0  0  0  0  0
  188.1410  175.6600  140.6470 C   0  0  0  0  0  2  0  0  0  0  0  0
  189.9910  172.5160  140.8250 O   0  0  0  0  0  0  0  0  0  0  0  0
  191.6540  175.3710  143.9170 C   0  0  1  0  0  3  0  0  0  0  0  0
  189.4990  173.6220  141.1780 C   0  0  0  0  0  0  0  0  0  0  0  0
  191.0700  174.6310  145.0940 C   0  0  1  0  0  3  0  0  0  0  0  0
  189.2780  175.7000  146.6570 C   0  0  1  0  0  3  0  0  0  0  0  0
  188.5700  174.3060  140.3260 N   0  0  0  0  0  0  0  0  0  0  0  0
  189.8680  174.2020  142.5130 C   0  0  1  0  0  3  0  0  0  0  0  0
  185.0400  178.1880  142.4140 N   0  0  0  0  0  0  0  0  0  0  0  0
  192.0480  174.9160  146.2140 C   0  0  0  0  0  2  0  0  0  0  0  0
  193.1380  175.4760  144.2040 C   0  0  0  0  0  2  0  0  0  0  0  0
  185.9320  177.2100  140.5930 O   0  0  0  0  0  0  0  0  0  0  0  0
  187.8160  176.3290  144.8830 C   0  0  0  0  0  0  0  0  0  0  0  0
  184.9930  178.4110  143.7510 C   0  0  0  0  0  3  0  0  0  0  0  0
  186.9300  176.7130  142.6500 C   0  0  0  0  0  0  0  0  0  0  0  0
  188.7760  175.5020  144.3800 C   0  0  0  0  0  0  0  0  0  0  0  0
  188.9410  174.5930  147.6380 C   0  0  0  0  0  1  0  0  0  0  0  0
  189.7120  175.1220  145.3820 N   0  0  0  0  0  0  0  0  0  0  0  0
  193.3550  175.1650  145.6150 N   0  0  0  0  0  2  0  0  0  0  0  0
  192.1900  173.6220  142.3440 O   0  0  0  0  0  1  0  0  0  0  0  0
  185.9110  177.7950  144.5950 C   0  0  0  0  0  2  0  0  0  0  0  0
  186.8750  176.9430  144.0540 C   0  0  0  0  0  0  0  0  0  0  0  0
  191.3260  174.6980  142.5710 C   0  0  2  0  0  3  0  0  0  0  0  0
  188.1910  173.7530  139.0340 C   0  0  0  0  0  2  0  0  0  0  0  0
  189.3820  173.0110  137.3330 C   0  0  0  0  0  1  0  0  0  0  0  0
  189.1010  174.1660  138.0600 O   0  0  0  0  0  0  0  0  0  0  0  0
  1 19  2  0  0  0  0
  1  4  1  0  0  0  0
  2 13  1  0  0  0  0
  2 19  1  0  0  0  0
  3 10  1  0  0  0  0
  4 20  2  0  0  0  0
  5  1  1  0  0  0  0
  6  8  2  0  0  0  0
  7 15  1  1  0  0  0
  7  9  1  0  0  0  0
  9 22  1  0  0  0  0
  9 14  1  1  0  0  0
 10 21  1  1  0  0  0
 11  5  1  0  0  0  0
 11  8  1  0  0  0  0
 12  8  1  6  0  0  0
 12 27  1  0  0  0  0
 12  4  1  0  0  0  0
 13 18  2  0  0  0  0
 15 23  1  0  0  0  0
 16  2  2  0  0  0  0
 17  3  1  0  0  0  0
 18 25  1  0  0  0  0
 19 26  1  0  0  0  0
 20 17  1  0  0  0  0
 20 22  1  0  0  0  0
 22 10  1  0  0  0  0
 23 14  1  0  0  0  0
 26 25  1  0  0  0  0
 26 17  2  0  0  0  0
 27 24  1  1  0  0  0
 27  7  1  0  0  0  0
 28 11  1  0  0  0  0
 29 30  1  0  0  0  0
 30 28  1  0  0  0  0
M  END
>  <MODEL>
5

>  <REMARK>
 VINA RESULT:      -7.7      2.741      5.828
  Name = 
  2 active torsions:
  status: ('A' for Active; 'I' for Inactive)
    1  A    between atoms: N_11  and  C_28
    2  A    between atoms: C_28  and  O_30
                            x       y       z     vdW  Elec       q    Type
                         _______ _______ _______ _____ _____    ______ ____

>  <TORSDO>
F 2

$$$$
=
 OpenBabel11112416133D

 30 35  0  0  1  0  0  0  0  0999 V2000
  188.1050  175.3380  142.6550 C   0  0  0  0  0  0  0  0  0  0  0  0
  189.3430  173.2540  141.9850 C   0  0  0  0  0  0  0  0  0  0  0  0
  189.8590  175.2760  146.5540 C   0  0  0  0  0  2  0  0  0  0  0  0
  187.8670  176.3300  143.6390 C   0  0  0  0  0  0  0  0  0  0  0  0
  187.2870  175.3790  141.3910 C   0  0  0  0  0  2  0  0  0  0  0  0
  186.4580  178.9350  141.5030 O   0  0  0  0  0  0  0  0  0  0  0  0
  185.8460  177.1580  145.6190 C   0  0  1  0  0  3  0  0  0  0  0  0
  186.8060  177.7870  141.8930 C   0  0  0  0  0  0  0  0  0  0  0  0
  187.0530  177.8300  146.2240 C   0  0  1  0  0  3  0  0  0  0  0  0
  189.0860  176.4750  147.1340 C   0  0  1  0  0  3  0  0  0  0  0  0
  187.0620  176.7460  140.9410 N   0  0  0  0  0  0  0  0  0  0  0  0
  186.9830  177.5270  143.3610 C   0  0  1  0  0  3  0  0  0  0  0  0
  190.2250  172.2740  142.3170 N   0  0  0  0  0  0  0  0  0  0  0  0
  186.6700  178.0080  147.6780 C   0  0  0  0  0  2  0  0  0  0  0  0
  184.6800  177.5520  146.5050 C   0  0  0  0  0  2  0  0  0  0  0  0
  188.8260  173.2320  140.8370 O   0  0  0  0  0  0  0  0  0  0  0  0
  189.3840  175.2020  145.1420 C   0  0  0  0  0  0  0  0  0  0  0  0
  190.8360  172.2240  143.5270 C   0  0  0  0  0  3  0  0  0  0  0  0
  189.0280  174.2760  142.9200 C   0  0  0  0  0  0  0  0  0  0  0  0
  188.5050  176.2100  144.8820 C   0  0  0  0  0  0  0  0  0  0  0  0
  190.0690  177.5440  147.5740 C   0  0  0  0  0  1  0  0  0  0  0  0
  188.2470  176.9870  146.0460 N   0  0  0  0  0  0  0  0  0  0  0  0
  185.2150  178.0970  147.7510 N   0  0  0  0  0  2  0  0  0  0  0  0
  185.0340  178.7670  144.0140 O   0  0  0  0  0  1  0  0  0  0  0  0
  190.5720  173.1970  144.4840 C   0  0  0  0  0  2  0  0  0  0  0  0
  189.6760  174.2260  144.1870 C   0  0  0  0  0  0  0  0  0  0  0  0
  185.6490  177.5160  144.1340 C   0  0  2  0  0  3  0  0  0  0  0  0
  186.9080  176.9810  139.5130 C   0  0  0  0  0  2  0  0  0  0  0  0
  186.6960  176.0410  137.5300 C   0  0  0  0  0  1  0  0  0  0  0  0
  187.2010  175.8130  138.8080 O   0  0  0  0  0  0  0  0  0  0  0  0
  1 19  2  0  0  0  0
  1  4  1  0  0  0  0
  2 13  1  0  0  0  0
  2 19  1  0  0  0  0
  3 10  1  0  0  0  0
  4 20  2  0  0  0  0
  5  1  1  0  0  0  0
  6  8  2  0  0  0  0
  7  9  1  0  0  0  0
  7 15  1  1  0  0  0
  9 14  1  1  0  0  0
 10 21  1  6  0  0  0
 11  5  1  0  0  0  0
 11  8  1  0  0  0  0
 12  8  1  6  0  0  0
 12  4  1  0  0  0  0
 12 27  1  0  0  0  0
 13 18  2  0  0  0  0
 14 23  1  0  0  0  0
 15 23  1  0  0  0  0
 16  2  2  0  0  0  0
 17  3  1  0  0  0  0
 18 25  1  0  0  0  0
 19 26  1  0  0  0  0
 20 17  1  0  0  0  0
 20 22  1  0  0  0  0
 22  9  1  0  0  0  0
 22 10  1  0  0  0  0
 26 25  1  0  0  0  0
 26 17  2  0  0  0  0
 27 24  1  1  0  0  0
 27  7  1  0  0  0  0
 28 11  1  0  0  0  0
 29 30  1  0  0  0  0
 30 28  1  0  0  0  0
M  END
>  <MODEL>
6

>  <REMARK>
 VINA RESULT:      -7.6      2.353      7.136
  Name = 
  2 active torsions:
  status: ('A' for Active; 'I' for Inactive)
    1  A    between atoms: N_11  and  C_28
    2  A    between atoms: C_28  and  O_30
                            x       y       z     vdW  Elec       q    Type
                         _______ _______ _______ _____ _____    ______ ____

>  <TORSDO>
F 2

$$$$
=
 OpenBabel11112416133D

 30 35  0  0  1  0  0  0  0  0999 V2000
  190.1570  176.6290  144.9390 C   0  0  0  0  0  0  0  0  0  0  0  0
  189.0160  177.5410  146.9860 C   0  0  0  0  0  0  0  0  0  0  0  0
  186.5210  176.7780  142.6930 C   0  0  0  0  0  2  0  0  0  0  0  0
  190.0640  176.2700  143.5710 C   0  0  0  0  0  0  0  0  0  0  0  0
  191.4520  176.3600  145.6580 C   0  0  0  0  0  2  0  0  0  0  0  0
  193.6120  176.3430  142.7120 O   0  0  0  0  0  0  0  0  0  0  0  0
  189.9090  173.8970  141.8280 C   0  0  1  0  0  3  0  0  0  0  0  0
  192.5690  176.2650  143.4160 C   0  0  0  0  0  0  0  0  0  0  0  0
  189.3100  174.9150  140.8900 C   0  0  1  0  0  3  0  0  0  0  0  0
  187.0610  176.1270  141.4060 C   0  0  1  0  0  3  0  0  0  0  0  0
  192.6040  176.6180  144.8050 N   0  0  0  0  0  0  0  0  0  0  0  0
  191.2790  175.8320  142.7810 C   0  0  1  0  0  3  0  0  0  0  0  0
  187.8780  178.0050  147.5680 N   0  0  0  0  0  0  0  0  0  0  0  0
  188.5020  174.0750  139.9230 C   0  0  0  0  0  2  0  0  0  0  0  0
  189.9630  172.6040  141.0380 C   0  0  0  0  0  2  0  0  0  0  0  0
  190.0650  177.4880  147.6800 O   0  0  0  0  0  0  0  0  0  0  0  0
  187.7190  176.8480  143.5800 C   0  0  0  0  0  0  0  0  0  0  0  0
  186.7040  178.1050  146.8930 C   0  0  0  0  0  3  0  0  0  0  0  0
  189.0070  177.1370  145.6240 C   0  0  0  0  0  0  0  0  0  0  0  0
  188.8180  176.3670  142.9340 C   0  0  0  0  0  0  0  0  0  0  0  0
  186.8900  177.0880  140.2450 C   0  0  0  0  0  1  0  0  0  0  0  0
  188.4870  175.8770  141.6390 N   0  0  0  0  0  0  0  0  0  0  0  0
  189.1120  172.7510  139.8600 N   0  0  0  0  0  2  0  0  0  0  0  0
  192.2850  174.0990  141.4600 O   0  0  0  0  0  1  0  0  0  0  0  0
  186.6320  177.7280  145.5570 C   0  0  0  0  0  2  0  0  0  0  0  0
  187.7760  177.2500  144.9160 C   0  0  0  0  0  0  0  0  0  0  0  0
  191.2710  174.3400  142.3940 C   0  0  2  0  0  3  0  0  0  0  0  0
  193.8420  177.0520  145.4370 C   0  0  0  0  0  2  0  0  0  0  0  0
  195.0240  175.2840  146.0170 C   0  0  0  0  0  1  0  0  0  0  0  0
  194.1320  176.2270  146.5230 O   0  0  0  0  0  0  0  0  0  0  0  0
  1 19  1  0  0  0  0
  1  5  1  0  0  0  0
  2 13  1  0  0  0  0
  2 16  2  0  0  0  0
  3 17  1  0  0  0  0
  4  1  2  0  0  0  0
  6  8  2  0  0  0  0
  7 15  1  6  0  0  0
  7 27  1  0  0  0  0
  8 11  1  0  0  0  0
  9 14  1  6  0  0  0
  9 22  1  0  0  0  0
  9  7  1  0  0  0  0
 10 21  1  6  0  0  0
 10 22  1  0  0  0  0
 10  3  1  0  0  0  0
 11 28  1  0  0  0  0
 11  5  1  0  0  0  0
 12  8  1  1  0  0  0
 12  4  1  0  0  0  0
 17 26  1  0  0  0  0
 18 13  2  0  0  0  0
 19  2  1  0  0  0  0
 20  4  1  0  0  0  0
 20 17  2  0  0  0  0
 22 20  1  0  0  0  0
 23 14  1  0  0  0  0
 23 15  1  0  0  0  0
 25 18  1  0  0  0  0
 26 25  1  0  0  0  0
 26 19  2  0  0  0  0
 27 24  1  6  0  0  0
 27 12  1  0  0  0  0
 28 30  1  0  0  0  0
 29 30  1  0  0  0  0
M  END
>  <MODEL>
7

>  <REMARK>
 VINA RESULT:      -7.4      1.892      2.562
  Name = 
  2 active torsions:
  status: ('A' for Active; 'I' for Inactive)
    1  A    between atoms: N_11  and  C_28
    2  A    between atoms: C_28  and  O_30
                            x       y       z     vdW  Elec       q    Type
                         _______ _______ _______ _____ _____    ______ ____

>  <TORSDO>
F 2

$$$$
=
 OpenBabel11112416133D

 30 35  0  0  1  0  0  0  0  0999 V2000
  189.0660  175.1570  142.1410 C   0  0  0  0  0  0  0  0  0  0  0  0
  189.2420  173.8410  140.0060 C   0  0  0  0  0  0  0  0  0  0  0  0
  193.2130  174.5640  142.9970 C   0  0  0  0  0  2  0  0  0  0  0  0
  189.7200  175.7090  143.2700 C   0  0  0  0  0  0  0  0  0  0  0  0
  187.5680  175.2900  142.0520 C   0  0  0  0  0  2  0  0  0  0  0  0
  187.2460  178.2270  144.2010 O   0  0  0  0  0  0  0  0  0  0  0  0
  190.0560  175.2750  146.1670 C   0  0  1  0  0  3  0  0  0  0  0  0
  187.7340  177.1860  143.6840 C   0  0  0  0  0  0  0  0  0  0  0  0
  191.2950  176.0950  145.9100 C   0  0  1  0  0  3  0  0  0  0  0  0
  193.2260  175.2490  144.3770 C   0  0  1  0  0  3  0  0  0  0  0  0
  187.1140  176.5860  142.5390 N   0  0  0  0  0  0  0  0  0  0  0  0
  188.9910  176.5960  144.2570 C   0  0  1  0  0  3  0  0  0  0  0  0
  190.0190  173.1340  139.1420 N   0  0  0  0  0  0  0  0  0  0  0  0
  192.2070  175.7320  147.0620 C   0  0  0  0  0  2  0  0  0  0  0  0
  190.0450  175.0210  147.6620 C   0  0  0  0  0  2  0  0  0  0  0  0
  188.0200  173.9780  139.7380 O   0  0  0  0  0  0  0  0  0  0  0  0
  191.8070  174.7420  142.5310 C   0  0  0  0  0  0  0  0  0  0  0  0
  191.3470  172.9440  139.3460 C   0  0  0  0  0  3  0  0  0  0  0  0
  189.8140  174.4090  141.1760 C   0  0  0  0  0  0  0  0  0  0  0  0
  191.0890  175.4540  143.4440 C   0  0  0  0  0  0  0  0  0  0  0  0
  194.2090  176.4050  144.3560 C   0  0  0  0  0  1  0  0  0  0  0  0
  191.8680  175.7540  144.5970 N   0  0  0  0  0  0  0  0  0  0  0  0
  191.3700  175.3360  148.1900 N   0  0  0  0  0  2  0  0  0  0  0  0
  188.3380  176.9280  146.5420 O   0  0  0  0  0  1  0  0  0  0  0  0
  191.9650  173.4780  140.4720 C   0  0  0  0  0  2  0  0  0  0  0  0
  191.2080  174.2140  141.3850 C   0  0  0  0  0  0  0  0  0  0  0  0
  188.7760  175.9530  145.6400 C   0  0  2  0  0  3  0  0  0  0  0  0
  185.9020  177.1490  141.9620 C   0  0  0  0  0  2  0  0  0  0  0  0
  184.9940  178.2940  140.3110 C   0  0  0  0  0  1  0  0  0  0  0  0
  186.2250  177.9110  140.8380 O   0  0  0  0  0  0  0  0  0  0  0  0
  1  4  1  0  0  0  0
  2 19  1  0  0  0  0
  3 10  1  0  0  0  0
  4 20  2  0  0  0  0
  5  1  1  0  0  0  0
  5 11  1  0  0  0  0
  7 15  1  1  0  0  0
  8  6  2  0  0  0  0
  8 12  1  0  0  0  0
  9  7  1  0  0  0  0
  9 14  1  1  0  0  0
 10 21  1  6  0  0  0
 10 22  1  0  0  0  0
 11  8  1  0  0  0  0
 12  4  1  6  0  0  0
 12 27  1  0  0  0  0
 13 18  2  0  0  0  0
 13  2  1  0  0  0  0
 14 23  1  0  0  0  0
 15 23  1  0  0  0  0
 16  2  2  0  0  0  0
 17  3  1  0  0  0  0
 17 20  1  0  0  0  0
 18 25  1  0  0  0  0
 19 26  1  0  0  0  0
 19  1  2  0  0  0  0
 20 22  1  0  0  0  0
 22  9  1  0  0  0  0
 25 26  1  0  0  0  0
 26 17  2  0  0  0  0
 27  7  1  0  0  0  0
 27 24  1  1  0  0  0
 28 11  1  0  0  0  0
 29 30  1  0  0  0  0
 30 28  1  0  0  0  0
M  END
>  <MODEL>
8

>  <REMARK>
 VINA RESULT:      -7.1      2.611      7.044
  Name = 
  2 active torsions:
  status: ('A' for Active; 'I' for Inactive)
    1  A    between atoms: N_11  and  C_28
    2  A    between atoms: C_28  and  O_30
                            x       y       z     vdW  Elec       q    Type
                         _______ _______ _______ _____ _____    ______ ____

>  <TORSDO>
F 2

$$$$
=
 OpenBabel11112416133D

 30 35  0  0  1  0  0  0  0  0999 V2000
  191.4780  175.7530  143.9780 C   0  0  0  0  0  0  0  0  0  0  0  0
  190.1460  176.7380  145.8700 C   0  0  0  0  0  0  0  0  0  0  0  0
  194.9410  175.3620  146.4560 C   0  0  0  0  0  2  0  0  0  0  0  0
  192.6970  175.1800  143.5380 C   0  0  0  0  0  0  0  0  0  0  0  0
  190.3970  175.9970  142.9580 C   0  0  0  0  0  2  0  0  0  0  0  0
  191.4920  173.4930  140.5330 O   0  0  0  0  0  0  0  0  0  0  0  0
  195.0960  175.8310  141.9530 C   0  0  1  0  0  3  0  0  0  0  0  0
  191.5350  174.3130  141.4910 C   0  0  0  0  0  0  0  0  0  0  0  0
  195.6610  174.7000  142.7750 C   0  0  1  0  0  3  0  0  0  0  0  0
  195.9030  174.8520  145.3660 C   0  0  1  0  0  3  0  0  0  0  0  0
  190.3310  174.9210  141.9780 N   0  0  0  0  0  0  0  0  0  0  0  0
  192.8530  174.6220  142.1390 C   0  0  1  0  0  3  0  0  0  0  0  0
  190.0940  177.1240  147.1730 N   0  0  0  0  0  0  0  0  0  0  0  0
  197.1540  174.9440  142.7380 C   0  0  0  0  0  2  0  0  0  0  0  0
  196.2140  176.2430  141.0150 C   0  0  0  0  0  2  0  0  0  0  0  0
  189.1160  176.8880  145.1600 O   0  0  0  0  0  0  0  0  0  0  0  0
  193.6390  175.4980  145.7400 C   0  0  0  0  0  0  0  0  0  0  0  0
  191.1520  176.9920  148.0130 C   0  0  0  0  0  3  0  0  0  0  0  0
  191.3370  176.1750  145.3390 C   0  0  0  0  0  0  0  0  0  0  0  0
  193.7660  175.0960  144.4430 C   0  0  0  0  0  0  0  0  0  0  0  0
  196.4390  173.4900  145.7640 C   0  0  0  0  0  1  0  0  0  0  0  0
  195.1090  174.7370  144.1390 N   0  0  0  0  0  0  0  0  0  0  0  0
  197.4610  175.6610  141.5040 N   0  0  0  0  0  2  0  0  0  0  0  0
  194.0690  174.7210  140.0730 O   0  0  0  0  0  1  0  0  0  0  0  0
  192.3450  176.4450  147.5540 C   0  0  0  0  0  2  0  0  0  0  0  0
  192.4430  176.0320  146.2240 C   0  0  0  0  0  0  0  0  0  0  0  0
  193.7890  175.4480  141.2350 C   0  0  2  0  0  3  0  0  0  0  0  0
  189.0420  174.6240  141.3700 C   0  0  0  0  0  2  0  0  0  0  0  0
  187.9410  172.8070  141.9580 C   0  0  0  0  0  1  0  0  0  0  0  0
  188.1680  174.1280  142.3380 O   0  0  0  0  0  0  0  0  0  0  0  0
  1 19  1  0  0  0  0
  2 13  1  0  0  0  0
  4  1  2  0  0  0  0
  4 20  1  0  0  0  0
  5  1  1  0  0  0  0
  6  8  2  0  0  0  0
  7 15  1  6  0  0  0
  7  9  1  0  0  0  0
  8 11  1  0  0  0  0
  9 14  1  1  0  0  0
  9 22  1  0  0  0  0
 10 21  1  1  0  0  0
 10  3  1  0  0  0  0
 11  5  1  0  0  0  0
 12  8  1  6  0  0  0
 12  4  1  0  0  0  0
 13 18  2  0  0  0  0
 15 23  1  0  0  0  0
 16  2  2  0  0  0  0
 17 26  1  0  0  0  0
 17  3  1  0  0  0  0
 19  2  1  0  0  0  0
 19 26  2  0  0  0  0
 20 17  2  0  0  0  0
 22 20  1  0  0  0  0
 22 10  1  0  0  0  0
 23 14  1  0  0  0  0
 25 18  1  0  0  0  0
 26 25  1  0  0  0  0
 27 24  1  6  0  0  0
 27  7  1  0  0  0  0
 27 12  1  0  0  0  0
 28 11  1  0  0  0  0
 28 30  1  0  0  0  0
 29 30  1  0  0  0  0
M  END
>  <MODEL>
9

>  <REMARK>
 VINA RESULT:      -6.9      4.180      7.091
  Name = 
  2 active torsions:
  status: ('A' for Active; 'I' for Inactive)
    1  A    between atoms: N_11  and  C_28
    2  A    between atoms: C_28  and  O_30
                            x       y       z     vdW  Elec       q    Type
                         _______ _______ _______ _____ _____    ______ ____

>  <TORSDO>
F 2

$$$$
