=
 OpenBabel11112416403D

 32 37  0  0  1  0  0  0  0  0999 V2000
  184.0550  178.2360  143.2650 C   0  0  0  0  0  2  0  0  0  0  0  0
  189.1890  176.2060  142.9850 C   0  0  2  0  0  3  0  0  0  0  0  0
  190.7920  176.6620  147.8010 C   0  0  0  0  0  2  0  0  0  0  0  0
  191.3340  175.2500  147.6960 C   0  0  0  0  0  2  0  0  0  0  0  0
  190.2480  174.2980  141.6190 C   0  0  0  0  0  0  0  0  0  0  0  0
  191.3050  173.2400  141.6480 C   0  0  1  0  0  3  0  0  0  0  0  0
  186.9030  177.0110  142.5950 C   0  0  0  0  0  0  0  0  0  0  0  0
  188.1670  177.9060  144.5840 C   0  0  0  0  0  2  0  0  0  0  0  0
  193.4670  172.7470  142.0640 C   0  0  2  0  0  3  0  0  0  0  0  0
  186.1770  179.1740  143.7900 C   0  0  0  0  0  2  0  0  0  0  0  0
  189.6260  176.8120  146.8340 C   0  0  0  0  0  2  0  0  0  0  0  0
  189.1150  176.8080  144.3340 N   0  0  0  0  0  0  0  0  0  0  0  0
  189.9620  176.3660  145.4250 C   0  0  0  0  0  0  0  0  0  0  0  0
  191.2540  175.0720  143.7890 C   0  0  1  0  0  3  0  0  0  0  0  0
  193.1020  172.2530  140.6650 C   0  0  0  0  0  2  0  0  0  0  0  0
  184.6470  177.8400  141.9080 C   0  0  0  0  0  2  0  0  0  0  0  0
  187.3250  178.2650  143.3520 C   0  0  2  0  0  3  0  0  0  0  0  0
  191.7670  172.7720  140.3550 N   0  0  0  0  0  2  0  0  0  0  0  0
  185.6270  176.8170  142.0420 O   0  0  0  0  0  0  0  0  0  0  0  0
  185.0730  178.3740  144.3070 N   0  0  0  0  0  0  0  0  0  0  0  0
  191.9030  175.0420  146.2990 C   0  0  0  0  0  2  0  0  0  0  0  0
  190.9510  175.4690  145.2030 C   0  0  0  0  0  0  0  0  0  0  0  0
  192.1260  173.8900  143.7030 N   0  0  0  0  0  2  0  0  0  0  0  0
  187.7990  176.0390  142.4420 C   0  0  0  0  0  3  0  0  0  0  0  0
  189.3370  174.2520  140.7180 N   0  0  0  0  0  2  0  0  0  0  0  0
  193.4240  171.5670  143.0340 C   0  0  0  0  0  1  0  0  0  0  0  0
  189.9450  174.8690  142.9970 C   0  0  1  0  0  3  0  0  0  0  0  0
  192.4590  173.7620  142.3410 N   0  0  2  0  0  0  0  0  0  0  0  0
  184.4730  179.1340  145.3910 C   0  0  0  0  0  2  0  0  0  0  0  0
  184.6900  178.4180  146.7140 C   0  0  0  0  0  3  0  0  0  0  0  0
  185.8200  179.0900  147.4650 C   0  0  0  0  0  1  0  0  0  0  0  0
  185.0490  176.9640  146.4710 C   0  0  0  0  0  1  0  0  0  0  0  0
  1 20  1  0  0  0  0
  2 24  1  1  0  0  0
  2 27  1  0  0  0  0
  2 12  1  0  0  0  0
  4  3  1  0  0  0  0
  5  6  1  0  0  0  0
  6 18  1  6  0  0  0
  6 28  1  0  0  0  0
  7 17  1  0  0  0  0
  9 28  1  0  0  0  0
  9 26  1  1  0  0  0
 10 20  1  0  0  0  0
 11  3  1  0  0  0  0
 12  8  1  0  0  0  0
 12 13  1  0  0  0  0
 13 11  1  0  0  0  0
 14 23  1  1  0  0  0
 14 22  1  0  0  0  0
 15  9  1  0  0  0  0
 16 19  1  0  0  0  0
 16  1  1  0  0  0  0
 17 10  1  1  0  0  0
 17  8  1  0  0  0  0
 18 15  1  0  0  0  0
 19  7  1  0  0  0  0
 20 29  1  0  0  0  0
 21  4  1  0  0  0  0
 22 13  2  0  0  0  0
 22 21  1  0  0  0  0
 24  7  2  0  0  0  0
 25  5  2  0  0  0  0
 27  5  1  6  0  0  0
 27 14  1  0  0  0  0
 28 23  1  1  0  0  0
 29 30  1  0  0  0  0
 30 31  1  0  0  0  0
 32 30  1  0  0  0  0
M  END
>  <MODEL>
1

>  <REMARK>
 VINA RESULT:      -8.7      0.000      0.000
  Name = 
  2 active torsions:
  status: ('A' for Active; 'I' for Inactive)
    1  A    between atoms: N_20  and  C_29
    2  A    between atoms: C_29  and  C_30
                            x       y       z     vdW  Elec       q    Type
                         _______ _______ _______ _____ _____    ______ ____

>  <TORSDO>
F 2

$$$$
=
 OpenBabel11112416403D

 32 37  0  0  1  0  0  0  0  0999 V2000
  190.0700  173.5520  138.6870 C   0  0  0  0  0  2  0  0  0  0  0  0
  188.1780  175.1020  143.6440 C   0  0  2  0  0  3  0  0  0  0  0  0
  192.3960  174.9520  146.5020 C   0  0  0  0  0  2  0  0  0  0  0  0
  191.9910  176.2970  147.0720 C   0  0  0  0  0  2  0  0  0  0  0  0
  186.3730  176.7800  144.3860 C   0  0  0  0  0  0  0  0  0  0  0  0
  185.9950  177.7430  145.4670 C   0  0  1  0  0  3  0  0  0  0  0  0
  188.5170  174.4630  141.2990 C   0  0  0  0  0  0  0  0  0  0  0  0
  190.1740  173.6490  143.0160 C   0  0  0  0  0  2  0  0  0  0  0  0
  185.7480  178.0850  147.6830 C   0  0  2  0  0  3  0  0  0  0  0  0
  190.0980  172.4880  140.8150 C   0  0  0  0  0  2  0  0  0  0  0  0
  191.8050  174.8140  145.1060 C   0  0  0  0  0  2  0  0  0  0  0  0
  189.5550  174.6340  143.9170 N   0  0  0  0  0  0  0  0  0  0  0  0
  190.3180  175.0990  145.0590 C   0  0  0  0  0  0  0  0  0  0  0  0
  188.2580  176.1240  145.9130 C   0  0  1  0  0  3  0  0  0  0  0  0
  184.4560  178.4790  146.9700 C   0  0  0  0  0  2  0  0  0  0  0  0
  188.5680  173.7700  138.8970 C   0  0  0  0  0  2  0  0  0  0  0  0
  189.2660  173.2510  141.8440 C   0  0  2  0  0  3  0  0  0  0  0  0
  184.5810  178.0490  145.5750 N   0  0  0  0  0  2  0  0  0  0  0  0
  188.3150  174.7130  139.9320 O   0  0  0  0  0  0  0  0  0  0  0  0
  190.8040  173.4230  139.9460 N   0  0  0  0  0  0  0  0  0  0  0  0
  190.4780  176.3280  147.2380 C   0  0  0  0  0  2  0  0  0  0  0  0
  189.7370  175.8850  145.9960 C   0  0  0  0  0  0  0  0  0  0  0  0
  187.8080  177.2150  146.7910 N   0  0  0  0  0  2  0  0  0  0  0  0
  188.0200  175.3370  142.1700 C   0  0  0  0  0  3  0  0  0  0  0  0
  185.7540  176.8220  143.2630 N   0  0  0  0  0  2  0  0  0  0  0  0
  186.5560  179.3480  147.9800 C   0  0  0  0  0  1  0  0  0  0  0  0
  187.8360  176.3650  144.4480 C   0  0  1  0  0  3  0  0  0  0  0  0
  186.4010  177.1890  146.7360 N   0  0  2  0  0  0  0  0  0  0  0  0
  192.0880  172.8190  139.6310 C   0  0  0  0  0  2  0  0  0  0  0  0
  193.0750  173.0690  140.7590 C   0  0  0  0  0  3  0  0  0  0  0  0
  193.2090  174.5600  140.9840 C   0  0  0  0  0  1  0  0  0  0  0  0
  194.4330  172.4950  140.4040 C   0  0  0  0  0  1  0  0  0  0  0  0
  1 16  1  0  0  0  0
  1 20  1  0  0  0  0
  2 24  1  6  0  0  0
  2 12  1  0  0  0  0
  2 27  1  0  0  0  0
  3  4  1  0  0  0  0
  4 21  1  0  0  0  0
  6  5  1  6  0  0  0
  6 18  1  0  0  0  0
  6 28  1  0  0  0  0
  7 17  1  0  0  0  0
  7 24  2  0  0  0  0
  8 12  1  0  0  0  0
  9 26  1  6  0  0  0
 11  3  1  0  0  0  0
 12 13  1  0  0  0  0
 13 11  1  0  0  0  0
 13 22  2  0  0  0  0
 14 22  1  6  0  0  0
 14 23  1  0  0  0  0
 15  9  1  0  0  0  0
 16 19  1  0  0  0  0
 17 10  1  6  0  0  0
 17  8  1  0  0  0  0
 18 15  1  0  0  0  0
 19  7  1  0  0  0  0
 20 10  1  0  0  0  0
 22 21  1  0  0  0  0
 25  5  2  0  0  0  0
 27  5  1  1  0  0  0
 27 14  1  0  0  0  0
 28 23  1  6  0  0  0
 28  9  1  0  0  0  0
 29 20  1  0  0  0  0
 29 30  1  0  0  0  0
 30 31  1  0  0  0  0
 32 30  1  0  0  0  0
M  END
>  <MODEL>
2

>  <REMARK>
 VINA RESULT:      -8.1      1.866      7.231
  Name = 
  2 active torsions:
  status: ('A' for Active; 'I' for Inactive)
    1  A    between atoms: N_20  and  C_29
    2  A    between atoms: C_29  and  C_30
                            x       y       z     vdW  Elec       q    Type
                         _______ _______ _______ _____ _____    ______ ____

>  <TORSDO>
F 2

$$$$
=
 OpenBabel11112416403D

 32 37  0  0  1  0  0  0  0  0999 V2000
  184.8470  177.9070  142.3300 C   0  0  0  0  0  2  0  0  0  0  0  0
  190.0530  176.1590  142.9630 C   0  0  2  0  0  3  0  0  0  0  0  0
  190.8100  176.8180  147.9600 C   0  0  0  0  0  2  0  0  0  0  0  0
  191.4330  175.4360  147.9910 C   0  0  0  0  0  2  0  0  0  0  0  0
  191.4200  174.2820  141.8530 C   0  0  0  0  0  0  0  0  0  0  0  0
  192.5090  173.2850  142.0900 C   0  0  1  0  0  3  0  0  0  0  0  0
  187.8250  176.8270  142.1770 C   0  0  0  0  0  0  0  0  0  0  0  0
  188.6950  177.8380  144.3170 C   0  0  0  0  0  2  0  0  0  0  0  0
  194.5950  172.9230  142.8700 C   0  0  2  0  0  3  0  0  0  0  0  0
  186.8020  178.9740  143.1660 C   0  0  0  0  0  2  0  0  0  0  0  0
  189.8150  176.8800  146.8100 C   0  0  0  0  0  2  0  0  0  0  0  0
  189.7260  176.7880  144.2620 N   0  0  0  0  0  0  0  0  0  0  0  0
  190.4010  176.4210  145.4910 C   0  0  0  0  0  0  0  0  0  0  0  0
  192.0110  175.1620  144.1320 C   0  0  1  0  0  3  0  0  0  0  0  0
  194.4930  172.3760  141.4480 C   0  0  0  0  0  2  0  0  0  0  0  0
  185.6750  177.5130  141.1020 C   0  0  0  0  0  2  0  0  0  0  0  0
  188.0510  178.1200  142.9520 C   0  0  2  0  0  3  0  0  0  0  0  0
  193.2030  172.8130  140.9060 N   0  0  0  0  0  2  0  0  0  0  0  0
  186.6700  176.5500  141.4280 O   0  0  0  0  0  0  0  0  0  0  0  0
  185.6700  178.1260  143.5200 N   0  0  0  0  0  0  0  0  0  0  0  0
  192.2350  175.2270  146.7140 C   0  0  0  0  0  2  0  0  0  0  0  0
  191.4580  175.5750  145.4640 C   0  0  0  0  0  0  0  0  0  0  0  0
  192.9440  174.0280  144.2290 N   0  0  0  0  0  2  0  0  0  0  0  0
  188.7830  175.9030  142.2060 C   0  0  0  0  0  3  0  0  0  0  0  0
  190.6740  174.1630  140.8160 N   0  0  0  0  0  2  0  0  0  0  0  0
  194.4520  171.7660  143.8580 C   0  0  0  0  0  1  0  0  0  0  0  0
  190.8630  174.8680  143.1430 C   0  0  1  0  0  3  0  0  0  0  0  0
  193.5040  173.8870  142.9450 N   0  0  2  0  0  0  0  0  0  0  0  0
  184.8600  178.8770  144.4650 C   0  0  0  0  0  2  0  0  0  0  0  0
  184.8530  178.1810  145.8160 C   0  0  0  0  0  3  0  0  0  0  0  0
  185.6300  179.0160  146.8120 C   0  0  0  0  0  1  0  0  0  0  0  0
  185.4980  176.8130  145.7040 C   0  0  0  0  0  1  0  0  0  0  0  0
  1 20  1  0  0  0  0
  2 24  1  1  0  0  0
  2 27  1  0  0  0  0
  2 12  1  0  0  0  0
  3  4  1  0  0  0  0
  5  6  1  0  0  0  0
  6 18  1  6  0  0  0
  6 28  1  0  0  0  0
  7 24  2  0  0  0  0
  7 17  1  0  0  0  0
  9 28  1  0  0  0  0
  9 26  1  1  0  0  0
 10 20  1  0  0  0  0
 11  3  1  0  0  0  0
 12  8  1  0  0  0  0
 12 13  1  0  0  0  0
 13 11  1  0  0  0  0
 14 23  1  1  0  0  0
 14 22  1  0  0  0  0
 15  9  1  0  0  0  0
 16 19  1  0  0  0  0
 16  1  1  0  0  0  0
 17 10  1  1  0  0  0
 17  8  1  0  0  0  0
 18 15  1  0  0  0  0
 19  7  1  0  0  0  0
 20 29  1  0  0  0  0
 21  4  1  0  0  0  0
 22 13  2  0  0  0  0
 22 21  1  0  0  0  0
 25  5  2  0  0  0  0
 27  5  1  6  0  0  0
 27 14  1  0  0  0  0
 28 23  1  1  0  0  0
 29 30  1  0  0  0  0
 30 31  1  0  0  0  0
 32 30  1  0  0  0  0
M  END
>  <MODEL>
3

>  <REMARK>
 VINA RESULT:      -8.1      0.963      1.015
  Name = 
  2 active torsions:
  status: ('A' for Active; 'I' for Inactive)
    1  A    between atoms: N_20  and  C_29
    2  A    between atoms: C_29  and  C_30
                            x       y       z     vdW  Elec       q    Type
                         _______ _______ _______ _____ _____    ______ ____

>  <TORSDO>
F 2

$$$$
=
 OpenBabel11112416403D

 32 37  0  0  1  0  0  0  0  0999 V2000
  185.7690  179.3080  147.4350 C   0  0  0  0  0  2  0  0  0  0  0  0
  189.8380  175.9040  145.8840 C   0  0  2  0  0  3  0  0  0  0  0  0
  188.1780  174.2300  141.3650 C   0  0  0  0  0  2  0  0  0  0  0  0
  189.5730  174.4770  140.8240 C   0  0  0  0  0  2  0  0  0  0  0  0
  192.3920  175.9680  146.1940 C   0  0  0  0  0  0  0  0  0  0  0  0
  193.6920  175.5890  145.5580 C   0  0  1  0  0  3  0  0  0  0  0  0
  188.3210  177.4750  147.0040 C   0  0  0  0  0  0  0  0  0  0  0  0
  187.3630  175.9080  145.2770 C   0  0  0  0  0  2  0  0  0  0  0  0
  194.8970  173.9660  144.5560 C   0  0  2  0  0  3  0  0  0  0  0  0
  185.7940  176.9970  146.8750 C   0  0  0  0  0  2  0  0  0  0  0  0
  187.9340  175.1730  142.5350 C   0  0  0  0  0  2  0  0  0  0  0  0
  188.7620  175.6470  144.9010 N   0  0  0  0  0  0  0  0  0  0  0  0
  189.0340  175.1250  143.5760 C   0  0  0  0  0  0  0  0  0  0  0  0
  191.3330  174.6820  144.3120 C   0  0  1  0  0  3  0  0  0  0  0  0
  195.7070  174.5480  145.7130 C   0  0  0  0  0  2  0  0  0  0  0  0
  186.9260  179.0140  148.3960 C   0  0  0  0  0  2  0  0  0  0  0  0
  187.2170  176.4690  146.6990 C   0  0  2  0  0  3  0  0  0  0  0  0
  194.8190  175.4420  146.4600 N   0  0  0  0  0  2  0  0  0  0  0  0
  188.1180  178.6820  147.6940 O   0  0  0  0  0  0  0  0  0  0  0  0
  185.6880  178.3470  146.3350 N   0  0  0  0  0  0  0  0  0  0  0  0
  190.5900  174.1070  141.8950 C   0  0  0  0  0  2  0  0  0  0  0  0
  190.2830  174.7260  143.2410 C   0  0  0  0  0  0  0  0  0  0  0  0
  192.6920  174.5280  143.7710 N   0  0  0  0  0  2  0  0  0  0  0  0
  189.5570  177.1940  146.5970 C   0  0  0  0  0  3  0  0  0  0  0  0
  192.3910  176.7900  147.1790 N   0  0  0  0  0  2  0  0  0  0  0  0
  195.3850  174.5870  143.2470 C   0  0  0  0  0  1  0  0  0  0  0  0
  191.2230  175.9250  145.2210 C   0  0  1  0  0  3  0  0  0  0  0  0
  193.5230  174.3210  144.8890 N   0  0  2  0  0  0  0  0  0  0  0  0
  184.3600  178.4690  145.7600 C   0  0  0  0  0  2  0  0  0  0  0  0
  184.4570  178.9100  144.3080 C   0  0  0  0  0  3  0  0  0  0  0  0
  184.7830  177.7120  143.4430 C   0  0  0  0  0  1  0  0  0  0  0  0
  185.5490  179.9510  144.1500 C   0  0  0  0  0  1  0  0  0  0  0  0
  1 16  1  0  0  0  0
  2 24  1  6  0  0  0
  3 11  1  0  0  0  0
  4  3  1  0  0  0  0
  4 21  1  0  0  0  0
  5 25  2  0  0  0  0
  6  5  1  1  0  0  0
  6 18  1  0  0  0  0
  7 19  1  0  0  0  0
  9 26  1  6  0  0  0
  9 28  1  0  0  0  0
  9 15  1  0  0  0  0
 11 13  1  0  0  0  0
 12  8  1  0  0  0  0
 12  2  1  0  0  0  0
 13 12  1  0  0  0  0
 14 22  1  6  0  0  0
 14 27  1  0  0  0  0
 15 18  1  0  0  0  0
 17  8  1  6  0  0  0
 17 10  1  0  0  0  0
 17  7  1  0  0  0  0
 19 16  1  0  0  0  0
 20 10  1  0  0  0  0
 20  1  1  0  0  0  0
 21 22  1  0  0  0  0
 22 13  2  0  0  0  0
 23 14  1  0  0  0  0
 24  7  2  0  0  0  0
 27  2  1  0  0  0  0
 27  5  1  1  0  0  0
 28 23  1  6  0  0  0
 28  6  1  0  0  0  0
 29 20  1  0  0  0  0
 30 29  1  0  0  0  0
 31 30  1  0  0  0  0
 32 30  1  0  0  0  0
M  END
>  <MODEL>
4

>  <REMARK>
 VINA RESULT:      -7.8      2.200      4.506
  Name = 
  2 active torsions:
  status: ('A' for Active; 'I' for Inactive)
    1  A    between atoms: N_20  and  C_29
    2  A    between atoms: C_29  and  C_30
                            x       y       z     vdW  Elec       q    Type
                         _______ _______ _______ _____ _____    ______ ____

>  <TORSDO>
F 2

$$$$
=
 OpenBabel11112416403D

 32 37  0  0  1  0  0  0  0  0999 V2000
  194.6960  172.9520  141.7540 C   0  0  0  0  0  2  0  0  0  0  0  0
  189.9260  175.0000  143.6530 C   0  0  2  0  0  3  0  0  0  0  0  0
  191.2320  176.6480  148.2950 C   0  0  0  0  0  2  0  0  0  0  0  0
  190.4710  177.9240  147.9960 C   0  0  0  0  0  2  0  0  0  0  0  0
  187.9780  176.2450  142.5210 C   0  0  0  0  0  0  0  0  0  0  0  0
  186.9250  177.2850  142.7390 C   0  0  1  0  0  3  0  0  0  0  0  0
  191.7590  173.9680  142.3880 C   0  0  0  0  0  0  0  0  0  0  0  0
  191.9280  174.0420  144.9030 C   0  0  0  0  0  2  0  0  0  0  0  0
  185.2650  178.0350  144.0690 C   0  0  2  0  0  3  0  0  0  0  0  0
  193.3870  172.4410  143.6740 C   0  0  0  0  0  2  0  0  0  0  0  0
  191.7130  176.0450  146.9820 C   0  0  0  0  0  2  0  0  0  0  0  0
  190.8110  174.9980  144.8380 N   0  0  0  0  0  0  0  0  0  0  0  0
  190.6070  175.8960  145.9570 C   0  0  0  0  0  0  0  0  0  0  0  0
  188.4340  176.4860  144.9810 C   0  0  1  0  0  3  0  0  0  0  0  0
  184.7360  177.8920  142.6430 C   0  0  0  0  0  2  0  0  0  0  0  0
  193.4150  172.7950  140.9280 C   0  0  0  0  0  2  0  0  0  0  0  0
  192.0390  173.1600  143.6510 C   0  0  2  0  0  3  0  0  0  0  0  0
  185.7720  177.2110  141.8610 N   0  0  0  0  0  2  0  0  0  0  0  0
  192.4880  173.8410  141.1950 O   0  0  0  0  0  0  0  0  0  0  0  0
  194.4300  173.3130  143.1470 N   0  0  0  0  0  0  0  0  0  0  0  0
  189.2220  177.5780  147.1970 C   0  0  0  0  0  2  0  0  0  0  0  0
  189.5070  176.6840  146.0110 C   0  0  0  0  0  0  0  0  0  0  0  0
  187.4520  177.5810  144.9650 N   0  0  0  0  0  2  0  0  0  0  0  0
  190.7590  174.8460  142.4140 C   0  0  0  0  0  3  0  0  0  0  0  0
  188.2470  175.8640  141.3260 N   0  0  0  0  0  2  0  0  0  0  0  0
  185.6000  179.5040  144.3290 C   0  0  0  0  0  1  0  0  0  0  0  0
  189.0630  176.2680  143.5880 C   0  0  1  0  0  3  0  0  0  0  0  0
  186.4310  177.1620  144.0900 N   0  0  2  0  0  0  0  0  0  0  0  0
  195.6400  173.0270  143.9000 C   0  0  0  0  0  2  0  0  0  0  0  0
  195.5910  173.7210  145.2510 C   0  0  0  0  0  3  0  0  0  0  0  0
  195.4860  175.2160  145.0410 C   0  0  0  0  0  1  0  0  0  0  0  0
  196.8490  173.4160  146.0420 C   0  0  0  0  0  1  0  0  0  0  0  0
  1 20  1  0  0  0  0
  2 24  1  6  0  0  0
  2 12  1  0  0  0  0
  4  3  1  0  0  0  0
  5  6  1  0  0  0  0
  6 18  1  6  0  0  0
  6 28  1  0  0  0  0
  7 24  2  0  0  0  0
  7 17  1  0  0  0  0
  9 28  1  0  0  0  0
  9 26  1  6  0  0  0
 11  3  1  0  0  0  0
 12  8  1  0  0  0  0
 12 13  1  0  0  0  0
 13 22  2  0  0  0  0
 13 11  1  0  0  0  0
 14 23  1  6  0  0  0
 14 22  1  0  0  0  0
 15  9  1  0  0  0  0
 16 19  1  0  0  0  0
 16  1  1  0  0  0  0
 17 10  1  6  0  0  0
 17  8  1  0  0  0  0
 18 15  1  0  0  0  0
 19  7  1  0  0  0  0
 20 10  1  0  0  0  0
 20 29  1  0  0  0  0
 21  4  1  0  0  0  0
 22 21  1  0  0  0  0
 25  5  2  0  0  0  0
 27  5  1  6  0  0  0
 27  2  1  0  0  0  0
 27 14  1  0  0  0  0
 28 23  1  1  0  0  0
 29 30  1  0  0  0  0
 30 32  1  0  0  0  0
 31 30  1  0  0  0  0
M  END
>  <MODEL>
5

>  <REMARK>
 VINA RESULT:      -7.7      2.309      7.486
  Name = 
  2 active torsions:
  status: ('A' for Active; 'I' for Inactive)
    1  A    between atoms: N_20  and  C_29
    2  A    between atoms: C_29  and  C_30
                            x       y       z     vdW  Elec       q    Type
                         _______ _______ _______ _____ _____    ______ ____

>  <TORSDO>
F 2

$$$$
=
 OpenBabel11112416403D

 32 37  0  0  1  0  0  0  0  0999 V2000
  183.9500  178.6650  143.9080 C   0  0  0  0  0  2  0  0  0  0  0  0
  188.2090  175.9700  141.6370 C   0  0  2  0  0  3  0  0  0  0  0  0
  190.6450  174.1600  145.7320 C   0  0  0  0  0  2  0  0  0  0  0  0
  190.7520  172.8300  145.0120 C   0  0  0  0  0  2  0  0  0  0  0  0
  188.4630  174.5960  139.4750 C   0  0  0  0  0  0  0  0  0  0  0  0
  189.1780  173.4320  138.8650 C   0  0  1  0  0  3  0  0  0  0  0  0
  186.2010  177.2860  142.1490 C   0  0  0  0  0  0  0  0  0  0  0  0
  187.9720  177.0570  143.9290 C   0  0  0  0  0  2  0  0  0  0  0  0
  191.1580  172.4100  138.5160 C   0  0  2  0  0  3  0  0  0  0  0  0
  186.3050  178.8920  144.1600 C   0  0  0  0  0  2  0  0  0  0  0  0
  189.4220  174.9020  145.2090 C   0  0  0  0  0  2  0  0  0  0  0  0
  188.5260  175.9890  143.0820 N   0  0  0  0  0  0  0  0  0  0  0  0
  189.3860  174.9970  143.6980 C   0  0  0  0  0  0  0  0  0  0  0  0
  189.9860  174.2370  141.4420 C   0  0  1  0  0  3  0  0  0  0  0  0
  190.4470  172.5920  137.1760 C   0  0  0  0  0  2  0  0  0  0  0  0
  184.1790  178.7350  142.3940 C   0  0  0  0  0  2  0  0  0  0  0  0
  187.0700  178.0300  143.1570 C   0  0  2  0  0  3  0  0  0  0  0  0
  189.2740  173.4370  137.4180 N   0  0  0  0  0  2  0  0  0  0  0  0
  184.8480  177.5760  141.9110 O   0  0  0  0  0  0  0  0  0  0  0  0
  185.1240  178.1810  144.6350 N   0  0  0  0  0  0  0  0  0  0  0  0
  191.0040  173.0890  143.5330 C   0  0  0  0  0  2  0  0  0  0  0  0
  190.0400  174.0900  142.9350 C   0  0  0  0  0  0  0  0  0  0  0  0
  190.4720  173.0430  140.7350 N   0  0  0  0  0  2  0  0  0  0  0  0
  186.7580  176.3020  141.4470 C   0  0  0  0  0  3  0  0  0  0  0  0
  187.4380  175.0870  138.8790 N   0  0  0  0  0  2  0  0  0  0  0  0
  190.9520  170.9740  138.9970 C   0  0  0  0  0  1  0  0  0  0  0  0
  188.5590  174.6200  140.9940 C   0  0  1  0  0  3  0  0  0  0  0  0
  190.5280  173.4050  139.3750 N   0  0  2  0  0  0  0  0  0  0  0  0
  184.9420  178.5480  146.0290 C   0  0  0  0  0  2  0  0  0  0  0  0
  186.2180  178.2790  146.8110 C   0  0  0  0  0  3  0  0  0  0  0  0
  186.2010  176.8540  147.3210 C   0  0  0  0  0  1  0  0  0  0  0  0
  186.3200  179.2290  147.9890 C   0  0  0  0  0  1  0  0  0  0  0  0
  1 20  1  0  0  0  0
  2 24  1  1  0  0  0
  2 12  1  0  0  0  0
  4  3  1  0  0  0  0
  6 18  1  6  0  0  0
  6 28  1  0  0  0  0
  6  5  1  0  0  0  0
  7 17  1  0  0  0  0
  9 26  1  1  0  0  0
  9 28  1  0  0  0  0
 10 20  1  0  0  0  0
 11  3  1  0  0  0  0
 12 13  1  0  0  0  0
 12  8  1  0  0  0  0
 13 11  1  0  0  0  0
 14 23  1  6  0  0  0
 14 22  1  0  0  0  0
 15 18  1  0  0  0  0
 15  9  1  0  0  0  0
 16  1  1  0  0  0  0
 17  8  1  1  0  0  0
 17 10  1  0  0  0  0
 19  7  1  0  0  0  0
 19 16  1  0  0  0  0
 20 29  1  0  0  0  0
 21  4  1  0  0  0  0
 22 21  1  0  0  0  0
 22 13  2  0  0  0  0
 24  7  2  0  0  0  0
 25  5  2  0  0  0  0
 27  5  1  6  0  0  0
 27 14  1  0  0  0  0
 27  2  1  0  0  0  0
 28 23  1  1  0  0  0
 29 30  1  0  0  0  0
 30 31  1  0  0  0  0
 30 32  1  0  0  0  0
M  END
>  <MODEL>
6

>  <REMARK>
 VINA RESULT:      -7.4      1.880      2.671
  Name = 
  2 active torsions:
  status: ('A' for Active; 'I' for Inactive)
    1  A    between atoms: N_20  and  C_29
    2  A    between atoms: C_29  and  C_30
                            x       y       z     vdW  Elec       q    Type
                         _______ _______ _______ _____ _____    ______ ____

>  <TORSDO>
F 2

$$$$
=
 OpenBabel11112416403D

 32 37  0  0  1  0  0  0  0  0999 V2000
  195.7070  174.4910  145.1760 C   0  0  0  0  0  2  0  0  0  0  0  0
  190.6670  176.7390  144.8590 C   0  0  2  0  0  3  0  0  0  0  0  0
  188.6900  174.3830  140.7950 C   0  0  0  0  0  2  0  0  0  0  0  0
  187.4220  174.1790  141.6000 C   0  0  0  0  0  2  0  0  0  0  0  0
  188.9810  177.5230  146.6390 C   0  0  0  0  0  0  0  0  0  0  0  0
  187.5220  177.6590  146.9380 C   0  0  1  0  0  3  0  0  0  0  0  0
  192.9630  176.0660  145.4060 C   0  0  0  0  0  0  0  0  0  0  0  0
  192.1420  175.7240  143.0470 C   0  0  0  0  0  2  0  0  0  0  0  0
  185.5090  178.3730  146.2130 C   0  0  2  0  0  3  0  0  0  0  0  0
  194.5990  175.6970  143.4510 C   0  0  0  0  0  2  0  0  0  0  0  0
  189.8680  174.4820  141.7550 C   0  0  0  0  0  2  0  0  0  0  0  0
  190.8010  175.9810  143.5960 N   0  0  0  0  0  0  0  0  0  0  0  0
  189.6510  175.4940  142.8600 C   0  0  0  0  0  0  0  0  0  0  0  0
  188.2370  176.8570  144.3330 C   0  0  1  0  0  3  0  0  0  0  0  0
  185.7800  178.9650  147.5950 C   0  0  0  0  0  2  0  0  0  0  0  0
  195.3180  175.6320  146.1240 C   0  0  0  0  0  2  0  0  0  0  0  0
  193.2700  176.2800  143.9280 C   0  0  2  0  0  3  0  0  0  0  0  0
  187.1700  178.6510  147.9370 N   0  0  0  0  0  2  0  0  0  0  0  0
  193.9150  175.6640  146.3570 O   0  0  0  0  0  0  0  0  0  0  0  0
  194.8040  174.3750  144.0310 N   0  0  0  0  0  0  0  0  0  0  0  0
  187.1770  175.4120  142.4580 C   0  0  0  0  0  2  0  0  0  0  0  0
  188.3980  175.8380  143.2430 C   0  0  0  0  0  0  0  0  0  0  0  0
  186.8630  176.9190  144.8550 N   0  0  0  0  0  2  0  0  0  0  0  0
  191.7180  176.2770  145.8260 C   0  0  0  0  0  3  0  0  0  0  0  0
  189.8310  177.6360  147.5940 N   0  0  0  0  0  2  0  0  0  0  0  0
  184.5830  177.1660  146.3620 C   0  0  0  0  0  1  0  0  0  0  0  0
  189.2610  176.6030  145.4600 C   0  0  1  0  0  3  0  0  0  0  0  0
  186.8370  178.0280  145.7220 N   0  0  2  0  0  0  0  0  0  0  0  0
  195.4890  173.5770  143.0280 C   0  0  0  0  0  2  0  0  0  0  0  0
  194.5610  172.4960  142.4980 C   0  0  0  0  0  3  0  0  0  0  0  0
  193.9500  172.9590  141.1920 C   0  0  0  0  0  1  0  0  0  0  0  0
  193.4520  172.2210  143.4960 C   0  0  0  0  0  1  0  0  0  0  0  0
  1 16  1  0  0  0  0
  2 27  1  0  0  0  0
  2 24  1  1  0  0  0
  3  4  1  0  0  0  0
  3 11  1  0  0  0  0
  4 21  1  0  0  0  0
  5 25  2  0  0  0  0
  6  5  1  6  0  0  0
  6 18  1  0  0  0  0
  7 24  2  0  0  0  0
  7 19  1  0  0  0  0
  8 12  1  0  0  0  0
  9 26  1  1  0  0  0
  9 15  1  0  0  0  0
 10 17  1  0  0  0  0
 10 20  1  0  0  0  0
 11 13  1  0  0  0  0
 12  2  1  0  0  0  0
 13 22  2  0  0  0  0
 13 12  1  0  0  0  0
 14 22  1  6  0  0  0
 14 23  1  0  0  0  0
 14 27  1  0  0  0  0
 15 18  1  0  0  0  0
 16 19  1  0  0  0  0
 17  8  1  6  0  0  0
 17  7  1  0  0  0  0
 20  1  1  0  0  0  0
 21 22  1  0  0  0  0
 27  5  1  1  0  0  0
 28 23  1  6  0  0  0
 28  9  1  0  0  0  0
 28  6  1  0  0  0  0
 29 20  1  0  0  0  0
 30 29  1  0  0  0  0
 30 32  1  0  0  0  0
 31 30  1  0  0  0  0
M  END
>  <MODEL>
7

>  <REMARK>
 VINA RESULT:      -7.4      2.625      8.370
  Name = 
  2 active torsions:
  status: ('A' for Active; 'I' for Inactive)
    1  A    between atoms: N_20  and  C_29
    2  A    between atoms: C_29  and  C_30
                            x       y       z     vdW  Elec       q    Type
                         _______ _______ _______ _____ _____    ______ ____

>  <TORSDO>
F 2

$$$$
=
 OpenBabel11112416403D

 32 37  0  0  1  0  0  0  0  0999 V2000
  193.8160  175.7430  143.6540 C   0  0  0  0  0  2  0  0  0  0  0  0
  188.3200  176.1940  143.2700 C   0  0  2  0  0  3  0  0  0  0  0  0
  186.8880  176.1210  148.1610 C   0  0  0  0  0  2  0  0  0  0  0  0
  185.9730  177.2890  147.8520 C   0  0  0  0  0  2  0  0  0  0  0  0
  186.7740  177.4770  141.6610 C   0  0  0  0  0  0  0  0  0  0  0  0
  185.4620  178.1900  141.5640 C   0  0  1  0  0  3  0  0  0  0  0  0
  190.7410  176.0000  142.9170 C   0  0  0  0  0  0  0  0  0  0  0  0
  189.7710  175.1350  145.0770 C   0  0  0  0  0  2  0  0  0  0  0  0
  183.2470  178.1260  141.9860 C   0  0  2  0  0  3  0  0  0  0  0  0
  192.0400  174.3550  144.4140 C   0  0  0  0  0  2  0  0  0  0  0  0
  188.0540  176.1410  147.1810 C   0  0  0  0  0  2  0  0  0  0  0  0
  188.5540  175.8690  144.6940 N   0  0  0  0  0  0  0  0  0  0  0  0
  187.6130  176.2340  145.7350 C   0  0  0  0  0  0  0  0  0  0  0  0
  186.0160  176.8270  143.9670 C   0  0  1  0  0  3  0  0  0  0  0  0
  183.4650  178.4610  140.5120 C   0  0  0  0  0  2  0  0  0  0  0  0
  193.1430  175.7270  142.2770 C   0  0  0  0  0  2  0  0  0  0  0  0
  190.6860  174.8230  143.8850 C   0  0  2  0  0  3  0  0  0  0  0  0
  184.8930  178.2880  140.2330 N   0  0  0  0  0  2  0  0  0  0  0  0
  191.9150  176.4450  142.2860 O   0  0  0  0  0  0  0  0  0  0  0  0
  192.8730  175.5040  144.7470 N   0  0  0  0  0  0  0  0  0  0  0  0
  185.3740  177.0950  146.4660 C   0  0  0  0  0  2  0  0  0  0  0  0
  186.4120  176.7720  145.4140 C   0  0  0  0  0  0  0  0  0  0  0  0
  184.8480  177.6900  143.7300 N   0  0  0  0  0  2  0  0  0  0  0  0
  189.6090  176.6460  142.6480 C   0  0  0  0  0  3  0  0  0  0  0  0
  187.6400  177.6230  140.7250 N   0  0  0  0  0  2  0  0  0  0  0  0
  182.9530  179.4160  142.7510 C   0  0  0  0  0  1  0  0  0  0  0  0
  187.2190  177.2500  143.0980 C   0  0  1  0  0  3  0  0  0  0  0  0
  184.4990  177.4910  142.3800 N   0  0  2  0  0  0  0  0  0  0  0  0
  193.6580  175.1330  145.9120 C   0  0  0  0  0  2  0  0  0  0  0  0
  193.7250  176.2950  146.8900 C   0  0  0  0  0  3  0  0  0  0  0  0
  192.3190  176.7370  147.2360 C   0  0  0  0  0  1  0  0  0  0  0  0
  194.4750  177.4580  146.2700 C   0  0  0  0  0  1  0  0  0  0  0  0
  1 20  1  0  0  0  0
  2 24  1  1  0  0  0
  2 12  1  0  0  0  0
  4  3  1  0  0  0  0
  6 18  1  6  0  0  0
  6  5  1  0  0  0  0
  6 28  1  0  0  0  0
  7 17  1  0  0  0  0
  9 28  1  0  0  0  0
  9 26  1  1  0  0  0
 10 20  1  0  0  0  0
 11  3  1  0  0  0  0
 12  8  1  0  0  0  0
 12 13  1  0  0  0  0
 13 11  1  0  0  0  0
 14 23  1  1  0  0  0
 14 22  1  0  0  0  0
 15  9  1  0  0  0  0
 16 19  1  0  0  0  0
 16  1  1  0  0  0  0
 17 10  1  1  0  0  0
 17  8  1  0  0  0  0
 18 15  1  0  0  0  0
 19  7  1  0  0  0  0
 20 29  1  0  0  0  0
 21  4  1  0  0  0  0
 22 13  2  0  0  0  0
 22 21  1  0  0  0  0
 24  7  2  0  0  0  0
 25  5  2  0  0  0  0
 27  5  1  6  0  0  0
 27  2  1  0  0  0  0
 27 14  1  0  0  0  0
 28 23  1  1  0  0  0
 29 30  1  0  0  0  0
 30 31  1  0  0  0  0
 32 30  1  0  0  0  0
M  END
>  <MODEL>
8

>  <REMARK>
 VINA RESULT:      -7.0      2.434      7.177
  Name = 
  2 active torsions:
  status: ('A' for Active; 'I' for Inactive)
    1  A    between atoms: N_20  and  C_29
    2  A    between atoms: C_29  and  C_30
                            x       y       z     vdW  Elec       q    Type
                         _______ _______ _______ _____ _____    ______ ____

>  <TORSDO>
F 2

$$$$
=
 OpenBabel11112416403D

 32 37  0  0  1  0  0  0  0  0999 V2000
  187.7190  177.9750  147.2550 C   0  0  0  0  0  2  0  0  0  0  0  0
  191.8310  175.4320  144.5750 C   0  0  2  0  0  3  0  0  0  0  0  0
  189.3570  173.0660  140.8000 C   0  0  0  0  0  2  0  0  0  0  0  0
  190.4320  173.5670  139.8560 C   0  0  0  0  0  2  0  0  0  0  0  0
  194.2740  176.0830  144.0890 C   0  0  0  0  0  0  0  0  0  0  0  0
  195.3800  175.9480  143.0910 C   0  0  1  0  0  3  0  0  0  0  0  0
  190.3880  176.7190  146.0870 C   0  0  0  0  0  0  0  0  0  0  0  0
  189.3590  174.8420  144.7540 C   0  0  0  0  0  2  0  0  0  0  0  0
  196.5820  174.5520  141.7880 C   0  0  2  0  0  3  0  0  0  0  0  0
  188.1210  175.6870  146.7420 C   0  0  0  0  0  2  0  0  0  0  0  0
  189.2540  174.0250  141.9780 C   0  0  0  0  0  2  0  0  0  0  0  0
  190.6060  174.8640  143.9720 N   0  0  0  0  0  0  0  0  0  0  0  0
  190.5900  174.3070  142.6330 C   0  0  0  0  0  0  0  0  0  0  0  0
  193.0400  174.4440  142.6370 C   0  0  1  0  0  3  0  0  0  0  0  0
  197.5370  175.3920  142.6350 C   0  0  0  0  0  2  0  0  0  0  0  0
  189.1430  178.0230  147.8190 C   0  0  0  0  0  2  0  0  0  0  0  0
  189.5110  175.4730  146.1450 C   0  0  2  0  0  3  0  0  0  0  0  0
  196.7240  176.1270  143.6070 N   0  0  0  0  0  2  0  0  0  0  0  0
  190.1190  177.9040  146.7910 O   0  0  0  0  0  0  0  0  0  0  0  0
  187.5470  176.9310  146.2440 N   0  0  0  0  0  0  0  0  0  0  0  0
  191.7760  173.5210  140.5690 C   0  0  0  0  0  2  0  0  0  0  0  0
  191.7420  174.1670  141.9370 C   0  0  0  0  0  0  0  0  0  0  0  0
  194.1770  174.5470  141.7080 N   0  0  0  0  0  2  0  0  0  0  0  0
  191.4780  176.6840  145.3250 C   0  0  0  0  0  3  0  0  0  0  0  0
  194.3700  176.9630  145.0180 N   0  0  0  0  0  2  0  0  0  0  0  0
  196.5030  175.1540  140.3860 C   0  0  0  0  0  1  0  0  0  0  0  0
  192.9140  175.7030  143.5210 C   0  0  1  0  0  3  0  0  0  0  0  0
  195.3240  174.6230  142.5210 N   0  0  2  0  0  0  0  0  0  0  0  0
  186.1180  176.7100  146.1000 C   0  0  0  0  0  2  0  0  0  0  0  0
  185.4330  177.9890  145.6500 C   0  0  0  0  0  3  0  0  0  0  0  0
  184.1710  178.1930  146.4620 C   0  0  0  0  0  1  0  0  0  0  0  0
  185.0700  177.9000  144.1800 C   0  0  0  0  0  1  0  0  0  0  0  0
  1 16  1  0  0  0  0
  2 24  1  6  0  0  0
  3 11  1  0  0  0  0
  4 21  1  0  0  0  0
  4  3  1  0  0  0  0
  5 25  2  0  0  0  0
  6 18  1  1  0  0  0
  6  5  1  0  0  0  0
  7 17  1  0  0  0  0
  7 19  1  0  0  0  0
  9 26  1  6  0  0  0
  9 28  1  0  0  0  0
  9 15  1  0  0  0  0
 11 13  1  0  0  0  0
 12  2  1  0  0  0  0
 12  8  1  0  0  0  0
 13 12  1  0  0  0  0
 14 23  1  6  0  0  0
 14 27  1  0  0  0  0
 15 18  1  0  0  0  0
 17  8  1  6  0  0  0
 17 10  1  0  0  0  0
 19 16  1  0  0  0  0
 20 10  1  0  0  0  0
 20  1  1  0  0  0  0
 21 22  1  0  0  0  0
 22 13  2  0  0  0  0
 22 14  1  0  0  0  0
 24  7  2  0  0  0  0
 27  5  1  1  0  0  0
 27  2  1  0  0  0  0
 28 23  1  6  0  0  0
 28  6  1  0  0  0  0
 29 20  1  0  0  0  0
 30 29  1  0  0  0  0
 30 31  1  0  0  0  0
 32 30  1  0  0  0  0
M  END
>  <MODEL>
9

>  <REMARK>
 VINA RESULT:      -6.9      2.685      4.871
  Name = 
  2 active torsions:
  status: ('A' for Active; 'I' for Inactive)
    1  A    between atoms: N_20  and  C_29
    2  A    between atoms: C_29  and  C_30
                            x       y       z     vdW  Elec       q    Type
                         _______ _______ _______ _____ _____    ______ ____

>  <TORSDO>
F 2

$$$$
