=
 OpenBabel11112416553D

 31 35  0  0  0  0  0  0  0  0999 V2000
  184.9250  178.0480  146.8430 C   0  0  0  0  0  0  0  0  0  0  0  0
  186.8410  177.6870  143.6220 C   0  0  0  0  0  0  0  0  0  0  0  0
  185.9100  177.8520  142.5550 C   0  0  0  0  0  0  0  0  0  0  0  0
  191.4450  176.8570  146.0360 O   0  0  0  0  0  0  0  0  0  0  0  0
  191.6300  176.8190  144.7890 C   0  0  0  0  0  0  0  0  0  0  0  0
  183.6640  178.2570  141.6840 C   0  0  0  0  0  0  0  0  0  0  0  0
  186.5100  177.7520  145.0090 C   0  0  0  0  0  0  0  0  0  0  0  0
  185.9480  177.8650  147.7740 C   0  0  0  0  0  3  0  0  0  0  0  0
  184.5410  178.1020  142.7600 C   0  0  0  0  0  3  0  0  0  0  0  0
  189.1650  177.2660  144.2670 C   0  0  0  0  0  0  0  0  0  0  0  0
  183.6590  178.2800  147.2660 F   0  0  0  0  0  0  0  0  0  0  0  0
  187.6840  177.5230  140.9760 N   0  0  0  0  0  0  0  0  0  0  0  0
  181.9680  178.5670  141.9790 Cl  0  0  0  0  0  0  0  0  0  0  0  0
  188.8120  177.3360  145.5750 N   0  0  0  0  0  0  0  0  0  0  0  0
  188.1940  177.4380  143.2720 C   0  0  0  0  0  0  0  0  0  0  0  0
  190.5280  177.0160  143.8920 N   0  0  0  0  0  2  0  0  0  0  0  0
  185.2050  177.9910  145.4770 C   0  0  0  0  0  3  0  0  0  0  0  0
  184.1410  178.1650  140.3760 C   0  0  0  0  0  3  0  0  0  0  0  0
  187.5370  177.5690  145.9690 C   0  0  0  0  0  0  0  0  0  0  0  0
  187.2500  177.6270  147.3370 C   0  0  0  0  0  3  0  0  0  0  0  0
  188.5600  177.3680  141.9650 N   0  0  0  0  0  0  0  0  0  0  0  0
  186.3750  177.7620  141.2220 C   0  0  0  0  0  0  0  0  0  0  0  0
  185.4940  177.9180  140.1460 C   0  0  0  0  0  3  0  0  0  0  0  0
  195.5040  176.0670  143.1650 C   0  0  0  0  0  0  0  0  0  0  0  0
  193.1420  176.1210  142.9420 C   0  0  0  0  0  3  0  0  0  0  0  0
  194.0870  177.1950  146.3210 F   0  0  0  0  0  0  0  0  0  0  0  0
  196.8370  175.7950  142.5680 C   0  0  0  0  0  1  0  0  0  0  0  0
  194.3780  175.8820  142.4270 N   0  0  0  0  0  0  0  0  0  0  0  0
  194.1520  176.7640  145.0370 C   0  0  0  0  0  0  0  0  0  0  0  0
  192.9900  176.5690  144.2620 C   0  0  0  0  0  0  0  0  0  0  0  0
  195.4090  176.5110  144.4830 C   0  0  0  0  0  3  0  0  0  0  0  0
  1 11  1  0  0  0  0
  1  8  1  0  0  0  0
  2  7  1  0  0  0  0
  3  9  1  0  0  0  0
  3  2  2  0  0  0  0
  5  4  2  0  0  0  0
  6 13  1  0  0  0  0
  6  9  2  0  0  0  0
  7 17  1  0  0  0  0
  7 19  2  0  0  0  0
 10 14  2  0  0  0  0
 12 22  2  0  0  0  0
 12 21  1  0  0  0  0
 14 19  1  0  0  0  0
 15  2  1  0  0  0  0
 15 10  1  0  0  0  0
 16 10  1  0  0  0  0
 16  5  1  0  0  0  0
 17  1  2  0  0  0  0
 18  6  1  0  0  0  0
 19 20  1  0  0  0  0
 20  8  2  0  0  0  0
 21 15  2  0  0  0  0
 22  3  1  0  0  0  0
 23 18  2  0  0  0  0
 23 22  1  0  0  0  0
 24 31  1  0  0  0  0
 25 30  2  0  0  0  0
 27 24  1  0  0  0  0
 28 25  1  0  0  0  0
 28 24  2  0  0  0  0
 29 26  1  0  0  0  0
 30  5  1  0  0  0  0
 30 29  1  0  0  0  0
 31 29  2  0  0  0  0
M  END
>  <MODEL>
1

>  <REMARK>
 VINA RESULT:     -10.3      0.000      0.000
  Name = 
  1 active torsions:
  status: ('A' for Active; 'I' for Inactive)
    1  A    between atoms: C_5  and  C_30
                            x       y       z     vdW  Elec       q    Type
                         _______ _______ _______ _____ _____    ______ ____

>  <TORSDO>
F 1

$$$$
=
 OpenBabel11112416553D

 31 35  0  0  0  0  0  0  0  0999 V2000
  190.8130  176.7840  147.1980 C   0  0  0  0  0  0  0  0  0  0  0  0
  188.2890  176.4280  144.4260 C   0  0  0  0  0  0  0  0  0  0  0  0
  187.1380  177.1800  144.8030 C   0  0  0  0  0  0  0  0  0  0  0  0
  191.3960  173.3370  141.5100 O   0  0  0  0  0  0  0  0  0  0  0  0
  190.3070  173.5090  140.8970 C   0  0  0  0  0  0  0  0  0  0  0  0
  185.8980  178.6190  146.3380 C   0  0  0  0  0  0  0  0  0  0  0  0
  189.4750  176.3060  145.2110 C   0  0  0  0  0  0  0  0  0  0  0  0
  191.8590  176.0110  146.6950 C   0  0  0  0  0  3  0  0  0  0  0  0
  187.0470  177.8950  146.0100 C   0  0  0  0  0  3  0  0  0  0  0  0
  189.3390  174.9930  142.7420 C   0  0  0  0  0  0  0  0  0  0  0  0
  190.9390  177.3950  148.4010 F   0  0  0  0  0  0  0  0  0  0  0  0
  186.0680  176.5410  142.7540 N   0  0  0  0  0  0  0  0  0  0  0  0
  185.8230  179.4970  147.8500 Cl  0  0  0  0  0  0  0  0  0  0  0  0
  190.4490  174.9030  143.5170 N   0  0  0  0  0  0  0  0  0  0  0  0
  188.2450  175.7520  143.1790 C   0  0  0  0  0  0  0  0  0  0  0  0
  189.2740  174.3180  141.4780 N   0  0  0  0  0  2  0  0  0  0  0  0
  189.6350  176.9280  146.4630 C   0  0  0  0  0  3  0  0  0  0  0  0
  184.8130  178.6420  145.4620 C   0  0  0  0  0  3  0  0  0  0  0  0
  190.5490  175.5240  144.7160 C   0  0  0  0  0  0  0  0  0  0  0  0
  191.7260  175.3830  145.4580 C   0  0  0  0  0  3  0  0  0  0  0  0
  187.1380  175.8360  142.3950 N   0  0  0  0  0  0  0  0  0  0  0  0
  186.0270  177.2140  143.9270 C   0  0  0  0  0  0  0  0  0  0  0  0
  184.8780  177.9400  144.2590 C   0  0  0  0  0  3  0  0  0  0  0  0
  189.7080  171.7710  137.0460 C   0  0  0  0  0  0  0  0  0  0  0  0
  189.8460  173.6720  138.4580 C   0  0  0  0  0  3  0  0  0  0  0  0
  190.4060  170.6290  140.4290 F   0  0  0  0  0  0  0  0  0  0  0  0
  189.4960  171.2000  135.6910 C   0  0  0  0  0  1  0  0  0  0  0  0
  189.6560  173.1150  137.2320 N   0  0  0  0  0  0  0  0  0  0  0  0
  190.1610  171.4720  139.3960 C   0  0  0  0  0  0  0  0  0  0  0  0
  190.1050  172.8680  139.5780 C   0  0  0  0  0  0  0  0  0  0  0  0
  189.9620  170.9260  138.1250 C   0  0  0  0  0  3  0  0  0  0  0  0
  1 11  1  0  0  0  0
  2  3  1  0  0  0  0
  2  7  1  0  0  0  0
  3  9  1  0  0  0  0
  5 16  1  0  0  0  0
  5  4  2  0  0  0  0
  6 13  1  0  0  0  0
  7 17  1  0  0  0  0
  8  1  1  0  0  0  0
  9  6  2  0  0  0  0
 10 15  1  0  0  0  0
 10 14  2  0  0  0  0
 12 22  1  0  0  0  0
 14 19  1  0  0  0  0
 15  2  2  0  0  0  0
 16 10  1  0  0  0  0
 17  1  2  0  0  0  0
 18  6  1  0  0  0  0
 19  7  2  0  0  0  0
 19 20  1  0  0  0  0
 20  8  2  0  0  0  0
 21 12  2  0  0  0  0
 21 15  1  0  0  0  0
 22 23  1  0  0  0  0
 22  3  2  0  0  0  0
 23 18  2  0  0  0  0
 24 28  2  0  0  0  0
 24 31  1  0  0  0  0
 25 30  2  0  0  0  0
 27 24  1  0  0  0  0
 28 25  1  0  0  0  0
 29 30  1  0  0  0  0
 29 26  1  0  0  0  0
 30  5  1  0  0  0  0
 31 29  2  0  0  0  0
M  END
>  <MODEL>
2

>  <REMARK>
 VINA RESULT:      -9.2      4.502      5.935
  Name = 
  1 active torsions:
  status: ('A' for Active; 'I' for Inactive)
    1  A    between atoms: C_5  and  C_30
                            x       y       z     vdW  Elec       q    Type
                         _______ _______ _______ _____ _____    ______ ____

>  <TORSDO>
F 1

$$$$
=
 OpenBabel11112416553D

 31 35  0  0  0  0  0  0  0  0999 V2000
  184.7150  178.1740  145.8870 C   0  0  0  0  0  0  0  0  0  0  0  0
  187.2650  176.9320  143.4110 C   0  0  0  0  0  0  0  0  0  0  0  0
  186.7060  177.0940  142.1100 C   0  0  0  0  0  0  0  0  0  0  0  0
  190.7700  175.6490  147.1230 O   0  0  0  0  0  0  0  0  0  0  0  0
  191.2580  175.3720  145.9930 C   0  0  0  0  0  0  0  0  0  0  0  0
  184.9170  177.7700  140.5910 C   0  0  0  0  0  0  0  0  0  0  0  0
  186.6100  177.2860  144.6290 C   0  0  0  0  0  0  0  0  0  0  0  0
  185.3920  177.9560  147.0870 C   0  0  0  0  0  3  0  0  0  0  0  0
  185.4250  177.6300  141.8840 C   0  0  0  0  0  3  0  0  0  0  0  0
  189.1830  176.1880  144.7390 C   0  0  0  0  0  0  0  0  0  0  0  0
  183.4700  178.7090  145.9000 F   0  0  0  0  0  0  0  0  0  0  0  0
  188.7050  176.1790  141.1530 N   0  0  0  0  0  0  0  0  0  0  0  0
  183.3190  178.4420  140.3500 Cl  0  0  0  0  0  0  0  0  0  0  0  0
  188.5280  176.5370  145.8740 N   0  0  0  0  0  0  0  0  0  0  0  0
  188.5690  176.3760  143.4940 C   0  0  0  0  0  0  0  0  0  0  0  0
  190.5020  175.6250  144.8010 N   0  0  0  0  0  2  0  0  0  0  0  0
  185.3190  177.8420  144.6740 C   0  0  0  0  0  3  0  0  0  0  0  0
  185.6820  177.3760  139.4930 C   0  0  0  0  0  3  0  0  0  0  0  0
  187.2830  177.0700  145.8580 C   0  0  0  0  0  0  0  0  0  0  0  0
  186.6720  177.4050  147.0710 C   0  0  0  0  0  3  0  0  0  0  0  0
  189.2340  176.0240  142.3630 N   0  0  0  0  0  0  0  0  0  0  0  0
  187.4670  176.6990  140.9840 C   0  0  0  0  0  0  0  0  0  0  0  0
  186.9550  176.8420  139.6900 C   0  0  0  0  0  3  0  0  0  0  0  0
  195.1200  173.5700  145.7620 C   0  0  0  0  0  0  0  0  0  0  0  0
  192.7620  173.3910  145.9530 C   0  0  0  0  0  3  0  0  0  0  0  0
  193.7170  176.9270  145.7430 F   0  0  0  0  0  0  0  0  0  0  0  0
  196.4480  172.9090  145.6840 C   0  0  0  0  0  1  0  0  0  0  0  0
  193.9930  172.8190  145.8790 N   0  0  0  0  0  0  0  0  0  0  0  0
  193.7770  175.5730  145.7900 C   0  0  0  0  0  0  0  0  0  0  0  0
  192.6150  174.7850  145.9100 C   0  0  0  0  0  0  0  0  0  0  0  0
  195.0300  174.9600  145.7160 C   0  0  0  0  0  3  0  0  0  0  0  0
  1 11  1  0  0  0  0
  1  8  1  0  0  0  0
  2 15  1  0  0  0  0
  2  7  1  0  0  0  0
  3  2  2  0  0  0  0
  5  4  2  0  0  0  0
  6  9  2  0  0  0  0
  7 17  1  0  0  0  0
  7 19  2  0  0  0  0
  9  3  1  0  0  0  0
 10 16  1  0  0  0  0
 10 14  2  0  0  0  0
 12 21  1  0  0  0  0
 13  6  1  0  0  0  0
 15 10  1  0  0  0  0
 16  5  1  0  0  0  0
 17  1  2  0  0  0  0
 18 23  2  0  0  0  0
 18  6  1  0  0  0  0
 19 14  1  0  0  0  0
 19 20  1  0  0  0  0
 20  8  2  0  0  0  0
 21 15  2  0  0  0  0
 22 12  2  0  0  0  0
 22  3  1  0  0  0  0
 23 22  1  0  0  0  0
 24 28  1  0  0  0  0
 26 29  1  0  0  0  0
 27 24  1  0  0  0  0
 28 25  2  0  0  0  0
 29 30  2  0  0  0  0
 30 25  1  0  0  0  0
 30  5  1  0  0  0  0
 31 24  2  0  0  0  0
 31 29  1  0  0  0  0
M  END
>  <MODEL>
3

>  <REMARK>
 VINA RESULT:      -8.8      1.883      2.027
  Name = 
  1 active torsions:
  status: ('A' for Active; 'I' for Inactive)
    1  A    between atoms: C_5  and  C_30
                            x       y       z     vdW  Elec       q    Type
                         _______ _______ _______ _____ _____    ______ ____

>  <TORSDO>
F 1

$$$$
=
 OpenBabel11112416553D

 31 35  0  0  0  0  0  0  0  0999 V2000
  186.2990  178.8090  143.7550 C   0  0  0  0  0  0  0  0  0  0  0  0
  189.0690  176.2610  143.6900 C   0  0  0  0  0  0  0  0  0  0  0  0
  189.7600  176.3540  144.9330 C   0  0  0  0  0  0  0  0  0  0  0  0
  187.8690  174.5550  138.8560 O   0  0  0  0  0  0  0  0  0  0  0  0
  188.8610  173.9010  139.2810 C   0  0  0  0  0  0  0  0  0  0  0  0
  190.1090  177.3200  147.1490 C   0  0  0  0  0  0  0  0  0  0  0  0
  187.9480  177.0620  143.3180 C   0  0  0  0  0  0  0  0  0  0  0  0
  185.7260  178.6020  142.5000 C   0  0  0  0  0  3  0  0  0  0  0  0
  189.4030  177.2630  145.9450 C   0  0  0  0  0  3  0  0  0  0  0  0
  188.9080  175.1500  141.5130 C   0  0  0  0  0  0  0  0  0  0  0  0
  185.7880  179.7520  144.5850 F   0  0  0  0  0  0  0  0  0  0  0  0
  191.2390  174.6050  144.2260 N   0  0  0  0  0  0  0  0  0  0  0  0
  189.6340  178.4640  148.3850 Cl  0  0  0  0  0  0  0  0  0  0  0  0
  187.8440  175.9300  141.1970 N   0  0  0  0  0  0  0  0  0  0  0  0
  189.5370  175.2990  142.7560 C   0  0  0  0  0  0  0  0  0  0  0  0
  189.3960  174.1710  140.5840 N   0  0  0  0  0  2  0  0  0  0  0  0
  187.3970  178.0480  144.1570 C   0  0  0  0  0  3  0  0  0  0  0  0
  191.1900  176.4650  147.3660 C   0  0  0  0  0  3  0  0  0  0  0  0
  187.3540  176.8660  142.0460 C   0  0  0  0  0  0  0  0  0  0  0  0
  186.2540  177.6320  141.6490 C   0  0  0  0  0  3  0  0  0  0  0  0
  190.6010  174.5110  143.0620 N   0  0  0  0  0  0  0  0  0  0  0  0
  190.8590  175.4960  145.1700 C   0  0  0  0  0  0  0  0  0  0  0  0
  191.5640  175.5550  146.3780 C   0  0  0  0  0  3  0  0  0  0  0  0
  190.5640  170.8090  136.8840 C   0  0  0  0  0  0  0  0  0  0  0  0
  189.3290  171.5090  138.7840 C   0  0  0  0  0  3  0  0  0  0  0  0
  190.3590  174.4410  136.8330 F   0  0  0  0  0  0  0  0  0  0  0  0
  191.1440  169.7070  136.0730 C   0  0  0  0  0  1  0  0  0  0  0  0
  189.8730  170.5260  138.0180 N   0  0  0  0  0  0  0  0  0  0  0  0
  190.1820  173.1620  137.2480 C   0  0  0  0  0  0  0  0  0  0  0  0
  189.4660  172.8580  138.4230 C   0  0  0  0  0  0  0  0  0  0  0  0
  190.7310  172.1320  136.4790 C   0  0  0  0  0  3  0  0  0  0  0  0
  1 17  1  0  0  0  0
  1 11  1  0  0  0  0
  2  3  1  0  0  0  0
  3 22  2  0  0  0  0
  3  9  1  0  0  0  0
  4  5  2  0  0  0  0
  5 16  1  0  0  0  0
  6 18  1  0  0  0  0
  6 13  1  0  0  0  0
  7  2  1  0  0  0  0
  7 17  2  0  0  0  0
  8  1  2  0  0  0  0
  9  6  2  0  0  0  0
 10 15  1  0  0  0  0
 12 22  1  0  0  0  0
 14 10  2  0  0  0  0
 14 19  1  0  0  0  0
 15 21  1  0  0  0  0
 15  2  2  0  0  0  0
 16 10  1  0  0  0  0
 19  7  1  0  0  0  0
 20 19  2  0  0  0  0
 20  8  1  0  0  0  0
 21 12  2  0  0  0  0
 22 23  1  0  0  0  0
 23 18  2  0  0  0  0
 24 28  1  0  0  0  0
 26 29  1  0  0  0  0
 27 24  1  0  0  0  0
 28 25  2  0  0  0  0
 29 30  2  0  0  0  0
 30 25  1  0  0  0  0
 30  5  1  0  0  0  0
 31 24  2  0  0  0  0
 31 29  1  0  0  0  0
M  END
>  <MODEL>
4

>  <REMARK>
 VINA RESULT:      -8.5      5.178      6.930
  Name = 
  1 active torsions:
  status: ('A' for Active; 'I' for Inactive)
    1  A    between atoms: C_5  and  C_30
                            x       y       z     vdW  Elec       q    Type
                         _______ _______ _______ _____ _____    ______ ____

>  <TORSDO>
F 1

$$$$
=
 OpenBabel11112416553D

 31 35  0  0  0  0  0  0  0  0999 V2000
  185.9300  177.4430  141.0950 C   0  0  0  0  0  0  0  0  0  0  0  0
  187.6120  177.0930  144.4450 C   0  0  0  0  0  0  0  0  0  0  0  0
  186.6960  177.5650  145.4300 C   0  0  0  0  0  0  0  0  0  0  0  0
  192.0370  175.0890  142.4140 O   0  0  0  0  0  0  0  0  0  0  0  0
  192.1640  175.1630  143.6680 C   0  0  0  0  0  0  0  0  0  0  0  0
  184.5500  178.5080  146.1160 C   0  0  0  0  0  0  0  0  0  0  0  0
  187.3530  177.0590  143.0420 C   0  0  0  0  0  0  0  0  0  0  0  0
  186.9270  176.9530  140.2520 C   0  0  0  0  0  3  0  0  0  0  0  0
  185.4160  178.0560  145.1180 C   0  0  0  0  0  3  0  0  0  0  0  0
  189.8250  176.1470  143.9900 C   0  0  0  0  0  0  0  0  0  0  0  0
  184.7540  177.8710  140.5750 F   0  0  0  0  0  0  0  0  0  0  0  0
  188.3070  177.0800  147.1390 N   0  0  0  0  0  0  0  0  0  0  0  0
  182.9640  179.1110  145.6890 Cl  0  0  0  0  0  0  0  0  0  0  0  0
  189.5410  176.1300  142.6630 N   0  0  0  0  0  0  0  0  0  0  0  0
  188.8730  176.6260  144.9000 C   0  0  0  0  0  0  0  0  0  0  0  0
  191.0930  175.6790  144.4710 N   0  0  0  0  0  2  0  0  0  0  0  0
  186.1430  177.4950  142.4730 C   0  0  0  0  0  3  0  0  0  0  0  0
  184.9500  178.4790  147.4520 C   0  0  0  0  0  3  0  0  0  0  0  0
  188.3560  176.5640  142.1700 C   0  0  0  0  0  0  0  0  0  0  0  0
  188.1370  176.5140  140.7900 C   0  0  0  0  0  3  0  0  0  0  0  0
  189.1680  176.6380  146.2260 N   0  0  0  0  0  0  0  0  0  0  0  0
  187.0840  177.5440  146.7910 C   0  0  0  0  0  0  0  0  0  0  0  0
  186.2150  177.9980  147.7880 C   0  0  0  0  0  3  0  0  0  0  0  0
  195.7780  173.7540  145.4460 C   0  0  0  0  0  0  0  0  0  0  0  0
  193.8090  173.3690  144.1790 C   0  0  0  0  0  3  0  0  0  0  0  0
  193.9610  176.8950  145.1830 F   0  0  0  0  0  0  0  0  0  0  0  0
  197.0290  173.2290  146.0520 C   0  0  0  0  0  1  0  0  0  0  0  0
  194.9620  172.9230  144.7470 N   0  0  0  0  0  0  0  0  0  0  0  0
  194.2640  175.5830  145.0230 C   0  0  0  0  0  0  0  0  0  0  0  0
  193.4250  174.7120  144.2990 C   0  0  0  0  0  0  0  0  0  0  0  0
  195.4430  175.0990  145.5960 C   0  0  0  0  0  3  0  0  0  0  0  0
  1 17  1  0  0  0  0
  2 15  2  0  0  0  0
  2  3  1  0  0  0  0
  3 22  1  0  0  0  0
  4  5  2  0  0  0  0
  5 30  1  0  0  0  0
  5 16  1  0  0  0  0
  6 18  2  0  0  0  0
  7  2  1  0  0  0  0
  8 20  1  0  0  0  0
  8  1  2  0  0  0  0
  9  3  2  0  0  0  0
  9  6  1  0  0  0  0
 10 16  1  0  0  0  0
 10 15  1  0  0  0  0
 11  1  1  0  0  0  0
 13  6  1  0  0  0  0
 14 10  2  0  0  0  0
 15 21  1  0  0  0  0
 17  7  2  0  0  0  0
 18 23  1  0  0  0  0
 19 14  1  0  0  0  0
 19  7  1  0  0  0  0
 20 19  2  0  0  0  0
 21 12  2  0  0  0  0
 22 12  1  0  0  0  0
 22 23  2  0  0  0  0
 24 31  1  0  0  0  0
 24 27  1  0  0  0  0
 25 30  2  0  0  0  0
 25 28  1  0  0  0  0
 28 24  2  0  0  0  0
 29 26  1  0  0  0  0
 29 31  2  0  0  0  0
 30 29  1  0  0  0  0
M  END
>  <MODEL>
5

>  <REMARK>
 VINA RESULT:      -8.4      2.303      4.284
  Name = 
  1 active torsions:
  status: ('A' for Active; 'I' for Inactive)
    1  A    between atoms: C_5  and  C_30
                            x       y       z     vdW  Elec       q    Type
                         _______ _______ _______ _____ _____    ______ ____

>  <TORSDO>
F 1

$$$$
=
 OpenBabel11112416553D

 31 35  0  0  0  0  0  0  0  0999 V2000
  195.4720  173.6800  145.4520 C   0  0  0  0  0  0  0  0  0  0  0  0
  192.0110  172.9660  144.1500 C   0  0  0  0  0  0  0  0  0  0  0  0
  192.0730  171.7340  143.4370 C   0  0  0  0  0  0  0  0  0  0  0  0
  189.9440  177.3460  146.2150 O   0  0  0  0  0  0  0  0  0  0  0  0
  189.0340  176.7150  145.6110 C   0  0  0  0  0  0  0  0  0  0  0  0
  193.2700  169.7820  142.5850 C   0  0  0  0  0  0  0  0  0  0  0  0
  193.1200  173.5880  144.8000 C   0  0  0  0  0  0  0  0  0  0  0  0
  195.2550  174.8890  146.1120 C   0  0  0  0  0  3  0  0  0  0  0  0
  193.2560  170.9860  143.2940 C   0  0  0  0  0  3  0  0  0  0  0  0
  190.6140  174.8330  144.8990 C   0  0  0  0  0  0  0  0  0  0  0  0
  196.7090  173.1270  145.4390 F   0  0  0  0  0  0  0  0  0  0  0  0
  189.7320  171.9160  142.9490 N   0  0  0  0  0  0  0  0  0  0  0  0
  194.7610  168.8790  142.4300 Cl  0  0  0  0  0  0  0  0  0  0  0  0
  191.6920  175.3920  145.5040 N   0  0  0  0  0  0  0  0  0  0  0  0
  190.7520  173.6180  144.2150 C   0  0  0  0  0  0  0  0  0  0  0  0
  189.3320  175.4750  144.9530 N   0  0  0  0  0  2  0  0  0  0  0  0
  194.4150  173.0390  144.8030 C   0  0  0  0  0  3  0  0  0  0  0  0
  192.0970  169.3010  142.0030 C   0  0  0  0  0  3  0  0  0  0  0  0
  192.9180  174.8180  145.4750 C   0  0  0  0  0  0  0  0  0  0  0  0
  193.9810  175.4560  146.1240 C   0  0  0  0  0  3  0  0  0  0  0  0
  189.6650  173.0670  143.6130 N   0  0  0  0  0  0  0  0  0  0  0  0
  190.8940  171.2300  142.8380 C   0  0  0  0  0  0  0  0  0  0  0  0
  190.9120  170.0250  142.1290 C   0  0  0  0  0  3  0  0  0  0  0  0
  185.1000  178.3580  145.4410 C   0  0  0  0  0  0  0  0  0  0  0  0
  187.2800  178.1150  144.5380 C   0  0  0  0  0  3  0  0  0  0  0  0
  186.9980  176.1570  147.6280 F   0  0  0  0  0  0  0  0  0  0  0  0
  183.7390  178.9480  145.3490 C   0  0  0  0  0  1  0  0  0  0  0  0
  186.0260  178.6370  144.4870 N   0  0  0  0  0  0  0  0  0  0  0  0
  186.7070  176.9690  146.5830 C   0  0  0  0  0  0  0  0  0  0  0  0
  187.6600  177.2650  145.5870 C   0  0  0  0  0  0  0  0  0  0  0  0
  185.4250  177.5190  146.5050 C   0  0  0  0  0  3  0  0  0  0  0  0
  1  8  1  0  0  0  0
  2 15  1  0  0  0  0
  2  7  1  0  0  0  0
  3  2  2  0  0  0  0
  5  4  2  0  0  0  0
  6  9  2  0  0  0  0
  7 17  1  0  0  0  0
  7 19  2  0  0  0  0
  8 20  2  0  0  0  0
  9  3  1  0  0  0  0
 10 16  1  0  0  0  0
 10 14  2  0  0  0  0
 11  1  1  0  0  0  0
 12 21  1  0  0  0  0
 13  6  1  0  0  0  0
 15 10  1  0  0  0  0
 16  5  1  0  0  0  0
 17  1  2  0  0  0  0
 18 23  2  0  0  0  0
 18  6  1  0  0  0  0
 19 14  1  0  0  0  0
 19 20  1  0  0  0  0
 21 15  2  0  0  0  0
 22 12  2  0  0  0  0
 22  3  1  0  0  0  0
 23 22  1  0  0  0  0
 24 31  1  0  0  0  0
 25 30  2  0  0  0  0
 27 24  1  0  0  0  0
 28 25  1  0  0  0  0
 28 24  2  0  0  0  0
 29 26  1  0  0  0  0
 30  5  1  0  0  0  0
 30 29  1  0  0  0  0
 31 29  2  0  0  0  0
M  END
>  <MODEL>
6

>  <REMARK>
 VINA RESULT:      -8.2      4.596      8.920
  Name = 
  1 active torsions:
  status: ('A' for Active; 'I' for Inactive)
    1  A    between atoms: C_5  and  C_30
                            x       y       z     vdW  Elec       q    Type
                         _______ _______ _______ _____ _____    ______ ____

>  <TORSDO>
F 1

$$$$
=
 OpenBabel11112416553D

 31 35  0  0  0  0  0  0  0  0999 V2000
  193.4700  175.0540  145.8980 C   0  0  0  0  0  0  0  0  0  0  0  0
  190.8150  173.6740  143.6130 C   0  0  0  0  0  0  0  0  0  0  0  0
  191.2060  172.3490  143.2600 C   0  0  0  0  0  0  0  0  0  0  0  0
  187.9030  178.0580  143.7630 O   0  0  0  0  0  0  0  0  0  0  0  0
  187.3270  177.2140  143.0220 C   0  0  0  0  0  0  0  0  0  0  0  0
  192.7310  170.4440  143.3560 C   0  0  0  0  0  0  0  0  0  0  0  0
  191.5570  174.5420  144.4690 C   0  0  0  0  0  0  0  0  0  0  0  0
  192.9580  176.3260  146.1520 C   0  0  0  0  0  3  0  0  0  0  0  0
  192.3870  171.7460  143.7280 C   0  0  0  0  0  3  0  0  0  0  0  0
  189.1490  175.4520  143.3690 C   0  0  0  0  0  0  0  0  0  0  0  0
  194.6420  174.6710  146.4610 F   0  0  0  0  0  0  0  0  0  0  0  0
  189.2270  172.1360  141.9230 N   0  0  0  0  0  0  0  0  0  0  0  0
  194.2090  169.7270  143.9590 Cl  0  0  0  0  0  0  0  0  0  0  0  0
  189.8820  176.2470  144.1880 N   0  0  0  0  0  0  0  0  0  0  0  0
  189.5980  174.1600  143.0670 C   0  0  0  0  0  0  0  0  0  0  0  0
  187.9150  175.9240  142.8080 N   0  0  0  0  0  2  0  0  0  0  0  0
  192.7770  174.1740  145.0660 C   0  0  0  0  0  3  0  0  0  0  0  0
  191.8980  169.7180  142.5060 C   0  0  0  0  0  3  0  0  0  0  0  0
  191.0520  175.8390  144.7370 C   0  0  0  0  0  0  0  0  0  0  0  0
  191.7520  176.7160  145.5720 C   0  0  0  0  0  3  0  0  0  0  0  0
  188.8540  173.3720  142.2470 N   0  0  0  0  0  0  0  0  0  0  0  0
  190.3740  171.5970  142.3980 C   0  0  0  0  0  0  0  0  0  0  0  0
  190.7210  170.2940  142.0280 C   0  0  0  0  0  3  0  0  0  0  0  0
  183.5720  178.2340  141.2710 C   0  0  0  0  0  0  0  0  0  0  0  0
  184.8910  177.6940  143.1670 C   0  0  0  0  0  3  0  0  0  0  0  0
  186.9930  177.6880  140.1600 F   0  0  0  0  0  0  0  0  0  0  0  0
  182.2490  178.5880  140.6950 C   0  0  0  0  0  1  0  0  0  0  0  0
  183.6960  178.0200  142.6060 N   0  0  0  0  0  0  0  0  0  0  0  0
  185.9260  177.7900  140.9900 C   0  0  0  0  0  0  0  0  0  0  0  0
  186.0430  177.5700  142.3770 C   0  0  0  0  0  0  0  0  0  0  0  0
  184.6860  178.1230  140.4400 C   0  0  0  0  0  3  0  0  0  0  0  0
  1  8  1  0  0  0  0
  1 11  1  0  0  0  0
  2  7  1  0  0  0  0
  3  2  1  0  0  0  0
  3  9  1  0  0  0  0
  5  4  2  0  0  0  0
  6  9  2  0  0  0  0
  6 13  1  0  0  0  0
  7 19  2  0  0  0  0
  7 17  1  0  0  0  0
 10 14  2  0  0  0  0
 12 21  2  0  0  0  0
 12 22  1  0  0  0  0
 14 19  1  0  0  0  0
 15 10  1  0  0  0  0
 15  2  2  0  0  0  0
 16  5  1  0  0  0  0
 16 10  1  0  0  0  0
 17  1  2  0  0  0  0
 18  6  1  0  0  0  0
 19 20  1  0  0  0  0
 20  8  2  0  0  0  0
 21 15  1  0  0  0  0
 22  3  2  0  0  0  0
 23 22  1  0  0  0  0
 23 18  2  0  0  0  0
 24 28  1  0  0  0  0
 26 29  1  0  0  0  0
 27 24  1  0  0  0  0
 28 25  2  0  0  0  0
 29 30  2  0  0  0  0
 30  5  1  0  0  0  0
 30 25  1  0  0  0  0
 31 29  1  0  0  0  0
 31 24  2  0  0  0  0
M  END
>  <MODEL>
7

>  <REMARK>
 VINA RESULT:      -8.1      4.482      8.645
  Name = 
  1 active torsions:
  status: ('A' for Active; 'I' for Inactive)
    1  A    between atoms: C_5  and  C_30
                            x       y       z     vdW  Elec       q    Type
                         _______ _______ _______ _____ _____    ______ ____

>  <TORSDO>
F 1

$$$$
=
 OpenBabel11112416553D

 31 35  0  0  0  0  0  0  0  0999 V2000
  194.9930  174.9120  146.1000 C   0  0  0  0  0  0  0  0  0  0  0  0
  192.0560  173.4720  144.2340 C   0  0  0  0  0  0  0  0  0  0  0  0
  192.4010  172.1390  143.8670 C   0  0  0  0  0  0  0  0  0  0  0  0
  189.1760  177.8580  144.6650 O   0  0  0  0  0  0  0  0  0  0  0  0
  188.5070  176.9960  144.0320 C   0  0  0  0  0  0  0  0  0  0  0  0
  193.9310  170.2370  143.8040 C   0  0  0  0  0  0  0  0  0  0  0  0
  192.9050  174.3630  144.9580 C   0  0  0  0  0  0  0  0  0  0  0  0
  194.5160  176.1910  146.3870 C   0  0  0  0  0  3  0  0  0  0  0  0
  193.6370  171.5480  144.1850 C   0  0  0  0  0  3  0  0  0  0  0  0
  190.3660  175.2430  144.1740 C   0  0  0  0  0  0  0  0  0  0  0  0
  196.2320  174.5450  146.5070 F   0  0  0  0  0  0  0  0  0  0  0  0
  190.2580  171.8910  142.8180 N   0  0  0  0  0  0  0  0  0  0  0  0
  195.4800  169.5360  144.2180 Cl  0  0  0  0  0  0  0  0  0  0  0  0
  191.2010  176.0600  144.8640 N   0  0  0  0  0  0  0  0  0  0  0  0
  190.7740  173.9440  143.8480 C   0  0  0  0  0  0  0  0  0  0  0  0
  189.0650  175.7000  143.7740 N   0  0  0  0  0  2  0  0  0  0  0  0
  194.1960  174.0110  145.3930 C   0  0  0  0  0  3  0  0  0  0  0  0
  192.9930  169.4880  143.0950 C   0  0  0  0  0  3  0  0  0  0  0  0
  192.4360  175.6670  145.2580 C   0  0  0  0  0  0  0  0  0  0  0  0
  193.2400  176.5660  145.9670 C   0  0  0  0  0  3  0  0  0  0  0  0
  189.9290  173.1340  143.1570 N   0  0  0  0  0  0  0  0  0  0  0  0
  191.4610  171.3640  143.1460 C   0  0  0  0  0  0  0  0  0  0  0  0
  191.7590  170.0510  142.7670 C   0  0  0  0  0  3  0  0  0  0  0  0
  184.6220  177.9610  142.5560 C   0  0  0  0  0  0  0  0  0  0  0  0
  186.8940  177.3940  142.1810 C   0  0  0  0  0  3  0  0  0  0  0  0
  186.2450  177.5650  145.7880 F   0  0  0  0  0  0  0  0  0  0  0  0
  183.2810  178.2930  142.0070 C   0  0  0  0  0  1  0  0  0  0  0  0
  185.6550  177.7010  141.7140 N   0  0  0  0  0  0  0  0  0  0  0  0
  186.0800  177.6020  144.4420 C   0  0  0  0  0  0  0  0  0  0  0  0
  187.1460  177.3340  143.5590 C   0  0  0  0  0  0  0  0  0  0  0  0
  184.8170  177.9150  143.9360 C   0  0  0  0  0  3  0  0  0  0  0  0
  1  8  1  0  0  0  0
  1 11  1  0  0  0  0
  2  7  1  0  0  0  0
  3  9  1  0  0  0  0
  3  2  1  0  0  0  0
  5  4  2  0  0  0  0
  6  9  2  0  0  0  0
  6 13  1  0  0  0  0
  7 19  2  0  0  0  0
  7 17  1  0  0  0  0
 10 14  2  0  0  0  0
 12 22  1  0  0  0  0
 12 21  2  0  0  0  0
 14 19  1  0  0  0  0
 15 10  1  0  0  0  0
 15  2  2  0  0  0  0
 16  5  1  0  0  0  0
 16 10  1  0  0  0  0
 17  1  2  0  0  0  0
 18  6  1  0  0  0  0
 19 20  1  0  0  0  0
 20  8  2  0  0  0  0
 21 15  1  0  0  0  0
 22  3  2  0  0  0  0
 23 18  2  0  0  0  0
 23 22  1  0  0  0  0
 24 31  1  0  0  0  0
 25 30  2  0  0  0  0
 27 24  1  0  0  0  0
 28 25  1  0  0  0  0
 28 24  2  0  0  0  0
 29 26  1  0  0  0  0
 30  5  1  0  0  0  0
 30 29  1  0  0  0  0
 31 29  2  0  0  0  0
M  END
>  <MODEL>
8

>  <REMARK>
 VINA RESULT:      -8.1      4.363      8.873
  Name = 
  1 active torsions:
  status: ('A' for Active; 'I' for Inactive)
    1  A    between atoms: C_5  and  C_30
                            x       y       z     vdW  Elec       q    Type
                         _______ _______ _______ _____ _____    ______ ____

>  <TORSDO>
F 1

$$$$
=
 OpenBabel11112416553D

 31 35  0  0  0  0  0  0  0  0999 V2000
  190.4540  177.0550  147.1590 C   0  0  0  0  0  0  0  0  0  0  0  0
  188.5380  176.1380  144.0510 C   0  0  0  0  0  0  0  0  0  0  0  0
  187.3490  176.9250  144.0390 C   0  0  0  0  0  0  0  0  0  0  0  0
  192.1110  172.6170  142.4560 O   0  0  0  0  0  0  0  0  0  0  0  0
  191.1720  172.6500  141.6140 C   0  0  0  0  0  0  0  0  0  0  0  0
  185.8520  178.6020  144.9940 C   0  0  0  0  0  0  0  0  0  0  0  0
  189.5380  176.1890  145.0680 C   0  0  0  0  0  0  0  0  0  0  0  0
  191.5660  176.2230  147.0330 C   0  0  0  0  0  3  0  0  0  0  0  0
  187.0290  177.8520  145.0470 C   0  0  0  0  0  3  0  0  0  0  0  0
  189.8790  174.4340  142.9130 C   0  0  0  0  0  0  0  0  0  0  0  0
  190.3460  177.8830  148.2270 F   0  0  0  0  0  0  0  0  0  0  0  0
  186.7050  175.8930  141.9720 N   0  0  0  0  0  0  0  0  0  0  0  0
  185.4890  179.7460  146.2670 Cl  0  0  0  0  0  0  0  0  0  0  0  0
  190.8080  174.5120  143.8990 N   0  0  0  0  0  0  0  0  0  0  0  0
  188.7350  175.2400  142.9690 C   0  0  0  0  0  0  0  0  0  0  0  0
  190.0590  173.5330  141.8110 N   0  0  0  0  0  2  0  0  0  0  0  0
  189.4530  177.0370  146.1870 C   0  0  0  0  0  3  0  0  0  0  0  0
  184.9680  178.4390  143.9280 C   0  0  0  0  0  3  0  0  0  0  0  0
  190.6740  175.3480  144.9560 C   0  0  0  0  0  0  0  0  0  0  0  0
  191.6740  175.3720  145.9340 C   0  0  0  0  0  3  0  0  0  0  0  0
  187.8120  175.1550  141.9750 N   0  0  0  0  0  0  0  0  0  0  0  0
  186.4390  176.7730  142.9650 C   0  0  0  0  0  0  0  0  0  0  0  0
  185.2620  177.5260  142.9150 C   0  0  0  0  0  3  0  0  0  0  0  0
  191.3220  170.0180  138.2580 C   0  0  0  0  0  0  0  0  0  0  0  0
  191.0990  170.3830  140.5920 C   0  0  0  0  0  3  0  0  0  0  0  0
  191.5460  173.5960  138.8770 F   0  0  0  0  0  0  0  0  0  0  0  0
  191.3690  169.0720  137.1130 C   0  0  0  0  0  1  0  0  0  0  0  0
  191.1470  169.5470  139.5200 N   0  0  0  0  0  0  0  0  0  0  0  0
  191.4110  172.2680  139.1190 C   0  0  0  0  0  0  0  0  0  0  0  0
  191.2290  171.7700  140.4250 C   0  0  0  0  0  0  0  0  0  0  0  0
  191.4570  171.3870  138.0360 C   0  0  0  0  0  3  0  0  0  0  0  0
  1 11  1  0  0  0  0
  2  7  1  0  0  0  0
  3  2  1  0  0  0  0
  3  9  1  0  0  0  0
  5 16  1  0  0  0  0
  5  4  2  0  0  0  0
  6  9  2  0  0  0  0
  6 13  1  0  0  0  0
  7 17  1  0  0  0  0
  8  1  1  0  0  0  0
 10 15  1  0  0  0  0
 10 14  2  0  0  0  0
 12 21  2  0  0  0  0
 12 22  1  0  0  0  0
 14 19  1  0  0  0  0
 15  2  2  0  0  0  0
 16 10  1  0  0  0  0
 17  1  2  0  0  0  0
 18  6  1  0  0  0  0
 19  7  2  0  0  0  0
 19 20  1  0  0  0  0
 20  8  2  0  0  0  0
 21 15  1  0  0  0  0
 22  3  2  0  0  0  0
 23 22  1  0  0  0  0
 23 18  2  0  0  0  0
 24 28  1  0  0  0  0
 26 29  1  0  0  0  0
 27 24  1  0  0  0  0
 28 25  2  0  0  0  0
 29 30  2  0  0  0  0
 30 25  1  0  0  0  0
 30  5  1  0  0  0  0
 31 24  2  0  0  0  0
 31 29  1  0  0  0  0
M  END
>  <MODEL>
9

>  <REMARK>
 VINA RESULT:      -8.0      4.461      5.517
  Name = 
  1 active torsions:
  status: ('A' for Active; 'I' for Inactive)
    1  A    between atoms: C_5  and  C_30
                            x       y       z     vdW  Elec       q    Type
                         _______ _______ _______ _____ _____    ______ ____

>  <TORSDO>
F 1

$$$$
