=
 OpenBabel11112417103D

 37 44  0  0  1  0  0  0  0  0999 V2000
  193.0250  173.8570  143.8040 C   0  0  0  0  0  2  0  0  0  0  0  0
  191.6220  171.7920  139.8680 C   0  0  0  0  0  0  0  0  0  0  0  0
  189.0490  174.6800  141.4260 C   0  0  0  0  0  0  0  0  0  0  0  0
  193.7760  173.7730  145.0470 N   0  0  0  0  0  0  0  0  0  0  0  0
  189.4400  175.0330  145.2570 C   0  0  0  0  0  2  0  0  0  0  0  0
  189.8290  173.5430  139.4390 C   0  0  0  0  0  0  0  0  0  0  0  0
  189.4760  174.7530  142.7340 C   0  0  0  0  0  0  0  0  0  0  0  0
  192.9390  175.8180  146.1570 C   0  0  2  0  0  3  0  0  0  0  0  0
  189.9280  173.8570  140.7810 C   0  0  0  0  0  0  0  0  0  0  0  0
  188.8630  175.4070  143.9050 C   0  0  0  0  0  0  0  0  0  0  0  0
  188.7850  174.1340  138.7100 C   0  0  0  0  0  3  0  0  0  0  0  0
  194.1560  174.9830  145.7640 C   0  0  0  0  0  2  0  0  0  0  0  0
  190.8850  173.4080  141.5950 N   0  0  0  0  0  0  0  0  0  0  0  0
  192.8910  171.2550  139.2400 C   0  0  0  0  0  1  0  0  0  0  0  0
  187.1070  176.2640  141.3520 C   0  0  0  0  0  3  0  0  0  0  0  0
  187.8790  175.0060  139.3620 C   0  0  0  0  0  3  0  0  0  0  0  0
  192.0020  172.5770  141.1460 C   0  0  0  0  0  2  0  0  0  0  0  0
  191.7190  174.9590  146.4870 C   0  0  0  0  0  2  0  0  0  0  0  0
  190.8980  174.5540  145.2590 C   0  0  1  0  0  0  0  0  0  0  0  0
  188.0060  175.2900  140.7410 C   0  0  0  0  0  0  0  0  0  0  0  0
  190.6360  173.9810  142.7960 C   0  0  0  0  0  0  0  0  0  0  0  0
  190.8900  172.6720  138.8220 C   0  0  0  0  0  2  0  0  0  0  0  0
  187.7770  176.2260  143.8490 C   0  0  0  0  0  0  0  0  0  0  0  0
  190.7410  170.6150  140.2440 C   0  0  0  0  0  1  0  0  0  0  0  0
  190.9310  173.0280  145.1260 C   0  0  0  0  0  2  0  0  0  0  0  0
  192.6490  176.7620  145.1700 O   0  0  0  0  0  1  0  0  0  0  0  0
  191.5000  173.8780  144.0140 C   0  0  1  0  0  0  0  0  0  0  0  0
  187.0340  176.6410  142.6300 C   0  0  0  0  0  3  0  0  0  0  0  0
  188.0750  177.4500  146.0040 C   0  0  0  0  0  3  0  0  0  0  0  0
  187.2230  176.8150  145.0880 C   0  0  0  0  0  0  0  0  0  0  0  0
  185.8420  176.7920  145.3380 C   0  0  0  0  0  3  0  0  0  0  0  0
  183.9910  177.3420  146.7350 F   0  0  0  0  0  0  0  0  0  0  0  0
  186.1810  177.9940  147.4110 C   0  0  0  0  0  3  0  0  0  0  0  0
  185.3240  177.3740  146.4980 C   0  0  0  0  0  0  0  0  0  0  0  0
  187.5560  178.0330  147.1640 C   0  0  0  0  0  3  0  0  0  0  0  0
  194.7240  171.5190  145.7970 N   0  0  0  0  0  0  0  0  0  0  0  0
  194.2960  172.5380  145.4590 C   0  0  0  0  0  0  0  0  0  0  0  0
  1  4  1  0  0  0  0
  2 24  1  0  0  0  0
  2 17  1  0  0  0  0
  3  7  1  0  0  0  0
  4 37  1  0  0  0  0
  4 12  1  0  0  0  0
  5 19  1  0  0  0  0
  6  9  2  0  0  0  0
  7 21  2  0  0  0  0
  7 10  1  0  0  0  0
  8 26  1  6  0  0  0
  8 18  1  0  0  0  0
  9  3  1  0  0  0  0
  9 13  1  0  0  0  0
 10  5  1  0  0  0  0
 11 16  2  0  0  0  0
 11  6  1  0  0  0  0
 12  8  1  0  0  0  0
 13 21  1  0  0  0  0
 14  2  1  0  0  0  0
 15 28  2  0  0  0  0
 16 20  1  0  0  0  0
 17 13  1  0  0  0  0
 19 25  1  1  0  0  0
 19 18  1  0  0  0  0
 20 15  1  0  0  0  0
 20  3  2  0  0  0  0
 21 27  1  0  0  0  0
 22  6  1  0  0  0  0
 22  2  1  0  0  0  0
 23 10  2  0  0  0  0
 23 30  1  0  0  0  0
 27  1  1  6  0  0  0
 27 25  1  0  0  0  0
 27 19  1  0  0  0  0
 28 23  1  0  0  0  0
 29 35  1  0  0  0  0
 30 31  1  0  0  0  0
 30 29  2  0  0  0  0
 31 34  2  0  0  0  0
 34 32  1  0  0  0  0
 34 33  1  0  0  0  0
 35 33  2  0  0  0  0
 37 36  3  0  0  0  0
M  END
>  <MODEL>
1

>  <REMARK>
 VINA RESULT:      -8.8      0.000      0.000
  Name = 
  2 active torsions:
  status: ('A' for Active; 'I' for Inactive)
    1  A    between atoms: N_4  and  C_37
    2  A    between atoms: C_23  and  C_30
                            x       y       z     vdW  Elec       q    Type
                         _______ _______ _______ _____ _____    ______ ____

>  <TORSDO>
F 2

$$$$
=
 OpenBabel11112417103D

 37 44  0  0  1  0  0  0  0  0999 V2000
  191.0740  173.1630  141.7300 C   0  0  0  0  0  2  0  0  0  0  0  0
  195.2530  174.8240  142.9580 C   0  0  0  0  0  0  0  0  0  0  0  0
  192.0460  176.0200  145.3400 C   0  0  0  0  0  0  0  0  0  0  0  0
  190.1900  172.6920  140.6750 N   0  0  0  0  0  0  0  0  0  0  0  0
  188.7140  176.0030  143.3750 C   0  0  0  0  0  2  0  0  0  0  0  0
  194.4220  175.5820  145.2380 C   0  0  0  0  0  0  0  0  0  0  0  0
  190.9760  175.7750  144.5060 C   0  0  0  0  0  0  0  0  0  0  0  0
  188.0570  172.6660  141.9270 C   0  0  2  0  0  3  0  0  0  0  0  0
  193.1490  175.5250  144.7040 C   0  0  0  0  0  0  0  0  0  0  0  0
  189.5620  176.1770  144.6220 C   0  0  0  0  0  0  0  0  0  0  0  0
  194.5660  176.1520  146.5130 C   0  0  0  0  0  3  0  0  0  0  0  0
  189.0060  171.9080  141.0000 C   0  0  0  0  0  2  0  0  0  0  0  0
  192.8460  174.9800  143.5250 N   0  0  0  0  0  0  0  0  0  0  0  0
  196.2470  173.8590  142.3480 C   0  0  0  0  0  1  0  0  0  0  0  0
  190.9860  177.0290  147.3750 C   0  0  0  0  0  3  0  0  0  0  0  0
  193.4280  176.6510  147.1910 C   0  0  0  0  0  3  0  0  0  0  0  0
  193.8240  174.3010  142.6750 C   0  0  0  0  0  2  0  0  0  0  0  0
  188.0580  174.1720  141.6650 C   0  0  0  0  0  2  0  0  0  0  0  0
  189.1790  174.9230  142.3890 C   0  0  1  0  0  0  0  0  0  0  0  0
  192.1430  176.5870  146.6040 C   0  0  0  0  0  0  0  0  0  0  0  0
  191.5020  175.0980  143.4060 C   0  0  0  0  0  0  0  0  0  0  0  0
  195.5530  174.9500  144.4730 C   0  0  0  0  0  2  0  0  0  0  0  0
  189.0170  176.7680  145.7190 C   0  0  0  0  0  0  0  0  0  0  0  0
  195.4340  176.1760  142.2920 C   0  0  0  0  0  1  0  0  0  0  0  0
  190.1030  175.5550  141.3430 C   0  0  0  0  0  2  0  0  0  0  0  0
  188.3400  172.3780  143.2640 O   0  0  0  0  0  1  0  0  0  0  0  0
  190.6650  174.5320  142.3020 C   0  0  1  0  0  0  0  0  0  0  0  0
  189.7070  177.0880  146.9970 C   0  0  0  0  0  3  0  0  0  0  0  0
  186.6650  176.4160  146.4790 C   0  0  0  0  0  3  0  0  0  0  0  0
  187.5890  177.1560  145.7260 C   0  0  0  0  0  0  0  0  0  0  0  0
  187.1500  178.2910  145.0250 C   0  0  0  0  0  3  0  0  0  0  0  0
  185.3870  179.7570  144.3750 F   0  0  0  0  0  0  0  0  0  0  0  0
  184.8890  177.9140  145.8020 C   0  0  0  0  0  3  0  0  0  0  0  0
  185.8040  178.6650  145.0590 C   0  0  0  0  0  0  0  0  0  0  0  0
  185.3190  176.7910  146.5130 C   0  0  0  0  0  3  0  0  0  0  0  0
  190.8950  172.9480  138.2300 N   0  0  0  0  0  0  0  0  0  0  0  0
  190.5760  172.8320  139.3360 C   0  0  0  0  0  0  0  0  0  0  0  0
  1 27  1  0  0  0  0
  2 22  1  0  0  0  0
  3 20  1  0  0  0  0
  4 12  1  0  0  0  0
  4  1  1  0  0  0  0
  5 10  1  0  0  0  0
  6 11  2  0  0  0  0
  7 10  1  0  0  0  0
  7  3  1  0  0  0  0
  8 26  1  1  0  0  0
  9  6  1  0  0  0  0
  9  3  2  0  0  0  0
 10 23  2  0  0  0  0
 11 16  1  0  0  0  0
 12  8  1  0  0  0  0
 13  9  1  0  0  0  0
 14  2  1  0  0  0  0
 17  2  1  0  0  0  0
 17 13  1  0  0  0  0
 18  8  1  0  0  0  0
 18 19  1  0  0  0  0
 19 25  1  6  0  0  0
 19  5  1  0  0  0  0
 20 16  2  0  0  0  0
 20 15  1  0  0  0  0
 21 13  1  0  0  0  0
 21  7  2  0  0  0  0
 22  6  1  0  0  0  0
 23 30  1  0  0  0  0
 23 28  1  0  0  0  0
 24  2  1  0  0  0  0
 27 25  1  6  0  0  0
 27 19  1  0  0  0  0
 27 21  1  0  0  0  0
 28 15  2  0  0  0  0
 29 35  1  0  0  0  0
 30 29  2  0  0  0  0
 31 34  2  0  0  0  0
 31 30  1  0  0  0  0
 32 34  1  0  0  0  0
 33 35  2  0  0  0  0
 34 33  1  0  0  0  0
 36 37  3  0  0  0  0
 37  4  1  0  0  0  0
M  END
>  <MODEL>
2

>  <REMARK>
 VINA RESULT:      -8.7      2.122      5.409
  Name = 
  2 active torsions:
  status: ('A' for Active; 'I' for Inactive)
    1  A    between atoms: N_4  and  C_37
    2  A    between atoms: C_23  and  C_30
                            x       y       z     vdW  Elec       q    Type
                         _______ _______ _______ _____ _____    ______ ____

>  <TORSDO>
F 2

$$$$
=
 OpenBabel11112417103D

 37 44  0  0  1  0  0  0  0  0999 V2000
  192.2770  174.5520  143.3400 C   0  0  0  0  0  2  0  0  0  0  0  0
  191.2550  172.0020  139.5740 C   0  0  0  0  0  0  0  0  0  0  0  0
  188.5510  175.0370  140.5070 C   0  0  0  0  0  0  0  0  0  0  0  0
  192.9040  174.6300  144.6500 N   0  0  0  0  0  0  0  0  0  0  0  0
  188.5720  175.8650  144.2850 C   0  0  0  0  0  2  0  0  0  0  0  0
  189.5160  173.6690  138.7620 C   0  0  0  0  0  0  0  0  0  0  0  0
  188.8500  175.2750  141.8310 C   0  0  0  0  0  0  0  0  0  0  0  0
  191.9700  176.7890  145.4120 C   0  0  2  0  0  3  0  0  0  0  0  0
  189.4860  174.1480  140.0570 C   0  0  0  0  0  0  0  0  0  0  0  0
  188.1290  176.0630  142.8470 C   0  0  0  0  0  0  0  0  0  0  0  0
  188.5490  174.1560  137.8670 C   0  0  0  0  0  3  0  0  0  0  0  0
  193.2170  175.9230  145.2430 C   0  0  0  0  0  2  0  0  0  0  0  0
  190.3580  173.8120  141.0080 N   0  0  0  0  0  0  0  0  0  0  0  0
  192.5770  171.4030  139.1430 C   0  0  0  0  0  1  0  0  0  0  0  0
  186.6290  176.5800  140.0510 C   0  0  0  0  0  3  0  0  0  0  0  0
  187.5860  175.0920  138.3160 C   0  0  0  0  0  3  0  0  0  0  0  0
  191.5120  172.9430  140.7750 C   0  0  0  0  0  2  0  0  0  0  0  0
  190.7210  175.9660  145.7270 C   0  0  0  0  0  2  0  0  0  0  0  0
  190.0210  175.4040  144.4860 C   0  0  1  0  0  0  0  0  0  0  0  0
  187.5810  175.5460  139.6550 C   0  0  0  0  0  0  0  0  0  0  0  0
  189.9970  174.5280  142.1000 C   0  0  0  0  0  0  0  0  0  0  0  0
  190.6290  172.7390  138.3620 C   0  0  0  0  0  2  0  0  0  0  0  0
  187.0560  176.8580  142.5860 C   0  0  0  0  0  0  0  0  0  0  0  0
  190.3390  170.8720  140.0070 C   0  0  0  0  0  1  0  0  0  0  0  0
  190.0640  173.8740  144.5470 C   0  0  0  0  0  2  0  0  0  0  0  0
  191.7780  177.6010  144.2910 O   0  0  0  0  0  1  0  0  0  0  0  0
  190.7390  174.5850  143.3980 C   0  0  1  0  0  0  0  0  0  0  0  0
  186.4340  177.1120  141.2590 C   0  0  0  0  0  3  0  0  0  0  0  0
  186.2690  178.9880  143.6250 C   0  0  0  0  0  3  0  0  0  0  0  0
  186.3850  177.5910  143.6840 C   0  0  0  0  0  0  0  0  0  0  0  0
  185.8160  176.9000  144.7640 C   0  0  0  0  0  3  0  0  0  0  0  0
  184.6210  176.9250  146.8260 F   0  0  0  0  0  0  0  0  0  0  0  0
  185.0610  178.9900  145.7230 C   0  0  0  0  0  3  0  0  0  0  0  0
  185.1620  177.5980  145.7830 C   0  0  0  0  0  0  0  0  0  0  0  0
  185.6130  179.6850  144.6430 C   0  0  0  0  0  3  0  0  0  0  0  0
  193.7730  172.4970  145.7620 N   0  0  0  0  0  0  0  0  0  0  0  0
  193.3790  173.4610  145.2590 C   0  0  0  0  0  0  0  0  0  0  0  0
  1  4  1  0  0  0  0
  2 24  1  0  0  0  0
  2 17  1  0  0  0  0
  3  7  1  0  0  0  0
  4 12  1  0  0  0  0
  4 37  1  0  0  0  0
  6  9  2  0  0  0  0
  7 21  2  0  0  0  0
  7 10  1  0  0  0  0
  8 26  1  6  0  0  0
  8 18  1  0  0  0  0
  9  3  1  0  0  0  0
  9 13  1  0  0  0  0
 10  5  1  0  0  0  0
 11 16  2  0  0  0  0
 11  6  1  0  0  0  0
 12  8  1  0  0  0  0
 13 21  1  0  0  0  0
 14  2  1  0  0  0  0
 15 28  2  0  0  0  0
 16 20  1  0  0  0  0
 17 13  1  0  0  0  0
 19  5  1  6  0  0  0
 19 25  1  0  0  0  0
 19 18  1  0  0  0  0
 20 15  1  0  0  0  0
 20  3  2  0  0  0  0
 21 27  1  0  0  0  0
 22  6  1  0  0  0  0
 22  2  1  0  0  0  0
 23 10  2  0  0  0  0
 23 30  1  0  0  0  0
 27  1  1  6  0  0  0
 27 19  1  0  0  0  0
 27 25  1  0  0  0  0
 28 23  1  0  0  0  0
 29 30  2  0  0  0  0
 29 35  1  0  0  0  0
 30 31  1  0  0  0  0
 31 34  2  0  0  0  0
 33 34  1  0  0  0  0
 34 32  1  0  0  0  0
 35 33  2  0  0  0  0
 37 36  3  0  0  0  0
M  END
>  <MODEL>
3

>  <REMARK>
 VINA RESULT:      -8.5      1.203      1.448
  Name = 
  2 active torsions:
  status: ('A' for Active; 'I' for Inactive)
    1  A    between atoms: N_4  and  C_37
    2  A    between atoms: C_23  and  C_30
                            x       y       z     vdW  Elec       q    Type
                         _______ _______ _______ _____ _____    ______ ____

>  <TORSDO>
F 2

$$$$
=
 OpenBabel11112417103D

 37 44  0  0  1  0  0  0  0  0999 V2000
  192.5410  174.2540  143.2940 C   0  0  0  0  0  2  0  0  0  0  0  0
  191.4490  171.6130  139.6110 C   0  0  0  0  0  0  0  0  0  0  0  0
  188.8000  174.7140  140.4780 C   0  0  0  0  0  0  0  0  0  0  0  0
  193.1810  174.3590  144.5950 N   0  0  0  0  0  0  0  0  0  0  0  0
  188.8650  175.6510  144.2300 C   0  0  0  0  0  2  0  0  0  0  0  0
  189.7290  173.2820  138.7650 C   0  0  0  0  0  0  0  0  0  0  0  0
  189.1130  174.9860  141.7920 C   0  0  0  0  0  0  0  0  0  0  0  0
  192.2860  176.5530  145.3030 C   0  0  2  0  0  3  0  0  0  0  0  0
  189.7170  173.7990  140.0460 C   0  0  0  0  0  0  0  0  0  0  0  0
  188.4130  175.8140  142.7910 C   0  0  0  0  0  0  0  0  0  0  0  0
  188.7610  173.7580  137.8650 C   0  0  0  0  0  3  0  0  0  0  0  0
  193.5180  175.6640  145.1490 C   0  0  0  0  0  2  0  0  0  0  0  0
  190.5920  173.4770  140.9990 N   0  0  0  0  0  0  0  0  0  0  0  0
  192.7580  170.9820  139.1860 C   0  0  0  0  0  1  0  0  0  0  0  0
  186.8970  176.2740  139.9930 C   0  0  0  0  0  3  0  0  0  0  0  0
  187.8170  174.7220  138.2940 C   0  0  0  0  0  3  0  0  0  0  0  0
  191.7300  172.5840  140.7830 C   0  0  0  0  0  2  0  0  0  0  0  0
  191.0280  175.7590  145.6510 C   0  0  0  0  0  2  0  0  0  0  0  0
  190.3090  175.1730  144.4330 C   0  0  1  0  0  0  0  0  0  0  0  0
  187.8300  175.2150  139.6190 C   0  0  0  0  0  0  0  0  0  0  0  0
  190.2510  174.2290  142.0730 C   0  0  0  0  0  0  0  0  0  0  0  0
  190.8240  172.3240  138.3830 C   0  0  0  0  0  2  0  0  0  0  0  0
  187.3500  176.6180  142.5160 C   0  0  0  0  0  0  0  0  0  0  0  0
  190.5200  170.5100  140.0840 C   0  0  0  0  0  1  0  0  0  0  0  0
  190.3290  173.6440  144.5380 C   0  0  0  0  0  2  0  0  0  0  0  0
  192.0980  177.3360  144.1600 O   0  0  0  0  0  1  0  0  0  0  0  0
  191.0050  174.3120  143.3630 C   0  0  1  0  0  0  0  0  0  0  0  0
  186.7210  176.8430  141.1880 C   0  0  0  0  0  3  0  0  0  0  0  0
  186.4560  176.7890  144.8400 C   0  0  0  0  0  3  0  0  0  0  0  0
  186.7000  177.3920  143.5970 C   0  0  0  0  0  0  0  0  0  0  0  0
  186.3700  178.7440  143.4130 C   0  0  0  0  0  3  0  0  0  0  0  0
  185.4600  180.7760  144.2630 F   0  0  0  0  0  0  0  0  0  0  0  0
  185.5300  178.8620  145.6800 C   0  0  0  0  0  3  0  0  0  0  0  0
  185.7820  179.4740  144.4500 C   0  0  0  0  0  0  0  0  0  0  0  0
  185.8680  177.5200  145.8760 C   0  0  0  0  0  3  0  0  0  0  0  0
  194.0260  172.2460  145.7620 N   0  0  0  0  0  0  0  0  0  0  0  0
  193.6430  173.2010  145.2350 C   0  0  0  0  0  0  0  0  0  0  0  0
  1  4  1  0  0  0  0
  2 24  1  0  0  0  0
  2 17  1  0  0  0  0
  3  7  1  0  0  0  0
  4 12  1  0  0  0  0
  4 37  1  0  0  0  0
  6  9  2  0  0  0  0
  7 21  2  0  0  0  0
  7 10  1  0  0  0  0
  8 26  1  6  0  0  0
  8 18  1  0  0  0  0
  9  3  1  0  0  0  0
  9 13  1  0  0  0  0
 10  5  1  0  0  0  0
 11 16  2  0  0  0  0
 11  6  1  0  0  0  0
 12  8  1  0  0  0  0
 13 21  1  0  0  0  0
 14  2  1  0  0  0  0
 15 28  2  0  0  0  0
 16 20  1  0  0  0  0
 17 13  1  0  0  0  0
 19  5  1  6  0  0  0
 19 25  1  0  0  0  0
 19 18  1  0  0  0  0
 20 15  1  0  0  0  0
 20  3  2  0  0  0  0
 21 27  1  0  0  0  0
 22  6  1  0  0  0  0
 22  2  1  0  0  0  0
 23 10  2  0  0  0  0
 23 30  1  0  0  0  0
 27  1  1  6  0  0  0
 27 19  1  0  0  0  0
 27 25  1  0  0  0  0
 28 23  1  0  0  0  0
 29 35  1  0  0  0  0
 30 29  2  0  0  0  0
 31 30  1  0  0  0  0
 31 34  2  0  0  0  0
 32 34  1  0  0  0  0
 33 35  2  0  0  0  0
 34 33  1  0  0  0  0
 37 36  3  0  0  0  0
M  END
>  <MODEL>
4

>  <REMARK>
 VINA RESULT:      -8.3      1.303      1.509
  Name = 
  2 active torsions:
  status: ('A' for Active; 'I' for Inactive)
    1  A    between atoms: N_4  and  C_37
    2  A    between atoms: C_23  and  C_30
                            x       y       z     vdW  Elec       q    Type
                         _______ _______ _______ _____ _____    ______ ____

>  <TORSDO>
F 2

$$$$
=
 OpenBabel11112417103D

 37 44  0  0  1  0  0  0  0  0999 V2000
  188.3950  177.7530  144.4630 C   0  0  0  0  0  2  0  0  0  0  0  0
  191.6240  176.5420  147.5990 C   0  0  0  0  0  0  0  0  0  0  0  0
  192.1010  174.9350  143.7810 C   0  0  0  0  0  0  0  0  0  0  0  0
  187.0220  178.1470  144.1890 N   0  0  0  0  0  0  0  0  0  0  0  0
  188.7240  174.6260  141.9220 C   0  0  0  0  0  2  0  0  0  0  0  0
  193.1980  175.6400  145.8180 C   0  0  0  0  0  0  0  0  0  0  0  0
  190.8330  175.0780  143.2610 C   0  0  0  0  0  0  0  0  0  0  0  0
  187.0230  177.9020  141.7280 C   0  0  2  0  0  3  0  0  0  0  0  0
  192.0920  175.5670  144.9930 C   0  0  0  0  0  0  0  0  0  0  0  0
  190.2330  174.5180  142.0360 C   0  0  0  0  0  0  0  0  0  0  0  0
  194.3900  175.0590  145.3590 C   0  0  0  0  0  3  0  0  0  0  0  0
  186.6760  178.7840  142.9250 C   0  0  0  0  0  2  0  0  0  0  0  0
  190.9040  176.1030  145.2700 N   0  0  0  0  0  0  0  0  0  0  0  0
  191.5660  177.6280  148.6530 C   0  0  0  0  0  1  0  0  0  0  0  0
  193.3570  173.7640  141.9550 C   0  0  0  0  0  3  0  0  0  0  0  0
  194.4190  174.4180  144.0960 C   0  0  0  0  0  3  0  0  0  0  0  0
  190.6400  176.9080  146.4630 C   0  0  0  0  0  2  0  0  0  0  0  0
  186.8520  176.4130  142.0260 C   0  0  0  0  0  2  0  0  0  0  0  0
  188.0690  175.7740  142.7000 C   0  0  1  0  0  0  0  0  0  0  0  0
  193.2610  174.3520  143.2870 C   0  0  0  0  0  0  0  0  0  0  0  0
  190.1260  175.8370  144.1940 C   0  0  0  0  0  0  0  0  0  0  0  0
  193.0880  176.4140  147.1040 C   0  0  0  0  0  2  0  0  0  0  0  0
  190.9260  173.8420  141.0790 C   0  0  0  0  0  0  0  0  0  0  0  0
  191.1900  175.2350  148.2390 C   0  0  0  0  0  1  0  0  0  0  0  0
  187.6570  175.2760  144.0900 C   0  0  0  0  0  2  0  0  0  0  0  0
  188.3090  178.1870  141.2620 O   0  0  0  0  0  1  0  0  0  0  0  0
  188.7320  176.3330  143.9740 C   0  0  1  0  0  0  0  0  0  0  0  0
  192.3870  173.5710  141.0580 C   0  0  0  0  0  3  0  0  0  0  0  0
  189.7290  174.1660  138.9120 C   0  0  0  0  0  3  0  0  0  0  0  0
  190.2230  173.2960  139.8960 C   0  0  0  0  0  0  0  0  0  0  0  0
  190.0890  171.9110  139.7180 C   0  0  0  0  0  3  0  0  0  0  0  0
  189.3160  170.0650  138.4220 F   0  0  0  0  0  0  0  0  0  0  0  0
  188.9470  172.2770  137.6150 C   0  0  0  0  0  3  0  0  0  0  0  0
  189.4480  171.4040  138.5830 C   0  0  0  0  0  0  0  0  0  0  0  0
  189.0890  173.6580  137.7790 C   0  0  0  0  0  3  0  0  0  0  0  0
  185.2770  178.0330  146.0550 N   0  0  0  0  0  0  0  0  0  0  0  0
  186.0670  178.0840  145.2120 C   0  0  0  0  0  0  0  0  0  0  0  0
  2 24  1  0  0  0  0
  2 14  1  0  0  0  0
  3  9  1  0  0  0  0
  4  1  1  0  0  0  0
  4 37  1  0  0  0  0
  5 10  1  0  0  0  0
  6 22  1  0  0  0  0
  7  3  1  0  0  0  0
  7 21  2  0  0  0  0
  8 26  1  1  0  0  0
  8 18  1  0  0  0  0
  8 12  1  0  0  0  0
  9 13  1  0  0  0  0
  9  6  2  0  0  0  0
 10  7  1  0  0  0  0
 11  6  1  0  0  0  0
 12  4  1  0  0  0  0
 13 17  1  0  0  0  0
 15 20  1  0  0  0  0
 16 11  2  0  0  0  0
 17  2  1  0  0  0  0
 18 19  1  0  0  0  0
 19  5  1  6  0  0  0
 19 27  1  0  0  0  0
 19 25  1  0  0  0  0
 20  3  2  0  0  0  0
 20 16  1  0  0  0  0
 21 13  1  0  0  0  0
 22  2  1  0  0  0  0
 23 10  2  0  0  0  0
 27 25  1  1  0  0  0
 27 21  1  0  0  0  0
 27  1  1  0  0  0  0
 28 23  1  0  0  0  0
 28 15  2  0  0  0  0
 29 30  1  0  0  0  0
 30 23  1  0  0  0  0
 31 30  2  0  0  0  0
 32 34  1  0  0  0  0
 33 35  1  0  0  0  0
 33 34  2  0  0  0  0
 34 31  1  0  0  0  0
 35 29  2  0  0  0  0
 37 36  3  0  0  0  0
M  END
>  <MODEL>
5

>  <REMARK>
 VINA RESULT:      -8.2      3.237      7.642
  Name = 
  2 active torsions:
  status: ('A' for Active; 'I' for Inactive)
    1  A    between atoms: N_4  and  C_37
    2  A    between atoms: C_23  and  C_30
                            x       y       z     vdW  Elec       q    Type
                         _______ _______ _______ _____ _____    ______ ____

>  <TORSDO>
F 2

$$$$
=
 OpenBabel11112417103D

 37 44  0  0  1  0  0  0  0  0999 V2000
  192.8440  171.7070  140.8210 C   0  0  0  0  0  2  0  0  0  0  0  0
  196.6260  174.1300  139.5740 C   0  0  0  0  0  0  0  0  0  0  0  0
  194.6620  175.4570  143.0040 C   0  0  0  0  0  0  0  0  0  0  0  0
  191.7130  170.8850  140.4210 N   0  0  0  0  0  0  0  0  0  0  0  0
  190.9050  174.5420  142.9520 C   0  0  0  0  0  2  0  0  0  0  0  0
  196.7660  175.3100  141.8210 C   0  0  0  0  0  0  0  0  0  0  0  0
  193.4190  174.8840  142.8500 C   0  0  0  0  0  0  0  0  0  0  0  0
  190.4430  170.8970  142.5430 C   0  0  2  0  0  3  0  0  0  0  0  0
  195.4400  174.9640  141.9950 C   0  0  0  0  0  0  0  0  0  0  0  0
  192.1600  175.1200  143.5800 C   0  0  0  0  0  0  0  0  0  0  0  0
  197.3360  176.1870  142.7570 C   0  0  0  0  0  3  0  0  0  0  0  0
  191.0150  170.0620  141.4000 C   0  0  0  0  0  2  0  0  0  0  0  0
  194.7710  174.1150  141.2150 N   0  0  0  0  0  0  0  0  0  0  0  0
  197.4280  173.1780  138.7120 C   0  0  0  0  0  1  0  0  0  0  0  0
  194.4370  176.7910  145.1150 C   0  0  0  0  0  3  0  0  0  0  0  0
  196.5470  176.6900  143.8200 C   0  0  0  0  0  3  0  0  0  0  0  0
  195.3850  173.3780  140.1110 C   0  0  0  0  0  2  0  0  0  0  0  0
  189.9840  172.2810  142.0860 C   0  0  0  0  0  2  0  0  0  0  0  0
  191.1060  173.3220  142.0440 C   0  0  1  0  0  0  0  0  0  0  0  0
  195.1880  176.3230  143.9540 C   0  0  0  0  0  0  0  0  0  0  0  0
  193.5300  174.0300  141.7520 C   0  0  0  0  0  0  0  0  0  0  0  0
  197.5410  174.6580  140.7080 C   0  0  0  0  0  2  0  0  0  0  0  0
  192.0500  175.8880  144.6980 C   0  0  0  0  0  0  0  0  0  0  0  0
  196.1740  175.2910  138.7060 C   0  0  0  0  0  1  0  0  0  0  0  0
  191.2880  173.7910  140.5960 C   0  0  0  0  0  2  0  0  0  0  0  0
  191.3560  170.9820  143.5970 O   0  0  0  0  0  1  0  0  0  0  0  0
  192.4390  173.1110  141.3020 C   0  0  1  0  0  0  0  0  0  0  0  0
  193.1500  176.5940  145.4070 C   0  0  0  0  0  3  0  0  0  0  0  0
  189.9130  177.1530  144.9550 C   0  0  0  0  0  3  0  0  0  0  0  0
  190.7320  176.0820  145.3430 C   0  0  0  0  0  0  0  0  0  0  0  0
  190.2650  175.1760  146.3070 C   0  0  0  0  0  3  0  0  0  0  0  0
  188.5660  174.4770  147.8260 F   0  0  0  0  0  0  0  0  0  0  0  0
  188.2040  176.4280  146.5080 C   0  0  0  0  0  3  0  0  0  0  0  0
  189.0070  175.3520  146.8910 C   0  0  0  0  0  0  0  0  0  0  0  0
  188.6560  177.3280  145.5380 C   0  0  0  0  0  3  0  0  0  0  0  0
  191.1570  170.6240  137.9380 N   0  0  0  0  0  0  0  0  0  0  0  0
  191.4090  170.7410  139.0610 C   0  0  0  0  0  0  0  0  0  0  0  0
  1 27  1  0  0  0  0
  2 17  1  0  0  0  0
  2 22  1  0  0  0  0
  3 20  1  0  0  0  0
  4  1  1  0  0  0  0
  4 12  1  0  0  0  0
  5 10  1  0  0  0  0
  6  9  1  0  0  0  0
  6 11  2  0  0  0  0
  7  3  1  0  0  0  0
  7 10  1  0  0  0  0
  8 26  1  1  0  0  0
  9  3  2  0  0  0  0
 10 23  2  0  0  0  0
 11 16  1  0  0  0  0
 12  8  1  0  0  0  0
 13 21  1  0  0  0  0
 13  9  1  0  0  0  0
 14  2  1  0  0  0  0
 15 28  2  0  0  0  0
 16 20  2  0  0  0  0
 17 13  1  0  0  0  0
 18  8  1  0  0  0  0
 19 25  1  6  0  0  0
 19 18  1  0  0  0  0
 19  5  1  0  0  0  0
 20 15  1  0  0  0  0
 21  7  2  0  0  0  0
 22  6  1  0  0  0  0
 23 30  1  0  0  0  0
 23 28  1  0  0  0  0
 24  2  1  0  0  0  0
 27 25  1  6  0  0  0
 27 21  1  0  0  0  0
 27 19  1  0  0  0  0
 29 30  2  0  0  0  0
 29 35  1  0  0  0  0
 30 31  1  0  0  0  0
 31 34  2  0  0  0  0
 33 34  1  0  0  0  0
 34 32  1  0  0  0  0
 35 33  2  0  0  0  0
 36 37  3  0  0  0  0
 37  4  1  0  0  0  0
M  END
>  <MODEL>
6

>  <REMARK>
 VINA RESULT:      -8.2      3.092      5.757
  Name = 
  2 active torsions:
  status: ('A' for Active; 'I' for Inactive)
    1  A    between atoms: N_4  and  C_37
    2  A    between atoms: C_23  and  C_30
                            x       y       z     vdW  Elec       q    Type
                         _______ _______ _______ _____ _____    ______ ____

>  <TORSDO>
F 2

$$$$
=
 OpenBabel11112417103D

 37 44  0  0  1  0  0  0  0  0999 V2000
  192.6890  172.0050  142.0240 C   0  0  0  0  0  2  0  0  0  0  0  0
  196.1340  174.1400  144.3260 C   0  0  0  0  0  0  0  0  0  0  0  0
  192.3140  175.7110  144.8980 C   0  0  0  0  0  0  0  0  0  0  0  0
  192.2630  171.2420  140.8620 N   0  0  0  0  0  0  0  0  0  0  0  0
  190.0140  175.0320  141.8650 C   0  0  0  0  0  2  0  0  0  0  0  0
  194.5190  175.3910  145.8390 C   0  0  0  0  0  0  0  0  0  0  0  0
  191.6430  175.2120  143.8030 C   0  0  0  0  0  0  0  0  0  0  0  0
  189.8130  171.4100  141.1500 C   0  0  2  0  0  3  0  0  0  0  0  0
  193.5530  175.1350  144.8850 C   0  0  0  0  0  0  0  0  0  0  0  0
  190.3170  175.5530  143.2570 C   0  0  0  0  0  0  0  0  0  0  0  0
  194.1820  176.2640  146.8860 C   0  0  0  0  0  3  0  0  0  0  0  0
  191.0100  170.4990  140.8840 C   0  0  0  0  0  2  0  0  0  0  0  0
  193.7070  174.3010  143.8560 N   0  0  0  0  0  0  0  0  0  0  0  0
  197.2400  173.1090  144.4100 C   0  0  0  0  0  1  0  0  0  0  0  0
  190.5950  177.1330  146.0430 C   0  0  0  0  0  3  0  0  0  0  0  0
  192.8950  176.8530  146.9220 C   0  0  0  0  0  3  0  0  0  0  0  0
  194.9050  173.4870  143.6500 C   0  0  0  0  0  2  0  0  0  0  0  0
  189.9890  172.8030  140.5450 C   0  0  0  0  0  2  0  0  0  0  0  0
  190.7730  173.7690  141.4370 C   0  0  1  0  0  0  0  0  0  0  0  0
  191.9390  176.5770  145.9170 C   0  0  0  0  0  0  0  0  0  0  0  0
  192.5230  174.3140  143.1990 C   0  0  0  0  0  0  0  0  0  0  0  0
  195.8270  174.6510  145.7570 C   0  0  0  0  0  2  0  0  0  0  0  0
  189.4170  176.3660  143.8730 C   0  0  0  0  0  0  0  0  0  0  0  0
  196.6250  175.2950  143.4710 C   0  0  0  0  0  1  0  0  0  0  0  0
  192.0610  174.1720  140.7110 C   0  0  0  0  0  2  0  0  0  0  0  0
  189.5390  171.4760  142.5180 O   0  0  0  0  0  1  0  0  0  0  0  0
  192.1560  173.4490  142.0350 C   0  0  1  0  0  0  0  0  0  0  0  0
  189.5690  177.0270  145.1960 C   0  0  0  0  0  3  0  0  0  0  0  0
  186.9260  176.5150  143.9500 C   0  0  0  0  0  3  0  0  0  0  0  0
  188.1190  176.6660  143.2280 C   0  0  0  0  0  0  0  0  0  0  0  0
  188.0670  177.1500  141.9110 C   0  0  0  0  0  3  0  0  0  0  0  0
  186.7970  177.9170  140.0460 F   0  0  0  0  0  0  0  0  0  0  0  0
  185.6550  177.2910  142.0420 C   0  0  0  0  0  3  0  0  0  0  0  0
  186.8390  177.4560  141.3190 C   0  0  0  0  0  0  0  0  0  0  0  0
  185.6980  176.8220  143.3580 C   0  0  0  0  0  3  0  0  0  0  0  0
  193.8760  170.9230  138.9020 N   0  0  0  0  0  0  0  0  0  0  0  0
  193.1470  171.0670  139.7880 C   0  0  0  0  0  0  0  0  0  0  0  0
  1 27  1  0  0  0  0
  2 14  1  0  0  0  0
  2 22  1  0  0  0  0
  3 20  1  0  0  0  0
  4 12  1  0  0  0  0
  4  1  1  0  0  0  0
  5 10  1  0  0  0  0
  6 11  2  0  0  0  0
  7  3  1  0  0  0  0
  8 26  1  1  0  0  0
  9  3  2  0  0  0  0
  9  6  1  0  0  0  0
 10  7  1  0  0  0  0
 10 23  2  0  0  0  0
 11 16  1  0  0  0  0
 12  8  1  0  0  0  0
 13  9  1  0  0  0  0
 17 13  1  0  0  0  0
 17  2  1  0  0  0  0
 18  8  1  0  0  0  0
 19 18  1  6  0  0  0
 19  5  1  0  0  0  0
 19 27  1  0  0  0  0
 20 15  1  0  0  0  0
 20 16  2  0  0  0  0
 21  7  2  0  0  0  0
 21 13  1  0  0  0  0
 22  6  1  0  0  0  0
 23 28  1  0  0  0  0
 24  2  1  0  0  0  0
 25 19  1  0  0  0  0
 27 25  1  6  0  0  0
 27 21  1  0  0  0  0
 28 15  2  0  0  0  0
 30 23  1  0  0  0  0
 30 29  2  0  0  0  0
 31 30  1  0  0  0  0
 32 34  1  0  0  0  0
 33 35  2  0  0  0  0
 34 31  2  0  0  0  0
 34 33  1  0  0  0  0
 35 29  1  0  0  0  0
 36 37  3  0  0  0  0
 37  4  1  0  0  0  0
M  END
>  <MODEL>
7

>  <REMARK>
 VINA RESULT:      -8.0      2.491      5.714
  Name = 
  2 active torsions:
  status: ('A' for Active; 'I' for Inactive)
    1  A    between atoms: N_4  and  C_37
    2  A    between atoms: C_23  and  C_30
                            x       y       z     vdW  Elec       q    Type
                         _______ _______ _______ _____ _____    ______ ____

>  <TORSDO>
F 2

$$$$
=
 OpenBabel11112417103D

 37 44  0  0  1  0  0  0  0  0999 V2000
  190.0450  176.5490  144.2160 C   0  0  0  0  0  2  0  0  0  0  0  0
  194.5050  176.5330  145.5690 C   0  0  0  0  0  0  0  0  0  0  0  0
  193.7770  175.2110  141.6820 C   0  0  0  0  0  0  0  0  0  0  0  0
  188.6410  176.4380  144.5780 N   0  0  0  0  0  0  0  0  0  0  0  0
  190.2170  173.7460  141.3080 C   0  0  0  0  0  2  0  0  0  0  0  0
  195.3570  176.2470  143.1920 C   0  0  0  0  0  0  0  0  0  0  0  0
  192.4350  174.9030  141.7420 C   0  0  0  0  0  0  0  0  0  0  0  0
  187.6620  176.2200  142.3180 C   0  0  2  0  0  3  0  0  0  0  0  0
  194.0900  175.7940  142.8770 C   0  0  0  0  0  0  0  0  0  0  0  0
  191.5780  174.1730  140.7900 C   0  0  0  0  0  0  0  0  0  0  0  0
  196.3530  176.1220  142.2090 C   0  0  0  0  0  3  0  0  0  0  0  0
  187.6050  176.9190  143.6740 C   0  0  0  0  0  2  0  0  0  0  0  0
  193.0340  175.8790  143.6870 N   0  0  0  0  0  0  0  0  0  0  0  0
  194.5660  177.5250  146.7110 C   0  0  0  0  0  1  0  0  0  0  0  0
  194.4260  174.5610  139.3490 C   0  0  0  0  0  3  0  0  0  0  0  0
  196.0370  175.5370  140.9590 C   0  0  0  0  0  3  0  0  0  0  0  0
  193.0690  176.5350  144.9930 C   0  0  0  0  0  2  0  0  0  0  0  0
  188.1140  174.7640  142.4260 C   0  0  0  0  0  2  0  0  0  0  0  0
  189.6350  174.5890  142.4500 C   0  0  1  0  0  0  0  0  0  0  0  0
  194.7300  175.0730  140.6820 C   0  0  0  0  0  0  0  0  0  0  0  0
  191.9980  175.3630  142.9840 C   0  0  0  0  0  0  0  0  0  0  0  0
  195.5720  176.9280  144.5160 C   0  0  0  0  0  2  0  0  0  0  0  0
  191.9670  173.7870  139.5440 C   0  0  0  0  0  0  0  0  0  0  0  0
  194.8240  175.1540  146.1200 C   0  0  0  0  0  1  0  0  0  0  0  0
  190.0390  173.9730  143.7940 C   0  0  0  0  0  2  0  0  0  0  0  0
  188.4610  176.9390  141.4260 O   0  0  0  0  0  1  0  0  0  0  0  0
  190.5670  175.3390  143.4210 C   0  0  1  0  0  0  0  0  0  0  0  0
  193.2800  174.0450  138.8990 C   0  0  0  0  0  3  0  0  0  0  0  0
  190.2840  173.7120  137.7010 C   0  0  0  0  0  3  0  0  0  0  0  0
  191.0360  173.0340  138.6730 C   0  0  0  0  0  0  0  0  0  0  0  0
  190.9320  171.6380  138.7710 C   0  0  0  0  0  3  0  0  0  0  0  0
  189.9710  169.5870  138.0300 F   0  0  0  0  0  0  0  0  0  0  0  0
  189.3160  171.6170  136.9690 C   0  0  0  0  0  3  0  0  0  0  0  0
  190.0710  170.9340  137.9250 C   0  0  0  0  0  0  0  0  0  0  0  0
  189.4240  173.0060  136.8560 C   0  0  0  0  0  3  0  0  0  0  0  0
  188.0020  175.7120  146.9460 N   0  0  0  0  0  0  0  0  0  0  0  0
  188.2900  176.0410  145.8760 C   0  0  0  0  0  0  0  0  0  0  0  0
  1  4  1  0  0  0  0
  2 24  1  0  0  0  0
  2 14  1  0  0  0  0
  3  7  1  0  0  0  0
  3  9  1  0  0  0  0
  4 37  1  0  0  0  0
  6 22  1  0  0  0  0
  7 21  2  0  0  0  0
  8 26  1  6  0  0  0
  8 18  1  0  0  0  0
  8 12  1  0  0  0  0
  9  6  2  0  0  0  0
  9 13  1  0  0  0  0
 10  5  1  0  0  0  0
 10  7  1  0  0  0  0
 11  6  1  0  0  0  0
 12  4  1  0  0  0  0
 13 17  1  0  0  0  0
 15 20  1  0  0  0  0
 16 11  2  0  0  0  0
 17  2  1  0  0  0  0
 18 19  1  0  0  0  0
 19  5  1  6  0  0  0
 19 27  1  0  0  0  0
 19 25  1  0  0  0  0
 20 16  1  0  0  0  0
 20  3  2  0  0  0  0
 21 27  1  0  0  0  0
 21 13  1  0  0  0  0
 22  2  1  0  0  0  0
 23 10  2  0  0  0  0
 27 25  1  1  0  0  0
 27  1  1  0  0  0  0
 28 15  2  0  0  0  0
 28 23  1  0  0  0  0
 29 30  1  0  0  0  0
 30 31  2  0  0  0  0
 30 23  1  0  0  0  0
 33 34  2  0  0  0  0
 34 32  1  0  0  0  0
 34 31  1  0  0  0  0
 35 33  1  0  0  0  0
 35 29  2  0  0  0  0
 37 36  3  0  0  0  0
M  END
>  <MODEL>
8

>  <REMARK>
 VINA RESULT:      -7.9      3.427      7.432
  Name = 
  2 active torsions:
  status: ('A' for Active; 'I' for Inactive)
    1  A    between atoms: N_4  and  C_37
    2  A    between atoms: C_23  and  C_30
                            x       y       z     vdW  Elec       q    Type
                         _______ _______ _______ _____ _____    ______ ____

>  <TORSDO>
F 2

$$$$
=
 OpenBabel11112417103D

 37 44  0  0  1  0  0  0  0  0999 V2000
  191.0650  173.7910  139.9010 C   0  0  0  0  0  2  0  0  0  0  0  0
  187.7460  176.2830  142.0240 C   0  0  0  0  0  0  0  0  0  0  0  0
  191.1230  175.4220  144.3140 C   0  0  0  0  0  0  0  0  0  0  0  0
  191.4170  172.7930  138.9030 N   0  0  0  0  0  0  0  0  0  0  0  0
  192.8630  172.1740  143.1410 C   0  0  0  0  0  2  0  0  0  0  0  0
  189.2910  176.9530  143.9280 C   0  0  0  0  0  0  0  0  0  0  0  0
  191.6590  174.3560  143.6250 C   0  0  0  0  0  0  0  0  0  0  0  0
  193.7650  172.3820  139.5620 C   0  0  2  0  0  3  0  0  0  0  0  0
  190.0780  175.8790  143.5610 C   0  0  0  0  0  0  0  0  0  0  0  0
  192.7310  173.4160  144.0020 C   0  0  0  0  0  0  0  0  0  0  0  0
  189.6140  177.6160  145.1230 C   0  0  0  0  0  3  0  0  0  0  0  0
  192.7880  172.6780  138.4250 C   0  0  0  0  0  2  0  0  0  0  0  0
  189.9220  175.1740  142.4400 N   0  0  0  0  0  0  0  0  0  0  0  0
  186.9550  176.9120  140.8960 C   0  0  0  0  0  1  0  0  0  0  0  0
  192.6520  175.6780  146.2850 C   0  0  0  0  0  3  0  0  0  0  0  0
  190.7070  177.1660  145.9030 C   0  0  0  0  0  3  0  0  0  0  0  0
  188.9340  175.5010  141.4130 C   0  0  0  0  0  2  0  0  0  0  0  0
  193.1490  171.5090  140.6540 C   0  0  0  0  0  2  0  0  0  0  0  0
  192.3530  172.2960  141.6990 C   0  0  1  0  0  0  0  0  0  0  0  0
  191.4800  176.0530  145.4990 C   0  0  0  0  0  0  0  0  0  0  0  0
  190.9140  174.2520  142.4510 C   0  0  0  0  0  0  0  0  0  0  0  0
  188.2050  177.4050  142.9900 C   0  0  0  0  0  2  0  0  0  0  0  0
  193.5190  173.5480  145.1040 C   0  0  0  0  0  0  0  0  0  0  0  0
  186.8370  175.3180  142.7630 C   0  0  0  0  0  1  0  0  0  0  0  0
  190.8880  171.8510  141.6390 C   0  0  0  0  0  2  0  0  0  0  0  0
  194.2850  173.5680  140.0860 O   0  0  0  0  0  1  0  0  0  0  0  0
  191.2340  173.2930  141.3480 C   0  0  1  0  0  0  0  0  0  0  0  0
  193.4820  174.6500  146.1010 C   0  0  0  0  0  3  0  0  0  0  0  0
  195.9100  172.8900  145.3910 C   0  0  0  0  0  3  0  0  0  0  0  0
  194.5530  172.5330  145.4070 C   0  0  0  0  0  0  0  0  0  0  0  0
  194.1910  171.2240  145.7630 C   0  0  0  0  0  3  0  0  0  0  0  0
  194.8180  169.0180  146.4090 F   0  0  0  0  0  0  0  0  0  0  0  0
  196.5230  170.6400  146.0420 C   0  0  0  0  0  3  0  0  0  0  0  0
  195.1740  170.2810  146.0740 C   0  0  0  0  0  0  0  0  0  0  0  0
  196.8920  171.9450  145.7030 C   0  0  0  0  0  3  0  0  0  0  0  0
  189.5670  171.4660  137.7370 N   0  0  0  0  0  0  0  0  0  0  0  0
  190.4030  172.0670  138.2640 C   0  0  0  0  0  0  0  0  0  0  0  0
  2 24  1  0  0  0  0
  2 22  1  0  0  0  0
  3 20  1  0  0  0  0
  4  1  1  0  0  0  0
  5 10  1  0  0  0  0
  6 11  2  0  0  0  0
  7 10  1  0  0  0  0
  7  3  1  0  0  0  0
  8 26  1  1  0  0  0
  8 18  1  0  0  0  0
  9  6  1  0  0  0  0
  9  3  2  0  0  0  0
 10 23  2  0  0  0  0
 11 16  1  0  0  0  0
 12  4  1  0  0  0  0
 12  8  1  0  0  0  0
 13 21  1  0  0  0  0
 13  9  1  0  0  0  0
 14  2  1  0  0  0  0
 17  2  1  0  0  0  0
 17 13  1  0  0  0  0
 19 18  1  6  0  0  0
 19  5  1  0  0  0  0
 20 16  2  0  0  0  0
 20 15  1  0  0  0  0
 21  7  2  0  0  0  0
 22  6  1  0  0  0  0
 23 30  1  0  0  0  0
 23 28  1  0  0  0  0
 25 19  1  0  0  0  0
 27  1  1  6  0  0  0
 27 25  1  0  0  0  0
 27 19  1  0  0  0  0
 27 21  1  0  0  0  0
 28 15  2  0  0  0  0
 29 30  2  0  0  0  0
 29 35  1  0  0  0  0
 30 31  1  0  0  0  0
 31 34  2  0  0  0  0
 33 34  1  0  0  0  0
 34 32  1  0  0  0  0
 35 33  2  0  0  0  0
 36 37  3  0  0  0  0
 37  4  1  0  0  0  0
M  END
>  <MODEL>
9

>  <REMARK>
 VINA RESULT:      -7.8      3.353      7.306
  Name = 
  2 active torsions:
  status: ('A' for Active; 'I' for Inactive)
    1  A    between atoms: N_4  and  C_37
    2  A    between atoms: C_23  and  C_30
                            x       y       z     vdW  Elec       q    Type
                         _______ _______ _______ _____ _____    ______ ____

>  <TORSDO>
F 2

$$$$
