=
 OpenBabel11112416233D

 30 35  0  0  1  0  0  0  0  0999 V2000
  187.6800  176.5330  144.8210 C   0  0  0  0  0  0  0  0  0  0  0  0
  186.3670  178.3540  145.9300 C   0  0  0  0  0  0  0  0  0  0  0  0
  186.4130  177.7470  141.0890 N   0  0  0  0  0  0  0  0  0  0  0  0
  188.1080  175.8770  143.6290 C   0  0  0  0  0  0  0  0  0  0  0  0
  188.1230  175.9590  146.1350 C   0  0  0  0  0  2  0  0  0  0  0  0
  190.6620  173.6980  145.0780 O   0  0  0  0  0  0  0  0  0  0  0  0
  188.5480  173.6520  141.5320 C   0  0  1  0  0  3  0  0  0  0  0  0
  189.8270  174.6370  144.9550 C   0  0  0  0  0  0  0  0  0  0  0  0
  188.2860  174.7440  140.6280 N   0  0  0  0  0  0  0  0  0  0  0  0
  186.9880  176.8320  140.3230 N   0  0  0  0  0  0  0  0  0  0  0  0
  189.5940  175.5830  146.0980 C   0  0  2  0  0  3  0  0  0  0  0  0
  189.1300  174.8410  143.7050 N   0  0  0  0  0  0  0  0  0  0  0  0
  185.5210  179.4600  145.8180 C   0  0  0  0  0  3  0  0  0  0  0  0
  188.5040  174.4020  139.2380 C   0  0  0  0  0  2  0  0  0  0  0  0
  189.0590  172.5050  140.6710 C   0  0  0  0  0  2  0  0  0  0  0  0
  186.7480  177.9810  147.1770 F   0  0  0  0  0  0  0  0  0  0  0  0
  186.7690  177.4690  142.3590 C   0  0  0  0  0  0  0  0  0  0  0  0
  185.0940  179.9080  144.5700 C   0  0  0  0  0  3  0  0  0  0  0  0
  186.8060  177.6670  144.7690 C   0  0  0  0  0  0  0  0  0  0  0  0
  187.5890  176.3680  142.4120 C   0  0  0  0  0  0  0  0  0  0  0  0
  186.7780  176.7730  138.8860 C   0  0  0  0  0  1  0  0  0  0  0  0
  187.7020  175.9710  141.0880 C   0  0  0  0  0  0  0  0  0  0  0  0
  188.8450  172.9240  139.2220 C   0  0  0  0  0  2  0  0  0  0  0  0
  190.7760  173.8400  142.3740 O   0  0  0  0  0  0  0  0  0  0  0  0
  185.5110  179.2500  143.4150 C   0  0  0  0  0  3  0  0  0  0  0  0
  186.3600  178.1420  143.5040 C   0  0  0  0  0  0  0  0  0  0  0  0
  189.5500  174.0850  142.5520 C   0  0  0  0  0  0  0  0  0  0  0  0
  189.9990  174.9730  147.4370 C   0  0  0  0  0  2  0  0  0  0  0  0
  191.2160  176.8800  148.0280 C   0  0  0  0  0  1  0  0  0  0  0  0
  191.3160  175.4440  147.8330 N   0  0  0  0  0  2  0  0  0  0  0  0
  1  5  1  0  0  0  0
  2 16  1  0  0  0  0
  3 17  2  0  0  0  0
  4 12  1  0  0  0  0
  4  1  2  0  0  0  0
  7 15  1  6  0  0  0
  7 27  1  0  0  0  0
  8  6  2  0  0  0  0
  8 11  1  0  0  0  0
  9 22  1  0  0  0  0
  9  7  1  0  0  0  0
 10 22  1  0  0  0  0
 10  3  1  0  0  0  0
 11  5  1  0  0  0  0
 11 28  1  1  0  0  0
 12  8  1  0  0  0  0
 13  2  1  0  0  0  0
 14  9  1  0  0  0  0
 17 20  1  0  0  0  0
 17 26  1  0  0  0  0
 18 13  2  0  0  0  0
 19  1  1  0  0  0  0
 19  2  2  0  0  0  0
 20  4  1  0  0  0  0
 21 10  1  0  0  0  0
 22 20  2  0  0  0  0
 23 14  1  0  0  0  0
 23 15  1  0  0  0  0
 24 27  2  0  0  0  0
 25 26  2  0  0  0  0
 25 18  1  0  0  0  0
 26 19  1  0  0  0  0
 27 12  1  0  0  0  0
 28 30  1  0  0  0  0
 30 29  1  0  0  0  0
M  END
>  <MODEL>
1

>  <REMARK>
 VINA RESULT:      -8.8      0.000      0.000
  Name = 
  2 active torsions:
  status: ('A' for Active; 'I' for Inactive)
    1  A    between atoms: C_11  and  C_28
    2  A    between atoms: C_28  and  N_30
                            x       y       z     vdW  Elec       q    Type
                         _______ _______ _______ _____ _____    ______ ____

>  <TORSDO>
F 2

$$$$
=
 OpenBabel11112416233D

 30 35  0  0  1  0  0  0  0  0999 V2000
  186.4100  177.6420  143.7900 C   0  0  0  0  0  0  0  0  0  0  0  0
  184.6510  178.6940  145.2270 C   0  0  0  0  0  0  0  0  0  0  0  0
  188.3430  176.1060  147.0930 N   0  0  0  0  0  0  0  0  0  0  0  0
  187.5890  176.8470  143.6720 C   0  0  0  0  0  0  0  0  0  0  0  0
  185.8340  178.2310  142.5350 C   0  0  0  0  0  2  0  0  0  0  0  0
  187.6110  176.4150  140.0410 O   0  0  0  0  0  0  0  0  0  0  0  0
  190.4850  176.0270  142.9780 C   0  0  1  0  0  3  0  0  0  0  0  0
  187.2060  176.6830  141.2070 C   0  0  0  0  0  0  0  0  0  0  0  0
  190.3800  175.3690  144.2570 N   0  0  0  0  0  0  0  0  0  0  0  0
  189.3860  175.5230  146.5210 N   0  0  0  0  0  0  0  0  0  0  0  0
  185.8150  177.2100  141.4110 C   0  0  2  0  0  3  0  0  0  0  0  0
  188.0550  176.4400  142.3520 N   0  0  0  0  0  0  0  0  0  0  0  0
  184.1240  178.9250  146.5000 C   0  0  0  0  0  3  0  0  0  0  0  0
  191.5160  174.5230  144.5610 C   0  0  0  0  0  2  0  0  0  0  0  0
  191.7700  175.5120  142.3440 C   0  0  0  0  0  2  0  0  0  0  0  0
  183.9920  179.2290  144.1700 F   0  0  0  0  0  0  0  0  0  0  0  0
  187.6060  176.6430  146.1000 C   0  0  0  0  0  0  0  0  0  0  0  0
  184.7410  178.4000  147.6340 C   0  0  0  0  0  3  0  0  0  0  0  0
  185.8290  177.9190  145.0690 C   0  0  0  0  0  0  0  0  0  0  0  0
  188.1750  176.3970  144.8750 C   0  0  0  0  0  0  0  0  0  0  0  0
  190.4440  174.8870  147.2890 C   0  0  0  0  0  1  0  0  0  0  0  0
  189.3260  175.6860  145.1770 C   0  0  0  0  0  0  0  0  0  0  0  0
  192.4990  174.7220  143.4220 C   0  0  0  0  0  2  0  0  0  0  0  0
  189.3140  174.7500  141.3340 O   0  0  0  0  0  0  0  0  0  0  0  0
  185.8990  177.6360  147.5050 C   0  0  0  0  0  3  0  0  0  0  0  0
  186.4430  177.3910  146.2390 C   0  0  0  0  0  0  0  0  0  0  0  0
  189.2790  175.7060  142.1580 C   0  0  0  0  0  0  0  0  0  0  0  0
  185.2550  177.8540  140.1460 C   0  0  0  0  0  2  0  0  0  0  0  0
  182.9220  177.8560  140.2940 C   0  0  0  0  0  1  0  0  0  0  0  0
  184.1040  178.6830  140.4650 N   0  0  0  0  0  2  0  0  0  0  0  0
  1 19  1  0  0  0  0
  2 13  1  0  0  0  0
  4  1  2  0  0  0  0
  4 20  1  0  0  0  0
  5  1  1  0  0  0  0
  6  8  2  0  0  0  0
  7 15  1  6  0  0  0
  7  9  1  0  0  0  0
  8 11  1  0  0  0  0
  8 12  1  0  0  0  0
  9 14  1  0  0  0  0
  9 22  1  0  0  0  0
 10  3  1  0  0  0  0
 10 21  1  0  0  0  0
 11 28  1  6  0  0  0
 11  5  1  0  0  0  0
 12  4  1  0  0  0  0
 13 18  2  0  0  0  0
 15 23  1  0  0  0  0
 16  2  1  0  0  0  0
 17 26  1  0  0  0  0
 17  3  2  0  0  0  0
 19  2  2  0  0  0  0
 19 26  1  0  0  0  0
 20 22  2  0  0  0  0
 20 17  1  0  0  0  0
 22 10  1  0  0  0  0
 23 14  1  0  0  0  0
 24 27  2  0  0  0  0
 25 18  1  0  0  0  0
 26 25  2  0  0  0  0
 27 12  1  0  0  0  0
 27  7  1  0  0  0  0
 28 30  1  0  0  0  0
 29 30  1  0  0  0  0
M  END
>  <MODEL>
2

>  <REMARK>
 VINA RESULT:      -8.7      2.209      5.415
  Name = 
  2 active torsions:
  status: ('A' for Active; 'I' for Inactive)
    1  A    between atoms: C_11  and  C_28
    2  A    between atoms: C_28  and  N_30
                            x       y       z     vdW  Elec       q    Type
                         _______ _______ _______ _____ _____    ______ ____

>  <TORSDO>
F 2

$$$$
=
 OpenBabel11112416233D

 30 35  0  0  1  0  0  0  0  0999 V2000
  188.2970  176.3770  143.4370 C   0  0  0  0  0  0  0  0  0  0  0  0
  185.9380  177.1640  143.7250 C   0  0  0  0  0  0  0  0  0  0  0  0
  189.2310  177.4140  147.3170 N   0  0  0  0  0  0  0  0  0  0  0  0
  189.5960  176.1600  143.9840 C   0  0  0  0  0  0  0  0  0  0  0  0
  188.0820  176.0510  141.9880 C   0  0  0  0  0  2  0  0  0  0  0  0
  191.0250  174.1840  141.2590 O   0  0  0  0  0  0  0  0  0  0  0  0
  192.6550  176.3480  144.3740 C   0  0  1  0  0  3  0  0  0  0  0  0
  190.1770  174.7640  141.9930 C   0  0  0  0  0  0  0  0  0  0  0  0
  192.2640  176.3580  145.7620 N   0  0  0  0  0  0  0  0  0  0  0  0
  190.5190  177.1070  147.3530 N   0  0  0  0  0  0  0  0  0  0  0  0
  188.7210  174.7210  141.6270 C   0  0  2  0  0  3  0  0  0  0  0  0
  190.5890  175.4250  143.2110 N   0  0  0  0  0  0  0  0  0  0  0  0
  184.9490  177.7140  144.5470 C   0  0  0  0  0  3  0  0  0  0  0  0
  193.3860  176.2730  146.6740 C   0  0  0  0  0  2  0  0  0  0  0  0
  194.1660  176.1630  144.3640 C   0  0  0  0  0  2  0  0  0  0  0  0
  185.5910  176.8510  142.4530 F   0  0  0  0  0  0  0  0  0  0  0  0
  188.7900  177.1010  146.0830 C   0  0  0  0  0  0  0  0  0  0  0  0
  185.2280  178.0530  145.8690 C   0  0  0  0  0  3  0  0  0  0  0  0
  187.2460  176.9450  144.2280 C   0  0  0  0  0  0  0  0  0  0  0  0
  189.8030  176.5780  145.3160 C   0  0  0  0  0  0  0  0  0  0  0  0
  191.3520  177.3680  148.5150 C   0  0  0  0  0  1  0  0  0  0  0  0
  190.9070  176.6060  146.1550 C   0  0  0  0  0  0  0  0  0  0  0  0
  194.6300  176.3090  145.8060 C   0  0  0  0  0  2  0  0  0  0  0  0
  192.5060  174.1190  143.5280 O   0  0  0  0  0  0  0  0  0  0  0  0
  186.5050  177.8470  146.3860 C   0  0  0  0  0  3  0  0  0  0  0  0
  187.5090  177.2970  145.5810 C   0  0  0  0  0  0  0  0  0  0  0  0
  191.9420  175.2400  143.6690 C   0  0  0  0  0  0  0  0  0  0  0  0
  188.5110  174.4400  140.1420 C   0  0  0  0  0  2  0  0  0  0  0  0
  188.5580  172.7150  138.5640 C   0  0  0  0  0  1  0  0  0  0  0  0
  188.1860  173.0390  139.9310 N   0  0  0  0  0  2  0  0  0  0  0  0
  1  4  2  0  0  0  0
  1 19  1  0  0  0  0
  2 19  2  0  0  0  0
  2 13  1  0  0  0  0
  3 10  1  0  0  0  0
  4 20  1  0  0  0  0
  5  1  1  0  0  0  0
  6  8  2  0  0  0  0
  7 15  1  1  0  0  0
  7  9  1  0  0  0  0
  8 12  1  0  0  0  0
  9 22  1  0  0  0  0
  9 14  1  0  0  0  0
 10 21  1  0  0  0  0
 11 28  1  6  0  0  0
 11  5  1  0  0  0  0
 11  8  1  0  0  0  0
 12 27  1  0  0  0  0
 12  4  1  0  0  0  0
 13 18  2  0  0  0  0
 15 23  1  0  0  0  0
 16  2  1  0  0  0  0
 17  3  2  0  0  0  0
 18 25  1  0  0  0  0
 19 26  1  0  0  0  0
 20 17  1  0  0  0  0
 20 22  2  0  0  0  0
 22 10  1  0  0  0  0
 23 14  1  0  0  0  0
 24 27  2  0  0  0  0
 26 17  1  0  0  0  0
 26 25  2  0  0  0  0
 27  7  1  0  0  0  0
 29 30  1  0  0  0  0
 30 28  1  0  0  0  0
M  END
>  <MODEL>
3

>  <REMARK>
 VINA RESULT:      -8.4      2.160      5.723
  Name = 
  2 active torsions:
  status: ('A' for Active; 'I' for Inactive)
    1  A    between atoms: C_11  and  C_28
    2  A    between atoms: C_28  and  N_30
                            x       y       z     vdW  Elec       q    Type
                         _______ _______ _______ _____ _____    ______ ____

>  <TORSDO>
F 2

$$$$
=
 OpenBabel11112416233D

 30 35  0  0  1  0  0  0  0  0999 V2000
  188.3490  175.7710  142.6680 C   0  0  0  0  0  0  0  0  0  0  0  0
  186.3360  177.2480  142.4920 C   0  0  0  0  0  0  0  0  0  0  0  0
  189.2790  177.2960  146.3840 N   0  0  0  0  0  0  0  0  0  0  0  0
  189.4750  175.3090  143.4120 C   0  0  0  0  0  0  0  0  0  0  0  0
  188.1490  175.2190  141.2860 C   0  0  0  0  0  2  0  0  0  0  0  0
  190.4120  172.4710  141.3060 O   0  0  0  0  0  0  0  0  0  0  0  0
  192.4050  174.6840  144.1650 C   0  0  1  0  0  3  0  0  0  0  0  0
  189.7350  173.4130  141.8040 C   0  0  0  0  0  0  0  0  0  0  0  0
  191.9380  175.1030  145.4640 N   0  0  0  0  0  0  0  0  0  0  0  0
  190.4020  176.6450  146.6460 N   0  0  0  0  0  0  0  0  0  0  0  0
  188.3680  173.7160  141.2620 C   0  0  2  0  0  3  0  0  0  0  0  0
  190.2440  174.1710  142.9250 N   0  0  0  0  0  0  0  0  0  0  0  0
  185.5100  178.2220  143.0610 C   0  0  0  0  0  3  0  0  0  0  0  0
  192.9100  174.8930  146.5170 C   0  0  0  0  0  2  0  0  0  0  0  0
  193.7810  174.0730  144.3890 C   0  0  0  0  0  2  0  0  0  0  0  0
  186.0020  176.7840  141.2630 F   0  0  0  0  0  0  0  0  0  0  0  0
  188.8530  176.8680  145.1800 C   0  0  0  0  0  0  0  0  0  0  0  0
  185.7850  178.7400  144.3250 C   0  0  0  0  0  3  0  0  0  0  0  0
  187.4730  176.7720  143.1960 C   0  0  0  0  0  0  0  0  0  0  0  0
  189.7050  175.9240  144.6620 C   0  0  0  0  0  0  0  0  0  0  0  0
  191.1900  176.8960  147.8410 C   0  0  0  0  0  1  0  0  0  0  0  0
  190.7000  175.8100  145.6210 C   0  0  0  0  0  0  0  0  0  0  0  0
  194.1640  174.3830  145.8300 C   0  0  0  0  0  2  0  0  0  0  0  0
  191.6340  172.4660  143.7260 O   0  0  0  0  0  0  0  0  0  0  0  0
  186.8950  178.2890  145.0360 C   0  0  0  0  0  3  0  0  0  0  0  0
  187.7340  177.3140  144.4850 C   0  0  0  0  0  0  0  0  0  0  0  0
  191.4370  173.7050  143.5850 C   0  0  0  0  0  0  0  0  0  0  0  0
  188.1880  173.1980  139.8370 C   0  0  0  0  0  2  0  0  0  0  0  0
  189.2470  173.8140  137.8460 C   0  0  0  0  0  1  0  0  0  0  0  0
  188.3400  174.2810  138.8800 N   0  0  0  0  0  2  0  0  0  0  0  0
  1 19  1  0  0  0  0
  1  4  2  0  0  0  0
  2 13  2  0  0  0  0
  2 19  1  0  0  0  0
  3 10  1  0  0  0  0
  4 20  1  0  0  0  0
  5  1  1  0  0  0  0
  6  8  2  0  0  0  0
  7 15  1  1  0  0  0
  7  9  1  0  0  0  0
  8 12  1  0  0  0  0
  9 22  1  0  0  0  0
  9 14  1  0  0  0  0
 10 21  1  0  0  0  0
 11 28  1  6  0  0  0
 11  5  1  0  0  0  0
 11  8  1  0  0  0  0
 12  4  1  0  0  0  0
 12 27  1  0  0  0  0
 13 18  1  0  0  0  0
 15 23  1  0  0  0  0
 16  2  1  0  0  0  0
 17  3  2  0  0  0  0
 18 25  2  0  0  0  0
 19 26  2  0  0  0  0
 20 17  1  0  0  0  0
 20 22  2  0  0  0  0
 22 10  1  0  0  0  0
 23 14  1  0  0  0  0
 26 25  1  0  0  0  0
 26 17  1  0  0  0  0
 27 24  2  0  0  0  0
 27  7  1  0  0  0  0
 29 30  1  0  0  0  0
 30 28  1  0  0  0  0
M  END
>  <MODEL>
4

>  <REMARK>
 VINA RESULT:      -7.7      2.196      5.565
  Name = 
  2 active torsions:
  status: ('A' for Active; 'I' for Inactive)
    1  A    between atoms: C_11  and  C_28
    2  A    between atoms: C_28  and  N_30
                            x       y       z     vdW  Elec       q    Type
                         _______ _______ _______ _____ _____    ______ ____

>  <TORSDO>
F 2

$$$$
=
 OpenBabel11112416233D

 30 35  0  0  1  0  0  0  0  0999 V2000
  188.4810  175.8160  143.1480 C   0  0  0  0  0  0  0  0  0  0  0  0
  188.3910  176.4900  145.5570 C   0  0  0  0  0  0  0  0  0  0  0  0
  190.4490  172.3160  144.0880 N   0  0  0  0  0  0  0  0  0  0  0  0
  188.8520  174.8680  142.1490 C   0  0  0  0  0  0  0  0  0  0  0  0
  187.8520  177.1010  142.6950 C   0  0  0  0  0  2  0  0  0  0  0  0
  187.0900  176.3370  139.3020 O   0  0  0  0  0  0  0  0  0  0  0  0
  190.2080  173.6550  139.6520 C   0  0  1  0  0  3  0  0  0  0  0  0
  187.4390  176.0940  140.4910 C   0  0  0  0  0  0  0  0  0  0  0  0
  190.3170  172.5140  140.5280 N   0  0  0  0  0  0  0  0  0  0  0  0
  190.6440  171.8090  142.8800 N   0  0  0  0  0  0  0  0  0  0  0  0
  186.8050  176.8480  141.6240 C   0  0  2  0  0  3  0  0  0  0  0  0
  188.4070  175.0580  140.7740 N   0  0  0  0  0  0  0  0  0  0  0  0
  188.6760  176.2000  146.8950 C   0  0  0  0  0  3  0  0  0  0  0  0
  190.8080  171.3260  139.8600 C   0  0  0  0  0  2  0  0  0  0  0  0
  190.5880  173.1590  138.2640 C   0  0  0  0  0  2  0  0  0  0  0  0
  187.7550  177.6570  145.2920 F   0  0  0  0  0  0  0  0  0  0  0  0
  189.7860  173.4780  143.9200 C   0  0  0  0  0  0  0  0  0  0  0  0
  189.3200  175.0150  147.2460 C   0  0  0  0  0  3  0  0  0  0  0  0
  188.7550  175.5770  144.5330 C   0  0  0  0  0  0  0  0  0  0  0  0
  189.5430  173.7180  142.5890 C   0  0  0  0  0  0  0  0  0  0  0  0
  191.3900  170.5820  142.6590 C   0  0  0  0  0  1  0  0  0  0  0  0
  190.1180  172.6350  141.9430 C   0  0  0  0  0  0  0  0  0  0  0  0
  191.1440  171.7530  138.4440 C   0  0  0  0  0  2  0  0  0  0  0  0
  187.9670  173.8150  138.8400 O   0  0  0  0  0  0  0  0  0  0  0  0
  189.6870  174.1030  146.2580 C   0  0  0  0  0  3  0  0  0  0  0  0
  189.4100  174.3730  144.9140 C   0  0  0  0  0  0  0  0  0  0  0  0
  188.8120  174.1830  139.7030 C   0  0  0  0  0  0  0  0  0  0  0  0
  186.2120  178.1780  141.1660 C   0  0  0  0  0  2  0  0  0  0  0  0
  184.2640  178.0950  142.4560 C   0  0  0  0  0  1  0  0  0  0  0  0
  184.7620  178.0890  141.0920 N   0  0  0  0  0  2  0  0  0  0  0  0
  1 19  1  0  0  0  0
  2 13  1  0  0  0  0
  4 20  1  0  0  0  0
  4  1  2  0  0  0  0
  5  1  1  0  0  0  0
  6  8  2  0  0  0  0
  7 15  1  6  0  0  0
  7 27  1  0  0  0  0
  7  9  1  0  0  0  0
  8 12  1  0  0  0  0
  8 11  1  0  0  0  0
  9 22  1  0  0  0  0
 10  3  1  0  0  0  0
 11 28  1  6  0  0  0
 11  5  1  0  0  0  0
 12  4  1  0  0  0  0
 13 18  2  0  0  0  0
 14  9  1  0  0  0  0
 15 23  1  0  0  0  0
 16  2  1  0  0  0  0
 17  3  2  0  0  0  0
 17 26  1  0  0  0  0
 19 26  1  0  0  0  0
 19  2  2  0  0  0  0
 20 17  1  0  0  0  0
 21 10  1  0  0  0  0
 22 20  2  0  0  0  0
 22 10  1  0  0  0  0
 23 14  1  0  0  0  0
 24 27  2  0  0  0  0
 25 18  1  0  0  0  0
 26 25  2  0  0  0  0
 27 12  1  0  0  0  0
 30 28  1  0  0  0  0
 30 29  1  0  0  0  0
M  END
>  <MODEL>
5

>  <REMARK>
 VINA RESULT:      -7.6      2.452      5.337
  Name = 
  2 active torsions:
  status: ('A' for Active; 'I' for Inactive)
    1  A    between atoms: C_11  and  C_28
    2  A    between atoms: C_28  and  N_30
                            x       y       z     vdW  Elec       q    Type
                         _______ _______ _______ _____ _____    ______ ____

>  <TORSDO>
F 2

$$$$
=
 OpenBabel11112416233D

 30 35  0  0  1  0  0  0  0  0999 V2000
  189.0100  175.3340  143.9040 C   0  0  0  0  0  0  0  0  0  0  0  0
  190.7800  174.3490  145.3750 C   0  0  0  0  0  0  0  0  0  0  0  0
  187.7230  177.8190  146.9320 N   0  0  0  0  0  0  0  0  0  0  0  0
  187.9410  176.2590  143.7170 C   0  0  0  0  0  0  0  0  0  0  0  0
  189.3430  174.4080  142.7700 C   0  0  0  0  0  2  0  0  0  0  0  0
  187.5250  175.9080  140.1010 O   0  0  0  0  0  0  0  0  0  0  0  0
  185.1140  177.3560  143.1240 C   0  0  1  0  0  3  0  0  0  0  0  0
  188.0320  175.8340  141.2550 C   0  0  0  0  0  0  0  0  0  0  0  0
  185.4640  178.2460  144.2030 N   0  0  0  0  0  0  0  0  0  0  0  0
  186.7030  178.4230  146.3410 N   0  0  0  0  0  0  0  0  0  0  0  0
  189.3560  175.1520  141.4450 C   0  0  2  0  0  3  0  0  0  0  0  0
  187.3720  176.4440  142.3870 N   0  0  0  0  0  0  0  0  0  0  0  0
  191.4270  174.3140  146.6140 C   0  0  0  0  0  3  0  0  0  0  0  0
  184.4970  179.3040  144.4090 C   0  0  0  0  0  2  0  0  0  0  0  0
  183.8400  177.9180  142.5100 C   0  0  0  0  0  2  0  0  0  0  0  0
  191.2260  173.5060  144.4120 F   0  0  0  0  0  0  0  0  0  0  0  0
  188.2530  176.9750  146.0250 C   0  0  0  0  0  0  0  0  0  0  0  0
  191.0300  175.1580  147.6490 C   0  0  0  0  0  3  0  0  0  0  0  0
  189.7040  175.2470  145.1540 C   0  0  0  0  0  0  0  0  0  0  0  0
  187.5740  177.0400  144.8340 C   0  0  0  0  0  0  0  0  0  0  0  0
  185.8420  179.3650  147.0370 C   0  0  0  0  0  1  0  0  0  0  0  0
  186.5730  177.9710  145.0700 C   0  0  0  0  0  0  0  0  0  0  0  0
  183.3620  179.0240  143.4410 C   0  0  0  0  0  2  0  0  0  0  0  0
  186.2300  178.0550  141.1300 O   0  0  0  0  0  0  0  0  0  0  0  0
  189.9760  176.0490  147.4560 C   0  0  0  0  0  3  0  0  0  0  0  0
  189.3160  176.1010  146.2240 C   0  0  0  0  0  0  0  0  0  0  0  0
  186.2410  177.3020  142.1440 C   0  0  0  0  0  0  0  0  0  0  0  0
  189.6650  174.1740  140.3140 C   0  0  0  0  0  2  0  0  0  0  0  0
  188.3400  172.5820  139.2290 C   0  0  0  0  0  1  0  0  0  0  0  0
  188.9370  172.9300  140.5070 N   0  0  0  0  0  2  0  0  0  0  0  0
  1 19  1  0  0  0  0
  2 13  1  0  0  0  0
  4  1  2  0  0  0  0
  4 20  1  0  0  0  0
  5  1  1  0  0  0  0
  6  8  2  0  0  0  0
  7 15  1  6  0  0  0
  7  9  1  0  0  0  0
  8 11  1  0  0  0  0
  8 12  1  0  0  0  0
  9 14  1  0  0  0  0
  9 22  1  0  0  0  0
 10  3  1  0  0  0  0
 10 21  1  0  0  0  0
 11 28  1  6  0  0  0
 11  5  1  0  0  0  0
 12  4  1  0  0  0  0
 13 18  2  0  0  0  0
 15 23  1  0  0  0  0
 16  2  1  0  0  0  0
 17 26  1  0  0  0  0
 17  3  2  0  0  0  0
 19  2  2  0  0  0  0
 19 26  1  0  0  0  0
 20 22  2  0  0  0  0
 20 17  1  0  0  0  0
 22 10  1  0  0  0  0
 23 14  1  0  0  0  0
 24 27  2  0  0  0  0
 25 18  1  0  0  0  0
 26 25  2  0  0  0  0
 27 12  1  0  0  0  0
 27  7  1  0  0  0  0
 28 30  1  0  0  0  0
 29 30  1  0  0  0  0
M  END
>  <MODEL>
6

>  <REMARK>
 VINA RESULT:      -7.5      2.599      6.187
  Name = 
  2 active torsions:
  status: ('A' for Active; 'I' for Inactive)
    1  A    between atoms: C_11  and  C_28
    2  A    between atoms: C_28  and  N_30
                            x       y       z     vdW  Elec       q    Type
                         _______ _______ _______ _____ _____    ______ ____

>  <TORSDO>
F 2

$$$$
=
 OpenBabel11112416233D

 30 35  0  0  1  0  0  0  0  0999 V2000
  188.6740  176.5340  145.2370 C   0  0  0  0  0  0  0  0  0  0  0  0
  186.7230  178.0120  145.7610 C   0  0  0  0  0  0  0  0  0  0  0  0
  187.3420  175.9630  141.3760 N   0  0  0  0  0  0  0  0  0  0  0  0
  189.3950  175.7340  144.3010 C   0  0  0  0  0  0  0  0  0  0  0  0
  189.1920  176.6050  146.6440 C   0  0  0  0  0  2  0  0  0  0  0  0
  192.4390  175.1960  146.2540 O   0  0  0  0  0  0  0  0  0  0  0  0
  190.7500  173.2740  143.0140 C   0  0  1  0  0  3  0  0  0  0  0  0
  191.3370  175.6820  145.8740 C   0  0  0  0  0  0  0  0  0  0  0  0
  190.1860  173.8530  141.8200 N   0  0  0  0  0  0  0  0  0  0  0  0
  188.2590  175.1230  140.9190 N   0  0  0  0  0  0  0  0  0  0  0  0
  190.7000  176.7910  146.6610 C   0  0  2  0  0  3  0  0  0  0  0  0
  190.7090  175.2150  144.6580 N   0  0  0  0  0  0  0  0  0  0  0  0
  185.5500  178.6440  145.3380 C   0  0  0  0  0  3  0  0  0  0  0  0
  190.6140  173.1910  140.6050 C   0  0  0  0  0  2  0  0  0  0  0  0
  191.6960  172.1780  142.5440 C   0  0  0  0  0  2  0  0  0  0  0  0
  187.1180  178.2160  147.0420 F   0  0  0  0  0  0  0  0  0  0  0  0
  187.6770  176.2480  142.6500 C   0  0  0  0  0  0  0  0  0  0  0  0
  185.0870  178.4890  144.0330 C   0  0  0  0  0  3  0  0  0  0  0  0
  187.4620  177.1980  144.8630 C   0  0  0  0  0  0  0  0  0  0  0  0
  188.8280  175.5930  143.0160 C   0  0  0  0  0  0  0  0  0  0  0  0
  188.1910  174.5410  139.5890 C   0  0  0  0  0  1  0  0  0  0  0  0
  189.1730  174.8660  141.8870 C   0  0  0  0  0  0  0  0  0  0  0  0
  191.4560  172.0100  141.0500 C   0  0  0  0  0  2  0  0  0  0  0  0
  192.6970  174.5050  143.6460 O   0  0  0  0  0  0  0  0  0  0  0  0
  185.7950  177.6950  143.1330 C   0  0  0  0  0  3  0  0  0  0  0  0
  186.9720  177.0550  143.5350 C   0  0  0  0  0  0  0  0  0  0  0  0
  191.4540  174.3370  143.7920 C   0  0  0  0  0  0  0  0  0  0  0  0
  191.1930  176.8250  148.1050 C   0  0  0  0  0  2  0  0  0  0  0  0
  191.5660  178.2910  149.8870 C   0  0  0  0  0  1  0  0  0  0  0  0
  190.6560  177.9840  148.7980 N   0  0  0  0  0  2  0  0  0  0  0  0
  1  5  1  0  0  0  0
  2 16  1  0  0  0  0
  3 17  2  0  0  0  0
  4 12  1  0  0  0  0
  4  1  2  0  0  0  0
  5 11  1  0  0  0  0
  7 15  1  6  0  0  0
  7 27  1  0  0  0  0
  8  6  2  0  0  0  0
  8 11  1  0  0  0  0
  9 22  1  0  0  0  0
  9  7  1  0  0  0  0
 10  3  1  0  0  0  0
 10 22  1  0  0  0  0
 11 28  1  1  0  0  0
 12  8  1  0  0  0  0
 13  2  1  0  0  0  0
 14 23  1  0  0  0  0
 14  9  1  0  0  0  0
 17 20  1  0  0  0  0
 17 26  1  0  0  0  0
 18 13  2  0  0  0  0
 19  1  1  0  0  0  0
 19  2  2  0  0  0  0
 20  4  1  0  0  0  0
 21 10  1  0  0  0  0
 22 20  2  0  0  0  0
 23 15  1  0  0  0  0
 24 27  2  0  0  0  0
 25 26  2  0  0  0  0
 25 18  1  0  0  0  0
 26 19  1  0  0  0  0
 27 12  1  0  0  0  0
 28 30  1  0  0  0  0
 30 29  1  0  0  0  0
M  END
>  <MODEL>
7

>  <REMARK>
 VINA RESULT:      -7.5      1.617      2.070
  Name = 
  2 active torsions:
  status: ('A' for Active; 'I' for Inactive)
    1  A    between atoms: C_11  and  C_28
    2  A    between atoms: C_28  and  N_30
                            x       y       z     vdW  Elec       q    Type
                         _______ _______ _______ _____ _____    ______ ____

>  <TORSDO>
F 2

$$$$
=
 OpenBabel11112416233D

 30 35  0  0  1  0  0  0  0  0999 V2000
  187.1770  176.3390  141.7880 C   0  0  0  0  0  0  0  0  0  0  0  0
  185.3540  177.5270  140.5500 C   0  0  0  0  0  0  0  0  0  0  0  0
  185.5980  177.4760  145.4230 N   0  0  0  0  0  0  0  0  0  0  0  0
  187.7720  175.9470  143.0230 C   0  0  0  0  0  0  0  0  0  0  0  0
  187.8790  175.9520  140.5180 C   0  0  0  0  0  2  0  0  0  0  0  0
  190.2350  173.5730  141.7310 O   0  0  0  0  0  0  0  0  0  0  0  0
  189.8600  175.6480  145.2800 C   0  0  1  0  0  3  0  0  0  0  0  0
  189.2300  174.3360  141.7870 C   0  0  0  0  0  0  0  0  0  0  0  0
  188.6860  175.8210  146.1000 N   0  0  0  0  0  0  0  0  0  0  0  0
  186.4920  176.9610  146.2540 N   0  0  0  0  0  0  0  0  0  0  0  0
  188.3580  174.5110  140.5770 C   0  0  2  0  0  3  0  0  0  0  0  0
  188.8830  175.0030  143.0220 N   0  0  0  0  0  0  0  0  0  0  0  0
  184.1840  178.2900  140.5820 C   0  0  0  0  0  3  0  0  0  0  0  0
  188.9380  175.6140  147.5110 C   0  0  0  0  0  2  0  0  0  0  0  0
  190.9730  175.2130  146.2240 C   0  0  0  0  0  2  0  0  0  0  0  0
  185.8470  177.1860  139.3330 F   0  0  0  0  0  0  0  0  0  0  0  0
  185.9960  177.1540  144.1760 C   0  0  0  0  0  0  0  0  0  0  0  0
  183.6140  178.6700  141.7950 C   0  0  0  0  0  3  0  0  0  0  0  0
  185.9830  177.1280  141.7580 C   0  0  0  0  0  0  0  0  0  0  0  0
  187.1540  176.4170  144.2030 C   0  0  0  0  0  0  0  0  0  0  0  0
  186.4280  177.1600  147.6920 C   0  0  0  0  0  1  0  0  0  0  0  0
  187.4580  176.3190  145.5520 C   0  0  0  0  0  0  0  0  0  0  0  0
  190.4320  175.3810  147.6370 C   0  0  0  0  0  2  0  0  0  0  0  0
  189.8990  173.4210  144.4160 O   0  0  0  0  0  0  0  0  0  0  0  0
  184.2120  178.2900  142.9950 C   0  0  0  0  0  3  0  0  0  0  0  0
  185.3830  177.5250  142.9850 C   0  0  0  0  0  0  0  0  0  0  0  0
  189.5790  174.6280  144.2260 C   0  0  0  0  0  0  0  0  0  0  0  0
  189.0950  174.1660  139.2860 C   0  0  0  0  0  2  0  0  0  0  0  0
  188.2140  174.5390  137.1530 C   0  0  0  0  0  1  0  0  0  0  0  0
  188.1660  173.6440  138.2950 N   0  0  0  0  0  2  0  0  0  0  0  0
  1  4  2  0  0  0  0
  2 13  2  0  0  0  0
  2 19  1  0  0  0  0
  3 10  1  0  0  0  0
  4 20  1  0  0  0  0
  5 11  1  0  0  0  0
  5  1  1  0  0  0  0
  6  8  2  0  0  0  0
  7  9  1  0  0  0  0
  7 15  1  1  0  0  0
  8 12  1  0  0  0  0
  9 14  1  0  0  0  0
 10 21  1  0  0  0  0
 11 28  1  6  0  0  0
 11  8  1  0  0  0  0
 12  4  1  0  0  0  0
 12 27  1  0  0  0  0
 13 18  1  0  0  0  0
 14 23  1  0  0  0  0
 15 23  1  0  0  0  0
 16  2  1  0  0  0  0
 17 20  1  0  0  0  0
 17  3  2  0  0  0  0
 18 25  2  0  0  0  0
 19  1  1  0  0  0  0
 19 26  2  0  0  0  0
 20 22  2  0  0  0  0
 22  9  1  0  0  0  0
 22 10  1  0  0  0  0
 26 25  1  0  0  0  0
 26 17  1  0  0  0  0
 27 24  2  0  0  0  0
 27  7  1  0  0  0  0
 29 30  1  0  0  0  0
 30 28  1  0  0  0  0
M  END
>  <MODEL>
8

>  <REMARK>
 VINA RESULT:      -7.4      2.348      5.665
  Name = 
  2 active torsions:
  status: ('A' for Active; 'I' for Inactive)
    1  A    between atoms: C_11  and  C_28
    2  A    between atoms: C_28  and  N_30
                            x       y       z     vdW  Elec       q    Type
                         _______ _______ _______ _____ _____    ______ ____

>  <TORSDO>
F 2

$$$$
=
 OpenBabel11112416233D

 30 35  0  0  1  0  0  0  0  0999 V2000
  188.3890  176.0370  144.1350 C   0  0  0  0  0  0  0  0  0  0  0  0
  186.8850  177.9380  144.7620 C   0  0  0  0  0  0  0  0  0  0  0  0
  187.2470  176.2960  140.1810 N   0  0  0  0  0  0  0  0  0  0  0  0
  188.9310  175.1760  143.1360 C   0  0  0  0  0  0  0  0  0  0  0  0
  188.7990  175.8030  145.5600 C   0  0  0  0  0  2  0  0  0  0  0  0
  191.5540  173.5890  145.1290 O   0  0  0  0  0  0  0  0  0  0  0  0
  189.6520  172.5920  141.6030 C   0  0  1  0  0  3  0  0  0  0  0  0
  190.6600  174.4050  144.7690 C   0  0  0  0  0  0  0  0  0  0  0  0
  189.3600  173.4350  140.4700 N   0  0  0  0  0  0  0  0  0  0  0  0
  187.9300  175.2880  139.6590 N   0  0  0  0  0  0  0  0  0  0  0  0
  190.2940  175.5540  145.6630 C   0  0  2  0  0  3  0  0  0  0  0  0
  190.0210  174.2710  143.4780 N   0  0  0  0  0  0  0  0  0  0  0  0
  185.9660  178.9170  144.3750 C   0  0  0  0  0  3  0  0  0  0  0  0
  189.6810  172.8180  139.2000 C   0  0  0  0  0  2  0  0  0  0  0  0
  190.2930  171.3330  141.0370 C   0  0  0  0  0  2  0  0  0  0  0  0
  187.2220  177.8790  146.0740 F   0  0  0  0  0  0  0  0  0  0  0  0
  187.5510  176.3320  141.4940 C   0  0  0  0  0  0  0  0  0  0  0  0
  185.5780  179.0440  143.0430 C   0  0  0  0  0  3  0  0  0  0  0  0
  187.4370  177.0530  143.7990 C   0  0  0  0  0  0  0  0  0  0  0  0
  188.4460  175.3430  141.8210 C   0  0  0  0  0  0  0  0  0  0  0  0
  187.8060  174.8990  138.2640 C   0  0  0  0  0  1  0  0  0  0  0  0
  188.6620  174.6780  140.6230 C   0  0  0  0  0  0  0  0  0  0  0  0
  190.1310  171.4050  139.5250 C   0  0  0  0  0  2  0  0  0  0  0  0
  191.8090  173.1470  142.4670 O   0  0  0  0  0  0  0  0  0  0  0  0
  186.1070  178.1880  142.0790 C   0  0  0  0  0  3  0  0  0  0  0  0
  187.0290  177.2020  142.4450 C   0  0  0  0  0  0  0  0  0  0  0  0
  190.5600  173.3200  142.5390 C   0  0  0  0  0  0  0  0  0  0  0  0
  190.6670  175.2870  147.1190 C   0  0  0  0  0  2  0  0  0  0  0  0
  192.7090  176.4250  147.1640 C   0  0  0  0  0  1  0  0  0  0  0  0
  191.3540  176.4370  147.6860 N   0  0  0  0  0  2  0  0  0  0  0  0
  1  5  1  0  0  0  0
  2 16  1  0  0  0  0
  3 17  2  0  0  0  0
  4 12  1  0  0  0  0
  4  1  2  0  0  0  0
  5 11  1  0  0  0  0
  7 15  1  6  0  0  0
  7 27  1  0  0  0  0
  8  6  2  0  0  0  0
  8 11  1  0  0  0  0
  9 22  1  0  0  0  0
  9  7  1  0  0  0  0
 10  3  1  0  0  0  0
 10 22  1  0  0  0  0
 11 28  1  1  0  0  0
 12  8  1  0  0  0  0
 13  2  1  0  0  0  0
 14 23  1  0  0  0  0
 14  9  1  0  0  0  0
 17 20  1  0  0  0  0
 17 26  1  0  0  0  0
 18 13  2  0  0  0  0
 19  1  1  0  0  0  0
 19  2  2  0  0  0  0
 20  4  1  0  0  0  0
 21 10  1  0  0  0  0
 22 20  2  0  0  0  0
 23 15  1  0  0  0  0
 24 27  2  0  0  0  0
 25 26  2  0  0  0  0
 25 18  1  0  0  0  0
 26 19  1  0  0  0  0
 27 12  1  0  0  0  0
 28 30  1  0  0  0  0
 29 30  1  0  0  0  0
M  END
>  <MODEL>
9

>  <REMARK>
 VINA RESULT:      -7.4      1.160      1.501
  Name = 
  2 active torsions:
  status: ('A' for Active; 'I' for Inactive)
    1  A    between atoms: C_11  and  C_28
    2  A    between atoms: C_28  and  N_30
                            x       y       z     vdW  Elec       q    Type
                         _______ _______ _______ _____ _____    ______ ____

>  <TORSDO>
F 2

$$$$
