=
 OpenBabel11112416303D

 32 37  0  0  1  0  0  0  0  0999 V2000
  186.8970  178.7410  143.2680 O   0  0  0  0  0  0  0  0  0  0  0  0
  189.5040  174.3730  142.8530 N   0  0  1  0  0  0  0  0  0  0  0  0
  193.1670  174.5080  146.1780 C   0  0  0  0  0  3  0  0  0  0  0  0
  193.6890  173.3330  145.6340 C   0  0  0  0  0  3  0  0  0  0  0  0
  189.8990  173.1400  140.6690 C   0  0  0  0  0  0  0  0  0  0  0  0
  190.1460  171.7230  140.4390 C   0  0  0  0  0  0  0  0  0  0  0  0
  187.5110  175.7640  143.0870 C   0  0  1  0  0  3  0  0  0  0  0  0
  189.2680  175.7860  144.8700 C   0  0  0  0  0  2  0  0  0  0  0  0
  191.1480  169.7370  140.8350 C   0  0  0  0  0  0  0  0  0  0  0  0
  187.2360  177.2660  145.1460 C   0  0  0  0  0  2  0  0  0  0  0  0
  192.0500  175.1140  145.5970 C   0  0  0  0  0  3  0  0  0  0  0  0
  190.2410  175.2340  143.8180 C   0  0  1  0  0  3  0  0  0  0  0  0
  191.4340  174.5440  144.4710 C   0  0  0  0  0  0  0  0  0  0  0  0
  191.3560  172.8130  142.7150 C   0  0  0  0  0  0  0  0  0  0  0  0
  191.0660  169.9600  139.5330 C   0  0  0  0  0  3  0  0  0  0  0  0
  186.4940  177.9830  142.1370 C   0  0  0  0  0  2  0  0  0  0  0  0
  188.2060  176.6120  144.1610 C   0  0  2  0  0  3  0  0  0  0  0  0
  190.4730  171.2310  139.2890 N   0  0  0  0  0  0  0  0  0  0  0  0
  186.3570  176.4560  142.3460 C   0  0  0  0  0  2  0  0  0  0  0  0
  186.2830  178.2280  144.4280 C   0  0  1  0  0  3  0  0  0  0  0  0
  193.1050  172.7700  144.4980 C   0  0  0  0  0  3  0  0  0  0  0  0
  191.9950  173.3830  143.9010 C   0  0  0  0  0  0  0  0  0  0  0  0
  191.3830  171.5220  142.5080 N   0  0  0  0  0  0  0  0  0  0  0  0
  188.5650  175.2350  142.1240 C   0  0  0  0  0  2  0  0  0  0  0  0
  189.3690  173.8480  139.7730 O   0  0  0  0  0  0  0  0  0  0  0  0
  191.6790  168.4870  141.4400 C   0  0  0  0  0  1  0  0  0  0  0  0
  190.4750  173.7660  141.9260 C   0  0  2  0  0  3  0  0  0  0  0  0
  190.4830  170.8400  141.5780 C   0  0  1  0  0  3  0  0  0  0  0  0
  185.9290  179.2890  145.3040 O   0  0  0  0  0  0  0  0  0  0  0  0
  185.3680  179.0620  146.5620 C   0  0  0  0  0  0  0  0  0  0  0  0
  185.9140  179.5080  147.6050 O   0  0  0  0  0  0  0  0  0  0  0  0
  184.1060  178.2850  146.6680 C   0  0  0  0  0  1  0  0  0  0  0  0
  1 20  1  0  0  0  0
  2 24  1  6  0  0  0
  2 12  1  0  0  0  0
  4  3  1  0  0  0  0
  6  5  1  0  0  0  0
  7 24  1  6  0  0  0
  7 17  1  0  0  0  0
  9 26  1  0  0  0  0
  9 28  1  0  0  0  0
 11  3  2  0  0  0  0
 12 13  1  0  0  0  0
 12  8  1  1  0  0  0
 13 11  1  0  0  0  0
 14 22  1  0  0  0  0
 15  9  2  0  0  0  0
 16 19  1  0  0  0  0
 16  1  1  0  0  0  0
 17  8  1  1  0  0  0
 17 10  1  0  0  0  0
 18 15  1  0  0  0  0
 18  6  2  0  0  0  0
 19  7  1  0  0  0  0
 20 10  1  0  0  0  0
 20 29  1  1  0  0  0
 21  4  2  0  0  0  0
 22 13  2  0  0  0  0
 22 21  1  0  0  0  0
 23 14  2  0  0  0  0
 25  5  2  0  0  0  0
 27  5  1  6  0  0  0
 27 14  1  0  0  0  0
 27  2  1  0  0  0  0
 28  6  1  6  0  0  0
 28 23  1  0  0  0  0
 29 30  1  0  0  0  0
 30 32  1  0  0  0  0
 30 31  2  0  0  0  0
M  END
>  <MODEL>
1

>  <REMARK>
 VINA RESULT:      -8.1      0.000      0.000
  Name = 
  2 active torsions:
  status: ('A' for Active; 'I' for Inactive)
    1  A    between atoms: C_20  and  O_29
    2  A    between atoms: O_29  and  C_30
                            x       y       z     vdW  Elec       q    Type
                         _______ _______ _______ _____ _____    ______ ____

>  <TORSDO>
F 2

$$$$
=
 OpenBabel11112416303D

 32 37  0  0  1  0  0  0  0  0999 V2000
  187.0470  178.5120  143.2580 O   0  0  0  0  0  0  0  0  0  0  0  0
  190.5960  174.8500  143.4460 N   0  0  1  0  0  0  0  0  0  0  0  0
  194.1670  176.3970  146.5050 C   0  0  0  0  0  3  0  0  0  0  0  0
  194.9410  175.2950  146.1380 C   0  0  0  0  0  3  0  0  0  0  0  0
  191.2430  173.3760  141.4810 C   0  0  0  0  0  0  0  0  0  0  0  0
  191.8110  172.0350  141.4800 C   0  0  0  0  0  0  0  0  0  0  0  0
  188.3360  175.7700  143.5470 C   0  0  1  0  0  3  0  0  0  0  0  0
  190.0610  176.5040  145.2060 C   0  0  0  0  0  2  0  0  0  0  0  0
  193.2540  170.4310  142.1500 C   0  0  0  0  0  0  0  0  0  0  0  0
  187.7440  177.5060  145.3370 C   0  0  0  0  0  2  0  0  0  0  0  0
  192.9320  176.6210  145.8890 C   0  0  0  0  0  3  0  0  0  0  0  0
  191.1230  176.0120  144.2120 C   0  0  1  0  0  3  0  0  0  0  0  0
  192.4520  175.7370  144.9090 C   0  0  0  0  0  0  0  0  0  0  0  0
  192.7600  173.7540  143.4740 C   0  0  0  0  0  0  0  0  0  0  0  0
  193.1060  170.3980  140.8350 C   0  0  0  0  0  3  0  0  0  0  0  0
  186.8180  177.4960  142.2930 C   0  0  0  0  0  2  0  0  0  0  0  0
  188.8270  176.9280  144.4260 C   0  0  2  0  0  3  0  0  0  0  0  0
  192.2290  171.4370  140.4130 N   0  0  0  0  0  0  0  0  0  0  0  0
  187.0440  176.0390  142.7620 C   0  0  0  0  0  2  0  0  0  0  0  0
  186.5830  178.0840  144.5180 C   0  0  1  0  0  3  0  0  0  0  0  0
  194.4920  174.4230  145.1450 C   0  0  0  0  0  3  0  0  0  0  0  0
  193.2620  174.6530  144.5130 C   0  0  0  0  0  0  0  0  0  0  0  0
  193.0850  172.4870  143.4850 N   0  0  0  0  0  0  0  0  0  0  0  0
  189.4740  175.3340  142.6320 C   0  0  0  0  0  2  0  0  0  0  0  0
  190.5510  173.7760  140.5080 O   0  0  0  0  0  0  0  0  0  0  0  0
  194.0690  169.4610  142.9280 C   0  0  0  0  0  1  0  0  0  0  0  0
  191.6710  174.3280  142.5840 C   0  0  2  0  0  3  0  0  0  0  0  0
  192.3580  171.4650  142.7310 C   0  0  1  0  0  3  0  0  0  0  0  0
  186.0020  179.1740  145.2210 O   0  0  0  0  0  0  0  0  0  0  0  0
  185.3640  179.0110  146.4520 C   0  0  0  0  0  0  0  0  0  0  0  0
  185.8720  179.4690  147.5100 O   0  0  0  0  0  0  0  0  0  0  0  0
  184.0660  178.2910  146.5130 C   0  0  0  0  0  1  0  0  0  0  0  0
  1 20  1  0  0  0  0
  2 24  1  6  0  0  0
  2 12  1  0  0  0  0
  4  3  1  0  0  0  0
  6  5  1  0  0  0  0
  7 24  1  6  0  0  0
  7 17  1  0  0  0  0
  9 28  1  0  0  0  0
  9 26  1  0  0  0  0
 11  3  2  0  0  0  0
 12 13  1  0  0  0  0
 12  8  1  1  0  0  0
 13 11  1  0  0  0  0
 14 23  2  0  0  0  0
 14 22  1  0  0  0  0
 15  9  2  0  0  0  0
 16 19  1  0  0  0  0
 16  1  1  0  0  0  0
 17  8  1  1  0  0  0
 17 10  1  0  0  0  0
 18 15  1  0  0  0  0
 18  6  2  0  0  0  0
 19  7  1  0  0  0  0
 20 29  1  1  0  0  0
 20 10  1  0  0  0  0
 21  4  2  0  0  0  0
 22 13  2  0  0  0  0
 22 21  1  0  0  0  0
 25  5  2  0  0  0  0
 27  5  1  6  0  0  0
 27  2  1  0  0  0  0
 27 14  1  0  0  0  0
 28  6  1  6  0  0  0
 28 23  1  0  0  0  0
 29 30  1  0  0  0  0
 30 32  1  0  0  0  0
 30 31  2  0  0  0  0
M  END
>  <MODEL>
2

>  <REMARK>
 VINA RESULT:      -8.1      1.437      1.617
  Name = 
  2 active torsions:
  status: ('A' for Active; 'I' for Inactive)
    1  A    between atoms: C_20  and  O_29
    2  A    between atoms: O_29  and  C_30
                            x       y       z     vdW  Elec       q    Type
                         _______ _______ _______ _____ _____    ______ ____

>  <TORSDO>
F 2

$$$$
=
 OpenBabel11112416303D

 32 37  0  0  1  0  0  0  0  0999 V2000
  183.6760  177.9160  142.6000 O   0  0  0  0  0  0  0  0  0  0  0  0
  188.5670  176.6390  143.3070 N   0  0  1  0  0  0  0  0  0  0  0  0
  189.6440  173.0420  140.0830 C   0  0  0  0  0  3  0  0  0  0  0  0
  190.8850  172.8760  140.7000 C   0  0  0  0  0  3  0  0  0  0  0  0
  189.7360  176.6320  145.5610 C   0  0  0  0  0  0  0  0  0  0  0  0
  191.1510  176.7940  145.8680 C   0  0  0  0  0  0  0  0  0  0  0  0
  186.6910  178.1610  142.9470 C   0  0  1  0  0  3  0  0  0  0  0  0
  187.2590  176.4450  141.2160 C   0  0  0  0  0  2  0  0  0  0  0  0
  193.3560  176.3820  145.6010 C   0  0  0  0  0  0  0  0  0  0  0  0
  185.2900  177.9780  140.8080 C   0  0  0  0  0  2  0  0  0  0  0  0
  188.7190  173.9530  140.6010 C   0  0  0  0  0  3  0  0  0  0  0  0
  188.0000  175.6790  142.3210 C   0  0  1  0  0  3  0  0  0  0  0  0
  189.0310  174.7180  141.7370 C   0  0  0  0  0  0  0  0  0  0  0  0
  190.5700  175.2990  143.5750 C   0  0  0  0  0  0  0  0  0  0  0  0
  193.0460  176.4150  146.8880 C   0  0  0  0  0  3  0  0  0  0  0  0
  184.2270  178.5290  143.7550 C   0  0  0  0  0  2  0  0  0  0  0  0
  186.1320  177.2430  141.8520 C   0  0  2  0  0  3  0  0  0  0  0  0
  191.6480  176.6330  147.0500 N   0  0  0  0  0  0  0  0  0  0  0  0
  185.6650  179.0850  143.6200 C   0  0  0  0  0  2  0  0  0  0  0  0
  184.0620  178.6340  141.4510 C   0  0  1  0  0  3  0  0  0  0  0  0
  191.1990  173.6090  141.8460 C   0  0  0  0  0  3  0  0  0  0  0  0
  190.2690  174.5110  142.3800 C   0  0  0  0  0  0  0  0  0  0  0  0
  191.8040  175.6370  143.8470 N   0  0  0  0  0  0  0  0  0  0  0  0
  187.4380  177.3090  143.9650 C   0  0  0  0  0  2  0  0  0  0  0  0
  188.8600  176.9550  146.4050 O   0  0  0  0  0  0  0  0  0  0  0  0
  194.7360  176.2140  145.0740 C   0  0  0  0  0  1  0  0  0  0  0  0
  189.3660  175.8880  144.2900 C   0  0  2  0  0  3  0  0  0  0  0  0
  192.1550  176.7030  144.7850 C   0  0  1  0  0  3  0  0  0  0  0  0
  182.9950  178.6660  140.5130 O   0  0  0  0  0  0  0  0  0  0  0  0
  181.6560  178.6950  140.9080 C   0  0  0  0  0  0  0  0  0  0  0  0
  181.2890  179.3750  141.9040 O   0  0  0  0  0  0  0  0  0  0  0  0
  180.6510  177.9160  140.1410 C   0  0  0  0  0  1  0  0  0  0  0  0
  1 16  1  0  0  0  0
  2 24  1  1  0  0  0
  2 27  1  0  0  0  0
  3 11  2  0  0  0  0
  3  4  1  0  0  0  0
  4 21  2  0  0  0  0
  5  6  1  0  0  0  0
  5 25  2  0  0  0  0
  6 18  2  0  0  0  0
  7 19  1  1  0  0  0
  7 24  1  0  0  0  0
  8 17  1  0  0  0  0
  9 15  2  0  0  0  0
 10 20  1  0  0  0  0
 11 13  1  0  0  0  0
 12  8  1  6  0  0  0
 12  2  1  0  0  0  0
 13 12  1  0  0  0  0
 13 22  2  0  0  0  0
 14 23  2  0  0  0  0
 15 18  1  0  0  0  0
 17 10  1  6  0  0  0
 17  7  1  0  0  0  0
 19 16  1  0  0  0  0
 20 29  1  6  0  0  0
 20  1  1  0  0  0  0
 21 22  1  0  0  0  0
 22 14  1  0  0  0  0
 26  9  1  0  0  0  0
 27 14  1  6  0  0  0
 27  5  1  0  0  0  0
 28 23  1  6  0  0  0
 28  9  1  0  0  0  0
 28  6  1  0  0  0  0
 29 30  1  0  0  0  0
 30 31  2  0  0  0  0
 32 30  1  0  0  0  0
M  END
>  <MODEL>
3

>  <REMARK>
 VINA RESULT:      -8.1      2.922      5.695
  Name = 
  2 active torsions:
  status: ('A' for Active; 'I' for Inactive)
    1  A    between atoms: C_20  and  O_29
    2  A    between atoms: O_29  and  C_30
                            x       y       z     vdW  Elec       q    Type
                         _______ _______ _______ _____ _____    ______ ____

>  <TORSDO>
F 2

$$$$
=
 OpenBabel11112416303D

 32 37  0  0  1  0  0  0  0  0999 V2000
  192.0200  172.2330  141.2200 O   0  0  0  0  0  0  0  0  0  0  0  0
  188.4030  175.2360  143.2070 N   0  0  1  0  0  0  0  0  0  0  0  0
  186.0840  177.4590  139.4420 C   0  0  0  0  0  3  0  0  0  0  0  0
  185.3870  178.2520  140.3560 C   0  0  0  0  0  3  0  0  0  0  0  0
  188.6310  176.4960  145.4000 C   0  0  0  0  0  0  0  0  0  0  0  0
  187.5930  176.9460  146.3190 C   0  0  0  0  0  0  0  0  0  0  0  0
  189.6540  173.1620  142.8950 C   0  0  1  0  0  3  0  0  0  0  0  0
  188.3980  174.1660  140.9770 C   0  0  0  0  0  2  0  0  0  0  0  0
  185.6350  177.9350  146.8560 C   0  0  0  0  0  0  0  0  0  0  0  0
  189.6990  172.0320  140.5950 C   0  0  0  0  0  2  0  0  0  0  0  0
  187.0590  176.5640  139.8920 C   0  0  0  0  0  3  0  0  0  0  0  0
  188.4350  175.4960  141.7420 C   0  0  1  0  0  3  0  0  0  0  0  0
  187.3390  176.4440  141.2630 C   0  0  0  0  0  0  0  0  0  0  0  0
  186.9820  177.1620  143.5960 C   0  0  0  0  0  0  0  0  0  0  0  0
  186.5820  178.2960  147.7080 C   0  0  0  0  0  3  0  0  0  0  0  0
  192.1240  172.3310  142.6320 C   0  0  0  0  0  2  0  0  0  0  0  0
  189.6160  173.3460  141.3720 C   0  0  2  0  0  3  0  0  0  0  0  0
  187.8230  177.7040  147.3400 N   0  0  0  0  0  0  0  0  0  0  0  0
  190.7950  172.2810  143.4240 C   0  0  0  0  0  2  0  0  0  0  0  0
  191.0170  171.3030  140.8800 C   0  0  1  0  0  3  0  0  0  0  0  0
  185.6740  178.1650  141.7190 C   0  0  0  0  0  3  0  0  0  0  0  0
  186.6630  177.2820  142.1740 C   0  0  0  0  0  0  0  0  0  0  0  0
  186.0630  177.3870  144.4990 N   0  0  0  0  0  0  0  0  0  0  0  0
  189.6460  174.5350  143.5540 C   0  0  0  0  0  2  0  0  0  0  0  0
  189.7910  176.2490  145.8210 O   0  0  0  0  0  0  0  0  0  0  0  0
  184.2080  178.3390  146.9670 C   0  0  0  0  0  1  0  0  0  0  0  0
  188.3250  176.5260  143.9140 C   0  0  2  0  0  3  0  0  0  0  0  0
  186.1780  176.9450  145.8890 C   0  0  1  0  0  3  0  0  0  0  0  0
  191.4080  170.5600  139.7340 O   0  0  0  0  0  0  0  0  0  0  0  0
  190.6530  169.4910  139.2460 C   0  0  0  0  0  0  0  0  0  0  0  0
  190.4880  168.4480  139.9340 O   0  0  0  0  0  0  0  0  0  0  0  0
  190.0350  169.5880  137.8990 C   0  0  0  0  0  1  0  0  0  0  0  0
  1 16  1  0  0  0  0
  2 24  1  1  0  0  0
  2 27  1  0  0  0  0
  3 11  2  0  0  0  0
  3  4  1  0  0  0  0
  4 21  2  0  0  0  0
  5 25  2  0  0  0  0
  5  6  1  0  0  0  0
  6 18  2  0  0  0  0
  7 19  1  6  0  0  0
  7 24  1  0  0  0  0
  8 17  1  0  0  0  0
  9 26  1  0  0  0  0
  9 15  2  0  0  0  0
 10 20  1  0  0  0  0
 11 13  1  0  0  0  0
 12  8  1  6  0  0  0
 12  2  1  0  0  0  0
 13 12  1  0  0  0  0
 13 22  2  0  0  0  0
 14 23  2  0  0  0  0
 16 19  1  0  0  0  0
 17 10  1  6  0  0  0
 17  7  1  0  0  0  0
 18 15  1  0  0  0  0
 20 29  1  6  0  0  0
 20  1  1  0  0  0  0
 21 22  1  0  0  0  0
 22 14  1  0  0  0  0
 27 14  1  1  0  0  0
 27  5  1  0  0  0  0
 28 23  1  6  0  0  0
 28  6  1  0  0  0  0
 28  9  1  0  0  0  0
 30 29  1  0  0  0  0
 30 31  2  0  0  0  0
 32 30  1  0  0  0  0
M  END
>  <MODEL>
4

>  <REMARK>
 VINA RESULT:      -8.0      2.647      8.767
  Name = 
  2 active torsions:
  status: ('A' for Active; 'I' for Inactive)
    1  A    between atoms: C_20  and  O_29
    2  A    between atoms: O_29  and  C_30
                            x       y       z     vdW  Elec       q    Type
                         _______ _______ _______ _____ _____    ______ ____

>  <TORSDO>
F 2

$$$$
=
 OpenBabel11112416303D

 32 37  0  0  1  0  0  0  0  0999 V2000
  186.9930  176.3340  146.0210 O   0  0  0  0  0  0  0  0  0  0  0  0
  191.4260  175.5920  143.6040 N   0  0  1  0  0  0  0  0  0  0  0  0
  190.4400  173.1670  139.4030 C   0  0  0  0  0  3  0  0  0  0  0  0
  191.8100  173.0140  139.1850 C   0  0  0  0  0  3  0  0  0  0  0  0
  193.6370  175.1430  144.7680 C   0  0  0  0  0  0  0  0  0  0  0  0
  194.9940  175.4080  144.3090 C   0  0  0  0  0  0  0  0  0  0  0  0
  189.7120  176.8850  144.7680 C   0  0  1  0  0  3  0  0  0  0  0  0
  189.1810  175.7870  142.5820 C   0  0  0  0  0  2  0  0  0  0  0  0
  196.6780  175.3850  142.8030 C   0  0  0  0  0  0  0  0  0  0  0  0
  187.3640  177.0920  143.7610 C   0  0  0  0  0  2  0  0  0  0  0  0
  189.9810  173.7720  140.5770 C   0  0  0  0  0  3  0  0  0  0  0  0
  190.3800  174.8620  142.8370 C   0  0  1  0  0  3  0  0  0  0  0  0
  190.8900  174.2420  141.5400 C   0  0  0  0  0  0  0  0  0  0  0  0
  193.2020  174.5140  142.3530 C   0  0  0  0  0  0  0  0  0  0  0  0
  197.1240  175.0310  143.9980 C   0  0  0  0  0  3  0  0  0  0  0  0
  188.1060  176.6860  146.8270 C   0  0  0  0  0  2  0  0  0  0  0  0
  188.6140  176.2260  143.9230 C   0  0  2  0  0  3  0  0  0  0  0  0
  196.0510  175.0060  144.9340 N   0  0  0  0  0  0  0  0  0  0  0  0
  189.2540  177.4480  146.1210 C   0  0  0  0  0  2  0  0  0  0  0  0
  186.7110  177.3790  145.1180 C   0  0  1  0  0  3  0  0  0  0  0  0
  192.7250  173.4490  140.1450 C   0  0  0  0  0  3  0  0  0  0  0  0
  192.2700  174.0400  141.3310 C   0  0  0  0  0  0  0  0  0  0  0  0
  194.3950  174.9320  142.0150 N   0  0  0  0  0  0  0  0  0  0  0  0
  190.8650  175.9020  144.9250 C   0  0  0  0  0  2  0  0  0  0  0  0
  193.3770  175.1060  146.0000 O   0  0  0  0  0  0  0  0  0  0  0  0
  197.5380  175.5530  141.6020 C   0  0  0  0  0  1  0  0  0  0  0  0
  192.6070  174.7220  143.7350 C   0  0  2  0  0  3  0  0  0  0  0  0
  195.2380  175.7460  142.8890 C   0  0  1  0  0  3  0  0  0  0  0  0
  185.3070  177.5140  144.9500 O   0  0  0  0  0  0  0  0  0  0  0  0
  184.6550  178.7420  145.0840 C   0  0  0  0  0  0  0  0  0  0  0  0
  183.6650  178.8700  145.8530 O   0  0  0  0  0  0  0  0  0  0  0  0
  185.1400  179.9140  144.3100 C   0  0  0  0  0  1  0  0  0  0  0  0
  1 16  1  0  0  0  0
  2 27  1  0  0  0  0
  2 24  1  1  0  0  0
  3 11  1  0  0  0  0
  4  3  2  0  0  0  0
  4 21  1  0  0  0  0
  5 25  2  0  0  0  0
  6  5  1  0  0  0  0
  6 18  2  0  0  0  0
  7 24  1  1  0  0  0
  7 19  1  0  0  0  0
  9 28  1  0  0  0  0
  9 15  2  0  0  0  0
 10 17  1  0  0  0  0
 10 20  1  0  0  0  0
 11 13  2  0  0  0  0
 12  8  1  6  0  0  0
 12  2  1  0  0  0  0
 13 12  1  0  0  0  0
 15 18  1  0  0  0  0
 17  8  1  6  0  0  0
 17  7  1  0  0  0  0
 19 16  1  0  0  0  0
 20 29  1  6  0  0  0
 20  1  1  0  0  0  0
 21 22  2  0  0  0  0
 22 13  1  0  0  0  0
 22 14  1  0  0  0  0
 23 14  2  0  0  0  0
 26  9  1  0  0  0  0
 27 14  1  6  0  0  0
 27  5  1  0  0  0  0
 28 23  1  6  0  0  0
 28  6  1  0  0  0  0
 29 30  1  0  0  0  0
 30 31  2  0  0  0  0
 32 30  1  0  0  0  0
M  END
>  <MODEL>
5

>  <REMARK>
 VINA RESULT:      -7.9      3.027      5.097
  Name = 
  2 active torsions:
  status: ('A' for Active; 'I' for Inactive)
    1  A    between atoms: C_20  and  O_29
    2  A    between atoms: O_29  and  C_30
                            x       y       z     vdW  Elec       q    Type
                         _______ _______ _______ _____ _____    ______ ____

>  <TORSDO>
F 2

$$$$
=
 OpenBabel11112416303D

 32 37  0  0  1  0  0  0  0  0999 V2000
  186.2560  178.2500  141.4220 O   0  0  0  0  0  0  0  0  0  0  0  0
  189.9920  175.7740  143.8630 N   0  0  1  0  0  0  0  0  0  0  0  0
  190.3870  177.7620  148.3790 C   0  0  0  0  0  3  0  0  0  0  0  0
  191.5370  177.0020  148.5990 C   0  0  0  0  0  3  0  0  0  0  0  0
  192.0920  174.8850  142.7460 C   0  0  0  0  0  0  0  0  0  0  0  0
  192.9530  173.7800  143.1460 C   0  0  0  0  0  0  0  0  0  0  0  0
  187.9440  175.9810  142.5480 C   0  0  1  0  0  3  0  0  0  0  0  0
  188.0350  176.8990  144.8750 C   0  0  0  0  0  2  0  0  0  0  0  0
  194.1660  172.5690  144.6170 C   0  0  0  0  0  0  0  0  0  0  0  0
  185.9000  177.1630  143.5460 C   0  0  0  0  0  2  0  0  0  0  0  0
  189.7470  177.7200  147.1370 C   0  0  0  0  0  3  0  0  0  0  0  0
  189.5640  176.8990  144.7390 C   0  0  1  0  0  3  0  0  0  0  0  0
  190.2440  176.9060  146.1050 C   0  0  0  0  0  0  0  0  0  0  0  0
  191.9490  175.3530  145.2320 C   0  0  0  0  0  0  0  0  0  0  0  0
  194.8280  172.7080  143.4790 C   0  0  0  0  0  3  0  0  0  0  0  0
  186.9730  177.3810  140.5590 C   0  0  0  0  0  2  0  0  0  0  0  0
  187.4250  177.0740  143.4930 C   0  0  2  0  0  3  0  0  0  0  0  0
  194.0780  173.5070  142.5710 N   0  0  0  0  0  0  0  0  0  0  0  0
  187.3450  175.9930  141.1340 C   0  0  0  0  0  2  0  0  0  0  0  0
  185.3180  177.5100  142.1700 C   0  0  1  0  0  3  0  0  0  0  0  0
  192.0590  176.2100  147.5750 C   0  0  0  0  0  3  0  0  0  0  0  0
  191.4310  176.1780  146.3230 C   0  0  0  0  0  0  0  0  0  0  0  0
  192.5980  174.2470  145.4920 N   0  0  0  0  0  0  0  0  0  0  0  0
  189.4660  176.0420  142.5180 C   0  0  0  0  0  2  0  0  0  0  0  0
  192.0080  175.2220  141.5360 O   0  0  0  0  0  0  0  0  0  0  0  0
  194.6400  171.7600  145.7710 C   0  0  0  0  0  1  0  0  0  0  0  0
  191.4640  175.7280  143.8420 C   0  0  2  0  0  3  0  0  0  0  0  0
  192.8230  173.1960  144.4990 C   0  0  1  0  0  3  0  0  0  0  0  0
  184.1230  178.2590  142.3350 O   0  0  0  0  0  0  0  0  0  0  0  0
  183.1060  178.2600  141.3780 C   0  0  0  0  0  0  0  0  0  0  0  0
  183.3380  177.9250  140.1850 O   0  0  0  0  0  0  0  0  0  0  0  0
  181.7300  178.6560  141.7740 C   0  0  0  0  0  1  0  0  0  0  0  0
  1 20  1  0  0  0  0
  2 24  1  6  0  0  0
  2 12  1  0  0  0  0
  3  4  1  0  0  0  0
  5  6  1  0  0  0  0
  7 19  1  6  0  0  0
  7 17  1  0  0  0  0
  9 26  1  0  0  0  0
 11  3  2  0  0  0  0
 12  8  1  1  0  0  0
 12 13  1  0  0  0  0
 13 22  2  0  0  0  0
 13 11  1  0  0  0  0
 14 23  2  0  0  0  0
 14 22  1  0  0  0  0
 15  9  2  0  0  0  0
 16 19  1  0  0  0  0
 16  1  1  0  0  0  0
 17 10  1  1  0  0  0
 17  8  1  0  0  0  0
 18  6  2  0  0  0  0
 18 15  1  0  0  0  0
 20 29  1  1  0  0  0
 20 10  1  0  0  0  0
 21  4  2  0  0  0  0
 22 21  1  0  0  0  0
 24  7  1  0  0  0  0
 25  5  2  0  0  0  0
 27  5  1  6  0  0  0
 27  2  1  0  0  0  0
 27 14  1  0  0  0  0
 28  6  1  6  0  0  0
 28  9  1  0  0  0  0
 28 23  1  0  0  0  0
 30 32  1  0  0  0  0
 30 29  1  0  0  0  0
 31 30  2  0  0  0  0
M  END
>  <MODEL>
6

>  <REMARK>
 VINA RESULT:      -7.8      3.046      4.042
  Name = 
  2 active torsions:
  status: ('A' for Active; 'I' for Inactive)
    1  A    between atoms: C_20  and  O_29
    2  A    between atoms: O_29  and  C_30
                            x       y       z     vdW  Elec       q    Type
                         _______ _______ _______ _____ _____    ______ ____

>  <TORSDO>
F 2

$$$$
=
 OpenBabel11112416303D

 32 37  0  0  1  0  0  0  0  0999 V2000
  186.3120  179.0540  143.4670 O   0  0  0  0  0  0  0  0  0  0  0  0
  189.0170  174.9230  142.1740 N   0  0  1  0  0  0  0  0  0  0  0  0
  193.3180  175.1410  144.6120 C   0  0  0  0  0  3  0  0  0  0  0  0
  193.7730  174.0410  143.8820 C   0  0  0  0  0  3  0  0  0  0  0  0
  188.9850  173.8500  139.8720 C   0  0  0  0  0  0  0  0  0  0  0  0
  189.2580  172.4710  139.4920 C   0  0  0  0  0  0  0  0  0  0  0  0
  187.0470  176.1460  142.9410 C   0  0  1  0  0  3  0  0  0  0  0  0
  189.1550  176.1970  144.2900 C   0  0  0  0  0  2  0  0  0  0  0  0
  190.4410  170.5470  139.5120 C   0  0  0  0  0  0  0  0  0  0  0  0
  187.1520  177.5030  145.1130 C   0  0  0  0  0  2  0  0  0  0  0  0
  192.0640  175.6940  144.3370 C   0  0  0  0  0  3  0  0  0  0  0  0
  189.8980  175.7800  143.0120 C   0  0  1  0  0  3  0  0  0  0  0  0
  191.2460  175.1450  143.3360 C   0  0  0  0  0  0  0  0  0  0  0  0
  190.8810  173.5170  141.5190 C   0  0  0  0  0  0  0  0  0  0  0  0
  190.0550  170.8370  138.2800 C   0  0  0  0  0  3  0  0  0  0  0  0
  185.7110  178.3340  142.4010 C   0  0  0  0  0  2  0  0  0  0  0  0
  187.9130  176.9800  143.8940 C   0  0  2  0  0  3  0  0  0  0  0  0
  189.3470  172.0720  138.2660 N   0  0  0  0  0  0  0  0  0  0  0  0
  185.7170  176.7910  142.5240 C   0  0  0  0  0  2  0  0  0  0  0  0
  186.0050  178.4300  144.6940 C   0  0  1  0  0  3  0  0  0  0  0  0
  192.9840  173.5010  142.8650 C   0  0  0  0  0  3  0  0  0  0  0  0
  191.7340  174.0630  142.5730 C   0  0  0  0  0  0  0  0  0  0  0  0
  190.9370  172.2450  141.2180 N   0  0  0  0  0  0  0  0  0  0  0  0
  187.8880  175.7530  141.7330 C   0  0  0  0  0  2  0  0  0  0  0  0
  188.2260  174.5670  139.1680 O   0  0  0  0  0  0  0  0  0  0  0  0
  191.1680  169.3070  139.8940 C   0  0  0  0  0  1  0  0  0  0  0  0
  189.7890  174.4450  141.0140 C   0  0  2  0  0  3  0  0  0  0  0  0
  189.8940  171.5520  140.4610 C   0  0  1  0  0  3  0  0  0  0  0  0
  185.7940  179.4100  145.7000 O   0  0  0  0  0  0  0  0  0  0  0  0
  185.4790  179.0700  147.0170 C   0  0  0  0  0  0  0  0  0  0  0  0
  184.4460  178.3980  147.2830 O   0  0  0  0  0  0  0  0  0  0  0  0
  186.3760  179.5040  148.1190 C   0  0  0  0  0  1  0  0  0  0  0  0
  1 20  1  0  0  0  0
  2 24  1  6  0  0  0
  2 12  1  0  0  0  0
  4  3  2  0  0  0  0
  6  5  1  0  0  0  0
  7 24  1  6  0  0  0
  7 17  1  0  0  0  0
  9 26  1  0  0  0  0
  9 28  1  0  0  0  0
 11  3  1  0  0  0  0
 12 13  1  0  0  0  0
 12  8  1  1  0  0  0
 13 11  2  0  0  0  0
 14 22  1  0  0  0  0
 15  9  2  0  0  0  0
 16 19  1  0  0  0  0
 16  1  1  0  0  0  0
 17  8  1  1  0  0  0
 17 10  1  0  0  0  0
 18 15  1  0  0  0  0
 18  6  2  0  0  0  0
 19  7  1  0  0  0  0
 20 10  1  0  0  0  0
 20 29  1  1  0  0  0
 21  4  1  0  0  0  0
 22 21  2  0  0  0  0
 22 13  1  0  0  0  0
 23 14  2  0  0  0  0
 25  5  2  0  0  0  0
 27  5  1  6  0  0  0
 27 14  1  0  0  0  0
 27  2  1  0  0  0  0
 28  6  1  6  0  0  0
 28 23  1  0  0  0  0
 29 30  1  0  0  0  0
 30 31  2  0  0  0  0
 30 32  1  0  0  0  0
M  END
>  <MODEL>
7

>  <REMARK>
 VINA RESULT:      -7.8      1.199      1.390
  Name = 
  2 active torsions:
  status: ('A' for Active; 'I' for Inactive)
    1  A    between atoms: C_20  and  O_29
    2  A    between atoms: O_29  and  C_30
                            x       y       z     vdW  Elec       q    Type
                         _______ _______ _______ _____ _____    ______ ____

>  <TORSDO>
F 2

$$$$
=
 OpenBabel11112416303D

 32 37  0  0  1  0  0  0  0  0999 V2000
  187.8160  176.0940  146.8090 O   0  0  0  0  0  0  0  0  0  0  0  0
  190.9600  175.2330  142.8820 N   0  0  1  0  0  0  0  0  0  0  0  0
  188.4300  172.6700  139.4870 C   0  0  0  0  0  3  0  0  0  0  0  0
  189.6080  172.4980  138.7580 C   0  0  0  0  0  3  0  0  0  0  0  0
  193.4540  174.8070  143.1080 C   0  0  0  0  0  0  0  0  0  0  0  0
  194.5220  175.0450  142.1470 C   0  0  0  0  0  0  0  0  0  0  0  0
  189.8280  176.5790  144.5760 C   0  0  1  0  0  3  0  0  0  0  0  0
  188.4940  175.4100  142.8100 C   0  0  0  0  0  2  0  0  0  0  0  0
  195.4860  174.9560  140.1060 C   0  0  0  0  0  0  0  0  0  0  0  0
  187.2720  176.7690  144.5580 C   0  0  0  0  0  2  0  0  0  0  0  0
  188.4620  173.3190  140.7250 C   0  0  0  0  0  3  0  0  0  0  0  0
  189.7030  174.4850  142.6110 C   0  0  1  0  0  3  0  0  0  0  0  0
  189.6700  173.8150  141.2400 C   0  0  0  0  0  0  0  0  0  0  0  0
  192.1150  174.0970  141.0770 C   0  0  0  0  0  0  0  0  0  0  0  0
  196.3650  174.6410  141.0440 C   0  0  0  0  0  3  0  0  0  0  0  0
  189.1540  176.4650  147.1050 C   0  0  0  0  0  2  0  0  0  0  0  0
  188.4910  175.9000  144.2500 C   0  0  2  0  0  3  0  0  0  0  0  0
  195.7420  174.6570  142.3240 N   0  0  0  0  0  0  0  0  0  0  0  0
  189.9300  177.1920  145.9810 C   0  0  0  0  0  2  0  0  0  0  0  0
  187.1980  177.1090  146.0510 C   0  0  1  0  0  3  0  0  0  0  0  0
  190.8220  172.9600  139.2690 C   0  0  0  0  0  3  0  0  0  0  0  0
  190.8610  173.5960  140.5170 C   0  0  0  0  0  0  0  0  0  0  0  0
  193.0790  174.4930  140.2860 N   0  0  0  0  0  0  0  0  0  0  0  0
  190.9570  175.5930  144.3060 C   0  0  0  0  0  2  0  0  0  0  0  0
  193.6940  174.8150  144.3440 O   0  0  0  0  0  0  0  0  0  0  0  0
  195.8090  175.0750  138.6590 C   0  0  0  0  0  1  0  0  0  0  0  0
  192.1050  174.3580  142.5740 C   0  0  2  0  0  3  0  0  0  0  0  0
  194.1920  175.3320  140.7330 C   0  0  1  0  0  3  0  0  0  0  0  0
  185.8380  177.2490  146.4400 O   0  0  0  0  0  0  0  0  0  0  0  0
  185.2110  178.4940  146.5210 C   0  0  0  0  0  0  0  0  0  0  0  0
  185.5970  179.3610  147.3500 O   0  0  0  0  0  0  0  0  0  0  0  0
  184.0760  178.8010  145.6130 C   0  0  0  0  0  1  0  0  0  0  0  0
  1 16  1  0  0  0  0
  2 24  1  1  0  0  0
  3 11  1  0  0  0  0
  4 21  1  0  0  0  0
  4  3  2  0  0  0  0
  5 25  2  0  0  0  0
  6 18  2  0  0  0  0
  6  5  1  0  0  0  0
  7 24  1  1  0  0  0
  7 19  1  0  0  0  0
  9 15  2  0  0  0  0
 10 20  1  0  0  0  0
 11 13  2  0  0  0  0
 12  8  1  6  0  0  0
 12  2  1  0  0  0  0
 13 12  1  0  0  0  0
 15 18  1  0  0  0  0
 17  8  1  6  0  0  0
 17 10  1  0  0  0  0
 17  7  1  0  0  0  0
 19 16  1  0  0  0  0
 20 29  1  1  0  0  0
 20  1  1  0  0  0  0
 21 22  2  0  0  0  0
 22 14  1  0  0  0  0
 22 13  1  0  0  0  0
 23 28  1  0  0  0  0
 23 14  2  0  0  0  0
 26  9  1  0  0  0  0
 27 14  1  6  0  0  0
 27  2  1  0  0  0  0
 27  5  1  0  0  0  0
 28  9  1  6  0  0  0
 28  6  1  0  0  0  0
 29 30  1  0  0  0  0
 30 31  2  0  0  0  0
 32 30  1  0  0  0  0
M  END
>  <MODEL>
8

>  <REMARK>
 VINA RESULT:      -7.6      2.948      4.770
  Name = 
  2 active torsions:
  status: ('A' for Active; 'I' for Inactive)
    1  A    between atoms: C_20  and  O_29
    2  A    between atoms: O_29  and  C_30
                            x       y       z     vdW  Elec       q    Type
                         _______ _______ _______ _____ _____    ______ ____

>  <TORSDO>
F 2

$$$$
=
 OpenBabel11112416303D

 32 37  0  0  1  0  0  0  0  0999 V2000
  194.9610  172.9040  143.5820 O   0  0  0  0  0  0  0  0  0  0  0  0
  190.9130  175.9160  144.3500 N   0  0  1  0  0  0  0  0  0  0  0  0
  191.2890  177.7700  148.9240 C   0  0  0  0  0  3  0  0  0  0  0  0
  190.0090  178.3130  148.7960 C   0  0  0  0  0  3  0  0  0  0  0  0
  188.5950  175.4720  143.4130 C   0  0  0  0  0  0  0  0  0  0  0  0
  187.5260  176.4130  143.1080 C   0  0  0  0  0  0  0  0  0  0  0  0
  192.8630  175.0670  143.1490 C   0  0  1  0  0  3  0  0  0  0  0  0
  193.1410  176.1080  145.4090 C   0  0  0  0  0  2  0  0  0  0  0  0
  186.1610  178.1590  143.5440 C   0  0  0  0  0  0  0  0  0  0  0  0
  195.1870  175.2200  144.2180 C   0  0  0  0  0  2  0  0  0  0  0  0
  191.8190  176.9780  147.9020 C   0  0  0  0  0  3  0  0  0  0  0  0
  191.6490  175.8310  145.6410 C   0  0  1  0  0  3  0  0  0  0  0  0
  191.0800  176.7310  146.7340 C   0  0  0  0  0  0  0  0  0  0  0  0
  189.0040  176.9620  145.4210 C   0  0  0  0  0  0  0  0  0  0  0  0
  185.4780  177.1660  142.9970 C   0  0  0  0  0  3  0  0  0  0  0  0
  194.0050  172.7910  142.5390 C   0  0  0  0  0  2  0  0  0  0  0  0
  193.6840  175.0640  144.4460 C   0  0  2  0  0  3  0  0  0  0  0  0
  186.3340  176.0520  142.7630 N   0  0  0  0  0  0  0  0  0  0  0  0
  193.3560  174.1100  142.0550 C   0  0  0  0  0  2  0  0  0  0  0  0
  195.7440  174.0590  143.3850 C   0  0  1  0  0  3  0  0  0  0  0  0
  189.2500  178.0540  147.6530 C   0  0  0  0  0  3  0  0  0  0  0  0
  189.7710  177.2460  146.6340 C   0  0  0  0  0  0  0  0  0  0  0  0
  188.1330  177.8280  144.9740 N   0  0  0  0  0  0  0  0  0  0  0  0
  191.3990  174.8250  143.4960 C   0  0  0  0  0  2  0  0  0  0  0  0
  188.6780  174.3790  142.7940 O   0  0  0  0  0  0  0  0  0  0  0  0
  185.5850  179.4880  143.8820 C   0  0  0  0  0  1  0  0  0  0  0  0
  189.4730  175.7600  144.6180 C   0  0  2  0  0  3  0  0  0  0  0  0
  187.6020  177.8030  143.6100 C   0  0  1  0  0  3  0  0  0  0  0  0
  197.0900  173.8070  143.7620 O   0  0  0  0  0  0  0  0  0  0  0  0
  197.4240  172.9070  144.7760 C   0  0  0  0  0  0  0  0  0  0  0  0
  197.9410  171.7890  144.5060 O   0  0  0  0  0  0  0  0  0  0  0  0
  197.1680  173.2740  146.1920 C   0  0  0  0  0  1  0  0  0  0  0  0
  2 24  1  6  0  0  0
  2 27  1  0  0  0  0
  2 12  1  0  0  0  0
  4  3  1  0  0  0  0
  6  5  1  0  0  0  0
  7 19  1  6  0  0  0
  7 24  1  0  0  0  0
  7 17  1  0  0  0  0
  9 28  1  0  0  0  0
  9 26  1  0  0  0  0
 11  3  2  0  0  0  0
 12  8  1  6  0  0  0
 12 13  1  0  0  0  0
 13 11  1  0  0  0  0
 14 22  1  0  0  0  0
 15  9  2  0  0  0  0
 16  1  1  0  0  0  0
 17 10  1  6  0  0  0
 17  8  1  0  0  0  0
 18 15  1  0  0  0  0
 18  6  2  0  0  0  0
 19 16  1  0  0  0  0
 20  1  1  0  0  0  0
 20 29  1  1  0  0  0
 20 10  1  0  0  0  0
 21  4  2  0  0  0  0
 22 13  2  0  0  0  0
 22 21  1  0  0  0  0
 23 14  2  0  0  0  0
 25  5  2  0  0  0  0
 27  5  1  6  0  0  0
 27 14  1  0  0  0  0
 28  6  1  1  0  0  0
 28 23  1  0  0  0  0
 29 30  1  0  0  0  0
 30 32  1  0  0  0  0
 31 30  2  0  0  0  0
M  END
>  <MODEL>
9

>  <REMARK>
 VINA RESULT:      -7.6      3.616      8.043
  Name = 
  2 active torsions:
  status: ('A' for Active; 'I' for Inactive)
    1  A    between atoms: C_20  and  O_29
    2  A    between atoms: O_29  and  C_30
                            x       y       z     vdW  Elec       q    Type
                         _______ _______ _______ _____ _____    ______ ____

>  <TORSDO>
F 2

$$$$
