=
 OpenBabel11112417473D

 34 40  0  0  1  0  0  0  0  0999 V2000
  191.4520  174.3950  142.5480 C   0  0  0  0  0  0  0  0  0  0  0  0
  189.0800  175.0170  143.0140 C   0  0  0  0  0  2  0  0  0  0  0  0
  196.4260  171.3540  145.4690 C   0  0  1  0  0  3  0  0  0  0  0  0
  193.4650  173.0790  142.7830 C   0  0  0  0  0  0  0  0  0  0  0  0
  195.0250  173.4870  144.7840 C   0  0  2  0  0  3  0  0  0  0  0  0
  197.0900  173.6770  146.2060 C   0  0  0  0  0  1  0  0  0  0  0  0
  195.3010  170.3400  145.5660 C   0  0  0  0  0  1  0  0  0  0  0  0
  197.2510  172.3770  143.2450 C   0  0  0  0  0  2  0  0  0  0  0  0
  190.7800  176.1440  144.3380 C   0  0  2  0  0  3  0  0  0  0  0  0
  189.7860  176.7140  147.2220 C   0  0  0  0  0  2  0  0  0  0  0  0
  193.7510  173.9240  145.4880 C   0  0  0  0  0  2  0  0  0  0  0  0
  195.9080  172.6190  142.5590 C   0  0  0  0  0  2  0  0  0  0  0  0
  191.6780  175.3130  145.2800 C   0  0  1  0  0  3  0  0  0  0  0  0
  188.3710  176.0430  143.8610 C   0  0  0  0  0  2  0  0  0  0  0  0
  194.7140  172.6510  143.5230 C   0  0  2  0  0  3  0  0  0  0  0  0
  197.2250  171.1620  144.1670 C   0  0  0  0  0  2  0  0  0  0  0  0
  189.1130  175.8970  146.2210 N   0  0  0  0  0  0  0  0  0  0  0  0
  192.5950  174.0650  143.2950 C   0  0  0  0  0  0  0  0  0  0  0  0
  195.9350  172.7780  145.8060 C   0  0  2  0  0  3  0  0  0  0  0  0
  192.9330  174.8150  144.5580 C   0  0  2  0  0  3  0  0  0  0  0  0
  192.0280  172.7690  140.9260 C   0  0  0  0  0  3  0  0  0  0  0  0
  191.1080  176.0780  147.6060 C   0  0  0  0  0  2  0  0  0  0  0  0
  193.1430  172.4410  141.6260 N   0  0  0  0  0  0  0  0  0  0  0  0
  192.1040  176.1830  146.4630 C   0  0  0  0  0  2  0  0  0  0  0  0
  189.3830  176.5070  144.9080 C   0  0  1  0  0  3  0  0  0  0  0  0
  191.2020  173.7420  141.3810 N   0  0  0  0  0  0  0  0  0  0  0  0
  190.5130  175.4890  142.9780 C   0  0  1  0  0  3  0  0  0  0  0  0
  187.7860  176.0090  146.4870 O   0  0  0  0  0  0  0  0  0  0  0  0
  187.6340  177.2910  147.0240 C   0  0  0  0  0  2  0  0  0  0  0  0
  185.0340  179.1840  146.3030 O   0  0  0  0  0  0  0  0  0  0  0  0
  185.3020  176.8740  146.5070 N   0  0  0  0  0  2  0  0  0  0  0  0
  186.1930  177.5060  147.4530 C   0  0  2  0  0  3  0  0  0  0  0  0
  184.4160  177.9450  146.0800 C   0  0  0  0  0  2  0  0  0  0  0  0
  185.8690  178.9740  147.4030 C   0  0  0  0  0  2  0  0  0  0  0  0
  1 27  1  0  0  0  0
  1 18  1  0  0  0  0
  2 14  1  0  0  0  0
  3  7  1  6  0  0  0
  3 19  1  0  0  0  0
  4 18  2  0  0  0  0
  4 15  1  0  0  0  0
  5 11  1  1  0  0  0
  5 19  1  0  0  0  0
  8 16  1  0  0  0  0
  9 25  1  0  0  0  0
  9 13  1  0  0  0  0
 10 22  1  0  0  0  0
 12  8  1  0  0  0  0
 12 15  1  0  0  0  0
 13 24  1  0  0  0  0
 14 25  1  0  0  0  0
 15  5  1  0  0  0  0
 16  3  1  0  0  0  0
 17 28  1  0  0  0  0
 17 10  1  0  0  0  0
 18 20  1  0  0  0  0
 19  6  1  0  0  0  0
 20 13  1  0  0  0  0
 20 11  1  0  0  0  0
 21 26  1  0  0  0  0
 21 23  2  0  0  0  0
 23  4  1  0  0  0  0
 24 22  1  0  0  0  0
 25 17  1  0  0  0  0
 26  1  2  0  0  0  0
 27  2  1  0  0  0  0
 27  9  1  0  0  0  0
 28 29  1  0  0  0  0
 29 32  1  0  0  0  0
 30 34  1  0  0  0  0
 31 32  1  0  0  0  0
 33 30  1  0  0  0  0
 33 31  1  0  0  0  0
 34 32  1  0  0  0  0
M  END
>  <MODEL>
1

>  <REMARK>
 VINA RESULT:      -8.1      0.000      0.000
  Name = 
  3 active torsions:
  status: ('A' for Active; 'I' for Inactive)
    1  A    between atoms: N_17  and  O_28
    2  A    between atoms: O_28  and  C_29
    3  A    between atoms: C_29  and  C_32
                            x       y       z     vdW  Elec       q    Type
                         _______ _______ _______ _____ _____    ______ ____

>  <TORSDO>
F 3

$$$$
=
 OpenBabel11112417473D

 34 40  0  0  1  0  0  0  0  0999 V2000
  192.0430  175.9520  145.9690 C   0  0  0  0  0  0  0  0  0  0  0  0
  190.0750  177.3490  146.6080 C   0  0  0  0  0  2  0  0  0  0  0  0
  195.5940  174.5430  140.6850 C   0  0  1  0  0  3  0  0  0  0  0  0
  193.9720  175.3480  144.6440 C   0  0  0  0  0  0  0  0  0  0  0  0
  193.6460  174.1080  142.4180 C   0  0  2  0  0  3  0  0  0  0  0  0
  194.0190  172.5820  140.4540 C   0  0  0  0  0  1  0  0  0  0  0  0
  195.6240  176.0600  140.7220 C   0  0  0  0  0  1  0  0  0  0  0  0
  196.3610  173.0410  142.6430 C   0  0  0  0  0  2  0  0  0  0  0  0
  189.6390  175.4630  145.1340 C   0  0  2  0  0  3  0  0  0  0  0  0
  187.3720  176.1000  143.1110 C   0  0  0  0  0  2  0  0  0  0  0  0
  192.3110  174.8330  142.3880 C   0  0  0  0  0  2  0  0  0  0  0  0
  195.7560  173.8150  143.8130 C   0  0  0  0  0  2  0  0  0  0  0  0
  190.2850  175.4350  143.7320 C   0  0  1  0  0  3  0  0  0  0  0  0
  188.5810  177.2760  146.4140 C   0  0  0  0  0  2  0  0  0  0  0  0
  194.6270  174.7730  143.4080 C   0  0  2  0  0  3  0  0  0  0  0  0
  196.7670  173.9530  141.4880 C   0  0  0  0  0  2  0  0  0  0  0  0
  188.0190  177.0460  144.0110 N   0  0  0  0  0  0  0  0  0  0  0  0
  192.5680  175.3910  144.7940 C   0  0  0  0  0  0  0  0  0  0  0  0
  194.1790  173.9980  140.9750 C   0  0  2  0  0  3  0  0  0  0  0  0
  191.6620  174.7630  143.7670 C   0  0  2  0  0  3  0  0  0  0  0  0
  194.2310  176.4450  146.7270 C   0  0  0  0  0  3  0  0  0  0  0  0
  188.3770  175.5730  142.1030 C   0  0  0  0  0  2  0  0  0  0  0  0
  194.7610  175.9000  145.6040 N   0  0  0  0  0  0  0  0  0  0  0  0
  189.3810  174.6550  142.7790 C   0  0  0  0  0  2  0  0  0  0  0  0
  188.3470  176.3160  145.2480 C   0  0  1  0  0  3  0  0  0  0  0  0
  192.8880  176.4590  146.9070 N   0  0  0  0  0  0  0  0  0  0  0  0
  190.5650  175.9670  146.2480 C   0  0  1  0  0  3  0  0  0  0  0  0
  187.0800  177.9830  144.2950 O   0  0  0  0  0  0  0  0  0  0  0  0
  185.8640  177.2940  144.2650 C   0  0  0  0  0  2  0  0  0  0  0  0
  185.4920  177.7000  147.5140 O   0  0  0  0  0  0  0  0  0  0  0  0
  185.4030  179.1830  145.7140 N   0  0  0  0  0  2  0  0  0  0  0  0
  184.8950  177.9080  145.2600 C   0  0  2  0  0  3  0  0  0  0  0  0
  185.4440  179.0570  147.1620 C   0  0  0  0  0  2  0  0  0  0  0  0
  184.8170  177.0390  146.4850 C   0  0  0  0  0  2  0  0  0  0  0  0
  1 27  1  0  0  0  0
  1 26  1  0  0  0  0
  3  7  1  1  0  0  0
  3 19  1  0  0  0  0
  3 16  1  0  0  0  0
  4 18  1  0  0  0  0
  4 23  2  0  0  0  0
  5 11  1  6  0  0  0
  5 15  1  0  0  0  0
  6 19  1  0  0  0  0
  8 12  1  0  0  0  0
  9 25  1  0  0  0  0
  9 27  1  0  0  0  0
 10 17  1  0  0  0  0
 11 20  1  0  0  0  0
 13 20  1  0  0  0  0
 13  9  1  0  0  0  0
 14  2  1  0  0  0  0
 15 12  1  0  0  0  0
 15  4  1  0  0  0  0
 16  8  1  0  0  0  0
 17 28  1  0  0  0  0
 17 25  1  0  0  0  0
 18  1  2  0  0  0  0
 19  5  1  0  0  0  0
 20 18  1  0  0  0  0
 21 26  2  0  0  0  0
 22 24  1  0  0  0  0
 22 10  1  0  0  0  0
 23 21  1  0  0  0  0
 24 13  1  0  0  0  0
 25 14  1  0  0  0  0
 27  2  1  0  0  0  0
 29 28  1  0  0  0  0
 29 32  1  0  0  0  0
 31 33  1  0  0  0  0
 32 31  1  0  0  0  0
 32 34  1  0  0  0  0
 33 30  1  0  0  0  0
 34 30  1  0  0  0  0
M  END
>  <MODEL>
2

>  <REMARK>
 VINA RESULT:      -8.0      2.173      3.996
  Name = 
  3 active torsions:
  status: ('A' for Active; 'I' for Inactive)
    1  A    between atoms: N_17  and  O_28
    2  A    between atoms: O_28  and  C_29
    3  A    between atoms: C_29  and  C_32
                            x       y       z     vdW  Elec       q    Type
                         _______ _______ _______ _____ _____    ______ ____

>  <TORSDO>
F 3

$$$$
=
 OpenBabel11112417473D

 34 40  0  0  1  0  0  0  0  0999 V2000
  191.8850  175.9060  145.9590 C   0  0  0  0  0  0  0  0  0  0  0  0
  190.0330  177.5480  145.6270 C   0  0  0  0  0  2  0  0  0  0  0  0
  195.8170  172.1100  142.4040 C   0  0  1  0  0  3  0  0  0  0  0  0
  193.8670  174.6730  145.3330 C   0  0  0  0  0  0  0  0  0  0  0  0
  193.6510  172.5950  143.8370 C   0  0  2  0  0  3  0  0  0  0  0  0
  194.0610  170.3400  142.8040 C   0  0  0  0  0  1  0  0  0  0  0  0
  196.0190  173.4830  141.7880 C   0  0  0  0  0  1  0  0  0  0  0  0
  196.1800  171.5910  144.9090 C   0  0  0  0  0  2  0  0  0  0  0  0
  189.5490  175.2320  145.0620 C   0  0  2  0  0  3  0  0  0  0  0  0
  187.6130  175.0310  142.6440 C   0  0  0  0  0  2  0  0  0  0  0  0
  192.4210  173.3050  143.2960 C   0  0  0  0  0  2  0  0  0  0  0  0
  195.5420  172.8340  145.5250 C   0  0  0  0  0  2  0  0  0  0  0  0
  190.3410  174.5500  143.9250 C   0  0  1  0  0  3  0  0  0  0  0  0
  188.5730  177.4790  145.2590 C   0  0  0  0  0  2  0  0  0  0  0  0
  194.5850  173.5750  144.5810 C   0  0  2  0  0  3  0  0  0  0  0  0
  196.8170  171.8730  143.5510 C   0  0  0  0  0  2  0  0  0  0  0  0
  188.2610  176.2400  143.1350 N   0  0  0  0  0  0  0  0  0  0  0  0
  192.4700  174.8550  145.2350 C   0  0  0  0  0  0  0  0  0  0  0  0
  194.3250  171.8290  142.6830 C   0  0  2  0  0  3  0  0  0  0  0  0
  191.6170  173.8880  144.4540 C   0  0  2  0  0  3  0  0  0  0  0  0
  194.0170  176.5630  146.7530 C   0  0  0  0  0  3  0  0  0  0  0  0
  188.6560  174.0580  142.1270 C   0  0  0  0  0  2  0  0  0  0  0  0
  194.6020  175.5480  146.0690 N   0  0  0  0  0  0  0  0  0  0  0  0
  189.4650  173.4800  143.2760 C   0  0  0  0  0  2  0  0  0  0  0  0
  188.3610  176.1170  144.6000 C   0  0  1  0  0  3  0  0  0  0  0  0
  192.6730  176.7290  146.7030 N   0  0  0  0  0  0  0  0  0  0  0  0
  190.3960  176.1250  145.9760 C   0  0  1  0  0  3  0  0  0  0  0  0
  187.4110  177.2570  142.8420 O   0  0  0  0  0  0  0  0  0  0  0  0
  186.1320  176.7160  143.0080 C   0  0  0  0  0  2  0  0  0  0  0  0
  185.4660  179.0210  145.2660 O   0  0  0  0  0  0  0  0  0  0  0  0
  185.7150  179.1030  142.9470 N   0  0  0  0  0  2  0  0  0  0  0  0
  185.1320  177.8240  143.2830 C   0  0  2  0  0  3  0  0  0  0  0  0
  185.5920  179.8840  144.1680 C   0  0  0  0  0  2  0  0  0  0  0  0
  184.8390  177.8820  144.7570 C   0  0  0  0  0  2  0  0  0  0  0  0
  1 27  1  0  0  0  0
  1 26  1  0  0  0  0
  2 27  1  0  0  0  0
  3  7  1  1  0  0  0
  3 19  1  0  0  0  0
  3 16  1  0  0  0  0
  4 23  2  0  0  0  0
  5 11  1  6  0  0  0
  5 15  1  0  0  0  0
  8 12  1  0  0  0  0
  9 27  1  0  0  0  0
 10 17  1  0  0  0  0
 11 20  1  0  0  0  0
 13 20  1  0  0  0  0
 13  9  1  0  0  0  0
 14  2  1  0  0  0  0
 15  4  1  0  0  0  0
 15 12  1  0  0  0  0
 16  8  1  0  0  0  0
 17 25  1  0  0  0  0
 18  4  1  0  0  0  0
 18  1  2  0  0  0  0
 19  6  1  0  0  0  0
 19  5  1  0  0  0  0
 20 18  1  0  0  0  0
 22 10  1  0  0  0  0
 22 24  1  0  0  0  0
 23 21  1  0  0  0  0
 24 13  1  0  0  0  0
 25  9  1  0  0  0  0
 25 14  1  0  0  0  0
 26 21  2  0  0  0  0
 28 29  1  0  0  0  0
 28 17  1  0  0  0  0
 29 32  1  0  0  0  0
 31 32  1  0  0  0  0
 31 33  1  0  0  0  0
 32 34  1  0  0  0  0
 33 30  1  0  0  0  0
 34 30  1  0  0  0  0
M  END
>  <MODEL>
3

>  <REMARK>
 VINA RESULT:      -8.0      2.141      3.795
  Name = 
  3 active torsions:
  status: ('A' for Active; 'I' for Inactive)
    1  A    between atoms: N_17  and  O_28
    2  A    between atoms: O_28  and  C_29
    3  A    between atoms: C_29  and  C_32
                            x       y       z     vdW  Elec       q    Type
                         _______ _______ _______ _____ _____    ______ ____

>  <TORSDO>
F 3

$$$$
=
 OpenBabel11112417473D

 34 40  0  0  1  0  0  0  0  0999 V2000
  192.1780  176.0800  145.9620 C   0  0  0  0  0  0  0  0  0  0  0  0
  189.9840  177.2160  146.3240 C   0  0  0  0  0  2  0  0  0  0  0  0
  196.4030  174.9230  141.1320 C   0  0  1  0  0  3  0  0  0  0  0  0
  194.2950  175.6890  144.8640 C   0  0  0  0  0  0  0  0  0  0  0  0
  194.3670  174.3050  142.7000 C   0  0  2  0  0  3  0  0  0  0  0  0
  195.1390  172.7500  140.8800 C   0  0  0  0  0  1  0  0  0  0  0  0
  196.2230  176.4290  141.0750 C   0  0  0  0  0  1  0  0  0  0  0  0
  197.1640  173.6440  143.2440 C   0  0  0  0  0  2  0  0  0  0  0  0
  189.9590  175.2160  144.9380 C   0  0  2  0  0  3  0  0  0  0  0  0
  187.8440  175.4250  142.6770 C   0  0  0  0  0  2  0  0  0  0  0  0
  192.9560  174.8320  142.5000 C   0  0  0  0  0  2  0  0  0  0  0  0
  196.3450  174.3820  144.3010 C   0  0  0  0  0  2  0  0  0  0  0  0
  190.7420  175.2090  143.6080 C   0  0  1  0  0  3  0  0  0  0  0  0
  188.5420  176.9240  145.9960 C   0  0  0  0  0  2  0  0  0  0  0  0
  195.1440  175.1500  143.7330 C   0  0  2  0  0  3  0  0  0  0  0  0
  197.5580  174.5450  142.0770 C   0  0  0  0  0  2  0  0  0  0  0  0
  188.2620  176.4960  143.5710 N   0  0  0  0  0  0  0  0  0  0  0  0
  192.8900  175.5410  144.8780 C   0  0  0  0  0  0  0  0  0  0  0  0
  195.0530  174.1990  141.3230 C   0  0  2  0  0  3  0  0  0  0  0  0
  192.1860  174.7400  143.8140 C   0  0  2  0  0  3  0  0  0  0  0  0
  194.1910  176.9150  146.8870 C   0  0  0  0  0  3  0  0  0  0  0  0
  189.0060  174.9950  141.8030 C   0  0  0  0  0  2  0  0  0  0  0  0
  194.9010  176.3940  145.8560 N   0  0  0  0  0  0  0  0  0  0  0  0
  190.0530  174.2630  142.6260 C   0  0  0  0  0  2  0  0  0  0  0  0
  188.5590  175.8830  144.8770 C   0  0  1  0  0  3  0  0  0  0  0  0
  192.8470  176.7480  146.9400 N   0  0  0  0  0  0  0  0  0  0  0  0
  190.6900  175.9010  146.1000 C   0  0  1  0  0  3  0  0  0  0  0  0
  187.1800  177.3050  143.7060 O   0  0  0  0  0  0  0  0  0  0  0  0
  187.2690  178.2040  142.6390 C   0  0  0  0  0  2  0  0  0  0  0  0
  184.0200  177.9320  143.1210 O   0  0  0  0  0  0  0  0  0  0  0  0
  185.6110  179.4600  143.8860 N   0  0  0  0  0  2  0  0  0  0  0  0
  186.0040  179.0410  142.5600 C   0  0  2  0  0  3  0  0  0  0  0  0
  184.2420  178.9860  144.0190 C   0  0  0  0  0  2  0  0  0  0  0  0
  184.8730  178.1930  142.0460 C   0  0  0  0  0  2  0  0  0  0  0  0
  1 27  1  0  0  0  0
  1 26  1  0  0  0  0
  3  7  1  1  0  0  0
  3 19  1  0  0  0  0
  3 16  1  0  0  0  0
  4 18  1  0  0  0  0
  4 23  2  0  0  0  0
  5 11  1  6  0  0  0
  5 15  1  0  0  0  0
  6 19  1  0  0  0  0
  8 12  1  0  0  0  0
  9 27  1  0  0  0  0
 10 17  1  0  0  0  0
 11 20  1  0  0  0  0
 13 20  1  0  0  0  0
 13  9  1  0  0  0  0
 14  2  1  0  0  0  0
 15 12  1  0  0  0  0
 15  4  1  0  0  0  0
 16  8  1  0  0  0  0
 17 28  1  0  0  0  0
 17 25  1  0  0  0  0
 18  1  2  0  0  0  0
 19  5  1  0  0  0  0
 20 18  1  0  0  0  0
 21 26  2  0  0  0  0
 22 24  1  0  0  0  0
 22 10  1  0  0  0  0
 23 21  1  0  0  0  0
 24 13  1  0  0  0  0
 25  9  1  0  0  0  0
 25 14  1  0  0  0  0
 27  2  1  0  0  0  0
 29 28  1  0  0  0  0
 30 33  1  0  0  0  0
 31 33  1  0  0  0  0
 32 29  1  0  0  0  0
 32 31  1  0  0  0  0
 34 32  1  0  0  0  0
 34 30  1  0  0  0  0
M  END
>  <MODEL>
4

>  <REMARK>
 VINA RESULT:      -8.0      2.519      4.250
  Name = 
  3 active torsions:
  status: ('A' for Active; 'I' for Inactive)
    1  A    between atoms: N_17  and  O_28
    2  A    between atoms: O_28  and  C_29
    3  A    between atoms: C_29  and  C_32
                            x       y       z     vdW  Elec       q    Type
                         _______ _______ _______ _____ _____    ______ ____

>  <TORSDO>
F 3

$$$$
=
 OpenBabel11112417473D

 34 40  0  0  1  0  0  0  0  0999 V2000
  192.8080  176.2540  144.8670 C   0  0  0  0  0  0  0  0  0  0  0  0
  191.1960  177.8880  143.8850 C   0  0  0  0  0  2  0  0  0  0  0  0
  195.6900  170.6160  143.3150 C   0  0  1  0  0  3  0  0  0  0  0  0
  194.4980  174.5280  144.8070 C   0  0  0  0  0  0  0  0  0  0  0  0
  193.8020  172.0810  144.4420 C   0  0  2  0  0  3  0  0  0  0  0  0
  193.7490  169.5690  144.5460 C   0  0  0  0  0  1  0  0  0  0  0  0
  196.0210  171.5050  142.1310 C   0  0  0  0  0  1  0  0  0  0  0  0
  196.2620  171.2100  145.7640 C   0  0  0  0  0  2  0  0  0  0  0  0
  190.3100  175.6970  144.4640 C   0  0  2  0  0  3  0  0  0  0  0  0
  188.0970  174.8030  142.4810 C   0  0  0  0  0  2  0  0  0  0  0  0
  192.6370  172.6900  143.6800 C   0  0  0  0  0  2  0  0  0  0  0  0
  195.8920  172.6920  145.7620 C   0  0  0  0  0  2  0  0  0  0  0  0
  190.8530  174.4470  143.7400 C   0  0  1  0  0  3  0  0  0  0  0  0
  189.7080  177.9340  143.6420 C   0  0  0  0  0  2  0  0  0  0  0  0
  194.9520  173.0970  144.6180 C   0  0  2  0  0  3  0  0  0  0  0  0
  196.7700  170.7330  144.4060 C   0  0  0  0  0  2  0  0  0  0  0  0
  188.9700  175.9600  142.3380 N   0  0  0  0  0  0  0  0  0  0  0  0
  193.1420  174.9020  144.6860 C   0  0  0  0  0  0  0  0  0  0  0  0
  194.2160  170.7700  143.7450 C   0  0  2  0  0  3  0  0  0  0  0  0
  192.0700  173.8660  144.4680 C   0  0  2  0  0  3  0  0  0  0  0  0
  195.0930  176.7870  145.1930 C   0  0  0  0  0  3  0  0  0  0  0  0
  188.9150  173.5270  142.4310 C   0  0  0  0  0  2  0  0  0  0  0  0
  195.4370  175.4860  145.0320 N   0  0  0  0  0  0  0  0  0  0  0  0
  189.7580  173.3830  143.6870 C   0  0  0  0  0  2  0  0  0  0  0  0
  189.2200  176.4870  143.6910 C   0  0  1  0  0  3  0  0  0  0  0  0
  193.7910  177.1600  145.1210 N   0  0  0  0  0  0  0  0  0  0  0  0
  191.3810  176.7300  144.8360 C   0  0  1  0  0  3  0  0  0  0  0  0
  188.2520  176.8780  141.6410 O   0  0  0  0  0  0  0  0  0  0  0  0
  186.9250  176.6610  142.0230 C   0  0  0  0  0  2  0  0  0  0  0  0
  183.9880  178.0000  141.3550 O   0  0  0  0  0  0  0  0  0  0  0  0
  185.3100  177.9640  143.2790 N   0  0  0  0  0  2  0  0  0  0  0  0
  186.1950  177.9880  142.1360 C   0  0  2  0  0  3  0  0  0  0  0  0
  184.0050  178.2910  142.7270 C   0  0  0  0  0  2  0  0  0  0  0  0
  185.3090  178.1770  140.9360 C   0  0  0  0  0  2  0  0  0  0  0  0
  1 26  1  0  0  0  0
  2 27  1  0  0  0  0
  3  7  1  6  0  0  0
  3 19  1  0  0  0  0
  3 16  1  0  0  0  0
  4 23  2  0  0  0  0
  5 11  1  6  0  0  0
  5 15  1  0  0  0  0
  9 27  1  0  0  0  0
 11 20  1  0  0  0  0
 12  8  1  0  0  0  0
 13  9  1  0  0  0  0
 13 20  1  0  0  0  0
 14 25  1  0  0  0  0
 14  2  1  0  0  0  0
 15  4  1  0  0  0  0
 15 12  1  0  0  0  0
 16  8  1  0  0  0  0
 17 10  1  0  0  0  0
 17 25  1  0  0  0  0
 18  4  1  0  0  0  0
 18  1  2  0  0  0  0
 19  5  1  0  0  0  0
 19  6  1  0  0  0  0
 20 18  1  0  0  0  0
 22 10  1  0  0  0  0
 22 24  1  0  0  0  0
 23 21  1  0  0  0  0
 24 13  1  0  0  0  0
 25  9  1  0  0  0  0
 26 21  2  0  0  0  0
 27  1  1  0  0  0  0
 28 29  1  0  0  0  0
 28 17  1  0  0  0  0
 29 32  1  0  0  0  0
 30 33  1  0  0  0  0
 32 31  1  0  0  0  0
 33 31  1  0  0  0  0
 34 30  1  0  0  0  0
 34 32  1  0  0  0  0
M  END
>  <MODEL>
5

>  <REMARK>
 VINA RESULT:      -7.7      2.683      3.919
  Name = 
  3 active torsions:
  status: ('A' for Active; 'I' for Inactive)
    1  A    between atoms: N_17  and  O_28
    2  A    between atoms: O_28  and  C_29
    3  A    between atoms: C_29  and  C_32
                            x       y       z     vdW  Elec       q    Type
                         _______ _______ _______ _____ _____    ______ ____

>  <TORSDO>
F 3

$$$$
=
 OpenBabel11112417473D

 34 40  0  0  1  0  0  0  0  0999 V2000
  190.9610  173.6190  141.6210 C   0  0  0  0  0  0  0  0  0  0  0  0
  188.5330  173.7960  142.1760 C   0  0  0  0  0  2  0  0  0  0  0  0
  196.7570  174.4650  144.4840 C   0  0  1  0  0  3  0  0  0  0  0  0
  193.3060  173.2950  142.1010 C   0  0  0  0  0  0  0  0  0  0  0  0
  194.6960  175.2480  143.0270 C   0  0  2  0  0  3  0  0  0  0  0  0
  196.6180  176.7940  143.5170 C   0  0  0  0  0  1  0  0  0  0  0  0
  196.0460  173.5130  145.4280 C   0  0  0  0  0  1  0  0  0  0  0  0
  197.1180  173.9940  141.9690 C   0  0  0  0  0  2  0  0  0  0  0  0
  189.7910  175.8770  142.1220 C   0  0  2  0  0  3  0  0  0  0  0  0
  188.7520  177.8930  144.2410 C   0  0  0  0  0  2  0  0  0  0  0  0
  193.3720  175.7070  143.6140 C   0  0  0  0  0  2  0  0  0  0  0  0
  195.7520  173.4080  141.6190 C   0  0  0  0  0  2  0  0  0  0  0  0
  190.9460  176.0890  143.1250 C   0  0  1  0  0  3  0  0  0  0  0  0
  187.5450  174.9150  142.3890 C   0  0  0  0  0  2  0  0  0  0  0  0
  194.6480  173.7570  142.6260 C   0  0  2  0  0  3  0  0  0  0  0  0
  197.5330  173.6880  143.4050 C   0  0  0  0  0  2  0  0  0  0  0  0
  188.3640  176.4940  144.1150 N   0  0  0  0  0  0  0  0  0  0  0  0
  192.1690  174.1320  142.1190 C   0  0  0  0  0  0  0  0  0  0  0  0
  195.8240  175.6020  144.0170 C   0  0  2  0  0  3  0  0  0  0  0  0
  192.2730  175.5680  142.5650 C   0  0  2  0  0  3  0  0  0  0  0  0
  192.0030  171.5360  141.1990 C   0  0  0  0  0  3  0  0  0  0  0  0
  190.2230  177.9930  144.5970 C   0  0  0  0  0  2  0  0  0  0  0  0
  193.1840  172.0130  141.6650 N   0  0  0  0  0  0  0  0  0  0  0  0
  191.0880  177.5810  143.4180 C   0  0  0  0  0  2  0  0  0  0  0  0
  188.3720  176.1670  142.6780 C   0  0  1  0  0  3  0  0  0  0  0  0
  190.9100  172.3370  141.1700 N   0  0  0  0  0  0  0  0  0  0  0  0
  189.7200  174.4650  141.5270 C   0  0  1  0  0  3  0  0  0  0  0  0
  187.0870  176.4240  144.5700 O   0  0  0  0  0  0  0  0  0  0  0  0
  187.1690  176.7640  145.9230 C   0  0  0  0  0  2  0  0  0  0  0  0
  185.2050  179.0380  147.2790 O   0  0  0  0  0  0  0  0  0  0  0  0
  184.8950  177.5130  145.5380 N   0  0  0  0  0  2  0  0  0  0  0  0
  185.7750  176.9020  146.5090 C   0  0  2  0  0  3  0  0  0  0  0  0
  184.3500  178.6710  146.2300 C   0  0  0  0  0  2  0  0  0  0  0  0
  185.8130  177.8450  147.6790 C   0  0  0  0  0  2  0  0  0  0  0  0
  1 18  1  0  0  0  0
  2 14  1  0  0  0  0
  3  7  1  6  0  0  0
  4 18  2  0  0  0  0
  4 15  1  0  0  0  0
  5 11  1  1  0  0  0
  5 19  1  0  0  0  0
  6 19  1  0  0  0  0
  8 16  1  0  0  0  0
  9 25  1  0  0  0  0
  9 13  1  0  0  0  0
 10 22  1  0  0  0  0
 12  8  1  0  0  0  0
 12 15  1  0  0  0  0
 13 24  1  0  0  0  0
 14 25  1  0  0  0  0
 15  5  1  0  0  0  0
 16  3  1  0  0  0  0
 17 10  1  0  0  0  0
 17 28  1  0  0  0  0
 18 20  1  0  0  0  0
 19  3  1  0  0  0  0
 20 13  1  0  0  0  0
 20 11  1  0  0  0  0
 21 23  2  0  0  0  0
 23  4  1  0  0  0  0
 24 22  1  0  0  0  0
 25 17  1  0  0  0  0
 26 21  1  0  0  0  0
 26  1  2  0  0  0  0
 27  1  1  0  0  0  0
 27  9  1  0  0  0  0
 27  2  1  0  0  0  0
 28 29  1  0  0  0  0
 29 32  1  0  0  0  0
 30 34  1  0  0  0  0
 31 33  1  0  0  0  0
 31 32  1  0  0  0  0
 32 34  1  0  0  0  0
 33 30  1  0  0  0  0
M  END
>  <MODEL>
6

>  <REMARK>
 VINA RESULT:      -7.7      1.782      2.256
  Name = 
  3 active torsions:
  status: ('A' for Active; 'I' for Inactive)
    1  A    between atoms: N_17  and  O_28
    2  A    between atoms: O_28  and  C_29
    3  A    between atoms: C_29  and  C_32
                            x       y       z     vdW  Elec       q    Type
                         _______ _______ _______ _____ _____    ______ ____

>  <TORSDO>
F 3

$$$$
=
 OpenBabel11112417473D

 34 40  0  0  1  0  0  0  0  0999 V2000
  192.1570  175.9800  146.2900 C   0  0  0  0  0  0  0  0  0  0  0  0
  194.3540  174.8030  146.4420 C   0  0  0  0  0  2  0  0  0  0  0  0
  186.9780  176.2790  142.3410 C   0  0  1  0  0  3  0  0  0  0  0  0
  189.8560  176.2560  145.6070 C   0  0  0  0  0  0  0  0  0  0  0  0
  189.3250  177.0970  143.2380 C   0  0  2  0  0  3  0  0  0  0  0  0
  188.1930  178.2350  141.3020 C   0  0  0  0  0  1  0  0  0  0  0  0
  187.1110  174.7930  142.6170 C   0  0  0  0  0  1  0  0  0  0  0  0
  186.7350  178.0690  144.1880 C   0  0  0  0  0  2  0  0  0  0  0  0
  194.1050  176.4160  144.6370 C   0  0  2  0  0  3  0  0  0  0  0  0
  195.6540  175.5300  142.0970 C   0  0  0  0  0  2  0  0  0  0  0  0
  190.6450  176.4360  142.8760 C   0  0  0  0  0  2  0  0  0  0  0  0
  187.7570  177.5410  145.1940 C   0  0  0  0  0  2  0  0  0  0  0  0
  193.0440  176.1680  143.5440 C   0  0  1  0  0  3  0  0  0  0  0  0
  195.6910  174.9040  145.7520 C   0  0  0  0  0  2  0  0  0  0  0  0
  188.7850  176.5760  144.5880 C   0  0  2  0  0  3  0  0  0  0  0  0
  186.0720  176.9510  143.3880 C   0  0  0  0  0  2  0  0  0  0  0  0
  195.4270  174.7310  143.2940 N   0  0  0  0  0  0  0  0  0  0  0  0
  191.2300  176.3010  145.2850 C   0  0  0  0  0  0  0  0  0  0  0  0
  188.3490  176.9280  142.0560 C   0  0  2  0  0  3  0  0  0  0  0  0
  191.6920  176.7760  143.9320 C   0  0  2  0  0  3  0  0  0  0  0  0
  190.3880  175.5340  147.7990 C   0  0  0  0  0  3  0  0  0  0  0  0
  194.3330  175.8270  141.4140 C   0  0  0  0  0  2  0  0  0  0  0  0
  189.4740  175.8490  146.8470 N   0  0  0  0  0  0  0  0  0  0  0  0
  193.5120  176.8060  142.2370 C   0  0  0  0  0  2  0  0  0  0  0  0
  195.4430  175.6530  144.4430 C   0  0  1  0  0  3  0  0  0  0  0  0
  191.7120  175.6100  147.5210 N   0  0  0  0  0  0  0  0  0  0  0  0
  193.6410  176.0770  146.0590 C   0  0  1  0  0  3  0  0  0  0  0  0
  196.4960  173.9000  143.3890 O   0  0  0  0  0  0  0  0  0  0  0  0
  196.1030  172.7330  142.7260 C   0  0  0  0  0  2  0  0  0  0  0  0
  197.1910  171.9520  145.7370 O   0  0  0  0  0  0  0  0  0  0  0  0
  195.4080  171.1730  144.4470 N   0  0  0  0  0  2  0  0  0  0  0  0
  196.4870  171.5150  143.5480 C   0  0  2  0  0  3  0  0  0  0  0  0
  196.0280  171.1690  145.7630 C   0  0  0  0  0  2  0  0  0  0  0  0
  197.6600  171.8520  144.4250 C   0  0  0  0  0  2  0  0  0  0  0  0
  1 26  1  0  0  0  0
  3  7  1  1  0  0  0
  3 16  1  0  0  0  0
  4 23  2  0  0  0  0
  5 11  1  6  0  0  0
  5 15  1  0  0  0  0
  6 19  1  0  0  0  0
  8 12  1  0  0  0  0
  9 27  1  0  0  0  0
 10 17  1  0  0  0  0
 11 20  1  0  0  0  0
 13 20  1  0  0  0  0
 13  9  1  0  0  0  0
 14  2  1  0  0  0  0
 15 12  1  0  0  0  0
 15  4  1  0  0  0  0
 16  8  1  0  0  0  0
 17 28  1  0  0  0  0
 17 25  1  0  0  0  0
 18  4  1  0  0  0  0
 18  1  2  0  0  0  0
 19  3  1  0  0  0  0
 19  5  1  0  0  0  0
 20 18  1  0  0  0  0
 22 10  1  0  0  0  0
 22 24  1  0  0  0  0
 23 21  1  0  0  0  0
 24 13  1  0  0  0  0
 25  9  1  0  0  0  0
 25 14  1  0  0  0  0
 26 21  2  0  0  0  0
 27  1  1  0  0  0  0
 27  2  1  0  0  0  0
 29 28  1  0  0  0  0
 29 32  1  0  0  0  0
 30 33  1  0  0  0  0
 31 33  1  0  0  0  0
 32 34  1  0  0  0  0
 32 31  1  0  0  0  0
 34 30  1  0  0  0  0
M  END
>  <MODEL>
7

>  <REMARK>
 VINA RESULT:      -7.6      3.461      8.745
  Name = 
  3 active torsions:
  status: ('A' for Active; 'I' for Inactive)
    1  A    between atoms: N_17  and  O_28
    2  A    between atoms: O_28  and  C_29
    3  A    between atoms: C_29  and  C_32
                            x       y       z     vdW  Elec       q    Type
                         _______ _______ _______ _____ _____    ______ ____

>  <TORSDO>
F 3

$$$$
=
 OpenBabel11112417473D

 34 40  0  0  1  0  0  0  0  0999 V2000
  189.6070  176.9650  142.9660 C   0  0  0  0  0  0  0  0  0  0  0  0
  192.0630  176.9080  142.5210 C   0  0  0  0  0  2  0  0  0  0  0  0
  185.4850  178.6810  147.7180 C   0  0  1  0  0  3  0  0  0  0  0  0
  187.5820  177.7650  144.0130 C   0  0  0  0  0  0  0  0  0  0  0  0
  186.9660  176.9540  146.3720 C   0  0  2  0  0  3  0  0  0  0  0  0
  185.6360  176.2500  148.3880 C   0  0  0  0  0  1  0  0  0  0  0  0
  186.3290  179.9290  147.5300 C   0  0  0  0  0  1  0  0  0  0  0  0
  184.1550  177.5450  145.8160 C   0  0  0  0  0  2  0  0  0  0  0  0
  191.2290  175.3810  144.2220 C   0  0  2  0  0  3  0  0  0  0  0  0
  193.2860  174.9930  146.5130 C   0  0  0  0  0  2  0  0  0  0  0  0
  188.4690  176.8120  146.5470 C   0  0  0  0  0  2  0  0  0  0  0  0
  185.1830  177.6420  144.6900 C   0  0  0  0  0  2  0  0  0  0  0  0
  190.5740  175.9550  145.4960 C   0  0  1  0  0  3  0  0  0  0  0  0
  193.2280  176.0570  142.9610 C   0  0  0  0  0  2  0  0  0  0  0  0
  186.6210  177.8690  145.1770 C   0  0  2  0  0  3  0  0  0  0  0  0
  184.2530  178.7100  146.7960 C   0  0  0  0  0  2  0  0  0  0  0  0
  193.3670  175.9680  145.4340 N   0  0  0  0  0  0  0  0  0  0  0  0
  188.7660  176.9990  144.0890 C   0  0  0  0  0  0  0  0  0  0  0  0
  186.3540  177.4050  147.7130 C   0  0  2  0  0  3  0  0  0  0  0  0
  189.0680  176.1610  145.3050 C   0  0  2  0  0  3  0  0  0  0  0  0
  188.1590  178.4480  141.8200 C   0  0  0  0  0  3  0  0  0  0  0  0
  192.0850  175.2910  147.3910 C   0  0  0  0  0  2  0  0  0  0  0  0
  187.3260  178.4870  142.8900 N   0  0  0  0  0  0  0  0  0  0  0  0
  190.7930  174.9820  146.6540 C   0  0  0  0  0  2  0  0  0  0  0  0
  192.7800  175.3430  144.2360 C   0  0  1  0  0  3  0  0  0  0  0  0
  189.2790  177.6860  141.8590 N   0  0  0  0  0  0  0  0  0  0  0  0
  190.8470  176.1130  142.9290 C   0  0  1  0  0  3  0  0  0  0  0  0
  194.6920  176.1660  145.2160 O   0  0  0  0  0  0  0  0  0  0  0  0
  195.3170  175.0360  145.7530 C   0  0  0  0  0  2  0  0  0  0  0  0
  195.9230  173.7710  142.7710 O   0  0  0  0  0  0  0  0  0  0  0  0
  196.7430  175.6480  143.8910 N   0  0  0  0  0  2  0  0  0  0  0  0
  196.4860  174.6240  144.8770 C   0  0  2  0  0  3  0  0  0  0  0  0
  196.6750  174.9450  142.6190 C   0  0  0  0  0  2  0  0  0  0  0  0
  196.1210  173.3890  144.1000 C   0  0  0  0  0  2  0  0  0  0  0  0
  1 18  1  0  0  0  0
  2 27  1  0  0  0  0
  2 14  1  0  0  0  0
  3  7  1  6  0  0  0
  4 18  2  0  0  0  0
  4 15  1  0  0  0  0
  5 11  1  1  0  0  0
  5 19  1  0  0  0  0
  8 16  1  0  0  0  0
  9 25  1  0  0  0  0
  9 13  1  0  0  0  0
 10 22  1  0  0  0  0
 12 15  1  0  0  0  0
 12  8  1  0  0  0  0
 13 24  1  0  0  0  0
 14 25  1  0  0  0  0
 15  5  1  0  0  0  0
 16  3  1  0  0  0  0
 17 10  1  0  0  0  0
 18 20  1  0  0  0  0
 19  3  1  0  0  0  0
 19  6  1  0  0  0  0
 20 13  1  0  0  0  0
 20 11  1  0  0  0  0
 21 26  1  0  0  0  0
 21 23  2  0  0  0  0
 23  4  1  0  0  0  0
 24 22  1  0  0  0  0
 25 17  1  0  0  0  0
 26  1  2  0  0  0  0
 27  1  1  0  0  0  0
 27  9  1  0  0  0  0
 28 17  1  0  0  0  0
 28 29  1  0  0  0  0
 30 34  1  0  0  0  0
 31 32  1  0  0  0  0
 32 29  1  0  0  0  0
 33 30  1  0  0  0  0
 33 31  1  0  0  0  0
 34 32  1  0  0  0  0
M  END
>  <MODEL>
8

>  <REMARK>
 VINA RESULT:      -7.6      3.104      8.751
  Name = 
  3 active torsions:
  status: ('A' for Active; 'I' for Inactive)
    1  A    between atoms: N_17  and  O_28
    2  A    between atoms: O_28  and  C_29
    3  A    between atoms: C_29  and  C_32
                            x       y       z     vdW  Elec       q    Type
                         _______ _______ _______ _____ _____    ______ ____

>  <TORSDO>
F 3

$$$$
=
 OpenBabel11112417473D

 34 40  0  0  1  0  0  0  0  0999 V2000
  192.9980  176.2760  143.2620 C   0  0  0  0  0  0  0  0  0  0  0  0
  190.9970  177.7660  143.1670 C   0  0  0  0  0  2  0  0  0  0  0  0
  194.4150  169.9360  143.8180 C   0  0  1  0  0  3  0  0  0  0  0  0
  194.2100  174.2040  142.9830 C   0  0  0  0  0  0  0  0  0  0  0  0
  194.0160  172.3680  144.7710 C   0  0  2  0  0  3  0  0  0  0  0  0
  194.5680  170.4400  146.2880 C   0  0  0  0  0  1  0  0  0  0  0  0
  193.4540  169.9690  142.6440 C   0  0  0  0  0  1  0  0  0  0  0  0
  196.6050  171.3030  143.9230 C   0  0  0  0  0  2  0  0  0  0  0  0
  191.4190  176.6420  145.2840 C   0  0  2  0  0  3  0  0  0  0  0  0
  188.7740  175.9030  146.7280 C   0  0  0  0  0  2  0  0  0  0  0  0
  192.6400  172.9660  145.0120 C   0  0  0  0  0  2  0  0  0  0  0  0
  196.1100  172.6270  143.3450 C   0  0  0  0  0  2  0  0  0  0  0  0
  191.3720  175.1000  145.3430 C   0  0  1  0  0  3  0  0  0  0  0  0
  189.9800  178.2830  144.1530 C   0  0  0  0  0  2  0  0  0  0  0  0
  194.5860  172.7990  143.4010 C   0  0  2  0  0  3  0  0  0  0  0  0
  195.8690  170.1000  143.3400 C   0  0  0  0  0  2  0  0  0  0  0  0
  188.9040  176.4100  145.3690 N   0  0  0  0  0  0  0  0  0  0  0  0
  193.2990  174.9860  143.7270 C   0  0  0  0  0  0  0  0  0  0  0  0
  193.9320  170.8420  144.9710 C   0  0  2  0  0  3  0  0  0  0  0  0
  192.7420  174.4880  145.0360 C   0  0  2  0  0  3  0  0  0  0  0  0
  194.4030  175.9410  141.3850 C   0  0  0  0  0  3  0  0  0  0  0  0
  189.4310  174.5400  146.8380 C   0  0  0  0  0  2  0  0  0  0  0  0
  194.7160  174.6950  141.8200 N   0  0  0  0  0  0  0  0  0  0  0  0
  190.9420  174.6650  146.7430 C   0  0  0  0  0  2  0  0  0  0  0  0
  190.0390  177.3490  145.3610 C   0  0  1  0  0  3  0  0  0  0  0  0
  193.5620  176.7210  142.1060 N   0  0  0  0  0  0  0  0  0  0  0  0
  192.1020  177.2070  144.0310 C   0  0  1  0  0  3  0  0  0  0  0  0
  187.7640  177.1050  145.1250 O   0  0  0  0  0  0  0  0  0  0  0  0
  187.2080  177.3370  146.3870 C   0  0  0  0  0  2  0  0  0  0  0  0
  184.5550  178.5220  144.8320 O   0  0  0  0  0  0  0  0  0  0  0  0
  185.1180  178.3450  147.0900 N   0  0  0  0  0  2  0  0  0  0  0  0
  186.3360  178.5800  146.3490 C   0  0  2  0  0  3  0  0  0  0  0  0
  184.0590  178.6380  146.1380 C   0  0  0  0  0  2  0  0  0  0  0  0
  185.9090  178.8500  144.9330 C   0  0  0  0  0  2  0  0  0  0  0  0
  1 18  1  0  0  0  0
  1 27  1  0  0  0  0
  2 27  1  0  0  0  0
  2 14  1  0  0  0  0
  3  7  1  6  0  0  0
  3 19  1  0  0  0  0
  4 15  1  0  0  0  0
  4 18  2  0  0  0  0
  5 19  1  0  0  0  0
  5 11  1  6  0  0  0
  9 13  1  0  0  0  0
  9 25  1  0  0  0  0
 10 22  1  0  0  0  0
 11 20  1  0  0  0  0
 12 15  1  0  0  0  0
 12  8  1  0  0  0  0
 13 24  1  0  0  0  0
 14 25  1  0  0  0  0
 15  5  1  0  0  0  0
 16  3  1  0  0  0  0
 16  8  1  0  0  0  0
 17 10  1  0  0  0  0
 18 20  1  0  0  0  0
 19  6  1  0  0  0  0
 20 13  1  0  0  0  0
 21 23  2  0  0  0  0
 21 26  1  0  0  0  0
 23  4  1  0  0  0  0
 24 22  1  0  0  0  0
 25 17  1  0  0  0  0
 26  1  2  0  0  0  0
 27  9  1  0  0  0  0
 28 17  1  0  0  0  0
 28 29  1  0  0  0  0
 30 34  1  0  0  0  0
 30 33  1  0  0  0  0
 32 29  1  0  0  0  0
 32 31  1  0  0  0  0
 33 31  1  0  0  0  0
 34 32  1  0  0  0  0
M  END
>  <MODEL>
9

>  <REMARK>
 VINA RESULT:      -7.6      1.822      2.203
  Name = 
  3 active torsions:
  status: ('A' for Active; 'I' for Inactive)
    1  A    between atoms: N_17  and  O_28
    2  A    between atoms: O_28  and  C_29
    3  A    between atoms: C_29  and  C_32
                            x       y       z     vdW  Elec       q    Type
                         _______ _______ _______ _____ _____    ______ ____

>  <TORSDO>
F 3

$$$$
