=
 OpenBabel11112416253D

 30 35  0  0  1  0  0  0  0  0999 V2000
  189.5180  174.8630  144.7290 C   0  0  2  0  0  3  0  0  0  0  0  0
  190.6840  172.7400  143.7970 C   0  0  0  0  0  0  0  0  0  0  0  0
  188.0510  175.7300  141.2210 N   0  0  0  0  0  2  0  0  0  0  0  0
  188.7770  176.1170  144.2430 C   0  0  2  0  0  3  0  0  0  0  0  0
  190.7620  175.2550  145.2540 O   0  0  0  0  0  0  0  0  0  0  0  0
  189.9390  177.9950  147.1990 O   0  0  0  0  0  0  0  0  0  0  0  0
  186.2720  177.9740  144.9360 C   0  0  2  0  0  3  0  0  0  0  0  0
  189.7480  177.0770  146.4140 C   0  0  0  0  0  0  0  0  0  0  0  0
  186.8540  178.1800  143.6090 N   0  0  2  0  0  0  0  0  0  0  0  0
  187.3960  176.9440  141.5300 C   0  0  0  0  0  0  0  0  0  0  0  0
  190.5090  175.7770  146.5350 C   0  0  2  0  0  3  0  0  0  0  0  0
  188.6860  177.2070  145.3520 C   0  0  2  0  0  3  0  0  0  0  0  0
  190.7460  171.6880  142.8330 N   0  0  0  0  0  0  0  0  0  0  0  0
  185.9750  179.1710  142.9980 C   0  0  0  0  0  2  0  0  0  0  0  0
  185.6870  179.2920  145.3850 C   0  0  0  0  0  2  0  0  0  0  0  0
  191.4230  172.6840  144.8140 O   0  0  0  0  0  0  0  0  0  0  0  0
  187.7990  174.8280  142.3340 C   0  0  2  0  0  3  0  0  0  0  0  0
  190.0380  171.7060  141.7470 C   0  0  0  0  0  3  0  0  0  0  0  0
  189.7160  173.8490  143.6200 C   0  0  0  0  0  0  0  0  0  0  0  0
  187.4580  175.7240  143.5370 C   0  0  2  0  0  3  0  0  0  0  0  0
  187.3440  177.9080  140.7200 O   0  0  0  0  0  0  0  0  0  0  0  0
  186.7340  176.9190  142.8650 C   0  0  1  0  0  3  0  0  0  0  0  0
  185.4260  180.0480  144.1050 C   0  0  0  0  0  2  0  0  0  0  0  0
  186.7490  176.2340  146.6750 C   0  0  0  0  0  1  0  0  0  0  0  0
  189.1390  172.8580  141.3980 C   0  0  0  0  0  2  0  0  0  0  0  0
  188.9200  173.8380  142.5260 C   0  0  0  0  0  0  0  0  0  0  0  0
  187.2930  177.4580  145.9550 C   0  0  2  0  0  3  0  0  0  0  0  0
  191.8250  175.9610  147.2770 C   0  0  0  0  0  2  0  0  0  0  0  0
  194.0980  176.5960  146.5340 C   0  0  0  0  0  1  0  0  0  0  0  0
  192.9880  175.5780  146.3820 C   0  0  0  0  0  2  0  0  0  0  0  0
  1 19  1  6  0  0  0
  1  5  1  0  0  0  0
  2 16  2  0  0  0  0
  3 10  1  0  0  0  0
  3 17  1  0  0  0  0
  4  1  1  0  0  0  0
  4 12  1  0  0  0  0
  5 11  1  0  0  0  0
  7 15  1  0  0  0  0
  7 27  1  0  0  0  0
  8 11  1  0  0  0  0
  8  6  2  0  0  0  0
  9  7  1  0  0  0  0
 10 22  1  0  0  0  0
 11 28  1  0  0  0  0
 12 27  1  0  0  0  0
 12  8  1  0  0  0  0
 13  2  1  0  0  0  0
 14  9  1  0  0  0  0
 14 23  1  0  0  0  0
 17 26  1  0  0  0  0
 17 20  1  0  0  0  0
 18 13  2  0  0  0  0
 19  2  1  0  0  0  0
 20  4  1  0  0  0  0
 21 10  2  0  0  0  0
 22 20  1  0  0  0  0
 22  9  1  0  0  0  0
 23 15  1  0  0  0  0
 25 18  1  0  0  0  0
 25 26  1  0  0  0  0
 26 19  2  0  0  0  0
 27 24  1  0  0  0  0
 30 29  1  0  0  0  0
 30 28  1  0  0  0  0
M  END
>  <MODEL>
1

>  <REMARK>
 VINA RESULT:      -8.9      0.000      0.000
  Name = 
  2 active torsions:
  status: ('A' for Active; 'I' for Inactive)
    1  A    between atoms: C_11  and  C_28
    2  A    between atoms: C_28  and  C_30
                            x       y       z     vdW  Elec       q    Type
                         _______ _______ _______ _____ _____    ______ ____

>  <TORSDO>
F 2

$$$$
=
 OpenBabel11112416253D

 30 35  0  0  1  0  0  0  0  0999 V2000
  187.0030  177.1620  143.8940 C   0  0  2  0  0  3  0  0  0  0  0  0
  184.9700  178.1710  142.6360 C   0  0  0  0  0  0  0  0  0  0  0  0
  188.0880  175.1390  140.7410 N   0  0  0  0  0  2  0  0  0  0  0  0
  188.0800  176.0790  143.7290 C   0  0  2  0  0  3  0  0  0  0  0  0
  186.1140  176.7560  144.9040 O   0  0  0  0  0  0  0  0  0  0  0  0
  188.2420  175.6290  147.3870 O   0  0  0  0  0  0  0  0  0  0  0  0
  191.1860  175.5360  144.2410 C   0  0  2  0  0  3  0  0  0  0  0  0
  187.9300  176.0670  146.2890 C   0  0  0  0  0  0  0  0  0  0  0  0
  190.5170  174.5680  143.3700 N   0  0  2  0  0  0  0  0  0  0  0  0
  189.2030  174.4500  141.2720 C   0  0  0  0  0  0  0  0  0  0  0  0
  186.7570  177.0060  146.1280 C   0  0  2  0  0  3  0  0  0  0  0  0
  188.7680  175.7300  145.0820 C   0  0  2  0  0  3  0  0  0  0  0  0
  184.3470  178.5660  141.4130 N   0  0  0  0  0  0  0  0  0  0  0  0
  191.5970  173.6810  142.9500 C   0  0  0  0  0  2  0  0  0  0  0  0
  192.3000  174.8100  144.9560 C   0  0  0  0  0  2  0  0  0  0  0  0
  184.4460  178.5110  143.7290 O   0  0  0  0  0  0  0  0  0  0  0  0
  188.1520  176.4950  141.2620 C   0  0  2  0  0  3  0  0  0  0  0  0
  184.8160  178.2170  140.2570 C   0  0  0  0  0  3  0  0  0  0  0  0
  186.2480  177.4190  142.6050 C   0  0  0  0  0  0  0  0  0  0  0  0
  189.0080  176.4190  142.5390 C   0  0  2  0  0  3  0  0  0  0  0  0
  189.4890  173.2700  140.9390 O   0  0  0  0  0  0  0  0  0  0  0  0
  190.0150  175.2920  142.1960 C   0  0  1  0  0  3  0  0  0  0  0  0
  192.6180  173.6310  144.0680 C   0  0  0  0  0  2  0  0  0  0  0  0
  190.3680  177.6990  145.2070 C   0  0  0  0  0  1  0  0  0  0  0  0
  186.0190  177.3280  140.1180 C   0  0  0  0  0  2  0  0  0  0  0  0
  186.7840  177.1140  141.4020 C   0  0  0  0  0  0  0  0  0  0  0  0
  190.2290  176.1850  145.2470 C   0  0  2  0  0  3  0  0  0  0  0  0
  185.7570  176.8590  147.2660 C   0  0  0  0  0  2  0  0  0  0  0  0
  185.8510  179.3300  147.3530 C   0  0  0  0  0  1  0  0  0  0  0  0
  184.9360  178.1260  147.4080 C   0  0  0  0  0  2  0  0  0  0  0  0
  1 19  1  6  0  0  0
  1  5  1  0  0  0  0
  2 16  2  0  0  0  0
  3 17  1  0  0  0  0
  3 10  1  0  0  0  0
  4  1  1  0  0  0  0
  4 12  1  0  0  0  0
  5 11  1  0  0  0  0
  7 15  1  0  0  0  0
  7 27  1  0  0  0  0
  8  6  2  0  0  0  0
  9  7  1  0  0  0  0
 10 22  1  0  0  0  0
 11  8  1  0  0  0  0
 11 28  1  0  0  0  0
 12 27  1  0  0  0  0
 12  8  1  0  0  0  0
 13  2  1  0  0  0  0
 14  9  1  0  0  0  0
 14 23  1  0  0  0  0
 17 26  1  0  0  0  0
 17 20  1  0  0  0  0
 18 13  2  0  0  0  0
 19  2  1  0  0  0  0
 20  4  1  0  0  0  0
 21 10  2  0  0  0  0
 22 20  1  0  0  0  0
 22  9  1  0  0  0  0
 23 15  1  0  0  0  0
 24 27  1  0  0  0  0
 25 18  1  0  0  0  0
 25 26  1  0  0  0  0
 26 19  2  0  0  0  0
 28 30  1  0  0  0  0
 29 30  1  0  0  0  0
M  END
>  <MODEL>
2

>  <REMARK>
 VINA RESULT:      -8.5      2.211      5.771
  Name = 
  2 active torsions:
  status: ('A' for Active; 'I' for Inactive)
    1  A    between atoms: C_11  and  C_28
    2  A    between atoms: C_28  and  C_30
                            x       y       z     vdW  Elec       q    Type
                         _______ _______ _______ _____ _____    ______ ____

>  <TORSDO>
F 2

$$$$
=
 OpenBabel11112416253D

 30 35  0  0  1  0  0  0  0  0999 V2000
  186.4250  177.2360  143.6050 C   0  0  2  0  0  3  0  0  0  0  0  0
  184.9940  178.3910  145.4350 C   0  0  0  0  0  0  0  0  0  0  0  0
  189.6240  177.4370  145.8280 N   0  0  0  0  0  2  0  0  0  0  0  0
  187.8920  176.9250  143.2690 C   0  0  2  0  0  3  0  0  0  0  0  0
  185.9560  178.2010  142.6970 O   0  0  0  0  0  0  0  0  0  0  0  0
  187.1260  177.0280  139.6610 O   0  0  0  0  0  0  0  0  0  0  0  0
  189.7550  174.6190  142.0810 C   0  0  2  0  0  3  0  0  0  0  0  0
  186.9810  177.0520  140.8750 C   0  0  0  0  0  0  0  0  0  0  0  0
  190.4630  175.7090  142.7540 N   0  0  2  0  0  0  0  0  0  0  0  0
  190.5690  176.8780  144.9370 C   0  0  0  0  0  0  0  0  0  0  0  0
  185.6860  177.5230  141.4960 C   0  0  2  0  0  3  0  0  0  0  0  0
  188.0770  176.5360  141.7720 C   0  0  2  0  0  3  0  0  0  0  0  0
  184.7620  178.7000  146.8100 N   0  0  0  0  0  0  0  0  0  0  0  0
  191.8590  175.2890  142.7130 C   0  0  0  0  0  2  0  0  0  0  0  0
  190.6690  174.0800  141.0060 C   0  0  0  0  0  2  0  0  0  0  0  0
  184.0950  178.6430  144.5910 O   0  0  0  0  0  0  0  0  0  0  0  0
  188.4130  176.6430  145.7000 C   0  0  2  0  0  3  0  0  0  0  0  0
  185.6610  178.5000  147.7210 C   0  0  0  0  0  3  0  0  0  0  0  0
  186.2570  177.7310  145.0280 C   0  0  0  0  0  0  0  0  0  0  0  0
  188.4940  175.9640  144.3210 C   0  0  2  0  0  3  0  0  0  0  0  0
  191.7600  177.2840  144.8740 O   0  0  0  0  0  0  0  0  0  0  0  0
  190.0180  175.7360  144.1530 C   0  0  1  0  0  3  0  0  0  0  0  0
  192.0570  174.4590  141.4610 C   0  0  0  0  0  2  0  0  0  0  0  0
  187.3050  174.1210  141.9130 C   0  0  0  0  0  1  0  0  0  0  0  0
  187.0310  177.9770  147.3920 C   0  0  0  0  0  2  0  0  0  0  0  0
  187.1720  177.4500  145.9830 C   0  0  0  0  0  0  0  0  0  0  0  0
  188.4170  175.0640  141.4820 C   0  0  2  0  0  3  0  0  0  0  0  0
  184.9120  178.4390  140.5590 C   0  0  0  0  0  2  0  0  0  0  0  0
  182.6010  178.2290  141.4170 C   0  0  0  0  0  1  0  0  0  0  0  0
  183.5360  177.8640  140.2840 C   0  0  0  0  0  2  0  0  0  0  0  0
  1  5  1  6  0  0  0
  1 19  1  0  0  0  0
  2 13  1  0  0  0  0
  4  1  1  0  0  0  0
  4 20  1  0  0  0  0
  6  8  2  0  0  0  0
  7  9  1  0  0  0  0
  8 11  1  0  0  0  0
  8 12  1  0  0  0  0
  9 22  1  0  0  0  0
 10  3  1  0  0  0  0
 11  5  1  0  0  0  0
 12  4  1  0  0  0  0
 13 18  2  0  0  0  0
 14  9  1  0  0  0  0
 15 23  1  0  0  0  0
 15  7  1  0  0  0  0
 16  2  2  0  0  0  0
 17  3  1  0  0  0  0
 17 26  1  0  0  0  0
 19  2  1  0  0  0  0
 19 26  2  0  0  0  0
 20 17  1  0  0  0  0
 21 10  2  0  0  0  0
 22 20  1  0  0  0  0
 22 10  1  0  0  0  0
 23 14  1  0  0  0  0
 25 18  1  0  0  0  0
 26 25  1  0  0  0  0
 27 12  1  0  0  0  0
 27 24  1  0  0  0  0
 27  7  1  0  0  0  0
 28 11  1  0  0  0  0
 30 28  1  0  0  0  0
 30 29  1  0  0  0  0
M  END
>  <MODEL>
3

>  <REMARK>
 VINA RESULT:      -8.3      2.307      7.130
  Name = 
  2 active torsions:
  status: ('A' for Active; 'I' for Inactive)
    1  A    between atoms: C_11  and  C_28
    2  A    between atoms: C_28  and  C_30
                            x       y       z     vdW  Elec       q    Type
                         _______ _______ _______ _____ _____    ______ ____

>  <TORSDO>
F 2

$$$$
=
 OpenBabel11112416253D

 30 35  0  0  1  0  0  0  0  0999 V2000
  189.9690  176.0100  143.9490 C   0  0  2  0  0  3  0  0  0  0  0  0
  191.8900  175.5250  145.6240 C   0  0  0  0  0  0  0  0  0  0  0  0
  187.5390  176.9690  146.8460 N   0  0  0  0  0  2  0  0  0  0  0  0
  188.4600  176.2980  143.9280 C   0  0  2  0  0  3  0  0  0  0  0  0
  190.1860  174.7330  143.4050 O   0  0  0  0  0  0  0  0  0  0  0  0
  188.1710  174.7460  140.5930 O   0  0  0  0  0  0  0  0  0  0  0  0
  186.2780  178.1270  142.4790 C   0  0  2  0  0  3  0  0  0  0  0  0
  188.6560  175.1790  141.6290 C   0  0  0  0  0  0  0  0  0  0  0  0
  185.8190  177.4490  143.6920 N   0  0  2  0  0  0  0  0  0  0  0  0
  186.3670  177.2240  146.0990 C   0  0  0  0  0  0  0  0  0  0  0  0
  190.0850  174.8690  142.0100 C   0  0  2  0  0  3  0  0  0  0  0  0
  187.8470  176.0960  142.5110 C   0  0  2  0  0  3  0  0  0  0  0  0
  192.5110  175.7500  146.8910 N   0  0  0  0  0  0  0  0  0  0  0  0
  184.4580  177.9440  143.8690 C   0  0  0  0  0  2  0  0  0  0  0  0
  185.0830  178.2910  141.5710 C   0  0  0  0  0  2  0  0  0  0  0  0
  192.5180  174.8890  144.7380 O   0  0  0  0  0  0  0  0  0  0  0  0
  188.6440  177.5410  146.0930 C   0  0  2  0  0  3  0  0  0  0  0  0
  191.9030  176.3660  147.8550 C   0  0  0  0  0  3  0  0  0  0  0  0
  190.5470  176.0890  145.3480 C   0  0  0  0  0  0  0  0  0  0  0  0
  188.1580  177.6400  144.6360 C   0  0  2  0  0  3  0  0  0  0  0  0
  185.2180  176.9340  146.5260 O   0  0  0  0  0  0  0  0  0  0  0  0
  186.6440  177.9220  144.8110 C   0  0  1  0  0  3  0  0  0  0  0  0
  183.8920  178.2430  142.4950 C   0  0  0  0  0  2  0  0  0  0  0  0
  188.5670  178.3000  141.4730 C   0  0  0  0  0  1  0  0  0  0  0  0
  190.4830  176.8420  147.7300 C   0  0  0  0  0  2  0  0  0  0  0  0
  189.9350  176.7960  146.3240 C   0  0  0  0  0  0  0  0  0  0  0  0
  187.4020  177.3670  141.7670 C   0  0  2  0  0  3  0  0  0  0  0  0
  190.5850  173.5970  141.3390 C   0  0  0  0  0  2  0  0  0  0  0  0
  189.6910  171.5410  142.3850 C   0  0  0  0  0  1  0  0  0  0  0  0
  190.8430  172.5240  142.3780 C   0  0  0  0  0  2  0  0  0  0  0  0
  1  5  1  1  0  0  0
  1 19  1  0  0  0  0
  2 13  1  0  0  0  0
  4  1  1  0  0  0  0
  4 20  1  0  0  0  0
  6  8  2  0  0  0  0
  7  9  1  0  0  0  0
  8 11  1  0  0  0  0
  8 12  1  0  0  0  0
  9 14  1  0  0  0  0
  9 22  1  0  0  0  0
 10 21  2  0  0  0  0
 10  3  1  0  0  0  0
 11  5  1  0  0  0  0
 12  4  1  0  0  0  0
 13 18  2  0  0  0  0
 15  7  1  0  0  0  0
 15 23  1  0  0  0  0
 16  2  2  0  0  0  0
 17 26  1  0  0  0  0
 17  3  1  0  0  0  0
 19  2  1  0  0  0  0
 19 26  2  0  0  0  0
 20 22  1  0  0  0  0
 20 17  1  0  0  0  0
 22 10  1  0  0  0  0
 23 14  1  0  0  0  0
 24 27  1  0  0  0  0
 25 18  1  0  0  0  0
 26 25  1  0  0  0  0
 27  7  1  0  0  0  0
 27 12  1  0  0  0  0
 28 11  1  0  0  0  0
 28 30  1  0  0  0  0
 30 29  1  0  0  0  0
M  END
>  <MODEL>
4

>  <REMARK>
 VINA RESULT:      -8.2      2.136      4.764
  Name = 
  2 active torsions:
  status: ('A' for Active; 'I' for Inactive)
    1  A    between atoms: C_11  and  C_28
    2  A    between atoms: C_28  and  C_30
                            x       y       z     vdW  Elec       q    Type
                         _______ _______ _______ _____ _____    ______ ____

>  <TORSDO>
F 2

$$$$
=
 OpenBabel11112416253D

 30 35  0  0  1  0  0  0  0  0999 V2000
  187.6770  175.9060  144.1240 C   0  0  2  0  0  3  0  0  0  0  0  0
  185.6450  177.3450  144.8520 C   0  0  0  0  0  0  0  0  0  0  0  0
  189.7030  176.9730  147.2820 N   0  0  0  0  0  2  0  0  0  0  0  0
  189.1490  175.6630  144.4910 C   0  0  2  0  0  3  0  0  0  0  0  0
  187.6310  176.5580  142.8800 O   0  0  0  0  0  0  0  0  0  0  0  0
  189.9140  174.7700  140.9940 O   0  0  0  0  0  0  0  0  0  0  0  0
  191.2980  173.3200  144.8090 C   0  0  2  0  0  3  0  0  0  0  0  0
  189.2890  175.0880  141.9960 C   0  0  0  0  0  0  0  0  0  0  0  0
  191.6890  174.6090  145.3830 N   0  0  2  0  0  0  0  0  0  0  0  0
  190.9190  176.3000  147.0240 C   0  0  0  0  0  0  0  0  0  0  0  0
  187.8620  175.5740  141.9030 C   0  0  2  0  0  3  0  0  0  0  0  0
  189.9200  174.9260  143.3560 C   0  0  2  0  0  3  0  0  0  0  0  0
  184.8800  177.9690  145.8850 N   0  0  0  0  0  0  0  0  0  0  0  0
  192.9750  174.3290  146.0120 C   0  0  0  0  0  2  0  0  0  0  0  0
  192.5600  172.6170  144.3720 C   0  0  0  0  0  2  0  0  0  0  0  0
  185.1690  177.2850  143.6880 O   0  0  0  0  0  0  0  0  0  0  0  0
  188.6350  176.0590  146.9080 C   0  0  2  0  0  3  0  0  0  0  0  0
  185.3300  178.0950  147.0940 C   0  0  0  0  0  3  0  0  0  0  0  0
  186.9540  176.7270  145.1720 C   0  0  0  0  0  0  0  0  0  0  0  0
  189.2570  175.0640  145.9130 C   0  0  2  0  0  3  0  0  0  0  0  0
  192.0390  176.7890  147.3280 O   0  0  0  0  0  0  0  0  0  0  0  0
  190.7150  174.9480  146.4280 C   0  0  1  0  0  3  0  0  0  0  0  0
  193.6500  173.2310  145.2160 C   0  0  0  0  0  2  0  0  0  0  0  0
  189.1180  172.5630  143.8310 C   0  0  0  0  0  1  0  0  0  0  0  0
  186.7060  177.6400  147.4860 C   0  0  0  0  0  2  0  0  0  0  0  0
  187.3980  176.7890  146.4480 C   0  0  0  0  0  0  0  0  0  0  0  0
  190.3250  173.4680  143.6350 C   0  0  2  0  0  3  0  0  0  0  0  0
  187.5480  176.1430  140.5260 C   0  0  0  0  0  2  0  0  0  0  0  0
  185.6930  177.7470  140.2000 C   0  0  0  0  0  1  0  0  0  0  0  0
  187.1330  177.5960  140.6420 C   0  0  0  0  0  2  0  0  0  0  0  0
  1  5  1  6  0  0  0
  1  4  1  0  0  0  0
  1 19  1  0  0  0  0
  2 19  1  0  0  0  0
  2 13  1  0  0  0  0
  4 20  1  0  0  0  0
  6  8  2  0  0  0  0
  7  9  1  0  0  0  0
  8 12  1  0  0  0  0
  9 14  1  0  0  0  0
  9 22  1  0  0  0  0
 10  3  1  0  0  0  0
 10 21  2  0  0  0  0
 11  8  1  0  0  0  0
 11  5  1  0  0  0  0
 12 27  1  0  0  0  0
 12  4  1  0  0  0  0
 13 18  2  0  0  0  0
 15  7  1  0  0  0  0
 15 23  1  0  0  0  0
 16  2  2  0  0  0  0
 17  3  1  0  0  0  0
 18 25  1  0  0  0  0
 19 26  2  0  0  0  0
 20 22  1  0  0  0  0
 20 17  1  0  0  0  0
 22 10  1  0  0  0  0
 23 14  1  0  0  0  0
 26 17  1  0  0  0  0
 26 25  1  0  0  0  0
 27 24  1  0  0  0  0
 27  7  1  0  0  0  0
 28 30  1  0  0  0  0
 28 11  1  0  0  0  0
 29 30  1  0  0  0  0
M  END
>  <MODEL>
5

>  <REMARK>
 VINA RESULT:      -8.0      2.288      6.893
  Name = 
  2 active torsions:
  status: ('A' for Active; 'I' for Inactive)
    1  A    between atoms: C_11  and  C_28
    2  A    between atoms: C_28  and  C_30
                            x       y       z     vdW  Elec       q    Type
                         _______ _______ _______ _____ _____    ______ ____

>  <TORSDO>
F 2

$$$$
=
 OpenBabel11112416253D

 30 35  0  0  1  0  0  0  0  0999 V2000
  189.6730  175.0460  143.7870 C   0  0  2  0  0  3  0  0  0  0  0  0
  190.7860  173.0360  142.5820 C   0  0  0  0  0  0  0  0  0  0  0  0
  187.5350  175.8910  140.6360 N   0  0  0  0  0  2  0  0  0  0  0  0
  188.7740  176.2560  143.4900 C   0  0  2  0  0  3  0  0  0  0  0  0
  190.9620  175.5150  144.0940 O   0  0  0  0  0  0  0  0  0  0  0  0
  190.3290  178.1400  146.2550 O   0  0  0  0  0  0  0  0  0  0  0  0
  186.3200  177.9100  144.6920 C   0  0  2  0  0  3  0  0  0  0  0  0
  190.0590  177.2300  145.4840 C   0  0  0  0  0  0  0  0  0  0  0  0
  186.6350  178.1900  143.2910 N   0  0  2  0  0  0  0  0  0  0  0  0
  186.8680  177.0470  141.1030 C   0  0  0  0  0  0  0  0  0  0  0  0
  190.9140  175.9850  145.4170 C   0  0  2  0  0  3  0  0  0  0  0  0
  188.8150  177.3090  144.6370 C   0  0  2  0  0  3  0  0  0  0  0  0
  190.7410  172.0150  141.5840 N   0  0  0  0  0  0  0  0  0  0  0  0
  185.5950  179.1300  142.8860 C   0  0  0  0  0  2  0  0  0  0  0  0
  185.7410  179.1710  145.2880 C   0  0  0  0  0  2  0  0  0  0  0  0
  191.7010  173.0090  143.4460 O   0  0  0  0  0  0  0  0  0  0  0  0
  187.5510  174.9470  141.7420 C   0  0  2  0  0  3  0  0  0  0  0  0
  189.8480  172.0090  140.6460 C   0  0  0  0  0  3  0  0  0  0  0  0
  189.7310  174.0770  142.6240 C   0  0  0  0  0  0  0  0  0  0  0  0
  187.3770  175.7860  143.0200 C   0  0  2  0  0  3  0  0  0  0  0  0
  186.6060  178.0240  140.3530 O   0  0  0  0  0  0  0  0  0  0  0  0
  186.4650  176.9420  142.5350 C   0  0  1  0  0  3  0  0  0  0  0  0
  185.2000  179.9370  144.1060 C   0  0  0  0  0  2  0  0  0  0  0  0
  187.2210  176.1670  146.2510 C   0  0  0  0  0  1  0  0  0  0  0  0
  188.8250  173.1010  140.5080 C   0  0  0  0  0  2  0  0  0  0  0  0
  188.7510  174.0350  141.6930 C   0  0  0  0  0  0  0  0  0  0  0  0
  187.5420  177.4440  145.4910 C   0  0  2  0  0  3  0  0  0  0  0  0
  192.3280  176.2450  145.9160 C   0  0  0  0  0  2  0  0  0  0  0  0
  191.4790  175.2480  148.0150 C   0  0  0  0  0  1  0  0  0  0  0  0
  192.6570  175.3130  147.0660 C   0  0  0  0  0  2  0  0  0  0  0  0
  1 19  1  6  0  0  0
  1  5  1  0  0  0  0
  2 19  1  0  0  0  0
  2 16  2  0  0  0  0
  3 10  1  0  0  0  0
  3 17  1  0  0  0  0
  4  1  1  0  0  0  0
  4 12  1  0  0  0  0
  5 11  1  0  0  0  0
  7 15  1  0  0  0  0
  7 27  1  0  0  0  0
  8  6  2  0  0  0  0
  9  7  1  0  0  0  0
 10 22  1  0  0  0  0
 11  8  1  0  0  0  0
 11 28  1  0  0  0  0
 12  8  1  0  0  0  0
 12 27  1  0  0  0  0
 13  2  1  0  0  0  0
 14  9  1  0  0  0  0
 14 23  1  0  0  0  0
 17 20  1  0  0  0  0
 18 13  2  0  0  0  0
 20  4  1  0  0  0  0
 21 10  2  0  0  0  0
 22 20  1  0  0  0  0
 22  9  1  0  0  0  0
 23 15  1  0  0  0  0
 25 18  1  0  0  0  0
 25 26  1  0  0  0  0
 26 17  1  0  0  0  0
 26 19  2  0  0  0  0
 27 24  1  0  0  0  0
 28 30  1  0  0  0  0
 30 29  1  0  0  0  0
M  END
>  <MODEL>
6

>  <REMARK>
 VINA RESULT:      -8.0      0.925      1.064
  Name = 
  2 active torsions:
  status: ('A' for Active; 'I' for Inactive)
    1  A    between atoms: C_11  and  C_28
    2  A    between atoms: C_28  and  C_30
                            x       y       z     vdW  Elec       q    Type
                         _______ _______ _______ _____ _____    ______ ____

>  <TORSDO>
F 2

$$$$
=
 OpenBabel11112416253D

 30 35  0  0  1  0  0  0  0  0999 V2000
  190.5880  175.2090  144.5070 C   0  0  2  0  0  3  0  0  0  0  0  0
  191.8600  173.7970  142.7410 C   0  0  0  0  0  0  0  0  0  0  0  0
  188.1460  176.5960  141.8000 N   0  0  0  0  0  2  0  0  0  0  0  0
  189.5250  176.3150  144.5980 C   0  0  2  0  0  3  0  0  0  0  0  0
  191.8260  175.7490  144.8960 O   0  0  0  0  0  0  0  0  0  0  0  0
  191.0180  177.5440  147.7400 O   0  0  0  0  0  0  0  0  0  0  0  0
  186.9710  177.2000  146.3010 C   0  0  2  0  0  3  0  0  0  0  0  0
  190.8130  176.8590  146.7490 C   0  0  0  0  0  0  0  0  0  0  0  0
  187.1500  177.9050  145.0300 N   0  0  2  0  0  0  0  0  0  0  0  0
  187.3730  177.4680  142.6000 C   0  0  0  0  0  0  0  0  0  0  0  0
  191.8110  175.8170  146.3000 C   0  0  2  0  0  3  0  0  0  0  0  0
  189.5120  176.9970  145.9990 C   0  0  2  0  0  3  0  0  0  0  0  0
  191.8750  173.1020  141.4930 N   0  0  0  0  0  0  0  0  0  0  0  0
  185.9750  178.7640  144.9450 C   0  0  0  0  0  2  0  0  0  0  0  0
  186.2810  178.1480  147.2520 C   0  0  0  0  0  2  0  0  0  0  0  0
  192.8290  173.6570  143.5320 O   0  0  0  0  0  0  0  0  0  0  0  0
  188.3590  175.3910  142.5860 C   0  0  2  0  0  3  0  0  0  0  0  0
  190.9260  173.2340  140.6200 C   0  0  0  0  0  3  0  0  0  0  0  0
  190.6870  174.6250  143.1130 C   0  0  0  0  0  0  0  0  0  0  0  0
  188.1690  175.8040  144.0560 C   0  0  2  0  0  3  0  0  0  0  0  0
  186.9380  178.5690  142.1720 O   0  0  0  0  0  0  0  0  0  0  0  0
  187.0870  176.9090  143.9520 C   0  0  1  0  0  3  0  0  0  0  0  0
  185.5670  179.1320  146.3570 C   0  0  0  0  0  2  0  0  0  0  0  0
  188.1910  175.2340  147.2630 C   0  0  0  0  0  1  0  0  0  0  0  0
  189.7670  174.1660  140.8340 C   0  0  0  0  0  2  0  0  0  0  0  0
  189.6580  174.7090  142.2390 C   0  0  0  0  0  0  0  0  0  0  0  0
  188.2950  176.7060  146.8930 C   0  0  2  0  0  3  0  0  0  0  0  0
  193.2120  176.1230  146.8090 C   0  0  0  0  0  2  0  0  0  0  0  0
  195.2730  175.2390  145.7630 C   0  0  0  0  0  1  0  0  0  0  0  0
  194.1710  176.2700  145.6430 C   0  0  0  0  0  2  0  0  0  0  0  0
  1 19  1  6  0  0  0
  1  4  1  0  0  0  0
  1  5  1  0  0  0  0
  2 19  1  0  0  0  0
  2 16  2  0  0  0  0
  3 17  1  0  0  0  0
  3 10  1  0  0  0  0
  4 12  1  0  0  0  0
  5 11  1  0  0  0  0
  7 27  1  0  0  0  0
  7 15  1  0  0  0  0
  8  6  2  0  0  0  0
  9  7  1  0  0  0  0
 10 22  1  0  0  0  0
 11  8  1  0  0  0  0
 11 28  1  0  0  0  0
 12  8  1  0  0  0  0
 12 27  1  0  0  0  0
 13  2  1  0  0  0  0
 14  9  1  0  0  0  0
 14 23  1  0  0  0  0
 17 20  1  0  0  0  0
 18 25  1  0  0  0  0
 18 13  2  0  0  0  0
 20  4  1  0  0  0  0
 21 10  2  0  0  0  0
 22 20  1  0  0  0  0
 22  9  1  0  0  0  0
 23 15  1  0  0  0  0
 25 26  1  0  0  0  0
 26 17  1  0  0  0  0
 26 19  2  0  0  0  0
 27 24  1  0  0  0  0
 30 29  1  0  0  0  0
 30 28  1  0  0  0  0
M  END
>  <MODEL>
7

>  <REMARK>
 VINA RESULT:      -8.0      1.365      1.582
  Name = 
  2 active torsions:
  status: ('A' for Active; 'I' for Inactive)
    1  A    between atoms: C_11  and  C_28
    2  A    between atoms: C_28  and  C_30
                            x       y       z     vdW  Elec       q    Type
                         _______ _______ _______ _____ _____    ______ ____

>  <TORSDO>
F 2

$$$$
=
 OpenBabel11112416253D

 30 35  0  0  1  0  0  0  0  0999 V2000
  190.4010  175.7490  143.5730 C   0  0  2  0  0  3  0  0  0  0  0  0
  192.6760  175.0880  144.6310 C   0  0  0  0  0  0  0  0  0  0  0  0
  188.9630  176.7870  147.0470 N   0  0  0  0  0  2  0  0  0  0  0  0
  188.9720  176.1390  143.9830 C   0  0  2  0  0  3  0  0  0  0  0  0
  190.3610  174.4760  142.9800 O   0  0  0  0  0  0  0  0  0  0  0  0
  187.6430  174.7050  140.8540 O   0  0  0  0  0  0  0  0  0  0  0  0
  186.6100  178.1520  143.2260 C   0  0  2  0  0  3  0  0  0  0  0  0
  188.4300  175.0740  141.7140 C   0  0  0  0  0  0  0  0  0  0  0  0
  186.4630  177.4720  144.5140 N   0  0  2  0  0  0  0  0  0  0  0  0
  187.6490  177.1430  146.6650 C   0  0  0  0  0  0  0  0  0  0  0  0
  189.8820  174.6580  141.6710 C   0  0  2  0  0  3  0  0  0  0  0  0
  187.9710  176.0190  142.7950 C   0  0  2  0  0  3  0  0  0  0  0  0
  193.6430  175.2350  145.6720 N   0  0  0  0  0  0  0  0  0  0  0  0
  185.2470  178.0530  145.0730 C   0  0  0  0  0  2  0  0  0  0  0  0
  185.2220  178.4210  142.6940 C   0  0  0  0  0  2  0  0  0  0  0  0
  192.9800  174.4360  143.5990 O   0  0  0  0  0  0  0  0  0  0  0  0
  189.8490  177.3050  146.0170 C   0  0  2  0  0  3  0  0  0  0  0  0
  193.3780  175.8620  146.7740 C   0  0  0  0  0  3  0  0  0  0  0  0
  191.3540  175.7490  144.7510 C   0  0  0  0  0  0  0  0  0  0  0  0
  188.9810  177.4780  144.7580 C   0  0  2  0  0  3  0  0  0  0  0  0
  186.6490  176.9190  147.3980 O   0  0  0  0  0  0  0  0  0  0  0  0
  187.6020  177.8560  145.3570 C   0  0  1  0  0  3  0  0  0  0  0  0
  184.3400  178.4280  143.9180 C   0  0  0  0  0  2  0  0  0  0  0  0
  188.5280  178.1970  141.6140 C   0  0  0  0  0  1  0  0  0  0  0  0
  192.0190  176.4370  147.0600 C   0  0  0  0  0  2  0  0  0  0  0  0
  191.0950  176.4680  145.8670 C   0  0  0  0  0  0  0  0  0  0  0  0
  187.4280  177.3380  142.2190 C   0  0  2  0  0  3  0  0  0  0  0  0
  190.0780  173.3750  140.8760 C   0  0  0  0  0  2  0  0  0  0  0  0
  190.0120  173.4710  138.4050 C   0  0  0  0  0  1  0  0  0  0  0  0
  190.8880  173.6530  139.6250 C   0  0  0  0  0  2  0  0  0  0  0  0
  1  5  1  1  0  0  0
  1  4  1  0  0  0  0
  1 19  1  0  0  0  0
  2 19  1  0  0  0  0
  2 13  1  0  0  0  0
  4 20  1  0  0  0  0
  6  8  2  0  0  0  0
  7  9  1  0  0  0  0
  8 12  1  0  0  0  0
  9 14  1  0  0  0  0
  9 22  1  0  0  0  0
 10  3  1  0  0  0  0
 10 21  2  0  0  0  0
 11  8  1  0  0  0  0
 11  5  1  0  0  0  0
 12  4  1  0  0  0  0
 13 18  2  0  0  0  0
 15  7  1  0  0  0  0
 15 23  1  0  0  0  0
 16  2  2  0  0  0  0
 17  3  1  0  0  0  0
 18 25  1  0  0  0  0
 19 26  2  0  0  0  0
 20 22  1  0  0  0  0
 20 17  1  0  0  0  0
 22 10  1  0  0  0  0
 23 14  1  0  0  0  0
 24 27  1  0  0  0  0
 26 17  1  0  0  0  0
 26 25  1  0  0  0  0
 27 12  1  0  0  0  0
 27  7  1  0  0  0  0
 28 11  1  0  0  0  0
 29 30  1  0  0  0  0
 30 28  1  0  0  0  0
M  END
>  <MODEL>
8

>  <REMARK>
 VINA RESULT:      -7.6      2.097      4.911
  Name = 
  2 active torsions:
  status: ('A' for Active; 'I' for Inactive)
    1  A    between atoms: C_11  and  C_28
    2  A    between atoms: C_28  and  C_30
                            x       y       z     vdW  Elec       q    Type
                         _______ _______ _______ _____ _____    ______ ____

>  <TORSDO>
F 2

$$$$
=
 OpenBabel11112416253D

 30 35  0  0  1  0  0  0  0  0999 V2000
  191.6000  175.4210  142.6100 C   0  0  2  0  0  3  0  0  0  0  0  0
  194.1570  175.2960  142.1850 C   0  0  0  0  0  0  0  0  0  0  0  0
  192.1590  176.3020  146.3690 N   0  0  0  0  0  2  0  0  0  0  0  0
  190.5960  175.5260  143.7680 C   0  0  2  0  0  3  0  0  0  0  0  0
  191.4920  174.1400  142.0410 O   0  0  0  0  0  0  0  0  0  0  0  0
  188.0700  173.7010  141.7900 O   0  0  0  0  0  0  0  0  0  0  0  0
  187.8680  176.9670  144.5950 C   0  0  2  0  0  3  0  0  0  0  0  0
  189.1110  174.2660  142.0990 C   0  0  0  0  0  0  0  0  0  0  0  0
  188.5970  176.3330  145.6940 N   0  0  2  0  0  0  0  0  0  0  0  0
  190.8140  176.3590  146.8020 C   0  0  0  0  0  0  0  0  0  0  0  0
  190.3430  174.1570  141.2320 C   0  0  2  0  0  3  0  0  0  0  0  0
  189.1520  175.1450  143.3230 C   0  0  2  0  0  3  0  0  0  0  0  0
  195.4870  175.6890  142.5280 N   0  0  0  0  0  0  0  0  0  0  0  0
  187.8090  176.6750  146.8730 C   0  0  0  0  0  2  0  0  0  0  0  0
  186.3980  176.9180  144.9380 C   0  0  0  0  0  2  0  0  0  0  0  0
  193.9600  174.6730  141.1090 O   0  0  0  0  0  0  0  0  0  0  0  0
  192.2010  176.9420  145.0640 C   0  0  2  0  0  3  0  0  0  0  0  0
  195.7590  176.2990  143.6380 C   0  0  0  0  0  3  0  0  0  0  0  0
  193.0240  175.6730  143.0640 C   0  0  0  0  0  0  0  0  0  0  0  0
  190.7670  176.8720  144.5100 C   0  0  2  0  0  3  0  0  0  0  0  0
  190.4570  175.9680  147.9450 O   0  0  0  0  0  0  0  0  0  0  0  0
  189.9100  176.9850  145.7960 C   0  0  1  0  0  3  0  0  0  0  0  0
  186.3620  176.8000  146.4420 C   0  0  0  0  0  2  0  0  0  0  0  0
  188.5160  177.3330  142.2020 C   0  0  0  0  0  1  0  0  0  0  0  0
  194.7060  176.5930  144.6680 C   0  0  0  0  0  2  0  0  0  0  0  0
  193.2910  176.3760  144.1880 C   0  0  0  0  0  0  0  0  0  0  0  0
  188.1320  176.2940  143.2440 C   0  0  2  0  0  3  0  0  0  0  0  0
  190.3150  172.9070  140.3650 C   0  0  0  0  0  2  0  0  0  0  0  0
  190.4620  170.8280  141.6980 C   0  0  0  0  0  1  0  0  0  0  0  0
  191.2560  171.8590  140.9260 C   0  0  0  0  0  2  0  0  0  0  0  0
  1  5  1  1  0  0  0
  1 19  1  0  0  0  0
  1  4  1  0  0  0  0
  2 13  1  0  0  0  0
  2 19  1  0  0  0  0
  3 10  1  0  0  0  0
  4 20  1  0  0  0  0
  6  8  2  0  0  0  0
  7 15  1  0  0  0  0
  7  9  1  0  0  0  0
  8 12  1  0  0  0  0
  9 22  1  0  0  0  0
  9 14  1  0  0  0  0
 10 21  2  0  0  0  0
 11  5  1  0  0  0  0
 11  8  1  0  0  0  0
 12  4  1  0  0  0  0
 13 18  2  0  0  0  0
 15 23  1  0  0  0  0
 16  2  2  0  0  0  0
 17  3  1  0  0  0  0
 18 25  1  0  0  0  0
 19 26  2  0  0  0  0
 20 17  1  0  0  0  0
 20 22  1  0  0  0  0
 22 10  1  0  0  0  0
 23 14  1  0  0  0  0
 24 27  1  0  0  0  0
 26 25  1  0  0  0  0
 26 17  1  0  0  0  0
 27 12  1  0  0  0  0
 27  7  1  0  0  0  0
 28 30  1  0  0  0  0
 28 11  1  0  0  0  0
 30 29  1  0  0  0  0
M  END
>  <MODEL>
9

>  <REMARK>
 VINA RESULT:      -7.4      2.778      5.375
  Name = 
  2 active torsions:
  status: ('A' for Active; 'I' for Inactive)
    1  A    between atoms: C_11  and  C_28
    2  A    between atoms: C_28  and  C_30
                            x       y       z     vdW  Elec       q    Type
                         _______ _______ _______ _____ _____    ______ ____

>  <TORSDO>
F 2

$$$$
