=
 OpenBabel11112416423D

 32 37  0  0  1  0  0  0  0  0999 V2000
  192.1770  171.6530  141.0050 C   0  0  0  0  0  2  0  0  0  0  0  0
  188.4040  175.1460  142.4590 C   0  0  2  0  0  3  0  0  0  0  0  0
  189.8980  175.7480  147.2490 C   0  0  0  0  0  2  0  0  0  0  0  0
  189.5440  177.2050  146.9630 C   0  0  0  0  0  2  0  0  0  0  0  0
  186.8060  176.8920  141.5670 C   0  0  1  0  0  3  0  0  0  0  0  0
  186.1690  178.2770  141.7570 C   0  0  1  0  0  3  0  0  0  0  0  0
  189.6230  173.3630  141.0450 C   0  0  2  0  0  3  0  0  0  0  0  0
  189.6230  173.2460  143.6080 C   0  0  0  0  0  2  0  0  0  0  0  0
  184.9750  178.2420  143.8450 C   0  0  2  0  0  3  0  0  0  0  0  0
  189.9920  171.1440  142.2420 C   0  0  0  0  0  2  0  0  0  0  0  0
  190.1770  175.0430  145.9250 C   0  0  0  0  0  2  0  0  0  0  0  0
  189.4310  174.7700  143.5430 C   0  0  2  0  0  3  0  0  0  0  0  0
  189.0430  175.2970  144.9250 C   0  0  2  0  0  3  0  0  0  0  0  0
  187.6600  177.1110  143.8820 C   0  0  1  0  0  3  0  0  0  0  0  0
  184.0190  178.0300  142.6840 C   0  0  0  0  0  2  0  0  0  0  0  0
  191.3470  172.4210  140.1670 O   0  0  0  0  0  0  0  0  0  0  0  0
  189.3160  172.5170  142.2910 C   0  0  2  0  0  3  0  0  0  0  0  0
  184.7530  178.1850  141.4240 N   0  0  0  0  0  2  0  0  0  0  0  0
  191.0050  173.4940  140.8560 O   0  0  0  0  0  0  0  0  0  0  0  0
  191.5180  171.2610  142.3370 C   0  0  1  0  0  3  0  0  0  0  0  0
  188.3960  177.2640  146.1530 O   0  0  0  0  0  0  0  0  0  0  0  0
  188.7730  176.8070  144.8750 C   0  0  1  0  0  3  0  0  0  0  0  0
  187.4240  178.4990  143.8770 O   0  0  0  0  0  0  0  0  0  0  0  0
  188.9680  174.7490  141.0860 C   0  0  0  0  0  2  0  0  0  0  0  0
  187.1440  176.7390  140.2220 O   0  0  0  0  0  1  0  0  0  0  0  0
  184.4080  179.2720  144.8010 C   0  0  0  0  0  1  0  0  0  0  0  0
  188.0280  176.6440  142.4680 C   0  0  1  0  0  3  0  0  0  0  0  0
  186.2210  178.7790  143.1900 C   0  0  1  0  0  3  0  0  0  0  0  0
  192.0920  170.0080  142.8080 N   0  0  0  0  0  0  0  0  0  0  0  0
  192.8720  169.9220  143.8420 C   0  0  0  0  0  0  0  0  0  0  0  0
  193.3840  168.6530  144.2300 N   0  0  0  0  0  1  0  0  0  0  0  0
  193.2350  171.0820  144.5880 N   0  0  0  0  0  1  0  0  0  0  0  0
  1 20  1  0  0  0  0
  2 24  1  6  0  0  0
  2 27  1  0  0  0  0
  2 12  1  0  0  0  0
  4  3  1  0  0  0  0
  5 25  1  6  0  0  0
  5  6  1  0  0  0  0
  5 27  1  0  0  0  0
  6 18  1  1  0  0  0
  6 28  1  0  0  0  0
  7 24  1  1  0  0  0
  7 17  1  0  0  0  0
  9 26  1  1  0  0  0
 10 20  1  0  0  0  0
 11  3  1  0  0  0  0
 12  8  1  1  0  0  0
 12 13  1  0  0  0  0
 13 11  1  1  0  0  0
 14 23  1  6  0  0  0
 14 22  1  0  0  0  0
 15  9  1  0  0  0  0
 16 19  1  0  0  0  0
 16  1  1  0  0  0  0
 17 10  1  6  0  0  0
 17  8  1  0  0  0  0
 18 15  1  0  0  0  0
 19  7  1  0  0  0  0
 20 29  1  6  0  0  0
 21  4  1  0  0  0  0
 22 13  1  0  0  0  0
 22 21  1  1  0  0  0
 27 14  1  0  0  0  0
 28  9  1  0  0  0  0
 28 23  1  0  0  0  0
 29 30  2  0  0  0  0
 30 31  1  0  0  0  0
 30 32  1  0  0  0  0
M  END
>  <MODEL>
1

>  <REMARK>
 VINA RESULT:      -8.6      0.000      0.000
  Name = 
  1 active torsions:
  status: ('A' for Active; 'I' for Inactive)
    1  A    between atoms: C_20  and  N_29
                            x       y       z     vdW  Elec       q    Type
                         _______ _______ _______ _____ _____    ______ ____

>  <TORSDO>
F 1

$$$$
=
 OpenBabel11112416423D

 32 37  0  0  1  0  0  0  0  0999 V2000
  194.9430  174.9730  146.0980 C   0  0  0  0  0  2  0  0  0  0  0  0
  190.1290  176.6010  144.4420 C   0  0  2  0  0  3  0  0  0  0  0  0
  189.9120  173.7940  140.2460 C   0  0  0  0  0  2  0  0  0  0  0  0
  188.4580  173.6250  140.6770 C   0  0  0  0  0  2  0  0  0  0  0  0
  187.9370  177.5810  145.2360 C   0  0  1  0  0  3  0  0  0  0  0  0
  186.4050  177.5660  145.1370 C   0  0  1  0  0  3  0  0  0  0  0  0
  192.3360  176.5730  145.7820 C   0  0  2  0  0  3  0  0  0  0  0  0
  192.2910  175.9460  143.2950 C   0  0  0  0  0  2  0  0  0  0  0  0
  185.8230  178.0920  142.8620 C   0  0  2  0  0  3  0  0  0  0  0  0
  194.4360  176.7810  144.3540 C   0  0  0  0  0  2  0  0  0  0  0  0
  190.7460  174.1620  141.4680 C   0  0  0  0  0  2  0  0  0  0  0  0
  190.8290  175.5510  143.5590 C   0  0  2  0  0  3  0  0  0  0  0  0
  190.1090  175.3310  142.2280 C   0  0  2  0  0  3  0  0  0  0  0  0
  187.9520  176.1360  143.2250 C   0  0  1  0  0  3  0  0  0  0  0  0
  185.6920  179.3230  143.7420 C   0  0  0  0  0  2  0  0  0  0  0  0
  193.9520  175.6340  146.8490 O   0  0  0  0  0  0  0  0  0  0  0  0
  192.9060  176.8420  144.3800 C   0  0  2  0  0  3  0  0  0  0  0  0
  185.9270  178.9440  145.1380 N   0  0  0  0  0  2  0  0  0  0  0  0
  192.7950  175.3470  146.2830 O   0  0  0  0  0  0  0  0  0  0  0  0
  194.9500  175.3590  144.6100 C   0  0  1  0  0  3  0  0  0  0  0  0
  187.9810  174.8310  141.2200 O   0  0  0  0  0  0  0  0  0  0  0  0
  188.6270  175.0060  142.4590 C   0  0  1  0  0  3  0  0  0  0  0  0
  186.5930  175.8150  143.4000 O   0  0  0  0  0  0  0  0  0  0  0  0
  190.8030  176.6120  145.8230 C   0  0  0  0  0  2  0  0  0  0  0  0
  188.2950  177.6920  146.5800 O   0  0  0  0  0  1  0  0  0  0  0  0
  184.5970  177.9500  141.9830 C   0  0  0  0  0  1  0  0  0  0  0  0
  188.6110  176.3580  144.5920 C   0  0  1  0  0  3  0  0  0  0  0  0
  185.8840  176.9540  143.8480 C   0  0  1  0  0  3  0  0  0  0  0  0
  196.2980  175.2070  144.0800 N   0  0  0  0  0  0  0  0  0  0  0  0
  196.5550  174.7070  142.9100 C   0  0  0  0  0  0  0  0  0  0  0  0
  197.9040  174.5990  142.4750 N   0  0  0  0  0  1  0  0  0  0  0  0
  195.5050  174.2510  142.0590 N   0  0  0  0  0  1  0  0  0  0  0  0
  1 16  1  0  0  0  0
  2 27  1  0  0  0  0
  2 24  1  1  0  0  0
  3  4  1  0  0  0  0
  3 11  1  0  0  0  0
  4 21  1  0  0  0  0
  5 25  1  1  0  0  0
  6 18  1  6  0  0  0
  6  5  1  0  0  0  0
  7 24  1  6  0  0  0
  7 19  1  0  0  0  0
  9 26  1  6  0  0  0
  9 15  1  0  0  0  0
  9 28  1  0  0  0  0
 10 17  1  0  0  0  0
 10 20  1  0  0  0  0
 12  8  1  6  0  0  0
 12  2  1  0  0  0  0
 13 11  1  1  0  0  0
 13 22  1  0  0  0  0
 13 12  1  0  0  0  0
 14 23  1  1  0  0  0
 14 27  1  0  0  0  0
 15 18  1  0  0  0  0
 17  8  1  6  0  0  0
 17  7  1  0  0  0  0
 19 16  1  0  0  0  0
 20 29  1  1  0  0  0
 20  1  1  0  0  0  0
 22 21  1  6  0  0  0
 22 14  1  0  0  0  0
 23 28  1  0  0  0  0
 27  5  1  0  0  0  0
 28  6  1  0  0  0  0
 30 29  2  0  0  0  0
 31 30  1  0  0  0  0
 32 30  1  0  0  0  0
M  END
>  <MODEL>
2

>  <REMARK>
 VINA RESULT:      -8.4      3.220      5.075
  Name = 
  1 active torsions:
  status: ('A' for Active; 'I' for Inactive)
    1  A    between atoms: C_20  and  N_29
                            x       y       z     vdW  Elec       q    Type
                         _______ _______ _______ _____ _____    ______ ____

>  <TORSDO>
F 1

$$$$
=
 OpenBabel11112416423D

 32 37  0  0  1  0  0  0  0  0999 V2000
  191.8340  171.8490  140.5140 C   0  0  0  0  0  2  0  0  0  0  0  0
  188.5920  175.1310  143.2110 C   0  0  2  0  0  3  0  0  0  0  0  0
  191.2630  175.2900  147.4980 C   0  0  0  0  0  2  0  0  0  0  0  0
  190.8640  176.7620  147.4550 C   0  0  0  0  0  2  0  0  0  0  0  0
  186.8390  176.9320  142.9290 C   0  0  1  0  0  3  0  0  0  0  0  0
  186.2860  178.2830  143.4080 C   0  0  1  0  0  3  0  0  0  0  0  0
  189.3920  173.5100  141.3680 C   0  0  2  0  0  3  0  0  0  0  0  0
  190.0440  173.1470  143.8220 C   0  0  0  0  0  2  0  0  0  0  0  0
  185.6630  178.0300  145.7180 C   0  0  2  0  0  3  0  0  0  0  0  0
  190.0310  171.1920  142.2110 C   0  0  0  0  0  2  0  0  0  0  0  0
  191.1890  174.7200  146.0850 C   0  0  0  0  0  2  0  0  0  0  0  0
  189.8580  174.6680  143.9570 C   0  0  2  0  0  3  0  0  0  0  0  0
  189.8400  175.0530  145.4360 C   0  0  2  0  0  3  0  0  0  0  0  0
  188.2560  176.9390  144.9600 C   0  0  1  0  0  3  0  0  0  0  0  0
  184.4410  177.9170  144.8230 C   0  0  0  0  0  2  0  0  0  0  0  0
  190.8260  172.6820  139.9940 O   0  0  0  0  0  0  0  0  0  0  0  0
  189.4030  172.5440  142.5630 C   0  0  2  0  0  3  0  0  0  0  0  0
  184.8310  178.2030  143.4390 N   0  0  0  0  0  2  0  0  0  0  0  0
  190.6820  173.6790  140.8470 O   0  0  0  0  0  0  0  0  0  0  0  0
  191.5320  171.3210  141.9250 C   0  0  1  0  0  3  0  0  0  0  0  0
  189.5480  176.8830  146.9730 O   0  0  0  0  0  0  0  0  0  0  0  0
  189.5830  176.5570  145.6030 C   0  0  1  0  0  3  0  0  0  0  0  0
  188.0420  178.3170  145.1500 O   0  0  0  0  0  0  0  0  0  0  0  0
  188.7840  174.8760  141.7080 C   0  0  0  0  0  2  0  0  0  0  0  0
  186.8220  176.9140  141.5340 O   0  0  0  0  0  1  0  0  0  0  0  0
  185.3690  178.9540  146.8820 C   0  0  0  0  0  1  0  0  0  0  0  0
  188.2470  176.6160  143.4610 C   0  0  1  0  0  3  0  0  0  0  0  0
  186.7060  178.6450  144.8220 C   0  0  1  0  0  3  0  0  0  0  0  0
  192.1930  170.0370  142.1110 N   0  0  0  0  0  0  0  0  0  0  0  0
  192.7850  169.6890  143.2130 C   0  0  0  0  0  0  0  0  0  0  0  0
  193.4020  168.4120  143.3040 N   0  0  0  0  0  1  0  0  0  0  0  0
  192.8360  170.5740  144.3310 N   0  0  0  0  0  1  0  0  0  0  0  0
  1 20  1  0  0  0  0
  2 24  1  6  0  0  0
  2 27  1  0  0  0  0
  2 12  1  0  0  0  0
  4  3  1  0  0  0  0
  5 25  1  6  0  0  0
  5  6  1  0  0  0  0
  5 27  1  0  0  0  0
  6 18  1  1  0  0  0
  6 28  1  0  0  0  0
  7 24  1  1  0  0  0
  7 17  1  0  0  0  0
  9 26  1  1  0  0  0
 11  3  1  0  0  0  0
 12  8  1  1  0  0  0
 12 13  1  0  0  0  0
 13 22  1  0  0  0  0
 13 11  1  6  0  0  0
 14 23  1  6  0  0  0
 14 22  1  0  0  0  0
 15  9  1  0  0  0  0
 16  1  1  0  0  0  0
 16 19  1  0  0  0  0
 17 10  1  6  0  0  0
 17  8  1  0  0  0  0
 18 15  1  0  0  0  0
 19  7  1  0  0  0  0
 20 29  1  6  0  0  0
 20 10  1  0  0  0  0
 21  4  1  0  0  0  0
 22 21  1  1  0  0  0
 27 14  1  0  0  0  0
 28 23  1  0  0  0  0
 28  9  1  0  0  0  0
 29 30  2  0  0  0  0
 30 31  1  0  0  0  0
 30 32  1  0  0  0  0
M  END
>  <MODEL>
3

>  <REMARK>
 VINA RESULT:      -8.0      1.102      1.216
  Name = 
  1 active torsions:
  status: ('A' for Active; 'I' for Inactive)
    1  A    between atoms: C_20  and  N_29
                            x       y       z     vdW  Elec       q    Type
                         _______ _______ _______ _____ _____    ______ ____

>  <TORSDO>
F 1

$$$$
=
 OpenBabel11112416423D

 32 37  0  0  1  0  0  0  0  0999 V2000
  197.9410  174.9040  141.7790 C   0  0  0  0  0  2  0  0  0  0  0  0
  193.2640  175.8120  144.2000 C   0  0  2  0  0  3  0  0  0  0  0  0
  190.3230  173.5160  140.7920 C   0  0  0  0  0  2  0  0  0  0  0  0
  189.5930  173.0370  142.0440 C   0  0  0  0  0  2  0  0  0  0  0  0
  192.2010  176.2800  146.4470 C   0  0  1  0  0  3  0  0  0  0  0  0
  191.0380  175.9990  147.4090 C   0  0  1  0  0  3  0  0  0  0  0  0
  195.7780  176.0290  143.6510 C   0  0  2  0  0  3  0  0  0  0  0  0
  194.0420  175.6970  141.7920 C   0  0  0  0  0  2  0  0  0  0  0  0
  189.0090  176.6690  146.3030 C   0  0  2  0  0  3  0  0  0  0  0  0
  196.2720  176.7790  141.2670 C   0  0  0  0  0  2  0  0  0  0  0  0
  191.7540  173.8850  141.1700 C   0  0  0  0  0  2  0  0  0  0  0  0
  193.2010  175.0150  142.8830 C   0  0  2  0  0  3  0  0  0  0  0  0
  191.7690  174.8240  142.3820 C   0  0  2  0  0  3  0  0  0  0  0  0
  190.8820  175.1030  144.7120 C   0  0  1  0  0  3  0  0  0  0  0  0
  189.4670  177.7470  147.2700 C   0  0  0  0  0  2  0  0  0  0  0  0
  197.7240  175.2830  143.1180 O   0  0  0  0  0  0  0  0  0  0  0  0
  195.1940  176.5580  142.3320 C   0  0  2  0  0  3  0  0  0  0  0  0
  190.6280  177.2570  148.0200 N   0  0  0  0  0  2  0  0  0  0  0  0
  196.5160  174.8580  143.4390 O   0  0  0  0  0  0  0  0  0  0  0  0
  196.8900  175.4540  140.8030 C   0  0  1  0  0  3  0  0  0  0  0  0
  189.5700  174.0660  143.0020 O   0  0  0  0  0  0  0  0  0  0  0  0
  190.8870  174.2100  143.4790 C   0  0  1  0  0  3  0  0  0  0  0  0
  190.0490  174.5230  145.6870 O   0  0  0  0  0  0  0  0  0  0  0  0
  194.7090  175.7850  144.7240 C   0  0  0  0  0  2  0  0  0  0  0  0
  193.3890  176.2970  147.1790 O   0  0  0  0  0  1  0  0  0  0  0  0
  187.5270  176.4100  146.4800 C   0  0  0  0  0  1  0  0  0  0  0  0
  192.2960  175.2820  145.2800 C   0  0  1  0  0  3  0  0  0  0  0  0
  189.7980  175.4550  146.7200 C   0  0  1  0  0  3  0  0  0  0  0  0
  197.4910  175.6110  139.4860 N   0  0  0  0  0  0  0  0  0  0  0  0
  196.8880  175.2920  138.3810 C   0  0  0  0  0  0  0  0  0  0  0  0
  197.5540  175.4840  137.1400 N   0  0  0  0  0  1  0  0  0  0  0  0
  195.5730  174.7410  138.3940 N   0  0  0  0  0  1  0  0  0  0  0  0
  1 16  1  0  0  0  0
  2 24  1  1  0  0  0
  2 27  1  0  0  0  0
  3 11  1  0  0  0  0
  3  4  1  0  0  0  0
  4 21  1  0  0  0  0
  5 25  1  1  0  0  0
  5  6  1  0  0  0  0
  6 18  1  6  0  0  0
  7 24  1  1  0  0  0
  8 17  1  0  0  0  0
  9 26  1  1  0  0  0
  9 28  1  0  0  0  0
  9 15  1  0  0  0  0
 12  8  1  6  0  0  0
 12  2  1  0  0  0  0
 13 11  1  6  0  0  0
 13 12  1  0  0  0  0
 13 22  1  0  0  0  0
 14 27  1  0  0  0  0
 14 23  1  1  0  0  0
 15 18  1  0  0  0  0
 16 19  1  0  0  0  0
 17 10  1  6  0  0  0
 17  7  1  0  0  0  0
 19  7  1  0  0  0  0
 20 29  1  6  0  0  0
 20 10  1  0  0  0  0
 20  1  1  0  0  0  0
 22 21  1  6  0  0  0
 22 14  1  0  0  0  0
 23 28  1  0  0  0  0
 27  5  1  0  0  0  0
 28  6  1  0  0  0  0
 30 32  1  0  0  0  0
 30 29  2  0  0  0  0
 31 30  1  0  0  0  0
M  END
>  <MODEL>
4

>  <REMARK>
 VINA RESULT:      -7.4      4.839      6.723
  Name = 
  1 active torsions:
  status: ('A' for Active; 'I' for Inactive)
    1  A    between atoms: C_20  and  N_29
                            x       y       z     vdW  Elec       q    Type
                         _______ _______ _______ _____ _____    ______ ____

>  <TORSDO>
F 1

$$$$
=
 OpenBabel11112416423D

 32 37  0  0  1  0  0  0  0  0999 V2000
  186.4920  176.0410  143.7860 C   0  0  0  0  0  2  0  0  0  0  0  0
  191.6300  175.5940  142.3860 C   0  0  2  0  0  3  0  0  0  0  0  0
  193.6230  176.7810  146.8760 C   0  0  0  0  0  2  0  0  0  0  0  0
  194.5960  175.6640  146.5130 C   0  0  0  0  0  2  0  0  0  0  0  0
  193.1930  174.4820  140.7380 C   0  0  1  0  0  3  0  0  0  0  0  0
  194.5310  173.7640  140.5100 C   0  0  1  0  0  3  0  0  0  0  0  0
  189.0690  175.7970  142.1280 C   0  0  2  0  0  3  0  0  0  0  0  0
  190.3230  177.1050  143.9440 C   0  0  0  0  0  2  0  0  0  0  0  0
  196.2840  175.2800  141.1570 C   0  0  2  0  0  3  0  0  0  0  0  0
  188.0800  177.9320  143.1050 C   0  0  0  0  0  2  0  0  0  0  0  0
  192.3320  176.5820  146.0880 C   0  0  0  0  0  2  0  0  0  0  0  0
  191.3600  175.9730  143.8540 C   0  0  2  0  0  3  0  0  0  0  0  0
  192.6320  176.3830  144.5980 C   0  0  2  0  0  3  0  0  0  0  0  0
  194.0340  175.0570  142.9960 C   0  0  1  0  0  3  0  0  0  0  0  0
  196.1030  175.2910  139.6490 C   0  0  0  0  0  2  0  0  0  0  0  0
  187.0230  175.3920  142.6540 O   0  0  0  0  0  0  0  0  0  0  0  0
  189.3610  177.1730  142.7480 C   0  0  2  0  0  3  0  0  0  0  0  0
  195.1220  174.2670  139.2760 N   0  0  0  0  0  2  0  0  0  0  0  0
  188.2530  175.0300  142.9690 O   0  0  0  0  0  0  0  0  0  0  0  0
  187.3170  177.2510  144.2480 C   0  0  1  0  0  3  0  0  0  0  0  0
  194.8790  175.7110  145.1360 O   0  0  0  0  0  0  0  0  0  0  0  0
  193.7120  175.3010  144.4640 C   0  0  1  0  0  3  0  0  0  0  0  0
  195.0410  174.0770  142.9100 O   0  0  0  0  0  0  0  0  0  0  0  0
  190.3420  175.0150  141.7810 C   0  0  0  0  0  2  0  0  0  0  0  0
  192.2040  173.8210  140.0090 O   0  0  0  0  0  1  0  0  0  0  0  0
  197.7550  175.1720  141.5020 C   0  0  0  0  0  1  0  0  0  0  0  0
  192.7950  174.5940  142.2200 C   0  0  1  0  0  3  0  0  0  0  0  0
  195.5590  174.0340  141.5960 C   0  0  1  0  0  3  0  0  0  0  0  0
  186.4400  178.2070  144.9100 N   0  0  0  0  0  0  0  0  0  0  0  0
  186.3170  178.2910  146.2000 C   0  0  0  0  0  0  0  0  0  0  0  0
  185.4370  179.2590  146.7570 N   0  0  0  0  0  1  0  0  0  0  0  0
  187.0390  177.4190  147.0660 N   0  0  0  0  0  1  0  0  0  0  0  0
  1 20  1  0  0  0  0
  2 24  1  1  0  0  0
  2 12  1  0  0  0  0
  4  3  1  0  0  0  0
  5 25  1  6  0  0  0
  5 27  1  0  0  0  0
  6 18  1  6  0  0  0
  6  5  1  0  0  0  0
  6 28  1  0  0  0  0
  7 24  1  1  0  0  0
  7 17  1  0  0  0  0
  7 19  1  0  0  0  0
  9 26  1  6  0  0  0
  9 28  1  0  0  0  0
 10 20  1  0  0  0  0
 11  3  1  0  0  0  0
 12  8  1  6  0  0  0
 12 13  1  0  0  0  0
 13 11  1  1  0  0  0
 14 23  1  1  0  0  0
 14 22  1  0  0  0  0
 15  9  1  0  0  0  0
 16 19  1  0  0  0  0
 16  1  1  0  0  0  0
 17 10  1  1  0  0  0
 17  8  1  0  0  0  0
 18 15  1  0  0  0  0
 20 29  1  6  0  0  0
 21  4  1  0  0  0  0
 22 13  1  0  0  0  0
 22 21  1  1  0  0  0
 27  2  1  0  0  0  0
 27 14  1  0  0  0  0
 28 23  1  0  0  0  0
 29 30  2  0  0  0  0
 30 31  1  0  0  0  0
 30 32  1  0  0  0  0
M  END
>  <MODEL>
5

>  <REMARK>
 VINA RESULT:      -7.3      3.842      7.867
  Name = 
  1 active torsions:
  status: ('A' for Active; 'I' for Inactive)
    1  A    between atoms: C_20  and  N_29
                            x       y       z     vdW  Elec       q    Type
                         _______ _______ _______ _____ _____    ______ ____

>  <TORSDO>
F 1

$$$$
=
 OpenBabel11112416423D

 32 37  0  0  1  0  0  0  0  0999 V2000
  185.9410  179.1140  143.4290 C   0  0  0  0  0  2  0  0  0  0  0  0
  189.5920  175.2140  143.2960 C   0  0  2  0  0  3  0  0  0  0  0  0
  188.5500  173.5180  138.6520 C   0  0  0  0  0  2  0  0  0  0  0  0
  190.0690  173.4020  138.5720 C   0  0  0  0  0  2  0  0  0  0  0  0
  191.8010  174.4700  144.2790 C   0  0  1  0  0  3  0  0  0  0  0  0
  193.1800  173.8430  144.0290 C   0  0  1  0  0  3  0  0  0  0  0  0
  188.0540  177.0450  144.2690 C   0  0  2  0  0  3  0  0  0  0  0  0
  187.2450  175.5020  142.3870 C   0  0  0  0  0  2  0  0  0  0  0  0
  192.8180  171.6310  143.1520 C   0  0  2  0  0  3  0  0  0  0  0  0
  185.5660  176.6270  143.9150 C   0  0  0  0  0  2  0  0  0  0  0  0
  188.1910  174.5410  139.7250 C   0  0  0  0  0  2  0  0  0  0  0  0
  188.7360  175.3820  142.0270 C   0  0  2  0  0  3  0  0  0  0  0  0
  188.9320  174.2370  141.0320 C   0  0  2  0  0  3  0  0  0  0  0  0
  191.2030  173.7560  141.9840 C   0  0  1  0  0  3  0  0  0  0  0  0
  193.1290  171.5700  144.6380 C   0  0  0  0  0  2  0  0  0  0  0  0
  187.0600  178.9540  144.2680 O   0  0  0  0  0  0  0  0  0  0  0  0
  186.9810  176.0520  143.7960 C   0  0  2  0  0  3  0  0  0  0  0  0
  193.4700  172.9140  145.1140 N   0  0  0  0  0  2  0  0  0  0  0  0
  187.9500  178.2620  143.5810 O   0  0  0  0  0  0  0  0  0  0  0  0
  185.3420  177.7870  142.9370 C   0  0  1  0  0  3  0  0  0  0  0  0
  190.5780  172.9740  139.8110 O   0  0  0  0  0  0  0  0  0  0  0  0
  190.4200  174.0470  140.7110 C   0  0  1  0  0  3  0  0  0  0  0  0
  192.5560  173.5660  141.6510 O   0  0  0  0  0  0  0  0  0  0  0  0
  189.4790  176.4930  144.1400 C   0  0  0  0  0  2  0  0  0  0  0  0
  191.9550  175.5520  145.1480 O   0  0  0  0  0  1  0  0  0  0  0  0
  193.6410  170.5990  142.4080 C   0  0  0  0  0  1  0  0  0  0  0  0
  191.0750  174.9030  142.9940 C   0  0  1  0  0  3  0  0  0  0  0  0
  193.2510  173.0190  142.7540 C   0  0  1  0  0  3  0  0  0  0  0  0
  183.9190  177.9650  142.6840 N   0  0  0  0  0  0  0  0  0  0  0  0
  183.4250  178.1880  141.5040 C   0  0  0  0  0  0  0  0  0  0  0  0
  182.0200  178.3470  141.3520 N   0  0  0  0  0  1  0  0  0  0  0  0
  184.2700  178.2900  140.3600 N   0  0  0  0  0  1  0  0  0  0  0  0
  1 16  1  0  0  0  0
  2 24  1  6  0  0  0
  3 11  1  0  0  0  0
  4  3  1  0  0  0  0
  4 21  1  0  0  0  0
  5 25  1  1  0  0  0
  6  5  1  0  0  0  0
  6 18  1  1  0  0  0
  7 24  1  6  0  0  0
  9 26  1  6  0  0  0
  9 15  1  0  0  0  0
 12  8  1  1  0  0  0
 12  2  1  0  0  0  0
 13 11  1  6  0  0  0
 13 12  1  0  0  0  0
 14 23  1  6  0  0  0
 14 27  1  0  0  0  0
 15 18  1  0  0  0  0
 17  8  1  6  0  0  0
 17 10  1  0  0  0  0
 17  7  1  0  0  0  0
 19 16  1  0  0  0  0
 19  7  1  0  0  0  0
 20 29  1  1  0  0  0
 20  1  1  0  0  0  0
 20 10  1  0  0  0  0
 22 21  1  6  0  0  0
 22 13  1  0  0  0  0
 22 14  1  0  0  0  0
 23 28  1  0  0  0  0
 27  2  1  0  0  0  0
 27  5  1  0  0  0  0
 28  9  1  0  0  0  0
 28  6  1  0  0  0  0
 30 29  2  0  0  0  0
 31 30  1  0  0  0  0
 32 30  1  0  0  0  0
M  END
>  <MODEL>
6

>  <REMARK>
 VINA RESULT:      -7.3      2.069      8.433
  Name = 
  1 active torsions:
  status: ('A' for Active; 'I' for Inactive)
    1  A    between atoms: C_20  and  N_29
                            x       y       z     vdW  Elec       q    Type
                         _______ _______ _______ _____ _____    ______ ____

>  <TORSDO>
F 1

$$$$
=
 OpenBabel11112416423D

 32 37  0  0  1  0  0  0  0  0999 V2000
  189.2930  177.7280  147.2550 C   0  0  0  0  0  2  0  0  0  0  0  0
  191.8230  173.6870  144.8410 C   0  0  2  0  0  3  0  0  0  0  0  0
  189.0900  173.6690  140.5900 C   0  0  0  0  0  2  0  0  0  0  0  0
  190.4540  173.4160  139.9540 C   0  0  0  0  0  2  0  0  0  0  0  0
  194.0150  172.4290  144.7560 C   0  0  1  0  0  3  0  0  0  0  0  0
  195.0890  171.7630  143.8830 C   0  0  1  0  0  3  0  0  0  0  0  0
  191.0740  175.2770  146.7320 C   0  0  2  0  0  3  0  0  0  0  0  0
  189.4270  174.5070  144.9230 C   0  0  0  0  0  2  0  0  0  0  0  0
  194.0210  169.9960  142.6480 C   0  0  2  0  0  3  0  0  0  0  0  0
  188.5660  175.2720  147.1790 C   0  0  0  0  0  2  0  0  0  0  0  0
  189.2980  174.3350  141.9460 C   0  0  0  0  0  2  0  0  0  0  0  0
  190.6780  174.3400  144.0440 C   0  0  2  0  0  3  0  0  0  0  0  0
  190.3180  173.5540  142.7830 C   0  0  2  0  0  3  0  0  0  0  0  0
  192.6140  172.5460  142.7160 C   0  0  1  0  0  3  0  0  0  0  0  0
  194.7460  169.4340  143.8590 C   0  0  0  0  0  2  0  0  0  0  0  0
  190.5530  177.1870  147.5750 O   0  0  0  0  0  0  0  0  0  0  0  0
  189.7240  174.6100  146.4260 C   0  0  2  0  0  3  0  0  0  0  0  0
  195.4900  170.5130  144.5160 N   0  0  0  0  0  2  0  0  0  0  0  0
  191.0270  176.6520  146.4650 O   0  0  0  0  0  0  0  0  0  0  0  0
  188.3070  176.6990  146.6800 C   0  0  1  0  0  3  0  0  0  0  0  0
  191.2110  172.5650  140.7790 O   0  0  0  0  0  0  0  0  0  0  0  0
  191.5640  173.3100  141.9210 C   0  0  1  0  0  3  0  0  0  0  0  0
  193.7320  172.3210  141.8910 O   0  0  0  0  0  0  0  0  0  0  0  0
  192.2430  174.6380  145.9710 C   0  0  0  0  0  2  0  0  0  0  0  0
  194.6500  173.1570  145.7630 O   0  0  0  0  0  1  0  0  0  0  0  0
  194.3420  169.1660  141.4210 C   0  0  0  0  0  1  0  0  0  0  0  0
  193.0430  173.3240  143.9670 C   0  0  1  0  0  3  0  0  0  0  0  0
  194.5950  171.3800  142.4980 C   0  0  1  0  0  3  0  0  0  0  0  0
  186.9460  177.1060  146.9990 N   0  0  0  0  0  0  0  0  0  0  0  0
  185.9870  177.1420  146.1240 C   0  0  0  0  0  0  0  0  0  0  0  0
  184.6860  177.5510  146.5280 N   0  0  0  0  0  1  0  0  0  0  0  0
  186.2190  176.7910  144.7620 N   0  0  0  0  0  1  0  0  0  0  0  0
  1 16  1  0  0  0  0
  2 24  1  1  0  0  0
  3 11  1  0  0  0  0
  4  3  1  0  0  0  0
  4 21  1  0  0  0  0
  5 25  1  1  0  0  0
  6 18  1  1  0  0  0
  6  5  1  0  0  0  0
  7 24  1  6  0  0  0
  9 26  1  6  0  0  0
  9 15  1  0  0  0  0
 12  2  1  0  0  0  0
 12  8  1  1  0  0  0
 13 11  1  6  0  0  0
 13 12  1  0  0  0  0
 14 23  1  6  0  0  0
 14 27  1  0  0  0  0
 15 18  1  0  0  0  0
 17  8  1  6  0  0  0
 17  7  1  0  0  0  0
 17 10  1  0  0  0  0
 19  7  1  0  0  0  0
 19 16  1  0  0  0  0
 20 29  1  1  0  0  0
 20 10  1  0  0  0  0
 20  1  1  0  0  0  0
 22 21  1  6  0  0  0
 22 14  1  0  0  0  0
 22 13  1  0  0  0  0
 23 28  1  0  0  0  0
 27  5  1  0  0  0  0
 27  2  1  0  0  0  0
 28  9  1  0  0  0  0
 28  6  1  0  0  0  0
 30 31  1  0  0  0  0
 30 29  2  0  0  0  0
 32 30  1  0  0  0  0
M  END
>  <MODEL>
7

>  <REMARK>
 VINA RESULT:      -7.2      2.699      8.719
  Name = 
  1 active torsions:
  status: ('A' for Active; 'I' for Inactive)
    1  A    between atoms: C_20  and  N_29
                            x       y       z     vdW  Elec       q    Type
                         _______ _______ _______ _____ _____    ______ ____

>  <TORSDO>
F 1

$$$$
=
 OpenBabel11112416423D

 32 37  0  0  1  0  0  0  0  0999 V2000
  192.4680  171.5900  139.5860 C   0  0  0  0  0  2  0  0  0  0  0  0
  189.2320  174.7090  142.4770 C   0  0  2  0  0  3  0  0  0  0  0  0
  192.0840  174.9030  146.6450 C   0  0  0  0  0  2  0  0  0  0  0  0
  191.6300  176.3590  146.6430 C   0  0  0  0  0  2  0  0  0  0  0  0
  187.4040  176.4470  142.3030 C   0  0  1  0  0  3  0  0  0  0  0  0
  186.8240  177.7690  142.8270 C   0  0  1  0  0  3  0  0  0  0  0  0
  190.0080  173.1470  140.5740 C   0  0  2  0  0  3  0  0  0  0  0  0
  190.7810  172.7710  142.9910 C   0  0  0  0  0  2  0  0  0  0  0  0
  186.3140  177.4580  145.1580 C   0  0  2  0  0  3  0  0  0  0  0  0
  190.7680  170.8420  141.3490 C   0  0  0  0  0  2  0  0  0  0  0  0
  191.9680  174.3520  145.2270 C   0  0  0  0  0  2  0  0  0  0  0  0
  190.5460  174.2820  143.1590 C   0  0  2  0  0  3  0  0  0  0  0  0
  190.5810  174.6440  144.6440 C   0  0  2  0  0  3  0  0  0  0  0  0
  188.9090  176.4770  144.2690 C   0  0  1  0  0  3  0  0  0  0  0  0
  185.0580  177.3140  144.3160 C   0  0  0  0  0  2  0  0  0  0  0  0
  191.4080  172.3930  139.1240 O   0  0  0  0  0  0  0  0  0  0  0  0
  190.1080  172.1640  141.7510 C   0  0  2  0  0  3  0  0  0  0  0  0
  185.3750  177.6350  142.9210 N   0  0  0  0  0  2  0  0  0  0  0  0
  191.2660  173.3710  140.0000 O   0  0  0  0  0  0  0  0  0  0  0  0
  192.2490  171.0310  141.0000 C   0  0  1  0  0  3  0  0  0  0  0  0
  190.2910  176.4380  146.2220 O   0  0  0  0  0  0  0  0  0  0  0  0
  190.2760  176.1340  144.8470 C   0  0  1  0  0  3  0  0  0  0  0  0
  188.6530  177.8430  144.4910 O   0  0  0  0  0  0  0  0  0  0  0  0
  189.3660  174.4840  140.9630 C   0  0  0  0  0  2  0  0  0  0  0  0
  187.3250  176.4500  140.9090 O   0  0  0  0  0  1  0  0  0  0  0  0
  186.0390  178.3540  146.3490 C   0  0  0  0  0  1  0  0  0  0  0  0
  188.8450  176.1760  142.7660 C   0  0  1  0  0  3  0  0  0  0  0  0
  187.2930  178.1260  144.2280 C   0  0  1  0  0  3  0  0  0  0  0  0
  192.9640  169.7690  141.1350 N   0  0  0  0  0  0  0  0  0  0  0  0
  193.7640  169.5020  142.1220 C   0  0  0  0  0  0  0  0  0  0  0  0
  194.4180  168.2410  142.1720 N   0  0  0  0  0  1  0  0  0  0  0  0
  194.0080  170.4590  143.1510 N   0  0  0  0  0  1  0  0  0  0  0  0
  1 20  1  0  0  0  0
  2 24  1  6  0  0  0
  2 27  1  0  0  0  0
  2 12  1  0  0  0  0
  4  3  1  0  0  0  0
  5 25  1  6  0  0  0
  5 27  1  0  0  0  0
  5  6  1  0  0  0  0
  6 18  1  1  0  0  0
  6 28  1  0  0  0  0
  7 24  1  1  0  0  0
  7 17  1  0  0  0  0
  9 26  1  1  0  0  0
 11  3  1  0  0  0  0
 12  8  1  1  0  0  0
 12 13  1  0  0  0  0
 13 22  1  0  0  0  0
 13 11  1  6  0  0  0
 14 23  1  6  0  0  0
 14 22  1  0  0  0  0
 15  9  1  0  0  0  0
 16  1  1  0  0  0  0
 16 19  1  0  0  0  0
 17 10  1  6  0  0  0
 17  8  1  0  0  0  0
 18 15  1  0  0  0  0
 19  7  1  0  0  0  0
 20 29  1  6  0  0  0
 20 10  1  0  0  0  0
 21  4  1  0  0  0  0
 22 21  1  1  0  0  0
 27 14  1  0  0  0  0
 28 23  1  0  0  0  0
 28  9  1  0  0  0  0
 29 30  2  0  0  0  0
 30 31  1  0  0  0  0
 30 32  1  0  0  0  0
M  END
>  <MODEL>
8

>  <REMARK>
 VINA RESULT:      -7.2      1.477      1.620
  Name = 
  1 active torsions:
  status: ('A' for Active; 'I' for Inactive)
    1  A    between atoms: C_20  and  N_29
                            x       y       z     vdW  Elec       q    Type
                         _______ _______ _______ _____ _____    ______ ____

>  <TORSDO>
F 1

$$$$
=
 OpenBabel11112416423D

 32 37  0  0  1  0  0  0  0  0999 V2000
  189.1990  177.5410  147.2630 C   0  0  0  0  0  2  0  0  0  0  0  0
  192.6420  174.0720  145.1010 C   0  0  2  0  0  3  0  0  0  0  0  0
  190.1570  173.3210  140.7650 C   0  0  0  0  0  2  0  0  0  0  0  0
  191.5690  173.3500  140.1860 C   0  0  0  0  0  2  0  0  0  0  0  0
  195.0570  173.3210  145.1400 C   0  0  1  0  0  3  0  0  0  0  0  0
  196.2840  172.8770  144.3320 C   0  0  1  0  0  3  0  0  0  0  0  0
  191.4890  175.5220  146.9000 C   0  0  2  0  0  3  0  0  0  0  0  0
  190.1250  174.3520  145.0700 C   0  0  0  0  0  2  0  0  0  0  0  0
  195.6770  170.8790  143.1350 C   0  0  2  0  0  3  0  0  0  0  0  0
  189.0260  174.9850  147.2630 C   0  0  0  0  0  2  0  0  0  0  0  0
  190.1590  174.0600  142.1000 C   0  0  0  0  0  2  0  0  0  0  0  0
  191.4170  174.4340  144.2410 C   0  0  2  0  0  3  0  0  0  0  0  0
  191.2890  173.5480  143.0010 C   0  0  2  0  0  3  0  0  0  0  0  0
  193.7500  173.0630  143.0530 C   0  0  1  0  0  3  0  0  0  0  0  0
  196.4550  170.5300  144.3920 C   0  0  0  0  0  2  0  0  0  0  0  0
  190.5320  177.2990  147.6460 O   0  0  0  0  0  0  0  0  0  0  0  0
  190.3290  174.5670  146.5760 C   0  0  2  0  0  3  0  0  0  0  0  0
  196.9210  171.7650  145.0290 N   0  0  0  0  0  2  0  0  0  0  0  0
  191.1560  176.8440  146.5750 O   0  0  0  0  0  0  0  0  0  0  0  0
  188.4850  176.3040  146.6970 C   0  0  1  0  0  3  0  0  0  0  0  0
  192.4570  172.7120  141.0700 O   0  0  0  0  0  0  0  0  0  0  0  0
  192.5930  173.5530  142.1920 C   0  0  1  0  0  3  0  0  0  0  0  0
  194.9230  173.0600  142.2750 O   0  0  0  0  0  0  0  0  0  0  0  0
  192.7990  175.1290  146.2050 C   0  0  0  0  0  2  0  0  0  0  0  0
  195.4770  174.2020  146.1380 O   0  0  0  0  0  1  0  0  0  0  0  0
  196.2200  170.1000  141.9550 C   0  0  0  0  0  1  0  0  0  0  0  0
  193.9480  173.9560  144.2840 C   0  0  1  0  0  3  0  0  0  0  0  0
  195.9430  172.3510  142.9480 C   0  0  1  0  0  3  0  0  0  0  0  0
  187.0550  176.4140  146.9530 N   0  0  0  0  0  0  0  0  0  0  0  0
  186.1950  176.7910  146.0570 C   0  0  0  0  0  0  0  0  0  0  0  0
  184.8160  176.8670  146.3980 N   0  0  0  0  0  1  0  0  0  0  0  0
  186.6110  177.1420  144.7390 N   0  0  0  0  0  1  0  0  0  0  0  0
  1 16  1  0  0  0  0
  2 24  1  1  0  0  0
  3 11  1  0  0  0  0
  4  3  1  0  0  0  0
  4 21  1  0  0  0  0
  5 25  1  1  0  0  0
  6 18  1  1  0  0  0
  6  5  1  0  0  0  0
  7 24  1  6  0  0  0
  9 26  1  6  0  0  0
  9 15  1  0  0  0  0
 12  8  1  1  0  0  0
 12  2  1  0  0  0  0
 13 11  1  6  0  0  0
 13 12  1  0  0  0  0
 14 23  1  6  0  0  0
 14 27  1  0  0  0  0
 15 18  1  0  0  0  0
 17  8  1  6  0  0  0
 17  7  1  0  0  0  0
 17 10  1  0  0  0  0
 19  7  1  0  0  0  0
 19 16  1  0  0  0  0
 20 29  1  1  0  0  0
 20 10  1  0  0  0  0
 20  1  1  0  0  0  0
 22 21  1  6  0  0  0
 22 13  1  0  0  0  0
 22 14  1  0  0  0  0
 23 28  1  0  0  0  0
 27  2  1  0  0  0  0
 27  5  1  0  0  0  0
 28  9  1  0  0  0  0
 28  6  1  0  0  0  0
 30 31  1  0  0  0  0
 30 29  2  0  0  0  0
 32 30  1  0  0  0  0
M  END
>  <MODEL>
9

>  <REMARK>
 VINA RESULT:      -7.2      3.284      8.960
  Name = 
  1 active torsions:
  status: ('A' for Active; 'I' for Inactive)
    1  A    between atoms: C_20  and  N_29
                            x       y       z     vdW  Elec       q    Type
                         _______ _______ _______ _____ _____    ______ ____

>  <TORSDO>
F 1

$$$$
