=
 OpenBabel11112416113D

 30 35  0  0  1  0  0  0  0  0999 V2000
  187.6420  176.5000  145.3890 C   0  0  0  0  0  0  0  0  0  0  0  0
  185.7670  177.5580  146.6850 C   0  0  0  0  0  0  0  0  0  0  0  0
  185.9610  177.7220  141.7390 N   0  0  0  0  0  0  0  0  0  0  0  0
  188.2400  176.2340  144.1260 C   0  0  0  0  0  0  0  0  0  0  0  0
  188.2560  175.8790  146.6160 C   0  0  0  0  0  2  0  0  0  0  0  0
  191.1860  174.4220  145.3320 O   0  0  0  0  0  0  0  0  0  0  0  0
  188.4460  173.9810  142.2610 C   0  0  1  0  0  3  0  0  0  0  0  0
  190.2330  175.1890  145.3100 C   0  0  0  0  0  0  0  0  0  0  0  0
  187.7900  174.9350  141.2610 C   0  0  2  0  0  3  0  0  0  0  0  0
  186.8050  177.1960  140.9060 C   0  0  0  0  0  0  0  0  0  0  0  0
  189.7780  175.8850  146.5640 C   0  0  2  0  0  3  0  0  0  0  0  0
  189.6030  175.5740  143.9940 C   0  0  1  0  0  3  0  0  0  0  0  0
  184.5720  178.2830  146.6810 C   0  0  0  0  0  3  0  0  0  0  0  0
  188.2620  174.6150  139.9830 O   0  0  0  0  0  0  0  0  0  0  0  0
  188.7170  172.7670  141.4180 C   0  0  0  0  0  2  0  0  0  0  0  0
  186.2830  177.1720  147.9160 O   0  0  0  0  0  1  0  0  0  0  0  0
  186.4310  177.4040  143.0380 C   0  0  0  0  0  0  0  0  0  0  0  0
  184.0000  178.7150  145.4860 C   0  0  0  0  0  3  0  0  0  0  0  0
  186.4180  177.2460  145.4610 C   0  0  0  0  0  0  0  0  0  0  0  0
  187.5960  176.6980  142.9820 C   0  0  0  0  0  0  0  0  0  0  0  0
  186.6490  177.3440  139.4330 C   0  0  0  0  0  1  0  0  0  0  0  0
  187.9350  176.4340  141.5570 C   0  0  1  0  0  3  0  0  0  0  0  0
  188.4160  173.2170  140.0000 C   0  0  0  0  0  2  0  0  0  0  0  0
  190.8180  174.9010  141.8990 C   0  0  0  0  0  1  0  0  0  0  0  0
  184.6200  178.4260  144.2740 C   0  0  0  0  0  3  0  0  0  0  0  0
  185.8160  177.7040  144.2500 C   0  0  0  0  0  0  0  0  0  0  0  0
  189.7550  174.4850  142.9100 C   0  0  2  0  0  3  0  0  0  0  0  0
  190.3370  175.2300  147.8230 C   0  0  0  0  0  2  0  0  0  0  0  0
  191.1240  177.2890  148.3180 O   0  0  0  0  0  1  0  0  0  0  0  0
  191.4770  175.9820  148.3230 N   0  0  0  0  0  2  0  0  0  0  0  0
  1 19  1  0  0  0  0
  1  5  1  0  0  0  0
  2 16  1  0  0  0  0
  3 17  1  0  0  0  0
  4  1  2  0  0  0  0
  7 15  1  6  0  0  0
  7 27  1  0  0  0  0
  8  6  2  0  0  0  0
  8 11  1  0  0  0  0
  9 14  1  6  0  0  0
  9 22  1  0  0  0  0
  9  7  1  0  0  0  0
 10  3  2  0  0  0  0
 11  5  1  0  0  0  0
 11 28  1  1  0  0  0
 12  4  1  1  0  0  0
 12  8  1  0  0  0  0
 13  2  1  0  0  0  0
 14 23  1  0  0  0  0
 17 26  1  0  0  0  0
 18 13  2  0  0  0  0
 19  2  2  0  0  0  0
 20 17  2  0  0  0  0
 20  4  1  0  0  0  0
 21 10  1  0  0  0  0
 22 10  1  6  0  0  0
 22 20  1  0  0  0  0
 23 15  1  0  0  0  0
 25 18  1  0  0  0  0
 26 25  2  0  0  0  0
 26 19  1  0  0  0  0
 27 24  1  6  0  0  0
 27 12  1  0  0  0  0
 28 30  1  0  0  0  0
 29 30  1  0  0  0  0
M  END
>  <MODEL>
1

>  <REMARK>
 VINA RESULT:      -9.2      0.000      0.000
  Name = 
  2 active torsions:
  status: ('A' for Active; 'I' for Inactive)
    1  A    between atoms: C_11  and  C_28
    2  A    between atoms: C_28  and  N_30
                            x       y       z     vdW  Elec       q    Type
                         _______ _______ _______ _____ _____    ______ ____

>  <TORSDO>
F 2

$$$$
=
 OpenBabel11112416113D

 30 35  0  0  1  0  0  0  0  0999 V2000
  186.2100  177.5480  143.8420 C   0  0  0  0  0  0  0  0  0  0  0  0
  184.4390  178.6260  145.2630 C   0  0  0  0  0  0  0  0  0  0  0  0
  188.2340  176.1330  147.2400 N   0  0  0  0  0  0  0  0  0  0  0  0
  187.3980  176.7700  143.7750 C   0  0  0  0  0  0  0  0  0  0  0  0
  185.6610  178.1280  142.5650 C   0  0  0  0  0  2  0  0  0  0  0  0
  187.7260  176.6600  140.1280 O   0  0  0  0  0  0  0  0  0  0  0  0
  190.2630  177.2260  143.3500 C   0  0  1  0  0  3  0  0  0  0  0  0
  187.2190  176.7480  141.2380 C   0  0  0  0  0  0  0  0  0  0  0  0
  190.4250  176.5640  144.7190 C   0  0  2  0  0  3  0  0  0  0  0  0
  189.2580  175.5650  146.6810 C   0  0  0  0  0  0  0  0  0  0  0  0
  185.7800  177.1600  141.3950 C   0  0  2  0  0  3  0  0  0  0  0  0
  187.9820  176.2890  142.4560 C   0  0  1  0  0  3  0  0  0  0  0  0
  183.9300  178.8990  146.5360 C   0  0  0  0  0  3  0  0  0  0  0  0
  191.6520  175.8900  144.7320 O   0  0  0  0  0  0  0  0  0  0  0  0
  191.6870  177.4470  142.9280 C   0  0  0  0  0  2  0  0  0  0  0  0
  183.7370  179.1180  144.1680 O   0  0  0  0  0  1  0  0  0  0  0  0
  187.4340  176.6410  146.1850 C   0  0  0  0  0  0  0  0  0  0  0  0
  184.5720  178.4290  147.6790 C   0  0  0  0  0  3  0  0  0  0  0  0
  185.6270  177.8620  145.1160 C   0  0  0  0  0  0  0  0  0  0  0  0
  187.9760  176.3470  144.9690 C   0  0  0  0  0  0  0  0  0  0  0  0
  190.3150  174.8920  147.4830 C   0  0  0  0  0  1  0  0  0  0  0  0
  189.2760  175.6520  145.1730 C   0  0  1  0  0  3  0  0  0  0  0  0
  192.5080  176.6950  143.9600 C   0  0  0  0  0  2  0  0  0  0  0  0
  190.1080  175.0070  142.0640 C   0  0  0  0  0  1  0  0  0  0  0  0
  185.7360  177.6750  147.5640 C   0  0  0  0  0  3  0  0  0  0  0  0
  186.2630  177.3860  146.3020 C   0  0  0  0  0  0  0  0  0  0  0  0
  189.5130  176.3930  142.2860 C   0  0  2  0  0  3  0  0  0  0  0  0
  185.2250  177.8110  140.1320 C   0  0  0  0  0  2  0  0  0  0  0  0
  182.9670  177.8700  140.1750 O   0  0  0  0  0  1  0  0  0  0  0  0
  184.0600  178.6220  140.4490 N   0  0  0  0  0  2  0  0  0  0  0  0
  1 19  1  0  0  0  0
  2 13  1  0  0  0  0
  4  1  2  0  0  0  0
  4 20  1  0  0  0  0
  5  1  1  0  0  0  0
  6  8  2  0  0  0  0
  7 15  1  6  0  0  0
  7  9  1  0  0  0  0
  8 11  1  0  0  0  0
  9 14  1  6  0  0  0
  9 22  1  0  0  0  0
 10  3  2  0  0  0  0
 10 21  1  0  0  0  0
 11 28  1  6  0  0  0
 11  5  1  0  0  0  0
 12  8  1  6  0  0  0
 12  4  1  0  0  0  0
 13 18  2  0  0  0  0
 15 23  1  0  0  0  0
 16  2  1  0  0  0  0
 17 26  1  0  0  0  0
 17  3  1  0  0  0  0
 19  2  2  0  0  0  0
 19 26  1  0  0  0  0
 20 17  2  0  0  0  0
 22 20  1  1  0  0  0
 22 10  1  0  0  0  0
 23 14  1  0  0  0  0
 25 18  1  0  0  0  0
 26 25  2  0  0  0  0
 27 24  1  1  0  0  0
 27 12  1  0  0  0  0
 27  7  1  0  0  0  0
 28 30  1  0  0  0  0
 29 30  1  0  0  0  0
M  END
>  <MODEL>
2

>  <REMARK>
 VINA RESULT:      -8.8      2.076      5.505
  Name = 
  2 active torsions:
  status: ('A' for Active; 'I' for Inactive)
    1  A    between atoms: C_11  and  C_28
    2  A    between atoms: C_28  and  N_30
                            x       y       z     vdW  Elec       q    Type
                         _______ _______ _______ _____ _____    ______ ____

>  <TORSDO>
F 2

$$$$
=
 OpenBabel11112416113D

 30 35  0  0  1  0  0  0  0  0999 V2000
  188.5480  175.9890  142.0270 C   0  0  0  0  0  0  0  0  0  0  0  0
  190.1420  174.2690  141.1230 C   0  0  0  0  0  0  0  0  0  0  0  0
  190.6510  176.1970  145.6570 N   0  0  0  0  0  0  0  0  0  0  0  0
  188.1800  176.8540  143.0940 C   0  0  0  0  0  0  0  0  0  0  0  0
  187.6290  175.8900  140.8370 C   0  0  0  0  0  2  0  0  0  0  0  0
  185.2530  178.3900  141.5150 O   0  0  0  0  0  0  0  0  0  0  0  0
  186.2020  176.9000  145.2580 C   0  0  1  0  0  3  0  0  0  0  0  0
  186.3330  177.8290  141.6430 C   0  0  0  0  0  0  0  0  0  0  0  0
  187.4220  177.0000  146.1760 C   0  0  2  0  0  3  0  0  0  0  0  0
  189.9100  177.0390  146.3080 C   0  0  0  0  0  0  0  0  0  0  0  0
  187.0380  177.2390  140.4520 C   0  0  2  0  0  3  0  0  0  0  0  0
  187.0490  177.8630  142.9700 C   0  0  1  0  0  3  0  0  0  0  0  0
  191.2770  173.4760  141.3120 C   0  0  0  0  0  3  0  0  0  0  0  0
  187.0560  177.7420  147.3050 O   0  0  0  0  0  0  0  0  0  0  0  0
  185.0600  177.0100  146.2280 C   0  0  0  0  0  2  0  0  0  0  0  0
  189.4760  174.1630  139.9080 O   0  0  0  0  0  1  0  0  0  0  0  0
  190.0600  176.0510  144.3760 C   0  0  0  0  0  0  0  0  0  0  0  0
  192.0030  173.5360  142.5000 C   0  0  0  0  0  3  0  0  0  0  0  0
  189.7070  175.1510  142.1480 C   0  0  0  0  0  0  0  0  0  0  0  0
  188.9600  176.8450  144.2480 C   0  0  0  0  0  0  0  0  0  0  0  0
  190.2370  177.4610  147.6970 C   0  0  0  0  0  1  0  0  0  0  0  0
  188.7100  177.5410  145.5390 C   0  0  1  0  0  3  0  0  0  0  0  0
  185.7150  177.3900  147.5430 C   0  0  0  0  0  2  0  0  0  0  0  0
  186.1400  179.4140  144.7260 C   0  0  0  0  0  1  0  0  0  0  0  0
  191.6010  174.3950  143.5190 C   0  0  0  0  0  3  0  0  0  0  0  0
  190.4710  175.2000  143.3540 C   0  0  0  0  0  0  0  0  0  0  0  0
  186.0890  177.9950  144.1720 C   0  0  2  0  0  3  0  0  0  0  0  0
  186.1080  177.0690  139.2550 C   0  0  0  0  0  2  0  0  0  0  0  0
  185.8700  176.0850  137.2360 O   0  0  0  0  0  1  0  0  0  0  0  0
  186.8040  176.4140  138.1590 N   0  0  0  0  0  2  0  0  0  0  0  0
  1 19  2  0  0  0  0
  1  4  1  0  0  0  0
  2 13  2  0  0  0  0
  2 19  1  0  0  0  0
  3 10  2  0  0  0  0
  4 20  2  0  0  0  0
  5  1  1  0  0  0  0
  6  8  2  0  0  0  0
  7  9  1  0  0  0  0
  7 15  1  1  0  0  0
  9 14  1  1  0  0  0
 10 21  1  0  0  0  0
 11 28  1  6  0  0  0
 11  5  1  0  0  0  0
 11  8  1  0  0  0  0
 12  8  1  6  0  0  0
 12  4  1  0  0  0  0
 12 27  1  0  0  0  0
 13 18  1  0  0  0  0
 14 23  1  0  0  0  0
 15 23  1  0  0  0  0
 16  2  1  0  0  0  0
 17  3  1  0  0  0  0
 18 25  2  0  0  0  0
 19 26  1  0  0  0  0
 20 17  1  0  0  0  0
 22 20  1  6  0  0  0
 22  9  1  0  0  0  0
 22 10  1  0  0  0  0
 26 25  1  0  0  0  0
 26 17  2  0  0  0  0
 27 24  1  1  0  0  0
 27  7  1  0  0  0  0
 29 30  1  0  0  0  0
 30 28  1  0  0  0  0
M  END
>  <MODEL>
3

>  <REMARK>
 VINA RESULT:      -8.3      1.976      7.232
  Name = 
  2 active torsions:
  status: ('A' for Active; 'I' for Inactive)
    1  A    between atoms: C_11  and  C_28
    2  A    between atoms: C_28  and  N_30
                            x       y       z     vdW  Elec       q    Type
                         _______ _______ _______ _____ _____    ______ ____

>  <TORSDO>
F 2

$$$$
=
 OpenBabel11112416113D

 30 35  0  0  1  0  0  0  0  0999 V2000
  188.3990  175.7040  143.7520 C   0  0  0  0  0  0  0  0  0  0  0  0
  186.2830  177.0570  143.6480 C   0  0  0  0  0  0  0  0  0  0  0  0
  189.5180  177.5210  147.3700 N   0  0  0  0  0  0  0  0  0  0  0  0
  189.5900  175.3740  144.4550 C   0  0  0  0  0  0  0  0  0  0  0  0
  188.1820  175.0990  142.3900 C   0  0  0  0  0  2  0  0  0  0  0  0
  190.8580  172.8340  142.1400 O   0  0  0  0  0  0  0  0  0  0  0  0
  192.4490  175.9990  144.2810 C   0  0  1  0  0  3  0  0  0  0  0  0
  190.0780  173.5590  142.7420 C   0  0  0  0  0  0  0  0  0  0  0  0
  192.2730  176.5290  145.7050 C   0  0  2  0  0  3  0  0  0  0  0  0
  190.6710  176.9590  147.5650 C   0  0  0  0  0  0  0  0  0  0  0  0
  188.6340  173.6470  142.3260 C   0  0  2  0  0  3  0  0  0  0  0  0
  190.5130  174.2510  144.0100 C   0  0  1  0  0  3  0  0  0  0  0  0
  185.4520  178.0220  144.2250 C   0  0  0  0  0  3  0  0  0  0  0  0
  193.4770  176.3350  146.3920 O   0  0  0  0  0  0  0  0  0  0  0  0
  193.9260  176.1600  144.0580 C   0  0  0  0  0  2  0  0  0  0  0  0
  185.8730  176.4860  142.4490 O   0  0  0  0  0  1  0  0  0  0  0  0
  189.0030  176.9680  146.1700 C   0  0  0  0  0  0  0  0  0  0  0  0
  185.7910  178.6290  145.4330 C   0  0  0  0  0  3  0  0  0  0  0  0
  187.4950  176.6820  144.2880 C   0  0  0  0  0  0  0  0  0  0  0  0
  189.8520  176.0360  145.6520 C   0  0  0  0  0  0  0  0  0  0  0  0
  191.5060  177.2770  148.7550 C   0  0  0  0  0  1  0  0  0  0  0  0
  191.0780  175.9750  146.4940 C   0  0  1  0  0  3  0  0  0  0  0  0
  194.4760  176.5340  145.4230 C   0  0  0  0  0  2  0  0  0  0  0  0
  192.7110  173.5470  145.0050 C   0  0  0  0  0  1  0  0  0  0  0  0
  186.9710  178.2770  146.0820 C   0  0  0  0  0  3  0  0  0  0  0  0
  187.8170  177.3130  145.5270 C   0  0  0  0  0  0  0  0  0  0  0  0
  192.0310  174.5280  144.0570 C   0  0  2  0  0  3  0  0  0  0  0  0
  188.4030  173.0990  140.9210 C   0  0  0  0  0  2  0  0  0  0  0  0
  189.5200  173.8520  139.1070 O   0  0  0  0  0  1  0  0  0  0  0  0
  188.4980  174.1660  139.9380 N   0  0  0  0  0  2  0  0  0  0  0  0
  1 19  2  0  0  0  0
  1  4  1  0  0  0  0
  2 13  2  0  0  0  0
  2 19  1  0  0  0  0
  3 10  2  0  0  0  0
  4 20  2  0  0  0  0
  5  1  1  0  0  0  0
  6  8  2  0  0  0  0
  7 15  1  1  0  0  0
  7  9  1  0  0  0  0
  9 14  1  1  0  0  0
  9 22  1  0  0  0  0
 10 21  1  0  0  0  0
 11 28  1  6  0  0  0
 11  5  1  0  0  0  0
 11  8  1  0  0  0  0
 12  8  1  6  0  0  0
 12 27  1  0  0  0  0
 12  4  1  0  0  0  0
 13 18  1  0  0  0  0
 15 23  1  0  0  0  0
 16  2  1  0  0  0  0
 17  3  1  0  0  0  0
 18 25  2  0  0  0  0
 19 26  1  0  0  0  0
 20 17  1  0  0  0  0
 22 20  1  6  0  0  0
 22 10  1  0  0  0  0
 23 14  1  0  0  0  0
 26 25  1  0  0  0  0
 26 17  2  0  0  0  0
 27  7  1  0  0  0  0
 27 24  1  1  0  0  0
 29 30  1  0  0  0  0
 30 28  1  0  0  0  0
M  END
>  <MODEL>
4

>  <REMARK>
 VINA RESULT:      -8.3      2.300      5.596
  Name = 
  2 active torsions:
  status: ('A' for Active; 'I' for Inactive)
    1  A    between atoms: C_11  and  C_28
    2  A    between atoms: C_28  and  N_30
                            x       y       z     vdW  Elec       q    Type
                         _______ _______ _______ _____ _____    ______ ____

>  <TORSDO>
F 2

$$$$
=
 OpenBabel11112416113D

 30 35  0  0  1  0  0  0  0  0999 V2000
  188.7110  176.6170  145.6000 C   0  0  0  0  0  0  0  0  0  0  0  0
  186.6200  177.8660  146.2200 C   0  0  0  0  0  0  0  0  0  0  0  0
  187.2590  175.8770  141.7300 N   0  0  0  0  0  0  0  0  0  0  0  0
  189.4500  175.9110  144.6110 C   0  0  0  0  0  0  0  0  0  0  0  0
  189.2700  176.6860  146.9970 C   0  0  0  0  0  2  0  0  0  0  0  0
  192.4460  175.2320  146.6060 O   0  0  0  0  0  0  0  0  0  0  0  0
  190.0690  173.1210  143.9550 C   0  0  1  0  0  3  0  0  0  0  0  0
  191.4240  175.7730  146.2090 C   0  0  0  0  0  0  0  0  0  0  0  0
  189.4120  173.4420  142.6110 C   0  0  2  0  0  3  0  0  0  0  0  0
  188.2290  175.1610  141.2500 C   0  0  0  0  0  0  0  0  0  0  0  0
  190.7810  176.8770  147.0040 C   0  0  2  0  0  3  0  0  0  0  0  0
  190.8820  175.4530  144.8380 C   0  0  1  0  0  3  0  0  0  0  0  0
  185.3600  178.3450  145.8490 C   0  0  0  0  0  3  0  0  0  0  0  0
  190.0340  172.6640  141.6280 O   0  0  0  0  0  0  0  0  0  0  0  0
  190.5460  171.7110  143.7510 C   0  0  0  0  0  2  0  0  0  0  0  0
  187.0570  178.1320  147.5120 O   0  0  0  0  0  1  0  0  0  0  0  0
  187.6370  176.2260  143.0510 C   0  0  0  0  0  0  0  0  0  0  0  0
  184.8600  178.1270  144.5670 C   0  0  0  0  0  3  0  0  0  0  0  0
  187.4130  177.1430  145.2880 C   0  0  0  0  0  0  0  0  0  0  0  0
  188.8700  175.7350  143.3580 C   0  0  0  0  0  0  0  0  0  0  0  0
  188.1970  174.6270  139.8610 C   0  0  0  0  0  1  0  0  0  0  0  0
  189.3680  174.9240  142.2130 C   0  0  1  0  0  3  0  0  0  0  0  0
  190.3340  171.4500  142.2710 C   0  0  0  0  0  2  0  0  0  0  0  0
  192.3530  174.1070  143.3080 C   0  0  0  0  0  1  0  0  0  0  0  0
  185.6180  177.4260  143.6340 C   0  0  0  0  0  3  0  0  0  0  0  0
  186.8820  176.9390  143.9790 C   0  0  0  0  0  0  0  0  0  0  0  0
  191.2510  174.0330  144.3580 C   0  0  2  0  0  3  0  0  0  0  0  0
  191.2860  176.9220  148.4430 C   0  0  0  0  0  2  0  0  0  0  0  0
  191.5950  178.2350  150.2560 O   0  0  0  0  0  1  0  0  0  0  0  0
  190.9830  178.2100  149.0480 N   0  0  0  0  0  2  0  0  0  0  0  0
  1  5  1  0  0  0  0
  2 16  1  0  0  0  0
  3 17  1  0  0  0  0
  4  1  2  0  0  0  0
  5 11  1  0  0  0  0
  7 15  1  6  0  0  0
  7 27  1  0  0  0  0
  8  6  2  0  0  0  0
  8 11  1  0  0  0  0
  9 14  1  6  0  0  0
  9  7  1  0  0  0  0
 10  3  2  0  0  0  0
 11 28  1  1  0  0  0
 12  4  1  1  0  0  0
 12  8  1  0  0  0  0
 13  2  1  0  0  0  0
 14 23  1  0  0  0  0
 17 20  2  0  0  0  0
 17 26  1  0  0  0  0
 18 13  2  0  0  0  0
 19  1  1  0  0  0  0
 19  2  2  0  0  0  0
 20  4  1  0  0  0  0
 21 10  1  0  0  0  0
 22 10  1  6  0  0  0
 22  9  1  0  0  0  0
 22 20  1  0  0  0  0
 23 15  1  0  0  0  0
 25 26  2  0  0  0  0
 25 18  1  0  0  0  0
 26 19  1  0  0  0  0
 27 24  1  6  0  0  0
 27 12  1  0  0  0  0
 28 30  1  0  0  0  0
 30 29  1  0  0  0  0
M  END
>  <MODEL>
5

>  <REMARK>
 VINA RESULT:      -8.1      1.624      2.060
  Name = 
  2 active torsions:
  status: ('A' for Active; 'I' for Inactive)
    1  A    between atoms: C_11  and  C_28
    2  A    between atoms: C_28  and  N_30
                            x       y       z     vdW  Elec       q    Type
                         _______ _______ _______ _____ _____    ______ ____

>  <TORSDO>
F 2

$$$$
=
 OpenBabel11112416113D

 30 35  0  0  1  0  0  0  0  0999 V2000
  189.9560  174.9610  143.7190 C   0  0  0  0  0  0  0  0  0  0  0  0
  191.8640  173.3320  143.8740 C   0  0  0  0  0  0  0  0  0  0  0  0
  191.0760  176.7900  147.3310 N   0  0  0  0  0  0  0  0  0  0  0  0
  189.2650  176.0710  144.2800 C   0  0  0  0  0  0  0  0  0  0  0  0
  189.3710  174.2940  142.5020 C   0  0  0  0  0  2  0  0  0  0  0  0
  186.6970  176.4270  141.6920 O   0  0  0  0  0  0  0  0  0  0  0  0
  186.8190  176.5370  145.8280 C   0  0  1  0  0  3  0  0  0  0  0  0
  187.7550  176.1400  142.2340 C   0  0  0  0  0  0  0  0  0  0  0  0
  187.7620  177.1600  146.8580 C   0  0  2  0  0  3  0  0  0  0  0  0
  190.1280  177.6680  147.4510 C   0  0  0  0  0  0  0  0  0  0  0  0
  188.7800  175.2990  141.5220 C   0  0  2  0  0  3  0  0  0  0  0  0
  188.1180  176.7620  143.5600 C   0  0  1  0  0  3  0  0  0  0  0  0
  192.9810  172.8630  144.5700 C   0  0  0  0  0  3  0  0  0  0  0  0
  187.0670  178.1780  147.5220 O   0  0  0  0  0  0  0  0  0  0  0  0
  185.4680  176.7840  146.4370 C   0  0  0  0  0  2  0  0  0  0  0  0
  191.5290  172.6940  142.6860 O   0  0  0  0  0  1  0  0  0  0  0  0
  190.8330  176.1040  146.1140 C   0  0  0  0  0  0  0  0  0  0  0  0
  193.3850  173.4610  145.7630 C   0  0  0  0  0  3  0  0  0  0  0  0
  191.1160  174.4310  144.3770 C   0  0  0  0  0  0  0  0  0  0  0  0
  189.7340  176.6010  145.4780 C   0  0  0  0  0  0  0  0  0  0  0  0
  190.0660  178.6010  148.6080 C   0  0  0  0  0  1  0  0  0  0  0  0
  189.1160  177.6540  146.3290 C   0  0  1  0  0  3  0  0  0  0  0  0
  185.7450  177.7090  147.6080 C   0  0  0  0  0  2  0  0  0  0  0  0
  186.6750  178.6520  144.3750 C   0  0  0  0  0  1  0  0  0  0  0  0
  192.6720  174.5410  146.2750 C   0  0  0  0  0  3  0  0  0  0  0  0
  191.5530  175.0310  145.5970 C   0  0  0  0  0  0  0  0  0  0  0  0
  186.8840  177.1420  144.4070 C   0  0  2  0  0  3  0  0  0  0  0  0
  188.1910  174.5620  140.3240 C   0  0  0  0  0  2  0  0  0  0  0  0
  188.1910  172.5290  139.3390 O   0  0  0  0  0  1  0  0  0  0  0  0
  188.2040  173.1260  140.5550 N   0  0  0  0  0  2  0  0  0  0  0  0
  1  4  2  0  0  0  0
  1 19  1  0  0  0  0
  2 19  2  0  0  0  0
  2 13  1  0  0  0  0
  3 10  2  0  0  0  0
  4 20  1  0  0  0  0
  5  1  1  0  0  0  0
  6  8  2  0  0  0  0
  7 15  1  1  0  0  0
  7  9  1  0  0  0  0
  9 14  1  6  0  0  0
 10 21  1  0  0  0  0
 11 28  1  6  0  0  0
 11  8  1  0  0  0  0
 11  5  1  0  0  0  0
 12  8  1  6  0  0  0
 12  4  1  0  0  0  0
 12 27  1  0  0  0  0
 13 18  2  0  0  0  0
 14 23  1  0  0  0  0
 15 23  1  0  0  0  0
 16  2  1  0  0  0  0
 17  3  1  0  0  0  0
 18 25  1  0  0  0  0
 19 26  1  0  0  0  0
 20 17  2  0  0  0  0
 22 20  1  6  0  0  0
 22  9  1  0  0  0  0
 22 10  1  0  0  0  0
 26 17  1  0  0  0  0
 26 25  2  0  0  0  0
 27 24  1  1  0  0  0
 27  7  1  0  0  0  0
 28 30  1  0  0  0  0
 29 30  1  0  0  0  0
M  END
>  <MODEL>
6

>  <REMARK>
 VINA RESULT:      -8.1      2.114      7.029
  Name = 
  2 active torsions:
  status: ('A' for Active; 'I' for Inactive)
    1  A    between atoms: C_11  and  C_28
    2  A    between atoms: C_28  and  N_30
                            x       y       z     vdW  Elec       q    Type
                         _______ _______ _______ _____ _____    ______ ____

>  <TORSDO>
F 2

$$$$
=
 OpenBabel11112416113D

 30 35  0  0  1  0  0  0  0  0999 V2000
  187.0220  176.3420  142.0050 C   0  0  0  0  0  0  0  0  0  0  0  0
  185.2930  177.5400  140.6300 C   0  0  0  0  0  0  0  0  0  0  0  0
  185.2900  177.7070  145.5790 N   0  0  0  0  0  0  0  0  0  0  0  0
  187.5200  176.0020  143.2930 C   0  0  0  0  0  0  0  0  0  0  0  0
  187.8160  175.9200  140.7970 C   0  0  0  0  0  2  0  0  0  0  0  0
  190.3260  173.9090  142.2160 O   0  0  0  0  0  0  0  0  0  0  0  0
  189.6990  176.8480  145.0620 C   0  0  1  0  0  3  0  0  0  0  0  0
  189.2470  174.4850  142.2060 C   0  0  0  0  0  0  0  0  0  0  0  0
  188.5790  177.1590  146.0560 C   0  0  2  0  0  3  0  0  0  0  0  0
  186.1180  177.2080  146.4450 C   0  0  0  0  0  0  0  0  0  0  0  0
  188.4100  174.5260  140.9560 C   0  0  2  0  0  3  0  0  0  0  0  0
  188.6650  175.0210  143.4900 C   0  0  1  0  0  3  0  0  0  0  0  0
  184.1570  178.3520  140.5830 C   0  0  0  0  0  3  0  0  0  0  0  0
  189.0770  176.9570  147.3480 O   0  0  0  0  0  0  0  0  0  0  0  0
  190.9330  177.1430  145.8660 C   0  0  0  0  0  2  0  0  0  0  0  0
  185.8340  177.1160  139.4220 O   0  0  0  0  0  1  0  0  0  0  0  0
  185.7490  177.2930  144.3030 C   0  0  0  0  0  0  0  0  0  0  0  0
  183.5520  178.8070  141.7530 C   0  0  0  0  0  3  0  0  0  0  0  0
  185.8540  177.1670  141.8810 C   0  0  0  0  0  0  0  0  0  0  0  0
  186.8560  176.5060  144.4090 C   0  0  0  0  0  0  0  0  0  0  0  0
  185.9420  177.4150  147.9080 C   0  0  0  0  0  1  0  0  0  0  0  0
  187.2530  176.4150  145.8400 C   0  0  1  0  0  3  0  0  0  0  0  0
  190.4220  177.3600  147.2790 C   0  0  0  0  0  2  0  0  0  0  0  0
  189.7910  174.3430  145.6320 C   0  0  0  0  0  1  0  0  0  0  0  0
  184.0790  178.4520  142.9910 C   0  0  0  0  0  3  0  0  0  0  0  0
  185.2130  177.6390  143.0660 C   0  0  0  0  0  0  0  0  0  0  0  0
  189.7410  175.3970  144.5320 C   0  0  2  0  0  3  0  0  0  0  0  0
  189.2140  174.1660  139.7100 C   0  0  0  0  0  2  0  0  0  0  0  0
  188.1960  174.1770  137.6940 O   0  0  0  0  0  1  0  0  0  0  0  0
  188.3970  173.3980  138.7840 N   0  0  0  0  0  2  0  0  0  0  0  0
  1  4  1  0  0  0  0
  2 19  1  0  0  0  0
  3 10  2  0  0  0  0
  4 12  1  0  0  0  0
  4 20  2  0  0  0  0
  5 11  1  0  0  0  0
  5  1  1  0  0  0  0
  7 15  1  1  0  0  0
  7  9  1  0  0  0  0
  8  6  2  0  0  0  0
  9 14  1  1  0  0  0
 10 21  1  0  0  0  0
 11 28  1  6  0  0  0
 11  8  1  0  0  0  0
 12  8  1  6  0  0  0
 12 27  1  0  0  0  0
 13  2  2  0  0  0  0
 13 18  1  0  0  0  0
 15 23  1  0  0  0  0
 16  2  1  0  0  0  0
 17 20  1  0  0  0  0
 17  3  1  0  0  0  0
 18 25  2  0  0  0  0
 19  1  2  0  0  0  0
 19 26  1  0  0  0  0
 22 20  1  6  0  0  0
 22  9  1  0  0  0  0
 22 10  1  0  0  0  0
 23 14  1  0  0  0  0
 25 26  1  0  0  0  0
 26 17  2  0  0  0  0
 27  7  1  0  0  0  0
 27 24  1  1  0  0  0
 29 30  1  0  0  0  0
 30 28  1  0  0  0  0
M  END
>  <MODEL>
7

>  <REMARK>
 VINA RESULT:      -8.0      2.143      5.702
  Name = 
  2 active torsions:
  status: ('A' for Active; 'I' for Inactive)
    1  A    between atoms: C_11  and  C_28
    2  A    between atoms: C_28  and  N_30
                            x       y       z     vdW  Elec       q    Type
                         _______ _______ _______ _____ _____    ______ ____

>  <TORSDO>
F 2

$$$$
=
 OpenBabel11112416113D

 30 35  0  0  1  0  0  0  0  0999 V2000
  187.5760  176.5170  142.2520 C   0  0  0  0  0  0  0  0  0  0  0  0
  185.9620  178.4120  142.6030 C   0  0  0  0  0  0  0  0  0  0  0  0
  188.4040  176.3110  146.3640 N   0  0  0  0  0  0  0  0  0  0  0  0
  188.4720  175.5710  142.8210 C   0  0  0  0  0  0  0  0  0  0  0  0
  187.4770  176.5960  140.7510 C   0  0  0  0  0  2  0  0  0  0  0  0
  189.4450  173.8690  139.7270 O   0  0  0  0  0  0  0  0  0  0  0  0
  191.3710  175.2470  143.1230 C   0  0  1  0  0  3  0  0  0  0  0  0
  188.7850  174.5140  140.5290 C   0  0  0  0  0  0  0  0  0  0  0  0
  191.0660  175.2070  144.6210 C   0  0  2  0  0  3  0  0  0  0  0  0
  189.3030  175.3760  146.3750 C   0  0  0  0  0  0  0  0  0  0  0  0
  187.5280  175.2210  140.0980 C   0  0  2  0  0  3  0  0  0  0  0  0
  189.1310  174.4760  141.9970 C   0  0  1  0  0  3  0  0  0  0  0  0
  185.3220  179.2890  143.4830 C   0  0  0  0  0  3  0  0  0  0  0  0
  192.0140  174.3810  145.2350 O   0  0  0  0  0  0  0  0  0  0  0  0
  192.8510  174.9910  143.0890 C   0  0  0  0  0  2  0  0  0  0  0  0
  185.6600  178.5190  141.2500 O   0  0  0  0  0  1  0  0  0  0  0  0
  188.0070  176.4690  145.0130 C   0  0  0  0  0  0  0  0  0  0  0  0
  185.5660  179.2330  144.8530 C   0  0  0  0  0  3  0  0  0  0  0  0
  186.8790  177.4450  143.0960 C   0  0  0  0  0  0  0  0  0  0  0  0
  188.6610  175.5900  144.2010 C   0  0  0  0  0  0  0  0  0  0  0  0
  189.9420  174.9160  147.6380 C   0  0  0  0  0  1  0  0  0  0  0  0
  189.6350  174.8120  145.0130 C   0  0  1  0  0  3  0  0  0  0  0  0
  193.2000  174.6040  144.5140 C   0  0  0  0  0  2  0  0  0  0  0  0
  190.8190  172.7670  142.7350 C   0  0  0  0  0  1  0  0  0  0  0  0
  186.4570  178.2930  145.3640 C   0  0  0  0  0  3  0  0  0  0  0  0
  187.1070  177.4020  144.5050 C   0  0  0  0  0  0  0  0  0  0  0  0
  190.6270  174.2020  142.2590 C   0  0  2  0  0  3  0  0  0  0  0  0
  187.4410  175.3700  138.5820 C   0  0  0  0  0  2  0  0  0  0  0  0
  185.9000  176.0410  137.0730 O   0  0  0  0  0  1  0  0  0  0  0  0
  186.4970  176.4180  138.2280 N   0  0  0  0  0  2  0  0  0  0  0  0
  1  4  2  0  0  0  0
  1 19  1  0  0  0  0
  2 19  2  0  0  0  0
  2 13  1  0  0  0  0
  3 10  2  0  0  0  0
  4 20  1  0  0  0  0
  5  1  1  0  0  0  0
  6  8  2  0  0  0  0
  7 15  1  1  0  0  0
  7  9  1  0  0  0  0
  9 22  1  0  0  0  0
  9 14  1  1  0  0  0
 10 21  1  0  0  0  0
 11 28  1  6  0  0  0
 11  8  1  0  0  0  0
 11  5  1  0  0  0  0
 12  8  1  6  0  0  0
 12 27  1  0  0  0  0
 12  4  1  0  0  0  0
 13 18  2  0  0  0  0
 15 23  1  0  0  0  0
 16  2  1  0  0  0  0
 17  3  1  0  0  0  0
 18 25  1  0  0  0  0
 19 26  1  0  0  0  0
 20 17  2  0  0  0  0
 22 20  1  6  0  0  0
 22 10  1  0  0  0  0
 23 14  1  0  0  0  0
 26 17  1  0  0  0  0
 26 25  2  0  0  0  0
 27 24  1  1  0  0  0
 27  7  1  0  0  0  0
 29 30  1  0  0  0  0
 30 28  1  0  0  0  0
M  END
>  <MODEL>
8

>  <REMARK>
 VINA RESULT:      -7.6      2.092      5.658
  Name = 
  2 active torsions:
  status: ('A' for Active; 'I' for Inactive)
    1  A    between atoms: C_11  and  C_28
    2  A    between atoms: C_28  and  N_30
                            x       y       z     vdW  Elec       q    Type
                         _______ _______ _______ _____ _____    ______ ____

>  <TORSDO>
F 2

$$$$
=
 OpenBabel11112416113D

 30 35  0  0  1  0  0  0  0  0999 V2000
  189.3180  175.2320  142.8830 C   0  0  0  0  0  0  0  0  0  0  0  0
  187.2620  176.3720  143.7700 C   0  0  0  0  0  0  0  0  0  0  0  0
  191.6020  176.5590  146.1490 N   0  0  0  0  0  0  0  0  0  0  0  0
  190.6930  174.9130  143.0550 C   0  0  0  0  0  0  0  0  0  0  0  0
  188.6460  174.8300  141.5960 C   0  0  0  0  0  2  0  0  0  0  0  0
  191.1300  172.9030  140.0240 O   0  0  0  0  0  0  0  0  0  0  0  0
  193.2750  175.8320  142.0110 C   0  0  1  0  0  3  0  0  0  0  0  0
  190.5940  173.4450  140.9800 C   0  0  0  0  0  0  0  0  0  0  0  0
  193.6050  176.1130  143.4780 C   0  0  2  0  0  3  0  0  0  0  0  0
  192.7670  176.0880  145.8250 C   0  0  0  0  0  0  0  0  0  0  0  0
  189.0950  173.4560  141.1170 C   0  0  2  0  0  3  0  0  0  0  0  0
  191.4330  173.9690  142.1200 C   0  0  1  0  0  3  0  0  0  0  0  0
  186.6610  177.1490  144.7650 C   0  0  0  0  0  3  0  0  0  0  0  0
  194.9810  175.9320  143.6550 O   0  0  0  0  0  0  0  0  0  0  0  0
  194.5660  176.1690  141.3210 C   0  0  0  0  0  2  0  0  0  0  0  0
  186.4680  175.9590  142.7070 O   0  0  0  0  0  1  0  0  0  0  0  0
  190.7090  176.1530  145.1250 C   0  0  0  0  0  0  0  0  0  0  0  0
  187.3910  177.5890  145.8670 C   0  0  0  0  0  3  0  0  0  0  0  0
  188.6350  176.0200  143.8680 C   0  0  0  0  0  0  0  0  0  0  0  0
  191.3460  175.4010  144.1840 C   0  0  0  0  0  0  0  0  0  0  0  0
  193.9630  176.2960  146.6860 C   0  0  0  0  0  1  0  0  0  0  0  0
  192.7940  175.3280  144.5190 C   0  0  1  0  0  3  0  0  0  0  0  0
  195.5570  176.3760  142.4520 C   0  0  0  0  0  2  0  0  0  0  0  0
  193.8640  173.3340  142.1420 C   0  0  0  0  0  1  0  0  0  0  0  0
  188.7370  177.2560  145.9900 C   0  0  0  0  0  3  0  0  0  0  0  0
  189.3600  176.4780  145.0100 C   0  0  0  0  0  0  0  0  0  0  0  0
  192.8550  174.3810  141.6840 C   0  0  2  0  0  3  0  0  0  0  0  0
  188.3940  173.1150  139.8060 C   0  0  0  0  0  2  0  0  0  0  0  0
  188.8220  174.0600  137.7990 O   0  0  0  0  0  1  0  0  0  0  0  0
  188.2310  174.3090  138.9920 N   0  0  0  0  0  2  0  0  0  0  0  0
  1  4  2  0  0  0  0
  1 19  1  0  0  0  0
  2 19  2  0  0  0  0
  2 13  1  0  0  0  0
  4 20  1  0  0  0  0
  5  1  1  0  0  0  0
  6  8  2  0  0  0  0
  7 15  1  6  0  0  0
  7  9  1  0  0  0  0
  8 11  1  0  0  0  0
  9 14  1  6  0  0  0
  9 22  1  0  0  0  0
 10  3  2  0  0  0  0
 10 21  1  0  0  0  0
 11 28  1  6  0  0  0
 11  5  1  0  0  0  0
 12  8  1  6  0  0  0
 12  4  1  0  0  0  0
 13 18  2  0  0  0  0
 15 23  1  0  0  0  0
 16  2  1  0  0  0  0
 17  3  1  0  0  0  0
 18 25  1  0  0  0  0
 19 26  1  0  0  0  0
 20 17  2  0  0  0  0
 22 20  1  6  0  0  0
 22 10  1  0  0  0  0
 23 14  1  0  0  0  0
 26 17  1  0  0  0  0
 26 25  2  0  0  0  0
 27  7  1  0  0  0  0
 27 12  1  0  0  0  0
 27 24  1  1  0  0  0
 29 30  1  0  0  0  0
 30 28  1  0  0  0  0
M  END
>  <MODEL>
9

>  <REMARK>
 VINA RESULT:      -7.5      2.612      6.082
  Name = 
  2 active torsions:
  status: ('A' for Active; 'I' for Inactive)
    1  A    between atoms: C_11  and  C_28
    2  A    between atoms: C_28  and  N_30
                            x       y       z     vdW  Elec       q    Type
                         _______ _______ _______ _____ _____    ______ ____

>  <TORSDO>
F 2

$$$$
