=
 OpenBabel11112416503D

 31 35  0  0  1  0  0  0  0  0999 V2000
  195.1890  175.5930  144.3690 C   0  0  0  0  0  0  0  0  0  0  0  0
  191.6170  176.7450  143.7670 C   0  0  2  0  0  3  0  0  0  0  0  0
  190.8920  175.5920  143.0880 C   0  0  0  0  0  0  0  0  0  0  0  0
  190.9180  173.4810  141.8770 C   0  0  0  0  0  0  0  0  0  0  0  0
  192.8720  176.3090  144.4860 C   0  0  0  0  0  0  0  0  0  0  0  0
  195.2000  175.3880  145.7500 C   0  0  0  0  0  3  0  0  0  0  0  0
  191.5980  174.5180  142.5220 C   0  0  0  0  0  3  0  0  0  0  0  0
  190.4230  176.7040  145.9810 C   0  0  2  0  0  3  0  0  0  0  0  0
  196.4090  175.3160  143.5670 C   0  0  0  0  0  1  0  0  0  0  0  0
  188.7570  176.7030  143.4730 O   0  0  0  0  0  0  0  0  0  0  0  0
  191.6270  172.4190  141.3360 O   0  0  0  0  0  1  0  0  0  0  0  0
  191.7270  176.4970  146.7540 C   0  0  0  0  0  2  0  0  0  0  0  0
  190.6850  177.5300  144.7120 C   0  0  2  0  0  3  0  0  0  0  0  0
  194.0300  176.0530  143.7400 C   0  0  0  0  0  3  0  0  0  0  0  0
  189.5260  173.5140  141.7790 C   0  0  0  0  0  3  0  0  0  0  0  0
  192.8860  176.1040  145.8830 C   0  0  0  0  0  0  0  0  0  0  0  0
  194.0540  175.6520  146.5050 C   0  0  0  0  0  3  0  0  0  0  0  0
  189.3940  177.8810  143.9660 C   0  0  0  0  0  2  0  0  0  0  0  0
  189.4880  175.6330  142.9520 C   0  0  0  0  0  0  0  0  0  0  0  0
  188.8130  174.5890  142.3130 C   0  0  0  0  0  3  0  0  0  0  0  0
  189.3990  177.3710  146.8940 C   0  0  0  0  0  2  0  0  0  0  0  0
  188.3160  175.2560  146.8890 O   0  0  0  0  0  0  0  0  0  0  0  0
  188.1890  176.5020  147.0210 C   0  0  0  0  0  0  0  0  0  0  0  0
  184.5650  178.3110  146.2800 C   0  0  1  0  0  3  0  0  0  0  0  0
  185.7840  176.3400  146.8590 O   0  0  0  0  0  0  0  0  0  0  0  0
  187.4520  178.9690  148.4630 O   0  0  0  0  0  0  0  0  0  0  0  0
  183.9270  179.0570  145.1270 C   0  0  0  0  0  1  0  0  0  0  0  0
  185.2050  177.0140  145.7700 C   0  0  0  0  0  2  0  0  0  0  0  0
  186.6830  178.4270  147.6250 C   0  0  0  0  0  0  0  0  0  0  0  0
  186.8810  177.0680  147.2040 N   0  0  0  0  0  0  0  0  0  0  0  0
  185.5880  179.2190  146.9790 C   0  0  0  0  0  2  0  0  0  0  0  0
  1  6  1  0  0  0  0
  2  3  1  1  0  0  0
  2  5  1  0  0  0  0
  2 13  1  0  0  0  0
  4  7  1  0  0  0  0
  5 16  2  0  0  0  0
  6 17  2  0  0  0  0
  7  3  2  0  0  0  0
  8 12  1  0  0  0  0
  8 21  1  1  0  0  0
  9  1  1  0  0  0  0
 10 18  1  0  0  0  0
 11  4  1  0  0  0  0
 13 18  1  6  0  0  0
 13  8  1  0  0  0  0
 14  1  2  0  0  0  0
 14  5  1  0  0  0  0
 15  4  2  0  0  0  0
 15 20  1  0  0  0  0
 16 17  1  0  0  0  0
 16 12  1  0  0  0  0
 19  3  1  0  0  0  0
 19 10  1  0  0  0  0
 20 19  2  0  0  0  0
 21 23  1  0  0  0  0
 22 23  2  0  0  0  0
 23 30  1  0  0  0  0
 24 27  1  6  0  0  0
 24 31  1  0  0  0  0
 25 30  1  0  0  0  0
 28 24  1  0  0  0  0
 28 25  1  0  0  0  0
 29 26  2  0  0  0  0
 30 29  1  0  0  0  0
 31 29  1  0  0  0  0
M  END
>  <MODEL>
1

>  <REMARK>
 VINA RESULT:      -9.1      0.000      0.000
  Name = 
  2 active torsions:
  status: ('A' for Active; 'I' for Inactive)
    1  A    between atoms: C_5  and  C_16
    2  A    between atoms: C_10  and  C_16
                            x       y       z     vdW  Elec       q    Type
                         _______ _______ _______ _____ _____    ______ ____

>  <TORSDO>
F 2

$$$$
=
 OpenBabel11112416503D

 31 35  0  0  1  0  0  0  0  0999 V2000
  185.4510  177.9880  147.0040 C   0  0  0  0  0  0  0  0  0  0  0  0
  187.7830  175.6810  145.0830 C   0  0  2  0  0  3  0  0  0  0  0  0
  187.6660  176.0630  143.6140 C   0  0  0  0  0  0  0  0  0  0  0  0
  186.5040  177.1840  141.7940 C   0  0  0  0  0  0  0  0  0  0  0  0
  187.3030  176.7700  146.0140 C   0  0  0  0  0  0  0  0  0  0  0  0
  186.3490  178.8470  147.6400 C   0  0  0  0  0  3  0  0  0  0  0  0
  186.6120  176.8660  143.1500 C   0  0  0  0  0  3  0  0  0  0  0  0
  190.1380  176.4620  145.5030 C   0  0  2  0  0  3  0  0  0  0  0  0
  183.9880  178.1780  147.1840 C   0  0  0  0  0  1  0  0  0  0  0  0
  189.6310  174.7130  143.1050 O   0  0  0  0  0  0  0  0  0  0  0  0
  185.4650  177.9900  141.3510 O   0  0  0  0  0  1  0  0  0  0  0  0
  189.6940  177.4060  146.6220 C   0  0  0  0  0  2  0  0  0  0  0  0
  189.2130  175.2350  145.4470 C   0  0  2  0  0  3  0  0  0  0  0  0
  185.9250  176.9530  146.1960 C   0  0  0  0  0  3  0  0  0  0  0  0
  187.4420  176.6910  140.8850 C   0  0  0  0  0  3  0  0  0  0  0  0
  188.2110  177.6380  146.6600 C   0  0  0  0  0  0  0  0  0  0  0  0
  187.7250  178.6660  147.4750 C   0  0  0  0  0  3  0  0  0  0  0  0
  189.6870  174.1920  144.4320 C   0  0  0  0  0  2  0  0  0  0  0  0
  188.5890  175.5420  142.6820 C   0  0  0  0  0  0  0  0  0  0  0  0
  188.4810  175.8700  141.3280 C   0  0  0  0  0  3  0  0  0  0  0  0
  191.5940  176.0690  145.7250 C   0  0  0  0  0  2  0  0  0  0  0  0
  191.8710  177.1170  143.6110 O   0  0  0  0  0  0  0  0  0  0  0  0
  192.4360  176.5740  144.5970 C   0  0  0  0  0  0  0  0  0  0  0  0
  196.1400  174.8280  144.1690 C   0  0  1  0  0  3  0  0  0  0  0  0
  194.5240  176.4070  143.3940 O   0  0  0  0  0  0  0  0  0  0  0  0
  194.2930  176.4800  146.8880 O   0  0  0  0  0  0  0  0  0  0  0  0
  196.6740  173.4270  143.9610 C   0  0  0  0  0  1  0  0  0  0  0  0
  194.9970  175.1000  143.1840 C   0  0  0  0  0  2  0  0  0  0  0  0
  194.5980  176.0130  145.7580 C   0  0  0  0  0  0  0  0  0  0  0  0
  193.8580  176.3720  144.5810 N   0  0  0  0  0  0  0  0  0  0  0  0
  195.6910  174.9970  145.6280 C   0  0  0  0  0  2  0  0  0  0  0  0
  1  9  1  0  0  0  0
  1  6  1  0  0  0  0
  2  3  1  6  0  0  0
  2 13  1  0  0  0  0
  2  5  1  0  0  0  0
  4  7  2  0  0  0  0
  5 14  1  0  0  0  0
  5 16  2  0  0  0  0
  7  3  1  0  0  0  0
  8 21  1  1  0  0  0
  8 12  1  0  0  0  0
 10 18  1  0  0  0  0
 11  4  1  0  0  0  0
 12 16  1  0  0  0  0
 13 18  1  6  0  0  0
 13  8  1  0  0  0  0
 14  1  2  0  0  0  0
 15 20  2  0  0  0  0
 15  4  1  0  0  0  0
 16 17  1  0  0  0  0
 17  6  2  0  0  0  0
 19 10  1  0  0  0  0
 19  3  2  0  0  0  0
 20 19  1  0  0  0  0
 22 23  2  0  0  0  0
 23 21  1  0  0  0  0
 24 27  1  1  0  0  0
 24 31  1  0  0  0  0
 25 30  1  0  0  0  0
 28 25  1  0  0  0  0
 28 24  1  0  0  0  0
 29 26  2  0  0  0  0
 30 23  1  0  0  0  0
 30 29  1  0  0  0  0
 31 29  1  0  0  0  0
M  END
>  <MODEL>
2

>  <REMARK>
 VINA RESULT:      -8.3      2.690      7.351
  Name = 
  2 active torsions:
  status: ('A' for Active; 'I' for Inactive)
    1  A    between atoms: C_5  and  C_16
    2  A    between atoms: C_10  and  C_16
                            x       y       z     vdW  Elec       q    Type
                         _______ _______ _______ _____ _____    ______ ____

>  <TORSDO>
F 2

$$$$
=
 OpenBabel11112416503D

 31 35  0  0  1  0  0  0  0  0999 V2000
  196.7080  170.8250  145.4510 C   0  0  0  0  0  0  0  0  0  0  0  0
  195.9490  174.5500  145.4030 C   0  0  2  0  0  3  0  0  0  0  0  0
  196.2240  175.0360  143.9860 C   0  0  0  0  0  0  0  0  0  0  0  0
  197.2200  174.7270  141.7880 C   0  0  0  0  0  0  0  0  0  0  0  0
  195.7470  173.0550  145.4830 C   0  0  0  0  0  0  0  0  0  0  0  0
  195.4290  170.2690  145.5130 C   0  0  0  0  0  3  0  0  0  0  0  0
  196.9520  174.2540  143.0750 C   0  0  0  0  0  3  0  0  0  0  0  0
  193.4470  174.8150  145.4260 C   0  0  2  0  0  3  0  0  0  0  0  0
  197.9010  169.9410  145.3940 C   0  0  0  0  0  1  0  0  0  0  0  0
  195.1100  177.1440  144.4910 O   0  0  0  0  0  0  0  0  0  0  0  0
  197.9280  173.9380  140.8920 O   0  0  0  0  0  1  0  0  0  0  0  0
  193.2280  173.3350  145.7460 C   0  0  0  0  0  2  0  0  0  0  0  0
  194.7670  175.3010  146.0460 C   0  0  2  0  0  3  0  0  0  0  0  0
  196.8660  172.2120  145.4370 C   0  0  0  0  0  3  0  0  0  0  0  0
  196.7740  175.9920  141.4020 C   0  0  0  0  0  3  0  0  0  0  0  0
  194.4540  172.4900  145.5490 C   0  0  0  0  0  0  0  0  0  0  0  0
  194.3060  171.0990  145.5710 C   0  0  0  0  0  3  0  0  0  0  0  0
  194.9750  176.8080  145.8710 C   0  0  0  0  0  2  0  0  0  0  0  0
  195.8080  176.3270  143.5980 C   0  0  0  0  0  0  0  0  0  0  0  0
  196.0710  176.7910  142.3060 C   0  0  0  0  0  3  0  0  0  0  0  0
  192.2520  175.6190  145.9260 C   0  0  0  0  0  2  0  0  0  0  0  0
  191.8140  176.3100  143.6950 O   0  0  0  0  0  0  0  0  0  0  0  0
  191.3280  175.9190  144.7900 C   0  0  0  0  0  0  0  0  0  0  0  0
  187.4510  176.8700  145.7990 C   0  0  1  0  0  3  0  0  0  0  0  0
  189.1000  176.5490  144.1010 O   0  0  0  0  0  0  0  0  0  0  0  0
  189.7690  174.1050  146.5180 O   0  0  0  0  0  0  0  0  0  0  0  0
  186.7650  177.9150  146.6530 C   0  0  0  0  0  1  0  0  0  0  0  0
  188.4830  177.5400  144.8850 C   0  0  0  0  0  2  0  0  0  0  0  0
  189.2840  175.1710  146.0550 C   0  0  0  0  0  0  0  0  0  0  0  0
  189.9020  175.8510  144.9510 N   0  0  0  0  0  0  0  0  0  0  0  0
  188.0920  175.8060  146.7040 C   0  0  0  0  0  2  0  0  0  0  0  0
  1  6  1  0  0  0  0
  2  3  1  6  0  0  0
  2  5  1  0  0  0  0
  2 13  1  0  0  0  0
  4  7  1  0  0  0  0
  5 16  2  0  0  0  0
  6 17  2  0  0  0  0
  7  3  2  0  0  0  0
  8 12  1  0  0  0  0
  8 21  1  1  0  0  0
  8 13  1  0  0  0  0
  9  1  1  0  0  0  0
 10 18  1  0  0  0  0
 11  4  1  0  0  0  0
 13 18  1  6  0  0  0
 14  1  2  0  0  0  0
 14  5  1  0  0  0  0
 15  4  2  0  0  0  0
 15 20  1  0  0  0  0
 16 17  1  0  0  0  0
 16 12  1  0  0  0  0
 19  3  1  0  0  0  0
 19 10  1  0  0  0  0
 20 19  2  0  0  0  0
 22 23  2  0  0  0  0
 23 30  1  0  0  0  0
 23 21  1  0  0  0  0
 24 27  1  1  0  0  0
 24 31  1  0  0  0  0
 25 28  1  0  0  0  0
 25 30  1  0  0  0  0
 28 24  1  0  0  0  0
 29 26  2  0  0  0  0
 29 31  1  0  0  0  0
 30 29  1  0  0  0  0
M  END
>  <MODEL>
3

>  <REMARK>
 VINA RESULT:      -8.3      3.033      5.119
  Name = 
  2 active torsions:
  status: ('A' for Active; 'I' for Inactive)
    1  A    between atoms: C_5  and  C_16
    2  A    between atoms: C_10  and  C_16
                            x       y       z     vdW  Elec       q    Type
                         _______ _______ _______ _____ _____    ______ ____

>  <TORSDO>
F 2

$$$$
=
 OpenBabel11112416503D

 31 35  0  0  1  0  0  0  0  0999 V2000
  194.0240  170.6790  144.7980 C   0  0  0  0  0  0  0  0  0  0  0  0
  194.3710  174.3510  145.7180 C   0  0  2  0  0  3  0  0  0  0  0  0
  195.2820  174.9810  144.6740 C   0  0  0  0  0  0  0  0  0  0  0  0
  196.9150  174.7850  142.8810 C   0  0  0  0  0  0  0  0  0  0  0  0
  193.7600  173.0480  145.2570 C   0  0  0  0  0  0  0  0  0  0  0  0
  192.7180  170.6240  144.3060 C   0  0  0  0  0  3  0  0  0  0  0  0
  196.0630  174.1910  143.8150 C   0  0  0  0  0  3  0  0  0  0  0  0
  192.2180  175.4960  145.0970 C   0  0  2  0  0  3  0  0  0  0  0  0
  194.8640  169.4530  144.8130 C   0  0  0  0  0  1  0  0  0  0  0  0
  194.6710  177.2000  145.4760 O   0  0  0  0  0  0  0  0  0  0  0  0
  197.6700  173.9930  142.0280 O   0  0  0  0  0  1  0  0  0  0  0  0
  191.5060  174.1640  144.8520 C   0  0  0  0  0  2  0  0  0  0  0  0
  193.2820  175.3320  146.1950 C   0  0  2  0  0  3  0  0  0  0  0  0
  194.5420  171.8850  145.2730 C   0  0  0  0  0  3  0  0  0  0  0  0
  197.0060  176.1770  142.8050 C   0  0  0  0  0  3  0  0  0  0  0  0
  192.4380  172.9910  144.7610 C   0  0  0  0  0  0  0  0  0  0  0  0
  191.9260  171.7750  144.2970 C   0  0  0  0  0  3  0  0  0  0  0  0
  193.9370  176.6630  146.5760 C   0  0  0  0  0  2  0  0  0  0  0  0
  195.4080  176.3850  144.6130 C   0  0  0  0  0  0  0  0  0  0  0  0
  196.2560  176.9740  143.6710 C   0  0  0  0  0  3  0  0  0  0  0  0
  191.1860  176.5590  145.4570 C   0  0  0  0  0  2  0  0  0  0  0  0
  190.3380  176.6740  143.2400 O   0  0  0  0  0  0  0  0  0  0  0  0
  190.0690  176.5410  144.4640 C   0  0  0  0  0  0  0  0  0  0  0  0
  186.3470  177.5670  145.8950 C   0  0  1  0  0  3  0  0  0  0  0  0
  187.7160  176.9060  144.0530 O   0  0  0  0  0  0  0  0  0  0  0  0
  188.9580  175.1430  146.8130 O   0  0  0  0  0  0  0  0  0  0  0  0
  185.7310  178.7620  146.5910 C   0  0  0  0  0  1  0  0  0  0  0  0
  187.1610  178.0330  144.6820 C   0  0  0  0  0  2  0  0  0  0  0  0
  188.3220  176.0480  146.2090 C   0  0  0  0  0  0  0  0  0  0  0  0
  188.6980  176.4640  144.8860 N   0  0  0  0  0  0  0  0  0  0  0  0
  187.2070  176.7770  146.8930 C   0  0  0  0  0  2  0  0  0  0  0  0
  1  9  1  0  0  0  0
  1 14  1  0  0  0  0
  2  3  1  6  0  0  0
  2 13  1  0  0  0  0
  4  7  1  0  0  0  0
  5 14  2  0  0  0  0
  5  2  1  0  0  0  0
  6  1  2  0  0  0  0
  7  3  2  0  0  0  0
  8 21  1  1  0  0  0
  8 13  1  0  0  0  0
 10 18  1  0  0  0  0
 11  4  1  0  0  0  0
 12  8  1  0  0  0  0
 13 18  1  6  0  0  0
 15  4  2  0  0  0  0
 15 20  1  0  0  0  0
 16 12  1  0  0  0  0
 16  5  1  0  0  0  0
 17  6  1  0  0  0  0
 17 16  2  0  0  0  0
 19  3  1  0  0  0  0
 19 10  1  0  0  0  0
 20 19  2  0  0  0  0
 22 23  2  0  0  0  0
 23 30  1  0  0  0  0
 23 21  1  0  0  0  0
 24 27  1  1  0  0  0
 24 31  1  0  0  0  0
 25 28  1  0  0  0  0
 25 30  1  0  0  0  0
 28 24  1  0  0  0  0
 29 26  2  0  0  0  0
 29 31  1  0  0  0  0
 30 29  1  0  0  0  0
M  END
>  <MODEL>
4

>  <REMARK>
 VINA RESULT:      -8.1      2.778      4.663
  Name = 
  2 active torsions:
  status: ('A' for Active; 'I' for Inactive)
    1  A    between atoms: C_5  and  C_16
    2  A    between atoms: C_10  and  C_16
                            x       y       z     vdW  Elec       q    Type
                         _______ _______ _______ _____ _____    ______ ____

>  <TORSDO>
F 2

$$$$
=
 OpenBabel11112416503D

 31 35  0  0  1  0  0  0  0  0999 V2000
  186.1700  178.4620  146.8990 C   0  0  0  0  0  0  0  0  0  0  0  0
  188.9890  177.7430  144.4510 C   0  0  2  0  0  3  0  0  0  0  0  0
  190.1150  177.1080  145.2540 C   0  0  0  0  0  0  0  0  0  0  0  0
  191.1920  176.6020  147.3770 C   0  0  0  0  0  0  0  0  0  0  0  0
  187.6510  177.6610  145.1490 C   0  0  0  0  0  0  0  0  0  0  0  0
  185.2320  177.4850  146.5580 C   0  0  0  0  0  3  0  0  0  0  0  0
  190.1350  177.1660  146.6560 C   0  0  0  0  0  3  0  0  0  0  0  0
  188.3120  175.7440  143.0810 C   0  0  2  0  0  3  0  0  0  0  0  0
  185.8890  179.4050  148.0130 C   0  0  0  0  0  1  0  0  0  0  0  0
  191.2330  176.4690  143.1840 O   0  0  0  0  0  0  0  0  0  0  0  0
  191.1910  176.6540  148.7630 O   0  0  0  0  0  1  0  0  0  0  0  0
  186.8750  175.7910  143.6030 C   0  0  0  0  0  2  0  0  0  0  0  0
  188.9030  177.1620  143.0260 C   0  0  2  0  0  3  0  0  0  0  0  0
  187.3740  178.5500  146.1970 C   0  0  0  0  0  3  0  0  0  0  0  0
  192.2470  175.9860  146.7010 C   0  0  0  0  0  3  0  0  0  0  0  0
  186.7000  176.6750  144.8040 C   0  0  0  0  0  0  0  0  0  0  0  0
  185.4940  176.6010  145.5080 C   0  0  0  0  0  3  0  0  0  0  0  0
  190.2940  177.1910  142.3880 C   0  0  0  0  0  2  0  0  0  0  0  0
  191.2040  176.5140  144.5800 C   0  0  0  0  0  0  0  0  0  0  0  0
  192.2540  175.9450  145.3060 C   0  0  0  0  0  3  0  0  0  0  0  0
  188.3290  175.0650  141.7160 C   0  0  0  0  0  2  0  0  0  0  0  0
  187.3130  172.9380  142.0130 O   0  0  0  0  0  0  0  0  0  0  0  0
  188.3890  173.5810  141.8850 C   0  0  0  0  0  0  0  0  0  0  0  0
  191.9080  172.0610  143.3880 C   0  0  1  0  0  3  0  0  0  0  0  0
  189.6900  171.6710  142.5910 O   0  0  0  0  0  0  0  0  0  0  0  0
  190.9540  174.2550  140.5930 O   0  0  0  0  0  0  0  0  0  0  0  0
  192.7400  172.2520  144.6380 C   0  0  0  0  0  1  0  0  0  0  0  0
  190.4370  171.8520  143.7680 C   0  0  0  0  0  2  0  0  0  0  0  0
  190.8880  173.4940  141.5950 C   0  0  0  0  0  0  0  0  0  0  0  0
  189.6450  172.8930  141.9910 N   0  0  0  0  0  0  0  0  0  0  0  0
  192.0930  173.2670  142.4550 C   0  0  0  0  0  2  0  0  0  0  0  0
  1  9  1  0  0  0  0
  2  5  1  1  0  0  0
  2  3  1  0  0  0  0
  3  7  1  0  0  0  0
  4 11  1  0  0  0  0
  5 14  1  0  0  0  0
  6  1  1  0  0  0  0
  7  4  2  0  0  0  0
  8 21  1  6  0  0  0
  8 12  1  0  0  0  0
 10 19  1  0  0  0  0
 12 16  1  0  0  0  0
 13 18  1  1  0  0  0
 13  8  1  0  0  0  0
 13  2  1  0  0  0  0
 14  1  2  0  0  0  0
 15  4  1  0  0  0  0
 16  5  2  0  0  0  0
 16 17  1  0  0  0  0
 17  6  2  0  0  0  0
 18 10  1  0  0  0  0
 19  3  2  0  0  0  0
 19 20  1  0  0  0  0
 20 15  2  0  0  0  0
 21 23  1  0  0  0  0
 23 30  1  0  0  0  0
 23 22  2  0  0  0  0
 24 28  1  0  0  0  0
 24 27  1  1  0  0  0
 25 28  1  0  0  0  0
 26 29  2  0  0  0  0
 29 30  1  0  0  0  0
 29 31  1  0  0  0  0
 30 25  1  0  0  0  0
 31 24  1  0  0  0  0
M  END
>  <MODEL>
5

>  <REMARK>
 VINA RESULT:      -8.0      2.578      7.178
  Name = 
  2 active torsions:
  status: ('A' for Active; 'I' for Inactive)
    1  A    between atoms: C_5  and  C_16
    2  A    between atoms: C_10  and  C_16
                            x       y       z     vdW  Elec       q    Type
                         _______ _______ _______ _____ _____    ______ ____

>  <TORSDO>
F 2

$$$$
=
 OpenBabel11112416503D

 31 35  0  0  1  0  0  0  0  0999 V2000
  185.8450  178.9390  143.3300 C   0  0  0  0  0  0  0  0  0  0  0  0
  189.1540  177.1180  143.7620 C   0  0  2  0  0  3  0  0  0  0  0  0
  189.0470  176.3120  145.0490 C   0  0  0  0  0  0  0  0  0  0  0  0
  187.9600  175.8310  147.1720 C   0  0  0  0  0  0  0  0  0  0  0  0
  187.8080  177.5160  143.2030 C   0  0  0  0  0  0  0  0  0  0  0  0
  185.2560  178.2270  142.2830 C   0  0  0  0  0  3  0  0  0  0  0  0
  188.0280  176.5600  145.9830 C   0  0  0  0  0  3  0  0  0  0  0  0
  189.1950  175.2170  142.1150 C   0  0  2  0  0  3  0  0  0  0  0  0
  185.1170  180.0710  143.9610 C   0  0  0  0  0  1  0  0  0  0  0  0
  191.0770  175.0990  144.4620 O   0  0  0  0  0  0  0  0  0  0  0  0
  186.9400  176.0760  148.0800 O   0  0  0  0  0  1  0  0  0  0  0  0
  187.9570  175.7390  141.3830 C   0  0  0  0  0  2  0  0  0  0  0  0
  189.9990  176.3890  142.6990 C   0  0  2  0  0  3  0  0  0  0  0  0
  187.1160  178.5860  143.7870 C   0  0  0  0  0  3  0  0  0  0  0  0
  188.9190  174.8540  147.4480 C   0  0  0  0  0  3  0  0  0  0  0  0
  187.2110  176.7980  142.1420 C   0  0  0  0  0  0  0  0  0  0  0  0
  185.9410  177.1660  141.6860 C   0  0  0  0  0  3  0  0  0  0  0  0
  191.3180  175.9350  143.3310 C   0  0  0  0  0  2  0  0  0  0  0  0
  190.0310  175.3480  145.3530 C   0  0  0  0  0  0  0  0  0  0  0  0
  189.9530  174.6150  146.5400 C   0  0  0  0  0  3  0  0  0  0  0  0
  190.0280  174.3740  141.1550 C   0  0  0  0  0  2  0  0  0  0  0  0
  189.0140  172.2910  141.6810 O   0  0  0  0  0  0  0  0  0  0  0  0
  190.0810  172.9590  141.6340 C   0  0  0  0  0  0  0  0  0  0  0  0
  193.2560  171.9780  144.0650 C   0  0  1  0  0  3  0  0  0  0  0  0
  191.2500  171.3070  142.9540 O   0  0  0  0  0  0  0  0  0  0  0  0
  192.8400  173.5170  140.7500 O   0  0  0  0  0  0  0  0  0  0  0  0
  193.8160  172.4620  145.3860 C   0  0  0  0  0  1  0  0  0  0  0  0
  191.7430  171.7610  144.1900 C   0  0  0  0  0  2  0  0  0  0  0  0
  192.5890  172.9660  141.8550 C   0  0  0  0  0  0  0  0  0  0  0  0
  191.3040  172.3810  142.1180 N   0  0  0  0  0  0  0  0  0  0  0  0
  193.6010  172.9860  142.9590 C   0  0  0  0  0  2  0  0  0  0  0  0
  1 14  1  0  0  0  0
  1  9  1  0  0  0  0
  2  5  1  6  0  0  0
  2  3  1  0  0  0  0
  3 19  2  0  0  0  0
  3  7  1  0  0  0  0
  4 15  1  0  0  0  0
  4 11  1  0  0  0  0
  5 14  2  0  0  0  0
  6  1  2  0  0  0  0
  7  4  2  0  0  0  0
  8 21  1  6  0  0  0
  8 13  1  0  0  0  0
 10 19  1  0  0  0  0
 12  8  1  0  0  0  0
 12 16  1  0  0  0  0
 13 18  1  1  0  0  0
 13  2  1  0  0  0  0
 16  5  1  0  0  0  0
 17 16  2  0  0  0  0
 17  6  1  0  0  0  0
 18 10  1  0  0  0  0
 19 20  1  0  0  0  0
 20 15  2  0  0  0  0
 21 23  1  0  0  0  0
 23 22  2  0  0  0  0
 23 30  1  0  0  0  0
 24 28  1  0  0  0  0
 24 27  1  1  0  0  0
 25 28  1  0  0  0  0
 26 29  2  0  0  0  0
 29 30  1  0  0  0  0
 29 31  1  0  0  0  0
 30 25  1  0  0  0  0
 31 24  1  0  0  0  0
M  END
>  <MODEL>
6

>  <REMARK>
 VINA RESULT:      -7.9      2.695      7.688
  Name = 
  2 active torsions:
  status: ('A' for Active; 'I' for Inactive)
    1  A    between atoms: C_5  and  C_16
    2  A    between atoms: C_10  and  C_16
                            x       y       z     vdW  Elec       q    Type
                         _______ _______ _______ _____ _____    ______ ____

>  <TORSDO>
F 2

$$$$
=
 OpenBabel11112416503D

 31 35  0  0  1  0  0  0  0  0999 V2000
  186.4850  178.1560  147.1030 C   0  0  0  0  0  0  0  0  0  0  0  0
  189.2440  177.5080  144.5700 C   0  0  2  0  0  3  0  0  0  0  0  0
  190.2440  176.5740  145.2390 C   0  0  0  0  0  0  0  0  0  0  0  0
  191.1710  175.5250  147.2290 C   0  0  0  0  0  0  0  0  0  0  0  0
  187.8880  177.4930  145.2370 C   0  0  0  0  0  0  0  0  0  0  0  0
  185.4270  177.4090  146.5790 C   0  0  0  0  0  3  0  0  0  0  0  0
  190.2290  176.3630  146.6270 C   0  0  0  0  0  3  0  0  0  0  0  0
  188.3310  175.9240  142.8410 C   0  0  2  0  0  3  0  0  0  0  0  0
  186.3080  178.9020  148.3760 C   0  0  0  0  0  1  0  0  0  0  0  0
  191.3200  176.1810  143.0880 O   0  0  0  0  0  0  0  0  0  0  0  0
  191.1360  175.3130  148.6000 O   0  0  0  0  0  1  0  0  0  0  0  0
  186.9000  176.0830  143.3590 C   0  0  0  0  0  2  0  0  0  0  0  0
  189.1190  177.2250  143.0600 C   0  0  2  0  0  3  0  0  0  0  0  0
  187.7090  178.1990  146.4340 C   0  0  0  0  0  3  0  0  0  0  0  0
  192.1470  174.9000  146.4510 C   0  0  0  0  0  3  0  0  0  0  0  0
  186.8170  176.7400  144.7070 C   0  0  0  0  0  0  0  0  0  0  0  0
  185.5910  176.7110  145.3800 C   0  0  0  0  0  3  0  0  0  0  0  0
  190.5200  177.1700  142.4420 C   0  0  0  0  0  2  0  0  0  0  0  0
  191.2560  175.9660  144.4670 C   0  0  0  0  0  0  0  0  0  0  0  0
  192.1900  175.1220  145.0730 C   0  0  0  0  0  3  0  0  0  0  0  0
  188.2920  175.5210  141.3710 C   0  0  0  0  0  2  0  0  0  0  0  0
  188.3770  173.3290  142.2840 O   0  0  0  0  0  0  0  0  0  0  0  0
  188.4410  174.0390  141.2460 C   0  0  0  0  0  0  0  0  0  0  0  0
  190.4790  172.6920  137.9310 C   0  0  1  0  0  3  0  0  0  0  0  0
  189.3190  172.1920  139.9580 O   0  0  0  0  0  0  0  0  0  0  0  0
  187.6050  174.9030  138.5510 O   0  0  0  0  0  0  0  0  0  0  0  0
  191.8530  172.8980  137.3300 C   0  0  0  0  0  1  0  0  0  0  0  0
  190.6060  172.3840  139.4280 C   0  0  0  0  0  2  0  0  0  0  0  0
  188.5690  174.1120  138.7320 C   0  0  0  0  0  0  0  0  0  0  0  0
  188.7420  173.4250  139.9820 N   0  0  0  0  0  0  0  0  0  0  0  0
  189.6130  173.9340  137.6730 C   0  0  0  0  0  2  0  0  0  0  0  0
  1  9  1  0  0  0  0
  2  5  1  1  0  0  0
  2  3  1  0  0  0  0
  3  7  1  0  0  0  0
  4 11  1  0  0  0  0
  5 14  1  0  0  0  0
  6  1  1  0  0  0  0
  7  4  2  0  0  0  0
  8 21  1  6  0  0  0
  8 13  1  0  0  0  0
  8 12  1  0  0  0  0
 10 19  1  0  0  0  0
 12 16  1  0  0  0  0
 13 18  1  1  0  0  0
 13  2  1  0  0  0  0
 14  1  2  0  0  0  0
 15  4  1  0  0  0  0
 16  5  2  0  0  0  0
 16 17  1  0  0  0  0
 17  6  2  0  0  0  0
 18 10  1  0  0  0  0
 19 20  1  0  0  0  0
 19  3  2  0  0  0  0
 20 15  2  0  0  0  0
 23 21  1  0  0  0  0
 23 22  2  0  0  0  0
 24 27  1  1  0  0  0
 24 28  1  0  0  0  0
 25 30  1  0  0  0  0
 26 29  2  0  0  0  0
 28 25  1  0  0  0  0
 29 30  1  0  0  0  0
 30 23  1  0  0  0  0
 31 24  1  0  0  0  0
 31 29  1  0  0  0  0
M  END
>  <MODEL>
7

>  <REMARK>
 VINA RESULT:      -7.8      2.836      7.517
  Name = 
  2 active torsions:
  status: ('A' for Active; 'I' for Inactive)
    1  A    between atoms: C_5  and  C_16
    2  A    between atoms: C_10  and  C_16
                            x       y       z     vdW  Elec       q    Type
                         _______ _______ _______ _____ _____    ______ ____

>  <TORSDO>
F 2

$$$$
=
 OpenBabel11112416503D

 31 35  0  0  1  0  0  0  0  0999 V2000
  186.5580  178.0100  143.3090 C   0  0  0  0  0  0  0  0  0  0  0  0
  190.2100  176.9840  143.5510 C   0  0  2  0  0  3  0  0  0  0  0  0
  190.5600  176.9530  145.0320 C   0  0  0  0  0  0  0  0  0  0  0  0
  190.0800  177.5410  147.3430 C   0  0  0  0  0  0  0  0  0  0  0  0
  188.7220  176.9110  143.2960 C   0  0  0  0  0  0  0  0  0  0  0  0
  185.9410  176.8100  142.9500 C   0  0  0  0  0  3  0  0  0  0  0  0
  189.7290  177.5540  145.9910 C   0  0  0  0  0  3  0  0  0  0  0  0
  190.3390  174.5170  143.0690 C   0  0  2  0  0  3  0  0  0  0  0  0
  185.7390  179.2340  143.5130 C   0  0  0  0  0  1  0  0  0  0  0  0
  192.6450  175.8000  144.5180 O   0  0  0  0  0  0  0  0  0  0  0  0
  189.2420  178.1260  148.2830 O   0  0  0  0  0  1  0  0  0  0  0  0
  188.8900  174.4720  142.5790 C   0  0  0  0  0  2  0  0  0  0  0  0
  190.9580  175.8900  142.7630 C   0  0  2  0  0  3  0  0  0  0  0  0
  187.9430  178.0610  143.4800 C   0  0  0  0  0  3  0  0  0  0  0  0
  191.2720  176.9390  147.7500 C   0  0  0  0  0  3  0  0  0  0  0  0
  188.0970  175.6980  142.9310 C   0  0  0  0  0  0  0  0  0  0  0  0
  186.7110  175.6600  142.7530 C   0  0  0  0  0  3  0  0  0  0  0  0
  192.4480  175.9500  143.1120 C   0  0  0  0  0  2  0  0  0  0  0  0
  191.7790  176.3780  145.4490 C   0  0  0  0  0  0  0  0  0  0  0  0
  192.1200  176.3600  146.8040 C   0  0  0  0  0  3  0  0  0  0  0  0
  191.1230  173.3800  142.4240 C   0  0  0  0  0  2  0  0  0  0  0  0
  190.7190  171.7790  144.1330 O   0  0  0  0  0  0  0  0  0  0  0  0
  191.5810  172.4180  143.4720 C   0  0  0  0  0  0  0  0  0  0  0  0
  195.3250  173.0910  145.0490 C   0  0  1  0  0  3  0  0  0  0  0  0
  193.3290  171.7790  145.0130 O   0  0  0  0  0  0  0  0  0  0  0  0
  193.9090  172.6790  141.6780 O   0  0  0  0  0  0  0  0  0  0  0  0
  196.0260  174.2270  145.7630 C   0  0  0  0  0  1  0  0  0  0  0  0
  193.9550  172.8400  145.6900 C   0  0  0  0  0  2  0  0  0  0  0  0
  194.0170  172.7510  142.9310 C   0  0  0  0  0  0  0  0  0  0  0  0
  192.9740  172.2760  143.7960 N   0  0  0  0  0  0  0  0  0  0  0  0
  195.2060  173.4180  143.5520 C   0  0  0  0  0  2  0  0  0  0  0  0
  1 14  1  0  0  0  0
  1  9  1  0  0  0  0
  2  5  1  1  0  0  0
  2  3  1  0  0  0  0
  3 19  2  0  0  0  0
  3  7  1  0  0  0  0
  4 15  1  0  0  0  0
  4 11  1  0  0  0  0
  5 14  2  0  0  0  0
  6  1  2  0  0  0  0
  7  4  2  0  0  0  0
  8 21  1  6  0  0  0
 10 19  1  0  0  0  0
 12 16  1  0  0  0  0
 12  8  1  0  0  0  0
 13  8  1  0  0  0  0
 13 18  1  1  0  0  0
 13  2  1  0  0  0  0
 16  5  1  0  0  0  0
 17 16  2  0  0  0  0
 17  6  1  0  0  0  0
 18 10  1  0  0  0  0
 19 20  1  0  0  0  0
 20 15  2  0  0  0  0
 21 23  1  0  0  0  0
 23 30  1  0  0  0  0
 23 22  2  0  0  0  0
 24 28  1  0  0  0  0
 24 27  1  1  0  0  0
 25 28  1  0  0  0  0
 26 29  2  0  0  0  0
 29 31  1  0  0  0  0
 29 30  1  0  0  0  0
 30 25  1  0  0  0  0
 31 24  1  0  0  0  0
M  END
>  <MODEL>
8

>  <REMARK>
 VINA RESULT:      -7.8      2.626      7.723
  Name = 
  2 active torsions:
  status: ('A' for Active; 'I' for Inactive)
    1  A    between atoms: C_5  and  C_16
    2  A    between atoms: C_10  and  C_16
                            x       y       z     vdW  Elec       q    Type
                         _______ _______ _______ _____ _____    ______ ____

>  <TORSDO>
F 2

$$$$
=
 OpenBabel11112416503D

 31 35  0  0  1  0  0  0  0  0999 V2000
  187.6850  177.0700  146.5400 C   0  0  0  0  0  0  0  0  0  0  0  0
  188.1740  175.2320  143.2480 C   0  0  2  0  0  3  0  0  0  0  0  0
  187.5110  176.0790  142.1700 C   0  0  0  0  0  0  0  0  0  0  0  0
  185.9990  177.8620  141.4970 C   0  0  0  0  0  0  0  0  0  0  0  0
  188.4820  176.0150  144.5040 C   0  0  0  0  0  0  0  0  0  0  0  0
  188.9680  177.5600  146.7930 C   0  0  0  0  0  3  0  0  0  0  0  0
  186.6210  177.1130  142.4990 C   0  0  0  0  0  3  0  0  0  0  0  0
  190.5750  175.5360  142.5590 C   0  0  2  0  0  3  0  0  0  0  0  0
  186.5750  177.3740  147.4800 C   0  0  0  0  0  1  0  0  0  0  0  0
  188.5860  174.7300  140.4480 O   0  0  0  0  0  0  0  0  0  0  0  0
  185.1320  178.8910  141.8360 O   0  0  0  0  0  1  0  0  0  0  0  0
  190.9600  176.1170  143.9210 C   0  0  0  0  0  2  0  0  0  0  0  0
  189.4350  174.5180  142.7210 C   0  0  2  0  0  3  0  0  0  0  0  0
  187.4430  176.3000  145.4010 C   0  0  0  0  0  3  0  0  0  0  0  0
  186.2510  177.5750  140.1540 C   0  0  0  0  0  3  0  0  0  0  0  0
  189.7800  176.5080  144.7630 C   0  0  0  0  0  0  0  0  0  0  0  0
  190.0140  177.2710  145.9120 C   0  0  0  0  0  3  0  0  0  0  0  0
  189.0960  173.8060  141.4080 C   0  0  0  0  0  2  0  0  0  0  0  0
  187.7310  175.7740  140.8100 C   0  0  0  0  0  0  0  0  0  0  0  0
  187.1140  176.5320  139.8120 C   0  0  0  0  0  3  0  0  0  0  0  0
  191.8070  174.9130  141.9120 C   0  0  0  0  0  2  0  0  0  0  0  0
  192.0950  172.8700  143.0900 O   0  0  0  0  0  0  0  0  0  0  0  0
  192.5160  174.0420  142.8990 C   0  0  0  0  0  0  0  0  0  0  0  0
  194.6620  175.9840  145.8270 C   0  0  1  0  0  3  0  0  0  0  0  0
  193.9200  173.9290  144.8610 O   0  0  0  0  0  0  0  0  0  0  0  0
  194.5340  176.0610  142.1520 O   0  0  0  0  0  0  0  0  0  0  0  0
  194.3680  176.9990  146.9110 C   0  0  0  0  0  1  0  0  0  0  0  0
  193.6210  174.8590  145.8720 C   0  0  0  0  0  2  0  0  0  0  0  0
  194.3080  175.7520  143.3520 C   0  0  0  0  0  0  0  0  0  0  0  0
  193.6060  174.5440  143.6880 N   0  0  0  0  0  0  0  0  0  0  0  0
  194.6920  176.6830  144.4600 C   0  0  0  0  0  2  0  0  0  0  0  0
  1  6  1  0  0  0  0
  1  9  1  0  0  0  0
  2  3  1  6  0  0  0
  2  5  1  0  0  0  0
  3  7  1  0  0  0  0
  4 11  1  0  0  0  0
  4  7  2  0  0  0  0
  5 16  2  0  0  0  0
  5 14  1  0  0  0  0
  8 21  1  1  0  0  0
  8 13  1  0  0  0  0
  8 12  1  0  0  0  0
 10 19  1  0  0  0  0
 10 18  1  0  0  0  0
 12 16  1  0  0  0  0
 13 18  1  6  0  0  0
 13  2  1  0  0  0  0
 14  1  2  0  0  0  0
 15  4  1  0  0  0  0
 16 17  1  0  0  0  0
 17  6  2  0  0  0  0
 19  3  2  0  0  0  0
 20 15  2  0  0  0  0
 20 19  1  0  0  0  0
 21 23  1  0  0  0  0
 23 22  2  0  0  0  0
 23 30  1  0  0  0  0
 24 28  1  0  0  0  0
 24 27  1  1  0  0  0
 25 28  1  0  0  0  0
 26 29  2  0  0  0  0
 29 30  1  0  0  0  0
 29 31  1  0  0  0  0
 30 25  1  0  0  0  0
 31 24  1  0  0  0  0
M  END
>  <MODEL>
9

>  <REMARK>
 VINA RESULT:      -7.8      2.894      6.861
  Name = 
  2 active torsions:
  status: ('A' for Active; 'I' for Inactive)
    1  A    between atoms: C_5  and  C_16
    2  A    between atoms: C_10  and  C_16
                            x       y       z     vdW  Elec       q    Type
                         _______ _______ _______ _____ _____    ______ ____

>  <TORSDO>
F 2

$$$$
