=
 OpenBabel11112417043D

 31 35  0  0  1  0  0  0  0  0999 V2000
  194.6340  176.3550  144.7720 C   0  0  0  0  0  0  0  0  0  0  0  0
  191.1530  176.8510  143.3240 C   0  0  2  0  0  3  0  0  0  0  0  0
  190.8130  175.5770  142.5630 C   0  0  0  0  0  0  0  0  0  0  0  0
  191.4900  173.5070  141.4800 C   0  0  0  0  0  0  0  0  0  0  0  0
  192.2650  176.6590  144.3290 C   0  0  0  0  0  0  0  0  0  0  0  0
  194.3630  176.1970  146.1330 C   0  0  0  0  0  3  0  0  0  0  0  0
  191.8100  174.6560  142.2040 C   0  0  0  0  0  3  0  0  0  0  0  0
  189.5100  176.6610  145.2260 C   0  0  2  0  0  3  0  0  0  0  0  0
  195.9730  176.2750  144.2990 N   0  0  0  0  0  1  0  0  0  0  0  0
  188.4770  176.2640  142.4400 O   0  0  0  0  0  0  0  0  0  0  0  0
  192.5550  172.5340  141.1200 C   0  0  0  0  0  1  0  0  0  0  0  0
  190.6210  176.7200  146.2760 C   0  0  0  0  0  2  0  0  0  0  0  0
  189.9090  177.4750  143.9880 C   0  0  2  0  0  3  0  0  0  0  0  0
  193.5890  176.5860  143.8750 C   0  0  0  0  0  3  0  0  0  0  0  0
  190.1690  173.2720  141.0900 C   0  0  0  0  0  3  0  0  0  0  0  0
  191.9950  176.5030  145.7080 C   0  0  0  0  0  0  0  0  0  0  0  0
  193.0500  176.2820  146.5990 C   0  0  0  0  0  3  0  0  0  0  0  0
  188.7710  177.5560  142.9700 C   0  0  0  0  0  2  0  0  0  0  0  0
  189.4880  175.3480  142.1350 C   0  0  0  0  0  0  0  0  0  0  0  0
  189.1700  174.1910  141.4170 C   0  0  0  0  0  3  0  0  0  0  0  0
  187.9560  175.3670  147.2390 O   0  0  0  0  0  0  0  0  0  0  0  0
  187.5510  176.4850  146.8160 C   0  0  0  0  0  0  0  0  0  0  0  0
  188.2770  177.1800  145.8020 N   0  0  0  0  0  2  0  0  0  0  0  0
  184.7200  179.0090  145.7020 C   0  0  1  0  0  3  0  0  0  0  0  0
  185.0770  176.6980  146.5380 C   0  0  0  0  0  2  0  0  0  0  0  0
  187.1840  179.0690  148.3980 O   0  0  0  0  0  0  0  0  0  0  0  0
  184.6570  179.8200  144.5710 O   0  0  0  0  0  1  0  0  0  0  0  0
  184.9420  177.5610  145.2870 C   0  0  0  0  0  2  0  0  0  0  0  0
  186.4410  178.5900  147.5030 C   0  0  0  0  0  0  0  0  0  0  0  0
  186.3020  177.0970  147.3690 C   0  0  2  0  0  3  0  0  0  0  0  0
  185.7940  179.4680  146.5760 N   0  0  0  0  0  2  0  0  0  0  0  0
  1  6  1  0  0  0  0
  2  3  1  1  0  0  0
  2 13  1  0  0  0  0
  2  5  1  0  0  0  0
  4  7  2  0  0  0  0
  5 16  2  0  0  0  0
  6 17  2  0  0  0  0
  7  3  1  0  0  0  0
  8 23  1  1  0  0  0
  8 12  1  0  0  0  0
  9  1  1  0  0  0  0
 10 18  1  0  0  0  0
 11  4  1  0  0  0  0
 13 18  1  6  0  0  0
 13  8  1  0  0  0  0
 14  5  1  0  0  0  0
 14  1  2  0  0  0  0
 15 20  2  0  0  0  0
 15  4  1  0  0  0  0
 16 12  1  0  0  0  0
 16 17  1  0  0  0  0
 19 10  1  0  0  0  0
 19  3  2  0  0  0  0
 20 19  1  0  0  0  0
 22 21  2  0  0  0  0
 23 22  1  0  0  0  0
 24 27  1  6  0  0  0
 24 31  1  0  0  0  0
 25 30  1  0  0  0  0
 28 24  1  0  0  0  0
 28 25  1  0  0  0  0
 29 26  2  0  0  0  0
 30 22  1  6  0  0  0
 30 29  1  0  0  0  0
 31 29  1  0  0  0  0
M  END
>  <MODEL>
1

>  <REMARK>
 VINA RESULT:      -9.1      0.000      0.000
  Name = 
  2 active torsions:
  status: ('A' for Active; 'I' for Inactive)
    1  A    between atoms: C_5  and  C_30
    2  A    between atoms: C_10  and  N_16
                            x       y       z     vdW  Elec       q    Type
                         _______ _______ _______ _____ _____    ______ ____

>  <TORSDO>
F 2

$$$$
=
 OpenBabel11112417043D

 31 35  0  0  1  0  0  0  0  0999 V2000
  185.1100  178.0990  146.8850 C   0  0  0  0  0  0  0  0  0  0  0  0
  187.6300  175.7020  145.3470 C   0  0  2  0  0  3  0  0  0  0  0  0
  187.6900  176.0290  143.8620 C   0  0  0  0  0  0  0  0  0  0  0  0
  186.7380  177.0590  141.8750 C   0  0  0  0  0  0  0  0  0  0  0  0
  187.0540  176.8270  146.1760 C   0  0  0  0  0  0  0  0  0  0  0  0
  185.9340  178.9630  147.6080 C   0  0  0  0  0  3  0  0  0  0  0  0
  186.6870  176.7930  143.2440 C   0  0  0  0  0  3  0  0  0  0  0  0
  189.9260  176.4720  146.0450 C   0  0  2  0  0  3  0  0  0  0  0  0
  183.7030  178.3050  146.8690 N   0  0  0  0  0  1  0  0  0  0  0  0
  189.7170  174.6920  143.6420 O   0  0  0  0  0  0  0  0  0  0  0  0
  185.6760  177.8820  141.2380 C   0  0  0  0  0  1  0  0  0  0  0  0
  189.3560  177.4450  147.0780 C   0  0  0  0  0  2  0  0  0  0  0  0
  189.0000  175.2570  145.8960 C   0  0  2  0  0  3  0  0  0  0  0  0
  185.6680  177.0350  146.1730 C   0  0  0  0  0  3  0  0  0  0  0  0
  187.7840  176.5510  141.1020 C   0  0  0  0  0  3  0  0  0  0  0  0
  187.8850  177.7020  146.9130 C   0  0  0  0  0  0  0  0  0  0  0  0
  187.3150  178.7580  147.6290 C   0  0  0  0  0  3  0  0  0  0  0  0
  189.6010  174.1950  144.9740 C   0  0  0  0  0  2  0  0  0  0  0  0
  188.7240  175.4900  143.0670 C   0  0  0  0  0  0  0  0  0  0  0  0
  188.7750  175.7670  141.6970 C   0  0  0  0  0  3  0  0  0  0  0  0
  192.2840  176.6170  144.4450 O   0  0  0  0  0  0  0  0  0  0  0  0
  192.3990  176.1600  145.6160 C   0  0  0  0  0  0  0  0  0  0  0  0
  191.2570  176.0510  146.4650 N   0  0  0  0  0  2  0  0  0  0  0  0
  196.0500  175.4990  144.2530 C   0  0  1  0  0  3  0  0  0  0  0  0
  194.7880  176.8180  145.9360 C   0  0  0  0  0  2  0  0  0  0  0  0
  193.5670  173.3500  145.8530 O   0  0  0  0  0  0  0  0  0  0  0  0
  196.5070  175.4590  142.9370 O   0  0  0  0  0  1  0  0  0  0  0  0
  195.3410  176.8200  144.5150 C   0  0  0  0  0  2  0  0  0  0  0  0
  194.1510  174.4120  145.5160 C   0  0  0  0  0  0  0  0  0  0  0  0
  193.7340  175.7210  146.1300 C   0  0  2  0  0  3  0  0  0  0  0  0
  195.1550  174.3730  144.4960 N   0  0  0  0  0  2  0  0  0  0  0  0
  1  6  1  0  0  0  0
  2  3  1  6  0  0  0
  2 13  1  0  0  0  0
  2  5  1  0  0  0  0
  4  7  2  0  0  0  0
  5 16  2  0  0  0  0
  6 17  2  0  0  0  0
  7  3  1  0  0  0  0
  8 23  1  1  0  0  0
  8 12  1  0  0  0  0
  9  1  1  0  0  0  0
 10 18  1  0  0  0  0
 11  4  1  0  0  0  0
 13 18  1  6  0  0  0
 13  8  1  0  0  0  0
 14  5  1  0  0  0  0
 14  1  2  0  0  0  0
 15 20  2  0  0  0  0
 15  4  1  0  0  0  0
 16 12  1  0  0  0  0
 16 17  1  0  0  0  0
 19 10  1  0  0  0  0
 19  3  2  0  0  0  0
 20 19  1  0  0  0  0
 21 22  2  0  0  0  0
 22 23  1  0  0  0  0
 24 27  1  6  0  0  0
 24 31  1  0  0  0  0
 24 28  1  0  0  0  0
 25 30  1  0  0  0  0
 28 25  1  0  0  0  0
 29 26  2  0  0  0  0
 29 30  1  0  0  0  0
 30 22  1  6  0  0  0
 31 29  1  0  0  0  0
M  END
>  <MODEL>
2

>  <REMARK>
 VINA RESULT:      -8.4      2.795      7.266
  Name = 
  2 active torsions:
  status: ('A' for Active; 'I' for Inactive)
    1  A    between atoms: C_5  and  C_30
    2  A    between atoms: C_10  and  N_16
                            x       y       z     vdW  Elec       q    Type
                         _______ _______ _______ _____ _____    ______ ____

>  <TORSDO>
F 2

$$$$
=
 OpenBabel11112417043D

 31 35  0  0  1  0  0  0  0  0999 V2000
  186.2840  177.8710  140.8430 C   0  0  0  0  0  0  0  0  0  0  0  0
  188.8130  177.8810  143.6830 C   0  0  2  0  0  3  0  0  0  0  0  0
  188.0430  177.5410  144.9520 C   0  0  0  0  0  0  0  0  0  0  0  0
  185.9520  177.3410  146.1770 C   0  0  0  0  0  0  0  0  0  0  0  0
  188.0860  177.4720  142.4240 C   0  0  0  0  0  0  0  0  0  0  0  0
  186.6270  176.7070  140.1530 C   0  0  0  0  0  3  0  0  0  0  0  0
  186.6430  177.6270  144.9980 C   0  0  0  0  0  3  0  0  0  0  0  0
  190.2090  175.7950  143.4580 C   0  0  2  0  0  3  0  0  0  0  0  0
  185.1910  178.6660  140.4000 N   0  0  0  0  0  1  0  0  0  0  0  0
  190.1430  177.1540  146.1300 O   0  0  0  0  0  0  0  0  0  0  0  0
  184.4680  177.4230  146.2060 C   0  0  0  0  0  1  0  0  0  0  0  0
  189.6610  175.5020  142.0610 C   0  0  0  0  0  2  0  0  0  0  0  0
  190.2450  177.3090  143.7050 C   0  0  2  0  0  3  0  0  0  0  0  0
  187.0120  178.2520  141.9730 C   0  0  0  0  0  3  0  0  0  0  0  0
  186.6540  176.9810  147.3290 C   0  0  0  0  0  3  0  0  0  0  0  0
  188.4320  176.2970  141.7190 C   0  0  0  0  0  0  0  0  0  0  0  0
  187.7030  175.9290  140.5840 C   0  0  0  0  0  3  0  0  0  0  0  0
  190.9130  177.6520  145.0370 C   0  0  0  0  0  2  0  0  0  0  0  0
  188.7460  177.2100  146.1300 C   0  0  0  0  0  0  0  0  0  0  0  0
  188.0490  176.9160  147.3050 C   0  0  0  0  0  3  0  0  0  0  0  0
  191.0000  173.8320  145.3720 O   0  0  0  0  0  0  0  0  0  0  0  0
  191.8730  174.2390  144.5560 C   0  0  0  0  0  0  0  0  0  0  0  0
  191.5450  175.2270  143.5790 N   0  0  0  0  0  2  0  0  0  0  0  0
  195.5960  175.5330  144.2620 C   0  0  1  0  0  3  0  0  0  0  0  0
  194.0580  174.2950  145.7670 C   0  0  0  0  0  2  0  0  0  0  0  0
  193.6220  173.1740  142.2920 O   0  0  0  0  0  0  0  0  0  0  0  0
  196.0660  176.7910  143.8880 O   0  0  0  0  0  1  0  0  0  0  0  0
  194.6130  175.6720  145.4170 C   0  0  0  0  0  2  0  0  0  0  0  0
  193.9650  173.8730  143.2810 C   0  0  0  0  0  0  0  0  0  0  0  0
  193.2660  173.6920  144.6010 C   0  0  2  0  0  3  0  0  0  0  0  0
  194.9650  174.8850  143.1180 N   0  0  0  0  0  2  0  0  0  0  0  0
  1 14  1  0  0  0  0
  2  5  1  6  0  0  0
  2 13  1  0  0  0  0
  2  3  1  0  0  0  0
  3  7  2  0  0  0  0
  3 19  1  0  0  0  0
  4 11  1  0  0  0  0
  4 15  2  0  0  0  0
  6 17  1  0  0  0  0
  6  1  2  0  0  0  0
  7  4  1  0  0  0  0
  8 23  1  6  0  0  0
  8 13  1  0  0  0  0
  9  1  1  0  0  0  0
 12  8  1  0  0  0  0
 13 18  1  1  0  0  0
 14  5  2  0  0  0  0
 16 12  1  0  0  0  0
 16  5  1  0  0  0  0
 17 16  2  0  0  0  0
 18 10  1  0  0  0  0
 19 10  1  0  0  0  0
 19 20  2  0  0  0  0
 20 15  1  0  0  0  0
 22 21  2  0  0  0  0
 23 22  1  0  0  0  0
 24 27  1  6  0  0  0
 24 28  1  0  0  0  0
 26 29  2  0  0  0  0
 28 25  1  0  0  0  0
 29 30  1  0  0  0  0
 30 22  1  6  0  0  0
 30 25  1  0  0  0  0
 31 29  1  0  0  0  0
 31 24  1  0  0  0  0
M  END
>  <MODEL>
3

>  <REMARK>
 VINA RESULT:      -8.3      2.914      7.682
  Name = 
  2 active torsions:
  status: ('A' for Active; 'I' for Inactive)
    1  A    between atoms: C_5  and  C_30
    2  A    between atoms: C_10  and  N_16
                            x       y       z     vdW  Elec       q    Type
                         _______ _______ _______ _____ _____    ______ ____

>  <TORSDO>
F 2

$$$$
=
 OpenBabel11112417043D

 31 35  0  0  1  0  0  0  0  0999 V2000
  185.2330  177.8220  146.9640 C   0  0  0  0  0  0  0  0  0  0  0  0
  187.4920  175.8260  144.6450 C   0  0  2  0  0  3  0  0  0  0  0  0
  187.2160  176.3250  143.2330 C   0  0  0  0  0  0  0  0  0  0  0  0
  185.8070  177.4970  141.6340 C   0  0  0  0  0  0  0  0  0  0  0  0
  187.0470  176.7990  145.7120 C   0  0  0  0  0  0  0  0  0  0  0  0
  186.1450  178.6610  147.6070 C   0  0  0  0  0  3  0  0  0  0  0  0
  186.0640  177.0730  142.9380 C   0  0  0  0  0  3  0  0  0  0  0  0
  189.8400  176.6920  144.9500 C   0  0  2  0  0  3  0  0  0  0  0  0
  183.8460  177.9160  147.2630 N   0  0  0  0  0  1  0  0  0  0  0  0
  189.2180  175.1880  142.4320 O   0  0  0  0  0  0  0  0  0  0  0  0
  184.5920  178.3010  141.3410 C   0  0  0  0  0  1  0  0  0  0  0  0
  189.4520  177.4910  146.1950 C   0  0  0  0  0  2  0  0  0  0  0  0
  188.9700  175.4320  144.8390 C   0  0  2  0  0  3  0  0  0  0  0  0
  185.6830  176.8940  146.0210 C   0  0  0  0  0  3  0  0  0  0  0  0
  186.6910  177.1660  140.6040 C   0  0  0  0  0  3  0  0  0  0  0  0
  187.9680  177.6470  146.3690 C   0  0  0  0  0  0  0  0  0  0  0  0
  187.5080  178.5650  147.3180 C   0  0  0  0  0  3  0  0  0  0  0  0
  189.4160  174.5340  143.6840 C   0  0  0  0  0  2  0  0  0  0  0  0
  188.0840  175.9660  142.1810 C   0  0  0  0  0  0  0  0  0  0  0  0
  187.8270  176.4010  140.8770 C   0  0  0  0  0  3  0  0  0  0  0  0
  191.8710  177.5740  143.1510 O   0  0  0  0  0  0  0  0  0  0  0  0
  192.2180  176.8180  144.1010 C   0  0  0  0  0  0  0  0  0  0  0  0
  191.2500  176.3320  145.0300 N   0  0  0  0  0  2  0  0  0  0  0  0
  194.3230  173.6560  145.1950 C   0  0  1  0  0  3  0  0  0  0  0  0
  194.0110  175.2590  143.3240 C   0  0  0  0  0  2  0  0  0  0  0  0
  194.0360  177.0390  146.5420 O   0  0  0  0  0  0  0  0  0  0  0  0
  193.8880  172.4600  145.7630 O   0  0  0  0  0  1  0  0  0  0  0  0
  193.5720  173.9140  143.8960 C   0  0  0  0  0  2  0  0  0  0  0  0
  193.9680  176.1050  145.7020 C   0  0  0  0  0  0  0  0  0  0  0  0
  193.6510  176.4160  144.2640 C   0  0  2  0  0  3  0  0  0  0  0  0
  194.1200  174.7500  146.1380 N   0  0  0  0  0  2  0  0  0  0  0  0
  1  9  1  0  0  0  0
  1  6  1  0  0  0  0
  2  3  1  6  0  0  0
  2 13  1  0  0  0  0
  2  5  1  0  0  0  0
  4  7  2  0  0  0  0
  5 14  1  0  0  0  0
  5 16  2  0  0  0  0
  7  3  1  0  0  0  0
  8 23  1  1  0  0  0
  8 12  1  0  0  0  0
 10 18  1  0  0  0  0
 11  4  1  0  0  0  0
 12 16  1  0  0  0  0
 13 18  1  6  0  0  0
 13  8  1  0  0  0  0
 14  1  2  0  0  0  0
 15 20  2  0  0  0  0
 15  4  1  0  0  0  0
 16 17  1  0  0  0  0
 17  6  2  0  0  0  0
 19 10  1  0  0  0  0
 19  3  2  0  0  0  0
 20 19  1  0  0  0  0
 21 22  2  0  0  0  0
 22 23  1  0  0  0  0
 24 27  1  1  0  0  0
 24 31  1  0  0  0  0
 25 28  1  0  0  0  0
 25 30  1  0  0  0  0
 28 24  1  0  0  0  0
 29 31  1  0  0  0  0
 29 26  2  0  0  0  0
 30 22  1  1  0  0  0
 30 29  1  0  0  0  0
M  END
>  <MODEL>
4

>  <REMARK>
 VINA RESULT:      -8.3      2.682      7.067
  Name = 
  2 active torsions:
  status: ('A' for Active; 'I' for Inactive)
    1  A    between atoms: C_5  and  C_30
    2  A    between atoms: C_10  and  N_16
                            x       y       z     vdW  Elec       q    Type
                         _______ _______ _______ _____ _____    ______ ____

>  <TORSDO>
F 2

$$$$
=
 OpenBabel11112417043D

 31 35  0  0  1  0  0  0  0  0999 V2000
  192.1740  172.9040  141.5400 C   0  0  0  0  0  0  0  0  0  0  0  0
  191.4010  173.9690  145.1090 C   0  0  2  0  0  3  0  0  0  0  0  0
  192.4190  175.0400  145.4730 C   0  0  0  0  0  0  0  0  0  0  0  0
  194.5290  176.1840  145.0800 C   0  0  0  0  0  0  0  0  0  0  0  0
  191.2590  173.7720  143.6170 C   0  0  0  0  0  0  0  0  0  0  0  0
  191.1080  173.4630  140.8330 C   0  0  0  0  0  3  0  0  0  0  0  0
  193.5890  175.2190  144.7170 C   0  0  0  0  0  3  0  0  0  0  0  0
  189.3100  175.3730  145.0410 C   0  0  2  0  0  3  0  0  0  0  0  0
  193.1870  172.1830  140.8500 N   0  0  0  0  0  1  0  0  0  0  0  0
  191.0980  175.6400  147.4320 O   0  0  0  0  0  0  0  0  0  0  0  0
  195.7560  176.3710  144.2620 C   0  0  0  0  0  1  0  0  0  0  0  0
  189.0140  174.9780  143.5930 C   0  0  0  0  0  2  0  0  0  0  0  0
  190.0300  174.2280  145.7650 C   0  0  2  0  0  3  0  0  0  0  0  0
  192.2480  173.0570  142.9270 C   0  0  0  0  0  3  0  0  0  0  0  0
  194.3190  176.9740  146.2130 C   0  0  0  0  0  3  0  0  0  0  0  0
  190.1790  174.3330  142.8980 C   0  0  0  0  0  0  0  0  0  0  0  0
  190.1100  174.1660  141.5110 C   0  0  0  0  0  3  0  0  0  0  0  0
  190.2230  174.5280  147.2520 C   0  0  0  0  0  2  0  0  0  0  0  0
  192.2320  175.8190  146.6350 C   0  0  0  0  0  0  0  0  0  0  0  0
  193.1720  176.7910  146.9890 C   0  0  0  0  0  3  0  0  0  0  0  0
  188.8410  177.7020  146.6210 O   0  0  0  0  0  0  0  0  0  0  0  0
  187.8880  176.8860  146.4850 C   0  0  0  0  0  0  0  0  0  0  0  0
  188.0590  175.6960  145.7150 N   0  0  0  0  0  2  0  0  0  0  0  0
  184.5550  178.8790  145.7460 C   0  0  1  0  0  3  0  0  0  0  0  0
  185.4130  176.6110  146.2770 C   0  0  0  0  0  2  0  0  0  0  0  0
  187.0670  179.1260  148.3880 O   0  0  0  0  0  0  0  0  0  0  0  0
  184.2790  179.7910  144.7290 O   0  0  0  0  0  1  0  0  0  0  0  0
  185.0510  177.5700  145.1480 C   0  0  0  0  0  2  0  0  0  0  0  0
  186.4000  178.6140  147.4520 C   0  0  0  0  0  0  0  0  0  0  0  0
  186.5640  177.1530  147.1310 C   0  0  2  0  0  3  0  0  0  0  0  0
  185.5480  179.4440  146.6540 N   0  0  0  0  0  2  0  0  0  0  0  0
  1 14  1  0  0  0  0
  2  5  1  6  0  0  0
  2  3  1  0  0  0  0
  2 13  1  0  0  0  0
  3 19  1  0  0  0  0
  4 15  2  0  0  0  0
  6 17  1  0  0  0  0
  6  1  2  0  0  0  0
  7  4  1  0  0  0  0
  7  3  2  0  0  0  0
  8 23  1  1  0  0  0
  8 13  1  0  0  0  0
  9  1  1  0  0  0  0
 11  4  1  0  0  0  0
 12  8  1  0  0  0  0
 13 18  1  1  0  0  0
 14  5  2  0  0  0  0
 15 20  1  0  0  0  0
 16 12  1  0  0  0  0
 16  5  1  0  0  0  0
 17 16  2  0  0  0  0
 18 10  1  0  0  0  0
 19 20  2  0  0  0  0
 19 10  1  0  0  0  0
 22 21  2  0  0  0  0
 23 22  1  0  0  0  0
 24 27  1  6  0  0  0
 24 31  1  0  0  0  0
 25 30  1  0  0  0  0
 28 24  1  0  0  0  0
 28 25  1  0  0  0  0
 29 26  2  0  0  0  0
 30 22  1  6  0  0  0
 30 29  1  0  0  0  0
 31 29  1  0  0  0  0
M  END
>  <MODEL>
5

>  <REMARK>
 VINA RESULT:      -8.1      1.891      4.122
  Name = 
  2 active torsions:
  status: ('A' for Active; 'I' for Inactive)
    1  A    between atoms: C_5  and  C_30
    2  A    between atoms: C_10  and  N_16
                            x       y       z     vdW  Elec       q    Type
                         _______ _______ _______ _____ _____    ______ ____

>  <TORSDO>
F 2

$$$$
=
 OpenBabel11112417043D

 31 35  0  0  1  0  0  0  0  0999 V2000
  190.4370  171.1510  141.9580 C   0  0  0  0  0  0  0  0  0  0  0  0
  189.7310  173.9760  144.4040 C   0  0  2  0  0  3  0  0  0  0  0  0
  191.0700  174.3680  145.0130 C   0  0  0  0  0  0  0  0  0  0  0  0
  193.4020  173.8820  145.5070 C   0  0  0  0  0  0  0  0  0  0  0  0
  189.8740  173.2170  143.1050 C   0  0  0  0  0  0  0  0  0  0  0  0
  190.2590  171.7820  140.7260 C   0  0  0  0  0  3  0  0  0  0  0  0
  192.1880  173.5250  144.9170 C   0  0  0  0  0  3  0  0  0  0  0  0
  189.2570  176.0470  143.0480 C   0  0  2  0  0  3  0  0  0  0  0  0
  190.8210  169.7820  142.0090 N   0  0  0  0  0  1  0  0  0  0  0  0
  190.0730  176.4050  145.9110 O   0  0  0  0  0  0  0  0  0  0  0  0
  194.5800  172.9860  145.3830 C   0  0  0  0  0  1  0  0  0  0  0  0
  189.1490  175.2490  141.7480 C   0  0  0  0  0  2  0  0  0  0  0  0
  188.7960  175.1900  144.2350 C   0  0  2  0  0  3  0  0  0  0  0  0
  190.2440  171.8660  143.1430 C   0  0  0  0  0  3  0  0  0  0  0  0
  193.5080  175.0810  146.2150 C   0  0  0  0  0  3  0  0  0  0  0  0
  189.6890  173.8510  141.8560 C   0  0  0  0  0  0  0  0  0  0  0  0
  189.8760  173.1240  140.6760 C   0  0  0  0  0  3  0  0  0  0  0  0
  188.7600  175.9940  145.5360 C   0  0  0  0  0  2  0  0  0  0  0  0
  191.1780  175.5610  145.7600 C   0  0  0  0  0  0  0  0  0  0  0  0
  192.3980  175.9190  146.3420 C   0  0  0  0  0  3  0  0  0  0  0  0
  186.4830  176.1120  142.3850 O   0  0  0  0  0  0  0  0  0  0  0  0
  187.0550  177.2130  142.6150 C   0  0  0  0  0  0  0  0  0  0  0  0
  188.4440  177.2520  142.9420 N   0  0  0  0  0  2  0  0  0  0  0  0
  184.3270  179.1750  144.6970 C   0  0  1  0  0  3  0  0  0  0  0  0
  186.6080  179.3990  143.7410 C   0  0  0  0  0  2  0  0  0  0  0  0
  184.3570  177.7970  141.3140 O   0  0  0  0  0  0  0  0  0  0  0  0
  183.5830  178.7510  145.7960 O   0  0  0  0  0  1  0  0  0  0  0  0
  185.8130  178.9950  144.9790 C   0  0  0  0  0  2  0  0  0  0  0  0
  184.8110  178.2380  142.4010 C   0  0  0  0  0  0  0  0  0  0  0  0
  186.2870  178.4960  142.5450 C   0  0  2  0  0  3  0  0  0  0  0  0
  183.9280  178.4210  143.5140 N   0  0  0  0  0  2  0  0  0  0  0  0
  1  9  1  0  0  0  0
  1 14  1  0  0  0  0
  2  5  1  6  0  0  0
  2  3  1  0  0  0  0
  3 19  1  0  0  0  0
  4 15  2  0  0  0  0
  5 14  2  0  0  0  0
  6  1  2  0  0  0  0
  7  3  2  0  0  0  0
  7  4  1  0  0  0  0
  8 23  1  6  0  0  0
  8 13  1  0  0  0  0
 11  4  1  0  0  0  0
 12 16  1  0  0  0  0
 12  8  1  0  0  0  0
 13  2  1  0  0  0  0
 13 18  1  1  0  0  0
 15 20  1  0  0  0  0
 16  5  1  0  0  0  0
 17  6  1  0  0  0  0
 17 16  2  0  0  0  0
 18 10  1  0  0  0  0
 19 10  1  0  0  0  0
 19 20  2  0  0  0  0
 21 22  2  0  0  0  0
 22 23  1  0  0  0  0
 24 28  1  0  0  0  0
 24 27  1  1  0  0  0
 25 28  1  0  0  0  0
 26 29  2  0  0  0  0
 29 30  1  0  0  0  0
 29 31  1  0  0  0  0
 30 22  1  1  0  0  0
 30 25  1  0  0  0  0
 31 24  1  0  0  0  0
M  END
>  <MODEL>
6

>  <REMARK>
 VINA RESULT:      -7.9      2.690      4.946
  Name = 
  2 active torsions:
  status: ('A' for Active; 'I' for Inactive)
    1  A    between atoms: C_5  and  C_30
    2  A    between atoms: C_10  and  N_16
                            x       y       z     vdW  Elec       q    Type
                         _______ _______ _______ _____ _____    ______ ____

>  <TORSDO>
F 2

$$$$
=
 OpenBabel11112417043D

 31 35  0  0  1  0  0  0  0  0999 V2000
  185.9910  177.9250  140.9070 C   0  0  0  0  0  0  0  0  0  0  0  0
  188.7960  177.9150  143.4760 C   0  0  2  0  0  3  0  0  0  0  0  0
  188.1730  177.4870  144.7980 C   0  0  0  0  0  0  0  0  0  0  0  0
  186.2260  177.1470  146.2160 C   0  0  0  0  0  0  0  0  0  0  0  0
  187.9580  177.5320  142.2780 C   0  0  0  0  0  0  0  0  0  0  0  0
  186.3040  176.8070  140.1310 C   0  0  0  0  0  3  0  0  0  0  0  0
  186.7820  177.5130  144.9890 C   0  0  0  0  0  3  0  0  0  0  0  0
  190.2370  175.9000  143.0120 C   0  0  2  0  0  3  0  0  0  0  0  0
  184.8300  178.6920  140.6150 N   0  0  0  0  0  1  0  0  0  0  0  0
  190.3950  177.1360  145.7390 O   0  0  0  0  0  0  0  0  0  0  0  0
  184.7510  177.1650  146.3980 C   0  0  0  0  0  1  0  0  0  0  0  0
  189.5600  175.6460  141.6640 C   0  0  0  0  0  2  0  0  0  0  0  0
  190.2420  177.4020  143.3260 C   0  0  2  0  0  3  0  0  0  0  0  0
  186.8160  178.2860  141.9760 C   0  0  0  0  0  3  0  0  0  0  0  0
  187.0550  176.7650  147.2730 C   0  0  0  0  0  3  0  0  0  0  0  0
  188.2740  176.4040  141.4870 C   0  0  0  0  0  0  0  0  0  0  0  0
  187.4470  176.0570  140.4140 C   0  0  0  0  0  3  0  0  0  0  0  0
  191.0300  177.7130  144.6000 C   0  0  0  0  0  2  0  0  0  0  0  0
  189.0040  177.1340  145.8820 C   0  0  0  0  0  0  0  0  0  0  0  0
  188.4420  176.7590  147.1060 C   0  0  0  0  0  3  0  0  0  0  0  0
  191.2720  173.8400  144.6930 O   0  0  0  0  0  0  0  0  0  0  0  0
  192.0510  174.3420  143.8360 C   0  0  0  0  0  0  0  0  0  0  0  0
  191.5990  175.3830  142.9700 N   0  0  0  0  0  2  0  0  0  0  0  0
  194.1180  171.0210  144.4060 C   0  0  1  0  0  3  0  0  0  0  0  0
  193.5700  172.7250  142.6850 C   0  0  0  0  0  2  0  0  0  0  0  0
  194.2940  174.3480  145.9040 O   0  0  0  0  0  0  0  0  0  0  0  0
  193.7210  169.8260  145.0010 O   0  0  0  0  0  1  0  0  0  0  0  0
  193.1600  171.3810  143.2790 C   0  0  0  0  0  2  0  0  0  0  0  0
  194.0160  173.4600  145.0580 C   0  0  0  0  0  0  0  0  0  0  0  0
  193.4610  173.8550  143.7160 C   0  0  2  0  0  3  0  0  0  0  0  0
  194.1590  172.0790  145.4090 N   0  0  0  0  0  2  0  0  0  0  0  0
  1 14  1  0  0  0  0
  2  5  1  6  0  0  0
  2  3  1  0  0  0  0
  3  7  2  0  0  0  0
  3 19  1  0  0  0  0
  4 11  1  0  0  0  0
  4 15  2  0  0  0  0
  6 17  1  0  0  0  0
  6  1  2  0  0  0  0
  7  4  1  0  0  0  0
  8 23  1  6  0  0  0
  8 13  1  0  0  0  0
  9  1  1  0  0  0  0
 10 19  1  0  0  0  0
 12  8  1  0  0  0  0
 13  2  1  0  0  0  0
 13 18  1  1  0  0  0
 14  5  2  0  0  0  0
 16 12  1  0  0  0  0
 16  5  1  0  0  0  0
 17 16  2  0  0  0  0
 18 10  1  0  0  0  0
 19 20  2  0  0  0  0
 20 15  1  0  0  0  0
 22 21  2  0  0  0  0
 23 22  1  0  0  0  0
 24 27  1  1  0  0  0
 24 31  1  0  0  0  0
 25 28  1  0  0  0  0
 25 30  1  0  0  0  0
 28 24  1  0  0  0  0
 29 31  1  0  0  0  0
 29 26  2  0  0  0  0
 30 22  1  1  0  0  0
 30 29  1  0  0  0  0
M  END
>  <MODEL>
7

>  <REMARK>
 VINA RESULT:      -7.5      3.228      7.861
  Name = 
  2 active torsions:
  status: ('A' for Active; 'I' for Inactive)
    1  A    between atoms: C_5  and  C_30
    2  A    between atoms: C_10  and  N_16
                            x       y       z     vdW  Elec       q    Type
                         _______ _______ _______ _____ _____    ______ ____

>  <TORSDO>
F 2

$$$$
=
 OpenBabel11112417043D

 31 35  0  0  1  0  0  0  0  0999 V2000
  187.5230  176.6070  140.8130 C   0  0  0  0  0  0  0  0  0  0  0  0
  190.2770  177.1940  143.3680 C   0  0  2  0  0  3  0  0  0  0  0  0
  189.6020  177.2420  144.7320 C   0  0  0  0  0  0  0  0  0  0  0  0
  187.6130  177.4990  146.1080 C   0  0  0  0  0  0  0  0  0  0  0  0
  189.4300  176.5190  142.3140 C   0  0  0  0  0  0  0  0  0  0  0  0
  187.7570  175.2850  140.4310 C   0  0  0  0  0  3  0  0  0  0  0  0
  188.2150  177.4250  144.8510 C   0  0  0  0  0  3  0  0  0  0  0  0
  191.5590  175.0370  143.6040 C   0  0  2  0  0  3  0  0  0  0  0  0
  186.4320  177.3270  140.2530 N   0  0  0  0  0  1  0  0  0  0  0  0
  191.7730  177.0420  145.8220 O   0  0  0  0  0  0  0  0  0  0  0  0
  186.1410  177.6780  146.2170 C   0  0  0  0  0  1  0  0  0  0  0  0
  190.8850  174.4260  142.3750 C   0  0  0  0  0  2  0  0  0  0  0  0
  191.6800  176.5580  143.4410 C   0  0  2  0  0  3  0  0  0  0  0  0
  188.3570  177.2210  141.7500 C   0  0  0  0  0  3  0  0  0  0  0  0
  188.3920  177.4050  147.2630 C   0  0  0  0  0  3  0  0  0  0  0  0
  189.6670  175.1820  141.9220 C   0  0  0  0  0  0  0  0  0  0  0  0
  188.8310  174.5790  140.9770 C   0  0  0  0  0  3  0  0  0  0  0  0
  192.4700  177.1910  144.5870 C   0  0  0  0  0  2  0  0  0  0  0  0
  190.3850  177.1840  145.9040 C   0  0  0  0  0  0  0  0  0  0  0  0
  189.7760  177.2490  147.1610 C   0  0  0  0  0  3  0  0  0  0  0  0
  192.5420  173.8870  146.0240 O   0  0  0  0  0  0  0  0  0  0  0  0
  193.3030  173.8690  145.0160 C   0  0  0  0  0  0  0  0  0  0  0  0
  192.8760  174.4360  143.7780 N   0  0  0  0  0  2  0  0  0  0  0  0
  196.9020  174.3540  143.4550 C   0  0  1  0  0  3  0  0  0  0  0  0
  195.6940  174.2660  145.6230 C   0  0  0  0  0  2  0  0  0  0  0  0
  194.5190  171.5860  143.3970 O   0  0  0  0  0  0  0  0  0  0  0  0
  197.3040  175.1710  142.4000 O   0  0  0  0  0  1  0  0  0  0  0  0
  196.1860  175.1860  144.5100 C   0  0  0  0  0  2  0  0  0  0  0  0
  195.0730  172.6440  143.7920 C   0  0  0  0  0  0  0  0  0  0  0  0
  194.6650  173.2550  145.1050 C   0  0  2  0  0  3  0  0  0  0  0  0
  196.0340  173.2950  142.9530 N   0  0  0  0  0  2  0  0  0  0  0  0
  1 14  1  0  0  0  0
  2  5  1  6  0  0  0
  2 13  1  0  0  0  0
  2  3  1  0  0  0  0
  3  7  2  0  0  0  0
  3 19  1  0  0  0  0
  4 11  1  0  0  0  0
  4 15  2  0  0  0  0
  6  1  2  0  0  0  0
  6 17  1  0  0  0  0
  7  4  1  0  0  0  0
  8 23  1  6  0  0  0
  9  1  1  0  0  0  0
 10 19  1  0  0  0  0
 12  8  1  0  0  0  0
 13  8  1  0  0  0  0
 13 18  1  1  0  0  0
 14  5  2  0  0  0  0
 16  5  1  0  0  0  0
 16 12  1  0  0  0  0
 17 16  2  0  0  0  0
 18 10  1  0  0  0  0
 19 20  2  0  0  0  0
 20 15  1  0  0  0  0
 22 21  2  0  0  0  0
 23 22  1  0  0  0  0
 24 27  1  6  0  0  0
 24 28  1  0  0  0  0
 26 29  2  0  0  0  0
 28 25  1  0  0  0  0
 29 30  1  0  0  0  0
 30 22  1  6  0  0  0
 30 25  1  0  0  0  0
 31 24  1  0  0  0  0
 31 29  1  0  0  0  0
M  END
>  <MODEL>
8

>  <REMARK>
 VINA RESULT:      -7.5      3.221      7.962
  Name = 
  2 active torsions:
  status: ('A' for Active; 'I' for Inactive)
    1  A    between atoms: C_5  and  C_30
    2  A    between atoms: C_10  and  N_16
                            x       y       z     vdW  Elec       q    Type
                         _______ _______ _______ _____ _____    ______ ____

>  <TORSDO>
F 2

$$$$
=
 OpenBabel11112417043D

 31 35  0  0  1  0  0  0  0  0999 V2000
  185.8300  179.1150  143.3470 C   0  0  0  0  0  0  0  0  0  0  0  0
  189.0270  177.0610  143.5040 C   0  0  2  0  0  3  0  0  0  0  0  0
  188.9550  176.2440  144.7870 C   0  0  0  0  0  0  0  0  0  0  0  0
  188.0150  175.8310  146.9910 C   0  0  0  0  0  0  0  0  0  0  0  0
  187.6760  177.5640  143.0500 C   0  0  0  0  0  0  0  0  0  0  0  0
  185.1250  178.4780  142.3230 C   0  0  0  0  0  3  0  0  0  0  0  0
  188.0480  176.5700  145.8070 C   0  0  0  0  0  3  0  0  0  0  0  0
  188.8170  175.2090  141.8070 C   0  0  2  0  0  3  0  0  0  0  0  0
  185.2530  180.2230  144.0260 N   0  0  0  0  0  1  0  0  0  0  0  0
  190.8120  174.8630  144.0190 O   0  0  0  0  0  0  0  0  0  0  0  0
  187.0380  176.1790  148.0560 C   0  0  0  0  0  1  0  0  0  0  0  0
  187.5820  175.8460  141.1690 C   0  0  0  0  0  2  0  0  0  0  0  0
  189.7410  176.2970  142.3720 C   0  0  2  0  0  3  0  0  0  0  0  0
  187.1010  178.6600  143.7070 C   0  0  0  0  0  3  0  0  0  0  0  0
  188.8990  174.7670  147.1770 C   0  0  0  0  0  3  0  0  0  0  0  0
  186.9610  176.9250  142.0110 C   0  0  0  0  0  0  0  0  0  0  0  0
  185.6940  177.3940  141.6520 C   0  0  0  0  0  3  0  0  0  0  0  0
  191.0530  175.7120  142.8970 C   0  0  0  0  0  2  0  0  0  0  0  0
  189.8690  175.1890  144.9970 C   0  0  0  0  0  0  0  0  0  0  0  0
  189.8250  174.4470  146.1810 C   0  0  0  0  0  3  0  0  0  0  0  0
  189.2240  172.3880  141.9340 O   0  0  0  0  0  0  0  0  0  0  0  0
  189.6790  173.0000  140.9280 C   0  0  0  0  0  0  0  0  0  0  0  0
  189.5180  174.4130  140.8080 N   0  0  0  0  0  2  0  0  0  0  0  0
  192.3920  173.6720  138.1330 C   0  0  1  0  0  3  0  0  0  0  0  0
  191.9080  172.2330  140.0980 C   0  0  0  0  0  2  0  0  0  0  0  0
  188.9060  172.5870  138.0050 O   0  0  0  0  0  0  0  0  0  0  0  0
  192.9370  174.8810  137.7050 O   0  0  0  0  0  1  0  0  0  0  0  0
  192.5700  173.5280  139.6380 C   0  0  0  0  0  2  0  0  0  0  0  0
  190.0490  172.7970  138.4870 C   0  0  0  0  0  0  0  0  0  0  0  0
  190.3960  172.2530  139.8470 C   0  0  2  0  0  3  0  0  0  0  0  0
  190.9800  173.6140  137.7700 N   0  0  0  0  0  2  0  0  0  0  0  0
  1 14  1  0  0  0  0
  1  9  1  0  0  0  0
  2  5  1  6  0  0  0
  2  3  1  0  0  0  0
  3 19  2  0  0  0  0
  3  7  1  0  0  0  0
  4 15  1  0  0  0  0
  4 11  1  0  0  0  0
  5 14  2  0  0  0  0
  6  1  2  0  0  0  0
  7  4  2  0  0  0  0
  8 23  1  6  0  0  0
  8 13  1  0  0  0  0
 10 19  1  0  0  0  0
 12  8  1  0  0  0  0
 12 16  1  0  0  0  0
 13 18  1  1  0  0  0
 13  2  1  0  0  0  0
 16  5  1  0  0  0  0
 17 16  2  0  0  0  0
 17  6  1  0  0  0  0
 18 10  1  0  0  0  0
 19 20  1  0  0  0  0
 20 15  2  0  0  0  0
 22 21  2  0  0  0  0
 23 22  1  0  0  0  0
 24 27  1  1  0  0  0
 24 28  1  0  0  0  0
 26 29  2  0  0  0  0
 28 25  1  0  0  0  0
 29 30  1  0  0  0  0
 30 25  1  0  0  0  0
 30 22  1  1  0  0  0
 31 24  1  0  0  0  0
 31 29  1  0  0  0  0
M  END
>  <MODEL>
9

>  <REMARK>
 VINA RESULT:      -7.5      3.345      7.993
  Name = 
  2 active torsions:
  status: ('A' for Active; 'I' for Inactive)
    1  A    between atoms: C_5  and  C_30
    2  A    between atoms: C_10  and  N_16
                            x       y       z     vdW  Elec       q    Type
                         _______ _______ _______ _____ _____    ______ ____

>  <TORSDO>
F 2

$$$$
