=
 OpenBabel11112416303D

 32 37  0  0  1  0  0  0  0  0999 V2000
  186.3150  177.2570  146.2230 C   0  0  0  0  0  2  0  0  0  0  0  0
  191.5230  176.0720  144.4290 C   0  0  1  0  0  3  0  0  0  0  0  0
  188.7980  172.4840  142.4740 C   0  0  0  0  0  2  0  0  0  0  0  0
  189.9780  171.5120  142.4880 C   0  0  0  0  0  2  0  0  0  0  0  0
  193.7820  175.5440  145.2870 C   0  0  0  0  0  0  0  0  0  0  0  0
  194.8540  174.5790  145.5340 C   0  0  0  0  0  0  0  0  0  0  0  0
  189.5250  177.1120  145.5080 C   0  0  1  0  0  3  0  0  0  0  0  0
  189.6140  176.6420  143.0610 C   0  0  0  0  0  2  0  0  0  0  0  0
  195.8950  172.6530  145.4970 C   0  0  0  0  0  0  0  0  0  0  0  0
  187.5300  177.6170  144.0380 C   0  0  0  0  0  2  0  0  0  0  0  0
  189.2850  173.9130  142.2470 C   0  0  0  0  0  2  0  0  0  0  0  0
  190.7330  175.6970  143.2360 N   0  0  2  0  0  0  0  0  0  0  0  0
  190.2710  174.3020  143.3570 C   0  0  2  0  0  3  0  0  0  0  0  0
  192.5470  173.7390  144.2010 N   0  0  0  0  0  0  0  0  0  0  0  0
  196.6710  173.6160  146.1340 C   0  0  0  0  0  3  0  0  0  0  0  0
  187.4420  176.4720  146.8830 C   0  0  0  0  0  2  0  0  0  0  0  0
  188.7030  176.6860  144.2880 C   0  0  2  0  0  3  0  0  0  0  0  0
  196.0060  174.7630  146.1350 O   0  0  0  0  0  0  0  0  0  0  0  0
  188.7370  177.2740  146.8160 C   0  0  0  0  0  2  0  0  0  0  0  0
  186.2840  177.0550  144.7080 C   0  0  2  0  0  3  0  0  0  0  0  0
  190.9990  171.9200  143.5490 C   0  0  0  0  0  2  0  0  0  0  0  0
  191.4720  173.3490  143.2820 C   0  0  1  0  0  3  0  0  0  0  0  0
  193.5990  172.8240  144.4330 N   0  0  0  0  0  2  0  0  0  0  0  0
  190.6680  176.1310  145.7040 C   0  0  0  0  0  2  0  0  0  0  0  0
  193.9130  176.8580  145.7260 O   0  0  0  0  0  1  0  0  0  0  0  0
  196.2490  171.2280  145.2630 C   0  0  0  0  0  1  0  0  0  0  0  0
  192.6730  175.1250  144.6350 C   0  0  0  0  0  0  0  0  0  0  0  0
  194.7440  173.2960  145.1300 C   0  0  0  0  0  0  0  0  0  0  0  0
  185.1090  177.7080  144.1520 N   0  0  0  0  0  2  0  0  0  0  0  0
  184.7890  177.6620  142.7610 C   0  0  0  0  0  0  0  0  0  0  0  0
  185.5390  177.0610  141.9460 O   0  0  0  0  0  0  0  0  0  0  0  0
  183.5580  178.3340  142.2680 C   0  0  0  0  0  1  0  0  0  0  0  0
  1 16  1  0  0  0  0
  2 27  1  0  0  0  0
  2 24  1  1  0  0  0
  3  4  1  0  0  0  0
  4 21  1  0  0  0  0
  5  6  1  0  0  0  0
  5 25  1  0  0  0  0
  6 18  1  0  0  0  0
  7 24  1  1  0  0  0
  7 19  1  0  0  0  0
  9 15  2  0  0  0  0
 10 17  1  0  0  0  0
 10 20  1  0  0  0  0
 11  3  1  0  0  0  0
 12  8  1  1  0  0  0
 12 13  1  0  0  0  0
 12  2  1  0  0  0  0
 13 11  1  6  0  0  0
 14 23  1  0  0  0  0
 14 27  1  0  0  0  0
 15 18  1  0  0  0  0
 17  8  1  6  0  0  0
 17  7  1  0  0  0  0
 19 16  1  0  0  0  0
 20 29  1  6  0  0  0
 20  1  1  0  0  0  0
 22 13  1  0  0  0  0
 22 21  1  1  0  0  0
 22 14  1  0  0  0  0
 23 28  1  0  0  0  0
 26  9  1  0  0  0  0
 27  5  2  0  0  0  0
 28  9  1  0  0  0  0
 28  6  2  0  0  0  0
 30 29  1  0  0  0  0
 31 30  2  0  0  0  0
 32 30  1  0  0  0  0
M  END
>  <MODEL>
1

>  <REMARK>
 VINA RESULT:      -9.2      0.000      0.000
  Name = 
  1 active torsions:
  status: ('A' for Active; 'I' for Inactive)
    1  A    between atoms: C_20  and  N_29
                            x       y       z     vdW  Elec       q    Type
                         _______ _______ _______ _____ _____    ______ ____

>  <TORSDO>
F 1

$$$$
=
 OpenBabel11112416303D

 32 37  0  0  1  0  0  0  0  0999 V2000
  190.8380  172.7620  143.1540 C   0  0  0  0  0  2  0  0  0  0  0  0
  187.5080  177.1590  142.0000 C   0  0  1  0  0  3  0  0  0  0  0  0
  187.8130  177.2120  146.9020 C   0  0  0  0  0  2  0  0  0  0  0  0
  186.4310  177.8540  147.0300 C   0  0  0  0  0  2  0  0  0  0  0  0
  185.3550  177.7120  140.9160 C   0  0  0  0  0  0  0  0  0  0  0  0
  183.9470  178.1000  141.0110 C   0  0  0  0  0  0  0  0  0  0  0  0
  188.9910  175.1550  141.8490 C   0  0  1  0  0  3  0  0  0  0  0  0
  189.6820  177.2240  143.0540 C   0  0  0  0  0  2  0  0  0  0  0  0
  182.0700  178.6960  141.9670 C   0  0  0  0  0  0  0  0  0  0  0  0
  191.2220  175.2560  143.0350 C   0  0  0  0  0  2  0  0  0  0  0  0
  188.5060  177.6870  145.6270 C   0  0  0  0  0  2  0  0  0  0  0  0
  188.2880  177.6990  143.1340 N   0  0  2  0  0  0  0  0  0  0  0  0
  187.6460  177.3260  144.4080 C   0  0  2  0  0  3  0  0  0  0  0  0
  185.4650  177.9000  143.3490 N   0  0  0  0  0  0  0  0  0  0  0  0
  181.9110  178.6140  140.5870 C   0  0  0  0  0  3  0  0  0  0  0  0
  189.3320  172.8410  142.9310 C   0  0  0  0  0  2  0  0  0  0  0  0
  189.7700  175.6990  143.0500 C   0  0  2  0  0  3  0  0  0  0  0  0
  183.0680  178.2510  140.0490 O   0  0  0  0  0  0  0  0  0  0  0  0
  189.0400  173.6320  141.6600 C   0  0  0  0  0  2  0  0  0  0  0  0
  191.3770  173.9960  143.8760 C   0  0  2  0  0  3  0  0  0  0  0  0
  185.5810  177.5530  145.7970 C   0  0  0  0  0  2  0  0  0  0  0  0
  186.3010  178.0530  144.5440 C   0  0  1  0  0  3  0  0  0  0  0  0
  184.1080  178.2890  143.4210 N   0  0  0  0  0  2  0  0  0  0  0  0
  187.5490  175.6240  141.9380 C   0  0  0  0  0  2  0  0  0  0  0  0
  185.9190  177.4340  139.6740 O   0  0  0  0  0  1  0  0  0  0  0  0
  181.0360  179.0750  142.9670 C   0  0  0  0  0  1  0  0  0  0  0  0
  186.0800  177.6250  142.0550 C   0  0  0  0  0  0  0  0  0  0  0  0
  183.3750  178.3610  142.2050 C   0  0  0  0  0  0  0  0  0  0  0  0
  192.7860  173.8030  144.1880 N   0  0  0  0  0  2  0  0  0  0  0  0
  193.3840  174.2990  145.3860 C   0  0  0  0  0  0  0  0  0  0  0  0
  192.7050  174.9540  146.2220 O   0  0  0  0  0  0  0  0  0  0  0  0
  194.8250  174.0440  145.6480 C   0  0  0  0  0  1  0  0  0  0  0  0
  1 20  1  0  0  0  0
  2 24  1  1  0  0  0
  2 27  1  0  0  0  0
  2 12  1  0  0  0  0
  3  4  1  0  0  0  0
  5  6  1  0  0  0  0
  5 27  2  0  0  0  0
  6 28  2  0  0  0  0
  7 19  1  1  0  0  0
  7 24  1  0  0  0  0
  7 17  1  0  0  0  0
  9 28  1  0  0  0  0
  9 26  1  0  0  0  0
 10 20  1  0  0  0  0
 11  3  1  0  0  0  0
 12  8  1  1  0  0  0
 12 13  1  0  0  0  0
 13 22  1  0  0  0  0
 13 11  1  1  0  0  0
 14 23  1  0  0  0  0
 14 22  1  0  0  0  0
 15  9  2  0  0  0  0
 16  1  1  0  0  0  0
 17 10  1  6  0  0  0
 17  8  1  0  0  0  0
 18 15  1  0  0  0  0
 18  6  1  0  0  0  0
 19 16  1  0  0  0  0
 20 29  1  6  0  0  0
 21  4  1  0  0  0  0
 22 21  1  1  0  0  0
 25  5  1  0  0  0  0
 27 14  1  0  0  0  0
 28 23  1  0  0  0  0
 29 30  1  0  0  0  0
 30 32  1  0  0  0  0
 30 31  2  0  0  0  0
M  END
>  <MODEL>
2

>  <REMARK>
 VINA RESULT:      -9.1      1.610      9.213
  Name = 
  1 active torsions:
  status: ('A' for Active; 'I' for Inactive)
    1  A    between atoms: C_20  and  N_29
                            x       y       z     vdW  Elec       q    Type
                         _______ _______ _______ _____ _____    ______ ____

>  <TORSDO>
F 1

$$$$
=
 OpenBabel11112416303D

 32 37  0  0  1  0  0  0  0  0999 V2000
  194.9770  175.6790  145.3730 C   0  0  0  0  0  2  0  0  0  0  0  0
  189.3500  175.4080  145.5100 C   0  0  1  0  0  3  0  0  0  0  0  0
  190.4690  173.6780  141.0510 C   0  0  0  0  0  2  0  0  0  0  0  0
  189.1390  174.1630  140.4750 C   0  0  0  0  0  2  0  0  0  0  0  0
  187.3590  176.8490  145.7830 C   0  0  0  0  0  0  0  0  0  0  0  0
  186.1960  177.5300  145.2140 C   0  0  0  0  0  0  0  0  0  0  0  0
  191.7600  175.7600  146.0670 C   0  0  1  0  0  3  0  0  0  0  0  0
  190.8860  173.5530  145.3070 C   0  0  0  0  0  2  0  0  0  0  0  0
  184.7480  178.1340  143.6870 C   0  0  0  0  0  0  0  0  0  0  0  0
  193.3310  173.8030  145.7630 C   0  0  0  0  0  2  0  0  0  0  0  0
  190.3020  173.2740  142.5150 C   0  0  0  0  0  2  0  0  0  0  0  0
  189.6640  174.1720  144.7610 N   0  0  2  0  0  0  0  0  0  0  0  0
  189.7870  174.4730  143.3230 C   0  0  2  0  0  3  0  0  0  0  0  0
  187.7670  175.9120  143.5650 N   0  0  0  0  0  0  0  0  0  0  0  0
  184.4380  178.7160  144.9120 C   0  0  0  0  0  3  0  0  0  0  0  0
  193.9200  176.7280  145.0470 C   0  0  0  0  0  2  0  0  0  0  0  0
  192.0820  174.5020  145.2550 C   0  0  2  0  0  3  0  0  0  0  0  0
  185.3360  178.3250  145.8060 O   0  0  0  0  0  0  0  0  0  0  0  0
  192.8930  176.7910  146.1730 C   0  0  0  0  0  2  0  0  0  0  0  0
  194.5380  174.2740  144.9620 C   0  0  2  0  0  3  0  0  0  0  0  0
  188.5830  175.3190  141.3040 C   0  0  0  0  0  2  0  0  0  0  0  0
  188.4170  174.8750  142.7570 C   0  0  1  0  0  3  0  0  0  0  0  0
  186.6310  176.5640  143.0360 N   0  0  0  0  0  2  0  0  0  0  0  0
  190.5130  176.4130  145.4960 C   0  0  0  0  0  2  0  0  0  0  0  0
  187.6800  177.0210  147.1270 O   0  0  0  0  0  1  0  0  0  0  0  0
  184.0070  178.2910  142.4070 C   0  0  0  0  0  1  0  0  0  0  0  0
  188.1080  176.0640  144.9760 C   0  0  0  0  0  0  0  0  0  0  0  0
  185.8730  177.3890  143.9110 C   0  0  0  0  0  0  0  0  0  0  0  0
  195.6360  173.3400  145.1640 N   0  0  0  0  0  2  0  0  0  0  0  0
  196.5780  173.0260  144.1360 C   0  0  0  0  0  0  0  0  0  0  0  0
  196.4750  173.5390  142.9900 O   0  0  0  0  0  0  0  0  0  0  0  0
  197.6880  172.0800  144.4220 C   0  0  0  0  0  1  0  0  0  0  0  0
  2 24  1  6  0  0  0
  3 11  1  0  0  0  0
  4  3  1  0  0  0  0
  4 21  1  0  0  0  0
  5 25  1  0  0  0  0
  6  5  1  0  0  0  0
  6 18  1  0  0  0  0
  7 24  1  6  0  0  0
  7 19  1  0  0  0  0
  9 28  1  0  0  0  0
  9 15  2  0  0  0  0
 12  8  1  1  0  0  0
 12  2  1  0  0  0  0
 13 11  1  6  0  0  0
 13 12  1  0  0  0  0
 14 27  1  0  0  0  0
 15 18  1  0  0  0  0
 16  1  1  0  0  0  0
 16 19  1  0  0  0  0
 17  8  1  1  0  0  0
 17 10  1  0  0  0  0
 17  7  1  0  0  0  0
 20 29  1  1  0  0  0
 20  1  1  0  0  0  0
 20 10  1  0  0  0  0
 22 21  1  6  0  0  0
 22 13  1  0  0  0  0
 22 14  1  0  0  0  0
 23 14  1  0  0  0  0
 23 28  1  0  0  0  0
 26  9  1  0  0  0  0
 27  2  1  0  0  0  0
 27  5  2  0  0  0  0
 28  6  2  0  0  0  0
 30 32  1  0  0  0  0
 30 29  1  0  0  0  0
 31 30  2  0  0  0  0
M  END
>  <MODEL>
3

>  <REMARK>
 VINA RESULT:      -8.8      2.038      8.089
  Name = 
  1 active torsions:
  status: ('A' for Active; 'I' for Inactive)
    1  A    between atoms: C_20  and  N_29
                            x       y       z     vdW  Elec       q    Type
                         _______ _______ _______ _____ _____    ______ ____

>  <TORSDO>
F 1

$$$$
=
 OpenBabel11112416303D

 32 37  0  0  1  0  0  0  0  0999 V2000
  187.2250  177.2220  146.4440 C   0  0  0  0  0  2  0  0  0  0  0  0
  192.1960  176.3440  143.9400 C   0  0  1  0  0  3  0  0  0  0  0  0
  189.2480  173.0380  141.8180 C   0  0  0  0  0  2  0  0  0  0  0  0
  190.4160  172.0840  141.5670 C   0  0  0  0  0  2  0  0  0  0  0  0
  194.5320  175.7230  144.4620 C   0  0  0  0  0  0  0  0  0  0  0  0
  195.6190  174.7430  144.4530 C   0  0  0  0  0  0  0  0  0  0  0  0
  190.3350  177.2070  145.3670 C   0  0  1  0  0  3  0  0  0  0  0  0
  190.1510  177.0810  142.8840 C   0  0  0  0  0  2  0  0  0  0  0  0
  196.6370  172.8500  144.0340 C   0  0  0  0  0  0  0  0  0  0  0  0
  188.1940  177.8930  144.2100 C   0  0  0  0  0  2  0  0  0  0  0  0
  189.7170  174.4890  141.7400 C   0  0  0  0  0  2  0  0  0  0  0  0
  191.2770  176.1320  142.8010 N   0  0  2  0  0  0  0  0  0  0  0  0
  190.8210  174.7300  142.7780 C   0  0  2  0  0  3  0  0  0  0  0  0
  193.1730  174.0750  143.2780 N   0  0  0  0  0  0  0  0  0  0  0  0
  197.4840  173.7230  144.7090 C   0  0  0  0  0  3  0  0  0  0  0  0
  188.4130  176.3630  146.8610 C   0  0  0  0  0  2  0  0  0  0  0  0
  189.3820  176.9470  144.1970 C   0  0  2  0  0  3  0  0  0  0  0  0
  196.8310  174.8530  144.9430 O   0  0  0  0  0  0  0  0  0  0  0  0
  189.6980  177.1790  146.7630 C   0  0  0  0  0  2  0  0  0  0  0  0
  187.0260  177.2320  144.9290 C   0  0  2  0  0  3  0  0  0  0  0  0
  191.5510  172.3500  142.5550 C   0  0  0  0  0  2  0  0  0  0  0  0
  192.0010  173.8070  142.4390 C   0  0  1  0  0  3  0  0  0  0  0  0
  194.2380  173.1470  143.2640 N   0  0  0  0  0  2  0  0  0  0  0  0
  191.4870  176.2190  145.2980 C   0  0  0  0  0  2  0  0  0  0  0  0
  194.7190  176.9650  145.0620 O   0  0  0  0  0  1  0  0  0  0  0  0
  196.9540  171.4750  143.5670 C   0  0  0  0  0  1  0  0  0  0  0  0
  193.3550  175.3890  143.8850 C   0  0  0  0  0  0  0  0  0  0  0  0
  195.4570  173.5270  143.8890 C   0  0  0  0  0  0  0  0  0  0  0  0
  185.8010  177.9450  144.6020 N   0  0  0  0  0  2  0  0  0  0  0  0
  185.0960  177.7440  143.3760 C   0  0  0  0  0  0  0  0  0  0  0  0
  185.5320  176.9420  142.5070 O   0  0  0  0  0  0  0  0  0  0  0  0
  183.8380  178.4920  143.1200 C   0  0  0  0  0  1  0  0  0  0  0  0
  1 16  1  0  0  0  0
  2 24  1  1  0  0  0
  4  3  1  0  0  0  0
  4 21  1  0  0  0  0
  5 25  1  0  0  0  0
  6  5  1  0  0  0  0
  6 18  1  0  0  0  0
  7 24  1  1  0  0  0
  7 19  1  0  0  0  0
  9 15  2  0  0  0  0
 10 20  1  0  0  0  0
 11  3  1  0  0  0  0
 12  8  1  1  0  0  0
 12  2  1  0  0  0  0
 13 11  1  6  0  0  0
 13 12  1  0  0  0  0
 14 27  1  0  0  0  0
 15 18  1  0  0  0  0
 17  8  1  6  0  0  0
 17 10  1  0  0  0  0
 17  7  1  0  0  0  0
 19 16  1  0  0  0  0
 20 29  1  1  0  0  0
 20  1  1  0  0  0  0
 22 21  1  1  0  0  0
 22 13  1  0  0  0  0
 22 14  1  0  0  0  0
 23 14  1  0  0  0  0
 23 28  1  0  0  0  0
 26  9  1  0  0  0  0
 27  2  1  0  0  0  0
 27  5  2  0  0  0  0
 28  9  1  0  0  0  0
 28  6  2  0  0  0  0
 30 29  1  0  0  0  0
 31 30  2  0  0  0  0
 32 30  1  0  0  0  0
M  END
>  <MODEL>
4

>  <REMARK>
 VINA RESULT:      -8.7      1.095      1.097
  Name = 
  1 active torsions:
  status: ('A' for Active; 'I' for Inactive)
    1  A    between atoms: C_20  and  N_29
                            x       y       z     vdW  Elec       q    Type
                         _______ _______ _______ _____ _____    ______ ____

>  <TORSDO>
F 1

$$$$
=
 OpenBabel11112416303D

 32 37  0  0  1  0  0  0  0  0999 V2000
  192.9510  172.1760  141.5550 C   0  0  0  0  0  2  0  0  0  0  0  0
  190.0480  176.8370  142.8200 C   0  0  1  0  0  3  0  0  0  0  0  0
  192.2000  175.6430  147.0700 C   0  0  0  0  0  2  0  0  0  0  0  0
  191.0700  176.2800  147.8790 C   0  0  0  0  0  2  0  0  0  0  0  0
  187.7370  177.7200  142.8400 C   0  0  0  0  0  0  0  0  0  0  0  0
  186.5370  178.1210  143.5750 C   0  0  0  0  0  0  0  0  0  0  0  0
  191.0810  174.8840  141.6540 C   0  0  1  0  0  3  0  0  0  0  0  0
  192.4470  176.5580  142.8980 C   0  0  0  0  0  2  0  0  0  0  0  0
  185.2630  178.5240  145.3090 C   0  0  0  0  0  0  0  0  0  0  0  0
  193.5880  174.6040  141.8350 C   0  0  0  0  0  2  0  0  0  0  0  0
  192.4120  176.3990  145.7600 C   0  0  0  0  0  2  0  0  0  0  0  0
  191.2650  177.0460  143.6330 N   0  0  2  0  0  0  0  0  0  0  0  0
  191.1130  176.3870  144.9430 C   0  0  2  0  0  3  0  0  0  0  0  0
  188.7900  177.2860  145.0010 N   0  0  0  0  0  0  0  0  0  0  0  0
  184.5810  178.7970  144.1270 C   0  0  0  0  0  3  0  0  0  0  0  0
  191.4990  172.3620  141.9790 C   0  0  0  0  0  2  0  0  0  0  0  0
  192.3230  175.0800  142.5280 C   0  0  2  0  0  3  0  0  0  0  0  0
  185.3860  178.5400  143.1050 O   0  0  0  0  0  0  0  0  0  0  0  0
  190.8520  173.4570  141.1370 C   0  0  0  0  0  2  0  0  0  0  0  0
  193.8840  173.1690  142.2480 C   0  0  2  0  0  3  0  0  0  0  0  0
  189.7830  176.3300  147.0580 C   0  0  0  0  0  2  0  0  0  0  0  0
  190.0300  177.1030  145.7620 C   0  0  1  0  0  3  0  0  0  0  0  0
  187.6270  177.6920  145.6950 N   0  0  0  0  0  2  0  0  0  0  0  0
  189.8580  175.3660  142.4140 C   0  0  0  0  0  2  0  0  0  0  0  0
  187.7440  177.7440  141.4490 O   0  0  0  0  0  1  0  0  0  0  0  0
  184.7470  178.6750  146.6960 C   0  0  0  0  0  1  0  0  0  0  0  0
  188.8230  177.3240  143.5430 C   0  0  0  0  0  0  0  0  0  0  0  0
  186.5020  178.0930  144.9240 C   0  0  0  0  0  0  0  0  0  0  0  0
  195.2650  172.8540  141.9170 N   0  0  0  0  0  2  0  0  0  0  0  0
  196.3370  173.0210  142.8480 C   0  0  0  0  0  0  0  0  0  0  0  0
  196.1220  173.4780  144.0020 O   0  0  0  0  0  0  0  0  0  0  0  0
  197.7210  172.6570  142.4470 C   0  0  0  0  0  1  0  0  0  0  0  0
  1 16  1  0  0  0  0
  1 20  1  0  0  0  0
  2 24  1  1  0  0  0
  2 27  1  0  0  0  0
  2 12  1  0  0  0  0
  3  4  1  0  0  0  0
  5 27  2  0  0  0  0
  5  6  1  0  0  0  0
  6 28  2  0  0  0  0
  7 19  1  1  0  0  0
  7 24  1  0  0  0  0
  7 17  1  0  0  0  0
  9 26  1  0  0  0  0
 10 20  1  0  0  0  0
 11  3  1  0  0  0  0
 12  8  1  6  0  0  0
 12 13  1  0  0  0  0
 13 11  1  1  0  0  0
 13 22  1  0  0  0  0
 14 23  1  0  0  0  0
 14 22  1  0  0  0  0
 15  9  2  0  0  0  0
 17 10  1  6  0  0  0
 17  8  1  0  0  0  0
 18  6  1  0  0  0  0
 18 15  1  0  0  0  0
 19 16  1  0  0  0  0
 20 29  1  6  0  0  0
 21  4  1  0  0  0  0
 22 21  1  1  0  0  0
 25  5  1  0  0  0  0
 27 14  1  0  0  0  0
 28  9  1  0  0  0  0
 28 23  1  0  0  0  0
 29 30  1  0  0  0  0
 30 31  2  0  0  0  0
 32 30  1  0  0  0  0
M  END
>  <MODEL>
5

>  <REMARK>
 VINA RESULT:      -8.7      2.212      8.432
  Name = 
  1 active torsions:
  status: ('A' for Active; 'I' for Inactive)
    1  A    between atoms: C_20  and  N_29
                            x       y       z     vdW  Elec       q    Type
                         _______ _______ _______ _____ _____    ______ ____

>  <TORSDO>
F 1

$$$$
=
 OpenBabel11112416303D

 32 37  0  0  1  0  0  0  0  0999 V2000
  187.9140  177.0440  146.6150 C   0  0  0  0  0  2  0  0  0  0  0  0
  192.8390  175.1360  144.6530 C   0  0  1  0  0  3  0  0  0  0  0  0
  189.5250  172.8580  141.8320 C   0  0  0  0  0  2  0  0  0  0  0  0
  190.4540  171.6630  141.6200 C   0  0  0  0  0  2  0  0  0  0  0  0
  194.8560  173.9050  145.3830 C   0  0  0  0  0  0  0  0  0  0  0  0
  195.6640  172.6850  145.3970 C   0  0  0  0  0  0  0  0  0  0  0  0
  191.0530  176.3270  145.9290 C   0  0  1  0  0  3  0  0  0  0  0  0
  191.2070  176.4460  143.4440 C   0  0  0  0  0  2  0  0  0  0  0  0
  196.2480  170.6350  144.8960 C   0  0  0  0  0  0  0  0  0  0  0  0
  189.3300  177.6210  144.6050 C   0  0  0  0  0  2  0  0  0  0  0  0
  190.3350  174.1460  141.9740 C   0  0  0  0  0  2  0  0  0  0  0  0
  192.0720  175.2520  143.3940 N   0  0  2  0  0  0  0  0  0  0  0  0
  191.3010  174.0170  143.1590 C   0  0  2  0  0  3  0  0  0  0  0  0
  193.3280  172.7520  143.8660 N   0  0  0  0  0  0  0  0  0  0  0  0
  197.1730  171.2090  145.7630 C   0  0  0  0  0  3  0  0  0  0  0  0
  188.7870  175.8830  147.0750 C   0  0  0  0  0  2  0  0  0  0  0  0
  190.2450  176.4080  144.6310 C   0  0  2  0  0  3  0  0  0  0  0  0
  196.7830  172.4460  146.0400 O   0  0  0  0  0  0  0  0  0  0  0  0
  190.2300  176.3520  147.2260 C   0  0  0  0  0  2  0  0  0  0  0  0
  187.9460  177.2230  145.0970 C   0  0  2  0  0  3  0  0  0  0  0  0
  191.4620  171.5550  142.7620 C   0  0  0  0  0  2  0  0  0  0  0  0
  192.2610  172.8550  142.8650 C   0  0  1  0  0  3  0  0  0  0  0  0
  194.1300  171.5880  143.8780 N   0  0  0  0  0  2  0  0  0  0  0  0
  191.9300  175.0880  145.8910 C   0  0  0  0  0  2  0  0  0  0  0  0
  195.2450  175.0080  146.1360 O   0  0  0  0  0  1  0  0  0  0  0  0
  196.2900  169.2650  144.3210 C   0  0  0  0  0  1  0  0  0  0  0  0
  193.7300  173.9250  144.6330 C   0  0  0  0  0  0  0  0  0  0  0  0
  195.2990  171.5980  144.6850 C   0  0  0  0  0  0  0  0  0  0  0  0
  186.9890  178.2460  144.7050 N   0  0  0  0  0  2  0  0  0  0  0  0
  185.8360  177.9590  143.9110 C   0  0  0  0  0  0  0  0  0  0  0  0
  185.6150  176.7900  143.4950 O   0  0  0  0  0  0  0  0  0  0  0  0
  184.8900  179.0530  143.5690 C   0  0  0  0  0  1  0  0  0  0  0  0
  1 16  1  0  0  0  0
  2 24  1  1  0  0  0
  3 11  1  0  0  0  0
  4  3  1  0  0  0  0
  4 21  1  0  0  0  0
  5  6  1  0  0  0  0
  5 25  1  0  0  0  0
  6 18  1  0  0  0  0
  7 24  1  6  0  0  0
  7 19  1  0  0  0  0
  9 15  2  0  0  0  0
 10 17  1  0  0  0  0
 10 20  1  0  0  0  0
 12  8  1  1  0  0  0
 12  2  1  0  0  0  0
 13 11  1  6  0  0  0
 13 12  1  0  0  0  0
 14 23  1  0  0  0  0
 14 27  1  0  0  0  0
 15 18  1  0  0  0  0
 16 19  1  0  0  0  0
 17  8  1  6  0  0  0
 17  7  1  0  0  0  0
 20 29  1  1  0  0  0
 20  1  1  0  0  0  0
 22 21  1  1  0  0  0
 22 13  1  0  0  0  0
 22 14  1  0  0  0  0
 23 28  1  0  0  0  0
 26  9  1  0  0  0  0
 27  2  1  0  0  0  0
 27  5  2  0  0  0  0
 28  9  1  0  0  0  0
 28  6  2  0  0  0  0
 30 29  1  0  0  0  0
 31 30  2  0  0  0  0
 32 30  1  0  0  0  0
M  END
>  <MODEL>
6

>  <REMARK>
 VINA RESULT:      -8.3      1.256      1.721
  Name = 
  1 active torsions:
  status: ('A' for Active; 'I' for Inactive)
    1  A    between atoms: C_20  and  N_29
                            x       y       z     vdW  Elec       q    Type
                         _______ _______ _______ _____ _____    ______ ____

>  <TORSDO>
F 1

$$$$
=
 OpenBabel11112416303D

 32 37  0  0  1  0  0  0  0  0999 V2000
  187.3990  178.0860  143.3060 C   0  0  0  0  0  2  0  0  0  0  0  0
  191.1940  173.9220  143.2120 C   0  0  1  0  0  3  0  0  0  0  0  0
  192.7370  176.7910  146.8880 C   0  0  0  0  0  2  0  0  0  0  0  0
  194.1910  176.3750  146.6680 C   0  0  0  0  0  2  0  0  0  0  0  0
  192.8600  172.8690  141.7180 C   0  0  0  0  0  0  0  0  0  0  0  0
  194.2520  172.6370  141.3300 C   0  0  0  0  0  0  0  0  0  0  0  0
  189.2460  175.4180  142.7540 C   0  0  1  0  0  3  0  0  0  0  0  0
  189.6770  174.4600  145.0150 C   0  0  0  0  0  2  0  0  0  0  0  0
  196.4350  172.7580  141.4470 C   0  0  0  0  0  0  0  0  0  0  0  0
  187.7380  176.0050  144.6970 C   0  0  0  0  0  2  0  0  0  0  0  0
  191.7940  175.6390  146.5460 C   0  0  0  0  0  2  0  0  0  0  0  0
  191.0770  174.1500  144.6680 N   0  0  2  0  0  0  0  0  0  0  0  0
  192.0030  175.2190  145.0850 C   0  0  2  0  0  3  0  0  0  0  0  0
  193.7090  174.1630  143.6070 N   0  0  0  0  0  0  0  0  0  0  0  0
  196.0450  172.0060  140.3430 C   0  0  0  0  0  3  0  0  0  0  0  0
  188.6710  177.9160  142.4850 C   0  0  0  0  0  2  0  0  0  0  0  0
  189.1560  175.6820  144.2600 C   0  0  2  0  0  3  0  0  0  0  0  0
  194.7200  171.9580  140.3100 O   0  0  0  0  0  0  0  0  0  0  0  0
  188.6920  176.5290  141.8500 C   0  0  0  0  0  2  0  0  0  0  0  0
  187.5440  177.5150  144.7160 C   0  0  2  0  0  3  0  0  0  0  0  0
  194.4030  175.8970  145.2320 C   0  0  0  0  0  2  0  0  0  0  0  0
  193.4530  174.7380  144.9320 C   0  0  1  0  0  3  0  0  0  0  0  0
  195.0480  173.9160  143.2270 N   0  0  0  0  0  2  0  0  0  0  0  0
  190.6890  175.1180  142.3880 C   0  0  0  0  0  2  0  0  0  0  0  0
  191.8260  172.3440  140.9490 O   0  0  0  0  0  1  0  0  0  0  0  0
  197.8250  173.0660  141.8760 C   0  0  0  0  0  1  0  0  0  0  0  0
  192.6110  173.6050  142.8250 C   0  0  0  0  0  0  0  0  0  0  0  0
  195.2720  173.1480  142.0520 C   0  0  0  0  0  0  0  0  0  0  0  0
  186.3570  177.8320  145.4970 N   0  0  0  0  0  2  0  0  0  0  0  0
  186.3970  178.0370  146.9100 C   0  0  0  0  0  0  0  0  0  0  0  0
  187.4780  177.9250  147.5470 O   0  0  0  0  0  0  0  0  0  0  0  0
  185.1470  178.3800  147.6380 C   0  0  0  0  0  1  0  0  0  0  0  0
  1 20  1  0  0  0  0
  2 24  1  6  0  0  0
  2 12  1  0  0  0  0
  4  3  1  0  0  0  0
  5 27  2  0  0  0  0
  6  5  1  0  0  0  0
  6 28  2  0  0  0  0
  7 19  1  6  0  0  0
  7 17  1  0  0  0  0
  9 26  1  0  0  0  0
  9 28  1  0  0  0  0
 10 20  1  0  0  0  0
 11  3  1  0  0  0  0
 12  8  1  6  0  0  0
 12 13  1  0  0  0  0
 13 11  1  1  0  0  0
 14 22  1  0  0  0  0
 15  9  2  0  0  0  0
 16  1  1  0  0  0  0
 17 10  1  1  0  0  0
 17  8  1  0  0  0  0
 18 15  1  0  0  0  0
 18  6  1  0  0  0  0
 19 16  1  0  0  0  0
 20 29  1  1  0  0  0
 21  4  1  0  0  0  0
 22 13  1  0  0  0  0
 22 21  1  6  0  0  0
 23 14  1  0  0  0  0
 24  7  1  0  0  0  0
 25  5  1  0  0  0  0
 27  2  1  0  0  0  0
 27 14  1  0  0  0  0
 28 23  1  0  0  0  0
 29 30  1  0  0  0  0
 30 31  2  0  0  0  0
 30 32  1  0  0  0  0
M  END
>  <MODEL>
7

>  <REMARK>
 VINA RESULT:      -7.6      2.851      4.363
  Name = 
  1 active torsions:
  status: ('A' for Active; 'I' for Inactive)
    1  A    between atoms: C_20  and  N_29
                            x       y       z     vdW  Elec       q    Type
                         _______ _______ _______ _____ _____    ______ ____

>  <TORSDO>
F 1

$$$$
=
 OpenBabel11112416303D

 32 37  0  0  1  0  0  0  0  0999 V2000
  189.3410  175.7910  147.5690 C   0  0  0  0  0  2  0  0  0  0  0  0
  192.8900  176.1770  143.2100 C   0  0  1  0  0  3  0  0  0  0  0  0
  189.1780  173.5020  141.4260 C   0  0  0  0  0  2  0  0  0  0  0  0
  190.1030  172.7790  140.4470 C   0  0  0  0  0  2  0  0  0  0  0  0
  195.2090  175.6140  142.5590 C   0  0  0  0  0  0  0  0  0  0  0  0
  196.1520  174.7820  141.8110 C   0  0  0  0  0  0  0  0  0  0  0  0
  191.7810  176.3790  145.4390 C   0  0  1  0  0  3  0  0  0  0  0  0
  190.6380  177.0450  143.3260 C   0  0  0  0  0  2  0  0  0  0  0  0
  196.8250  173.2150  140.4380 C   0  0  0  0  0  0  0  0  0  0  0  0
  189.3980  177.2230  145.4890 C   0  0  0  0  0  2  0  0  0  0  0  0
  189.6560  174.9340  141.6550 C   0  0  0  0  0  2  0  0  0  0  0  0
  191.5910  176.2690  142.5110 N   0  0  2  0  0  0  0  0  0  0  0  0
  191.0880  174.9170  142.2050 C   0  0  2  0  0  3  0  0  0  0  0  0
  193.4100  174.3300  141.5190 N   0  0  0  0  0  0  0  0  0  0  0  0
  197.9140  173.8900  140.9810 C   0  0  0  0  0  3  0  0  0  0  0  0
  190.5500  174.9440  147.1900 C   0  0  0  0  0  2  0  0  0  0  0  0
  190.4350  176.4320  144.7110 C   0  0  2  0  0  3  0  0  0  0  0  0
  197.4640  174.8260  141.8050 O   0  0  0  0  0  0  0  0  0  0  0  0
  191.7370  175.8500  146.8790 C   0  0  0  0  0  2  0  0  0  0  0  0
  188.5680  176.2720  146.3410 C   0  0  2  0  0  3  0  0  0  0  0  0
  191.5450  172.8040  140.9510 C   0  0  0  0  0  2  0  0  0  0  0  0
  191.9910  174.2520  141.1560 C   0  0  1  0  0  3  0  0  0  0  0  0
  194.3350  173.5460  140.7920 N   0  0  0  0  0  2  0  0  0  0  0  0
  192.7600  175.5630  144.6130 C   0  0  0  0  0  2  0  0  0  0  0  0
  195.6800  176.6070  143.4130 O   0  0  0  0  0  1  0  0  0  0  0  0
  196.8610  172.0940  139.4610 C   0  0  0  0  0  1  0  0  0  0  0  0
  193.8840  175.3890  142.4030 C   0  0  0  0  0  0  0  0  0  0  0  0
  195.7190  173.8040  140.9880 C   0  0  0  0  0  0  0  0  0  0  0  0
  187.3520  176.9510  146.7640 N   0  0  0  0  0  2  0  0  0  0  0  0
  186.1640  176.9670  145.9700 C   0  0  0  0  0  0  0  0  0  0  0  0
  186.1340  176.4040  144.8440 O   0  0  0  0  0  0  0  0  0  0  0  0
  184.9520  177.6610  146.4780 C   0  0  0  0  0  1  0  0  0  0  0  0
  2 24  1  1  0  0  0
  3 11  1  0  0  0  0
  4 21  1  0  0  0  0
  4  3  1  0  0  0  0
  5 25  1  0  0  0  0
  6  5  1  0  0  0  0
  7 24  1  6  0  0  0
  7 19  1  0  0  0  0
  9 15  2  0  0  0  0
  9 28  1  0  0  0  0
 10 20  1  0  0  0  0
 12  2  1  0  0  0  0
 12  8  1  1  0  0  0
 13 11  1  6  0  0  0
 13 12  1  0  0  0  0
 14 27  1  0  0  0  0
 15 18  1  0  0  0  0
 16  1  1  0  0  0  0
 17  8  1  6  0  0  0
 17  7  1  0  0  0  0
 17 10  1  0  0  0  0
 18  6  1  0  0  0  0
 19 16  1  0  0  0  0
 20 29  1  1  0  0  0
 20  1  1  0  0  0  0
 22 21  1  1  0  0  0
 22 14  1  0  0  0  0
 22 13  1  0  0  0  0
 23 28  1  0  0  0  0
 23 14  1  0  0  0  0
 26  9  1  0  0  0  0
 27  5  2  0  0  0  0
 27  2  1  0  0  0  0
 28  6  2  0  0  0  0
 30 32  1  0  0  0  0
 30 29  1  0  0  0  0
 31 30  2  0  0  0  0
M  END
>  <MODEL>
8

>  <REMARK>
 VINA RESULT:      -7.5      2.813      3.274
  Name = 
  1 active torsions:
  status: ('A' for Active; 'I' for Inactive)
    1  A    between atoms: C_20  and  N_29
                            x       y       z     vdW  Elec       q    Type
                         _______ _______ _______ _____ _____    ______ ____

>  <TORSDO>
F 1

$$$$
=
 OpenBabel11112416303D

 32 37  0  0  1  0  0  0  0  0999 V2000
  185.9910  178.9380  143.2700 C   0  0  0  0  0  2  0  0  0  0  0  0
  188.8120  174.2910  141.7880 C   0  0  1  0  0  3  0  0  0  0  0  0
  192.0800  176.8100  144.4520 C   0  0  0  0  0  2  0  0  0  0  0  0
  193.2520  176.2020  143.6800 C   0  0  0  0  0  2  0  0  0  0  0  0
  189.5770  173.0600  139.7830 C   0  0  0  0  0  0  0  0  0  0  0  0
  190.6500  172.6480  138.8780 C   0  0  0  0  0  0  0  0  0  0  0  0
  187.0720  176.0560  142.1040 C   0  0  1  0  0  3  0  0  0  0  0  0
  188.2350  174.9830  144.0300 C   0  0  0  0  0  2  0  0  0  0  0  0
  192.6910  172.4610  138.1080 C   0  0  0  0  0  0  0  0  0  0  0  0
  186.5650  176.7910  144.4700 C   0  0  0  0  0  2  0  0  0  0  0  0
  190.9290  175.8110  144.5510 C   0  0  0  0  0  2  0  0  0  0  0  0
  189.3210  174.4910  143.1610 N   0  0  2  0  0  0  0  0  0  0  0  0
  190.4750  175.4080  143.1410 C   0  0  2  0  0  3  0  0  0  0  0  0
  191.2820  174.1680  141.1360 N   0  0  0  0  0  0  0  0  0  0  0  0
  191.7920  171.8020  137.2750 C   0  0  0  0  0  3  0  0  0  0  0  0
  186.7910  178.6160  142.0130 C   0  0  0  0  0  2  0  0  0  0  0  0
  187.6300  176.2860  143.5110 C   0  0  2  0  0  3  0  0  0  0  0  0
  190.5720  171.9400  137.7760 O   0  0  0  0  0  0  0  0  0  0  0  0
  186.3630  177.2580  141.4650 C   0  0  0  0  0  2  0  0  0  0  0  0
  186.6070  178.3120  144.5200 C   0  0  2  0  0  3  0  0  0  0  0  0
  192.8030  175.7410  142.2950 C   0  0  0  0  0  2  0  0  0  0  0  0
  191.6610  174.7340  142.4350 C   0  0  1  0  0  3  0  0  0  0  0  0
  192.3080  173.7480  140.2590 N   0  0  0  0  0  2  0  0  0  0  0  0
  188.1910  175.5680  141.2000 C   0  0  0  0  0  2  0  0  0  0  0  0
  188.2590  172.7060  139.5090 O   0  0  0  0  0  1  0  0  0  0  0  0
  194.1650  172.5600  137.9350 C   0  0  0  0  0  1  0  0  0  0  0  0
  189.8970  173.7900  140.8760 C   0  0  0  0  0  0  0  0  0  0  0  0
  191.9340  172.9910  139.1160 C   0  0  0  0  0  0  0  0  0  0  0  0
  185.8890  178.7680  145.7010 N   0  0  0  0  0  2  0  0  0  0  0  0
  186.3690  178.5460  147.0280 C   0  0  0  0  0  0  0  0  0  0  0  0
  187.4410  177.9160  147.2280 O   0  0  0  0  0  0  0  0  0  0  0  0
  185.5930  179.0620  148.1860 C   0  0  0  0  0  1  0  0  0  0  0  0
  1 20  1  0  0  0  0
  2 24  1  6  0  0  0
  2 12  1  0  0  0  0
  3 11  1  0  0  0  0
  4  3  1  0  0  0  0
  5 27  2  0  0  0  0
  6 28  2  0  0  0  0
  6  5  1  0  0  0  0
  7 24  1  6  0  0  0
  7 17  1  0  0  0  0
  9 28  1  0  0  0  0
 10 20  1  0  0  0  0
 12  8  1  1  0  0  0
 13 12  1  0  0  0  0
 13 11  1  1  0  0  0
 14 22  1  0  0  0  0
 15 18  1  0  0  0  0
 15  9  2  0  0  0  0
 16  1  1  0  0  0  0
 17  8  1  1  0  0  0
 17 10  1  0  0  0  0
 18  6  1  0  0  0  0
 19 16  1  0  0  0  0
 19  7  1  0  0  0  0
 20 29  1  1  0  0  0
 21  4  1  0  0  0  0
 22 21  1  6  0  0  0
 22 13  1  0  0  0  0
 23 14  1  0  0  0  0
 25  5  1  0  0  0  0
 26  9  1  0  0  0  0
 27 14  1  0  0  0  0
 27  2  1  0  0  0  0
 28 23  1  0  0  0  0
 29 30  1  0  0  0  0
 30 31  2  0  0  0  0
 30 32  1  0  0  0  0
M  END
>  <MODEL>
9

>  <REMARK>
 VINA RESULT:      -7.4      3.415      5.580
  Name = 
  1 active torsions:
  status: ('A' for Active; 'I' for Inactive)
    1  A    between atoms: C_20  and  N_29
                            x       y       z     vdW  Elec       q    Type
                         _______ _______ _______ _____ _____    ______ ____

>  <TORSDO>
F 1

$$$$
