=
 OpenBabel11112416313D

 32 37  0  0  1  0  0  0  0  0999 V2000
  195.0120  175.6470  144.8620 C   0  0  0  0  0  2  0  0  0  0  0  0
  189.4480  175.5860  145.3210 C   0  0  1  0  0  3  0  0  0  0  0  0
  190.1240  172.5900  141.4300 C   0  0  0  0  0  2  0  0  0  0  0  0
  188.9270  173.1870  140.7040 C   0  0  0  0  0  2  0  0  0  0  0  0
  187.8230  177.5640  145.2180 C   0  0  1  0  0  3  0  0  0  0  0  0
  186.7200  178.1620  144.3910 C   0  0  0  0  0  0  0  0  0  0  0  0
  191.8920  175.8790  145.7490 C   0  0  1  0  0  3  0  0  0  0  0  0
  190.9530  173.5790  145.4680 C   0  0  0  0  0  2  0  0  0  0  0  0
  185.3770  178.4770  142.6760 C   0  0  0  0  0  0  0  0  0  0  0  0
  193.4310  173.8650  145.7390 C   0  0  0  0  0  2  0  0  0  0  0  0
  189.9000  172.7030  142.9330 C   0  0  0  0  0  2  0  0  0  0  0  0
  189.6870  174.1520  144.8030 C   0  0  2  0  0  3  0  0  0  0  0  0
  189.7850  174.1130  143.3280 N   0  0  2  0  0  0  0  0  0  0  0  0
  188.2800  176.0880  143.1490 C   0  0  1  0  0  3  0  0  0  0  0  0
  185.1220  179.4190  143.6610 C   0  0  0  0  0  3  0  0  0  0  0  0
  193.8690  176.5930  144.5110 C   0  0  0  0  0  2  0  0  0  0  0  0
  192.1550  174.4730  145.1850 C   0  0  2  0  0  3  0  0  0  0  0  0
  185.9560  179.2260  144.7140 N   0  0  0  0  0  2  0  0  0  0  0  0
  193.0370  176.8000  145.6950 N   0  0  0  0  0  2  0  0  0  0  0  0
  194.5850  174.1790  144.7910 C   0  0  2  0  0  3  0  0  0  0  0  0
  188.6950  174.6150  141.1780 C   0  0  0  0  0  2  0  0  0  0  0  0
  188.5530  174.6470  142.7040 C   0  0  1  0  0  3  0  0  0  0  0  0
  187.0530  176.5980  142.5290 N   0  0  0  0  0  2  0  0  0  0  0  0
  190.6680  176.4890  145.0780 C   0  0  0  0  0  2  0  0  0  0  0  0
  187.3930  177.4770  146.6730 C   0  0  0  0  0  1  0  0  0  0  0  0
  184.6890  178.3540  141.3630 C   0  0  0  0  0  1  0  0  0  0  0  0
  188.1790  176.1510  144.6890 C   0  0  1  0  0  3  0  0  0  0  0  0
  186.4020  177.7030  143.1480 C   0  0  0  0  0  0  0  0  0  0  0  0
  195.7150  173.3220  145.1160 N   0  0  0  0  0  2  0  0  0  0  0  0
  196.5260  172.7030  144.1150 C   0  0  0  0  0  0  0  0  0  0  0  0
  196.2690  172.8610  142.8910 O   0  0  0  0  0  0  0  0  0  0  0  0
  197.6800  171.8610  144.5210 C   0  0  0  0  0  1  0  0  0  0  0  0
  2 24  1  6  0  0  0
  3 11  1  0  0  0  0
  4 21  1  0  0  0  0
  4  3  1  0  0  0  0
  5 25  1  1  0  0  0
  6 18  1  0  0  0  0
  6  5  1  0  0  0  0
  7 24  1  6  0  0  0
  9 28  1  0  0  0  0
  9 15  2  0  0  0  0
 12  2  1  0  0  0  0
 12  8  1  1  0  0  0
 13 11  1  6  0  0  0
 13 12  1  0  0  0  0
 14 23  1  6  0  0  0
 14 27  1  0  0  0  0
 15 18  1  0  0  0  0
 16  1  1  0  0  0  0
 16 19  1  0  0  0  0
 17  8  1  1  0  0  0
 17 10  1  0  0  0  0
 17  7  1  0  0  0  0
 19  7  1  0  0  0  0
 20  1  1  0  0  0  0
 20 29  1  1  0  0  0
 20 10  1  0  0  0  0
 22 21  1  6  0  0  0
 22 14  1  0  0  0  0
 22 13  1  0  0  0  0
 23 28  1  0  0  0  0
 26  9  1  0  0  0  0
 27  5  1  0  0  0  0
 27  2  1  0  0  0  0
 28  6  2  0  0  0  0
 30 32  1  0  0  0  0
 30 29  1  0  0  0  0
 31 30  2  0  0  0  0
M  END
>  <MODEL>
1

>  <REMARK>
 VINA RESULT:      -8.7      0.000      0.000
  Name = 
  1 active torsions:
  status: ('A' for Active; 'I' for Inactive)
    1  A    between atoms: C_20  and  N_29
                            x       y       z     vdW  Elec       q    Type
                         _______ _______ _______ _____ _____    ______ ____

>  <TORSDO>
F 1

$$$$
=
 OpenBabel11112416313D

 32 37  0  0  1  0  0  0  0  0999 V2000
  190.9940  171.2610  141.6180 C   0  0  0  0  0  2  0  0  0  0  0  0
  189.3350  176.4460  142.8590 C   0  0  1  0  0  3  0  0  0  0  0  0
  192.1300  175.3600  146.8070 C   0  0  0  0  0  2  0  0  0  0  0  0
  191.1410  176.0320  147.7480 C   0  0  0  0  0  2  0  0  0  0  0  0
  186.9450  177.3310  143.1170 C   0  0  1  0  0  3  0  0  0  0  0  0
  185.9780  177.8840  144.1250 C   0  0  0  0  0  0  0  0  0  0  0  0
  189.8530  174.3050  141.6780 C   0  0  1  0  0  3  0  0  0  0  0  0
  191.7180  175.6910  142.6000 C   0  0  0  0  0  2  0  0  0  0  0  0
  185.1460  178.4340  146.0870 C   0  0  0  0  0  0  0  0  0  0  0  0
  192.2430  173.4690  141.5580 C   0  0  0  0  0  2  0  0  0  0  0  0
  192.0520  176.0330  145.4420 C   0  0  0  0  0  2  0  0  0  0  0  0
  190.7340  176.4520  143.5100 C   0  0  2  0  0  3  0  0  0  0  0  0
  190.7060  175.8810  144.8740 N   0  0  2  0  0  0  0  0  0  0  0  0
  188.3510  176.6340  145.1670 C   0  0  1  0  0  3  0  0  0  0  0  0
  184.2380  178.7330  145.0820 C   0  0  0  0  0  3  0  0  0  0  0  0
  189.7150  171.9130  142.1330 C   0  0  0  0  0  2  0  0  0  0  0  0
  191.2300  174.2670  142.3610 C   0  0  2  0  0  3  0  0  0  0  0  0
  184.7520  178.3870  143.8750 N   0  0  0  0  0  0  0  0  0  0  0  0
  189.3360  173.0020  141.2360 N   0  0  0  0  0  2  0  0  0  0  0  0
  192.2450  172.0270  142.0530 C   0  0  2  0  0  3  0  0  0  0  0  0
  189.7460  176.0060  147.1380 C   0  0  0  0  0  2  0  0  0  0  0  0
  189.7730  176.6350  145.7400 C   0  0  1  0  0  3  0  0  0  0  0  0
  187.4420  177.3910  146.0320 N   0  0  0  0  0  0  0  0  0  0  0  0
  188.8470  175.0170  142.5740 C   0  0  0  0  0  2  0  0  0  0  0  0
  186.9880  178.2290  141.8910 C   0  0  0  0  0  1  0  0  0  0  0  0
  184.9600  178.6490  147.5470 C   0  0  0  0  0  1  0  0  0  0  0  0
  188.3600  177.2220  143.7390 C   0  0  1  0  0  3  0  0  0  0  0  0
  186.2310  177.8810  145.4640 C   0  0  0  0  0  0  0  0  0  0  0  0
  193.4330  171.3520  141.5510 N   0  0  0  0  0  2  0  0  0  0  0  0
  194.6410  171.2510  142.3080 C   0  0  0  0  0  0  0  0  0  0  0  0
  194.7290  171.7750  143.4500 O   0  0  0  0  0  0  0  0  0  0  0  0
  195.8060  170.5250  141.7400 C   0  0  0  0  0  1  0  0  0  0  0  0
  1 20  1  0  0  0  0
  1 16  1  0  0  0  0
  2 24  1  1  0  0  0
  2 12  1  0  0  0  0
  2 27  1  0  0  0  0
  3  4  1  0  0  0  0
  5 25  1  6  0  0  0
  5 27  1  0  0  0  0
  5  6  1  0  0  0  0
  6 28  1  0  0  0  0
  7 17  1  0  0  0  0
  7 24  1  1  0  0  0
  9 26  1  0  0  0  0
 10 20  1  0  0  0  0
 11  3  1  0  0  0  0
 12  8  1  6  0  0  0
 12 13  1  0  0  0  0
 13 11  1  1  0  0  0
 13 22  1  0  0  0  0
 14 22  1  0  0  0  0
 14 23  1  1  0  0  0
 15  9  2  0  0  0  0
 17 10  1  6  0  0  0
 17  8  1  0  0  0  0
 18  6  2  0  0  0  0
 18 15  1  0  0  0  0
 19  7  1  0  0  0  0
 19 16  1  0  0  0  0
 20 29  1  6  0  0  0
 21  4  1  0  0  0  0
 22 21  1  1  0  0  0
 27 14  1  0  0  0  0
 28 23  2  0  0  0  0
 28  9  1  0  0  0  0
 29 30  1  0  0  0  0
 30 31  2  0  0  0  0
 32 30  1  0  0  0  0
M  END
>  <MODEL>
2

>  <REMARK>
 VINA RESULT:      -8.5      2.142      4.296
  Name = 
  1 active torsions:
  status: ('A' for Active; 'I' for Inactive)
    1  A    between atoms: C_20  and  N_29
                            x       y       z     vdW  Elec       q    Type
                         _______ _______ _______ _____ _____    ______ ____

>  <TORSDO>
F 1

$$$$
=
 OpenBabel11112416313D

 32 37  0  0  1  0  0  0  0  0999 V2000
  187.2150  177.4710  146.5950 C   0  0  0  0  0  2  0  0  0  0  0  0
  192.0840  176.1180  144.2200 C   0  0  1  0  0  3  0  0  0  0  0  0
  189.0250  172.8720  142.0570 C   0  0  0  0  0  2  0  0  0  0  0  0
  190.0580  171.7600  142.1600 C   0  0  0  0  0  2  0  0  0  0  0  0
  194.2500  175.3590  145.3580 C   0  0  1  0  0  3  0  0  0  0  0  0
  195.1710  174.1810  145.5080 C   0  0  0  0  0  0  0  0  0  0  0  0
  190.2570  177.2880  145.4600 C   0  0  1  0  0  3  0  0  0  0  0  0
  190.0220  176.8820  143.0040 C   0  0  0  0  0  2  0  0  0  0  0  0
  195.8950  172.1080  145.3670 C   0  0  0  0  0  0  0  0  0  0  0  0
  188.1120  177.9160  144.2630 C   0  0  0  0  0  2  0  0  0  0  0  0
  189.7440  174.2110  141.9590 C   0  0  0  0  0  2  0  0  0  0  0  0
  191.1240  175.8060  143.0530 C   0  0  2  0  0  3  0  0  0  0  0  0
  190.5500  174.4480  143.1640 N   0  0  2  0  0  0  0  0  0  0  0  0
  192.5880  173.6570  144.3540 C   0  0  1  0  0  3  0  0  0  0  0  0
  196.8160  172.8900  146.0470 C   0  0  0  0  0  3  0  0  0  0  0  0
  188.4660  176.7060  147.0110 C   0  0  0  0  0  2  0  0  0  0  0  0
  189.2730  176.9390  144.3310 C   0  0  2  0  0  3  0  0  0  0  0  0
  196.3630  174.1660  146.1380 N   0  0  0  0  0  2  0  0  0  0  0  0
  189.6410  177.5410  146.7710 N   0  0  0  0  0  2  0  0  0  0  0  0
  186.9530  177.3700  145.0900 C   0  0  2  0  0  3  0  0  0  0  0  0
  190.9950  172.0320  143.3290 C   0  0  0  0  0  2  0  0  0  0  0  0
  191.6190  173.4250  143.1890 C   0  0  1  0  0  3  0  0  0  0  0  0
  193.6450  172.6400  144.3590 N   0  0  0  0  0  2  0  0  0  0  0  0
  191.3360  176.2180  145.5600 C   0  0  0  0  0  2  0  0  0  0  0  0
  195.0480  176.6000  144.9970 C   0  0  0  0  0  1  0  0  0  0  0  0
  196.0090  170.6550  145.0670 C   0  0  0  0  0  1  0  0  0  0  0  0
  193.1950  175.0730  144.2590 C   0  0  1  0  0  3  0  0  0  0  0  0
  194.8540  172.9370  145.0510 C   0  0  0  0  0  0  0  0  0  0  0  0
  185.7400  178.1010  144.7530 N   0  0  0  0  0  2  0  0  0  0  0  0
  185.0370  177.9010  143.5240 C   0  0  0  0  0  0  0  0  0  0  0  0
  185.4650  177.0880  142.6630 O   0  0  0  0  0  0  0  0  0  0  0  0
  183.7920  178.6650  143.2590 C   0  0  0  0  0  1  0  0  0  0  0  0
  1 16  1  0  0  0  0
  2 27  1  0  0  0  0
  2 24  1  1  0  0  0
  3  4  1  0  0  0  0
  4 21  1  0  0  0  0
  5 25  1  6  0  0  0
  5  6  1  0  0  0  0
  6 18  1  0  0  0  0
  7 24  1  1  0  0  0
  7 19  1  0  0  0  0
  9 15  2  0  0  0  0
 10 17  1  0  0  0  0
 10 20  1  0  0  0  0
 11  3  1  0  0  0  0
 12  8  1  1  0  0  0
 12 13  1  0  0  0  0
 12  2  1  0  0  0  0
 13 11  1  6  0  0  0
 13 22  1  0  0  0  0
 14 23  1  6  0  0  0
 15 18  1  0  0  0  0
 17  8  1  6  0  0  0
 17  7  1  0  0  0  0
 19 16  1  0  0  0  0
 20 29  1  1  0  0  0
 20  1  1  0  0  0  0
 22 21  1  1  0  0  0
 22 14  1  0  0  0  0
 23 28  1  0  0  0  0
 26  9  1  0  0  0  0
 27 14  1  0  0  0  0
 27  5  1  0  0  0  0
 28  9  1  0  0  0  0
 28  6  2  0  0  0  0
 30 29  1  0  0  0  0
 31 30  2  0  0  0  0
 32 30  1  0  0  0  0
M  END
>  <MODEL>
3

>  <REMARK>
 VINA RESULT:      -8.5      2.596      8.047
  Name = 
  1 active torsions:
  status: ('A' for Active; 'I' for Inactive)
    1  A    between atoms: C_20  and  N_29
                            x       y       z     vdW  Elec       q    Type
                         _______ _______ _______ _____ _____    ______ ____

>  <TORSDO>
F 1

$$$$
=
 OpenBabel11112416313D

 32 37  0  0  1  0  0  0  0  0999 V2000
  190.6470  171.9820  143.2150 C   0  0  0  0  0  2  0  0  0  0  0  0
  188.2190  176.8660  142.0200 C   0  0  1  0  0  3  0  0  0  0  0  0
  188.6570  177.1900  146.9470 C   0  0  0  0  0  2  0  0  0  0  0  0
  187.2790  177.8240  147.0740 C   0  0  0  0  0  2  0  0  0  0  0  0
  185.9800  177.2830  140.8470 C   0  0  1  0  0  3  0  0  0  0  0  0
  184.5960  177.8210  141.0720 C   0  0  0  0  0  0  0  0  0  0  0  0
  189.4220  174.6800  141.8760 C   0  0  1  0  0  3  0  0  0  0  0  0
  190.4430  176.5720  143.1520 C   0  0  0  0  0  2  0  0  0  0  0  0
  182.8360  178.5760  142.1570 C   0  0  0  0  0  0  0  0  0  0  0  0
  191.5870  174.3380  143.1500 C   0  0  0  0  0  2  0  0  0  0  0  0
  189.2430  177.5430  145.5860 C   0  0  0  0  0  2  0  0  0  0  0  0
  189.0800  177.2860  143.2300 C   0  0  2  0  0  3  0  0  0  0  0  0
  188.3950  177.0090  144.5110 N   0  0  2  0  0  0  0  0  0  0  0  0
  186.1780  177.3140  143.4210 C   0  0  1  0  0  3  0  0  0  0  0  0
  182.5550  178.4760  140.8030 C   0  0  0  0  0  3  0  0  0  0  0  0
  189.2420  172.4520  142.8530 C   0  0  0  0  0  2  0  0  0  0  0  0
  190.2510  175.0600  143.1140 C   0  0  2  0  0  3  0  0  0  0  0  0
  183.6400  178.0040  140.1380 N   0  0  0  0  0  0  0  0  0  0  0  0
  189.3020  173.2370  141.6220 N   0  0  0  0  0  2  0  0  0  0  0  0
  191.4380  173.0570  143.9640 C   0  0  2  0  0  3  0  0  0  0  0  0
  186.4020  177.3940  145.9050 C   0  0  0  0  0  2  0  0  0  0  0  0
  187.0980  177.7190  144.5780 C   0  0  1  0  0  3  0  0  0  0  0  0
  184.9020  178.0310  143.4980 N   0  0  0  0  0  0  0  0  0  0  0  0
  188.0510  175.3400  141.9450 C   0  0  0  0  0  2  0  0  0  0  0  0
  186.5820  177.9030  139.5970 C   0  0  0  0  0  1  0  0  0  0  0  0
  181.9110  179.0400  143.2260 C   0  0  0  0  0  1  0  0  0  0  0  0
  186.8770  177.5900  142.0730 C   0  0  1  0  0  3  0  0  0  0  0  0
  184.1240  178.1400  142.3100 C   0  0  0  0  0  0  0  0  0  0  0  0
  192.7600  172.5490  144.3000 N   0  0  0  0  0  2  0  0  0  0  0  0
  193.5330  173.0690  145.3840 C   0  0  0  0  0  0  0  0  0  0  0  0
  193.0980  174.0210  146.0850 O   0  0  0  0  0  0  0  0  0  0  0  0
  194.8650  172.4830  145.6830 C   0  0  0  0  0  1  0  0  0  0  0  0
  1 20  1  0  0  0  0
  2 24  1  1  0  0  0
  2 27  1  0  0  0  0
  2 12  1  0  0  0  0
  3  4  1  0  0  0  0
  5 25  1  6  0  0  0
  5  6  1  0  0  0  0
  5 27  1  0  0  0  0
  6 28  1  0  0  0  0
  7 24  1  1  0  0  0
  7 17  1  0  0  0  0
  9 28  1  0  0  0  0
  9 26  1  0  0  0  0
 10 20  1  0  0  0  0
 11  3  1  0  0  0  0
 12  8  1  1  0  0  0
 12 13  1  0  0  0  0
 13 22  1  0  0  0  0
 13 11  1  1  0  0  0
 14 23  1  6  0  0  0
 14 22  1  0  0  0  0
 15  9  2  0  0  0  0
 16  1  1  0  0  0  0
 17 10  1  6  0  0  0
 17  8  1  0  0  0  0
 18 15  1  0  0  0  0
 18  6  2  0  0  0  0
 19  7  1  0  0  0  0
 19 16  1  0  0  0  0
 20 29  1  6  0  0  0
 21  4  1  0  0  0  0
 22 21  1  1  0  0  0
 27 14  1  0  0  0  0
 28 23  2  0  0  0  0
 29 30  1  0  0  0  0
 30 32  1  0  0  0  0
 30 31  2  0  0  0  0
M  END
>  <MODEL>
4

>  <REMARK>
 VINA RESULT:      -7.7      2.208      4.599
  Name = 
  1 active torsions:
  status: ('A' for Active; 'I' for Inactive)
    1  A    between atoms: C_20  and  N_29
                            x       y       z     vdW  Elec       q    Type
                         _______ _______ _______ _____ _____    ______ ____

>  <TORSDO>
F 1

$$$$
=
 OpenBabel11112416313D

 32 37  0  0  1  0  0  0  0  0999 V2000
  187.2630  178.1360  143.1240 C   0  0  0  0  0  2  0  0  0  0  0  0
  191.3040  174.2830  143.0690 C   0  0  1  0  0  3  0  0  0  0  0  0
  192.4230  176.7910  147.1960 C   0  0  0  0  0  2  0  0  0  0  0  0
  193.9120  176.7240  146.8880 C   0  0  0  0  0  2  0  0  0  0  0  0
  193.0580  173.8460  141.2540 C   0  0  1  0  0  3  0  0  0  0  0  0
  194.5330  173.9120  140.9780 C   0  0  0  0  0  0  0  0  0  0  0  0
  189.2150  175.5830  142.6300 C   0  0  1  0  0  3  0  0  0  0  0  0
  189.6100  174.6060  144.8980 C   0  0  0  0  0  2  0  0  0  0  0  0
  196.6580  174.4060  141.2700 C   0  0  0  0  0  0  0  0  0  0  0  0
  187.5860  176.0400  144.5180 C   0  0  0  0  0  2  0  0  0  0  0  0
  191.7340  175.5770  146.5850 C   0  0  0  0  0  2  0  0  0  0  0  0
  191.1120  174.4450  144.5920 C   0  0  2  0  0  3  0  0  0  0  0  0
  191.8970  175.5780  145.1250 N   0  0  2  0  0  0  0  0  0  0  0  0
  193.6020  175.2700  143.3370 C   0  0  1  0  0  3  0  0  0  0  0  0
  196.4790  173.7660  140.0520 C   0  0  0  0  0  3  0  0  0  0  0  0
  188.5640  177.9180  142.3600 C   0  0  0  0  0  2  0  0  0  0  0  0
  189.0380  175.8000  144.1420 C   0  0  2  0  0  3  0  0  0  0  0  0
  195.1670  173.4690  139.8740 N   0  0  0  0  0  0  0  0  0  0  0  0
  188.5570  176.5800  141.7730 N   0  0  0  0  0  2  0  0  0  0  0  0
  187.3170  177.5410  144.5330 C   0  0  2  0  0  3  0  0  0  0  0  0
  194.1240  176.5980  145.3850 C   0  0  0  0  0  2  0  0  0  0  0  0
  193.3390  175.3980  144.8420 C   0  0  1  0  0  3  0  0  0  0  0  0
  195.0330  175.0850  143.0750 N   0  0  0  0  0  0  0  0  0  0  0  0
  190.6950  175.4610  142.2920 C   0  0  0  0  0  2  0  0  0  0  0  0
  192.5140  172.4860  140.8490 C   0  0  0  0  0  1  0  0  0  0  0  0
  197.9410  174.9050  141.8330 C   0  0  0  0  0  1  0  0  0  0  0  0
  192.7860  174.0940  142.7590 C   0  0  1  0  0  3  0  0  0  0  0  0
  195.4140  174.5060  141.8310 C   0  0  0  0  0  0  0  0  0  0  0  0
  186.0600  177.7940  145.2220 N   0  0  0  0  0  2  0  0  0  0  0  0
  185.9850  178.0170  146.6320 C   0  0  0  0  0  0  0  0  0  0  0  0
  187.0220  177.9760  147.3450 O   0  0  0  0  0  0  0  0  0  0  0  0
  184.6690  178.2930  147.2620 C   0  0  0  0  0  1  0  0  0  0  0  0
  1 20  1  0  0  0  0
  2 24  1  6  0  0  0
  2 12  1  0  0  0  0
  4  3  1  0  0  0  0
  5 25  1  1  0  0  0
  5 27  1  0  0  0  0
  6  5  1  0  0  0  0
  6 28  1  0  0  0  0
  7 24  1  1  0  0  0
  7 17  1  0  0  0  0
  9 28  1  0  0  0  0
  9 26  1  0  0  0  0
 10 20  1  0  0  0  0
 11  3  1  0  0  0  0
 12  8  1  6  0  0  0
 12 13  1  0  0  0  0
 13 11  1  1  0  0  0
 14 23  1  1  0  0  0
 14 22  1  0  0  0  0
 15  9  2  0  0  0  0
 16  1  1  0  0  0  0
 17 10  1  6  0  0  0
 17  8  1  0  0  0  0
 18 15  1  0  0  0  0
 18  6  2  0  0  0  0
 19 16  1  0  0  0  0
 19  7  1  0  0  0  0
 20 29  1  6  0  0  0
 21  4  1  0  0  0  0
 22 13  1  0  0  0  0
 22 21  1  6  0  0  0
 27  2  1  0  0  0  0
 27 14  1  0  0  0  0
 28 23  2  0  0  0  0
 29 30  1  0  0  0  0
 30 32  1  0  0  0  0
 30 31  2  0  0  0  0
M  END
>  <MODEL>
5

>  <REMARK>
 VINA RESULT:      -7.7      3.109      8.388
  Name = 
  1 active torsions:
  status: ('A' for Active; 'I' for Inactive)
    1  A    between atoms: C_20  and  N_29
                            x       y       z     vdW  Elec       q    Type
                         _______ _______ _______ _____ _____    ______ ____

>  <TORSDO>
F 1

$$$$
=
 OpenBabel11112416313D

 32 37  0  0  1  0  0  0  0  0999 V2000
  195.3100  175.4430  142.7960 C   0  0  0  0  0  2  0  0  0  0  0  0
  190.1230  174.6610  144.7080 C   0  0  1  0  0  3  0  0  0  0  0  0
  189.5760  173.4670  139.9280 C   0  0  0  0  0  2  0  0  0  0  0  0
  188.2310  174.1760  139.8580 C   0  0  0  0  0  2  0  0  0  0  0  0
  188.5770  176.3560  145.8470 C   0  0  1  0  0  3  0  0  0  0  0  0
  187.2930  177.1130  145.6640 C   0  0  0  0  0  0  0  0  0  0  0  0
  192.5910  175.0080  144.5250 C   0  0  1  0  0  3  0  0  0  0  0  0
  191.5680  172.9100  143.6280 C   0  0  0  0  0  2  0  0  0  0  0  0
  185.5140  177.9270  144.6560 C   0  0  0  0  0  0  0  0  0  0  0  0
  194.0220  173.3150  143.2960 C   0  0  0  0  0  2  0  0  0  0  0  0
  189.8030  172.9730  141.3510 C   0  0  0  0  0  2  0  0  0  0  0  0
  190.1730  173.5670  143.6210 C   0  0  2  0  0  3  0  0  0  0  0  0
  189.8350  174.1050  142.2860 N   0  0  2  0  0  0  0  0  0  0  0  0
  188.3820  175.8390  143.3260 C   0  0  1  0  0  3  0  0  0  0  0  0
  185.5760  178.3900  145.9620 C   0  0  0  0  0  3  0  0  0  0  0  0
  194.1340  176.3340  143.1780 C   0  0  0  0  0  2  0  0  0  0  0  0
  192.6510  173.9590  143.4020 C   0  0  2  0  0  3  0  0  0  0  0  0
  186.6770  177.8910  146.5780 N   0  0  0  0  0  2  0  0  0  0  0  0
  193.6880  175.9880  144.5260 N   0  0  0  0  0  2  0  0  0  0  0  0
  194.8540  174.0800  142.2710 C   0  0  2  0  0  3  0  0  0  0  0  0
  188.1740  175.2830  140.9010 C   0  0  0  0  0  2  0  0  0  0  0  0
  188.4860  174.7130  142.2900 C   0  0  1  0  0  3  0  0  0  0  0  0
  187.0380  176.4240  143.3220 N   0  0  0  0  0  2  0  0  0  0  0  0
  191.2360  175.7040  144.5160 C   0  0  0  0  0  2  0  0  0  0  0  0
  188.5900  175.6760  147.2070 C   0  0  0  0  0  1  0  0  0  0  0  0
  184.4690  178.2490  143.6460 C   0  0  0  0  0  1  0  0  0  0  0  0
  188.7360  175.2970  144.7270 C   0  0  1  0  0  3  0  0  0  0  0  0
  186.6160  177.1370  144.4810 C   0  0  0  0  0  0  0  0  0  0  0  0
  196.0140  173.2800  141.9050 N   0  0  0  0  0  2  0  0  0  0  0  0
  196.5930  173.3160  140.5990 C   0  0  0  0  0  0  0  0  0  0  0  0
  196.0950  174.0370  139.6940 O   0  0  0  0  0  0  0  0  0  0  0  0
  197.7920  172.4910  140.3050 C   0  0  0  0  0  1  0  0  0  0  0  0
  1 16  1  0  0  0  0
  2 24  1  6  0  0  0
  2 27  1  0  0  0  0
  3 11  1  0  0  0  0
  4  3  1  0  0  0  0
  4 21  1  0  0  0  0
  5 25  1  1  0  0  0
  6  5  1  0  0  0  0
  6 18  1  0  0  0  0
  7 24  1  6  0  0  0
  7 19  1  0  0  0  0
  9 15  2  0  0  0  0
 12  8  1  6  0  0  0
 12  2  1  0  0  0  0
 13 11  1  6  0  0  0
 13 22  1  0  0  0  0
 13 12  1  0  0  0  0
 14 23  1  1  0  0  0
 14 27  1  0  0  0  0
 15 18  1  0  0  0  0
 16 19  1  0  0  0  0
 17 10  1  1  0  0  0
 17  8  1  0  0  0  0
 17  7  1  0  0  0  0
 20 29  1  1  0  0  0
 20  1  1  0  0  0  0
 20 10  1  0  0  0  0
 22 21  1  6  0  0  0
 22 14  1  0  0  0  0
 23 28  1  0  0  0  0
 26  9  1  0  0  0  0
 27  5  1  0  0  0  0
 28  9  1  0  0  0  0
 28  6  2  0  0  0  0
 30 29  1  0  0  0  0
 31 30  2  0  0  0  0
 32 30  1  0  0  0  0
M  END
>  <MODEL>
6

>  <REMARK>
 VINA RESULT:      -7.4      1.839      2.067
  Name = 
  1 active torsions:
  status: ('A' for Active; 'I' for Inactive)
    1  A    between atoms: C_20  and  N_29
                            x       y       z     vdW  Elec       q    Type
                         _______ _______ _______ _____ _____    ______ ____

>  <TORSDO>
F 1

$$$$
=
 OpenBabel11112416313D

 32 37  0  0  1  0  0  0  0  0999 V2000
  196.0170  173.8410  143.9890 C   0  0  0  0  0  2  0  0  0  0  0  0
  190.5820  173.7630  145.2630 C   0  0  1  0  0  3  0  0  0  0  0  0
  190.4380  172.9020  140.3830 C   0  0  0  0  0  2  0  0  0  0  0  0
  189.2280  173.8090  140.2120 C   0  0  0  0  0  2  0  0  0  0  0  0
  189.1740  175.6150  146.3350 C   0  0  1  0  0  3  0  0  0  0  0  0
  188.0430  176.5660  146.0610 C   0  0  0  0  0  0  0  0  0  0  0  0
  193.0780  173.7390  145.3760 C   0  0  1  0  0  3  0  0  0  0  0  0
  191.8740  171.8680  144.2350 C   0  0  0  0  0  2  0  0  0  0  0  0
  186.5340  177.6890  144.9200 C   0  0  0  0  0  0  0  0  0  0  0  0
  194.3830  171.9110  144.2020 C   0  0  0  0  0  2  0  0  0  0  0  0
  190.4210  172.3100  141.7860 C   0  0  0  0  0  2  0  0  0  0  0  0
  190.6010  172.7280  144.1180 C   0  0  2  0  0  3  0  0  0  0  0  0
  190.5060  173.3770  142.7920 N   0  0  2  0  0  0  0  0  0  0  0  0
  189.2060  175.2570  143.7780 C   0  0  1  0  0  3  0  0  0  0  0  0
  186.5070  178.0730  146.2520 C   0  0  0  0  0  3  0  0  0  0  0  0
  194.9450  174.8800  144.2980 C   0  0  0  0  0  2  0  0  0  0  0  0
  193.1170  172.7500  144.1990 C   0  0  2  0  0  3  0  0  0  0  0  0
  187.4440  177.3830  146.9510 N   0  0  0  0  0  2  0  0  0  0  0  0
  194.2970  174.5400  145.5630 N   0  0  0  0  0  2  0  0  0  0  0  0
  195.4330  172.5900  143.3290 C   0  0  2  0  0  3  0  0  0  0  0  0
  189.2090  174.8590  141.3140 C   0  0  0  0  0  2  0  0  0  0  0  0
  189.2680  174.1810  142.6880 C   0  0  1  0  0  3  0  0  0  0  0  0
  187.9710  176.0390  143.6650 N   0  0  0  0  0  2  0  0  0  0  0  0
  191.8490  174.6320  145.2640 C   0  0  0  0  0  2  0  0  0  0  0  0
  188.9260  174.8750  147.6390 C   0  0  0  0  0  1  0  0  0  0  0  0
  185.6750  178.2160  143.8250 C   0  0  0  0  0  1  0  0  0  0  0  0
  189.3090  174.6000  145.1710 C   0  0  1  0  0  3  0  0  0  0  0  0
  187.5230  176.7510  144.8160 C   0  0  0  0  0  0  0  0  0  0  0  0
  196.4990  171.6420  143.0400 N   0  0  0  0  0  2  0  0  0  0  0  0
  196.5840  170.9300  141.8040 C   0  0  0  0  0  0  0  0  0  0  0  0
  195.7060  171.0810  140.9140 O   0  0  0  0  0  0  0  0  0  0  0  0
  197.7150  169.9970  141.5710 C   0  0  0  0  0  1  0  0  0  0  0  0
  1 16  1  0  0  0  0
  2 24  1  6  0  0  0
  3 11  1  0  0  0  0
  4  3  1  0  0  0  0
  4 21  1  0  0  0  0
  5 25  1  1  0  0  0
  6  5  1  0  0  0  0
  6 18  1  0  0  0  0
  7 24  1  6  0  0  0
  7 19  1  0  0  0  0
  9 15  2  0  0  0  0
 12  8  1  6  0  0  0
 12  2  1  0  0  0  0
 13 11  1  6  0  0  0
 13 12  1  0  0  0  0
 14 23  1  1  0  0  0
 14 27  1  0  0  0  0
 15 18  1  0  0  0  0
 16 19  1  0  0  0  0
 17 10  1  1  0  0  0
 17  8  1  0  0  0  0
 17  7  1  0  0  0  0
 20 29  1  1  0  0  0
 20  1  1  0  0  0  0
 20 10  1  0  0  0  0
 22 21  1  6  0  0  0
 22 13  1  0  0  0  0
 22 14  1  0  0  0  0
 23 28  1  0  0  0  0
 26  9  1  0  0  0  0
 27  2  1  0  0  0  0
 27  5  1  0  0  0  0
 28  9  1  0  0  0  0
 28  6  2  0  0  0  0
 30 29  1  0  0  0  0
 31 30  2  0  0  0  0
 32 30  1  0  0  0  0
M  END
>  <MODEL>
7

>  <REMARK>
 VINA RESULT:      -7.3      1.709      2.317
  Name = 
  1 active torsions:
  status: ('A' for Active; 'I' for Inactive)
    1  A    between atoms: C_20  and  N_29
                            x       y       z     vdW  Elec       q    Type
                         _______ _______ _______ _____ _____    ______ ____

>  <TORSDO>
F 1

$$$$
=
 OpenBabel11112416313D

 32 37  0  0  1  0  0  0  0  0999 V2000
  184.8190  177.8370  144.8660 C   0  0  0  0  0  2  0  0  0  0  0  0
  190.1410  176.9140  143.4520 C   0  0  1  0  0  3  0  0  0  0  0  0
  187.8160  173.4670  140.7510 C   0  0  0  0  0  2  0  0  0  0  0  0
  188.8990  172.4390  141.0480 C   0  0  0  0  0  2  0  0  0  0  0  0
  192.1090  176.3130  144.9760 C   0  0  1  0  0  3  0  0  0  0  0  0
  193.0790  175.2110  145.2980 C   0  0  0  0  0  0  0  0  0  0  0  0
  188.0250  177.9160  144.3240 C   0  0  1  0  0  3  0  0  0  0  0  0
  188.2890  177.5300  141.8690 C   0  0  0  0  0  2  0  0  0  0  0  0
  193.9820  173.2040  145.2960 C   0  0  0  0  0  0  0  0  0  0  0  0
  186.0990  178.3880  142.7450 C   0  0  0  0  0  2  0  0  0  0  0  0
  188.4310  174.8610  140.7900 C   0  0  0  0  0  2  0  0  0  0  0  0
  189.4450  176.5440  142.1240 C   0  0  2  0  0  3  0  0  0  0  0  0
  188.9730  175.1430  142.1260 N   0  0  2  0  0  0  0  0  0  0  0  0
  190.8100  174.4990  143.6780 C   0  0  1  0  0  3  0  0  0  0  0  0
  194.6930  174.0460  146.1380 C   0  0  0  0  0  3  0  0  0  0  0  0
  186.0280  177.1690  145.5110 C   0  0  0  0  0  2  0  0  0  0  0  0
  187.3020  177.5060  143.0310 C   0  0  2  0  0  3  0  0  0  0  0  0
  194.1290  175.2810  146.1410 N   0  0  0  0  0  2  0  0  0  0  0  0
  187.1550  178.0980  145.4970 N   0  0  0  0  0  2  0  0  0  0  0  0
  184.8540  177.7390  143.3390 C   0  0  2  0  0  3  0  0  0  0  0  0
  189.5750  172.7680  142.3710 C   0  0  0  0  0  2  0  0  0  0  0  0
  190.0990  174.2080  142.3510 C   0  0  1  0  0  3  0  0  0  0  0  0
  191.9260  173.5700  143.8820 N   0  0  0  0  0  2  0  0  0  0  0  0
  189.1500  176.9340  144.6260 C   0  0  0  0  0  2  0  0  0  0  0  0
  192.8580  177.6200  144.7720 C   0  0  0  0  0  1  0  0  0  0  0  0
  194.2680  171.7690  145.0240 C   0  0  0  0  0  1  0  0  0  0  0  0
  191.3070  175.9600  143.6990 C   0  0  1  0  0  3  0  0  0  0  0  0
  192.9560  173.9530  144.7890 C   0  0  0  0  0  0  0  0  0  0  0  0
  183.6700  178.3750  142.7790 N   0  0  0  0  0  2  0  0  0  0  0  0
  183.3330  178.2900  141.3930 C   0  0  0  0  0  0  0  0  0  0  0  0
  184.0760  177.6700  140.5870 O   0  0  0  0  0  0  0  0  0  0  0  0
  182.0950  178.9450  140.8970 C   0  0  0  0  0  1  0  0  0  0  0  0
  1 16  1  0  0  0  0
  2 27  1  0  0  0  0
  2 24  1  1  0  0  0
  3 11  1  0  0  0  0
  3  4  1  0  0  0  0
  4 21  1  0  0  0  0
  5 25  1  6  0  0  0
  5  6  1  0  0  0  0
  6 18  1  0  0  0  0
  7 24  1  1  0  0  0
  7 19  1  0  0  0  0
  9 15  2  0  0  0  0
 10 17  1  0  0  0  0
 10 20  1  0  0  0  0
 12  8  1  1  0  0  0
 12 13  1  0  0  0  0
 12  2  1  0  0  0  0
 13 11  1  6  0  0  0
 13 22  1  0  0  0  0
 14 27  1  0  0  0  0
 14 23  1  6  0  0  0
 15 18  1  0  0  0  0
 17  8  1  6  0  0  0
 17  7  1  0  0  0  0
 19 16  1  0  0  0  0
 20 29  1  6  0  0  0
 20  1  1  0  0  0  0
 22 21  1  1  0  0  0
 22 14  1  0  0  0  0
 23 28  1  0  0  0  0
 26  9  1  0  0  0  0
 27  5  1  0  0  0  0
 28  9  1  0  0  0  0
 28  6  2  0  0  0  0
 30 29  1  0  0  0  0
 31 30  2  0  0  0  0
 32 30  1  0  0  0  0
M  END
>  <MODEL>
8

>  <REMARK>
 VINA RESULT:      -7.1      2.865      8.109
  Name = 
  1 active torsions:
  status: ('A' for Active; 'I' for Inactive)
    1  A    between atoms: C_20  and  N_29
                            x       y       z     vdW  Elec       q    Type
                         _______ _______ _______ _____ _____    ______ ____

>  <TORSDO>
F 1

$$$$
=
 OpenBabel11112416313D

 32 37  0  0  1  0  0  0  0  0999 V2000
  187.5220  178.2910  143.2470 C   0  0  0  0  0  2  0  0  0  0  0  0
  191.0560  173.9680  143.3210 C   0  0  1  0  0  3  0  0  0  0  0  0
  192.9120  176.7900  146.9500 C   0  0  0  0  0  2  0  0  0  0  0  0
  194.3390  176.4940  146.5130 C   0  0  0  0  0  2  0  0  0  0  0  0
  192.5340  173.0910  141.4220 C   0  0  1  0  0  3  0  0  0  0  0  0
  193.9670  172.9320  141.0000 C   0  0  0  0  0  0  0  0  0  0  0  0
  189.0960  175.4650  142.9140 C   0  0  1  0  0  3  0  0  0  0  0  0
  189.6250  174.7260  145.2440 C   0  0  0  0  0  2  0  0  0  0  0  0
  196.1540  173.1790  141.0180 C   0  0  0  0  0  0  0  0  0  0  0  0
  187.7520  176.3540  144.8710 C   0  0  0  0  0  2  0  0  0  0  0  0
  192.0220  175.6110  146.5760 C   0  0  0  0  0  2  0  0  0  0  0  0
  191.0540  174.3360  144.8200 C   0  0  2  0  0  3  0  0  0  0  0  0
  192.0210  175.4140  145.1200 N   0  0  2  0  0  0  0  0  0  0  0  0
  193.4690  174.6750  143.2350 C   0  0  1  0  0  3  0  0  0  0  0  0
  195.7680  172.4240  139.9200 C   0  0  0  0  0  3  0  0  0  0  0  0
  188.6950  177.8150  142.3980 C   0  0  0  0  0  2  0  0  0  0  0  0
  189.1150  175.8840  144.3940 C   0  0  2  0  0  3  0  0  0  0  0  0
  194.4190  172.2800  139.9090 N   0  0  0  0  0  0  0  0  0  0  0  0
  188.4680  176.4280  141.9980 N   0  0  0  0  0  2  0  0  0  0  0  0
  187.6630  177.8680  144.7110 C   0  0  2  0  0  3  0  0  0  0  0  0
  194.3660  176.1610  145.0270 C   0  0  0  0  0  2  0  0  0  0  0  0
  193.3920  175.0160  144.7270 C   0  0  1  0  0  3  0  0  0  0  0  0
  194.8300  174.2750  142.8640 N   0  0  0  0  0  0  0  0  0  0  0  0
  190.5050  175.1130  142.4550 C   0  0  0  0  0  2  0  0  0  0  0  0
  191.7940  171.7740  141.2560 C   0  0  0  0  0  1  0  0  0  0  0  0
  197.5420  173.5710  141.3850 C   0  0  0  0  0  1  0  0  0  0  0  0
  192.4620  173.5530  142.9000 C   0  0  1  0  0  3  0  0  0  0  0  0
  195.0010  173.5050  141.6780 C   0  0  0  0  0  0  0  0  0  0  0  0
  186.5280  178.3630  145.4770 N   0  0  0  0  0  2  0  0  0  0  0  0
  185.1740  178.1530  145.0710 C   0  0  0  0  0  0  0  0  0  0  0  0
  184.9110  177.5410  144.0020 O   0  0  0  0  0  0  0  0  0  0  0  0
  184.0660  178.6660  145.9170 C   0  0  0  0  0  1  0  0  0  0  0  0
  1 20  1  0  0  0  0
  2 24  1  6  0  0  0
  2 12  1  0  0  0  0
  4  3  1  0  0  0  0
  5 25  1  1  0  0  0
  5 27  1  0  0  0  0
  6  5  1  0  0  0  0
  6 28  1  0  0  0  0
  7 24  1  6  0  0  0
  7 17  1  0  0  0  0
  9 26  1  0  0  0  0
  9 28  1  0  0  0  0
 11  3  1  0  0  0  0
 12 13  1  0  0  0  0
 12  8  1  6  0  0  0
 13 11  1  1  0  0  0
 14 23  1  1  0  0  0
 14 22  1  0  0  0  0
 15  9  2  0  0  0  0
 16  1  1  0  0  0  0
 17 10  1  1  0  0  0
 17  8  1  0  0  0  0
 18 15  1  0  0  0  0
 18  6  2  0  0  0  0
 19 16  1  0  0  0  0
 19  7  1  0  0  0  0
 20 10  1  0  0  0  0
 20 29  1  1  0  0  0
 21  4  1  0  0  0  0
 22 21  1  6  0  0  0
 22 13  1  0  0  0  0
 27 14  1  0  0  0  0
 27  2  1  0  0  0  0
 28 23  2  0  0  0  0
 30 29  1  0  0  0  0
 30 32  1  0  0  0  0
 31 30  2  0  0  0  0
M  END
>  <MODEL>
9

>  <REMARK>
 VINA RESULT:      -7.1      3.133      8.447
  Name = 
  1 active torsions:
  status: ('A' for Active; 'I' for Inactive)
    1  A    between atoms: C_20  and  N_29
                            x       y       z     vdW  Elec       q    Type
                         _______ _______ _______ _____ _____    ______ ____

>  <TORSDO>
F 1

$$$$
