=
 OpenBabel11112417173D

 37 44  0  0  1  0  0  0  0  0999 V2000
  188.8790  174.4490  139.8010 C   0  0  0  0  0  2  0  0  0  0  0  0
  185.7960  177.8250  142.1170 S   0  0  0  0  0  0  0  0  0  0  0  0
  188.7170  175.7520  144.5230 C   0  0  0  0  0  0  0  0  0  0  0  0
  188.2460  173.5770  138.7110 C   0  0  2  0  0  3  0  0  0  0  0  0
  190.7650  172.8250  143.2040 C   0  0  0  0  0  2  0  0  0  0  0  0
  187.3960  177.7820  144.3130 C   0  0  0  0  0  0  0  0  0  0  0  0
  189.1260  174.5710  143.6880 C   0  0  2  0  0  3  0  0  0  0  0  0
  189.9620  171.9190  139.5240 C   0  0  0  0  0  0  0  0  0  0  0  0
  188.1060  176.7190  143.7440 C   0  0  0  0  0  0  0  0  0  0  0  0
  190.5450  174.1380  143.8460 N   0  0  1  0  0  0  0  0  0  0  0  0
  187.3850  177.9160  145.7040 C   0  0  0  0  0  3  0  0  0  0  0  0
  188.6770  172.1080  138.7780 C   0  0  0  0  0  2  0  0  0  0  0  0
  188.0780  176.3900  142.2980 C   0  0  2  0  0  3  0  0  0  0  0  0
  185.8510  178.6560  140.8680 O   0  0  0  0  0  0  0  0  0  0  0  0
  189.2540  174.8470  146.8810 C   0  0  0  0  0  2  0  0  0  0  0  0
  188.0220  176.9580  146.5050 C   0  0  0  0  0  3  0  0  0  0  0  0
  186.6290  176.2650  141.8390 C   0  0  0  0  0  2  0  0  0  0  0  0
  189.9290  171.7520  141.0110 C   0  0  1  0  0  3  0  0  0  0  0  0
  190.4470  172.9030  141.7240 C   0  0  1  0  0  3  0  0  0  0  0  0
  188.6630  175.8470  145.9330 C   0  0  0  0  0  0  0  0  0  0  0  0
  188.8870  175.0920  142.2420 C   0  0  2  0  0  3  0  0  0  0  0  0
  186.6030  178.7180  143.4510 C   0  0  0  0  0  2  0  0  0  0  0  0
  190.9760  173.9410  145.2380 C   0  0  2  0  0  3  0  0  0  0  0  0
  184.3620  177.5670  142.4830 O   0  0  0  0  0  0  0  0  0  0  0  0
  188.9820  172.6930  141.6700 N   0  0  1  0  0  0  0  0  0  0  0  0
  191.0220  171.8930  138.9230 O   0  0  0  0  0  0  0  0  0  0  0  0
  188.4770  174.0120  141.2140 C   0  0  2  0  0  3  0  0  0  0  0  0
  189.8560  173.6040  146.2340 C   0  0  0  0  0  2  0  0  0  0  0  0
  191.9210  175.4900  147.1250 C   0  0  0  0  0  2  0  0  0  0  0  0
  191.9750  174.9630  145.7030 C   0  0  0  0  0  0  0  0  0  0  0  0
  192.8740  175.4130  144.8220 C   0  0  0  0  0  3  0  0  0  0  0  0
  194.6970  176.8370  144.3620 O   0  0  0  0  0  0  0  0  0  0  0  0
  193.9240  176.8830  146.5960 C   0  0  0  0  0  3  0  0  0  0  0  0
  193.8760  176.4070  145.2110 C   0  0  0  0  0  0  0  0  0  0  0  0
  193.0300  176.4500  147.4840 C   0  0  0  0  0  3  0  0  0  0  0  0
  187.6250  175.2560  136.9730 C   0  0  0  0  0  1  0  0  0  0  0  0
  188.5870  174.1370  137.3410 C   0  0  0  0  0  2  0  0  0  0  0  0
  1 27  1  0  0  0  0
  2 24  2  0  0  0  0
  2 22  1  0  0  0  0
  3 20  1  0  0  0  0
  4 37  1  6  0  0  0
  4 12  1  0  0  0  0
  4  1  1  0  0  0  0
  6 11  2  0  0  0  0
  7 10  1  0  0  0  0
  7  3  1  1  0  0  0
  9  6  1  0  0  0  0
  9  3  2  0  0  0  0
 10  5  1  6  0  0  0
 10 23  1  0  0  0  0
 11 16  1  0  0  0  0
 12  8  1  0  0  0  0
 13 17  1  1  0  0  0
 13  9  1  0  0  0  0
 14  2  2  0  0  0  0
 17  2  1  0  0  0  0
 18  8  1  6  0  0  0
 18 25  1  0  0  0  0
 18 19  1  0  0  0  0
 19  5  1  1  0  0  0
 20 16  2  0  0  0  0
 20 15  1  0  0  0  0
 21 13  1  0  0  0  0
 21  7  1  0  0  0  0
 22  6  1  0  0  0  0
 23 30  1  0  0  0  0
 23 28  1  0  0  0  0
 25 19  1  0  0  0  0
 26  8  2  0  0  0  0
 27 25  1  0  0  0  0
 27 21  1  0  0  0  0
 28 15  1  0  0  0  0
 29 35  1  0  0  0  0
 30 29  1  0  0  0  0
 31 34  1  0  0  0  0
 31 30  2  0  0  0  0
 32 34  2  0  0  0  0
 33 35  2  0  0  0  0
 34 33  1  0  0  0  0
 36 37  1  0  0  0  0
M  END
>  <MODEL>
1

>  <REMARK>
 VINA RESULT:      -9.1      0.000      0.000
  Name = 
  2 active torsions:
  status: ('A' for Active; 'I' for Inactive)
    1  A    between atoms: C_4  and  C_37
    2  A    between atoms: C_23  and  C_30
                            x       y       z     vdW  Elec       q    Type
                         _______ _______ _______ _____ _____    ______ ____

>  <TORSDO>
F 2

$$$$
=
 OpenBabel11112417173D

 37 44  0  0  1  0  0  0  0  0999 V2000
  190.5650  171.6220  140.9940 C   0  0  0  0  0  2  0  0  0  0  0  0
  194.4910  172.1650  144.2450 S   0  0  0  0  0  0  0  0  0  0  0  0
  191.5680  175.3330  144.0350 C   0  0  0  0  0  0  0  0  0  0  0  0
  190.8810  170.9830  139.6380 C   0  0  2  0  0  3  0  0  0  0  0  0
  188.8620  175.4610  141.3590 C   0  0  0  0  0  2  0  0  0  0  0  0
  193.2040  174.2300  145.4560 C   0  0  0  0  0  0  0  0  0  0  0  0
  190.8440  175.0950  142.7400 C   0  0  2  0  0  3  0  0  0  0  0  0
  189.0060  172.4880  138.8800 C   0  0  0  0  0  0  0  0  0  0  0  0
  192.2430  174.1940  144.4400 C   0  0  0  0  0  0  0  0  0  0  0  0
  189.4020  175.4750  142.7350 N   0  0  1  0  0  0  0  0  0  0  0  0
  193.4170  175.4300  146.1380 C   0  0  0  0  0  3  0  0  0  0  0  0
  190.1970  171.6840  138.4590 C   0  0  0  0  0  2  0  0  0  0  0  0
  192.0240  173.0250  143.5530 C   0  0  2  0  0  3  0  0  0  0  0  0
  194.4300  170.6840  144.4850 O   0  0  0  0  0  0  0  0  0  0  0  0
  191.1780  177.8700  144.3120 C   0  0  0  0  0  2  0  0  0  0  0  0
  192.7210  176.5860  145.7570 C   0  0  0  0  0  3  0  0  0  0  0  0
  193.3540  172.6080  142.9340 C   0  0  0  0  0  2  0  0  0  0  0  0
  189.1980  173.9020  139.3300 C   0  0  1  0  0  3  0  0  0  0  0  0
  188.9970  174.0780  140.7560 C   0  0  1  0  0  3  0  0  0  0  0  0
  191.8190  176.5650  144.6820 C   0  0  0  0  0  0  0  0  0  0  0  0
  190.9880  173.5560  142.5600 C   0  0  2  0  0  3  0  0  0  0  0  0
  194.0390  173.0220  145.7580 C   0  0  0  0  0  2  0  0  0  0  0  0
  189.1230  176.8350  143.2230 C   0  0  2  0  0  3  0  0  0  0  0  0
  195.8870  172.5510  143.8480 O   0  0  0  0  0  0  0  0  0  0  0  0
  190.3780  174.0620  140.2220 N   0  0  1  0  0  0  0  0  0  0  0  0
  187.8910  171.9950  138.8470 O   0  0  0  0  0  0  0  0  0  0  0  0
  191.0560  173.0700  141.0930 C   0  0  2  0  0  3  0  0  0  0  0  0
  190.2790  177.8360  143.0810 C   0  0  0  0  0  2  0  0  0  0  0  0
  188.6370  175.7610  145.5600 C   0  0  0  0  0  2  0  0  0  0  0  0
  188.3980  176.8580  144.5390 C   0  0  0  0  0  0  0  0  0  0  0  0
  187.5220  177.8430  144.7600 C   0  0  0  0  0  3  0  0  0  0  0  0
  185.9470  178.8440  146.2020 O   0  0  0  0  0  0  0  0  0  0  0  0
  187.0440  176.9410  147.0770 C   0  0  0  0  0  3  0  0  0  0  0  0
  186.7850  177.9250  146.0230 C   0  0  0  0  0  0  0  0  0  0  0  0
  187.9080  175.9480  146.8690 C   0  0  0  0  0  3  0  0  0  0  0  0
  190.3520  168.9910  138.2310 C   0  0  0  0  0  1  0  0  0  0  0  0
  190.4770  169.5180  139.6520 C   0  0  0  0  0  2  0  0  0  0  0  0
  1 27  1  0  0  0  0
  2 14  2  0  0  0  0
  2 22  1  0  0  0  0
  3  9  2  0  0  0  0
  3 20  1  0  0  0  0
  4 37  1  1  0  0  0
  4  1  1  0  0  0  0
  6 22  1  0  0  0  0
  6 11  2  0  0  0  0
  7  3  1  1  0  0  0
  9  6  1  0  0  0  0
 10  5  1  6  0  0  0
 10  7  1  0  0  0  0
 10 23  1  0  0  0  0
 12  8  1  0  0  0  0
 12  4  1  0  0  0  0
 13 17  1  6  0  0  0
 13  9  1  0  0  0  0
 15 20  1  0  0  0  0
 16 11  1  0  0  0  0
 17  2  1  0  0  0  0
 18  8  1  1  0  0  0
 18 25  1  0  0  0  0
 18 19  1  0  0  0  0
 19  5  1  6  0  0  0
 20 16  2  0  0  0  0
 21  7  1  0  0  0  0
 21 13  1  0  0  0  0
 23 30  1  0  0  0  0
 24  2  2  0  0  0  0
 25 19  1  0  0  0  0
 25 27  1  0  0  0  0
 26  8  2  0  0  0  0
 27 21  1  0  0  0  0
 28 23  1  0  0  0  0
 28 15  1  0  0  0  0
 29 35  1  0  0  0  0
 30 31  2  0  0  0  0
 30 29  1  0  0  0  0
 31 34  1  0  0  0  0
 34 32  2  0  0  0  0
 34 33  1  0  0  0  0
 35 33  2  0  0  0  0
 36 37  1  0  0  0  0
M  END
>  <MODEL>
2

>  <REMARK>
 VINA RESULT:      -8.8      2.781      5.874
  Name = 
  2 active torsions:
  status: ('A' for Active; 'I' for Inactive)
    1  A    between atoms: C_4  and  C_37
    2  A    between atoms: C_23  and  C_30
                            x       y       z     vdW  Elec       q    Type
                         _______ _______ _______ _____ _____    ______ ____

>  <TORSDO>
F 2

$$$$
=
 OpenBabel11112417173D

 37 44  0  0  1  0  0  0  0  0999 V2000
  192.8540  171.3230  141.3540 C   0  0  0  0  0  2  0  0  0  0  0  0
  196.5490  173.3510  144.2720 S   0  0  0  0  0  0  0  0  0  0  0  0
  192.7450  175.3820  144.1010 C   0  0  0  0  0  0  0  0  0  0  0  0
  193.2920  170.7180  140.0160 C   0  0  2  0  0  3  0  0  0  0  0  0
  190.0120  174.4250  141.6270 C   0  0  0  0  0  2  0  0  0  0  0  0
  194.7220  174.9770  145.4560 C   0  0  0  0  0  0  0  0  0  0  0  0
  192.0730  174.8240  142.8770 C   0  0  2  0  0  3  0  0  0  0  0  0
  190.9920  171.4750  139.3150 C   0  0  0  0  0  0  0  0  0  0  0  0
  193.7740  174.5560  144.5170 C   0  0  0  0  0  0  0  0  0  0  0  0
  190.5870  174.7180  142.9570 N   0  0  1  0  0  0  0  0  0  0  0  0
  194.5660  176.2310  146.0530 C   0  0  0  0  0  3  0  0  0  0  0  0
  192.3570  171.0690  138.8540 C   0  0  0  0  0  2  0  0  0  0  0  0
  193.9040  173.3150  143.7160 C   0  0  2  0  0  3  0  0  0  0  0  0
  196.9880  171.9530  144.5980 O   0  0  0  0  0  0  0  0  0  0  0  0
  191.5630  177.6710  144.2630 C   0  0  0  0  0  2  0  0  0  0  0  0
  193.5120  177.0680  145.6590 C   0  0  0  0  0  3  0  0  0  0  0  0
  195.2640  173.3020  143.0260 C   0  0  0  0  0  2  0  0  0  0  0  0
  190.7340  172.9060  139.6700 C   0  0  1  0  0  3  0  0  0  0  0  0
  190.5600  173.1160  141.0940 C   0  0  1  0  0  3  0  0  0  0  0  0
  192.6120  176.6750  144.6570 C   0  0  0  0  0  0  0  0  0  0  0  0
  192.7020  173.4050  142.7740 C   0  0  2  0  0  3  0  0  0  0  0  0
  195.9210  174.1310  145.7640 C   0  0  0  0  0  2  0  0  0  0  0  0
  189.9050  175.9480  143.3870 C   0  0  2  0  0  3  0  0  0  0  0  0
  197.7200  174.1350  143.7520 O   0  0  0  0  0  0  0  0  0  0  0  0
  191.8420  173.5060  140.4620 N   0  0  1  0  0  0  0  0  0  0  0  0
  190.0990  170.6490  139.3920 O   0  0  0  0  0  0  0  0  0  0  0  0
  192.8500  172.8560  141.3360 C   0  0  2  0  0  3  0  0  0  0  0  0
  190.6620  177.2550  143.1050 C   0  0  0  0  0  2  0  0  0  0  0  0
  189.7070  174.7300  145.6960 C   0  0  0  0  0  2  0  0  0  0  0  0
  189.2810  175.8380  144.7500 C   0  0  0  0  0  0  0  0  0  0  0  0
  188.3260  176.7120  145.0790 C   0  0  0  0  0  3  0  0  0  0  0  0
  186.7650  177.4760  146.6750 O   0  0  0  0  0  0  0  0  0  0  0  0
  188.1160  175.6670  147.3760 C   0  0  0  0  0  3  0  0  0  0  0  0
  187.6790  176.6610  146.3920 C   0  0  0  0  0  0  0  0  0  0  0  0
  189.0620  174.7830  147.0600 C   0  0  0  0  0  3  0  0  0  0  0  0
  192.5960  168.7240  141.3460 C   0  0  0  0  0  1  0  0  0  0  0  0
  193.3900  169.2070  140.1420 C   0  0  0  0  0  2  0  0  0  0  0  0
  2 14  2  0  0  0  0
  2 22  1  0  0  0  0
  3  9  2  0  0  0  0
  3 20  1  0  0  0  0
  4 37  1  1  0  0  0
  4  1  1  0  0  0  0
  6 22  1  0  0  0  0
  6 11  2  0  0  0  0
  7 10  1  0  0  0  0
  7  3  1  1  0  0  0
  8 26  2  0  0  0  0
  9  6  1  0  0  0  0
 10  5  1  6  0  0  0
 10 23  1  0  0  0  0
 12  8  1  0  0  0  0
 12  4  1  0  0  0  0
 13 17  1  6  0  0  0
 13  9  1  0  0  0  0
 15 20  1  0  0  0  0
 16 11  1  0  0  0  0
 17  2  1  0  0  0  0
 18  8  1  1  0  0  0
 18 25  1  0  0  0  0
 18 19  1  0  0  0  0
 19  5  1  6  0  0  0
 20 16  2  0  0  0  0
 21  7  1  0  0  0  0
 21 13  1  0  0  0  0
 23 30  1  0  0  0  0
 24  2  2  0  0  0  0
 25 19  1  0  0  0  0
 25 27  1  0  0  0  0
 27  1  1  0  0  0  0
 27 21  1  0  0  0  0
 28 23  1  0  0  0  0
 28 15  1  0  0  0  0
 29 35  1  0  0  0  0
 30 31  2  0  0  0  0
 30 29  1  0  0  0  0
 31 34  1  0  0  0  0
 34 32  2  0  0  0  0
 34 33  1  0  0  0  0
 35 33  2  0  0  0  0
 37 36  1  0  0  0  0
M  END
>  <MODEL>
3

>  <REMARK>
 VINA RESULT:      -8.6      3.158      6.421
  Name = 
  2 active torsions:
  status: ('A' for Active; 'I' for Inactive)
    1  A    between atoms: C_4  and  C_37
    2  A    between atoms: C_23  and  C_30
                            x       y       z     vdW  Elec       q    Type
                         _______ _______ _______ _____ _____    ______ ____

>  <TORSDO>
F 2

$$$$
=
 OpenBabel11112417173D

 37 44  0  0  1  0  0  0  0  0999 V2000
  195.7170  174.4920  141.6860 C   0  0  0  0  0  2  0  0  0  0  0  0
  192.6630  170.5560  140.4800 S   0  0  0  0  0  0  0  0  0  0  0  0
  191.2190  173.4530  143.3340 C   0  0  0  0  0  0  0  0  0  0  0  0
  197.2120  174.1840  141.8220 C   0  0  2  0  0  3  0  0  0  0  0  0
  193.4450  176.1630  144.8200 C   0  0  0  0  0  2  0  0  0  0  0  0
  190.5640  171.8230  141.6530 C   0  0  0  0  0  0  0  0  0  0  0  0
  192.4520  174.1810  143.7910 C   0  0  2  0  0  3  0  0  0  0  0  0
  197.0900  176.0470  143.5140 C   0  0  0  0  0  0  0  0  0  0  0  0
  191.4520  172.7870  142.1440 C   0  0  0  0  0  0  0  0  0  0  0  0
  192.2550  175.6210  144.1300 N   0  0  1  0  0  0  0  0  0  0  0  0
  189.3680  171.5990  142.3400 C   0  0  0  0  0  3  0  0  0  0  0  0
  197.8670  174.8640  143.0280 C   0  0  0  0  0  2  0  0  0  0  0  0
  192.8080  173.0160  141.5880 C   0  0  2  0  0  3  0  0  0  0  0  0
  193.2070  170.6270  139.0830 O   0  0  0  0  0  0  0  0  0  0  0  0
  189.6910  173.8210  145.3830 C   0  0  0  0  0  2  0  0  0  0  0  0
  189.1070  172.2860  143.5340 C   0  0  0  0  0  3  0  0  0  0  0  0
  193.5610  171.6910  141.5340 C   0  0  0  0  0  2  0  0  0  0  0  0
  195.9860  175.8430  144.5040 C   0  0  1  0  0  3  0  0  0  0  0  0
  194.6670  176.0410  143.9330 C   0  0  1  0  0  3  0  0  0  0  0  0
  190.0380  173.1910  144.0670 C   0  0  0  0  0  0  0  0  0  0  0  0
  193.3880  174.0500  142.5560 C   0  0  2  0  0  3  0  0  0  0  0  0
  190.9210  170.9970  140.4540 C   0  0  0  0  0  2  0  0  0  0  0  0
  191.1430  175.8870  145.0560 C   0  0  2  0  0  3  0  0  0  0  0  0
  192.8170  169.1570  141.0070 O   0  0  0  0  0  0  0  0  0  0  0  0
  195.1430  174.6600  144.1820 N   0  0  1  0  0  0  0  0  0  0  0  0
  197.3620  177.1660  143.1130 O   0  0  0  0  0  0  0  0  0  0  0  0
  194.8990  173.9890  142.8810 C   0  0  2  0  0  3  0  0  0  0  0  0
  190.7640  174.7230  145.9830 C   0  0  0  0  0  2  0  0  0  0  0  0
  189.9710  176.8210  142.9100 C   0  0  0  0  0  2  0  0  0  0  0  0
  189.9930  176.6090  144.4120 C   0  0  0  0  0  0  0  0  0  0  0  0
  189.0240  177.0830  145.2020 C   0  0  0  0  0  3  0  0  0  0  0  0
  186.9860  178.2550  145.3980 O   0  0  0  0  0  0  0  0  0  0  0  0
  187.7600  177.9480  143.1850 C   0  0  0  0  0  3  0  0  0  0  0  0
  187.8750  177.7940  144.6380 C   0  0  0  0  0  0  0  0  0  0  0  0
  188.7220  177.4870  142.3850 C   0  0  0  0  0  3  0  0  0  0  0  0
  197.1440  175.6590  139.8110 C   0  0  0  0  0  1  0  0  0  0  0  0
  197.9400  174.5990  140.5550 C   0  0  0  0  0  2  0  0  0  0  0  0
  1  4  1  0  0  0  0
  1 27  1  0  0  0  0
  2 24  2  0  0  0  0
  2 17  1  0  0  0  0
  3 20  1  0  0  0  0
  4 37  1  6  0  0  0
  4 12  1  0  0  0  0
  6  9  1  0  0  0  0
  6 11  2  0  0  0  0
  7  3  1  6  0  0  0
  7 10  1  0  0  0  0
  9  3  2  0  0  0  0
 10  5  1  1  0  0  0
 10 23  1  0  0  0  0
 11 16  1  0  0  0  0
 12  8  1  0  0  0  0
 13 17  1  1  0  0  0
 13  9  1  0  0  0  0
 13 21  1  0  0  0  0
 14  2  2  0  0  0  0
 15 28  1  0  0  0  0
 16 20  2  0  0  0  0
 18  8  1  6  0  0  0
 19 25  1  0  0  0  0
 19 18  1  0  0  0  0
 19  5  1  1  0  0  0
 20 15  1  0  0  0  0
 21 27  1  0  0  0  0
 21  7  1  0  0  0  0
 22  2  1  0  0  0  0
 22  6  1  0  0  0  0
 23 28  1  0  0  0  0
 25 18  1  0  0  0  0
 26  8  2  0  0  0  0
 27 25  1  0  0  0  0
 29 30  1  0  0  0  0
 30 23  1  0  0  0  0
 30 31  2  0  0  0  0
 33 34  1  0  0  0  0
 34 31  1  0  0  0  0
 34 32  2  0  0  0  0
 35 29  1  0  0  0  0
 35 33  2  0  0  0  0
 36 37  1  0  0  0  0
M  END
>  <MODEL>
4

>  <REMARK>
 VINA RESULT:      -8.6      3.337      7.120
  Name = 
  2 active torsions:
  status: ('A' for Active; 'I' for Inactive)
    1  A    between atoms: C_4  and  C_37
    2  A    between atoms: C_23  and  C_30
                            x       y       z     vdW  Elec       q    Type
                         _______ _______ _______ _____ _____    ______ ____

>  <TORSDO>
F 2

$$$$
=
 OpenBabel11112417173D

 37 44  0  0  1  0  0  0  0  0999 V2000
  188.4270  175.6730  143.9370 C   0  0  0  0  0  2  0  0  0  0  0  0
  189.3380  173.2770  139.4980 S   0  0  0  0  0  0  0  0  0  0  0  0
  192.7130  174.3450  141.9650 C   0  0  0  0  0  0  0  0  0  0  0  0
  187.3090  176.7200  143.9340 C   0  0  2  0  0  3  0  0  0  0  0  0
  192.3950  176.5850  145.0280 C   0  0  0  0  0  2  0  0  0  0  0  0
  191.8940  172.7930  140.2820 C   0  0  0  0  0  0  0  0  0  0  0  0
  192.1760  175.3780  142.9150 C   0  0  2  0  0  3  0  0  0  0  0  0
  188.7720  177.7840  145.6880 C   0  0  0  0  0  0  0  0  0  0  0  0
  191.6840  173.6190  141.3920 C   0  0  0  0  0  0  0  0  0  0  0  0
  192.7890  175.3750  144.2750 N   0  0  1  0  0  0  0  0  0  0  0  0
  193.1960  172.6300  139.8020 C   0  0  0  0  0  3  0  0  0  0  0  0
  187.6680  177.9970  144.7000 C   0  0  0  0  0  2  0  0  0  0  0  0
  190.3410  173.9810  141.9060 C   0  0  2  0  0  3  0  0  0  0  0  0
  188.0720  172.5000  139.7160 O   0  0  0  0  0  0  0  0  0  0  0  0
  195.2140  174.9900  141.9610 C   0  0  0  0  0  2  0  0  0  0  0  0
  194.2530  173.3400  140.3900 C   0  0  0  0  0  3  0  0  0  0  0  0
  189.4960  174.5340  140.7630 C   0  0  0  0  0  2  0  0  0  0  0  0
  190.1930  177.9140  145.2390 C   0  0  1  0  0  3  0  0  0  0  0  0
  190.8890  176.6420  145.1800 C   0  0  1  0  0  3  0  0  0  0  0  0
  194.0250  174.2310  141.4500 C   0  0  0  0  0  0  0  0  0  0  0  0
  190.6730  174.9880  143.0100 C   0  0  2  0  0  3  0  0  0  0  0  0
  190.7360  172.1520  139.5780 C   0  0  0  0  0  2  0  0  0  0  0  0
  194.2600  175.4010  144.2860 C   0  0  2  0  0  3  0  0  0  0  0  0
  189.2980  173.9310  138.1460 O   0  0  0  0  0  0  0  0  0  0  0  0
  190.4340  177.2710  143.9180 N   0  0  1  0  0  0  0  0  0  0  0  0
  188.5130  177.5180  146.8500 O   0  0  0  0  0  0  0  0  0  0  0  0
  189.7020  176.1690  143.2470 C   0  0  2  0  0  3  0  0  0  0  0  0
  194.9180  176.0220  143.0450 C   0  0  0  0  0  2  0  0  0  0  0  0
  196.3510  174.0660  145.1220 C   0  0  0  0  0  2  0  0  0  0  0  0
  194.8740  174.1200  144.7770 C   0  0  0  0  0  0  0  0  0  0  0  0
  194.0940  173.0380  144.8620 C   0  0  0  0  0  3  0  0  0  0  0  0
  193.8870  170.7470  145.3840 O   0  0  0  0  0  0  0  0  0  0  0  0
  196.0280  171.6760  145.7650 C   0  0  0  0  0  3  0  0  0  0  0  0
  194.6300  171.7600  145.3360 C   0  0  0  0  0  0  0  0  0  0  0  0
  196.8210  172.7440  145.6790 C   0  0  0  0  0  3  0  0  0  0  0  0
  185.2940  177.1650  145.3380 C   0  0  0  0  0  1  0  0  0  0  0  0
  186.0420  176.1220  144.5230 C   0  0  0  0  0  2  0  0  0  0  0  0
  2 22  1  0  0  0  0
  2 14  2  0  0  0  0
  2 17  1  0  0  0  0
  4  1  1  0  0  0  0
  4 37  1  1  0  0  0
  4 12  1  0  0  0  0
  6  9  1  0  0  0  0
  7  3  1  6  0  0  0
  7 21  1  0  0  0  0
  7 10  1  0  0  0  0
  8 26  2  0  0  0  0
  9 13  1  0  0  0  0
  9  3  2  0  0  0  0
 10 23  1  0  0  0  0
 10  5  1  1  0  0  0
 11  6  2  0  0  0  0
 11 16  1  0  0  0  0
 12  8  1  0  0  0  0
 13 17  1  6  0  0  0
 13 21  1  0  0  0  0
 15 28  1  0  0  0  0
 16 20  2  0  0  0  0
 18  8  1  1  0  0  0
 19  5  1  6  0  0  0
 19 18  1  0  0  0  0
 20 15  1  0  0  0  0
 20  3  1  0  0  0  0
 21 27  1  0  0  0  0
 22  6  1  0  0  0  0
 23 30  1  0  0  0  0
 24  2  2  0  0  0  0
 25 19  1  0  0  0  0
 25 18  1  0  0  0  0
 27 25  1  0  0  0  0
 27  1  1  0  0  0  0
 28 23  1  0  0  0  0
 29 35  1  0  0  0  0
 30 31  2  0  0  0  0
 30 29  1  0  0  0  0
 31 34  1  0  0  0  0
 34 32  2  0  0  0  0
 34 33  1  0  0  0  0
 35 33  2  0  0  0  0
 37 36  1  0  0  0  0
M  END
>  <MODEL>
5

>  <REMARK>
 VINA RESULT:      -8.3      3.091      6.320
  Name = 
  2 active torsions:
  status: ('A' for Active; 'I' for Inactive)
    1  A    between atoms: C_4  and  C_37
    2  A    between atoms: C_23  and  C_30
                            x       y       z     vdW  Elec       q    Type
                         _______ _______ _______ _____ _____    ______ ____

>  <TORSDO>
F 2

$$$$
=
 OpenBabel11112417173D

 37 44  0  0  1  0  0  0  0  0999 V2000
  190.0280  175.0860  145.7800 C   0  0  0  0  0  2  0  0  0  0  0  0
  189.3990  173.0220  141.1300 S   0  0  0  0  0  0  0  0  0  0  0  0
  193.3500  172.9660  142.8640 C   0  0  0  0  0  0  0  0  0  0  0  0
  189.2440  176.3690  146.0730 C   0  0  2  0  0  3  0  0  0  0  0  0
  194.2310  174.8800  146.0370 C   0  0  0  0  0  2  0  0  0  0  0  0
  191.8420  171.8480  141.3190 C   0  0  0  0  0  0  0  0  0  0  0  0
  193.2970  173.9930  143.9600 C   0  0  2  0  0  3  0  0  0  0  0  0
  191.2470  176.8520  147.5230 C   0  0  0  0  0  0  0  0  0  0  0  0
  192.0760  172.5780  142.4900 C   0  0  0  0  0  0  0  0  0  0  0  0
  194.1410  173.6970  145.1550 N   0  0  1  0  0  0  0  0  0  0  0  0
  192.9370  171.4230  140.5620 C   0  0  0  0  0  3  0  0  0  0  0  0
  190.0660  177.4320  146.8090 C   0  0  0  0  0  2  0  0  0  0  0  0
  191.0000  173.2020  143.2990 C   0  0  2  0  0  3  0  0  0  0  0  0
  188.0410  172.5600  141.5750 O   0  0  0  0  0  0  0  0  0  0  0  0
  195.8810  172.9780  142.3560 C   0  0  0  0  0  2  0  0  0  0  0  0
  194.2370  171.7870  140.9440 C   0  0  0  0  0  3  0  0  0  0  0  0
  190.1240  174.0620  142.3950 C   0  0  0  0  0  2  0  0  0  0  0  0
  192.5370  176.6770  146.7850 C   0  0  1  0  0  3  0  0  0  0  0  0
  192.8520  175.2880  146.5120 C   0  0  1  0  0  3  0  0  0  0  0  0
  194.4600  172.5900  142.0730 C   0  0  0  0  0  0  0  0  0  0  0  0
  191.7930  173.9750  144.3560 C   0  0  2  0  0  3  0  0  0  0  0  0
  190.4430  171.5870  140.8480 C   0  0  0  0  0  2  0  0  0  0  0  0
  195.5400  173.3610  144.8500 C   0  0  2  0  0  3  0  0  0  0  0  0
  189.2680  173.8050  139.8540 O   0  0  0  0  0  0  0  0  0  0  0  0
  192.3400  176.1380  145.4120 N   0  0  1  0  0  0  0  0  0  0  0  0
  191.1590  176.5360  148.6980 O   0  0  0  0  0  0  0  0  0  0  0  0
  191.2290  175.3250  144.8580 C   0  0  2  0  0  3  0  0  0  0  0  0
  196.0830  173.9290  143.5300 C   0  0  0  0  0  2  0  0  0  0  0  0
  197.3170  171.4460  145.0130 C   0  0  0  0  0  2  0  0  0  0  0  0
  195.8820  171.9250  145.1300 C   0  0  0  0  0  0  0  0  0  0  0  0
  194.8870  171.0890  145.4430 C   0  0  0  0  0  3  0  0  0  0  0  0
  194.2020  168.9010  145.9980 O   0  0  0  0  0  0  0  0  0  0  0  0
  196.5330  169.1840  145.7180 C   0  0  0  0  0  3  0  0  0  0  0  0
  195.1530  169.6780  145.7300 C   0  0  0  0  0  0  0  0  0  0  0  0
  197.5340  170.0030  145.3990 C   0  0  0  0  0  3  0  0  0  0  0  0
  186.8000  176.7940  146.3450 C   0  0  0  0  0  1  0  0  0  0  0  0
  188.0050  176.0410  146.8880 C   0  0  0  0  0  2  0  0  0  0  0  0
  1  4  1  0  0  0  0
  2 14  2  0  0  0  0
  2 17  1  0  0  0  0
  4 12  1  0  0  0  0
  4 37  1  1  0  0  0
  6  9  2  0  0  0  0
  7  3  1  6  0  0  0
  7 21  1  0  0  0  0
  7 10  1  0  0  0  0
  8 26  2  0  0  0  0
  9  3  1  0  0  0  0
  9 13  1  0  0  0  0
 10  5  1  1  0  0  0
 11 16  2  0  0  0  0
 11  6  1  0  0  0  0
 12  8  1  0  0  0  0
 13 17  1  6  0  0  0
 13 21  1  0  0  0  0
 15 28  1  0  0  0  0
 16 20  1  0  0  0  0
 18  8  1  1  0  0  0
 19  5  1  6  0  0  0
 19 18  1  0  0  0  0
 20 15  1  0  0  0  0
 20  3  2  0  0  0  0
 21 27  1  0  0  0  0
 22  2  1  0  0  0  0
 22  6  1  0  0  0  0
 23 30  1  0  0  0  0
 23 10  1  0  0  0  0
 24  2  2  0  0  0  0
 25 19  1  0  0  0  0
 25 18  1  0  0  0  0
 27 25  1  0  0  0  0
 27  1  1  0  0  0  0
 28 23  1  0  0  0  0
 29 30  1  0  0  0  0
 29 35  1  0  0  0  0
 30 31  2  0  0  0  0
 31 34  1  0  0  0  0
 33 34  1  0  0  0  0
 34 32  2  0  0  0  0
 35 33  2  0  0  0  0
 36 37  1  0  0  0  0
M  END
>  <MODEL>
6

>  <REMARK>
 VINA RESULT:      -8.3      3.774      7.197
  Name = 
  2 active torsions:
  status: ('A' for Active; 'I' for Inactive)
    1  A    between atoms: C_4  and  C_37
    2  A    between atoms: C_23  and  C_30
                            x       y       z     vdW  Elec       q    Type
                         _______ _______ _______ _____ _____    ______ ____

>  <TORSDO>
F 2

$$$$
=
 OpenBabel11112417173D

 37 44  0  0  1  0  0  0  0  0999 V2000
  188.2790  175.5880  143.4840 C   0  0  0  0  0  2  0  0  0  0  0  0
  189.1930  173.2460  139.0160 S   0  0  0  0  0  0  0  0  0  0  0  0
  192.4790  173.7270  141.7720 C   0  0  0  0  0  0  0  0  0  0  0  0
  187.3240  176.7850  143.4470 C   0  0  2  0  0  3  0  0  0  0  0  0
  192.2380  175.8780  144.9050 C   0  0  0  0  0  2  0  0  0  0  0  0
  191.5850  172.3700  139.9630 C   0  0  0  0  0  0  0  0  0  0  0  0
  192.0180  174.7920  142.7270 C   0  0  2  0  0  3  0  0  0  0  0  0
  188.7790  177.5640  145.3520 C   0  0  0  0  0  0  0  0  0  0  0  0
  191.4060  173.1780  141.0920 C   0  0  0  0  0  0  0  0  0  0  0  0
  192.5150  174.6520  144.1280 N   0  0  1  0  0  0  0  0  0  0  0  0
  192.8850  172.0380  139.5730 C   0  0  0  0  0  3  0  0  0  0  0  0
  187.7980  177.9690  144.2970 C   0  0  0  0  0  2  0  0  0  0  0  0
  190.0910  173.7110  141.5220 C   0  0  2  0  0  3  0  0  0  0  0  0
  187.8160  172.6530  139.1040 O   0  0  0  0  0  0  0  0  0  0  0  0
  195.0370  174.0040  141.9830 C   0  0  0  0  0  2  0  0  0  0  0  0
  193.9810  172.5660  140.2700 C   0  0  0  0  0  3  0  0  0  0  0  0
  189.4260  174.4210  140.3470 C   0  0  0  0  0  2  0  0  0  0  0  0
  190.2360  177.5020  145.0150 C   0  0  1  0  0  3  0  0  0  0  0  0
  190.7470  176.1470  144.9480 C   0  0  1  0  0  3  0  0  0  0  0  0
  193.7980  173.4430  141.3500 C   0  0  0  0  0  0  0  0  0  0  0  0
  190.4730  174.6200  142.6930 C   0  0  2  0  0  3  0  0  0  0  0  0
  190.4080  171.9280  139.1460 C   0  0  0  0  0  2  0  0  0  0  0  0
  193.9690  174.4640  144.2480 C   0  0  2  0  0  3  0  0  0  0  0  0
  189.3530  173.9470  137.6970 O   0  0  0  0  0  0  0  0  0  0  0  0
  190.4880  176.8790  143.6870 N   0  0  1  0  0  0  0  0  0  0  0  0
  188.3930  177.2960  146.4780 O   0  0  0  0  0  0  0  0  0  0  0  0
  189.6630  175.9190  142.9130 C   0  0  2  0  0  3  0  0  0  0  0  0
  194.8050  175.0280  143.0890 C   0  0  0  0  0  2  0  0  0  0  0  0
  193.3410  171.9630  144.6960 C   0  0  0  0  0  2  0  0  0  0  0  0
  194.3550  173.0920  144.7220 C   0  0  0  0  0  0  0  0  0  0  0  0
  195.5920  172.9120  145.1960 C   0  0  0  0  0  3  0  0  0  0  0  0
  197.1900  171.4550  146.1380 O   0  0  0  0  0  0  0  0  0  0  0  0
  195.1200  170.4550  145.5860 C   0  0  0  0  0  3  0  0  0  0  0  0
  196.0320  171.5990  145.6720 C   0  0  0  0  0  0  0  0  0  0  0  0
  193.8810  170.6190  145.1230 C   0  0  0  0  0  3  0  0  0  0  0  0
  185.1920  177.5400  144.5010 C   0  0  0  0  0  1  0  0  0  0  0  0
  185.9420  176.3560  143.9120 C   0  0  0  0  0  2  0  0  0  0  0  0
  2 14  2  0  0  0  0
  2 22  1  0  0  0  0
  2 17  1  0  0  0  0
  4  1  1  0  0  0  0
  4 37  1  1  0  0  0
  4 12  1  0  0  0  0
  6  9  1  0  0  0  0
  7  3  1  6  0  0  0
  7 10  1  0  0  0  0
  8 26  2  0  0  0  0
  9 13  1  0  0  0  0
  9  3  2  0  0  0  0
 10 23  1  0  0  0  0
 10  5  1  1  0  0  0
 11  6  2  0  0  0  0
 11 16  1  0  0  0  0
 12  8  1  0  0  0  0
 13 17  1  6  0  0  0
 13 21  1  0  0  0  0
 15 28  1  0  0  0  0
 16 20  2  0  0  0  0
 18  8  1  6  0  0  0
 19  5  1  1  0  0  0
 19 18  1  0  0  0  0
 20  3  1  0  0  0  0
 20 15  1  0  0  0  0
 21  7  1  0  0  0  0
 21 27  1  0  0  0  0
 22  6  1  0  0  0  0
 23 30  1  0  0  0  0
 24  2  2  0  0  0  0
 25 19  1  0  0  0  0
 25 18  1  0  0  0  0
 27  1  1  0  0  0  0
 27 25  1  0  0  0  0
 28 23  1  0  0  0  0
 29 30  1  0  0  0  0
 29 35  1  0  0  0  0
 30 31  2  0  0  0  0
 31 34  1  0  0  0  0
 33 34  1  0  0  0  0
 34 32  2  0  0  0  0
 35 33  2  0  0  0  0
 37 36  1  0  0  0  0
M  END
>  <MODEL>
7

>  <REMARK>
 VINA RESULT:      -8.3      3.079      6.264
  Name = 
  2 active torsions:
  status: ('A' for Active; 'I' for Inactive)
    1  A    between atoms: C_4  and  C_37
    2  A    between atoms: C_23  and  C_30
                            x       y       z     vdW  Elec       q    Type
                         _______ _______ _______ _____ _____    ______ ____

>  <TORSDO>
F 2

$$$$
=
 OpenBabel11112417173D

 37 44  0  0  1  0  0  0  0  0999 V2000
  189.7810  173.9720  139.8750 C   0  0  0  0  0  2  0  0  0  0  0  0
  188.4860  176.9120  143.8700 S   0  0  0  0  0  0  0  0  0  0  0  0
  192.0940  174.5620  144.1570 C   0  0  0  0  0  0  0  0  0  0  0  0
  188.6360  173.2590  139.1490 C   0  0  2  0  0  3  0  0  0  0  0  0
  193.0240  171.9000  141.5970 C   0  0  0  0  0  2  0  0  0  0  0  0
  190.9680  176.5750  144.9240 C   0  0  0  0  0  0  0  0  0  0  0  0
  191.9570  173.5250  143.0770 C   0  0  2  0  0  3  0  0  0  0  0  0
  190.4270  171.5320  138.7460 C   0  0  0  0  0  0  0  0  0  0  0  0
  191.2320  175.6210  143.9350 C   0  0  0  0  0  0  0  0  0  0  0  0
  193.2340  173.1000  142.4340 N   0  0  1  0  0  0  0  0  0  0  0  0
  191.6660  176.5030  146.1320 C   0  0  0  0  0  3  0  0  0  0  0  0
  188.9560  171.8050  138.7870 C   0  0  0  0  0  2  0  0  0  0  0  0
  190.4610  175.5080  142.6730 C   0  0  2  0  0  3  0  0  0  0  0  0
  187.9540  177.9180  142.8910 O   0  0  0  0  0  0  0  0  0  0  0  0
  193.6910  173.3290  145.7690 C   0  0  0  0  0  2  0  0  0  0  0  0
  192.5630  175.4490  146.3600 C   0  0  0  0  0  3  0  0  0  0  0  0
  188.9730  175.4260  142.9980 C   0  0  0  0  0  2  0  0  0  0  0  0
  191.1370  171.1470  140.0060 C   0  0  1  0  0  3  0  0  0  0  0  0
  192.0110  172.1900  140.5080 C   0  0  1  0  0  3  0  0  0  0  0  0
  192.7620  174.4470  145.3980 C   0  0  0  0  0  0  0  0  0  0  0  0
  191.0540  174.2490  142.0380 C   0  0  2  0  0  3  0  0  0  0  0  0
  189.9050  177.6130  144.7190 C   0  0  0  0  0  2  0  0  0  0  0  0
  194.2950  172.7080  143.3740 C   0  0  2  0  0  3  0  0  0  0  0  0
  187.4190  176.5750  144.8730 O   0  0  0  0  0  0  0  0  0  0  0  0
  190.7080  171.9620  141.1740 N   0  0  1  0  0  0  0  0  0  0  0  0
  191.0370  171.6150  137.6930 O   0  0  0  0  0  0  0  0  0  0  0  0
  190.1200  173.3240  141.2220 C   0  0  2  0  0  3  0  0  0  0  0  0
  193.8110  172.2070  144.7430 C   0  0  0  0  0  2  0  0  0  0  0  0
  196.6730  173.3650  144.2490 C   0  0  0  0  0  2  0  0  0  0  0  0
  195.4500  173.6690  143.4040 C   0  0  0  0  0  0  0  0  0  0  0  0
  195.3470  174.8010  142.7010 C   0  0  0  0  0  3  0  0  0  0  0  0
  196.3130  176.8490  142.0380 O   0  0  0  0  0  0  0  0  0  0  0  0
  197.6770  175.4930  143.4130 C   0  0  0  0  0  3  0  0  0  0  0  0
  196.4380  175.7790  142.6850 C   0  0  0  0  0  0  0  0  0  0  0  0
  197.7920  174.3720  144.1250 C   0  0  0  0  0  3  0  0  0  0  0  0
  187.4670  175.2640  138.2320 C   0  0  0  0  0  1  0  0  0  0  0  0
  188.2730  174.0210  137.8860 C   0  0  0  0  0  2  0  0  0  0  0  0
  1 27  1  0  0  0  0
  2 22  1  0  0  0  0
  2 24  2  0  0  0  0
  3 20  1  0  0  0  0
  4 37  1  6  0  0  0
  4  1  1  0  0  0  0
  6 11  2  0  0  0  0
  7  3  1  1  0  0  0
  8 12  1  0  0  0  0
  9  3  2  0  0  0  0
  9  6  1  0  0  0  0
 10  5  1  6  0  0  0
 10  7  1  0  0  0  0
 10 23  1  0  0  0  0
 11 16  1  0  0  0  0
 12  4  1  0  0  0  0
 13 17  1  1  0  0  0
 13  9  1  0  0  0  0
 14  2  2  0  0  0  0
 17  2  1  0  0  0  0
 18  8  1  6  0  0  0
 18 19  1  0  0  0  0
 18 25  1  0  0  0  0
 19 25  1  0  0  0  0
 19  5  1  1  0  0  0
 20 15  1  0  0  0  0
 20 16  2  0  0  0  0
 21 13  1  0  0  0  0
 21  7  1  0  0  0  0
 22  6  1  0  0  0  0
 23 30  1  0  0  0  0
 23 28  1  0  0  0  0
 25 27  1  0  0  0  0
 26  8  2  0  0  0  0
 27 21  1  0  0  0  0
 28 15  1  0  0  0  0
 30 29  1  0  0  0  0
 31 30  2  0  0  0  0
 32 34  2  0  0  0  0
 33 35  2  0  0  0  0
 34 31  1  0  0  0  0
 34 33  1  0  0  0  0
 35 29  1  0  0  0  0
 37 36  1  0  0  0  0
M  END
>  <MODEL>
8

>  <REMARK>
 VINA RESULT:      -8.1      2.477      3.407
  Name = 
  2 active torsions:
  status: ('A' for Active; 'I' for Inactive)
    1  A    between atoms: C_4  and  C_37
    2  A    between atoms: C_23  and  C_30
                            x       y       z     vdW  Elec       q    Type
                         _______ _______ _______ _____ _____    ______ ____

>  <TORSDO>
F 2

$$$$
=
 OpenBabel11112417173D

 37 44  0  0  1  0  0  0  0  0999 V2000
  188.1680  177.4050  144.1280 C   0  0  0  0  0  2  0  0  0  0  0  0
  191.4780  176.2310  147.8630 S   0  0  0  0  0  0  0  0  0  0  0  0
  192.0090  174.3620  144.0090 C   0  0  0  0  0  0  0  0  0  0  0  0
  186.7000  177.5670  144.5380 C   0  0  2  0  0  3  0  0  0  0  0  0
  189.4240  174.6180  141.2250 C   0  0  0  0  0  2  0  0  0  0  0  0
  193.1360  175.0920  146.0360 C   0  0  0  0  0  0  0  0  0  0  0  0
  190.6900  174.5480  143.3140 C   0  0  2  0  0  3  0  0  0  0  0  0
  186.3110  176.7070  142.2020 C   0  0  0  0  0  0  0  0  0  0  0  0
  192.1360  175.2420  145.0700 C   0  0  0  0  0  0  0  0  0  0  0  0
  190.7670  174.7200  141.8330 N   0  0  1  0  0  0  0  0  0  0  0  0
  194.0860  174.0810  145.8690 C   0  0  0  0  0  3  0  0  0  0  0  0
  185.7180  176.9130  143.5610 C   0  0  0  0  0  2  0  0  0  0  0  0
  190.9960  176.1820  145.2040 C   0  0  2  0  0  3  0  0  0  0  0  0
  191.3580  177.6480  148.3440 O   0  0  0  0  0  0  0  0  0  0  0  0
  192.8790  172.2650  142.7800 C   0  0  0  0  0  2  0  0  0  0  0  0
  193.9850  173.1980  144.7850 C   0  0  0  0  0  3  0  0  0  0  0  0
  190.3030  175.9440  146.5420 C   0  0  0  0  0  2  0  0  0  0  0  0
  187.0850  175.4570  141.9210 C   0  0  1  0  0  3  0  0  0  0  0  0
  188.5100  175.6890  141.7860 C   0  0  1  0  0  3  0  0  0  0  0  0
  192.9310  173.3000  143.8640 C   0  0  0  0  0  0  0  0  0  0  0  0
  190.1510  175.8500  143.9720 C   0  0  2  0  0  3  0  0  0  0  0  0
  193.1490  175.9550  147.2620 C   0  0  0  0  0  2  0  0  0  0  0  0
  191.5620  173.6970  141.1360 C   0  0  2  0  0  3  0  0  0  0  0  0
  191.1910  175.2910  148.9990 O   0  0  0  0  0  0  0  0  0  0  0  0
  187.9960  175.0880  143.0380 N   0  0  1  0  0  0  0  0  0  0  0  0
  186.1560  177.5460  141.3310 O   0  0  0  0  0  0  0  0  0  0  0  0
  188.6110  175.9380  144.0880 C   0  0  2  0  0  3  0  0  0  0  0  0
  191.6690  172.3430  141.8540 C   0  0  0  0  0  2  0  0  0  0  0  0
  193.4600  173.5700  139.3380 C   0  0  0  0  0  2  0  0  0  0  0  0
  192.8420  174.2300  140.5570 C   0  0  0  0  0  0  0  0  0  0  0  0
  193.4280  175.2660  141.1660 C   0  0  0  0  0  3  0  0  0  0  0  0
  195.2240  176.7920  141.2520 O   0  0  0  0  0  0  0  0  0  0  0  0
  195.2660  175.2910  139.4260 C   0  0  0  0  0  3  0  0  0  0  0  0
  194.6750  175.8350  140.6510 C   0  0  0  0  0  0  0  0  0  0  0  0
  194.6990  174.2530  138.8110 C   0  0  0  0  0  3  0  0  0  0  0  0
  184.8580  179.2480  144.6220 C   0  0  0  0  0  1  0  0  0  0  0  0
  186.3640  179.0420  144.6750 C   0  0  0  0  0  2  0  0  0  0  0  0
  1  4  1  0  0  0  0
  2 14  2  0  0  0  0
  2 24  2  0  0  0  0
  3  9  1  0  0  0  0
  4 37  1  6  0  0  0
  6 22  1  0  0  0  0
  7 21  1  0  0  0  0
  7  3  1  1  0  0  0
  8 12  1  0  0  0  0
  9 13  1  0  0  0  0
  9  6  2  0  0  0  0
 10  5  1  6  0  0  0
 10  7  1  0  0  0  0
 11  6  1  0  0  0  0
 12  4  1  0  0  0  0
 13 17  1  1  0  0  0
 15 20  1  0  0  0  0
 16 11  2  0  0  0  0
 17  2  1  0  0  0  0
 18  8  1  1  0  0  0
 18 25  1  0  0  0  0
 19  5  1  6  0  0  0
 19 18  1  0  0  0  0
 19 25  1  0  0  0  0
 20  3  2  0  0  0  0
 20 16  1  0  0  0  0
 21 27  1  0  0  0  0
 21 13  1  0  0  0  0
 22  2  1  0  0  0  0
 23 10  1  0  0  0  0
 23 28  1  0  0  0  0
 25 27  1  0  0  0  0
 26  8  2  0  0  0  0
 27  1  1  0  0  0  0
 28 15  1  0  0  0  0
 29 30  1  0  0  0  0
 30 23  1  0  0  0  0
 30 31  2  0  0  0  0
 33 34  1  0  0  0  0
 34 31  1  0  0  0  0
 34 32  2  0  0  0  0
 35 29  1  0  0  0  0
 35 33  2  0  0  0  0
 36 37  1  0  0  0  0
M  END
>  <MODEL>
9

>  <REMARK>
 VINA RESULT:      -8.1      2.993      6.199
  Name = 
  2 active torsions:
  status: ('A' for Active; 'I' for Inactive)
    1  A    between atoms: C_4  and  C_37
    2  A    between atoms: C_23  and  C_30
                            x       y       z     vdW  Elec       q    Type
                         _______ _______ _______ _____ _____    ______ ____

>  <TORSDO>
F 2

$$$$
