=
 OpenBabel11112416133D

 30 35  0  0  1  0  0  0  0  0999 V2000
  187.0010  177.0900  144.0110 C   0  0  1  0  0  3  0  0  0  0  0  0
  185.0420  178.1590  145.2600 C   0  0  0  0  0  0  0  0  0  0  0  0
  189.3880  177.2230  147.6350 C   0  0  0  0  0  2  0  0  0  0  0  0
  188.3100  176.3000  144.2320 C   0  0  1  0  0  3  0  0  0  0  0  0
  186.1390  176.3420  143.1870 O   0  0  0  0  0  0  0  0  0  0  0  0
  188.5670  175.6020  140.6600 O   0  0  0  0  0  0  0  0  0  0  0  0
  191.3500  176.6040  143.1530 C   0  0  1  0  0  3  0  0  0  0  0  0
  188.1000  175.9800  141.7700 C   0  0  0  0  0  0  0  0  0  0  0  0
  191.6280  176.8470  144.6350 C   0  0  2  0  0  3  0  0  0  0  0  0
  190.6300  176.7910  146.9470 C   0  0  0  0  0  0  0  0  0  0  0  0
  186.6460  176.3820  141.8610 C   0  0  2  0  0  3  0  0  0  0  0  0
  188.9470  176.0620  142.9320 N   0  0  0  0  0  0  0  0  0  0  0  0
  184.4810  178.6890  146.4270 C   0  0  0  0  0  3  0  0  0  0  0  0
  192.8100  175.9570  144.9640 C   0  0  0  0  0  2  0  0  0  0  0  0
  192.6860  176.2060  142.5470 C   0  0  0  0  0  2  0  0  0  0  0  0
  184.3150  178.2240  144.0770 O   0  0  0  0  0  1  0  0  0  0  0  0
  188.3920  176.9280  146.5400 C   0  0  2  0  0  3  0  0  0  0  0  0
  185.1920  178.6660  147.6280 C   0  0  0  0  0  3  0  0  0  0  0  0
  186.3260  177.5800  145.2930 C   0  0  0  0  0  0  0  0  0  0  0  0
  189.1420  177.0970  145.2330 C   0  0  1  0  0  3  0  0  0  0  0  0
  191.7250  176.6470  147.5530 O   0  0  0  0  0  0  0  0  0  0  0  0
  190.4880  176.6160  145.5310 N   0  0  0  0  0  0  0  0  0  0  0  0
  193.6400  175.9280  143.6970 C   0  0  0  0  0  2  0  0  0  0  0  0
  190.4630  174.2130  143.5830 C   0  0  0  0  0  1  0  0  0  0  0  0
  186.4760  178.1230  147.6700 C   0  0  0  0  0  3  0  0  0  0  0  0
  187.0580  177.6110  146.5060 C   0  0  0  0  0  0  0  0  0  0  0  0
  190.3040  175.5330  142.8320 C   0  0  2  0  0  3  0  0  0  0  0  0
  186.4020  177.7340  141.1980 C   0  0  0  0  0  2  0  0  0  0  0  0
  184.3820  178.2910  140.5130 C   0  0  0  0  0  1  0  0  0  0  0  0
  185.5200  177.5840  140.1280 O   0  0  0  0  0  0  0  0  0  0  0  0
  1  5  1  1  0  0  0
  1  4  1  0  0  0  0
  1 19  1  0  0  0  0
  2 19  2  0  0  0  0
  2 13  1  0  0  0  0
  4 12  1  6  0  0  0
  4 20  1  0  0  0  0
  6  8  2  0  0  0  0
  7 15  1  6  0  0  0
  7  9  1  0  0  0  0
  8 11  1  0  0  0  0
  8 12  1  0  0  0  0
  9 14  1  1  0  0  0
  9 22  1  0  0  0  0
 10 21  2  0  0  0  0
 10  3  1  0  0  0  0
 11 28  1  1  0  0  0
 11  5  1  0  0  0  0
 13 18  2  0  0  0  0
 15 23  1  0  0  0  0
 16  2  1  0  0  0  0
 17  3  1  1  0  0  0
 18 25  1  0  0  0  0
 19 26  1  0  0  0  0
 20 22  1  1  0  0  0
 20 17  1  0  0  0  0
 22 10  1  0  0  0  0
 23 14  1  0  0  0  0
 26 17  1  0  0  0  0
 26 25  2  0  0  0  0
 27 12  1  0  0  0  0
 27  7  1  0  0  0  0
 27 24  1  1  0  0  0
 30 29  1  0  0  0  0
 30 28  1  0  0  0  0
M  END
>  <MODEL>
1

>  <REMARK>
 VINA RESULT:      -8.8      0.000      0.000
  Name = 
  2 active torsions:
  status: ('A' for Active; 'I' for Inactive)
    1  A    between atoms: C_11  and  C_28
    2  A    between atoms: C_28  and  O_30
                            x       y       z     vdW  Elec       q    Type
                         _______ _______ _______ _____ _____    ______ ____

>  <TORSDO>
F 2

$$$$
=
 OpenBabel11112416133D

 30 35  0  0  1  0  0  0  0  0999 V2000
  187.8570  175.9810  142.9870 C   0  0  1  0  0  3  0  0  0  0  0  0
  185.9980  177.7210  142.7440 C   0  0  0  0  0  0  0  0  0  0  0  0
  188.9730  177.7020  146.8140 C   0  0  0  0  0  2  0  0  0  0  0  0
  188.7580  175.2880  144.0340 C   0  0  1  0  0  3  0  0  0  0  0  0
  187.1090  175.0050  142.3000 O   0  0  0  0  0  0  0  0  0  0  0  0
  189.8730  172.8520  141.5580 O   0  0  0  0  0  0  0  0  0  0  0  0
  191.9370  174.7040  144.2540 C   0  0  1  0  0  3  0  0  0  0  0  0
  189.2200  173.7840  142.1020 C   0  0  0  0  0  0  0  0  0  0  0  0
  191.8120  175.6380  145.4570 C   0  0  2  0  0  3  0  0  0  0  0  0
  190.1890  176.8610  146.9450 C   0  0  0  0  0  0  0  0  0  0  0  0
  187.9820  174.3160  141.4170 C   0  0  2  0  0  3  0  0  0  0  0  0
  189.6640  174.3620  143.3450 N   0  0  0  0  0  0  0  0  0  0  0  0
  185.2850  178.8210  143.2300 C   0  0  0  0  0  3  0  0  0  0  0  0
  192.5370  174.9280  146.5830 C   0  0  0  0  0  2  0  0  0  0  0  0
  193.2240  173.9260  144.4740 C   0  0  0  0  0  2  0  0  0  0  0  0
  185.7120  177.2460  141.4700 O   0  0  0  0  0  1  0  0  0  0  0  0
  188.3130  176.9900  145.6570 C   0  0  2  0  0  3  0  0  0  0  0  0
  185.5630  179.3420  144.4960 C   0  0  0  0  0  3  0  0  0  0  0  0
  186.9930  177.1160  143.5380 C   0  0  0  0  0  0  0  0  0  0  0  0
  189.4390  176.3980  144.8320 C   0  0  1  0  0  3  0  0  0  0  0  0
  190.9620  176.9390  147.9360 O   0  0  0  0  0  0  0  0  0  0  0  0
  190.4380  176.0060  145.8210 N   0  0  0  0  0  0  0  0  0  0  0  0
  193.6670  174.1800  145.9070 C   0  0  0  0  0  2  0  0  0  0  0  0
  190.3240  172.9630  145.2800 C   0  0  0  0  0  1  0  0  0  0  0  0
  186.5660  178.7740  145.2810 C   0  0  0  0  0  3  0  0  0  0  0  0
  187.3030  177.6870  144.7980 C   0  0  0  0  0  0  0  0  0  0  0  0
  190.7790  173.7260  144.0390 C   0  0  2  0  0  3  0  0  0  0  0  0
  188.3430  175.1610  140.1980 C   0  0  0  0  0  2  0  0  0  0  0  0
  188.9590  173.9980  138.4290 C   0  0  0  0  0  1  0  0  0  0  0  0
  187.8420  174.5620  139.0430 O   0  0  0  0  0  0  0  0  0  0  0  0
  1  5  1  1  0  0  0
  1 19  1  0  0  0  0
  1  4  1  0  0  0  0
  2 13  2  0  0  0  0
  2 19  1  0  0  0  0
  3 10  1  0  0  0  0
  4 12  1  6  0  0  0
  4 20  1  0  0  0  0
  6  8  2  0  0  0  0
  7 15  1  1  0  0  0
  7  9  1  0  0  0  0
  8 12  1  0  0  0  0
  9 22  1  0  0  0  0
  9 14  1  1  0  0  0
 10 21  2  0  0  0  0
 11 28  1  6  0  0  0
 11  8  1  0  0  0  0
 11  5  1  0  0  0  0
 12 27  1  0  0  0  0
 13 18  1  0  0  0  0
 15 23  1  0  0  0  0
 16  2  1  0  0  0  0
 17  3  1  1  0  0  0
 18 25  2  0  0  0  0
 19 26  2  0  0  0  0
 20 17  1  0  0  0  0
 20 22  1  1  0  0  0
 22 10  1  0  0  0  0
 23 14  1  0  0  0  0
 26 25  1  0  0  0  0
 26 17  1  0  0  0  0
 27  7  1  0  0  0  0
 27 24  1  1  0  0  0
 29 30  1  0  0  0  0
 30 28  1  0  0  0  0
M  END
>  <MODEL>
2

>  <REMARK>
 VINA RESULT:      -7.7      1.751      2.567
  Name = 
  2 active torsions:
  status: ('A' for Active; 'I' for Inactive)
    1  A    between atoms: C_11  and  C_28
    2  A    between atoms: C_28  and  O_30
                            x       y       z     vdW  Elec       q    Type
                         _______ _______ _______ _____ _____    ______ ____

>  <TORSDO>
F 2

$$$$
=
 OpenBabel11112416133D

 30 35  0  0  1  0  0  0  0  0999 V2000
  186.9150  177.0300  143.9700 C   0  0  1  0  0  3  0  0  0  0  0  0
  184.9330  178.3280  143.0080 C   0  0  0  0  0  0  0  0  0  0  0  0
  187.8190  175.4730  140.0190 C   0  0  0  0  0  2  0  0  0  0  0  0
  188.2480  176.3570  143.5740 C   0  0  1  0  0  3  0  0  0  0  0  0
  187.1650  178.0210  144.9390 O   0  0  0  0  0  0  0  0  0  0  0  0
  189.1710  175.9700  147.0820 O   0  0  0  0  0  0  0  0  0  0  0  0
  189.5900  173.4670  144.1620 C   0  0  1  0  0  3  0  0  0  0  0  0
  188.5500  176.3350  146.0470 C   0  0  0  0  0  0  0  0  0  0  0  0
  189.4430  173.3250  142.6480 C   0  0  2  0  0  3  0  0  0  0  0  0
  188.8590  174.5390  140.5210 C   0  0  0  0  0  0  0  0  0  0  0  0
  187.4600  177.3760  146.1690 C   0  0  2  0  0  3  0  0  0  0  0  0
  188.8470  175.7470  144.7660 N   0  0  0  0  0  0  0  0  0  0  0  0
  184.1300  178.7040  141.9260 C   0  0  0  0  0  3  0  0  0  0  0  0
  190.7910  172.8260  142.1680 C   0  0  0  0  0  2  0  0  0  0  0  0
  190.6440  172.4490  144.5670 C   0  0  0  0  0  2  0  0  0  0  0  0
  184.5720  178.7370  144.2860 O   0  0  0  0  0  1  0  0  0  0  0  0
  187.6250  176.3060  141.2640 C   0  0  2  0  0  3  0  0  0  0  0  0
  184.4460  178.2910  140.6310 C   0  0  0  0  0  3  0  0  0  0  0  0
  186.0820  177.5410  142.7940 C   0  0  0  0  0  0  0  0  0  0  0  0
  187.9320  175.3920  142.4330 C   0  0  1  0  0  3  0  0  0  0  0  0
  189.5060  173.7740  139.7580 O   0  0  0  0  0  0  0  0  0  0  0  0
  189.0130  174.5410  141.9460 N   0  0  0  0  0  0  0  0  0  0  0  0
  191.3050  171.9510  143.2920 C   0  0  0  0  0  2  0  0  0  0  0  0
  191.1710  175.5010  143.9430 C   0  0  0  0  0  1  0  0  0  0  0  0
  185.5630  177.4860  140.4080 C   0  0  0  0  0  3  0  0  0  0  0  0
  186.3630  177.0820  141.4820 C   0  0  0  0  0  0  0  0  0  0  0  0
  189.9970  174.8520  144.6710 C   0  0  2  0  0  3  0  0  0  0  0  0
  186.2100  176.7950  146.8220 C   0  0  0  0  0  2  0  0  0  0  0  0
  185.1750  178.5650  147.6340 C   0  0  0  0  0  1  0  0  0  0  0  0
  185.9440  177.4660  148.0150 O   0  0  0  0  0  0  0  0  0  0  0  0
  1 19  1  6  0  0  0
  1  5  1  0  0  0  0
  2 16  1  0  0  0  0
  3 10  1  0  0  0  0
  4  1  1  0  0  0  0
  4 12  1  1  0  0  0
  5 11  1  0  0  0  0
  7 15  1  6  0  0  0
  7 27  1  0  0  0  0
  8 11  1  0  0  0  0
  8  6  2  0  0  0  0
  9 14  1  6  0  0  0
  9  7  1  0  0  0  0
 10 22  1  0  0  0  0
 11 28  1  6  0  0  0
 12  8  1  0  0  0  0
 13  2  2  0  0  0  0
 14 23  1  0  0  0  0
 17  3  1  6  0  0  0
 17 26  1  0  0  0  0
 17 20  1  0  0  0  0
 18 13  1  0  0  0  0
 19  2  1  0  0  0  0
 20 22  1  6  0  0  0
 20  4  1  0  0  0  0
 21 10  2  0  0  0  0
 22  9  1  0  0  0  0
 23 15  1  0  0  0  0
 25 18  2  0  0  0  0
 25 26  1  0  0  0  0
 26 19  2  0  0  0  0
 27 24  1  6  0  0  0
 27 12  1  0  0  0  0
 28 30  1  0  0  0  0
 29 30  1  0  0  0  0
M  END
>  <MODEL>
3

>  <REMARK>
 VINA RESULT:      -7.5      1.776      5.012
  Name = 
  2 active torsions:
  status: ('A' for Active; 'I' for Inactive)
    1  A    between atoms: C_11  and  C_28
    2  A    between atoms: C_28  and  O_30
                            x       y       z     vdW  Elec       q    Type
                         _______ _______ _______ _____ _____    ______ ____

>  <TORSDO>
F 2

$$$$
=
 OpenBabel11112416133D

 30 35  0  0  1  0  0  0  0  0999 V2000
  189.2190  175.7400  143.8970 C   0  0  1  0  0  3  0  0  0  0  0  0
  191.0110  174.6660  145.3710 C   0  0  0  0  0  0  0  0  0  0  0  0
  187.7740  178.0110  147.3030 C   0  0  0  0  0  2  0  0  0  0  0  0
  188.2800  176.9630  143.8040 C   0  0  1  0  0  3  0  0  0  0  0  0
  190.0530  175.7070  142.7630 O   0  0  0  0  0  0  0  0  0  0  0  0
  187.4410  176.1400  140.3510 O   0  0  0  0  0  0  0  0  0  0  0  0
  185.1210  177.3550  143.1970 C   0  0  1  0  0  3  0  0  0  0  0  0
  188.0140  176.1220  141.4740 C   0  0  0  0  0  0  0  0  0  0  0  0
  185.1250  177.8750  144.6340 C   0  0  2  0  0  3  0  0  0  0  0  0
  186.5880  178.5310  146.5750 C   0  0  0  0  0  0  0  0  0  0  0  0
  189.2720  175.3010  141.6490 C   0  0  2  0  0  3  0  0  0  0  0  0
  187.4640  176.8470  142.5900 N   0  0  0  0  0  0  0  0  0  0  0  0
  191.6410  174.5110  146.6100 C   0  0  0  0  0  3  0  0  0  0  0  0
  184.3570  179.1810  144.5810 C   0  0  0  0  0  2  0  0  0  0  0  0
  183.8580  177.9150  142.5640 C   0  0  0  0  0  2  0  0  0  0  0  0
  191.4030  173.8540  144.3130 O   0  0  0  0  0  1  0  0  0  0  0  0
  188.5400  177.4370  146.1360 C   0  0  2  0  0  3  0  0  0  0  0  0
  191.2570  175.2910  147.7030 C   0  0  0  0  0  3  0  0  0  0  0  0
  189.9920  175.6260  145.2110 C   0  0  0  0  0  0  0  0  0  0  0  0
  187.4990  177.0200  145.1150 C   0  0  1  0  0  3  0  0  0  0  0  0
  185.7480  179.3000  147.1120 O   0  0  0  0  0  0  0  0  0  0  0  0
  186.4540  178.0320  145.2380 N   0  0  0  0  0  0  0  0  0  0  0  0
  183.3090  178.9730  143.5070 C   0  0  0  0  0  2  0  0  0  0  0  0
  186.7360  179.2070  142.3910 C   0  0  0  0  0  1  0  0  0  0  0  0
  190.2290  176.2250  147.5670 C   0  0  0  0  0  3  0  0  0  0  0  0
  189.5740  176.3730  146.3400 C   0  0  0  0  0  0  0  0  0  0  0  0
  186.3330  177.7360  142.3420 C   0  0  2  0  0  3  0  0  0  0  0  0
  188.9570  173.8080  141.6860 C   0  0  0  0  0  2  0  0  0  0  0  0
  188.8060  172.9370  139.6670 C   0  0  0  0  0  1  0  0  0  0  0  0
  189.7030  173.1430  140.7140 O   0  0  0  0  0  0  0  0  0  0  0  0
  1  5  1  6  0  0  0
  1 19  1  0  0  0  0
  2 13  1  0  0  0  0
  4 12  1  6  0  0  0
  4  1  1  0  0  0  0
  4 20  1  0  0  0  0
  6  8  2  0  0  0  0
  7 15  1  6  0  0  0
  7  9  1  0  0  0  0
  8 11  1  0  0  0  0
  8 12  1  0  0  0  0
  9 14  1  6  0  0  0
  9 22  1  0  0  0  0
 10 21  2  0  0  0  0
 10  3  1  0  0  0  0
 11 28  1  1  0  0  0
 11  5  1  0  0  0  0
 13 18  2  0  0  0  0
 15 23  1  0  0  0  0
 16  2  1  0  0  0  0
 17 26  1  0  0  0  0
 17  3  1  1  0  0  0
 19  2  2  0  0  0  0
 19 26  1  0  0  0  0
 20 22  1  6  0  0  0
 20 17  1  0  0  0  0
 22 10  1  0  0  0  0
 23 14  1  0  0  0  0
 25 18  1  0  0  0  0
 26 25  2  0  0  0  0
 27 24  1  1  0  0  0
 27 12  1  0  0  0  0
 27  7  1  0  0  0  0
 29 30  1  0  0  0  0
 30 28  1  0  0  0  0
M  END
>  <MODEL>
4

>  <REMARK>
 VINA RESULT:      -7.4      2.166      5.573
  Name = 
  2 active torsions:
  status: ('A' for Active; 'I' for Inactive)
    1  A    between atoms: C_11  and  C_28
    2  A    between atoms: C_28  and  O_30
                            x       y       z     vdW  Elec       q    Type
                         _______ _______ _______ _____ _____    ______ ____

>  <TORSDO>
F 2

$$$$
=
 OpenBabel11112416133D

 30 35  0  0  1  0  0  0  0  0999 V2000
  190.8860  173.9490  142.7230 C   0  0  1  0  0  3  0  0  0  0  0  0
  192.8630  172.5370  143.5210 C   0  0  0  0  0  0  0  0  0  0  0  0
  191.0060  176.2160  146.4240 C   0  0  0  0  0  2  0  0  0  0  0  0
  190.1760  175.3020  142.9490 C   0  0  1  0  0  3  0  0  0  0  0  0
  191.2900  173.8540  141.3780 O   0  0  0  0  0  0  0  0  0  0  0  0
  188.1430  174.8090  139.9610 O   0  0  0  0  0  0  0  0  0  0  0  0
  187.0970  176.1960  143.4170 C   0  0  1  0  0  3  0  0  0  0  0  0
  189.0380  174.6420  140.8330 C   0  0  0  0  0  0  0  0  0  0  0  0
  187.6490  176.6290  144.7740 C   0  0  2  0  0  3  0  0  0  0  0  0
  189.7480  176.9470  146.1280 C   0  0  0  0  0  0  0  0  0  0  0  0
  190.1360  173.6330  140.5810 C   0  0  2  0  0  3  0  0  0  0  0  0
  189.0030  175.3780  142.0710 N   0  0  0  0  0  0  0  0  0  0  0  0
  193.8280  172.2200  144.4840 C   0  0  0  0  0  3  0  0  0  0  0  0
  187.1250  178.0350  144.9810 C   0  0  0  0  0  2  0  0  0  0  0  0
  185.8030  176.9740  143.2360 C   0  0  0  0  0  2  0  0  0  0  0  0
  192.7560  171.7360  142.3900 O   0  0  0  0  0  1  0  0  0  0  0  0
  191.2500  175.6000  145.0670 C   0  0  2  0  0  3  0  0  0  0  0  0
  193.9480  172.9870  145.6450 C   0  0  0  0  0  3  0  0  0  0  0  0
  192.0150  173.6460  143.7090 C   0  0  0  0  0  0  0  0  0  0  0  0
  189.8820  175.4020  144.4440 C   0  0  1  0  0  3  0  0  0  0  0  0
  189.2620  177.8020  146.9140 O   0  0  0  0  0  0  0  0  0  0  0  0
  189.1100  176.5500  144.9080 N   0  0  0  0  0  0  0  0  0  0  0  0
  185.7670  178.0470  144.3120 C   0  0  0  0  0  2  0  0  0  0  0  0
  188.6380  177.8280  142.1310 C   0  0  0  0  0  1  0  0  0  0  0  0
  193.0950  174.0690  145.8590 C   0  0  0  0  0  3  0  0  0  0  0  0
  192.1100  174.3830  144.9160 C   0  0  0  0  0  0  0  0  0  0  0  0
  188.0100  176.4380  142.2120 C   0  0  2  0  0  3  0  0  0  0  0  0
  189.6160  172.2050  140.7140 C   0  0  0  0  0  2  0  0  0  0  0  0
  189.5110  171.5340  138.6170 C   0  0  0  0  0  1  0  0  0  0  0  0
  190.2520  171.3810  139.7870 O   0  0  0  0  0  0  0  0  0  0  0  0
  1  5  1  6  0  0  0
  1  4  1  0  0  0  0
  1 19  1  0  0  0  0
  2 19  2  0  0  0  0
  2 13  1  0  0  0  0
  4 12  1  6  0  0  0
  4 20  1  0  0  0  0
  6  8  2  0  0  0  0
  7 15  1  6  0  0  0
  7  9  1  0  0  0  0
  8 12  1  0  0  0  0
  9 22  1  0  0  0  0
  9 14  1  6  0  0  0
 10  3  1  0  0  0  0
 10 21  2  0  0  0  0
 11 28  1  1  0  0  0
 11  8  1  0  0  0  0
 11  5  1  0  0  0  0
 12 27  1  0  0  0  0
 13 18  2  0  0  0  0
 15 23  1  0  0  0  0
 16  2  1  0  0  0  0
 17  3  1  1  0  0  0
 18 25  1  0  0  0  0
 19 26  1  0  0  0  0
 20 22  1  6  0  0  0
 20 17  1  0  0  0  0
 22 10  1  0  0  0  0
 23 14  1  0  0  0  0
 26 17  1  0  0  0  0
 26 25  2  0  0  0  0
 27 24  1  1  0  0  0
 27  7  1  0  0  0  0
 29 30  1  0  0  0  0
 30 28  1  0  0  0  0
M  END
>  <MODEL>
5

>  <REMARK>
 VINA RESULT:      -7.2      2.577      6.132
  Name = 
  2 active torsions:
  status: ('A' for Active; 'I' for Inactive)
    1  A    between atoms: C_11  and  C_28
    2  A    between atoms: C_28  and  O_30
                            x       y       z     vdW  Elec       q    Type
                         _______ _______ _______ _____ _____    ______ ____

>  <TORSDO>
F 2

$$$$
=
 OpenBabel11112416133D

 30 35  0  0  1  0  0  0  0  0999 V2000
  188.8200  176.0000  143.9570 C   0  0  1  0  0  3  0  0  0  0  0  0
  187.2690  177.8540  144.7920 C   0  0  0  0  0  0  0  0  0  0  0  0
  187.1280  176.3730  139.9770 C   0  0  0  0  0  2  0  0  0  0  0  0
  189.4540  175.4180  142.6750 C   0  0  1  0  0  3  0  0  0  0  0  0
  189.8410  176.3770  144.8510 O   0  0  0  0  0  0  0  0  0  0  0  0
  191.6780  173.3090  144.6530 O   0  0  0  0  0  0  0  0  0  0  0  0
  189.7220  172.4380  141.4310 C   0  0  1  0  0  3  0  0  0  0  0  0
  190.8360  174.1980  144.3510 C   0  0  0  0  0  0  0  0  0  0  0  0
  188.8480  173.0440  140.3350 C   0  0  2  0  0  3  0  0  0  0  0  0
  187.8460  175.1820  139.4560 C   0  0  0  0  0  0  0  0  0  0  0  0
  190.4080  175.1970  145.4010 C   0  0  2  0  0  3  0  0  0  0  0  0
  190.2600  174.2450  143.0310 N   0  0  0  0  0  0  0  0  0  0  0  0
  186.2630  178.7990  144.5650 C   0  0  0  0  0  3  0  0  0  0  0  0
  189.5200  172.6510  139.0350 C   0  0  0  0  0  2  0  0  0  0  0  0
  190.3740  171.2160  140.8040 C   0  0  0  0  0  2  0  0  0  0  0  0
  187.7250  177.6600  146.0910 O   0  0  0  0  0  1  0  0  0  0  0  0
  187.8620  176.5420  141.2850 C   0  0  2  0  0  3  0  0  0  0  0  0
  185.7610  179.0030  143.2780 C   0  0  0  0  0  3  0  0  0  0  0  0
  187.7970  177.1110  143.7180 C   0  0  0  0  0  0  0  0  0  0  0  0
  188.3100  175.1540  141.6990 C   0  0  1  0  0  3  0  0  0  0  0  0
  187.7250  174.7840  138.2680 O   0  0  0  0  0  0  0  0  0  0  0  0
  188.6330  174.4930  140.4380 N   0  0  0  0  0  0  0  0  0  0  0  0
  190.1270  171.2910  139.3060 C   0  0  0  0  0  2  0  0  0  0  0  0
  191.6510  174.1010  140.9860 C   0  0  0  0  0  1  0  0  0  0  0  0
  186.2520  178.2530  142.2090 C   0  0  0  0  0  3  0  0  0  0  0  0
  187.2410  177.2880  142.4260 C   0  0  0  0  0  0  0  0  0  0  0  0
  190.8030  173.3520  142.0120 C   0  0  2  0  0  3  0  0  0  0  0  0
  189.4900  174.5530  146.4360 C   0  0  0  0  0  2  0  0  0  0  0  0
  190.9510  175.3540  147.8800 C   0  0  0  0  0  1  0  0  0  0  0  0
  189.5820  175.2430  147.6450 O   0  0  0  0  0  0  0  0  0  0  0  0
  1 19  1  6  0  0  0
  1  5  1  0  0  0  0
  2 16  1  0  0  0  0
  4 12  1  1  0  0  0
  4  1  1  0  0  0  0
  5 11  1  0  0  0  0
  7 15  1  6  0  0  0
  7 27  1  0  0  0  0
  8  6  2  0  0  0  0
  8 11  1  0  0  0  0
  9 14  1  6  0  0  0
  9 22  1  0  0  0  0
  9  7  1  0  0  0  0
 10  3  1  0  0  0  0
 10 22  1  0  0  0  0
 11 28  1  1  0  0  0
 12  8  1  0  0  0  0
 13  2  1  0  0  0  0
 14 23  1  0  0  0  0
 17  3  1  6  0  0  0
 17 20  1  0  0  0  0
 17 26  1  0  0  0  0
 18 13  2  0  0  0  0
 19  2  2  0  0  0  0
 20 22  1  6  0  0  0
 20  4  1  0  0  0  0
 21 10  2  0  0  0  0
 23 15  1  0  0  0  0
 25 26  2  0  0  0  0
 25 18  1  0  0  0  0
 26 19  1  0  0  0  0
 27 24  1  6  0  0  0
 27 12  1  0  0  0  0
 28 30  1  0  0  0  0
 30 29  1  0  0  0  0
M  END
>  <MODEL>
6

>  <REMARK>
 VINA RESULT:      -7.2      2.607      5.697
  Name = 
  2 active torsions:
  status: ('A' for Active; 'I' for Inactive)
    1  A    between atoms: C_11  and  C_28
    2  A    between atoms: C_28  and  O_30
                            x       y       z     vdW  Elec       q    Type
                         _______ _______ _______ _____ _____    ______ ____

>  <TORSDO>
F 2

$$$$
=
 OpenBabel11112416133D

 30 35  0  0  1  0  0  0  0  0999 V2000
  188.9060  175.4150  143.4840 C   0  0  1  0  0  3  0  0  0  0  0  0
  186.6050  176.5170  143.6660 C   0  0  0  0  0  0  0  0  0  0  0  0
  190.0700  177.2100  147.2620 C   0  0  0  0  0  2  0  0  0  0  0  0
  190.1260  174.9800  144.3250 C   0  0  1  0  0  3  0  0  0  0  0  0
  188.3760  174.2920  142.8190 O   0  0  0  0  0  0  0  0  0  0  0  0
  191.4920  173.1180  141.5000 O   0  0  0  0  0  0  0  0  0  0  0  0
  193.3290  175.3800  144.0440 C   0  0  1  0  0  3  0  0  0  0  0  0
  190.6920  173.7810  142.2150 C   0  0  0  0  0  0  0  0  0  0  0  0
  193.1320  176.1730  145.3350 C   0  0  2  0  0  3  0  0  0  0  0  0
  191.4840  176.7730  147.1430 C   0  0  0  0  0  0  0  0  0  0  0  0
  189.2580  173.9440  141.7630 C   0  0  2  0  0  3  0  0  0  0  0  0
  191.1400  174.4070  143.4330 N   0  0  0  0  0  0  0  0  0  0  0  0
  185.6890  177.3250  144.3480 C   0  0  0  0  0  3  0  0  0  0  0  0
  194.2040  175.6640  146.2770 C   0  0  0  0  0  2  0  0  0  0  0  0
  194.8060  175.0200  144.0090 C   0  0  0  0  0  2  0  0  0  0  0  0
  186.2690  176.0390  142.4060 O   0  0  0  0  0  1  0  0  0  0  0  0
  189.4700  176.3870  146.1460 C   0  0  2  0  0  3  0  0  0  0  0  0
  186.0020  177.8440  145.6060 C   0  0  0  0  0  3  0  0  0  0  0  0
  187.8480  176.2070  144.2530 C   0  0  0  0  0  0  0  0  0  0  0  0
  190.5720  176.2050  145.1210 C   0  0  1  0  0  3  0  0  0  0  0  0
  192.3490  177.0350  148.0190 O   0  0  0  0  0  0  0  0  0  0  0  0
  191.7870  176.0890  145.9200 N   0  0  0  0  0  0  0  0  0  0  0  0
  195.3790  175.3280  145.3830 C   0  0  0  0  0  2  0  0  0  0  0  0
  192.4840  173.1840  145.1170 C   0  0  0  0  0  1  0  0  0  0  0  0
  187.2410  177.5710  146.1860 C   0  0  0  0  0  3  0  0  0  0  0  0
  188.1760  176.7840  145.5060 C   0  0  0  0  0  0  0  0  0  0  0  0
  192.4900  174.1080  143.9020 C   0  0  2  0  0  3  0  0  0  0  0  0
  189.1550  174.9150  140.5900 C   0  0  0  0  0  2  0  0  0  0  0  0
  188.9130  173.7490  138.7340 C   0  0  0  0  0  1  0  0  0  0  0  0
  188.1910  174.4660  139.6870 O   0  0  0  0  0  0  0  0  0  0  0  0
  1  5  1  1  0  0  0
  1 19  1  0  0  0  0
  1  4  1  0  0  0  0
  2 19  2  0  0  0  0
  2 13  1  0  0  0  0
  4 12  1  6  0  0  0
  4 20  1  0  0  0  0
  6  8  2  0  0  0  0
  7 15  1  1  0  0  0
  7  9  1  0  0  0  0
  8 12  1  0  0  0  0
  9 22  1  0  0  0  0
  9 14  1  1  0  0  0
 10  3  1  0  0  0  0
 10 21  2  0  0  0  0
 11 28  1  6  0  0  0
 11  8  1  0  0  0  0
 11  5  1  0  0  0  0
 12 27  1  0  0  0  0
 13 18  2  0  0  0  0
 15 23  1  0  0  0  0
 16  2  1  0  0  0  0
 17  3  1  1  0  0  0
 18 25  1  0  0  0  0
 19 26  1  0  0  0  0
 20 22  1  1  0  0  0
 20 17  1  0  0  0  0
 22 10  1  0  0  0  0
 23 14  1  0  0  0  0
 26 17  1  0  0  0  0
 26 25  2  0  0  0  0
 27  7  1  0  0  0  0
 27 24  1  1  0  0  0
 29 30  1  0  0  0  0
 30 28  1  0  0  0  0
M  END
>  <MODEL>
7

>  <REMARK>
 VINA RESULT:      -7.2      1.802      2.835
  Name = 
  2 active torsions:
  status: ('A' for Active; 'I' for Inactive)
    1  A    between atoms: C_11  and  C_28
    2  A    between atoms: C_28  and  O_30
                            x       y       z     vdW  Elec       q    Type
                         _______ _______ _______ _____ _____    ______ ____

>  <TORSDO>
F 2

$$$$
=
 OpenBabel11112416133D

 30 35  0  0  1  0  0  0  0  0999 V2000
  188.3930  175.7300  143.6020 C   0  0  1  0  0  3  0  0  0  0  0  0
  186.2380  176.6460  144.6300 C   0  0  0  0  0  0  0  0  0  0  0  0
  190.5780  176.8380  147.1860 C   0  0  0  0  0  2  0  0  0  0  0  0
  189.8020  175.2130  143.9670 C   0  0  1  0  0  3  0  0  0  0  0  0
  187.6970  174.7260  142.9010 O   0  0  0  0  0  0  0  0  0  0  0  0
  190.3130  174.0030  140.5640 O   0  0  0  0  0  0  0  0  0  0  0  0
  192.7940  175.8410  142.8940 C   0  0  1  0  0  3  0  0  0  0  0  0
  189.7470  174.4720  141.5890 C   0  0  0  0  0  0  0  0  0  0  0  0
  192.9700  176.3610  144.3200 C   0  0  2  0  0  3  0  0  0  0  0  0
  191.9010  176.5130  146.5950 C   0  0  0  0  0  0  0  0  0  0  0  0
  188.2440  174.6360  141.5940 C   0  0  2  0  0  3  0  0  0  0  0  0
  190.5220  174.8790  142.7340 N   0  0  0  0  0  0  0  0  0  0  0  0
  185.5520  177.2560  145.6850 C   0  0  0  0  0  3  0  0  0  0  0  0
  194.2650  175.7440  144.8070 C   0  0  0  0  0  2  0  0  0  0  0  0
  194.2000  175.5780  142.3800 C   0  0  0  0  0  2  0  0  0  0  0  0
  185.5580  176.3980  143.4430 O   0  0  0  0  0  1  0  0  0  0  0  0
  189.6880  176.2100  146.1400 C   0  0  2  0  0  3  0  0  0  0  0  0
  186.2080  177.5440  146.8840 C   0  0  0  0  0  3  0  0  0  0  0  0
  187.5960  176.3010  144.7750 C   0  0  0  0  0  0  0  0  0  0  0  0
  190.4540  176.2880  144.8350 C   0  0  1  0  0  3  0  0  0  0  0  0
  192.9790  176.6520  147.2310 O   0  0  0  0  0  0  0  0  0  0  0  0
  191.8460  176.0910  145.2260 N   0  0  0  0  0  0  0  0  0  0  0  0
  195.1390  175.6510  143.5730 C   0  0  0  0  0  2  0  0  0  0  0  0
  192.2890  173.4360  143.7020 C   0  0  0  0  0  1  0  0  0  0  0  0
  187.5600  177.2360  147.0320 C   0  0  0  0  0  3  0  0  0  0  0  0
  188.2640  176.6470  145.9760 C   0  0  0  0  0  0  0  0  0  0  0  0
  191.9490  174.5730  142.7410 C   0  0  2  0  0  3  0  0  0  0  0  0
  187.8120  175.8040  140.7130 C   0  0  0  0  0  2  0  0  0  0  0  0
  187.2070  177.9160  140.8970 C   0  0  0  0  0  1  0  0  0  0  0  0
  188.1810  177.0090  141.3100 O   0  0  0  0  0  0  0  0  0  0  0  0
  1  5  1  1  0  0  0
  1  4  1  0  0  0  0
  1 19  1  0  0  0  0
  2 19  2  0  0  0  0
  2 13  1  0  0  0  0
  4 12  1  6  0  0  0
  4 20  1  0  0  0  0
  6  8  2  0  0  0  0
  7 15  1  1  0  0  0
  7  9  1  0  0  0  0
  8 11  1  0  0  0  0
  8 12  1  0  0  0  0
  9 14  1  1  0  0  0
  9 22  1  0  0  0  0
 10  3  1  0  0  0  0
 10 21  2  0  0  0  0
 11 28  1  6  0  0  0
 11  5  1  0  0  0  0
 12 27  1  0  0  0  0
 13 18  2  0  0  0  0
 15 23  1  0  0  0  0
 16  2  1  0  0  0  0
 17  3  1  1  0  0  0
 18 25  1  0  0  0  0
 19 26  1  0  0  0  0
 20 22  1  1  0  0  0
 20 17  1  0  0  0  0
 22 10  1  0  0  0  0
 23 14  1  0  0  0  0
 26 17  1  0  0  0  0
 26 25  2  0  0  0  0
 27  7  1  0  0  0  0
 27 24  1  1  0  0  0
 28 30  1  0  0  0  0
 29 30  1  0  0  0  0
M  END
>  <MODEL>
8

>  <REMARK>
 VINA RESULT:      -7.1      1.458      1.936
  Name = 
  2 active torsions:
  status: ('A' for Active; 'I' for Inactive)
    1  A    between atoms: C_11  and  C_28
    2  A    between atoms: C_28  and  O_30
                            x       y       z     vdW  Elec       q    Type
                         _______ _______ _______ _____ _____    ______ ____

>  <TORSDO>
F 2

$$$$
=
 OpenBabel11112416133D

 30 35  0  0  1  0  0  0  0  0999 V2000
  189.9770  175.6350  144.2220 C   0  0  1  0  0  3  0  0  0  0  0  0
  192.3710  174.8070  144.5770 C   0  0  0  0  0  0  0  0  0  0  0  0
  190.2220  177.9300  147.8990 C   0  0  0  0  0  2  0  0  0  0  0  0
  188.9970  176.7600  144.6230 C   0  0  1  0  0  3  0  0  0  0  0  0
  190.1220  175.6220  142.8210 O   0  0  0  0  0  0  0  0  0  0  0  0
  186.6210  175.6900  142.0710 O   0  0  0  0  0  0  0  0  0  0  0  0
  185.9450  176.8260  145.7060 C   0  0  1  0  0  3  0  0  0  0  0  0
  187.6810  175.7820  142.7470 C   0  0  0  0  0  0  0  0  0  0  0  0
  186.6180  177.4150  146.9440 C   0  0  2  0  0  3  0  0  0  0  0  0
  188.7840  178.3000  147.8760 C   0  0  0  0  0  0  0  0  0  0  0  0
  188.9330  175.0900  142.2560 C   0  0  2  0  0  3  0  0  0  0  0  0
  187.6970  176.5070  143.9910 N   0  0  0  0  0  0  0  0  0  0  0  0
  193.5530  174.7740  145.3240 C   0  0  0  0  0  3  0  0  0  0  0  0
  185.7970  178.6400  147.2930 C   0  0  0  0  0  2  0  0  0  0  0  0
  184.4830  177.2330  145.8040 C   0  0  0  0  0  2  0  0  0  0  0  0
  192.2580  173.9830  143.4630 O   0  0  0  0  0  1  0  0  0  0  0  0
  190.3480  177.3720  146.5020 C   0  0  2  0  0  3  0  0  0  0  0  0
  193.6940  175.5690  146.4630 C   0  0  0  0  0  3  0  0  0  0  0  0
  191.3160  175.6590  144.9600 C   0  0  0  0  0  0  0  0  0  0  0  0
  188.9850  176.8100  146.1490 C   0  0  1  0  0  3  0  0  0  0  0  0
  188.2550  179.0140  148.7680 O   0  0  0  0  0  0  0  0  0  0  0  0
  188.0460  177.7240  146.7900 N   0  0  0  0  0  0  0  0  0  0  0  0
  184.3790  178.2820  146.9000 C   0  0  0  0  0  2  0  0  0  0  0  0
  186.7250  178.7770  144.1990 C   0  0  0  0  0  1  0  0  0  0  0  0
  192.6460  176.3940  146.8720 C   0  0  0  0  0  3  0  0  0  0  0  0
  191.4500  176.4200  146.1480 C   0  0  0  0  0  0  0  0  0  0  0  0
  186.5090  177.2740  144.3550 C   0  0  2  0  0  3  0  0  0  0  0  0
  188.8400  173.5790  142.4420 C   0  0  0  0  0  2  0  0  0  0  0  0
  189.9830  171.7450  142.0020 C   0  0  0  0  0  1  0  0  0  0  0  0
  189.5370  172.9320  141.4230 O   0  0  0  0  0  0  0  0  0  0  0  0
  1  5  1  6  0  0  0
  1  4  1  0  0  0  0
  1 19  1  0  0  0  0
  2 19  2  0  0  0  0
  2 13  1  0  0  0  0
  4 12  1  1  0  0  0
  4 20  1  0  0  0  0
  6  8  2  0  0  0  0
  7 15  1  6  0  0  0
  7  9  1  0  0  0  0
  8 12  1  0  0  0  0
  9 14  1  6  0  0  0
 10  3  1  0  0  0  0
 10 21  2  0  0  0  0
 11 28  1  1  0  0  0
 11  8  1  0  0  0  0
 11  5  1  0  0  0  0
 12 27  1  0  0  0  0
 13 18  2  0  0  0  0
 15 23  1  0  0  0  0
 16  2  1  0  0  0  0
 17  3  1  1  0  0  0
 18 25  1  0  0  0  0
 19 26  1  0  0  0  0
 20 17  1  0  0  0  0
 20 22  1  6  0  0  0
 22  9  1  0  0  0  0
 22 10  1  0  0  0  0
 23 14  1  0  0  0  0
 26 17  1  0  0  0  0
 26 25  2  0  0  0  0
 27 24  1  1  0  0  0
 27  7  1  0  0  0  0
 30 29  1  0  0  0  0
 30 28  1  0  0  0  0
M  END
>  <MODEL>
9

>  <REMARK>
 VINA RESULT:      -7.0      2.031      5.804
  Name = 
  2 active torsions:
  status: ('A' for Active; 'I' for Inactive)
    1  A    between atoms: C_11  and  C_28
    2  A    between atoms: C_28  and  O_30
                            x       y       z     vdW  Elec       q    Type
                         _______ _______ _______ _____ _____    ______ ____

>  <TORSDO>
F 2

$$$$
