=
 OpenBabel11112417223D

 37 44  0  0  1  0  0  0  0  0999 V2000
  191.2020  172.4060  141.7180 C   0  0  0  0  0  2  0  0  0  0  0  0
  195.3100  173.1170  143.8220 C   0  0  0  0  0  0  0  0  0  0  0  0
  192.1580  175.6100  144.9480 C   0  0  0  0  0  0  0  0  0  0  0  0
  191.1170  171.7200  140.3290 C   0  0  1  0  0  3  0  0  0  0  0  0
  188.9200  175.6810  142.7730 C   0  0  0  0  0  2  0  0  0  0  0  0
  194.4630  174.9760  145.3310 C   0  0  0  0  0  0  0  0  0  0  0  0
  191.2120  175.3540  143.9510 C   0  0  0  0  0  0  0  0  0  0  0  0
  188.8350  172.8250  139.8960 C   0  0  0  0  0  0  0  0  0  0  0  0
  193.2970  174.9470  144.5870 C   0  0  0  0  0  0  0  0  0  0  0  0
  189.8350  175.8770  143.9240 N   0  0  0  0  0  0  0  0  0  0  0  0
  194.4710  175.7420  146.5080 C   0  0  0  0  0  3  0  0  0  0  0  0
  190.0620  172.2100  139.3030 C   0  0  0  0  0  2  0  0  0  0  0  0
  193.1490  174.2680  143.4490 N   0  0  0  0  0  0  0  0  0  0  0  0
  194.8060  171.9140  144.6020 C   0  0  0  0  0  1  0  0  0  0  0  0
  190.8910  177.0700  146.6010 C   0  0  0  0  0  2  0  0  0  0  0  0
  193.3030  176.4330  146.9040 C   0  0  0  0  0  3  0  0  0  0  0  0
  194.2400  173.5450  142.7930 C   0  0  0  0  0  2  0  0  0  0  0  0
  189.0250  173.9010  140.7900 N   0  0  0  0  0  0  0  0  0  0  0  0
  189.1530  174.3070  142.2380 C   0  0  1  0  0  3  0  0  0  0  0  0
  192.1300  176.3830  146.1200 C   0  0  0  0  0  0  0  0  0  0  0  0
  191.8890  174.4990  143.0140 C   0  0  0  0  0  0  0  0  0  0  0  0
  195.6760  174.2560  144.8060 C   0  0  0  0  0  2  0  0  0  0  0  0
  189.3180  176.5230  145.1430 C   0  0  1  0  0  3  0  0  0  0  0  0
  196.5600  172.7060  143.0740 C   0  0  0  0  0  1  0  0  0  0  0  0
  190.1180  174.7050  141.3470 C   0  0  1  0  0  3  0  0  0  0  0  0
  187.6840  172.3980  139.6260 O   0  0  0  0  0  0  0  0  0  0  0  0
  191.3770  173.9430  141.6940 C   0  0  2  0  0  3  0  0  0  0  0  0
  190.1570  177.5770  145.5250 O   0  0  0  0  0  0  0  0  0  0  0  0
  187.5820  178.0150  144.1220 C   0  0  0  0  0  3  0  0  0  0  0  0
  187.8960  177.0020  145.0350 C   0  0  0  0  0  0  0  0  0  0  0  0
  186.8910  176.4710  145.8580 C   0  0  0  0  0  3  0  0  0  0  0  0
  184.6110  176.4310  146.5520 F   0  0  0  0  0  0  0  0  0  0  0  0
  185.2690  177.9550  144.8410 C   0  0  0  0  0  3  0  0  0  0  0  0
  185.5800  176.9460  145.7580 C   0  0  0  0  0  0  0  0  0  0  0  0
  186.2710  178.4890  144.0230 C   0  0  0  0  0  3  0  0  0  0  0  0
  192.4970  172.4830  138.5320 O   0  0  0  0  0  1  0  0  0  0  0  0
  192.4830  171.6670  139.6650 C   0  0  0  0  0  2  0  0  0  0  0  0
  2 14  1  0  0  0  0
  2 22  1  0  0  0  0
  3 20  1  0  0  0  0
  4 37  1  6  0  0  0
  4  1  1  0  0  0  0
  5 10  1  0  0  0  0
  6 11  2  0  0  0  0
  7  3  1  0  0  0  0
  8 18  1  0  0  0  0
  9  3  2  0  0  0  0
  9  6  1  0  0  0  0
 10  7  1  0  0  0  0
 10 23  1  0  0  0  0
 11 16  1  0  0  0  0
 12  8  1  0  0  0  0
 12  4  1  0  0  0  0
 13  9  1  0  0  0  0
 17 13  1  0  0  0  0
 17  2  1  0  0  0  0
 18 19  1  0  0  0  0
 19  5  1  6  0  0  0
 20 15  1  0  0  0  0
 20 16  2  0  0  0  0
 21 13  1  0  0  0  0
 21  7  2  0  0  0  0
 22  6  1  0  0  0  0
 23 30  1  6  0  0  0
 23 28  1  0  0  0  0
 24  2  1  0  0  0  0
 25 18  1  6  0  0  0
 25 27  1  0  0  0  0
 25 19  1  0  0  0  0
 26  8  2  0  0  0  0
 27  1  1  1  0  0  0
 27 21  1  0  0  0  0
 28 15  1  0  0  0  0
 29 30  1  0  0  0  0
 30 31  2  0  0  0  0
 33 34  2  0  0  0  0
 34 31  1  0  0  0  0
 34 32  1  0  0  0  0
 35 29  2  0  0  0  0
 35 33  1  0  0  0  0
 36 37  1  0  0  0  0
M  END
>  <MODEL>
1

>  <REMARK>
 VINA RESULT:      -8.9      0.000      0.000
  Name = 
  2 active torsions:
  status: ('A' for Active; 'I' for Inactive)
    1  A    between atoms: C_4  and  C_37
    2  A    between atoms: C_23  and  C_30
                            x       y       z     vdW  Elec       q    Type
                         _______ _______ _______ _____ _____    ______ ____

>  <TORSDO>
F 2

$$$$
=
 OpenBabel11112417223D

 37 44  0  0  1  0  0  0  0  0999 V2000
  191.0620  172.4740  142.0090 C   0  0  0  0  0  2  0  0  0  0  0  0
  195.1340  173.2380  144.1660 C   0  0  0  0  0  0  0  0  0  0  0  0
  191.9520  175.7290  145.2090 C   0  0  0  0  0  0  0  0  0  0  0  0
  191.0020  171.7690  140.6300 C   0  0  1  0  0  3  0  0  0  0  0  0
  188.7470  175.7520  142.9830 C   0  0  0  0  0  2  0  0  0  0  0  0
  194.2540  175.1140  145.6350 C   0  0  0  0  0  0  0  0  0  0  0  0
  191.0230  175.4540  144.2010 C   0  0  0  0  0  0  0  0  0  0  0  0
  188.7220  172.8540  140.1460 C   0  0  0  0  0  0  0  0  0  0  0  0
  193.1000  175.0680  144.8740 C   0  0  0  0  0  0  0  0  0  0  0  0
  189.6430  175.9690  144.1450 N   0  0  0  0  0  0  0  0  0  0  0  0
  194.2390  175.8960  146.8010 C   0  0  0  0  0  3  0  0  0  0  0  0
  189.9610  172.2380  139.5810 C   0  0  0  0  0  2  0  0  0  0  0  0
  192.9730  174.3720  143.7440 N   0  0  0  0  0  0  0  0  0  0  0  0
  194.6240  172.0440  144.9550 C   0  0  0  0  0  1  0  0  0  0  0  0
  190.6510  177.2050  146.8210 C   0  0  0  0  0  2  0  0  0  0  0  0
  193.0610  176.5860  147.1700 C   0  0  0  0  0  3  0  0  0  0  0  0
  194.0770  173.6460  143.1150 C   0  0  0  0  0  2  0  0  0  0  0  0
  188.8910  173.9440  141.0270 N   0  0  0  0  0  0  0  0  0  0  0  0
  188.9950  174.3710  142.4710 C   0  0  1  0  0  3  0  0  0  0  0  0
  191.9010  176.5180  146.3690 C   0  0  0  0  0  0  0  0  0  0  0  0
  191.7180  174.5900  143.2860 C   0  0  0  0  0  0  0  0  0  0  0  0
  195.4780  174.3930  145.1390 C   0  0  0  0  0  2  0  0  0  0  0  0
  189.1040  176.6290  145.3470 C   0  0  1  0  0  3  0  0  0  0  0  0
  196.3970  172.8240  143.4430 C   0  0  0  0  0  1  0  0  0  0  0  0
  189.9720  174.7620  141.5890 C   0  0  1  0  0  3  0  0  0  0  0  0
  187.5770  172.4170  139.8640 O   0  0  0  0  0  0  0  0  0  0  0  0
  191.2290  174.0120  141.9670 C   0  0  2  0  0  3  0  0  0  0  0  0
  189.9310  177.6930  145.7270 O   0  0  0  0  0  0  0  0  0  0  0  0
  186.6850  176.5030  145.9940 C   0  0  0  0  0  3  0  0  0  0  0  0
  187.6810  177.0980  145.2110 C   0  0  0  0  0  0  0  0  0  0  0  0
  187.3350  178.0980  144.2900 C   0  0  0  0  0  3  0  0  0  0  0  0
  185.6730  179.4700  143.2730 F   0  0  0  0  0  0  0  0  0  0  0  0
  185.0130  177.9100  144.9500 C   0  0  0  0  0  3  0  0  0  0  0  0
  186.0040  178.5030  144.1620 C   0  0  0  0  0  0  0  0  0  0  0  0
  185.3540  176.9100  145.8660 C   0  0  0  0  0  3  0  0  0  0  0  0
  192.4320  172.5810  138.8940 O   0  0  0  0  0  1  0  0  0  0  0  0
  192.3790  171.7140  139.9870 C   0  0  0  0  0  2  0  0  0  0  0  0
  2 14  1  0  0  0  0
  2 22  1  0  0  0  0
  3 20  1  0  0  0  0
  4 37  1  6  0  0  0
  4  1  1  0  0  0  0
  5 10  1  0  0  0  0
  6 11  2  0  0  0  0
  7  3  1  0  0  0  0
  8 18  1  0  0  0  0
  9  3  2  0  0  0  0
  9  6  1  0  0  0  0
 10  7  1  0  0  0  0
 10 23  1  0  0  0  0
 11 16  1  0  0  0  0
 12  8  1  0  0  0  0
 12  4  1  0  0  0  0
 13  9  1  0  0  0  0
 17 13  1  0  0  0  0
 17  2  1  0  0  0  0
 18 19  1  0  0  0  0
 19  5  1  6  0  0  0
 20 15  1  0  0  0  0
 20 16  2  0  0  0  0
 21 13  1  0  0  0  0
 21  7  2  0  0  0  0
 22  6  1  0  0  0  0
 23 30  1  6  0  0  0
 23 28  1  0  0  0  0
 24  2  1  0  0  0  0
 25 18  1  6  0  0  0
 25 27  1  0  0  0  0
 25 19  1  0  0  0  0
 26  8  2  0  0  0  0
 27  1  1  1  0  0  0
 27 21  1  0  0  0  0
 28 15  1  0  0  0  0
 30 29  2  0  0  0  0
 31 30  1  0  0  0  0
 32 34  1  0  0  0  0
 33 35  2  0  0  0  0
 34 31  2  0  0  0  0
 34 33  1  0  0  0  0
 35 29  1  0  0  0  0
 36 37  1  0  0  0  0
M  END
>  <MODEL>
2

>  <REMARK>
 VINA RESULT:      -8.8      0.825      1.147
  Name = 
  2 active torsions:
  status: ('A' for Active; 'I' for Inactive)
    1  A    between atoms: C_4  and  C_37
    2  A    between atoms: C_23  and  C_30
                            x       y       z     vdW  Elec       q    Type
                         _______ _______ _______ _____ _____    ______ ____

>  <TORSDO>
F 2

$$$$
=
 OpenBabel11112417223D

 37 44  0  0  1  0  0  0  0  0999 V2000
  193.8890  175.6450  143.6020 C   0  0  0  0  0  2  0  0  0  0  0  0
  193.4340  173.0780  139.7270 C   0  0  0  0  0  0  0  0  0  0  0  0
  189.9190  174.5050  141.4660 C   0  0  0  0  0  0  0  0  0  0  0  0
  195.1410  175.5200  144.5080 C   0  0  1  0  0  3  0  0  0  0  0  0
  190.0460  175.9780  145.0770 C   0  0  0  0  0  2  0  0  0  0  0  0
  190.9070  173.3020  139.6120 C   0  0  0  0  0  0  0  0  0  0  0  0
  190.3670  174.9390  142.7170 C   0  0  0  0  0  0  0  0  0  0  0  0
  193.8110  176.4300  146.5130 C   0  0  0  0  0  0  0  0  0  0  0  0
  190.9760  173.8780  140.8680 C   0  0  0  0  0  0  0  0  0  0  0  0
  189.5560  175.6600  143.7140 N   0  0  0  0  0  0  0  0  0  0  0  0
  189.6790  173.3560  138.9330 C   0  0  0  0  0  3  0  0  0  0  0  0
  194.9790  175.6190  146.0470 C   0  0  0  0  0  2  0  0  0  0  0  0
  192.0720  173.8970  141.6260 N   0  0  0  0  0  0  0  0  0  0  0  0
  193.8310  174.4150  139.1260 C   0  0  0  0  0  1  0  0  0  0  0  0
  187.5090  175.3140  141.3910 C   0  0  0  0  0  2  0  0  0  0  0  0
  188.5730  174.0030  139.5310 C   0  0  0  0  0  3  0  0  0  0  0  0
  193.3170  173.2200  141.2620 C   0  0  0  0  0  2  0  0  0  0  0  0
  192.5400  176.0670  146.0190 N   0  0  0  0  0  0  0  0  0  0  0  0
  191.4920  176.3360  144.9660 C   0  0  1  0  0  3  0  0  0  0  0  0
  188.6770  174.5790  140.8140 C   0  0  0  0  0  0  0  0  0  0  0  0
  191.7430  174.5260  142.7780 C   0  0  0  0  0  0  0  0  0  0  0  0
  192.1170  172.5870  139.0760 C   0  0  0  0  0  2  0  0  0  0  0  0
  188.2450  176.1840  143.2880 C   0  0  1  0  0  3  0  0  0  0  0  0
  194.5270  172.0770  139.4190 C   0  0  0  0  0  1  0  0  0  0  0  0
  191.9310  175.0490  145.1550 C   0  0  1  0  0  3  0  0  0  0  0  0
  193.9520  177.4010  147.2990 O   0  0  0  0  0  0  0  0  0  0  0  0
  192.7290  174.6730  143.9270 C   0  0  2  0  0  3  0  0  0  0  0  0
  187.4540  175.1480  142.7780 O   0  0  0  0  0  0  0  0  0  0  0  0
  187.2820  176.3150  145.5990 C   0  0  0  0  0  3  0  0  0  0  0  0
  187.4980  176.9290  144.3600 C   0  0  0  0  0  0  0  0  0  0  0  0
  186.9900  178.2150  144.1240 C   0  0  0  0  0  3  0  0  0  0  0  0
  185.7900  180.1250  144.8960 F   0  0  0  0  0  0  0  0  0  0  0  0
  186.0690  178.2670  146.3630 C   0  0  0  0  0  3  0  0  0  0  0  0
  186.2790  178.8820  145.1260 C   0  0  0  0  0  0  0  0  0  0  0  0
  186.5710  176.9830  146.5990 C   0  0  0  0  0  3  0  0  0  0  0  0
  197.2670  174.4280  144.5620 O   0  0  0  0  0  1  0  0  0  0  0  0
  195.9390  174.2730  144.1630 C   0  0  0  0  0  2  0  0  0  0  0  0
  1  4  1  0  0  0  0
  2 17  1  0  0  0  0
  3  7  1  0  0  0  0
  4 37  1  1  0  0  0
  4 12  1  0  0  0  0
  6  9  2  0  0  0  0
  7 21  2  0  0  0  0
  7 10  1  0  0  0  0
  8 26  2  0  0  0  0
  9  3  1  0  0  0  0
  9 13  1  0  0  0  0
 10  5  1  0  0  0  0
 11 16  2  0  0  0  0
 11  6  1  0  0  0  0
 12  8  1  0  0  0  0
 13 21  1  0  0  0  0
 14  2  1  0  0  0  0
 15 28  1  0  0  0  0
 16 20  1  0  0  0  0
 17 13  1  0  0  0  0
 18  8  1  0  0  0  0
 19  5  1  1  0  0  0
 19 25  1  0  0  0  0
 19 18  1  0  0  0  0
 20 15  1  0  0  0  0
 20  3  2  0  0  0  0
 21 27  1  0  0  0  0
 22  6  1  0  0  0  0
 22  2  1  0  0  0  0
 23 10  1  0  0  0  0
 23 30  1  1  0  0  0
 24  2  1  0  0  0  0
 25 18  1  1  0  0  0
 27  1  1  6  0  0  0
 27 25  1  0  0  0  0
 28 23  1  0  0  0  0
 29 35  1  0  0  0  0
 30 29  2  0  0  0  0
 31 30  1  0  0  0  0
 31 34  2  0  0  0  0
 32 34  1  0  0  0  0
 33 35  2  0  0  0  0
 34 33  1  0  0  0  0
 37 36  1  0  0  0  0
M  END
>  <MODEL>
3

>  <REMARK>
 VINA RESULT:      -8.5      2.206      5.445
  Name = 
  2 active torsions:
  status: ('A' for Active; 'I' for Inactive)
    1  A    between atoms: C_4  and  C_37
    2  A    between atoms: C_23  and  C_30
                            x       y       z     vdW  Elec       q    Type
                         _______ _______ _______ _____ _____    ______ ____

>  <TORSDO>
F 2

$$$$
=
 OpenBabel11112417223D

 37 44  0  0  1  0  0  0  0  0999 V2000
  192.7080  175.7800  144.6370 C   0  0  0  0  0  2  0  0  0  0  0  0
  192.9490  173.2390  140.7260 C   0  0  0  0  0  0  0  0  0  0  0  0
  189.2460  174.9260  141.6530 C   0  0  0  0  0  0  0  0  0  0  0  0
  193.7130  175.5670  145.7980 C   0  0  1  0  0  3  0  0  0  0  0  0
  188.6670  176.4000  145.2190 C   0  0  0  0  0  2  0  0  0  0  0  0
  190.5350  173.6480  140.0510 C   0  0  0  0  0  0  0  0  0  0  0  0
  189.4330  175.3310  142.9780 C   0  0  0  0  0  0  0  0  0  0  0  0
  192.0380  176.5790  147.4660 C   0  0  0  0  0  0  0  0  0  0  0  0
  190.3620  174.2210  141.2980 C   0  0  0  0  0  0  0  0  0  0  0  0
  188.4740  176.1140  143.7760 N   0  0  0  0  0  0  0  0  0  0  0  0
  189.4980  173.7880  139.1150 C   0  0  0  0  0  3  0  0  0  0  0  0
  193.2180  175.6830  147.2630 C   0  0  0  0  0  2  0  0  0  0  0  0
  191.2590  174.1630  142.2830 N   0  0  0  0  0  0  0  0  0  0  0  0
  193.5660  174.5410  140.2460 C   0  0  0  0  0  1  0  0  0  0  0  0
  186.9790  175.9100  141.0500 C   0  0  0  0  0  2  0  0  0  0  0  0
  188.3350  174.5170  139.4590 C   0  0  0  0  0  3  0  0  0  0  0  0
  192.5020  173.3950  142.1970 C   0  0  0  0  0  2  0  0  0  0  0  0
  190.8860  176.3090  146.6960 N   0  0  0  0  0  0  0  0  0  0  0  0
  190.1230  176.6500  145.4390 C   0  0  1  0  0  3  0  0  0  0  0  0
  188.1910  175.0890  140.7410 C   0  0  0  0  0  0  0  0  0  0  0  0
  190.7270  174.8180  143.3400 C   0  0  0  0  0  0  0  0  0  0  0  0
  191.7790  172.8430  139.7900 C   0  0  0  0  0  2  0  0  0  0  0  0
  187.3330  176.7300  143.0760 C   0  0  1  0  0  3  0  0  0  0  0  0
  194.0080  172.1590  140.6570 C   0  0  0  0  0  1  0  0  0  0  0  0
  190.4140  175.3350  145.7050 C   0  0  1  0  0  3  0  0  0  0  0  0
  192.0680  177.5410  148.2760 O   0  0  0  0  0  0  0  0  0  0  0  0
  191.4380  174.8970  144.6810 C   0  0  2  0  0  3  0  0  0  0  0  0
  186.6030  175.7530  142.3880 O   0  0  0  0  0  0  0  0  0  0  0  0
  186.3160  178.9140  143.7670 C   0  0  0  0  0  3  0  0  0  0  0  0
  186.4210  177.5320  143.9620 C   0  0  0  0  0  0  0  0  0  0  0  0
  185.7010  176.9220  145.0000 C   0  0  0  0  0  3  0  0  0  0  0  0
  184.1810  177.0960  146.8280 F   0  0  0  0  0  0  0  0  0  0  0  0
  184.7710  179.0680  145.6250 C   0  0  0  0  0  3  0  0  0  0  0  0
  184.8760  177.6890  145.8270 C   0  0  0  0  0  0  0  0  0  0  0  0
  185.4910  179.6810  144.5940 C   0  0  0  0  0  3  0  0  0  0  0  0
  195.8460  174.4880  145.7650 O   0  0  0  0  0  1  0  0  0  0  0  0
  194.4760  174.2640  145.6240 C   0  0  0  0  0  2  0  0  0  0  0  0
  1  4  1  0  0  0  0
  2 17  1  0  0  0  0
  3  7  1  0  0  0  0
  4 37  1  1  0  0  0
  4 12  1  0  0  0  0
  6  9  2  0  0  0  0
  7 21  2  0  0  0  0
  7 10  1  0  0  0  0
  8 26  2  0  0  0  0
  9  3  1  0  0  0  0
  9 13  1  0  0  0  0
 10  5  1  0  0  0  0
 11 16  2  0  0  0  0
 11  6  1  0  0  0  0
 12  8  1  0  0  0  0
 13 21  1  0  0  0  0
 14  2  1  0  0  0  0
 15 28  1  0  0  0  0
 16 20  1  0  0  0  0
 17 13  1  0  0  0  0
 18  8  1  0  0  0  0
 19  5  1  1  0  0  0
 19 25  1  0  0  0  0
 19 18  1  0  0  0  0
 20 15  1  0  0  0  0
 20  3  2  0  0  0  0
 21 27  1  0  0  0  0
 22  6  1  0  0  0  0
 22  2  1  0  0  0  0
 23 10  1  0  0  0  0
 23 30  1  1  0  0  0
 24  2  1  0  0  0  0
 25 18  1  1  0  0  0
 27  1  1  6  0  0  0
 27 25  1  0  0  0  0
 28 23  1  0  0  0  0
 29 30  2  0  0  0  0
 29 35  1  0  0  0  0
 30 31  1  0  0  0  0
 31 34  2  0  0  0  0
 33 34  1  0  0  0  0
 34 32  1  0  0  0  0
 35 33  2  0  0  0  0
 37 36  1  0  0  0  0
M  END
>  <MODEL>
4

>  <REMARK>
 VINA RESULT:      -8.3      2.134      5.401
  Name = 
  2 active torsions:
  status: ('A' for Active; 'I' for Inactive)
    1  A    between atoms: C_4  and  C_37
    2  A    between atoms: C_23  and  C_30
                            x       y       z     vdW  Elec       q    Type
                         _______ _______ _______ _____ _____    ______ ____

>  <TORSDO>
F 2

$$$$
=
 OpenBabel11112417223D

 37 44  0  0  1  0  0  0  0  0999 V2000
  190.1460  174.5350  140.6770 C   0  0  0  0  0  2  0  0  0  0  0  0
  187.0820  177.0010  143.1950 C   0  0  0  0  0  0  0  0  0  0  0  0
  190.5300  175.7110  145.1590 C   0  0  0  0  0  0  0  0  0  0  0  0
  189.7050  173.7580  139.4100 C   0  0  1  0  0  3  0  0  0  0  0  0
  192.7900  173.0200  143.4630 C   0  0  0  0  0  2  0  0  0  0  0  0
  188.4850  176.9970  145.3120 C   0  0  0  0  0  0  0  0  0  0  0  0
  191.0510  174.7800  144.2550 C   0  0  0  0  0  0  0  0  0  0  0  0
  191.7310  172.1900  139.6380 C   0  0  0  0  0  0  0  0  0  0  0  0
  189.3100  176.0880  144.6730 C   0  0  0  0  0  0  0  0  0  0  0  0
  192.3500  174.0970  144.3830 N   0  0  0  0  0  0  0  0  0  0  0  0
  188.9270  177.5410  146.5290 C   0  0  0  0  0  3  0  0  0  0  0  0
  190.3480  172.3810  139.1010 C   0  0  0  0  0  2  0  0  0  0  0  0
  189.0170  175.4910  143.5180 N   0  0  0  0  0  0  0  0  0  0  0  0
  187.7770  178.1190  142.4370 C   0  0  0  0  0  1  0  0  0  0  0  0
  192.3610  175.9140  146.9130 C   0  0  0  0  0  2  0  0  0  0  0  0
  190.1880  177.1680  147.0480 C   0  0  0  0  0  3  0  0  0  0  0  0
  187.7360  175.6500  142.8290 C   0  0  0  0  0  2  0  0  0  0  0  0
  191.9150  172.3940  141.0220 N   0  0  0  0  0  0  0  0  0  0  0  0
  192.3250  173.3790  142.0900 C   0  0  1  0  0  3  0  0  0  0  0  0
  191.0040  176.2370  146.3720 C   0  0  0  0  0  0  0  0  0  0  0  0
  190.0500  174.6670  143.2280 C   0  0  0  0  0  0  0  0  0  0  0  0
  187.1360  177.2940  144.7150 C   0  0  0  0  0  2  0  0  0  0  0  0
  193.2920  174.5910  145.4020 C   0  0  1  0  0  3  0  0  0  0  0  0
  185.6310  176.9670  142.7620 C   0  0  0  0  0  1  0  0  0  0  0  0
  191.1250  172.7240  142.2130 C   0  0  1  0  0  3  0  0  0  0  0  0
  192.6930  171.8750  138.8920 O   0  0  0  0  0  0  0  0  0  0  0  0
  190.0390  173.7570  142.0100 C   0  0  2  0  0  3  0  0  0  0  0  0
  192.6880  174.5780  146.6650 O   0  0  0  0  0  0  0  0  0  0  0  0
  195.7840  174.5400  145.1400 C   0  0  0  0  0  3  0  0  0  0  0  0
  194.6030  173.8550  145.4440 C   0  0  0  0  0  0  0  0  0  0  0  0
  194.6530  172.4870  145.7510 C   0  0  0  0  0  3  0  0  0  0  0  0
  195.9250  170.4950  146.0610 F   0  0  0  0  0  0  0  0  0  0  0  0
  197.0570  172.5060  145.4630 C   0  0  0  0  0  3  0  0  0  0  0  0
  195.8790  171.8160  145.7630 C   0  0  0  0  0  0  0  0  0  0  0  0
  197.0100  173.8680  145.1520 C   0  0  0  0  0  3  0  0  0  0  0  0
  187.8180  172.2910  139.3880 O   0  0  0  0  0  1  0  0  0  0  0  0
  188.1920  173.6350  139.3460 C   0  0  0  0  0  2  0  0  0  0  0  0
  2 22  1  0  0  0  0
  3 20  1  0  0  0  0
  4 37  1  1  0  0  0
  4  1  1  0  0  0  0
  5 10  1  0  0  0  0
  6 11  2  0  0  0  0
  7 10  1  0  0  0  0
  7  3  1  0  0  0  0
  8 18  1  0  0  0  0
  9  3  2  0  0  0  0
  9  6  1  0  0  0  0
 10 23  1  0  0  0  0
 11 16  1  0  0  0  0
 12  4  1  0  0  0  0
 12  8  1  0  0  0  0
 13  9  1  0  0  0  0
 14  2  1  0  0  0  0
 17  2  1  0  0  0  0
 17 13  1  0  0  0  0
 18 19  1  0  0  0  0
 19 25  1  0  0  0  0
 19  5  1  1  0  0  0
 20 15  1  0  0  0  0
 20 16  2  0  0  0  0
 21 13  1  0  0  0  0
 21  7  2  0  0  0  0
 22  6  1  0  0  0  0
 23 30  1  1  0  0  0
 23 28  1  0  0  0  0
 24  2  1  0  0  0  0
 25 18  1  6  0  0  0
 26  8  2  0  0  0  0
 27  1  1  6  0  0  0
 27 25  1  0  0  0  0
 27 21  1  0  0  0  0
 28 15  1  0  0  0  0
 29 35  2  0  0  0  0
 29 30  1  0  0  0  0
 30 31  2  0  0  0  0
 31 34  1  0  0  0  0
 33 34  2  0  0  0  0
 34 32  1  0  0  0  0
 35 33  1  0  0  0  0
 37 36  1  0  0  0  0
M  END
>  <MODEL>
5

>  <REMARK>
 VINA RESULT:      -8.3      2.567      6.534
  Name = 
  2 active torsions:
  status: ('A' for Active; 'I' for Inactive)
    1  A    between atoms: C_4  and  C_37
    2  A    between atoms: C_23  and  C_30
                            x       y       z     vdW  Elec       q    Type
                         _______ _______ _______ _____ _____    ______ ____

>  <TORSDO>
F 2

$$$$
=
 OpenBabel11112417223D

 37 44  0  0  1  0  0  0  0  0999 V2000
  189.7340  175.1490  146.2050 C   0  0  0  0  0  2  0  0  0  0  0  0
  186.6760  178.4710  147.3970 C   0  0  0  0  0  0  0  0  0  0  0  0
  186.7740  177.3540  143.3770 C   0  0  0  0  0  0  0  0  0  0  0  0
  190.9990  174.8750  147.0590 C   0  0  1  0  0  3  0  0  0  0  0  0
  189.7530  175.1960  142.0760 C   0  0  0  0  0  2  0  0  0  0  0  0
  185.6960  178.7110  145.0660 C   0  0  0  0  0  0  0  0  0  0  0  0
  187.9560  176.6100  143.3090 C   0  0  0  0  0  0  0  0  0  0  0  0
  192.1760  173.8290  145.0260 C   0  0  0  0  0  0  0  0  0  0  0  0
  186.7240  177.8950  144.6310 C   0  0  0  0  0  0  0  0  0  0  0  0
  188.4260  175.8560  142.1340 N   0  0  0  0  0  0  0  0  0  0  0  0
  184.6640  179.0050  144.1610 C   0  0  0  0  0  3  0  0  0  0  0  0
  192.3280  174.5030  146.3520 C   0  0  0  0  0  2  0  0  0  0  0  0
  187.7680  177.5390  145.3790 N   0  0  0  0  0  0  0  0  0  0  0  0
  185.9280  177.2310  147.8560 C   0  0  0  0  0  1  0  0  0  0  0  0
  185.7250  177.0020  141.0870 C   0  0  0  0  0  2  0  0  0  0  0  0
  184.6920  178.4530  142.8590 C   0  0  0  0  0  3  0  0  0  0  0  0
  188.0050  178.0500  146.7300 C   0  0  0  0  0  2  0  0  0  0  0  0
  191.4010  174.4950  144.0530 N   0  0  0  0  0  0  0  0  0  0  0  0
  190.0340  174.6240  143.4270 C   0  0  1  0  0  3  0  0  0  0  0  0
  185.7580  177.6250  142.4470 C   0  0  0  0  0  0  0  0  0  0  0  0
  188.5600  176.7600  144.6060 C   0  0  0  0  0  0  0  0  0  0  0  0
  185.7740  179.3000  146.4490 C   0  0  0  0  0  2  0  0  0  0  0  0
  187.4840  175.6610  141.0170 C   0  0  1  0  0  3  0  0  0  0  0  0
  186.9940  179.3100  148.6160 C   0  0  0  0  0  1  0  0  0  0  0  0
  190.6640  175.7530  143.8870 C   0  0  1  0  0  3  0  0  0  0  0  0
  192.7020  172.7120  144.7870 O   0  0  0  0  0  0  0  0  0  0  0  0
  189.8930  176.2220  145.1010 C   0  0  2  0  0  3  0  0  0  0  0  0
  187.0150  176.8970  140.5590 O   0  0  0  0  0  0  0  0  0  0  0  0
  187.8140  175.2890  138.5610 C   0  0  0  0  0  3  0  0  0  0  0  0
  188.0380  174.8570  139.8730 C   0  0  0  0  0  0  0  0  0  0  0  0
  188.7460  173.6680  140.1010 C   0  0  0  0  0  3  0  0  0  0  0  0
  189.9170  171.7770  139.2460 F   0  0  0  0  0  0  0  0  0  0  0  0
  189.0100  173.3620  137.7130 C   0  0  0  0  0  3  0  0  0  0  0  0
  189.2330  172.9240  139.0220 C   0  0  0  0  0  0  0  0  0  0  0  0
  188.3010  174.5450  137.4830 C   0  0  0  0  0  3  0  0  0  0  0  0
  192.3370  176.7740  147.6220 O   0  0  0  0  0  1  0  0  0  0  0  0
  191.2480  176.0090  148.0400 C   0  0  0  0  0  2  0  0  0  0  0  0
  1  4  1  0  0  0  0
  2 14  1  0  0  0  0
  2 24  1  0  0  0  0
  3  9  1  0  0  0  0
  4 37  1  6  0  0  0
  5 10  1  0  0  0  0
  6 22  1  0  0  0  0
  7  3  1  0  0  0  0
  7 21  2  0  0  0  0
  8 12  1  0  0  0  0
  9  6  2  0  0  0  0
  9 13  1  0  0  0  0
 10  7  1  0  0  0  0
 11  6  1  0  0  0  0
 12  4  1  0  0  0  0
 13 17  1  0  0  0  0
 15 20  1  0  0  0  0
 16 11  2  0  0  0  0
 17  2  1  0  0  0  0
 18  8  1  0  0  0  0
 19  5  1  6  0  0  0
 19 25  1  0  0  0  0
 19 18  1  0  0  0  0
 20 16  1  0  0  0  0
 20  3  2  0  0  0  0
 21 27  1  0  0  0  0
 21 13  1  0  0  0  0
 22  2  1  0  0  0  0
 23 30  1  6  0  0  0
 23 10  1  0  0  0  0
 25 18  1  1  0  0  0
 25 27  1  0  0  0  0
 26  8  2  0  0  0  0
 27  1  1  1  0  0  0
 28 23  1  0  0  0  0
 28 15  1  0  0  0  0
 29 30  1  0  0  0  0
 30 31  2  0  0  0  0
 33 34  2  0  0  0  0
 34 32  1  0  0  0  0
 34 31  1  0  0  0  0
 35 33  1  0  0  0  0
 35 29  2  0  0  0  0
 36 37  1  0  0  0  0
M  END
>  <MODEL>
6

>  <REMARK>
 VINA RESULT:      -8.3      3.029      7.620
  Name = 
  2 active torsions:
  status: ('A' for Active; 'I' for Inactive)
    1  A    between atoms: C_4  and  C_37
    2  A    between atoms: C_23  and  C_30
                            x       y       z     vdW  Elec       q    Type
                         _______ _______ _______ _____ _____    ______ ____

>  <TORSDO>
F 2

$$$$
=
 OpenBabel11112417223D

 37 44  0  0  1  0  0  0  0  0999 V2000
  189.7050  174.9060  141.5980 C   0  0  0  0  0  2  0  0  0  0  0  0
  189.6330  176.2020  146.0850 C   0  0  0  0  0  0  0  0  0  0  0  0
  193.3810  175.5320  144.3750 C   0  0  0  0  0  0  0  0  0  0  0  0
  188.4800  174.2210  140.9390 C   0  0  1  0  0  3  0  0  0  0  0  0
  193.6020  173.7170  140.9290 C   0  0  0  0  0  2  0  0  0  0  0  0
  192.1600  176.2540  146.3370 C   0  0  0  0  0  0  0  0  0  0  0  0
  193.0470  174.8830  143.1830 C   0  0  0  0  0  0  0  0  0  0  0  0
  189.9990  173.1730  139.1480 C   0  0  0  0  0  0  0  0  0  0  0  0
  192.2220  175.6650  145.0870 C   0  0  0  0  0  0  0  0  0  0  0  0
  193.9910  174.5230  142.1110 N   0  0  0  0  0  0  0  0  0  0  0  0
  193.3580  176.7210  146.9010 C   0  0  0  0  0  3  0  0  0  0  0  0
  188.7080  173.0950  139.8990 C   0  0  0  0  0  2  0  0  0  0  0  0
  191.1680  175.1740  144.4350 N   0  0  0  0  0  0  0  0  0  0  0  0
  189.4220  177.5450  145.4070 C   0  0  0  0  0  1  0  0  0  0  0  0
  195.8810  175.9360  144.1450 C   0  0  0  0  0  2  0  0  0  0  0  0
  194.5690  176.5980  146.1820 C   0  0  0  0  0  3  0  0  0  0  0  0
  189.8230  175.1090  145.0080 C   0  0  0  0  0  2  0  0  0  0  0  0
  191.1840  173.2290  139.9140 N   0  0  0  0  0  0  0  0  0  0  0  0
  192.2240  174.1330  140.5310 C   0  0  1  0  0  3  0  0  0  0  0  0
  194.5960  175.9900  144.9090 C   0  0  0  0  0  0  0  0  0  0  0  0
  191.6270  174.6700  143.2660 C   0  0  0  0  0  0  0  0  0  0  0  0
  190.8380  176.2940  147.0540 C   0  0  0  0  0  2  0  0  0  0  0  0
  195.3510  175.0900  142.1690 C   0  0  1  0  0  3  0  0  0  0  0  0
  188.3920  175.8760  146.8870 C   0  0  0  0  0  1  0  0  0  0  0  0
  191.6020  173.1970  141.3200 C   0  0  1  0  0  3  0  0  0  0  0  0
  190.0340  173.2010  137.8920 O   0  0  0  0  0  0  0  0  0  0  0  0
  190.7150  173.9540  142.2820 C   0  0  2  0  0  3  0  0  0  0  0  0
  195.9580  174.7630  143.3880 O   0  0  0  0  0  0  0  0  0  0  0  0
  197.0910  173.5930  141.1640 C   0  0  0  0  0  3  0  0  0  0  0  0
  196.2380  174.6930  141.0220 C   0  0  0  0  0  0  0  0  0  0  0  0
  196.2450  175.4270  139.8260 C   0  0  0  0  0  3  0  0  0  0  0  0
  197.0980  175.7650  137.6270 F   0  0  0  0  0  0  0  0  0  0  0  0
  197.9410  173.9520  138.9250 C   0  0  0  0  0  3  0  0  0  0  0  0
  197.0940  175.0550  138.7800 C   0  0  0  0  0  0  0  0  0  0  0  0
  197.9390  173.2210  140.1170 C   0  0  0  0  0  3  0  0  0  0  0  0
  187.4530  172.3510  142.0180 O   0  0  0  0  0  1  0  0  0  0  0  0
  187.4910  173.7460  141.9910 C   0  0  0  0  0  2  0  0  0  0  0  0
  2 24  1  0  0  0  0
  2 22  1  0  0  0  0
  3 20  2  0  0  0  0
  3  9  1  0  0  0  0
  4  1  1  0  0  0  0
  4 37  1  1  0  0  0
  5 10  1  0  0  0  0
  6 11  1  0  0  0  0
  6 22  1  0  0  0  0
  7 21  2  0  0  0  0
  7  3  1  0  0  0  0
  8 12  1  0  0  0  0
  8 18  1  0  0  0  0
  9  6  2  0  0  0  0
 10 23  1  0  0  0  0
 10  7  1  0  0  0  0
 12  4  1  0  0  0  0
 13 17  1  0  0  0  0
 13  9  1  0  0  0  0
 14  2  1  0  0  0  0
 15 20  1  0  0  0  0
 16 11  2  0  0  0  0
 17  2  1  0  0  0  0
 18 19  1  0  0  0  0
 19  5  1  6  0  0  0
 19 25  1  0  0  0  0
 20 16  1  0  0  0  0
 21 13  1  0  0  0  0
 23 30  1  6  0  0  0
 23 28  1  0  0  0  0
 25 18  1  6  0  0  0
 25 27  1  0  0  0  0
 26  8  2  0  0  0  0
 27  1  1  6  0  0  0
 27 21  1  0  0  0  0
 28 15  1  0  0  0  0
 30 29  1  0  0  0  0
 31 30  2  0  0  0  0
 32 34  1  0  0  0  0
 33 35  1  0  0  0  0
 34 33  2  0  0  0  0
 34 31  1  0  0  0  0
 35 29  2  0  0  0  0
 37 36  1  0  0  0  0
M  END
>  <MODEL>
7

>  <REMARK>
 VINA RESULT:      -8.2      3.371      6.874
  Name = 
  2 active torsions:
  status: ('A' for Active; 'I' for Inactive)
    1  A    between atoms: C_4  and  C_37
    2  A    between atoms: C_23  and  C_30
                            x       y       z     vdW  Elec       q    Type
                         _______ _______ _______ _____ _____    ______ ____

>  <TORSDO>
F 2

$$$$
=
 OpenBabel11112417223D

 37 44  0  0  1  0  0  0  0  0999 V2000
  188.7670  177.1030  143.4460 C   0  0  0  0  0  2  0  0  0  0  0  0
  191.8600  175.6010  146.6060 C   0  0  0  0  0  0  0  0  0  0  0  0
  191.6900  173.5160  142.9950 C   0  0  0  0  0  0  0  0  0  0  0  0
  187.5150  177.9160  143.8680 C   0  0  1  0  0  3  0  0  0  0  0  0
  188.6790  174.1240  140.5880 C   0  0  0  0  0  2  0  0  0  0  0  0
  192.8030  173.7610  145.1300 C   0  0  0  0  0  0  0  0  0  0  0  0
  190.5040  173.9980  142.4340 C   0  0  0  0  0  0  0  0  0  0  0  0
  186.3000  177.2070  141.7150 C   0  0  0  0  0  0  0  0  0  0  0  0
  191.7630  174.0300  144.2590 C   0  0  0  0  0  0  0  0  0  0  0  0
  190.0100  173.6910  141.0800 N   0  0  0  0  0  0  0  0  0  0  0  0
  193.8210  172.9000  144.6910 C   0  0  0  0  0  3  0  0  0  0  0  0
  186.1730  177.6830  143.1270 C   0  0  0  0  0  2  0  0  0  0  0  0
  190.7300  174.8230  144.5440 N   0  0  0  0  0  0  0  0  0  0  0  0
  192.6100  176.7910  146.0310 C   0  0  0  0  0  1  0  0  0  0  0  0
  192.6990  172.1180  141.1250 C   0  0  0  0  0  2  0  0  0  0  0  0
  193.7680  172.3580  143.3850 C   0  0  0  0  0  3  0  0  0  0  0  0
  190.5180  175.4310  145.8580 C   0  0  0  0  0  2  0  0  0  0  0  0
  187.0610  176.0390  141.4970 N   0  0  0  0  0  0  0  0  0  0  0  0
  188.4190  175.4910  141.1300 C   0  0  1  0  0  3  0  0  0  0  0  0
  192.6920  172.6530  142.5220 C   0  0  0  0  0  0  0  0  0  0  0  0
  189.9220  174.8230  143.4590 C   0  0  0  0  0  0  0  0  0  0  0  0
  192.7500  174.3360  146.5200 C   0  0  0  0  0  2  0  0  0  0  0  0
  190.9320  173.0230  140.1450 C   0  0  1  0  0  3  0  0  0  0  0  0
  191.5660  175.8860  148.0630 C   0  0  0  0  0  1  0  0  0  0  0  0
  187.8010  175.0340  142.2680 C   0  0  1  0  0  3  0  0  0  0  0  0
  185.7650  177.8240  140.7580 O   0  0  0  0  0  0  0  0  0  0  0  0
  188.5950  175.5650  143.4410 C   0  0  2  0  0  3  0  0  0  0  0  0
  191.4000  171.8260  140.7000 O   0  0  0  0  0  0  0  0  0  0  0  0
  189.8790  171.4970  138.4580 C   0  0  0  0  0  3  0  0  0  0  0  0
  190.3560  172.7730  138.7780 C   0  0  0  0  0  0  0  0  0  0  0  0
  190.3190  173.7900  137.8130 C   0  0  0  0  0  3  0  0  0  0  0  0
  189.7650  174.5160  135.6110 F   0  0  0  0  0  0  0  0  0  0  0  0
  189.3210  172.2570  136.2270 C   0  0  0  0  0  3  0  0  0  0  0  0
  189.8000  173.5320  136.5410 C   0  0  0  0  0  0  0  0  0  0  0  0
  189.3600  171.2390  137.1860 C   0  0  0  0  0  3  0  0  0  0  0  0
  186.2010  176.9910  145.6380 O   0  0  0  0  0  1  0  0  0  0  0  0
  187.2880  177.8230  145.3680 C   0  0  0  0  0  2  0  0  0  0  0  0
  1  4  1  0  0  0  0
  2 24  1  0  0  0  0
  3  9  1  0  0  0  0
  4 37  1  1  0  0  0
  5 10  1  0  0  0  0
  6 22  1  0  0  0  0
  7  3  1  0  0  0  0
  7 21  2  0  0  0  0
  8 12  1  0  0  0  0
  9 13  1  0  0  0  0
  9  6  2  0  0  0  0
 10  7  1  0  0  0  0
 11  6  1  0  0  0  0
 12  4  1  0  0  0  0
 13 17  1  0  0  0  0
 14  2  1  0  0  0  0
 15 20  1  0  0  0  0
 16 11  2  0  0  0  0
 17  2  1  0  0  0  0
 18  8  1  0  0  0  0
 19  5  1  6  0  0  0
 19 18  1  0  0  0  0
 19 25  1  0  0  0  0
 20  3  2  0  0  0  0
 20 16  1  0  0  0  0
 21 13  1  0  0  0  0
 22  2  1  0  0  0  0
 23 30  1  6  0  0  0
 23 28  1  0  0  0  0
 23 10  1  0  0  0  0
 25 18  1  1  0  0  0
 25 27  1  0  0  0  0
 26  8  2  0  0  0  0
 27  1  1  6  0  0  0
 27 21  1  0  0  0  0
 28 15  1  0  0  0  0
 29 30  1  0  0  0  0
 31 30  2  0  0  0  0
 32 34  1  0  0  0  0
 33 34  2  0  0  0  0
 33 35  1  0  0  0  0
 34 31  1  0  0  0  0
 35 29  2  0  0  0  0
 37 36  1  0  0  0  0
M  END
>  <MODEL>
8

>  <REMARK>
 VINA RESULT:      -8.1      2.862      6.599
  Name = 
  2 active torsions:
  status: ('A' for Active; 'I' for Inactive)
    1  A    between atoms: C_4  and  C_37
    2  A    between atoms: C_23  and  C_30
                            x       y       z     vdW  Elec       q    Type
                         _______ _______ _______ _____ _____    ______ ____

>  <TORSDO>
F 2

$$$$
=
 OpenBabel11112417223D

 37 44  0  0  1  0  0  0  0  0999 V2000
  193.3960  173.7150  144.7120 C   0  0  0  0  0  2  0  0  0  0  0  0
  190.8390  176.6210  147.3250 C   0  0  0  0  0  0  0  0  0  0  0  0
  189.3260  175.6440  143.5600 C   0  0  0  0  0  0  0  0  0  0  0  0
  194.9240  173.5650  144.9350 C   0  0  1  0  0  3  0  0  0  0  0  0
  191.6570  173.8870  140.9710 C   0  0  0  0  0  2  0  0  0  0  0  0
  188.9450  176.8160  145.6440 C   0  0  0  0  0  0  0  0  0  0  0  0
  190.4300  175.0450  142.9470 C   0  0  0  0  0  0  0  0  0  0  0  0
  195.2180  172.7240  142.5230 C   0  0  0  0  0  0  0  0  0  0  0  0
  189.7620  176.1380  144.7570 C   0  0  0  0  0  0  0  0  0  0  0  0
  190.4250  174.3870  141.6290 N   0  0  0  0  0  0  0  0  0  0  0  0
  187.6040  177.0140  145.2790 C   0  0  0  0  0  3  0  0  0  0  0  0
  195.8550  173.3710  143.7110 C   0  0  0  0  0  2  0  0  0  0  0  0
  191.0530  175.8830  144.9700 N   0  0  0  0  0  0  0  0  0  0  0  0
  190.4750  175.2890  147.9580 C   0  0  0  0  0  1  0  0  0  0  0  0
  187.4420  175.2410  141.9000 C   0  0  0  0  0  2  0  0  0  0  0  0
  187.1290  176.5080  144.0470 C   0  0  0  0  0  3  0  0  0  0  0  0
  191.7920  176.3780  146.1330 C   0  0  0  0  0  2  0  0  0  0  0  0
  194.0450  173.3250  142.0170 N   0  0  0  0  0  0  0  0  0  0  0  0
  192.5360  173.3120  142.0320 C   0  0  1  0  0  3  0  0  0  0  0  0
  187.9900  175.8230  143.1650 C   0  0  0  0  0  0  0  0  0  0  0  0
  191.5110  175.2260  143.8800 C   0  0  0  0  0  0  0  0  0  0  0  0
  189.5480  177.3680  146.9080 C   0  0  0  0  0  2  0  0  0  0  0  0
  189.1210  174.1170  140.9980 C   0  0  1  0  0  3  0  0  0  0  0  0
  191.5650  177.4550  148.3590 C   0  0  0  0  0  1  0  0  0  0  0  0
  193.1950  174.4920  142.2720 C   0  0  1  0  0  3  0  0  0  0  0  0
  195.6940  171.6830  142.0010 O   0  0  0  0  0  0  0  0  0  0  0  0
  192.9710  174.8310  143.7290 C   0  0  2  0  0  3  0  0  0  0  0  0
  188.3890  175.3040  140.8740 O   0  0  0  0  0  0  0  0  0  0  0  0
  189.0830  174.1650  138.4920 C   0  0  0  0  0  3  0  0  0  0  0  0
  189.2090  173.4180  139.6690 C   0  0  0  0  0  0  0  0  0  0  0  0
  189.3820  172.0280  139.5930 C   0  0  0  0  0  3  0  0  0  0  0  0
  189.6070  170.0530  138.2790 F   0  0  0  0  0  0  0  0  0  0  0  0
  189.3170  172.1460  137.1760 C   0  0  0  0  0  3  0  0  0  0  0  0
  189.4380  171.3950  138.3490 C   0  0  0  0  0  0  0  0  0  0  0  0
  189.1400  173.5310  137.2480 C   0  0  0  0  0  3  0  0  0  0  0  0
  196.0550  175.6690  145.0100 O   0  0  0  0  0  1  0  0  0  0  0  0
  195.4590  174.6900  145.8050 C   0  0  0  0  0  2  0  0  0  0  0  0
  1  4  1  0  0  0  0
  2 14  1  0  0  0  0
  2 24  1  0  0  0  0
  3  9  1  0  0  0  0
  4 37  1  6  0  0  0
  5 10  1  0  0  0  0
  6 22  1  0  0  0  0
  7  3  1  0  0  0  0
  7 21  2  0  0  0  0
  8 12  1  0  0  0  0
  9 13  1  0  0  0  0
  9  6  2  0  0  0  0
 10  7  1  0  0  0  0
 11  6  1  0  0  0  0
 12  4  1  0  0  0  0
 13 17  1  0  0  0  0
 15 20  1  0  0  0  0
 16 11  2  0  0  0  0
 17  2  1  0  0  0  0
 18 19  1  0  0  0  0
 18  8  1  0  0  0  0
 19  5  1  6  0  0  0
 19 25  1  0  0  0  0
 20  3  2  0  0  0  0
 20 16  1  0  0  0  0
 21 13  1  0  0  0  0
 22  2  1  0  0  0  0
 23 30  1  6  0  0  0
 23 10  1  0  0  0  0
 25 18  1  1  0  0  0
 25 27  1  0  0  0  0
 26  8  2  0  0  0  0
 27 21  1  0  0  0  0
 27  1  1  1  0  0  0
 28 23  1  0  0  0  0
 28 15  1  0  0  0  0
 29 30  1  0  0  0  0
 31 30  2  0  0  0  0
 32 34  1  0  0  0  0
 33 35  1  0  0  0  0
 33 34  2  0  0  0  0
 34 31  1  0  0  0  0
 35 29  2  0  0  0  0
 36 37  1  0  0  0  0
M  END
>  <MODEL>
9

>  <REMARK>
 VINA RESULT:      -8.1      2.694      6.426
  Name = 
  2 active torsions:
  status: ('A' for Active; 'I' for Inactive)
    1  A    between atoms: C_4  and  C_37
    2  A    between atoms: C_23  and  C_30
                            x       y       z     vdW  Elec       q    Type
                         _______ _______ _______ _____ _____    ______ ____

>  <TORSDO>
F 2

$$$$
