=
 OpenBabel11112416433D

 32 36  0  0  1  0  0  0  0  0999 V2000
  190.2120  175.5070  144.5390 C   0  0  1  0  0  3  0  0  0  0  0  0
  191.2210  177.5920  148.8900 C   0  0  0  0  0  3  0  0  0  0  0  0
  190.1500  178.4670  148.7040 C   0  0  0  0  0  3  0  0  0  0  0  0
  187.9530  175.9420  143.3670 C   0  0  2  0  0  3  0  0  0  0  0  0
  186.4820  176.3170  143.5990 C   0  0  2  0  0  3  0  0  0  0  0  0
  192.0550  174.1590  143.5520 C   0  0  2  0  0  3  0  0  0  0  0  0
  192.1540  174.7420  145.9530 O   0  0  0  0  0  0  0  0  0  0  0  0
  185.8530  178.5290  143.8990 C   0  0  0  0  0  0  0  0  0  0  0  0
  191.4420  176.5570  147.9790 C   0  0  0  0  0  3  0  0  0  0  0  0
  190.8150  175.2410  145.9270 C   0  0  1  0  0  3  0  0  0  0  0  0
  190.6020  176.3950  146.8700 C   0  0  0  0  0  0  0  0  0  0  0  0
  188.5950  177.1470  145.4820 C   0  0  2  0  0  3  0  0  0  0  0  0
  185.5740  178.2100  142.4900 C   0  0  0  0  0  3  0  0  0  0  0  0
  192.8210  174.8480  144.7030 C   0  0  2  0  0  3  0  0  0  0  0  0
  185.8830  176.7820  142.3360 N   0  0  0  0  0  0  0  0  0  0  0  0
  189.2930  178.3010  147.6140 C   0  0  0  0  0  3  0  0  0  0  0  0
  189.4870  177.2480  146.7060 C   0  0  0  0  0  0  0  0  0  0  0  0
  187.1300  177.4180  145.8050 C   0  0  0  0  0  2  0  0  0  0  0  0
  190.5370  174.2940  143.6870 C   0  0  0  0  0  2  0  0  0  0  0  0
  187.9900  174.7390  142.6600 O   0  0  0  0  0  1  0  0  0  0  0  0
  185.9360  179.7660  144.3690 C   0  0  0  0  0  2  0  0  0  0  0  0
  188.7190  175.8160  144.7060 C   0  0  2  0  0  3  0  0  0  0  0  0
  186.3770  177.4020  144.5580 N   0  0  0  0  0  0  0  0  0  0  0  0
  194.0460  176.8720  145.5110 C   0  0  0  0  0  1  0  0  0  0  0  0
  193.2040  176.2990  144.3830 C   0  0  1  0  0  3  0  0  0  0  0  0
  193.9270  176.3650  143.1880 O   0  0  0  0  0  0  0  0  0  0  0  0
  195.2120  175.9300  143.5210 C   0  0  0  0  0  2  0  0  0  0  0  0
  196.2140  176.5930  142.6410 C   0  0  0  0  0  0  0  0  0  0  0  0
  195.9690  176.7540  141.4180 O   0  0  0  0  0  0  0  0  0  0  0  0
  197.4060  177.0580  143.1770 O   0  0  0  0  0  1  0  0  0  0  0  0
  191.4940  171.9150  144.1450 O   0  0  0  0  0  1  0  0  0  0  0  0
  192.4430  172.6940  143.4800 C   0  0  0  0  0  2  0  0  0  0  0  0
  1 19  1  6  0  0  0
  1 22  1  0  0  0  0
  1 10  1  0  0  0  0
  3  2  1  0  0  0  0
  4 20  1  1  0  0  0
  4  5  1  0  0  0  0
  4 22  1  0  0  0  0
  5 15  1  6  0  0  0
  5 23  1  0  0  0  0
  6 32  1  1  0  0  0
  6 19  1  0  0  0  0
  6 14  1  0  0  0  0
  8 21  2  0  0  0  0
  8 23  1  0  0  0  0
  9  2  2  0  0  0  0
 10  7  1  6  0  0  0
 10 11  1  0  0  0  0
 11  9  1  0  0  0  0
 12 18  1  1  0  0  0
 12 17  1  0  0  0  0
 13  8  1  0  0  0  0
 14 25  1  6  0  0  0
 14  7  1  0  0  0  0
 15 13  2  0  0  0  0
 16  3  2  0  0  0  0
 17 11  2  0  0  0  0
 17 16  1  0  0  0  0
 22 12  1  0  0  0  0
 23 18  1  0  0  0  0
 25 24  1  0  0  0  0
 26 27  1  0  0  0  0
 26 25  1  0  0  0  0
 28 30  1  0  0  0  0
 28 27  1  0  0  0  0
 29 28  2  0  0  0  0
 32 31  1  0  0  0  0
M  END
>  <MODEL>
1

>  <REMARK>
 VINA RESULT:      -7.2      0.000      0.000
  Name = 
  5 active torsions:
  status: ('A' for Active; 'I' for Inactive)
    1  A    between atoms: C_7  and  C_19
    2  A    between atoms: C_10  and  C_17
    3  A    between atoms: C_10  and  O_20
    4  A    between atoms: O_20  and  C_29
    5  A    between atoms: C_29  and  C_30
                            x       y       z     vdW  Elec       q    Type
                         _______ _______ _______ _____ _____    ______ ____

>  <TORSDO>
F 5

$$$$
=
 OpenBabel11112416433D

 32 36  0  0  1  0  0  0  0  0999 V2000
  188.9350  175.8660  143.0830 C   0  0  1  0  0  3  0  0  0  0  0  0
  191.9590  176.3350  146.9490 C   0  0  0  0  0  3  0  0  0  0  0  0
  192.5020  175.0830  146.6590 C   0  0  0  0  0  3  0  0  0  0  0  0
  189.3660  174.0590  141.2920 C   0  0  2  0  0  3  0  0  0  0  0  0
  190.4510  173.1970  140.6280 C   0  0  2  0  0  3  0  0  0  0  0  0
  186.9620  177.3800  143.0860 C   0  0  2  0  0  3  0  0  0  0  0  0
  188.8650  177.8950  144.5790 O   0  0  0  0  0  0  0  0  0  0  0  0
  191.2070  171.2520  141.6380 C   0  0  0  0  0  0  0  0  0  0  0  0
  191.0300  176.9100  146.0790 C   0  0  0  0  0  3  0  0  0  0  0  0
  189.6730  176.8910  143.9600 C   0  0  1  0  0  3  0  0  0  0  0  0
  190.6290  176.2350  144.9180 C   0  0  0  0  0  0  0  0  0  0  0  0
  190.7580  174.1980  143.3850 C   0  0  2  0  0  3  0  0  0  0  0  0
  190.2230  170.8340  140.6280 C   0  0  0  0  0  3  0  0  0  0  0  0
  187.4740  177.6140  144.5250 C   0  0  2  0  0  3  0  0  0  0  0  0
  189.8240  172.0630  139.9280 N   0  0  0  0  0  0  0  0  0  0  0  0
  192.1270  174.4110  145.4930 C   0  0  0  0  0  3  0  0  0  0  0  0
  191.2150  174.9900  144.5960 C   0  0  0  0  0  0  0  0  0  0  0  0
  191.9040  173.4600  142.7040 C   0  0  0  0  0  2  0  0  0  0  0  0
  187.9810  176.6540  142.2060 C   0  0  0  0  0  2  0  0  0  0  0  0
  188.7000  174.7680  140.2910 O   0  0  0  0  0  1  0  0  0  0  0  0
  191.6150  170.4740  142.6320 C   0  0  0  0  0  2  0  0  0  0  0  0
  189.9770  175.0230  142.3370 C   0  0  2  0  0  3  0  0  0  0  0  0
  191.3510  172.6510  141.6260 N   0  0  0  0  0  0  0  0  0  0  0  0
  187.7190  176.7250  146.8490 C   0  0  0  0  0  1  0  0  0  0  0  0
  187.0840  176.4860  145.4900 C   0  0  1  0  0  3  0  0  0  0  0  0
  185.6940  176.4220  145.6350 O   0  0  0  0  0  0  0  0  0  0  0  0
  185.4360  177.0080  146.8770 C   0  0  0  0  0  2  0  0  0  0  0  0
  184.9090  178.3870  146.6860 C   0  0  0  0  0  0  0  0  0  0  0  0
  185.4770  179.3620  147.2420 O   0  0  0  0  0  1  0  0  0  0  0  0
  183.8070  178.6000  145.8700 O   0  0  0  0  0  0  0  0  0  0  0  0
  185.9040  179.5000  143.3840 O   0  0  0  0  0  1  0  0  0  0  0  0
  186.5800  178.7060  142.4550 C   0  0  0  0  0  2  0  0  0  0  0  0
  1 19  1  6  0  0  0
  1 10  1  0  0  0  0
  3  2  1  0  0  0  0
  4 20  1  6  0  0  0
  4 22  1  0  0  0  0
  5 15  1  1  0  0  0
  5  4  1  0  0  0  0
  5 23  1  0  0  0  0
  6 32  1  6  0  0  0
  6 14  1  0  0  0  0
  8 21  2  0  0  0  0
  9  2  2  0  0  0  0
 10  7  1  1  0  0  0
 10 11  1  0  0  0  0
 11  9  1  0  0  0  0
 12 18  1  6  0  0  0
 12 17  1  0  0  0  0
 13  8  1  0  0  0  0
 14  7  1  0  0  0  0
 14 25  1  1  0  0  0
 15 13  2  0  0  0  0
 16  3  2  0  0  0  0
 17 11  2  0  0  0  0
 17 16  1  0  0  0  0
 19  6  1  0  0  0  0
 22  1  1  0  0  0  0
 22 12  1  0  0  0  0
 23  8  1  0  0  0  0
 23 18  1  0  0  0  0
 25 26  1  0  0  0  0
 25 24  1  0  0  0  0
 26 27  1  0  0  0  0
 28 27  1  0  0  0  0
 28 29  1  0  0  0  0
 30 28  2  0  0  0  0
 32 31  1  0  0  0  0
M  END
>  <MODEL>
2

>  <REMARK>
 VINA RESULT:      -7.2      3.669      7.123
  Name = 
  5 active torsions:
  status: ('A' for Active; 'I' for Inactive)
    1  A    between atoms: C_7  and  C_19
    2  A    between atoms: C_10  and  C_17
    3  A    between atoms: C_10  and  O_20
    4  A    between atoms: O_20  and  C_29
    5  A    between atoms: C_29  and  C_30
                            x       y       z     vdW  Elec       q    Type
                         _______ _______ _______ _____ _____    ______ ____

>  <TORSDO>
F 5

$$$$
=
 OpenBabel11112416433D

 32 36  0  0  1  0  0  0  0  0999 V2000
  189.5990  175.9680  144.2160 C   0  0  1  0  0  3  0  0  0  0  0  0
  189.8900  173.3800  140.0300 C   0  0  0  0  0  3  0  0  0  0  0  0
  191.2770  173.5290  140.0500 C   0  0  0  0  0  3  0  0  0  0  0  0
  191.7070  176.4000  145.6410 C   0  0  2  0  0  3  0  0  0  0  0  0
  193.1010  175.8620  145.9970 C   0  0  2  0  0  3  0  0  0  0  0  0
  187.3510  176.8950  144.7390 C   0  0  2  0  0  3  0  0  0  0  0  0
  187.5380  175.0940  143.0550 O   0  0  0  0  0  0  0  0  0  0  0  0
  194.9180  176.2640  144.6130 C   0  0  0  0  0  0  0  0  0  0  0  0
  189.1250  173.8300  141.1080 C   0  0  0  0  0  3  0  0  0  0  0  0
  188.9100  174.8700  143.3900 C   0  0  1  0  0  3  0  0  0  0  0  0
  189.7380  174.4420  142.2090 C   0  0  0  0  0  0  0  0  0  0  0  0
  191.8430  175.2670  143.3970 C   0  0  2  0  0  3  0  0  0  0  0  0
  194.9990  177.2570  145.6950 C   0  0  0  0  0  3  0  0  0  0  0  0
  187.1110  176.4290  143.2860 C   0  0  2  0  0  3  0  0  0  0  0  0
  193.9020  176.9320  146.6170 N   0  0  0  0  0  0  0  0  0  0  0  0
  191.9010  174.1180  141.1510 C   0  0  0  0  0  3  0  0  0  0  0  0
  191.1480  174.5500  142.2550 C   0  0  0  0  0  0  0  0  0  0  0  0
  193.1660  174.6130  143.7760 C   0  0  0  0  0  2  0  0  0  0  0  0
  188.6430  176.3310  145.3350 C   0  0  0  0  0  2  0  0  0  0  0  0
  190.9830  176.5480  146.8240 O   0  0  0  0  0  1  0  0  0  0  0  0
  195.5760  176.3720  143.4670 C   0  0  0  0  0  2  0  0  0  0  0  0
  190.9740  175.4530  144.6610 C   0  0  2  0  0  3  0  0  0  0  0  0
  193.8020  175.4290  144.8010 N   0  0  0  0  0  0  0  0  0  0  0  0
  187.2550  176.9720  140.8500 C   0  0  0  0  0  1  0  0  0  0  0  0
  187.6840  177.3980  142.2430 C   0  0  1  0  0  3  0  0  0  0  0  0
  187.2370  178.7010  142.4850 O   0  0  0  0  0  0  0  0  0  0  0  0
  185.8970  178.7000  142.0900 C   0  0  0  0  0  2  0  0  0  0  0  0
  185.0350  179.1370  143.2220 C   0  0  0  0  0  0  0  0  0  0  0  0
  183.9420  178.5540  143.4440 O   0  0  0  0  0  0  0  0  0  0  0  0
  185.4510  180.1680  144.0520 O   0  0  0  0  0  1  0  0  0  0  0  0
  185.7320  177.6160  146.3390 O   0  0  0  0  0  1  0  0  0  0  0  0
  186.1660  176.5110  145.6050 C   0  0  0  0  0  2  0  0  0  0  0  0
  1 22  1  0  0  0  0
  1 19  1  1  0  0  0
  2  3  2  0  0  0  0
  2  9  1  0  0  0  0
  3 16  1  0  0  0  0
  4  5  1  0  0  0  0
  4 20  1  1  0  0  0
  5 15  1  6  0  0  0
  6 19  1  0  0  0  0
  6 32  1  1  0  0  0
  7 14  1  0  0  0  0
  7 10  1  0  0  0  0
  8 23  1  0  0  0  0
  8 13  1  0  0  0  0
  9 11  2  0  0  0  0
 10 11  1  6  0  0  0
 10  1  1  0  0  0  0
 11 17  1  0  0  0  0
 12 18  1  1  0  0  0
 12 22  1  0  0  0  0
 13 15  2  0  0  0  0
 14 25  1  6  0  0  0
 14  6  1  0  0  0  0
 16 17  2  0  0  0  0
 17 12  1  0  0  0  0
 18 23  1  0  0  0  0
 21  8  2  0  0  0  0
 22  4  1  0  0  0  0
 23  5  1  0  0  0  0
 24 25  1  0  0  0  0
 25 26  1  0  0  0  0
 27 26  1  0  0  0  0
 27 28  1  0  0  0  0
 28 29  2  0  0  0  0
 28 30  1  0  0  0  0
 32 31  1  0  0  0  0
M  END
>  <MODEL>
3

>  <REMARK>
 VINA RESULT:      -7.2      3.393      7.752
  Name = 
  5 active torsions:
  status: ('A' for Active; 'I' for Inactive)
    1  A    between atoms: C_7  and  C_19
    2  A    between atoms: C_10  and  C_17
    3  A    between atoms: C_10  and  O_20
    4  A    between atoms: O_20  and  C_29
    5  A    between atoms: C_29  and  C_30
                            x       y       z     vdW  Elec       q    Type
                         _______ _______ _______ _____ _____    ______ ____

>  <TORSDO>
F 5

$$$$
=
 OpenBabel11112416433D

 32 36  0  0  1  0  0  0  0  0999 V2000
  190.0160  175.3880  143.5210 C   0  0  1  0  0  3  0  0  0  0  0  0
  191.5030  176.5710  148.0690 C   0  0  0  0  0  3  0  0  0  0  0  0
  190.4590  177.4920  148.1570 C   0  0  0  0  0  3  0  0  0  0  0  0
  187.6820  176.0980  142.6770 C   0  0  2  0  0  3  0  0  0  0  0  0
  186.2550  176.4600  143.1170 C   0  0  2  0  0  3  0  0  0  0  0  0
  191.7010  174.2080  142.1230 C   0  0  2  0  0  3  0  0  0  0  0  0
  192.0420  174.3160  144.5690 O   0  0  0  0  0  0  0  0  0  0  0  0
  185.7530  178.5870  143.8880 C   0  0  0  0  0  0  0  0  0  0  0  0
  191.5960  175.7250  146.9620 C   0  0  0  0  0  3  0  0  0  0  0  0
  190.7290  174.8450  144.7690 C   0  0  1  0  0  3  0  0  0  0  0  0
  190.6520  175.8010  145.9280 C   0  0  0  0  0  0  0  0  0  0  0  0
  188.5630  176.8580  144.9090 C   0  0  2  0  0  3  0  0  0  0  0  0
  185.3350  178.5530  142.4790 C   0  0  0  0  0  3  0  0  0  0  0  0
  192.5970  174.6430  143.3030 C   0  0  2  0  0  3  0  0  0  0  0  0
  185.5660  177.1740  142.0290 N   0  0  0  0  0  0  0  0  0  0  0  0
  189.5010  177.5620  147.1430 C   0  0  0  0  0  3  0  0  0  0  0  0
  189.5650  176.6990  146.0370 C   0  0  0  0  0  0  0  0  0  0  0  0
  187.1470  177.0980  145.4170 C   0  0  0  0  0  2  0  0  0  0  0  0
  190.2090  174.3540  142.4280 C   0  0  0  0  0  2  0  0  0  0  0  0
  187.6010  175.0530  141.7550 O   0  0  0  0  0  1  0  0  0  0  0  0
  185.9320  179.7090  144.5740 C   0  0  0  0  0  2  0  0  0  0  0  0
  188.5590  175.6980  143.8870 C   0  0  2  0  0  3  0  0  0  0  0  0
  186.2850  177.3420  144.2690 N   0  0  0  0  0  0  0  0  0  0  0  0
  194.0860  176.4070  144.2650 C   0  0  0  0  0  1  0  0  0  0  0  0
  193.0130  176.1190  143.2290 C   0  0  1  0  0  3  0  0  0  0  0  0
  193.5050  176.4270  141.9560 O   0  0  0  0  0  0  0  0  0  0  0  0
  194.8600  176.0870  142.0040 C   0  0  0  0  0  2  0  0  0  0  0  0
  195.3270  175.6800  140.6500 C   0  0  0  0  0  0  0  0  0  0  0  0
  194.5010  175.2560  139.8000 O   0  0  0  0  0  0  0  0  0  0  0  0
  196.6690  175.7930  140.3170 O   0  0  0  0  0  1  0  0  0  0  0  0
  191.0870  171.9090  142.3160 O   0  0  0  0  0  1  0  0  0  0  0  0
  192.0170  172.7750  141.7380 C   0  0  0  0  0  2  0  0  0  0  0  0
  1 19  1  6  0  0  0
  1 22  1  0  0  0  0
  1 10  1  0  0  0  0
  2  3  1  0  0  0  0
  4 20  1  6  0  0  0
  4  5  1  0  0  0  0
  4 22  1  0  0  0  0
  5 15  1  6  0  0  0
  5 23  1  0  0  0  0
  6 32  1  1  0  0  0
  6 19  1  0  0  0  0
  6 14  1  0  0  0  0
  8 23  1  0  0  0  0
  8 21  2  0  0  0  0
  9  2  2  0  0  0  0
 10  7  1  6  0  0  0
 10 11  1  0  0  0  0
 11 17  2  0  0  0  0
 11  9  1  0  0  0  0
 12 18  1  1  0  0  0
 12 17  1  0  0  0  0
 13  8  1  0  0  0  0
 14 25  1  1  0  0  0
 14  7  1  0  0  0  0
 15 13  2  0  0  0  0
 16  3  2  0  0  0  0
 17 16  1  0  0  0  0
 22 12  1  0  0  0  0
 23 18  1  0  0  0  0
 25 24  1  0  0  0  0
 26 27  1  0  0  0  0
 26 25  1  0  0  0  0
 28 27  1  0  0  0  0
 29 28  2  0  0  0  0
 30 28  1  0  0  0  0
 32 31  1  0  0  0  0
M  END
>  <MODEL>
4

>  <REMARK>
 VINA RESULT:      -7.0      1.182      1.361
  Name = 
  5 active torsions:
  status: ('A' for Active; 'I' for Inactive)
    1  A    between atoms: C_7  and  C_19
    2  A    between atoms: C_10  and  C_17
    3  A    between atoms: C_10  and  O_20
    4  A    between atoms: O_20  and  C_29
    5  A    between atoms: C_29  and  C_30
                            x       y       z     vdW  Elec       q    Type
                         _______ _______ _______ _____ _____    ______ ____

>  <TORSDO>
F 5

$$$$
=
 OpenBabel11112416433D

 32 36  0  0  1  0  0  0  0  0999 V2000
  189.9560  175.9000  144.1200 C   0  0  1  0  0  3  0  0  0  0  0  0
  189.0850  173.1570  140.1170 C   0  0  0  0  0  3  0  0  0  0  0  0
  190.4460  173.1930  139.8120 C   0  0  0  0  0  3  0  0  0  0  0  0
  192.3630  176.2050  145.0020 C   0  0  2  0  0  3  0  0  0  0  0  0
  193.7590  175.5670  145.0590 C   0  0  2  0  0  3  0  0  0  0  0  0
  187.9640  177.0260  145.0930 C   0  0  2  0  0  3  0  0  0  0  0  0
  187.6260  175.1600  143.5060 O   0  0  0  0  0  0  0  0  0  0  0  0
  195.2310  175.7720  143.2790 C   0  0  0  0  0  0  0  0  0  0  0  0
  188.6240  173.7050  141.3160 C   0  0  0  0  0  3  0  0  0  0  0  0
  189.0180  174.8350  143.5300 C   0  0  1  0  0  3  0  0  0  0  0  0
  189.5180  174.3010  142.2160 C   0  0  0  0  0  0  0  0  0  0  0  0
  191.8940  174.9900  142.8480 C   0  0  2  0  0  3  0  0  0  0  0  0
  195.6310  176.7910  144.2610 C   0  0  0  0  0  3  0  0  0  0  0  0
  187.3610  176.5330  143.7590 C   0  0  2  0  0  3  0  0  0  0  0  0
  194.7570  176.5880  145.4240 N   0  0  0  0  0  0  0  0  0  0  0  0
  191.3490  173.7660  140.7110 C   0  0  0  0  0  3  0  0  0  0  0  0
  190.9040  174.2950  141.9330 C   0  0  0  0  0  0  0  0  0  0  0  0
  193.2180  174.2430  142.9490 C   0  0  0  0  0  2  0  0  0  0  0  0
  189.3140  176.3780  145.4080 C   0  0  0  0  0  2  0  0  0  0  0  0
  191.9440  176.4520  146.3110 O   0  0  0  0  0  1  0  0  0  0  0  0
  195.6120  175.7870  142.0080 C   0  0  0  0  0  2  0  0  0  0  0  0
  191.3560  175.2890  144.2660 C   0  0  2  0  0  3  0  0  0  0  0  0
  194.1310  175.0380  143.7590 N   0  0  0  0  0  0  0  0  0  0  0  0
  187.1120  176.8730  141.2950 C   0  0  0  0  0  1  0  0  0  0  0  0
  187.7460  177.4160  142.5650 C   0  0  1  0  0  3  0  0  0  0  0  0
  187.3180  178.7320  142.7680 O   0  0  0  0  0  0  0  0  0  0  0  0
  185.9720  178.7330  142.3930 C   0  0  0  0  0  2  0  0  0  0  0  0
  185.1360  179.2480  143.5110 C   0  0  0  0  0  0  0  0  0  0  0  0
  185.5730  180.1630  144.2560 O   0  0  0  0  0  1  0  0  0  0  0  0
  183.8620  178.7370  143.7160 O   0  0  0  0  0  0  0  0  0  0  0  0
  185.6830  176.7220  145.7290 O   0  0  0  0  0  1  0  0  0  0  0  0
  186.9870  176.7690  146.2250 C   0  0  0  0  0  2  0  0  0  0  0  0
  1 22  1  0  0  0  0
  1 19  1  1  0  0  0
  2  9  1  0  0  0  0
  3  2  2  0  0  0  0
  3 16  1  0  0  0  0
  4  5  1  0  0  0  0
  4 20  1  1  0  0  0
  5 15  1  6  0  0  0
  6 19  1  0  0  0  0
  6 32  1  1  0  0  0
  7 10  1  0  0  0  0
  7 14  1  0  0  0  0
  8 23  1  0  0  0  0
  8 13  1  0  0  0  0
  9 11  2  0  0  0  0
 10 11  1  6  0  0  0
 10  1  1  0  0  0  0
 12 18  1  1  0  0  0
 12 22  1  0  0  0  0
 13 15  2  0  0  0  0
 14 25  1  6  0  0  0
 14  6  1  0  0  0  0
 16 17  2  0  0  0  0
 17 11  1  0  0  0  0
 17 12  1  0  0  0  0
 18 23  1  0  0  0  0
 21  8  2  0  0  0  0
 22  4  1  0  0  0  0
 23  5  1  0  0  0  0
 24 25  1  0  0  0  0
 25 26  1  0  0  0  0
 27 26  1  0  0  0  0
 27 28  1  0  0  0  0
 28 30  2  0  0  0  0
 28 29  1  0  0  0  0
 31 32  1  0  0  0  0
M  END
>  <MODEL>
5

>  <REMARK>
 VINA RESULT:      -6.9      3.280      7.860
  Name = 
  5 active torsions:
  status: ('A' for Active; 'I' for Inactive)
    1  A    between atoms: C_7  and  C_19
    2  A    between atoms: C_10  and  C_17
    3  A    between atoms: C_10  and  O_20
    4  A    between atoms: O_20  and  C_29
    5  A    between atoms: C_29  and  C_30
                            x       y       z     vdW  Elec       q    Type
                         _______ _______ _______ _____ _____    ______ ____

>  <TORSDO>
F 5

$$$$
=
 OpenBabel11112416433D

 32 36  0  0  1  0  0  0  0  0999 V2000
  190.4700  175.3180  143.2390 C   0  0  1  0  0  3  0  0  0  0  0  0
  194.2370  176.5040  146.1890 C   0  0  0  0  0  3  0  0  0  0  0  0
  194.6760  175.1810  146.1390 C   0  0  0  0  0  3  0  0  0  0  0  0
  190.4750  173.0890  141.9360 C   0  0  2  0  0  3  0  0  0  0  0  0
  191.3760  172.0060  141.3260 C   0  0  2  0  0  3  0  0  0  0  0  0
  188.5800  176.9350  143.2230 C   0  0  2  0  0  3  0  0  0  0  0  0
  190.7620  177.6560  144.1330 O   0  0  0  0  0  0  0  0  0  0  0  0
  192.2730  170.3240  142.6460 C   0  0  0  0  0  0  0  0  0  0  0  0
  193.1640  176.9140  145.3940 C   0  0  0  0  0  3  0  0  0  0  0  0
  191.3990  176.4690  143.6560 C   0  0  1  0  0  3  0  0  0  0  0  0
  192.5150  176.0020  144.5510 C   0  0  0  0  0  0  0  0  0  0  0  0
  192.2720  173.6410  143.6110 C   0  0  2  0  0  3  0  0  0  0  0  0
  191.0910  169.7440  141.9900 C   0  0  0  0  0  3  0  0  0  0  0  0
  189.3830  177.4810  144.4240 C   0  0  2  0  0  3  0  0  0  0  0  0
  190.5890  170.7850  141.0820 N   0  0  0  0  0  0  0  0  0  0  0  0
  194.0510  174.2690  145.2850 C   0  0  0  0  0  3  0  0  0  0  0  0
  192.9890  174.6730  144.4600 C   0  0  0  0  0  0  0  0  0  0  0  0
  193.2330  172.6670  142.9410 C   0  0  0  0  0  2  0  0  0  0  0  0
  189.3760  175.9320  142.3860 C   0  0  0  0  0  2  0  0  0  0  0  0
  189.6350  173.5740  140.9320 O   0  0  0  0  0  1  0  0  0  0  0  0
  192.8570  169.7920  143.7110 C   0  0  0  0  0  2  0  0  0  0  0  0
  191.3130  174.2340  142.5540 C   0  0  2  0  0  3  0  0  0  0  0  0
  192.4490  171.6590  142.2400 N   0  0  0  0  0  0  0  0  0  0  0  0
  189.7400  177.4210  146.8980 C   0  0  0  0  0  1  0  0  0  0  0  0
  189.1710  176.6680  145.7080 C   0  0  1  0  0  3  0  0  0  0  0  0
  187.8090  176.4300  145.9200 O   0  0  0  0  0  0  0  0  0  0  0  0
  187.3790  177.4950  146.7160 C   0  0  0  0  0  2  0  0  0  0  0  0
  186.0480  177.9710  146.2470 C   0  0  0  0  0  0  0  0  0  0  0  0
  185.6320  179.1100  146.5830 O   0  0  0  0  0  1  0  0  0  0  0  0
  185.2790  177.1680  145.4170 O   0  0  0  0  0  0  0  0  0  0  0  0
  186.8630  178.5350  142.7870 O   0  0  0  0  0  1  0  0  0  0  0  0
  188.1100  178.0850  142.3520 C   0  0  0  0  0  2  0  0  0  0  0  0
  1 19  1  6  0  0  0
  1 10  1  0  0  0  0
  3  2  1  0  0  0  0
  4 20  1  6  0  0  0
  4 22  1  0  0  0  0
  5 15  1  1  0  0  0
  5  4  1  0  0  0  0
  5 23  1  0  0  0  0
  6 32  1  6  0  0  0
  6 14  1  0  0  0  0
  7 14  1  0  0  0  0
  8 21  2  0  0  0  0
  9  2  2  0  0  0  0
 10  7  1  1  0  0  0
 10 11  1  0  0  0  0
 11  9  1  0  0  0  0
 12 18  1  6  0  0  0
 12 17  1  0  0  0  0
 13  8  1  0  0  0  0
 14 25  1  1  0  0  0
 15 13  2  0  0  0  0
 16  3  2  0  0  0  0
 17 11  2  0  0  0  0
 17 16  1  0  0  0  0
 19  6  1  0  0  0  0
 22  1  1  0  0  0  0
 22 12  1  0  0  0  0
 23  8  1  0  0  0  0
 23 18  1  0  0  0  0
 25 26  1  0  0  0  0
 25 24  1  0  0  0  0
 26 27  1  0  0  0  0
 28 29  1  0  0  0  0
 28 27  1  0  0  0  0
 30 28  2  0  0  0  0
 32 31  1  0  0  0  0
M  END
>  <MODEL>
6

>  <REMARK>
 VINA RESULT:      -6.9      3.287      7.006
  Name = 
  5 active torsions:
  status: ('A' for Active; 'I' for Inactive)
    1  A    between atoms: C_7  and  C_19
    2  A    between atoms: C_10  and  C_17
    3  A    between atoms: C_10  and  O_20
    4  A    between atoms: O_20  and  C_29
    5  A    between atoms: C_29  and  C_30
                            x       y       z     vdW  Elec       q    Type
                         _______ _______ _______ _____ _____    ______ ____

>  <TORSDO>
F 5

$$$$
=
 OpenBabel11112416433D

 32 36  0  0  1  0  0  0  0  0999 V2000
  191.3510  174.9970  143.5830 C   0  0  1  0  0  3  0  0  0  0  0  0
  191.1910  176.7960  148.1700 C   0  0  0  0  0  3  0  0  0  0  0  0
  190.0840  177.5660  147.8150 C   0  0  0  0  0  3  0  0  0  0  0  0
  189.3430  175.2910  141.9880 C   0  0  2  0  0  3  0  0  0  0  0  0
  187.8210  175.4880  141.9240 C   0  0  2  0  0  3  0  0  0  0  0  0
  193.5050  173.9400  142.9290 C   0  0  2  0  0  3  0  0  0  0  0  0
  193.0420  174.3230  145.3270 O   0  0  0  0  0  0  0  0  0  0  0  0
  186.8820  177.5880  142.2190 C   0  0  0  0  0  0  0  0  0  0  0  0
  191.7170  175.8720  147.2640 C   0  0  0  0  0  3  0  0  0  0  0  0
  191.6860  174.6790  145.0490 C   0  0  1  0  0  3  0  0  0  0  0  0
  191.1470  175.7180  145.9940 C   0  0  0  0  0  0  0  0  0  0  0  0
  189.3890  176.3720  144.2610 C   0  0  2  0  0  3  0  0  0  0  0  0
  186.9370  177.3630  140.7670 C   0  0  0  0  0  3  0  0  0  0  0  0
  193.9320  174.6050  144.2560 C   0  0  2  0  0  3  0  0  0  0  0  0
  187.4410  175.9940  140.5940 N   0  0  0  0  0  0  0  0  0  0  0  0
  189.4940  177.4060  146.5600 C   0  0  0  0  0  3  0  0  0  0  0  0
  189.9940  176.4610  145.6490 C   0  0  0  0  0  0  0  0  0  0  0  0
  187.8680  176.4580  144.2810 C   0  0  0  0  0  2  0  0  0  0  0  0
  191.9860  173.9030  142.7460 C   0  0  0  0  0  2  0  0  0  0  0  0
  189.6680  174.1640  141.2310 O   0  0  0  0  0  1  0  0  0  0  0  0
  186.7170  178.7820  142.7720 C   0  0  0  0  0  2  0  0  0  0  0  0
  189.8290  175.1330  143.4480 C   0  0  2  0  0  3  0  0  0  0  0  0
  187.3930  176.4700  142.9040 N   0  0  0  0  0  0  0  0  0  0  0  0
  194.7680  176.6580  145.4120 C   0  0  0  0  0  1  0  0  0  0  0  0
  194.1940  176.1100  144.1160 C   0  0  1  0  0  3  0  0  0  0  0  0
  195.0910  176.3580  143.0720 O   0  0  0  0  0  0  0  0  0  0  0  0
  196.3270  176.5410  143.6980 C   0  0  0  0  0  2  0  0  0  0  0  0
  197.3010  175.5310  143.1990 C   0  0  0  0  0  0  0  0  0  0  0  0
  197.5950  174.5350  143.9090 O   0  0  0  0  0  1  0  0  0  0  0  0
  197.8630  175.6750  141.9390 O   0  0  0  0  0  0  0  0  0  0  0  0
  195.0700  172.3690  143.8150 O   0  0  0  0  0  1  0  0  0  0  0  0
  194.0740  172.5360  142.8510 C   0  0  0  0  0  2  0  0  0  0  0  0
  1 19  1  6  0  0  0
  1 10  1  0  0  0  0
  3  2  1  0  0  0  0
  4 20  1  6  0  0  0
  4 22  1  0  0  0  0
  5 15  1  6  0  0  0
  5  4  1  0  0  0  0
  5 23  1  0  0  0  0
  6 32  1  1  0  0  0
  6 14  1  0  0  0  0
  8 21  2  0  0  0  0
  8 23  1  0  0  0  0
  9  2  2  0  0  0  0
 10  7  1  6  0  0  0
 10 11  1  0  0  0  0
 11  9  1  0  0  0  0
 12 18  1  1  0  0  0
 12 17  1  0  0  0  0
 13  8  1  0  0  0  0
 14 25  1  6  0  0  0
 14  7  1  0  0  0  0
 15 13  2  0  0  0  0
 16  3  2  0  0  0  0
 17 11  2  0  0  0  0
 17 16  1  0  0  0  0
 19  6  1  0  0  0  0
 22  1  1  0  0  0  0
 22 12  1  0  0  0  0
 23 18  1  0  0  0  0
 25 24  1  0  0  0  0
 26 27  1  0  0  0  0
 26 25  1  0  0  0  0
 28 27  1  0  0  0  0
 28 29  1  0  0  0  0
 30 28  2  0  0  0  0
 32 31  1  0  0  0  0
M  END
>  <MODEL>
7

>  <REMARK>
 VINA RESULT:      -6.9      1.583      1.877
  Name = 
  5 active torsions:
  status: ('A' for Active; 'I' for Inactive)
    1  A    between atoms: C_7  and  C_19
    2  A    between atoms: C_10  and  C_17
    3  A    between atoms: C_10  and  O_20
    4  A    between atoms: O_20  and  C_29
    5  A    between atoms: C_29  and  C_30
                            x       y       z     vdW  Elec       q    Type
                         _______ _______ _______ _____ _____    ______ ____

>  <TORSDO>
F 5

$$$$
=
 OpenBabel11112416433D

 32 36  0  0  1  0  0  0  0  0999 V2000
  191.5650  175.7410  144.5180 C   0  0  1  0  0  3  0  0  0  0  0  0
  189.7940  171.5370  142.6500 C   0  0  0  0  0  3  0  0  0  0  0  0
  190.9570  171.3990  141.8920 C   0  0  0  0  0  3  0  0  0  0  0  0
  194.0620  176.3430  144.2600 C   0  0  2  0  0  3  0  0  0  0  0  0
  195.4700  175.7600  144.0730 C   0  0  2  0  0  3  0  0  0  0  0  0
  189.8760  177.2320  145.5720 C   0  0  2  0  0  3  0  0  0  0  0  0
  189.2880  174.8670  145.1550 O   0  0  0  0  0  0  0  0  0  0  0  0
  196.2220  175.1190  141.9750 C   0  0  0  0  0  0  0  0  0  0  0  0
  189.6890  172.5690  143.5840 C   0  0  0  0  0  3  0  0  0  0  0  0
  190.6390  174.5500  144.8120 C   0  0  1  0  0  3  0  0  0  0  0  0
  190.7410  173.4780  143.7620 C   0  0  0  0  0  0  0  0  0  0  0  0
  193.0730  174.3140  143.1450 C   0  0  2  0  0  3  0  0  0  0  0  0
  196.7830  176.4570  142.2210 C   0  0  0  0  0  3  0  0  0  0  0  0
  188.9370  176.2160  144.8840 C   0  0  2  0  0  3  0  0  0  0  0  0
  196.3820  176.8100  143.5900 N   0  0  0  0  0  0  0  0  0  0  0  0
  192.0200  172.2860  142.0750 C   0  0  0  0  0  3  0  0  0  0  0  0
  191.9400  173.3120  143.0310 C   0  0  0  0  0  0  0  0  0  0  0  0
  194.4450  173.6540  143.0670 C   0  0  0  0  0  2  0  0  0  0  0  0
  191.3290  176.7560  145.6210 C   0  0  0  0  0  2  0  0  0  0  0  0
  194.0730  177.1530  145.3970 O   0  0  0  0  0  1  0  0  0  0  0  0
  196.1520  174.5620  140.7740 C   0  0  0  0  0  2  0  0  0  0  0  0
  193.0030  175.2220  144.3940 C   0  0  2  0  0  3  0  0  0  0  0  0
  195.4570  174.7020  143.0790 N   0  0  0  0  0  0  0  0  0  0  0  0
  187.8150  175.4570  142.7830 C   0  0  0  0  0  1  0  0  0  0  0  0
  188.7760  176.4710  143.3790 C   0  0  1  0  0  3  0  0  0  0  0  0
  188.2880  177.7610  143.1490 O   0  0  0  0  0  0  0  0  0  0  0  0
  186.9640  177.7290  143.5940 C   0  0  0  0  0  2  0  0  0  0  0  0
  186.1640  178.7570  142.8740 C   0  0  0  0  0  0  0  0  0  0  0  0
  186.0020  178.6720  141.6290 O   0  0  0  0  0  0  0  0  0  0  0  0
  185.5720  179.7940  143.5800 O   0  0  0  0  0  1  0  0  0  0  0  0
  187.9830  177.4460  147.0120 O   0  0  0  0  0  1  0  0  0  0  0  0
  189.3760  177.5270  146.9740 C   0  0  0  0  0  2  0  0  0  0  0  0
  1 10  1  0  0  0  0
  1 19  1  1  0  0  0
  2  9  1  0  0  0  0
  3 16  1  0  0  0  0
  3  2  2  0  0  0  0
  4 22  1  0  0  0  0
  4 20  1  1  0  0  0
  5 15  1  6  0  0  0
  5  4  1  0  0  0  0
  6 19  1  0  0  0  0
  6 32  1  1  0  0  0
  8 13  1  0  0  0  0
  8 23  1  0  0  0  0
  9 11  2  0  0  0  0
 10 11  1  6  0  0  0
 10  7  1  0  0  0  0
 12 18  1  1  0  0  0
 12 22  1  0  0  0  0
 13 15  2  0  0  0  0
 14 25  1  6  0  0  0
 14  7  1  0  0  0  0
 14  6  1  0  0  0  0
 16 17  2  0  0  0  0
 17 12  1  0  0  0  0
 17 11  1  0  0  0  0
 18 23  1  0  0  0  0
 21  8  2  0  0  0  0
 22  1  1  0  0  0  0
 23  5  1  0  0  0  0
 24 25  1  0  0  0  0
 26 25  1  0  0  0  0
 26 27  1  0  0  0  0
 28 30  1  0  0  0  0
 28 27  1  0  0  0  0
 29 28  2  0  0  0  0
 32 31  1  0  0  0  0
M  END
>  <MODEL>
8

>  <REMARK>
 VINA RESULT:      -6.8      3.296      7.751
  Name = 
  5 active torsions:
  status: ('A' for Active; 'I' for Inactive)
    1  A    between atoms: C_7  and  C_19
    2  A    between atoms: C_10  and  C_17
    3  A    between atoms: C_10  and  O_20
    4  A    between atoms: O_20  and  C_29
    5  A    between atoms: C_29  and  C_30
                            x       y       z     vdW  Elec       q    Type
                         _______ _______ _______ _____ _____    ______ ____

>  <TORSDO>
F 5

$$$$
=
 OpenBabel11112416433D

 32 36  0  0  1  0  0  0  0  0999 V2000
  188.6890  176.5050  143.9250 C   0  0  1  0  0  3  0  0  0  0  0  0
  186.2550  177.5400  139.7650 C   0  0  0  0  0  3  0  0  0  0  0  0
  185.1860  178.0150  140.5250 C   0  0  0  0  0  3  0  0  0  0  0  0
  187.9060  177.4840  146.1820 C   0  0  2  0  0  3  0  0  0  0  0  0
  187.1530  178.6500  146.8390 C   0  0  2  0  0  3  0  0  0  0  0  0
  190.5830  174.9120  143.6820 C   0  0  2  0  0  3  0  0  0  0  0  0
  189.6710  176.0020  141.6590 O   0  0  0  0  0  0  0  0  0  0  0  0
  184.8360  178.6650  146.9290 C   0  0  0  0  0  0  0  0  0  0  0  0
  187.4420  177.1600  140.3940 C   0  0  0  0  0  3  0  0  0  0  0  0
  188.8710  176.8860  142.4480 C   0  0  1  0  0  3  0  0  0  0  0  0
  187.5680  177.2430  141.7870 C   0  0  0  0  0  0  0  0  0  0  0  0
  186.5760  177.8140  144.0700 C   0  0  2  0  0  3  0  0  0  0  0  0
  185.2940  178.1900  148.2440 C   0  0  0  0  0  3  0  0  0  0  0  0
  189.9290  174.7560  142.2910 C   0  0  2  0  0  3  0  0  0  0  0  0
  186.7600  178.2780  148.2090 N   0  0  0  0  0  0  0  0  0  0  0  0
  185.3070  178.1230  141.9120 C   0  0  0  0  0  3  0  0  0  0  0  0
  186.5050  177.7720  142.5550 C   0  0  0  0  0  0  0  0  0  0  0  0
  185.9100  179.0550  144.6510 C   0  0  0  0  0  2  0  0  0  0  0  0
  190.0620  176.1290  144.4480 C   0  0  0  0  0  2  0  0  0  0  0  0
  189.1780  177.4100  146.7540 O   0  0  0  0  0  1  0  0  0  0  0  0
  183.5980  178.5050  146.4820 C   0  0  0  0  0  2  0  0  0  0  0  0
  188.0020  177.6710  144.6490 C   0  0  2  0  0  3  0  0  0  0  0  0
  185.9380  178.9510  146.1040 N   0  0  0  0  0  0  0  0  0  0  0  0
  188.2580  173.5350  140.8890 C   0  0  0  0  0  1  0  0  0  0  0  0
  188.6840  173.8600  142.3100 C   0  0  1  0  0  3  0  0  0  0  0  0
  188.9450  172.6700  142.9970 O   0  0  0  0  0  0  0  0  0  0  0  0
  189.5600  171.8400  142.0560 C   0  0  0  0  0  2  0  0  0  0  0  0
  190.7320  171.1590  142.6710 C   0  0  0  0  0  0  0  0  0  0  0  0
  191.1630  171.5340  143.7920 O   0  0  0  0  0  1  0  0  0  0  0  0
  191.3320  170.0900  142.0210 O   0  0  0  0  0  0  0  0  0  0  0  0
  192.4910  176.3290  143.4520 O   0  0  0  0  0  1  0  0  0  0  0  0
  192.0910  174.9940  143.5350 C   0  0  0  0  0  2  0  0  0  0  0  0
  1 19  1  1  0  0  0
  1 22  1  0  0  0  0
  2  9  2  0  0  0  0
  2  3  1  0  0  0  0
  3 16  2  0  0  0  0
  4 20  1  1  0  0  0
  4  5  1  0  0  0  0
  5 15  1  1  0  0  0
  6 32  1  6  0  0  0
  6 19  1  0  0  0  0
  7 14  1  0  0  0  0
  8 13  1  0  0  0  0
  9 11  1  0  0  0  0
 10  7  1  6  0  0  0
 10  1  1  0  0  0  0
 11 10  1  0  0  0  0
 11 17  2  0  0  0  0
 12 22  1  0  0  0  0
 12 18  1  6  0  0  0
 14 25  1  1  0  0  0
 14  6  1  0  0  0  0
 15 13  2  0  0  0  0
 16 17  1  0  0  0  0
 17 12  1  0  0  0  0
 18 23  1  0  0  0  0
 21  8  2  0  0  0  0
 22  4  1  0  0  0  0
 23  5  1  0  0  0  0
 23  8  1  0  0  0  0
 24 25  1  0  0  0  0
 25 26  1  0  0  0  0
 27 28  1  0  0  0  0
 27 26  1  0  0  0  0
 28 29  1  0  0  0  0
 30 28  2  0  0  0  0
 31 32  1  0  0  0  0
M  END
>  <MODEL>
9

>  <REMARK>
 VINA RESULT:      -6.6      2.546      5.684
  Name = 
  5 active torsions:
  status: ('A' for Active; 'I' for Inactive)
    1  A    between atoms: C_7  and  C_19
    2  A    between atoms: C_10  and  C_17
    3  A    between atoms: C_10  and  O_20
    4  A    between atoms: O_20  and  C_29
    5  A    between atoms: C_29  and  C_30
                            x       y       z     vdW  Elec       q    Type
                         _______ _______ _______ _____ _____    ______ ____

>  <TORSDO>
F 5

$$$$
