=
 OpenBabel11112417063D

 31 35  0  0  1  0  0  0  0  0999 V2000
  190.6580  172.0330  142.1670 C   0  0  2  0  0  3  0  0  0  0  0  0
  191.6830  174.1150  145.2650 C   0  0  2  0  0  3  0  0  0  0  0  0
  192.7430  175.1810  145.4650 C   0  0  0  0  0  0  0  0  0  0  0  0
  194.8510  176.2140  144.8410 C   0  0  0  0  0  0  0  0  0  0  0  0
  191.4640  173.7670  143.7840 C   0  0  1  0  0  3  0  0  0  0  0  0
  189.7680  173.0670  141.4880 C   0  0  0  0  0  2  0  0  0  0  0  0
  193.8660  175.2470  144.6280 C   0  0  0  0  0  3  0  0  0  0  0  0
  189.5710  175.5470  145.2220 C   0  0  2  0  0  3  0  0  0  0  0  0
  190.0750  170.7720  142.0540 O   0  0  0  0  0  1  0  0  0  0  0  0
  191.5560  175.9950  147.4320 O   0  0  0  0  0  0  0  0  0  0  0  0
  196.0290  176.2850  143.9390 C   0  0  0  0  0  1  0  0  0  0  0  0
  189.3140  175.1140  143.7820 C   0  0  0  0  0  2  0  0  0  0  0  0
  190.3550  174.4610  145.9750 C   0  0  2  0  0  3  0  0  0  0  0  0
  190.8370  172.3790  143.6420 C   0  0  0  0  0  2  0  0  0  0  0  0
  194.7290  177.1140  145.9030 C   0  0  0  0  0  3  0  0  0  0  0  0
  190.6340  174.8470  143.0620 C   0  0  2  0  0  3  0  0  0  0  0  0
  190.3900  174.4590  141.6020 C   0  0  0  0  0  2  0  0  0  0  0  0
  190.6500  174.8930  147.4130 C   0  0  0  0  0  2  0  0  0  0  0  0
  192.6440  176.0670  146.5570 C   0  0  0  0  0  0  0  0  0  0  0  0
  193.6280  177.0400  146.7600 C   0  0  0  0  0  3  0  0  0  0  0  0
  188.9150  177.8990  146.6980 O   0  0  0  0  0  0  0  0  0  0  0  0
  188.0300  177.0040  146.6010 C   0  0  0  0  0  0  0  0  0  0  0  0
  188.2990  175.7970  145.8870 N   0  0  0  0  0  2  0  0  0  0  0  0
  185.3470  178.7460  145.2870 C   0  0  2  0  0  3  0  0  0  0  0  0
  185.5910  176.6260  146.3770 C   0  0  0  0  0  3  0  0  0  0  0  0
  186.8910  179.1460  148.5500 O   0  0  0  0  0  0  0  0  0  0  0  0
  184.2990  179.4140  144.5370 N   0  0  0  0  0  1  0  0  0  0  0  0
  184.9830  177.3590  145.5050 N   0  0  0  0  0  0  0  0  0  0  0  0
  186.4240  178.6400  147.5420 C   0  0  0  0  0  0  0  0  0  0  0  0
  186.6900  177.1880  147.2410 C   0  0  2  0  0  3  0  0  0  0  0  0
  185.5870  179.4760  146.6110 C   0  0  0  0  0  2  0  0  0  0  0  0
  1  9  1  1  0  0  0
  1 14  1  0  0  0  0
  2  3  1  6  0  0  0
  2 13  1  0  0  0  0
  3 19  1  0  0  0  0
  4 15  2  0  0  0  0
  5 14  1  1  0  0  0
  5  2  1  0  0  0  0
  6 17  1  0  0  0  0
  6  1  1  0  0  0  0
  7  4  1  0  0  0  0
  7  3  2  0  0  0  0
  8 23  1  1  0  0  0
  8 13  1  0  0  0  0
 11  4  1  0  0  0  0
 12  8  1  0  0  0  0
 13 18  1  1  0  0  0
 15 20  1  0  0  0  0
 16 17  1  6  0  0  0
 16 12  1  0  0  0  0
 16  5  1  0  0  0  0
 18 10  1  0  0  0  0
 19 20  2  0  0  0  0
 19 10  1  0  0  0  0
 22 21  2  0  0  0  0
 23 22  1  0  0  0  0
 24 27  1  1  0  0  0
 24 28  1  0  0  0  0
 24 31  1  0  0  0  0
 25 30  1  0  0  0  0
 28 25  2  0  0  0  0
 29 26  2  0  0  0  0
 30 22  1  6  0  0  0
 30 29  1  0  0  0  0
 31 29  1  0  0  0  0
M  END
>  <MODEL>
1

>  <REMARK>
 VINA RESULT:      -8.3      0.000      0.000
  Name = 
  2 active torsions:
  status: ('A' for Active; 'I' for Inactive)
    1  A    between atoms: C_5  and  C_30
    2  A    between atoms: C_10  and  N_16
                            x       y       z     vdW  Elec       q    Type
                         _______ _______ _______ _____ _____    ______ ____

>  <TORSDO>
F 2

$$$$
=
 OpenBabel11112417063D

 31 35  0  0  1  0  0  0  0  0999 V2000
  188.1410  174.0610  140.2670 C   0  0  2  0  0  3  0  0  0  0  0  0
  189.3270  176.3250  143.1750 C   0  0  2  0  0  3  0  0  0  0  0  0
  188.7150  176.6480  144.5230 C   0  0  0  0  0  0  0  0  0  0  0  0
  186.7780  176.8480  145.9760 C   0  0  0  0  0  0  0  0  0  0  0  0
  188.6230  175.1560  142.4670 C   0  0  1  0  0  3  0  0  0  0  0  0
  188.6150  172.7220  140.8190 C   0  0  0  0  0  2  0  0  0  0  0  0
  187.3350  176.5190  144.7380 C   0  0  0  0  0  3  0  0  0  0  0  0
  191.2080  174.7460  143.8720 C   0  0  2  0  0  3  0  0  0  0  0  0
  188.3900  174.1130  138.8970 O   0  0  0  0  0  1  0  0  0  0  0  0
  190.8990  177.3420  145.3520 O   0  0  0  0  0  0  0  0  0  0  0  0
  185.3170  176.6930  146.1970 C   0  0  0  0  0  1  0  0  0  0  0  0
  190.5460  173.6200  143.0840 C   0  0  0  0  0  2  0  0  0  0  0  0
  190.8560  176.1090  143.2550 C   0  0  2  0  0  3  0  0  0  0  0  0
  188.8750  175.2050  140.9590 C   0  0  0  0  0  2  0  0  0  0  0  0
  187.5940  177.3240  147.0050 C   0  0  0  0  0  3  0  0  0  0  0  0
  189.0290  173.7970  143.0710 C   0  0  2  0  0  3  0  0  0  0  0  0
  188.3530  172.6450  142.3240 C   0  0  0  0  0  2  0  0  0  0  0  0
  191.4850  177.2520  144.0540 C   0  0  0  0  0  2  0  0  0  0  0  0
  189.5270  177.1630  145.5530 C   0  0  0  0  0  0  0  0  0  0  0  0
  188.9650  177.4830  146.7940 C   0  0  0  0  0  3  0  0  0  0  0  0
  192.8410  174.4970  146.1980 O   0  0  0  0  0  0  0  0  0  0  0  0
  193.4100  174.4260  145.0740 C   0  0  0  0  0  0  0  0  0  0  0  0
  192.6520  174.5550  143.8710 N   0  0  0  0  0  2  0  0  0  0  0  0
  195.5730  175.9570  142.8510 C   0  0  2  0  0  3  0  0  0  0  0  0
  195.6390  175.5030  145.2030 C   0  0  0  0  0  3  0  0  0  0  0  0
  195.1670  172.4050  143.4880 O   0  0  0  0  0  0  0  0  0  0  0  0
  196.3410  176.7730  141.9280 N   0  0  0  0  0  1  0  0  0  0  0  0
  195.9530  176.2720  144.2140 N   0  0  0  0  0  0  0  0  0  0  0  0
  195.2730  173.6080  143.6580 C   0  0  0  0  0  0  0  0  0  0  0  0
  194.8890  174.2140  144.9830 C   0  0  2  0  0  3  0  0  0  0  0  0
  195.7880  174.4740  142.5390 C   0  0  0  0  0  2  0  0  0  0  0  0
  1  9  1  6  0  0  0
  1  6  1  0  0  0  0
  1 14  1  0  0  0  0
  2 13  1  0  0  0  0
  2  3  1  1  0  0  0
  3  7  2  0  0  0  0
  3 19  1  0  0  0  0
  4 11  1  0  0  0  0
  4 15  2  0  0  0  0
  5 14  1  6  0  0  0
  5 16  1  0  0  0  0
  5  2  1  0  0  0  0
  6 17  1  0  0  0  0
  7  4  1  0  0  0  0
  8 23  1  6  0  0  0
 10 19  1  0  0  0  0
 12  8  1  0  0  0  0
 13  8  1  0  0  0  0
 13 18  1  1  0  0  0
 16 17  1  6  0  0  0
 16 12  1  0  0  0  0
 18 10  1  0  0  0  0
 19 20  2  0  0  0  0
 20 15  1  0  0  0  0
 22 21  2  0  0  0  0
 23 22  1  0  0  0  0
 24 27  1  6  0  0  0
 24 28  1  0  0  0  0
 26 29  2  0  0  0  0
 28 25  2  0  0  0  0
 29 30  1  0  0  0  0
 30 22  1  6  0  0  0
 30 25  1  0  0  0  0
 31 24  1  0  0  0  0
 31 29  1  0  0  0  0
M  END
>  <MODEL>
2

>  <REMARK>
 VINA RESULT:      -7.8      3.252      7.085
  Name = 
  2 active torsions:
  status: ('A' for Active; 'I' for Inactive)
    1  A    between atoms: C_5  and  C_30
    2  A    between atoms: C_10  and  N_16
                            x       y       z     vdW  Elec       q    Type
                         _______ _______ _______ _____ _____    ______ ____

>  <TORSDO>
F 2

$$$$
=
 OpenBabel11112417063D

 31 35  0  0  1  0  0  0  0  0999 V2000
  185.4390  177.5500  142.9050 C   0  0  2  0  0  3  0  0  0  0  0  0
  188.1220  174.8380  142.2470 C   0  0  2  0  0  3  0  0  0  0  0  0
  188.7890  174.3580  140.9730 C   0  0  0  0  0  0  0  0  0  0  0  0
  188.7770  174.0530  138.5620 C   0  0  0  0  0  0  0  0  0  0  0  0
  187.3150  176.1300  142.0450 C   0  0  1  0  0  3  0  0  0  0  0  0
  186.3510  178.7710  142.9050 C   0  0  0  0  0  2  0  0  0  0  0  0
  188.1670  174.5270  139.7270 C   0  0  0  0  0  3  0  0  0  0  0  0
  190.0120  176.2030  143.2880 C   0  0  2  0  0  3  0  0  0  0  0  0
  184.4870  177.6800  143.9140 O   0  0  0  0  0  1  0  0  0  0  0  0
  190.6320  173.4430  142.2780 O   0  0  0  0  0  0  0  0  0  0  0  0
  188.1170  174.2500  137.2460 C   0  0  0  0  0  1  0  0  0  0  0  0
  189.1580  177.4620  143.1700 C   0  0  0  0  0  2  0  0  0  0  0  0
  189.1160  174.9610  143.4250 C   0  0  2  0  0  3  0  0  0  0  0  0
  186.2550  176.2820  143.1380 C   0  0  0  0  0  2  0  0  0  0  0  0
  190.0070  173.3950  138.6360 C   0  0  0  0  0  3  0  0  0  0  0  0
  188.2310  177.3670  141.9600 C   0  0  2  0  0  3  0  0  0  0  0  0
  187.4050  178.6460  141.8040 C   0  0  0  0  0  2  0  0  0  0  0  0
  189.9560  173.6860  143.5110 C   0  0  0  0  0  2  0  0  0  0  0  0
  190.0120  173.6610  141.0440 C   0  0  0  0  0  0  0  0  0  0  0  0
  190.6220  173.1980  139.8740 C   0  0  0  0  0  3  0  0  0  0  0  0
  192.8380  176.5740  143.1880 O   0  0  0  0  0  0  0  0  0  0  0  0
  192.2960  176.5150  144.3270 C   0  0  0  0  0  0  0  0  0  0  0  0
  190.8870  176.3180  144.4460 N   0  0  0  0  0  2  0  0  0  0  0  0
  195.4320  175.1560  144.8570 C   0  0  2  0  0  3  0  0  0  0  0  0
  194.4460  177.2980  145.2810 C   0  0  0  0  0  3  0  0  0  0  0  0
  192.4700  174.8230  146.9330 O   0  0  0  0  0  0  0  0  0  0  0  0
  196.7780  174.6120  144.8610 N   0  0  0  0  0  1  0  0  0  0  0  0
  195.4880  176.6000  144.9730 N   0  0  0  0  0  0  0  0  0  0  0  0
  193.3370  175.2980  146.2180 C   0  0  0  0  0  0  0  0  0  0  0  0
  193.1220  176.6400  145.5690 C   0  0  2  0  0  3  0  0  0  0  0  0
  194.6150  174.5340  145.9940 C   0  0  0  0  0  2  0  0  0  0  0  0
  1 14  1  0  0  0  0
  1  9  1  1  0  0  0
  2  3  1  6  0  0  0
  2 13  1  0  0  0  0
  3 19  1  0  0  0  0
  4 15  2  0  0  0  0
  4  7  1  0  0  0  0
  5  2  1  0  0  0  0
  5 14  1  1  0  0  0
  6  1  1  0  0  0  0
  7  3  2  0  0  0  0
  8 13  1  0  0  0  0
  8 23  1  1  0  0  0
 10 18  1  0  0  0  0
 11  4  1  0  0  0  0
 12  8  1  0  0  0  0
 13 18  1  6  0  0  0
 15 20  1  0  0  0  0
 16 17  1  1  0  0  0
 16  5  1  0  0  0  0
 16 12  1  0  0  0  0
 17  6  1  0  0  0  0
 19 10  1  0  0  0  0
 20 19  2  0  0  0  0
 21 22  2  0  0  0  0
 22 23  1  0  0  0  0
 24 27  1  1  0  0  0
 24 28  1  0  0  0  0
 24 31  1  0  0  0  0
 25 30  1  0  0  0  0
 28 25  2  0  0  0  0
 29 26  2  0  0  0  0
 30 22  1  6  0  0  0
 30 29  1  0  0  0  0
 31 29  1  0  0  0  0
M  END
>  <MODEL>
3

>  <REMARK>
 VINA RESULT:      -7.8      3.277      7.364
  Name = 
  2 active torsions:
  status: ('A' for Active; 'I' for Inactive)
    1  A    between atoms: C_5  and  C_30
    2  A    between atoms: C_10  and  N_16
                            x       y       z     vdW  Elec       q    Type
                         _______ _______ _______ _____ _____    ______ ____

>  <TORSDO>
F 2

$$$$
=
 OpenBabel11112417063D

 31 35  0  0  1  0  0  0  0  0999 V2000
  191.3060  171.2370  141.7570 C   0  0  2  0  0  3  0  0  0  0  0  0
  191.3410  173.4840  144.9090 C   0  0  2  0  0  3  0  0  0  0  0  0
  192.3670  174.4610  145.4470 C   0  0  0  0  0  0  0  0  0  0  0  0
  194.6630  175.2390  145.6220 C   0  0  0  0  0  0  0  0  0  0  0  0
  191.6500  173.0270  143.4740 C   0  0  1  0  0  3  0  0  0  0  0  0
  190.8610  172.2840  140.7420 C   0  0  0  0  0  2  0  0  0  0  0  0
  193.7210  174.3500  145.0960 C   0  0  0  0  0  3  0  0  0  0  0  0
  189.5820  175.0930  143.9990 C   0  0  2  0  0  3  0  0  0  0  0  0
  190.6620  170.0300  141.4910 O   0  0  0  0  0  1  0  0  0  0  0  0
  190.6390  175.5520  146.7740 O   0  0  0  0  0  0  0  0  0  0  0  0
  196.0920  175.1220  145.2330 C   0  0  0  0  0  1  0  0  0  0  0  0
  189.8310  174.5600  142.5920 C   0  0  0  0  0  2  0  0  0  0  0  0
  189.8940  174.0110  145.0450 C   0  0  2  0  0  3  0  0  0  0  0  0
  190.9610  171.6950  143.1710 C   0  0  0  0  0  2  0  0  0  0  0  0
  194.2610  176.2360  146.5140 C   0  0  0  0  0  3  0  0  0  0  0  0
  191.2830  174.1100  142.4410 C   0  0  2  0  0  3  0  0  0  0  0  0
  191.5550  173.6190  141.0170 C   0  0  0  0  0  2  0  0  0  0  0  0
  189.6810  174.5400  146.4640 C   0  0  0  0  0  2  0  0  0  0  0  0
  191.9740  175.4460  146.3750 C   0  0  0  0  0  0  0  0  0  0  0  0
  192.9200  176.3390  146.8910 C   0  0  0  0  0  3  0  0  0  0  0  0
  188.7100  177.6650  144.8730 O   0  0  0  0  0  0  0  0  0  0  0  0
  187.8240  176.8260  144.5520 C   0  0  0  0  0  0  0  0  0  0  0  0
  188.1930  175.5160  144.1180 N   0  0  0  0  0  2  0  0  0  0  0  0
  185.9070  178.2010  142.0220 C   0  0  2  0  0  3  0  0  0  0  0  0
  185.5680  176.4320  143.6020 C   0  0  0  0  0  3  0  0  0  0  0  0
  186.3260  179.4120  145.4200 O   0  0  0  0  0  0  0  0  0  0  0  0
  185.2360  178.6660  140.8220 N   0  0  0  0  0  1  0  0  0  0  0  0
  185.3570  176.9220  142.4260 N   0  0  0  0  0  0  0  0  0  0  0  0
  186.1680  178.6680  144.4660 C   0  0  0  0  0  0  0  0  0  0  0  0
  186.3730  177.1850  144.6300 C   0  0  2  0  0  3  0  0  0  0  0  0
  185.7700  179.2450  143.1340 C   0  0  0  0  0  2  0  0  0  0  0  0
  1  9  1  6  0  0  0
  1 14  1  0  0  0  0
  2 13  1  0  0  0  0
  2  3  1  6  0  0  0
  3 19  1  0  0  0  0
  4 15  2  0  0  0  0
  5 14  1  6  0  0  0
  5  2  1  0  0  0  0
  6 17  1  0  0  0  0
  6  1  1  0  0  0  0
  7  3  2  0  0  0  0
  7  4  1  0  0  0  0
  8 23  1  6  0  0  0
  8 13  1  0  0  0  0
 11  4  1  0  0  0  0
 12  8  1  0  0  0  0
 13 18  1  1  0  0  0
 15 20  1  0  0  0  0
 16 17  1  6  0  0  0
 16 12  1  0  0  0  0
 16  5  1  0  0  0  0
 18 10  1  0  0  0  0
 19 10  1  0  0  0  0
 19 20  2  0  0  0  0
 22 21  2  0  0  0  0
 23 22  1  0  0  0  0
 24 27  1  6  0  0  0
 24 28  1  0  0  0  0
 24 31  1  0  0  0  0
 25 30  1  0  0  0  0
 28 25  2  0  0  0  0
 29 30  1  0  0  0  0
 29 26  2  0  0  0  0
 30 22  1  6  0  0  0
 31 29  1  0  0  0  0
M  END
>  <MODEL>
4

>  <REMARK>
 VINA RESULT:      -7.8      1.785      1.987
  Name = 
  2 active torsions:
  status: ('A' for Active; 'I' for Inactive)
    1  A    between atoms: C_5  and  C_30
    2  A    between atoms: C_10  and  N_16
                            x       y       z     vdW  Elec       q    Type
                         _______ _______ _______ _____ _____    ______ ____

>  <TORSDO>
F 2

$$$$
=
 OpenBabel11112417063D

 31 35  0  0  1  0  0  0  0  0999 V2000
  185.7930  177.4670  142.7670 C   0  0  2  0  0  3  0  0  0  0  0  0
  187.9650  174.3920  141.8640 C   0  0  2  0  0  3  0  0  0  0  0  0
  188.6480  173.9760  140.5760 C   0  0  0  0  0  0  0  0  0  0  0  0
  188.8100  174.0280  138.1530 C   0  0  0  0  0  0  0  0  0  0  0  0
  187.4400  175.8360  141.8180 C   0  0  1  0  0  3  0  0  0  0  0  0
  186.9160  178.4660  143.0220 C   0  0  0  0  0  2  0  0  0  0  0  0
  188.1910  174.4430  139.3350 C   0  0  0  0  0  3  0  0  0  0  0  0
  189.9690  175.1840  143.2310 C   0  0  2  0  0  3  0  0  0  0  0  0
  184.7910  177.6410  143.7200 O   0  0  0  0  0  1  0  0  0  0  0  0
  190.1500  172.5290  141.8370 O   0  0  0  0  0  0  0  0  0  0  0  0
  188.3280  174.5410  136.8440 C   0  0  0  0  0  1  0  0  0  0  0  0
  189.3850  176.5930  143.2590 C   0  0  0  0  0  2  0  0  0  0  0  0
  188.8460  174.1420  143.1090 C   0  0  2  0  0  3  0  0  0  0  0  0
  186.3280  176.0410  142.8490 C   0  0  0  0  0  2  0  0  0  0  0  0
  189.8800  173.1310  138.2010 C   0  0  0  0  0  3  0  0  0  0  0  0
  188.5770  176.8620  141.9910 C   0  0  2  0  0  3  0  0  0  0  0  0
  188.0280  178.2900  141.9880 C   0  0  0  0  0  2  0  0  0  0  0  0
  189.4170  172.7240  143.0460 C   0  0  0  0  0  2  0  0  0  0  0  0
  189.7030  173.0430  140.6160 C   0  0  0  0  0  0  0  0  0  0  0  0
  190.3250  172.6380  139.4300 C   0  0  0  0  0  3  0  0  0  0  0  0
  192.6300  174.1600  143.3360 O   0  0  0  0  0  0  0  0  0  0  0  0
  192.0710  174.4480  144.4310 C   0  0  0  0  0  0  0  0  0  0  0  0
  190.7350  174.9530  144.4480 N   0  0  0  0  0  2  0  0  0  0  0  0
  194.1830  176.7180  145.9640 C   0  0  2  0  0  3  0  0  0  0  0  0
  192.4030  175.3090  146.7310 C   0  0  0  0  0  3  0  0  0  0  0  0
  194.8490  173.2420  145.1470 O   0  0  0  0  0  0  0  0  0  0  0  0
  194.9410  177.8260  146.5140 N   0  0  0  0  0  1  0  0  0  0  0  0
  193.0610  176.4160  146.8310 N   0  0  0  0  0  0  0  0  0  0  0  0
  194.2870  174.2570  145.5240 C   0  0  0  0  0  0  0  0  0  0  0  0
  192.7940  174.2560  145.7270 C   0  0  2  0  0  3  0  0  0  0  0  0
  195.0940  175.5010  145.7840 C   0  0  0  0  0  2  0  0  0  0  0  0
  1 14  1  0  0  0  0
  1  6  1  0  0  0  0
  1  9  1  1  0  0  0
  2  3  1  6  0  0  0
  2 13  1  0  0  0  0
  3 19  1  0  0  0  0
  4 15  2  0  0  0  0
  4  7  1  0  0  0  0
  5  2  1  0  0  0  0
  5 16  1  0  0  0  0
  5 14  1  1  0  0  0
  7  3  2  0  0  0  0
  8 12  1  0  0  0  0
  8 23  1  1  0  0  0
 10 18  1  0  0  0  0
 11  4  1  0  0  0  0
 13 18  1  6  0  0  0
 13  8  1  0  0  0  0
 15 20  1  0  0  0  0
 16 17  1  1  0  0  0
 16 12  1  0  0  0  0
 17  6  1  0  0  0  0
 19 10  1  0  0  0  0
 20 19  2  0  0  0  0
 21 22  2  0  0  0  0
 22 23  1  0  0  0  0
 24 27  1  1  0  0  0
 24 28  1  0  0  0  0
 25 28  2  0  0  0  0
 26 29  2  0  0  0  0
 29 30  1  0  0  0  0
 29 31  1  0  0  0  0
 30 22  1  6  0  0  0
 30 25  1  0  0  0  0
 31 24  1  0  0  0  0
M  END
>  <MODEL>
5

>  <REMARK>
 VINA RESULT:      -7.5      3.203      7.305
  Name = 
  2 active torsions:
  status: ('A' for Active; 'I' for Inactive)
    1  A    between atoms: C_5  and  C_30
    2  A    between atoms: C_10  and  N_16
                            x       y       z     vdW  Elec       q    Type
                         _______ _______ _______ _____ _____    ______ ____

>  <TORSDO>
F 2

$$$$
=
 OpenBabel11112417063D

 31 35  0  0  1  0  0  0  0  0999 V2000
  193.6510  176.4160  145.4370 C   0  0  2  0  0  3  0  0  0  0  0  0
  190.5820  176.0130  143.1130 C   0  0  2  0  0  3  0  0  0  0  0  0
  190.2420  174.9870  142.0490 C   0  0  0  0  0  0  0  0  0  0  0  0
  190.9280  173.3340  140.4060 C   0  0  0  0  0  0  0  0  0  0  0  0
  191.7930  175.6050  143.9670 C   0  0  1  0  0  3  0  0  0  0  0  0
  193.2490  175.4130  146.5130 C   0  0  0  0  0  2  0  0  0  0  0  0
  191.2510  174.2550  141.4060 C   0  0  0  0  0  3  0  0  0  0  0  0
  189.0270  175.2760  144.9980 C   0  0  2  0  0  3  0  0  0  0  0  0
  194.2120  177.5410  146.0380 O   0  0  0  0  0  1  0  0  0  0  0  0
  187.8840  175.5690  142.2360 O   0  0  0  0  0  0  0  0  0  0  0  0
  192.0040  172.5530  139.7420 C   0  0  0  0  0  1  0  0  0  0  0  0
  190.2410  174.9680  145.8690 C   0  0  0  0  0  2  0  0  0  0  0  0
  189.3620  176.3840  143.9870 C   0  0  2  0  0  3  0  0  0  0  0  0
  192.4300  176.8320  144.6230 C   0  0  0  0  0  2  0  0  0  0  0  0
  189.5960  173.1490  140.0310 C   0  0  0  0  0  3  0  0  0  0  0  0
  191.4210  174.5280  145.0050 C   0  0  2  0  0  3  0  0  0  0  0  0
  192.6290  174.1690  145.8740 C   0  0  0  0  0  2  0  0  0  0  0  0
  188.1650  176.6830  143.0830 C   0  0  0  0  0  2  0  0  0  0  0  0
  188.9040  174.8220  141.6410 C   0  0  0  0  0  0  0  0  0  0  0  0
  188.5850  173.8920  140.6460 C   0  0  0  0  0  3  0  0  0  0  0  0
  189.0590  177.4920  146.7940 O   0  0  0  0  0  0  0  0  0  0  0  0
  187.9940  176.8200  146.7140 C   0  0  0  0  0  0  0  0  0  0  0  0
  187.9160  175.6910  145.8440 N   0  0  0  0  0  2  0  0  0  0  0  0
  185.1800  178.5040  145.6150 C   0  0  2  0  0  3  0  0  0  0  0  0
  185.5420  176.5700  146.9830 C   0  0  0  0  0  3  0  0  0  0  0  0
  187.3030  179.3100  148.4490 O   0  0  0  0  0  0  0  0  0  0  0  0
  184.0370  179.1120  144.9590 N   0  0  0  0  0  1  0  0  0  0  0  0
  184.8130  177.1950  146.1200 N   0  0  0  0  0  0  0  0  0  0  0  0
  186.6440  178.6840  147.6360 C   0  0  0  0  0  0  0  0  0  0  0  0
  186.7990  177.1880  147.5380 C   0  0  2  0  0  3  0  0  0  0  0  0
  185.6820  179.4150  146.7390 C   0  0  0  0  0  2  0  0  0  0  0  0
  1  9  1  1  0  0  0
  1  6  1  0  0  0  0
  2  3  1  6  0  0  0
  2  5  1  0  0  0  0
  2 13  1  0  0  0  0
  4  7  1  0  0  0  0
  5 14  1  1  0  0  0
  5 16  1  0  0  0  0
  7  3  2  0  0  0  0
  8 23  1  1  0  0  0
  8 12  1  0  0  0  0
 10 18  1  0  0  0  0
 11  4  1  0  0  0  0
 13 18  1  6  0  0  0
 13  8  1  0  0  0  0
 14  1  1  0  0  0  0
 15  4  2  0  0  0  0
 15 20  1  0  0  0  0
 16 12  1  1  0  0  0
 16 17  1  0  0  0  0
 17  6  1  0  0  0  0
 19  3  1  0  0  0  0
 19 10  1  0  0  0  0
 20 19  2  0  0  0  0
 22 21  2  0  0  0  0
 23 22  1  0  0  0  0
 24 27  1  1  0  0  0
 24 28  1  0  0  0  0
 24 31  1  0  0  0  0
 25 30  1  0  0  0  0
 28 25  2  0  0  0  0
 29 26  2  0  0  0  0
 30 22  1  6  0  0  0
 30 29  1  0  0  0  0
 31 29  1  0  0  0  0
M  END
>  <MODEL>
6

>  <REMARK>
 VINA RESULT:      -7.3      1.601      4.494
  Name = 
  2 active torsions:
  status: ('A' for Active; 'I' for Inactive)
    1  A    between atoms: C_5  and  C_30
    2  A    between atoms: C_10  and  N_16
                            x       y       z     vdW  Elec       q    Type
                         _______ _______ _______ _____ _____    ______ ____

>  <TORSDO>
F 2

$$$$
=
 OpenBabel11112417063D

 31 35  0  0  1  0  0  0  0  0999 V2000
  188.1920  173.5420  140.4820 C   0  0  2  0  0  3  0  0  0  0  0  0
  189.6920  176.0840  142.9870 C   0  0  2  0  0  3  0  0  0  0  0  0
  189.2470  176.5350  144.3640 C   0  0  0  0  0  0  0  0  0  0  0  0
  187.5020  176.8670  146.0220 C   0  0  0  0  0  0  0  0  0  0  0  0
  188.9250  174.8480  142.4890 C   0  0  1  0  0  3  0  0  0  0  0  0
  188.7540  172.2650  141.0970 C   0  0  0  0  0  2  0  0  0  0  0  0
  187.9060  176.4200  144.7610 C   0  0  0  0  0  3  0  0  0  0  0  0
  191.6710  174.5900  143.5920 C   0  0  2  0  0  3  0  0  0  0  0  0
  188.2680  173.4610  139.0930 O   0  0  0  0  0  1  0  0  0  0  0  0
  191.5040  177.3170  144.8420 O   0  0  0  0  0  0  0  0  0  0  0  0
  186.0820  176.7270  146.4380 C   0  0  0  0  0  1  0  0  0  0  0  0
  190.9360  173.3900  143.0050 C   0  0  0  0  0  2  0  0  0  0  0  0
  191.2220  175.8850  142.8960 C   0  0  2  0  0  3  0  0  0  0  0  0
  188.9870  174.7520  140.9630 C   0  0  0  0  0  2  0  0  0  0  0  0
  188.4310  177.4450  146.8900 C   0  0  0  0  0  3  0  0  0  0  0  0
  189.4260  173.5570  143.1650 C   0  0  2  0  0  3  0  0  0  0  0  0
  188.6820  172.3350  142.6230 C   0  0  0  0  0  2  0  0  0  0  0  0
  191.9260  177.1030  143.4950 C   0  0  0  0  0  2  0  0  0  0  0  0
  190.1720  177.1520  145.2300 C   0  0  0  0  0  0  0  0  0  0  0  0
  189.7630  177.5890  146.4940 C   0  0  0  0  0  3  0  0  0  0  0  0
  193.4100  173.3910  145.5090 O   0  0  0  0  0  0  0  0  0  0  0  0
  193.9200  173.7860  144.4240 C   0  0  0  0  0  0  0  0  0  0  0  0
  193.1070  174.4070  143.4280 N   0  0  0  0  0  2  0  0  0  0  0  0
  195.7630  170.8870  144.8220 C   0  0  2  0  0  3  0  0  0  0  0  0
  195.6420  172.5690  143.1210 C   0  0  0  0  0  3  0  0  0  0  0  0
  196.4380  174.1740  146.2120 O   0  0  0  0  0  0  0  0  0  0  0  0
  196.3490  169.5630  144.9360 N   0  0  0  0  0  1  0  0  0  0  0  0
  195.8260  171.3330  143.4440 N   0  0  0  0  0  0  0  0  0  0  0  0
  196.1260  173.2850  145.4370 C   0  0  0  0  0  0  0  0  0  0  0  0
  195.3860  173.6210  144.1680 C   0  0  2  0  0  3  0  0  0  0  0  0
  196.4860  171.8590  145.7590 C   0  0  0  0  0  2  0  0  0  0  0  0
  1  9  1  6  0  0  0
  1 14  1  0  0  0  0
  1  6  1  0  0  0  0
  2  3  1  1  0  0  0
  3  7  2  0  0  0  0
  3 19  1  0  0  0  0
  4 11  1  0  0  0  0
  4 15  2  0  0  0  0
  5 14  1  6  0  0  0
  5  2  1  0  0  0  0
  5 16  1  0  0  0  0
  6 17  1  0  0  0  0
  7  4  1  0  0  0  0
  8 23  1  6  0  0  0
 10 19  1  0  0  0  0
 12 16  1  0  0  0  0
 12  8  1  0  0  0  0
 13  2  1  0  0  0  0
 13 18  1  1  0  0  0
 13  8  1  0  0  0  0
 16 17  1  6  0  0  0
 18 10  1  0  0  0  0
 19 20  2  0  0  0  0
 20 15  1  0  0  0  0
 22 21  2  0  0  0  0
 23 22  1  0  0  0  0
 24 27  1  6  0  0  0
 24 31  1  0  0  0  0
 25 28  2  0  0  0  0
 25 30  1  0  0  0  0
 28 24  1  0  0  0  0
 29 31  1  0  0  0  0
 29 26  2  0  0  0  0
 30 22  1  1  0  0  0
 30 29  1  0  0  0  0
M  END
>  <MODEL>
7

>  <REMARK>
 VINA RESULT:      -7.3      3.601      7.542
  Name = 
  2 active torsions:
  status: ('A' for Active; 'I' for Inactive)
    1  A    between atoms: C_5  and  C_30
    2  A    between atoms: C_10  and  N_16
                            x       y       z     vdW  Elec       q    Type
                         _______ _______ _______ _____ _____    ______ ____

>  <TORSDO>
F 2

$$$$
=
 OpenBabel11112417063D

 31 35  0  0  1  0  0  0  0  0999 V2000
  185.4130  177.3810  147.3230 C   0  0  2  0  0  3  0  0  0  0  0  0
  186.7630  176.1840  143.8980 C   0  0  2  0  0  3  0  0  0  0  0  0
  186.5430  176.6930  142.4870 C   0  0  0  0  0  0  0  0  0  0  0  0
  185.1900  177.8700  140.8470 C   0  0  0  0  0  0  0  0  0  0  0  0
  186.2330  177.1530  144.9680 C   0  0  1  0  0  3  0  0  0  0  0  0
  186.3960  178.5210  147.5640 C   0  0  0  0  0  2  0  0  0  0  0  0
  185.3970  177.4320  142.1580 C   0  0  0  0  0  3  0  0  0  0  0  0
  189.1340  177.0210  144.3400 C   0  0  2  0  0  3  0  0  0  0  0  0
  185.1910  176.6980  148.5170 O   0  0  0  0  0  1  0  0  0  0  0  0
  188.5850  175.5790  141.7630 O   0  0  0  0  0  0  0  0  0  0  0  0
  183.9810  178.6660  140.5130 C   0  0  0  0  0  1  0  0  0  0  0  0
  188.6050  177.9050  145.4650 C   0  0  0  0  0  2  0  0  0  0  0  0
  188.2340  175.7880  144.1610 C   0  0  2  0  0  3  0  0  0  0  0  0
  185.9710  176.4160  146.2820 C   0  0  0  0  0  2  0  0  0  0  0  0
  186.1190  177.5580  139.8520 C   0  0  0  0  0  3  0  0  0  0  0  0
  187.1770  178.3560  145.1640 C   0  0  2  0  0  3  0  0  0  0  0  0
  186.6550  179.2830  146.2640 C   0  0  0  0  0  2  0  0  0  0  0  0
  188.7320  174.9070  143.0140 C   0  0  0  0  0  2  0  0  0  0  0  0
  187.4570  176.3510  141.4710 C   0  0  0  0  0  0  0  0  0  0  0  0
  187.2500  176.7990  140.1620 C   0  0  0  0  0  3  0  0  0  0  0  0
  191.5030  178.2840  143.3760 O   0  0  0  0  0  0  0  0  0  0  0  0
  191.6410  177.2910  144.1420 C   0  0  0  0  0  0  0  0  0  0  0  0
  190.4950  176.6060  144.6500 N   0  0  0  0  0  2  0  0  0  0  0  0
  192.6040  174.0010  144.5990 C   0  0  2  0  0  3  0  0  0  0  0  0
  193.5700  175.8840  143.4760 C   0  0  0  0  0  3  0  0  0  0  0  0
  193.0200  176.7900  146.8870 O   0  0  0  0  0  0  0  0  0  0  0  0
  192.8570  172.5720  144.6360 N   0  0  0  0  0  1  0  0  0  0  0  0
  193.3870  174.6070  143.5400 N   0  0  0  0  0  0  0  0  0  0  0  0
  192.9870  176.1240  145.8660 C   0  0  0  0  0  0  0  0  0  0  0  0
  193.0050  176.8080  144.5230 C   0  0  2  0  0  3  0  0  0  0  0  0
  192.9280  174.6230  145.9600 C   0  0  0  0  0  2  0  0  0  0  0  0
  1  6  1  0  0  0  0
  1  9  1  1  0  0  0
  2  3  1  6  0  0  0
  2 13  1  0  0  0  0
  2  5  1  0  0  0  0
  4  7  2  0  0  0  0
  5 16  1  0  0  0  0
  5 14  1  1  0  0  0
  7  3  1  0  0  0  0
  8 23  1  1  0  0  0
  8 12  1  0  0  0  0
 10 18  1  0  0  0  0
 11  4  1  0  0  0  0
 13 18  1  6  0  0  0
 13  8  1  0  0  0  0
 14  1  1  0  0  0  0
 15 20  2  0  0  0  0
 15  4  1  0  0  0  0
 16 12  1  1  0  0  0
 16 17  1  0  0  0  0
 17  6  1  0  0  0  0
 19 10  1  0  0  0  0
 19  3  2  0  0  0  0
 20 19  1  0  0  0  0
 21 22  2  0  0  0  0
 22 23  1  0  0  0  0
 24 27  1  1  0  0  0
 24 31  1  0  0  0  0
 25 28  2  0  0  0  0
 25 30  1  0  0  0  0
 28 24  1  0  0  0  0
 29 31  1  0  0  0  0
 29 26  2  0  0  0  0
 30 22  1  6  0  0  0
 30 29  1  0  0  0  0
M  END
>  <MODEL>
8

>  <REMARK>
 VINA RESULT:      -7.0      3.085      7.678
  Name = 
  2 active torsions:
  status: ('A' for Active; 'I' for Inactive)
    1  A    between atoms: C_5  and  C_30
    2  A    between atoms: C_10  and  N_16
                            x       y       z     vdW  Elec       q    Type
                         _______ _______ _______ _____ _____    ______ ____

>  <TORSDO>
F 2

$$$$
=
 OpenBabel11112417063D

 31 35  0  0  1  0  0  0  0  0999 V2000
  188.2570  173.9190  140.3990 C   0  0  2  0  0  3  0  0  0  0  0  0
  189.2600  176.4140  143.1840 C   0  0  2  0  0  3  0  0  0  0  0  0
  188.6290  176.7490  144.5210 C   0  0  0  0  0  0  0  0  0  0  0  0
  186.6890  176.8540  145.9800 C   0  0  0  0  0  0  0  0  0  0  0  0
  188.6540  175.1560  142.5400 C   0  0  1  0  0  3  0  0  0  0  0  0
  188.8460  172.6530  141.0110 C   0  0  0  0  0  2  0  0  0  0  0  0
  187.2660  176.5130  144.7540 C   0  0  0  0  0  3  0  0  0  0  0  0
  191.2720  175.0360  143.9390 C   0  0  2  0  0  3  0  0  0  0  0  0
  188.4940  173.9250  139.0260 O   0  0  0  0  0  1  0  0  0  0  0  0
  190.7490  177.6650  145.2960 O   0  0  0  0  0  0  0  0  0  0  0  0
  185.2470  176.5870  146.2210 C   0  0  0  0  0  1  0  0  0  0  0  0
  190.7040  173.8210  143.2120 C   0  0  0  0  0  2  0  0  0  0  0  0
  190.8020  176.3330  143.2610 C   0  0  2  0  0  3  0  0  0  0  0  0
  188.8940  175.1540  141.0290 C   0  0  0  0  0  2  0  0  0  0  0  0
  187.4660  177.4470  146.9770 C   0  0  0  0  0  3  0  0  0  0  0  0
  189.1780  173.8670  143.2050 C   0  0  2  0  0  3  0  0  0  0  0  0
  188.5980  172.6280  142.5200 C   0  0  0  0  0  2  0  0  0  0  0  0
  191.3350  177.5620  143.9990 C   0  0  0  0  0  2  0  0  0  0  0  0
  189.3990  177.3800  145.5180 C   0  0  0  0  0  0  0  0  0  0  0  0
  188.8180  177.7110  146.7470 C   0  0  0  0  0  3  0  0  0  0  0  0
  192.9140  175.0320  141.6070 O   0  0  0  0  0  0  0  0  0  0  0  0
  193.4920  174.9830  142.7290 C   0  0  0  0  0  0  0  0  0  0  0  0
  192.7270  174.9690  143.9340 N   0  0  0  0  0  2  0  0  0  0  0  0
  195.3570  173.0180  144.8780 C   0  0  2  0  0  3  0  0  0  0  0  0
  195.4960  173.5360  142.5430 C   0  0  0  0  0  3  0  0  0  0  0  0
  195.5820  176.6070  144.3660 O   0  0  0  0  0  0  0  0  0  0  0  0
  195.9730  172.0490  145.7660 N   0  0  0  0  0  1  0  0  0  0  0  0
  195.6720  172.6890  143.5020 N   0  0  0  0  0  0  0  0  0  0  0  0
  195.4740  175.4100  144.1540 C   0  0  0  0  0  0  0  0  0  0  0  0
  194.9850  174.9270  142.8130 C   0  0  2  0  0  3  0  0  0  0  0  0
  195.8320  174.4290  145.2380 C   0  0  0  0  0  2  0  0  0  0  0  0
  1  9  1  6  0  0  0
  1  6  1  0  0  0  0
  1 14  1  0  0  0  0
  2 13  1  0  0  0  0
  2  3  1  1  0  0  0
  3  7  2  0  0  0  0
  3 19  1  0  0  0  0
  4 11  1  0  0  0  0
  4 15  2  0  0  0  0
  5 14  1  6  0  0  0
  5  2  1  0  0  0  0
  5 16  1  0  0  0  0
  6 17  1  0  0  0  0
  7  4  1  0  0  0  0
  8 23  1  6  0  0  0
 10 19  1  0  0  0  0
 12  8  1  0  0  0  0
 13  8  1  0  0  0  0
 13 18  1  1  0  0  0
 16 17  1  6  0  0  0
 16 12  1  0  0  0  0
 18 10  1  0  0  0  0
 19 20  2  0  0  0  0
 20 15  1  0  0  0  0
 21 22  2  0  0  0  0
 22 23  1  0  0  0  0
 24 31  1  0  0  0  0
 24 27  1  1  0  0  0
 25 30  1  0  0  0  0
 25 28  2  0  0  0  0
 28 24  1  0  0  0  0
 29 26  2  0  0  0  0
 29 31  1  0  0  0  0
 30 22  1  1  0  0  0
 30 29  1  0  0  0  0
M  END
>  <MODEL>
9

>  <REMARK>
 VINA RESULT:      -6.9      3.311      7.238
  Name = 
  2 active torsions:
  status: ('A' for Active; 'I' for Inactive)
    1  A    between atoms: C_5  and  C_30
    2  A    between atoms: C_10  and  N_16
                            x       y       z     vdW  Elec       q    Type
                         _______ _______ _______ _____ _____    ______ ____

>  <TORSDO>
F 2

$$$$
