=
 OpenBabel11112416203D

 30 35  0  0  1  0  0  0  0  0999 V2000
  186.6040  177.3010  143.7720 C   0  0  0  0  0  0  0  0  0  0  0  0
  184.7440  178.2890  145.1370 C   0  0  0  0  0  0  0  0  0  0  0  0
  188.6840  176.2350  147.1560 N   0  0  0  0  0  0  0  0  0  0  0  0
  187.8660  176.6510  143.7200 C   0  0  0  0  0  0  0  0  0  0  0  0
  185.9700  177.6180  142.5610 O   0  0  0  0  0  0  0  0  0  0  0  0
  188.4410  178.3180  141.2070 O   0  0  0  0  0  1  0  0  0  0  0  0
  190.7010  175.5750  142.8170 C   0  0  1  0  0  3  0  0  0  0  0  0
  187.9160  177.0230  141.2460 C   0  0  2  0  0  3  0  0  0  0  0  0
  190.8440  175.4000  144.3110 C   0  0  2  0  0  3  0  0  0  0  0  0
  189.7700  175.7190  146.5410 C   0  0  0  0  0  0  0  0  0  0  0  0
  186.3920  177.0650  141.3150 C   0  0  2  0  0  3  0  0  0  0  0  0
  188.4160  176.3320  142.4300 N   0  0  0  0  0  0  0  0  0  0  0  0
  184.2100  178.5610  146.4010 C   0  0  0  0  0  3  0  0  0  0  0  0
  191.3040  173.9680  144.4800 C   0  0  0  0  0  2  0  0  0  0  0  0
  191.7440  174.6260  142.2630 C   0  0  0  0  0  2  0  0  0  0  0  0
  183.7750  178.8250  143.7700 Cl  0  0  0  0  0  0  0  0  0  0  0  0
  187.9000  176.6060  146.1310 C   0  0  0  0  0  0  0  0  0  0  0  0
  184.8860  178.1900  147.5620 C   0  0  0  0  0  3  0  0  0  0  0  0
  185.9970  177.6230  145.0230 C   0  0  0  0  0  0  0  0  0  0  0  0
  188.4990  176.3190  144.9330 C   0  0  0  0  0  0  0  0  0  0  0  0
  190.9550  175.2430  147.3140 C   0  0  0  0  0  1  0  0  0  0  0  0
  189.7020  175.7410  145.1810 N   0  0  0  0  0  0  0  0  0  0  0  0
  192.0170  173.5940  143.2640 N   0  0  0  0  0  2  0  0  0  0  0  0
  188.7380  173.9020  142.6740 C   0  0  0  0  0  1  0  0  0  0  0  0
  186.1120  177.5380  147.4730 C   0  0  0  0  0  3  0  0  0  0  0  0
  186.6690  177.2520  146.2230 C   0  0  0  0  0  0  0  0  0  0  0  0
  189.3380  175.2340  142.2250 C   0  0  2  0  0  3  0  0  0  0  0  0
  185.7990  177.8470  140.1530 C   0  0  0  0  0  2  0  0  0  0  0  0
  183.4260  177.7790  140.0610 O   0  0  0  0  0  1  0  0  0  0  0  0
  184.5000  178.5040  140.5740 C   0  0  0  0  0  2  0  0  0  0  0  0
  1 19  1  0  0  0  0
  2 13  1  0  0  0  0
  4  1  2  0  0  0  0
  4 20  1  0  0  0  0
  5  1  1  0  0  0  0
  7 15  1  6  0  0  0
  7  9  1  0  0  0  0
  8  6  1  1  0  0  0
  8 11  1  0  0  0  0
  8 12  1  0  0  0  0
  9 14  1  6  0  0  0
  9 22  1  0  0  0  0
 10  3  2  0  0  0  0
 10 21  1  0  0  0  0
 11 28  1  6  0  0  0
 11  5  1  0  0  0  0
 12  4  1  0  0  0  0
 13 18  2  0  0  0  0
 15 23  1  0  0  0  0
 16  2  1  0  0  0  0
 17 26  1  0  0  0  0
 17  3  1  0  0  0  0
 19  2  2  0  0  0  0
 19 26  1  0  0  0  0
 20 22  1  0  0  0  0
 20 17  2  0  0  0  0
 22 10  1  0  0  0  0
 23 14  1  0  0  0  0
 25 18  1  0  0  0  0
 26 25  2  0  0  0  0
 27 12  1  0  0  0  0
 27 24  1  1  0  0  0
 27  7  1  0  0  0  0
 28 30  1  0  0  0  0
 29 30  1  0  0  0  0
M  END
>  <MODEL>
1

>  <REMARK>
 VINA RESULT:      -9.0      0.000      0.000
  Name = 
  2 active torsions:
  status: ('A' for Active; 'I' for Inactive)
    1  A    between atoms: C_11  and  C_28
    2  A    between atoms: C_28  and  C_30
                            x       y       z     vdW  Elec       q    Type
                         _______ _______ _______ _____ _____    ______ ____

>  <TORSDO>
F 2

$$$$
=
 OpenBabel11112416203D

 30 35  0  0  1  0  0  0  0  0999 V2000
  186.8280  177.5980  143.8320 C   0  0  0  0  0  0  0  0  0  0  0  0
  184.7240  178.3630  144.9690 C   0  0  0  0  0  0  0  0  0  0  0  0
  188.8100  177.3170  147.4250 N   0  0  0  0  0  0  0  0  0  0  0  0
  188.1870  177.1950  143.9260 C   0  0  0  0  0  0  0  0  0  0  0  0
  186.2390  177.6570  142.5610 O   0  0  0  0  0  0  0  0  0  0  0  0
  188.6360  178.6570  141.2640 O   0  0  0  0  0  1  0  0  0  0  0  0
  191.2290  176.5790  143.3100 C   0  0  1  0  0  3  0  0  0  0  0  0
  188.3520  177.2980  141.4310 C   0  0  2  0  0  3  0  0  0  0  0  0
  191.2890  176.5970  144.8200 C   0  0  2  0  0  3  0  0  0  0  0  0
  190.0140  176.9500  146.9350 C   0  0  0  0  0  0  0  0  0  0  0  0
  186.8440  177.0610  141.4140 C   0  0  2  0  0  3  0  0  0  0  0  0
  188.8790  176.8470  142.7140 N   0  0  0  0  0  0  0  0  0  0  0  0
  184.0590  178.6660  146.1610 C   0  0  0  0  0  3  0  0  0  0  0  0
  191.9860  175.3040  145.1840 C   0  0  0  0  0  2  0  0  0  0  0  0
  192.4630  175.7870  142.9300 C   0  0  0  0  0  2  0  0  0  0  0  0
  183.7790  178.5550  143.4980 Cl  0  0  0  0  0  0  0  0  0  0  0  0
  188.0500  177.4200  146.3240 C   0  0  0  0  0  0  0  0  0  0  0  0
  184.7020  178.5570  147.3920 C   0  0  0  0  0  3  0  0  0  0  0  0
  186.0810  177.9350  145.0030 C   0  0  0  0  0  0  0  0  0  0  0  0
  188.7770  177.1220  145.2010 C   0  0  0  0  0  0  0  0  0  0  0  0
  191.2040  176.7910  147.8210 C   0  0  0  0  0  1  0  0  0  0  0  0
  190.0430  176.8100  145.5800 N   0  0  0  0  0  0  0  0  0  0  0  0
  192.8440  174.9400  144.0610 N   0  0  0  0  0  2  0  0  0  0  0  0
  189.6150  174.5610  143.2660 C   0  0  0  0  0  1  0  0  0  0  0  0
  186.0290  178.1400  147.4480 C   0  0  0  0  0  3  0  0  0  0  0  0
  186.7190  177.8290  146.2710 C   0  0  0  0  0  0  0  0  0  0  0  0
  189.9960  175.9250  142.6920 C   0  0  2  0  0  3  0  0  0  0  0  0
  186.2080  177.5870  140.1370 C   0  0  0  0  0  2  0  0  0  0  0  0
  185.6060  176.4200  138.1570 O   0  0  0  0  0  1  0  0  0  0  0  0
  186.6960  176.7910  138.9440 C   0  0  0  0  0  2  0  0  0  0  0  0
  1  4  2  0  0  0  0
  1 19  1  0  0  0  0
  2 19  2  0  0  0  0
  2 13  1  0  0  0  0
  4 20  1  0  0  0  0
  5  1  1  0  0  0  0
  7 15  1  6  0  0  0
  7  9  1  0  0  0  0
  8  6  1  1  0  0  0
  8 12  1  0  0  0  0
  9 14  1  1  0  0  0
  9 22  1  0  0  0  0
 10  3  2  0  0  0  0
 10 21  1  0  0  0  0
 11 28  1  6  0  0  0
 11  8  1  0  0  0  0
 11  5  1  0  0  0  0
 12  4  1  0  0  0  0
 13 18  2  0  0  0  0
 15 23  1  0  0  0  0
 16  2  1  0  0  0  0
 17  3  1  0  0  0  0
 18 25  1  0  0  0  0
 19 26  1  0  0  0  0
 20 22  1  0  0  0  0
 20 17  2  0  0  0  0
 22 10  1  0  0  0  0
 23 14  1  0  0  0  0
 26 17  1  0  0  0  0
 26 25  2  0  0  0  0
 27 12  1  0  0  0  0
 27 24  1  1  0  0  0
 27  7  1  0  0  0  0
 29 30  1  0  0  0  0
 30 28  1  0  0  0  0
M  END
>  <MODEL>
2

>  <REMARK>
 VINA RESULT:      -8.5      1.149      1.251
  Name = 
  2 active torsions:
  status: ('A' for Active; 'I' for Inactive)
    1  A    between atoms: C_11  and  C_28
    2  A    between atoms: C_28  and  C_30
                            x       y       z     vdW  Elec       q    Type
                         _______ _______ _______ _____ _____    ______ ____

>  <TORSDO>
F 2

$$$$
=
 OpenBabel11112416203D

 30 35  0  0  1  0  0  0  0  0999 V2000
  189.7650  175.1960  143.8130 C   0  0  0  0  0  0  0  0  0  0  0  0
  191.8680  174.4970  144.9900 C   0  0  0  0  0  0  0  0  0  0  0  0
  188.4990  177.3350  147.0900 N   0  0  0  0  0  0  0  0  0  0  0  0
  188.5310  175.8990  143.8370 C   0  0  0  0  0  0  0  0  0  0  0  0
  190.1100  174.5000  142.6450 O   0  0  0  0  0  0  0  0  0  0  0  0
  187.3920  173.6360  142.1020 O   0  0  0  0  0  1  0  0  0  0  0  0
  185.5790  176.8880  143.2680 C   0  0  1  0  0  3  0  0  0  0  0  0
  187.9290  174.8440  141.6480 C   0  0  2  0  0  3  0  0  0  0  0  0
  185.7740  177.4910  144.6400 C   0  0  2  0  0  3  0  0  0  0  0  0
  187.3100  177.7380  146.5910 C   0  0  0  0  0  0  0  0  0  0  0  0
  189.4300  174.7070  141.4080 C   0  0  2  0  0  3  0  0  0  0  0  0
  187.7120  175.8790  142.6540 N   0  0  0  0  0  0  0  0  0  0  0  0
  192.6650  174.5550  146.1390 C   0  0  0  0  0  3  0  0  0  0  0  0
  185.3800  178.9430  144.4720 C   0  0  0  0  0  2  0  0  0  0  0  0
  184.4520  177.7190  142.6890 C   0  0  0  0  0  2  0  0  0  0  0  0
  192.5030  173.5210  143.6710 Cl  0  0  0  0  0  0  0  0  0  0  0  0
  189.0320  176.6300  146.0800 C   0  0  0  0  0  0  0  0  0  0  0  0
  192.2680  175.2910  147.2530 C   0  0  0  0  0  3  0  0  0  0  0  0
  190.6300  175.1970  144.9490 C   0  0  0  0  0  0  0  0  0  0  0  0
  188.1870  176.6090  145.0020 C   0  0  0  0  0  0  0  0  0  0  0  0
  186.3320  178.5030  147.4190 C   0  0  0  0  0  1  0  0  0  0  0  0
  187.0750  177.3240  145.3140 N   0  0  0  0  0  0  0  0  0  0  0  0
  184.4200  179.0100  143.3760 N   0  0  0  0  0  2  0  0  0  0  0  0
  187.4830  178.2960  142.2340 C   0  0  0  0  0  1  0  0  0  0  0  0
  191.0620  175.9830  147.2340 C   0  0  0  0  0  3  0  0  0  0  0  0
  190.2450  175.9440  146.0990 C   0  0  0  0  0  0  0  0  0  0  0  0
  186.7820  176.9420  142.3320 C   0  0  2  0  0  3  0  0  0  0  0  0
  189.7410  173.5840  140.4310 C   0  0  0  0  0  2  0  0  0  0  0  0
  188.1910  172.6700  138.8780 O   0  0  0  0  0  1  0  0  0  0  0  0
  188.9790  173.7910  139.1370 C   0  0  0  0  0  2  0  0  0  0  0  0
  1  4  2  0  0  0  0
  1 19  1  0  0  0  0
  2 13  1  0  0  0  0
  4 20  1  0  0  0  0
  5  1  1  0  0  0  0
  7 15  1  6  0  0  0
  7  9  1  0  0  0  0
  8  6  1  1  0  0  0
  8 12  1  0  0  0  0
  9 14  1  6  0  0  0
  9 22  1  0  0  0  0
 10  3  2  0  0  0  0
 10 21  1  0  0  0  0
 11 28  1  6  0  0  0
 11  8  1  0  0  0  0
 11  5  1  0  0  0  0
 12  4  1  0  0  0  0
 13 18  2  0  0  0  0
 15 23  1  0  0  0  0
 16  2  1  0  0  0  0
 17 26  1  0  0  0  0
 17  3  1  0  0  0  0
 19  2  2  0  0  0  0
 19 26  1  0  0  0  0
 20 22  1  0  0  0  0
 20 17  2  0  0  0  0
 22 10  1  0  0  0  0
 23 14  1  0  0  0  0
 25 18  1  0  0  0  0
 26 25  2  0  0  0  0
 27 24  1  1  0  0  0
 27 12  1  0  0  0  0
 27  7  1  0  0  0  0
 29 30  1  0  0  0  0
 30 28  1  0  0  0  0
M  END
>  <MODEL>
3

>  <REMARK>
 VINA RESULT:      -8.3      2.946      5.648
  Name = 
  2 active torsions:
  status: ('A' for Active; 'I' for Inactive)
    1  A    between atoms: C_11  and  C_28
    2  A    between atoms: C_28  and  C_30
                            x       y       z     vdW  Elec       q    Type
                         _______ _______ _______ _____ _____    ______ ____

>  <TORSDO>
F 2

$$$$
=
 OpenBabel11112416203D

 30 35  0  0  1  0  0  0  0  0999 V2000
  189.3360  175.3130  144.1250 C   0  0  0  0  0  0  0  0  0  0  0  0
  190.7150  173.6350  142.8680 C   0  0  0  0  0  0  0  0  0  0  0  0
  187.1450  176.2100  140.7610 N   0  0  0  0  0  0  0  0  0  0  0  0
  188.2970  176.2820  144.1250 C   0  0  0  0  0  0  0  0  0  0  0  0
  190.0210  175.0740  145.3250 O   0  0  0  0  0  0  0  0  0  0  0  0
  189.9870  177.8590  146.1460 O   0  0  0  0  0  1  0  0  0  0  0  0
  186.4280  178.7410  144.8130 C   0  0  1  0  0  3  0  0  0  0  0  0
  188.9680  176.9490  146.4430 C   0  0  2  0  0  3  0  0  0  0  0  0
  186.0070  178.5150  143.3790 C   0  0  2  0  0  3  0  0  0  0  0  0
  186.3700  177.1730  141.3060 C   0  0  0  0  0  0  0  0  0  0  0  0
  189.5340  175.5380  146.5840 C   0  0  2  0  0  3  0  0  0  0  0  0
  187.9880  176.9500  145.3620 N   0  0  0  0  0  0  0  0  0  0  0  0
  190.9790  172.9730  141.6640 C   0  0  0  0  0  3  0  0  0  0  0  0
  184.4970  178.4450  143.4360 C   0  0  0  0  0  2  0  0  0  0  0  0
  185.2590  179.5120  145.3910 C   0  0  0  0  0  2  0  0  0  0  0  0
  191.7430  173.1880  144.2250 Cl  0  0  0  0  0  0  0  0  0  0  0  0
  187.9070  175.8120  141.7920 C   0  0  0  0  0  0  0  0  0  0  0  0
  190.2360  173.2440  140.5180 C   0  0  0  0  0  3  0  0  0  0  0  0
  189.6740  174.6020  142.9340 C   0  0  0  0  0  0  0  0  0  0  0  0
  187.5980  176.5150  142.9260 C   0  0  0  0  0  0  0  0  0  0  0  0
  185.4040  177.9590  140.4830 C   0  0  0  0  0  1  0  0  0  0  0  0
  186.6040  177.3920  142.6300 N   0  0  0  0  0  0  0  0  0  0  0  0
  184.0680  179.2310  144.5890 N   0  0  0  0  0  2  0  0  0  0  0  0
  185.5920  176.4160  145.5660 C   0  0  0  0  0  1  0  0  0  0  0  0
  189.2130  174.1860  140.5590 C   0  0  0  0  0  3  0  0  0  0  0  0
  188.9260  174.8620  141.7500 C   0  0  0  0  0  0  0  0  0  0  0  0
  186.6750  177.4900  145.6490 C   0  0  2  0  0  3  0  0  0  0  0  0
  190.6290  175.4770  147.6380 C   0  0  0  0  0  2  0  0  0  0  0  0
  192.7140  176.4030  146.9720 O   0  0  0  0  0  1  0  0  0  0  0  0
  191.9720  175.2230  146.9820 C   0  0  0  0  0  2  0  0  0  0  0  0
  1  5  1  0  0  0  0
  2 19  1  0  0  0  0
  2 16  1  0  0  0  0
  3 10  2  0  0  0  0
  3 17  1  0  0  0  0
  4  1  1  0  0  0  0
  4 12  1  0  0  0  0
  5 11  1  0  0  0  0
  7 15  1  1  0  0  0
  7 27  1  0  0  0  0
  8  6  1  6  0  0  0
  8 11  1  0  0  0  0
  9 14  1  1  0  0  0
  9  7  1  0  0  0  0
 10 22  1  0  0  0  0
 11 28  1  1  0  0  0
 12 27  1  0  0  0  0
 12  8  1  0  0  0  0
 13  2  2  0  0  0  0
 14 23  1  0  0  0  0
 17 20  1  0  0  0  0
 18 25  2  0  0  0  0
 18 13  1  0  0  0  0
 19  1  2  0  0  0  0
 20  4  2  0  0  0  0
 21 10  1  0  0  0  0
 22 20  1  0  0  0  0
 22  9  1  0  0  0  0
 23 15  1  0  0  0  0
 25 26  1  0  0  0  0
 26 17  2  0  0  0  0
 26 19  1  0  0  0  0
 27 24  1  6  0  0  0
 29 30  1  0  0  0  0
 30 28  1  0  0  0  0
M  END
>  <MODEL>
4

>  <REMARK>
 VINA RESULT:      -8.1      3.221      7.139
  Name = 
  2 active torsions:
  status: ('A' for Active; 'I' for Inactive)
    1  A    between atoms: C_11  and  C_28
    2  A    between atoms: C_28  and  C_30
                            x       y       z     vdW  Elec       q    Type
                         _______ _______ _______ _____ _____    ______ ____

>  <TORSDO>
F 2

$$$$
=
 OpenBabel11112416203D

 30 35  0  0  1  0  0  0  0  0999 V2000
  190.2250  175.1540  144.0850 C   0  0  0  0  0  0  0  0  0  0  0  0
  191.9350  174.5920  145.8350 C   0  0  0  0  0  0  0  0  0  0  0  0
  188.0890  177.4570  146.7390 N   0  0  0  0  0  0  0  0  0  0  0  0
  189.0240  175.8210  143.7240 C   0  0  0  0  0  0  0  0  0  0  0  0
  190.8850  174.3970  143.1060 O   0  0  0  0  0  0  0  0  0  0  0  0
  188.4280  173.4200  141.9040 O   0  0  0  0  0  1  0  0  0  0  0  0
  186.3300  176.6850  142.3070 C   0  0  1  0  0  3  0  0  0  0  0  0
  189.0550  174.6130  141.5320 C   0  0  2  0  0  3  0  0  0  0  0  0
  186.1350  177.3790  143.6360 C   0  0  2  0  0  3  0  0  0  0  0  0
  187.0770  177.7920  145.9090 C   0  0  0  0  0  0  0  0  0  0  0  0
  190.5660  174.5050  141.7190 C   0  0  2  0  0  3  0  0  0  0  0  0
  188.5610  175.7030  142.3670 N   0  0  0  0  0  0  0  0  0  0  0  0
  192.3860  174.7460  147.1500 C   0  0  0  0  0  3  0  0  0  0  0  0
  185.7870  178.8050  143.2680 C   0  0  0  0  0  2  0  0  0  0  0  0
  185.3950  177.4440  141.3880 C   0  0  0  0  0  2  0  0  0  0  0  0
  192.9170  173.5550  144.8080 Cl  0  0  0  0  0  0  0  0  0  0  0  0
  188.8850  176.7050  145.9630 C   0  0  0  0  0  0  0  0  0  0  0  0
  191.6920  175.5380  148.0610 C   0  0  0  0  0  3  0  0  0  0  0  0
  190.7470  175.2520  145.4110 C   0  0  0  0  0  0  0  0  0  0  0  0
  188.3670  176.5920  144.7000 C   0  0  0  0  0  0  0  0  0  0  0  0
  185.9020  178.5800  146.3850 C   0  0  0  0  0  1  0  0  0  0  0  0
  187.2050  177.2930  144.6480 N   0  0  0  0  0  0  0  0  0  0  0  0
  185.1620  178.7750  141.9500 N   0  0  0  0  0  2  0  0  0  0  0  0
  188.4290  178.0800  141.7360 C   0  0  0  0  0  1  0  0  0  0  0  0
  190.5290  176.1930  147.6670 C   0  0  0  0  0  3  0  0  0  0  0  0
  190.0540  176.0580  146.3580 C   0  0  0  0  0  0  0  0  0  0  0  0
  187.7420  176.7150  141.7320 C   0  0  2  0  0  3  0  0  0  0  0  0
  191.1440  173.3320  140.9430 C   0  0  0  0  0  2  0  0  0  0  0  0
  193.5180  173.2260  140.9090 O   0  0  0  0  0  1  0  0  0  0  0  0
  192.4170  173.7510  140.2340 C   0  0  0  0  0  2  0  0  0  0  0  0
  1 19  1  0  0  0  0
  2 13  1  0  0  0  0
  4  1  2  0  0  0  0
  4 20  1  0  0  0  0
  5  1  1  0  0  0  0
  7 15  1  6  0  0  0
  7  9  1  0  0  0  0
  8 11  1  0  0  0  0
  8  6  1  1  0  0  0
  8 12  1  0  0  0  0
  9 14  1  6  0  0  0
  9 22  1  0  0  0  0
 10 21  1  0  0  0  0
 10  3  2  0  0  0  0
 11 28  1  6  0  0  0
 11  5  1  0  0  0  0
 12  4  1  0  0  0  0
 13 18  2  0  0  0  0
 15 23  1  0  0  0  0
 16  2  1  0  0  0  0
 17 26  1  0  0  0  0
 17  3  1  0  0  0  0
 19  2  2  0  0  0  0
 19 26  1  0  0  0  0
 20 17  2  0  0  0  0
 22 20  1  0  0  0  0
 22 10  1  0  0  0  0
 23 14  1  0  0  0  0
 25 18  1  0  0  0  0
 26 25  2  0  0  0  0
 27 24  1  1  0  0  0
 27  7  1  0  0  0  0
 27 12  1  0  0  0  0
 30 29  1  0  0  0  0
 30 28  1  0  0  0  0
M  END
>  <MODEL>
5

>  <REMARK>
 VINA RESULT:      -7.4      3.025      5.938
  Name = 
  2 active torsions:
  status: ('A' for Active; 'I' for Inactive)
    1  A    between atoms: C_11  and  C_28
    2  A    between atoms: C_28  and  C_30
                            x       y       z     vdW  Elec       q    Type
                         _______ _______ _______ _____ _____    ______ ____

>  <TORSDO>
F 2

$$$$
=
 OpenBabel11112416203D

 30 35  0  0  1  0  0  0  0  0999 V2000
  188.7970  176.0680  144.3980 C   0  0  0  0  0  0  0  0  0  0  0  0
  189.4980  176.9110  146.6560 C   0  0  0  0  0  0  0  0  0  0  0  0
  192.3310  174.0150  143.9340 N   0  0  0  0  0  0  0  0  0  0  0  0
  189.0940  175.3110  143.2330 C   0  0  0  0  0  0  0  0  0  0  0  0
  187.5610  176.7270  144.4640 O   0  0  0  0  0  0  0  0  0  0  0  0
  187.5540  177.4440  141.6500 O   0  0  0  0  0  1  0  0  0  0  0  0
  189.1700  174.1650  140.2840 C   0  0  1  0  0  3  0  0  0  0  0  0
  187.0400  176.2420  142.1480 C   0  0  2  0  0  3  0  0  0  0  0  0
  190.4930  173.6310  140.7830 C   0  0  2  0  0  3  0  0  0  0  0  0
  192.0970  173.5380  142.6920 C   0  0  0  0  0  0  0  0  0  0  0  0
  186.4950  176.4370  143.5600 C   0  0  2  0  0  3  0  0  0  0  0  0
  188.1020  175.2430  142.1930 N   0  0  0  0  0  0  0  0  0  0  0  0
  190.4610  176.9380  147.6690 C   0  0  0  0  0  3  0  0  0  0  0  0
  190.4560  172.1570  140.4410 C   0  0  0  0  0  2  0  0  0  0  0  0
  188.8600  173.2610  139.1090 C   0  0  0  0  0  2  0  0  0  0  0  0
  188.0450  177.8570  146.9590 Cl  0  0  0  0  0  0  0  0  0  0  0  0
  191.2110  174.7000  144.2140 C   0  0  0  0  0  0  0  0  0  0  0  0
  191.6560  176.2340  147.5450 C   0  0  0  0  0  3  0  0  0  0  0  0
  189.7320  176.1540  145.4730 C   0  0  0  0  0  0  0  0  0  0  0  0
  190.3270  174.6360  143.1690 C   0  0  0  0  0  0  0  0  0  0  0  0
  193.1310  172.7650  141.9430 C   0  0  0  0  0  1  0  0  0  0  0  0
  190.8820  173.8850  142.1830 N   0  0  0  0  0  0  0  0  0  0  0  0
  189.5810  172.0000  139.2850 N   0  0  0  0  0  2  0  0  0  0  0  0
  187.8160  172.8030  142.0130 C   0  0  0  0  0  1  0  0  0  0  0  0
  191.9060  175.4870  146.3970 C   0  0  0  0  0  3  0  0  0  0  0  0
  190.9600  175.4400  145.3680 C   0  0  0  0  0  0  0  0  0  0  0  0
  188.0110  174.1260  141.2750 C   0  0  2  0  0  3  0  0  0  0  0  0
  185.4390  177.5310  143.6070 C   0  0  0  0  0  2  0  0  0  0  0  0
  185.5660  179.8870  143.8870 O   0  0  0  0  0  1  0  0  0  0  0  0
  185.9100  178.6750  144.4830 C   0  0  0  0  0  2  0  0  0  0  0  0
  1  5  1  0  0  0  0
  1 19  1  0  0  0  0
  2 16  1  0  0  0  0
  2 13  1  0  0  0  0
  3 17  1  0  0  0  0
  4  1  2  0  0  0  0
  7 15  1  6  0  0  0
  7  9  1  0  0  0  0
  7 27  1  0  0  0  0
  8  6  1  1  0  0  0
  8 12  1  0  0  0  0
  8 11  1  0  0  0  0
  9 14  1  1  0  0  0
  9 22  1  0  0  0  0
 10  3  2  0  0  0  0
 11 28  1  6  0  0  0
 11  5  1  0  0  0  0
 12  4  1  0  0  0  0
 15 23  1  0  0  0  0
 17 26  1  0  0  0  0
 18 13  2  0  0  0  0
 19  2  2  0  0  0  0
 20  4  1  0  0  0  0
 20 17  2  0  0  0  0
 21 10  1  0  0  0  0
 22 10  1  0  0  0  0
 22 20  1  0  0  0  0
 23 14  1  0  0  0  0
 25 18  1  0  0  0  0
 26 19  1  0  0  0  0
 26 25  2  0  0  0  0
 27 24  1  1  0  0  0
 27 12  1  0  0  0  0
 28 30  1  0  0  0  0
 29 30  1  0  0  0  0
M  END
>  <MODEL>
6

>  <REMARK>
 VINA RESULT:      -7.4      2.376      4.243
  Name = 
  2 active torsions:
  status: ('A' for Active; 'I' for Inactive)
    1  A    between atoms: C_11  and  C_28
    2  A    between atoms: C_28  and  C_30
                            x       y       z     vdW  Elec       q    Type
                         _______ _______ _______ _____ _____    ______ ____

>  <TORSDO>
F 2

$$$$
=
 OpenBabel11112416203D

 30 35  0  0  1  0  0  0  0  0999 V2000
  188.3170  176.9700  145.0230 C   0  0  0  0  0  0  0  0  0  0  0  0
  186.1080  178.1600  145.0740 C   0  0  0  0  0  0  0  0  0  0  0  0
  187.5370  175.4310  141.2890 N   0  0  0  0  0  0  0  0  0  0  0  0
  189.2280  176.1190  144.3410 C   0  0  0  0  0  0  0  0  0  0  0  0
  188.6780  177.4490  146.2900 O   0  0  0  0  0  0  0  0  0  0  0  0
  189.9680  174.9740  147.0920 O   0  0  0  0  0  1  0  0  0  0  0  0
  191.5350  174.0710  143.6340 C   0  0  1  0  0  3  0  0  0  0  0  0
  190.6220  176.0080  146.4160 C   0  0  2  0  0  3  0  0  0  0  0  0
  190.7210  173.9620  142.3660 C   0  0  2  0  0  3  0  0  0  0  0  0
  188.6670  174.7020  141.1580 C   0  0  0  0  0  0  0  0  0  0  0  0
  190.0140  177.3590  146.7850 C   0  0  2  0  0  3  0  0  0  0  0  0
  190.4820  175.8130  144.9770 N   0  0  0  0  0  0  0  0  0  0  0  0
  184.9090  178.4730  144.4250 C   0  0  0  0  0  3  0  0  0  0  0  0
  191.7270  174.1640  141.2540 C   0  0  0  0  0  2  0  0  0  0  0  0
  192.8990  173.5680  143.2070 C   0  0  0  0  0  2  0  0  0  0  0  0
  186.3080  178.8510  146.6800 Cl  0  0  0  0  0  0  0  0  0  0  0  0
  187.6870  176.0140  142.4880 C   0  0  0  0  0  0  0  0  0  0  0  0
  184.6320  177.9810  143.1510 C   0  0  0  0  0  3  0  0  0  0  0  0
  187.0670  177.3270  144.4320 C   0  0  0  0  0  0  0  0  0  0  0  0
  188.8760  175.6470  143.0630 C   0  0  0  0  0  0  0  0  0  0  0  0
  188.8930  173.8130  139.9800 C   0  0  0  0  0  1  0  0  0  0  0  0
  189.5210  174.8070  142.2140 N   0  0  0  0  0  0  0  0  0  0  0  0
  193.0270  173.7320  141.7590 N   0  0  0  0  0  2  0  0  0  0  0  0
  192.0570  176.5710  143.2420 C   0  0  0  0  0  1  0  0  0  0  0  0
  185.5560  177.1660  142.5050 C   0  0  0  0  0  3  0  0  0  0  0  0
  186.7640  176.8370  143.1300 C   0  0  0  0  0  0  0  0  0  0  0  0
  191.6730  175.4700  144.2280 C   0  0  2  0  0  3  0  0  0  0  0  0
  190.0460  177.5960  148.2870 C   0  0  0  0  0  2  0  0  0  0  0  0
  191.5670  178.2900  149.9760 O   0  0  0  0  0  1  0  0  0  0  0  0
  191.4750  177.5620  148.7910 C   0  0  0  0  0  2  0  0  0  0  0  0
  1  5  1  0  0  0  0
  2 16  1  0  0  0  0
  3 17  1  0  0  0  0
  4 12  1  0  0  0  0
  4  1  2  0  0  0  0
  5 11  1  0  0  0  0
  7 15  1  6  0  0  0
  7 27  1  0  0  0  0
  8 11  1  0  0  0  0
  8  6  1  1  0  0  0
  9 14  1  6  0  0  0
  9  7  1  0  0  0  0
 10  3  2  0  0  0  0
 10 22  1  0  0  0  0
 11 28  1  1  0  0  0
 12  8  1  0  0  0  0
 13  2  2  0  0  0  0
 14 23  1  0  0  0  0
 17 20  2  0  0  0  0
 17 26  1  0  0  0  0
 18 13  1  0  0  0  0
 19  1  1  0  0  0  0
 19  2  1  0  0  0  0
 20  4  1  0  0  0  0
 21 10  1  0  0  0  0
 22  9  1  0  0  0  0
 22 20  1  0  0  0  0
 23 15  1  0  0  0  0
 25 26  1  0  0  0  0
 25 18  2  0  0  0  0
 26 19  2  0  0  0  0
 27 24  1  6  0  0  0
 27 12  1  0  0  0  0
 28 30  1  0  0  0  0
 30 29  1  0  0  0  0
M  END
>  <MODEL>
7

>  <REMARK>
 VINA RESULT:      -7.4      2.753      5.225
  Name = 
  2 active torsions:
  status: ('A' for Active; 'I' for Inactive)
    1  A    between atoms: C_11  and  C_28
    2  A    between atoms: C_28  and  C_30
                            x       y       z     vdW  Elec       q    Type
                         _______ _______ _______ _____ _____    ______ ____

>  <TORSDO>
F 2

$$$$
=
 OpenBabel11112416203D

 30 35  0  0  1  0  0  0  0  0999 V2000
  187.3450  177.3320  144.1440 C   0  0  0  0  0  0  0  0  0  0  0  0
  185.4960  178.4690  142.8830 C   0  0  0  0  0  0  0  0  0  0  0  0
  188.5460  175.2920  140.7800 N   0  0  0  0  0  0  0  0  0  0  0  0
  188.4330  176.4180  144.1520 C   0  0  0  0  0  0  0  0  0  0  0  0
  187.0170  177.9830  145.3420 O   0  0  0  0  0  0  0  0  0  0  0  0
  187.5710  175.6660  147.0010 O   0  0  0  0  0  1  0  0  0  0  0  0
  190.6620  174.3460  145.0180 C   0  0  1  0  0  3  0  0  0  0  0  0
  188.5340  176.6150  146.6450 C   0  0  2  0  0  3  0  0  0  0  0  0
  190.6230  174.0500  143.5370 C   0  0  2  0  0  3  0  0  0  0  0  0
  189.5400  174.5780  141.3510 C   0  0  0  0  0  0  0  0  0  0  0  0
  187.8920  177.9890  146.4690 C   0  0  2  0  0  3  0  0  0  0  0  0
  189.1540  176.2270  145.3820 N   0  0  0  0  0  0  0  0  0  0  0  0
  184.8290  178.6660  141.6700 C   0  0  0  0  0  3  0  0  0  0  0  0
  192.0700  174.1250  143.1000 C   0  0  0  0  0  2  0  0  0  0  0  0
  192.0210  173.8200  145.4340 C   0  0  0  0  0  2  0  0  0  0  0  0
  184.8660  179.3720  144.2560 Cl  0  0  0  0  0  0  0  0  0  0  0  0
  188.0790  176.0330  141.7970 C   0  0  0  0  0  0  0  0  0  0  0  0
  185.2310  178.0030  140.5130 C   0  0  0  0  0  3  0  0  0  0  0  0
  186.6050  177.5800  142.9480 C   0  0  0  0  0  0  0  0  0  0  0  0
  188.7740  175.7720  142.9480 C   0  0  0  0  0  0  0  0  0  0  0  0
  190.3010  173.5450  140.5880 C   0  0  0  0  0  1  0  0  0  0  0  0
  189.7230  174.8410  142.6760 N   0  0  0  0  0  0  0  0  0  0  0  0
  192.8920  173.7930  144.2590 N   0  0  0  0  0  2  0  0  0  0  0  0
  191.4380  176.7820  144.6470 C   0  0  0  0  0  1  0  0  0  0  0  0
  186.3130  177.1300  140.5530 C   0  0  0  0  0  3  0  0  0  0  0  0
  187.0000  176.9140  141.7520 C   0  0  0  0  0  0  0  0  0  0  0  0
  190.5410  175.8130  145.4160 C   0  0  2  0  0  3  0  0  0  0  0  0
  187.1490  178.4250  147.7220 C   0  0  0  0  0  2  0  0  0  0  0  0
  184.7780  178.2910  147.6380 O   0  0  0  0  0  1  0  0  0  0  0  0
  185.8570  179.1240  147.3480 C   0  0  0  0  0  2  0  0  0  0  0  0
  1  4  1  0  0  0  0
  1  5  1  0  0  0  0
  2 19  1  0  0  0  0
  2 16  1  0  0  0  0
  3 10  2  0  0  0  0
  3 17  1  0  0  0  0
  4 12  1  0  0  0  0
  5 11  1  0  0  0  0
  7 27  1  0  0  0  0
  7 15  1  6  0  0  0
  8  6  1  6  0  0  0
  9 14  1  6  0  0  0
  9  7  1  0  0  0  0
 10 22  1  0  0  0  0
 11  8  1  0  0  0  0
 11 28  1  1  0  0  0
 12 27  1  0  0  0  0
 12  8  1  0  0  0  0
 13  2  2  0  0  0  0
 14 23  1  0  0  0  0
 17 20  1  0  0  0  0
 18 25  2  0  0  0  0
 18 13  1  0  0  0  0
 19  1  2  0  0  0  0
 20  4  2  0  0  0  0
 21 10  1  0  0  0  0
 22 20  1  0  0  0  0
 22  9  1  0  0  0  0
 23 15  1  0  0  0  0
 25 26  1  0  0  0  0
 26 17  2  0  0  0  0
 26 19  1  0  0  0  0
 27 24  1  6  0  0  0
 30 29  1  0  0  0  0
 30 28  1  0  0  0  0
M  END
>  <MODEL>
8

>  <REMARK>
 VINA RESULT:      -7.4      2.001      4.635
  Name = 
  2 active torsions:
  status: ('A' for Active; 'I' for Inactive)
    1  A    between atoms: C_11  and  C_28
    2  A    between atoms: C_28  and  C_30
                            x       y       z     vdW  Elec       q    Type
                         _______ _______ _______ _____ _____    ______ ____

>  <TORSDO>
F 2

$$$$
=
 OpenBabel11112416203D

 30 35  0  0  1  0  0  0  0  0999 V2000
  189.5430  175.8480  144.2620 C   0  0  0  0  0  0  0  0  0  0  0  0
  190.6970  176.5260  146.3840 C   0  0  0  0  0  0  0  0  0  0  0  0
  192.7000  173.4470  143.1710 N   0  0  0  0  0  0  0  0  0  0  0  0
  189.5570  175.1070  143.0490 C   0  0  0  0  0  0  0  0  0  0  0  0
  188.4170  176.6330  144.5470 O   0  0  0  0  0  0  0  0  0  0  0  0
  188.0250  177.4500  141.7890 O   0  0  0  0  0  1  0  0  0  0  0  0
  189.0170  174.0710  140.1090 C   0  0  1  0  0  3  0  0  0  0  0  0
  187.4690  176.2930  142.3430 C   0  0  2  0  0  3  0  0  0  0  0  0
  190.3360  173.3800  140.3670 C   0  0  2  0  0  3  0  0  0  0  0  0
  192.2130  173.0450  141.9770 C   0  0  0  0  0  0  0  0  0  0  0  0
  187.1900  176.4920  143.8300 C   0  0  2  0  0  3  0  0  0  0  0  0
  188.4060  175.1840  142.1900 N   0  0  0  0  0  0  0  0  0  0  0  0
  191.8120  176.4130  147.2220 C   0  0  0  0  0  3  0  0  0  0  0  0
  190.0790  171.9320  140.0090 C   0  0  0  0  0  2  0  0  0  0  0  0
  188.4180  173.2490  138.9850 C   0  0  0  0  0  2  0  0  0  0  0  0
  189.4300  177.6100  146.9460 Cl  0  0  0  0  0  0  0  0  0  0  0  0
  191.7260  174.2380  143.6480 C   0  0  0  0  0  0  0  0  0  0  0  0
  192.8830  175.5890  146.8850 C   0  0  0  0  0  3  0  0  0  0  0  0
  190.6470  175.7930  145.1660 C   0  0  0  0  0  0  0  0  0  0  0  0
  190.6800  174.3070  142.7660 C   0  0  0  0  0  0  0  0  0  0  0  0
  193.0160  172.1940  141.0500 C   0  0  0  0  0  1  0  0  0  0  0  0
  190.9770  173.5390  141.6870 N   0  0  0  0  0  0  0  0  0  0  0  0
  189.0120  171.9120  139.0130 N   0  0  0  0  0  2  0  0  0  0  0  0
  187.8240  172.7970  142.0140 C   0  0  0  0  0  1  0  0  0  0  0  0
  192.8550  174.8630  145.6980 C   0  0  0  0  0  3  0  0  0  0  0  0
  191.7530  174.9570  144.8410 C   0  0  0  0  0  0  0  0  0  0  0  0
  188.0400  174.1190  141.2790 C   0  0  2  0  0  3  0  0  0  0  0  0
  186.2860  177.6900  144.0750 C   0  0  0  0  0  2  0  0  0  0  0  0
  185.5080  176.6470  146.0640 O   0  0  0  0  0  1  0  0  0  0  0  0
  186.0130  177.8440  145.5580 C   0  0  0  0  0  2  0  0  0  0  0  0
  1  5  1  0  0  0  0
  1 19  1  0  0  0  0
  2 16  1  0  0  0  0
  2 13  1  0  0  0  0
  3 17  1  0  0  0  0
  4  1  2  0  0  0  0
  7 15  1  6  0  0  0
  7  9  1  0  0  0  0
  7 27  1  0  0  0  0
  8  6  1  1  0  0  0
  8 11  1  0  0  0  0
  9 14  1  1  0  0  0
  9 22  1  0  0  0  0
 10  3  2  0  0  0  0
 11 28  1  6  0  0  0
 11  5  1  0  0  0  0
 12  8  1  0  0  0  0
 12  4  1  0  0  0  0
 15 23  1  0  0  0  0
 17 26  1  0  0  0  0
 18 13  2  0  0  0  0
 19  2  2  0  0  0  0
 20  4  1  0  0  0  0
 20 17  2  0  0  0  0
 21 10  1  0  0  0  0
 22 10  1  0  0  0  0
 22 20  1  0  0  0  0
 23 14  1  0  0  0  0
 25 18  1  0  0  0  0
 26 19  1  0  0  0  0
 26 25  2  0  0  0  0
 27 24  1  1  0  0  0
 27 12  1  0  0  0  0
 28 30  1  0  0  0  0
 30 29  1  0  0  0  0
M  END
>  <MODEL>
9

>  <REMARK>
 VINA RESULT:      -7.2      2.476      5.030
  Name = 
  2 active torsions:
  status: ('A' for Active; 'I' for Inactive)
    1  A    between atoms: C_11  and  C_28
    2  A    between atoms: C_28  and  C_30
                            x       y       z     vdW  Elec       q    Type
                         _______ _______ _______ _____ _____    ______ ____

>  <TORSDO>
F 2

$$$$
