=
 OpenBabel11112417493D

 34 40  0  0  1  0  0  0  0  0999 V2000
  189.5230  176.8380  142.9780 C   0  0  0  0  0  0  0  0  0  0  0  0
  191.9670  176.5910  142.4990 C   0  0  0  0  0  2  0  0  0  0  0  0
  185.4500  178.6670  147.7120 C   0  0  1  0  0  3  0  0  0  0  0  0
  187.4980  177.7200  143.9490 C   0  0  0  0  0  0  0  0  0  0  0  0
  186.7530  176.8800  146.2470 C   0  0  2  0  0  3  0  0  0  0  0  0
  186.0180  176.5090  148.4560 O   0  0  0  0  0  0  0  0  0  0  0  0
  186.4360  179.6530  147.7040 O   0  0  0  0  0  1  0  0  0  0  0  0
  184.0230  177.9370  145.6880 C   0  0  0  0  0  2  0  0  0  0  0  0
  191.0280  175.2420  144.2800 N   0  0  2  0  0  0  0  0  0  0  0  0
  193.0510  175.0430  146.7940 C   0  0  0  0  0  2  0  0  0  0  0  0
  188.2400  176.6750  146.4960 C   0  0  0  0  0  2  0  0  0  0  0  0
  185.0790  177.8490  144.5830 C   0  0  0  0  0  2  0  0  0  0  0  0
  190.3790  175.8250  145.4790 C   0  0  1  0  0  3  0  0  0  0  0  0
  193.0580  175.7110  143.0270 C   0  0  0  0  0  2  0  0  0  0  0  0
  186.5260  177.8820  145.0970 C   0  0  2  0  0  3  0  0  0  0  0  0
  184.3390  179.0290  146.7100 C   0  0  0  0  0  2  0  0  0  0  0  0
  193.1720  175.9040  145.5450 C   0  0  2  0  0  3  0  0  0  0  0  0
  188.6400  176.9000  144.0580 C   0  0  0  0  0  0  0  0  0  0  0  0
  186.0750  177.3030  147.5300 C   0  0  0  0  0  0  0  0  0  0  0  0
  188.8780  176.0400  145.2630 C   0  0  2  0  0  3  0  0  0  0  0  0
  188.1860  178.3830  141.7820 C   0  0  0  0  0  3  0  0  0  0  0  0
  191.7380  175.3070  147.5100 C   0  0  0  0  0  2  0  0  0  0  0  0
  187.3160  178.4590  142.8200 N   0  0  0  0  0  0  0  0  0  0  0  0
  190.5590  174.8730  146.6610 C   0  0  0  0  0  2  0  0  0  0  0  0
  192.5140  175.1780  144.3440 C   0  0  1  0  0  3  0  0  0  0  0  0
  189.2700  177.5720  141.8610 N   0  0  0  0  0  0  0  0  0  0  0  0
  190.7150  175.9160  142.9990 C   0  0  1  0  0  3  0  0  0  0  0  0
  194.5300  176.1350  145.3030 O   0  0  0  0  0  0  0  0  0  0  0  0
  195.1950  175.1440  146.0290 C   0  0  0  0  0  2  0  0  0  0  0  0
  195.7370  173.3940  143.2750 O   0  0  0  0  0  0  0  0  0  0  0  0
  196.5770  175.4260  144.0590 N   0  0  0  0  0  2  0  0  0  0  0  0
  196.3370  174.5790  145.2050 C   0  0  2  0  0  3  0  0  0  0  0  0
  196.4970  174.5200  142.9240 C   0  0  0  0  0  2  0  0  0  0  0  0
  195.9410  173.2380  144.6490 C   0  0  0  0  0  2  0  0  0  0  0  0
  1 27  1  0  0  0  0
  1 18  1  0  0  0  0
  2 27  1  0  0  0  0
  2 14  1  0  0  0  0
  3  7  1  6  0  0  0
  4 18  2  0  0  0  0
  4 15  1  0  0  0  0
  5 11  1  1  0  0  0
  5 19  1  0  0  0  0
  8 16  1  0  0  0  0
  9 25  1  0  0  0  0
  9 13  1  0  0  0  0
 10 22  1  0  0  0  0
 12 15  1  0  0  0  0
 12  8  1  0  0  0  0
 13 24  1  0  0  0  0
 14 25  1  0  0  0  0
 15  5  1  0  0  0  0
 16  3  1  0  0  0  0
 17 10  1  0  0  0  0
 18 20  1  0  0  0  0
 19  3  1  0  0  0  0
 19  6  2  0  0  0  0
 20 13  1  0  0  0  0
 20 11  1  0  0  0  0
 21 26  1  0  0  0  0
 21 23  2  0  0  0  0
 23  4  1  0  0  0  0
 24 22  1  0  0  0  0
 25 17  1  0  0  0  0
 26  1  2  0  0  0  0
 27  9  1  0  0  0  0
 28 17  1  0  0  0  0
 28 29  1  0  0  0  0
 30 34  1  0  0  0  0
 31 32  1  0  0  0  0
 32 29  1  0  0  0  0
 33 30  1  0  0  0  0
 33 31  1  0  0  0  0
 34 32  1  0  0  0  0
M  END
>  <MODEL>
1

>  <REMARK>
 VINA RESULT:      -8.1      0.000      0.000
  Name = 
  3 active torsions:
  status: ('A' for Active; 'I' for Inactive)
    1  A    between atoms: C_17  and  O_28
    2  A    between atoms: O_28  and  C_29
    3  A    between atoms: C_29  and  C_32
                            x       y       z     vdW  Elec       q    Type
                         _______ _______ _______ _____ _____    ______ ____

>  <TORSDO>
F 3

$$$$
=
 OpenBabel11112417493D

 34 40  0  0  1  0  0  0  0  0999 V2000
  189.1150  175.1970  141.8260 C   0  0  0  0  0  0  0  0  0  0  0  0
  186.8440  175.6770  142.7650 C   0  0  0  0  0  2  0  0  0  0  0  0
  194.9820  173.0300  143.6240 C   0  0  1  0  0  3  0  0  0  0  0  0
  191.2640  174.1300  141.5700 C   0  0  0  0  0  0  0  0  0  0  0  0
  193.2230  174.9190  143.0130 C   0  0  2  0  0  3  0  0  0  0  0  0
  195.0890  175.2410  144.4180 O   0  0  0  0  0  0  0  0  0  0  0  0
  194.0860  172.1450  144.2260 O   0  0  0  0  0  1  0  0  0  0  0  0
  195.0910  173.5920  141.1070 C   0  0  0  0  0  2  0  0  0  0  0  0
  188.7150  176.9480  143.6380 N   0  0  2  0  0  0  0  0  0  0  0  0
  188.4550  177.3740  146.8320 C   0  0  0  0  0  2  0  0  0  0  0  0
  192.1470  175.2720  144.0300 C   0  0  0  0  0  2  0  0  0  0  0  0
  193.6090  173.7700  140.7680 C   0  0  0  0  0  2  0  0  0  0  0  0
  189.8750  176.3180  144.3120 C   0  0  1  0  0  3  0  0  0  0  0  0
  186.3030  176.6660  143.7500 C   0  0  0  0  0  2  0  0  0  0  0  0
  192.6940  173.8860  141.9970 C   0  0  2  0  0  3  0  0  0  0  0  0
  195.3160  172.5480  142.2010 C   0  0  0  0  0  2  0  0  0  0  0  0
  187.5950  176.5150  145.9170 C   0  0  2  0  0  3  0  0  0  0  0  0
  190.4410  175.0600  142.2400 C   0  0  0  0  0  0  0  0  0  0  0  0
  194.4660  174.4460  143.7320 C   0  0  0  0  0  0  0  0  0  0  0  0
  190.9810  175.9530  143.3160 C   0  0  2  0  0  3  0  0  0  0  0  0
  189.4380  173.5140  140.1930 C   0  0  0  0  0  3  0  0  0  0  0  0
  189.9200  176.9900  146.7180 C   0  0  0  0  0  2  0  0  0  0  0  0
  190.7300  173.3640  140.5790 N   0  0  0  0  0  0  0  0  0  0  0  0
  190.4560  177.2960  145.3330 C   0  0  0  0  0  2  0  0  0  0  0  0
  187.5260  177.1580  144.5090 C   0  0  1  0  0  3  0  0  0  0  0  0
  188.6470  174.4280  140.8060 N   0  0  0  0  0  0  0  0  0  0  0  0
  188.2090  176.2310  142.4440 C   0  0  1  0  0  3  0  0  0  0  0  0
  186.3190  176.4160  146.4820 O   0  0  0  0  0  0  0  0  0  0  0  0
  186.3160  177.3510  147.5200 C   0  0  0  0  0  2  0  0  0  0  0  0
  185.0240  179.5120  145.3750 O   0  0  0  0  0  0  0  0  0  0  0  0
  184.1360  177.6780  146.5130 N   0  0  0  0  0  2  0  0  0  0  0  0
  185.1300  178.2850  147.3680 C   0  0  2  0  0  3  0  0  0  0  0  0
  183.9070  178.6690  145.4730 C   0  0  0  0  0  2  0  0  0  0  0  0
  185.5670  179.5410  146.6630 C   0  0  0  0  0  2  0  0  0  0  0  0
  1 18  1  0  0  0  0
  1 27  1  0  0  0  0
  2 14  1  0  0  0  0
  3 19  1  0  0  0  0
  3  7  1  6  0  0  0
  4 15  1  0  0  0  0
  4 18  2  0  0  0  0
  5 19  1  0  0  0  0
  5 11  1  1  0  0  0
  8 16  1  0  0  0  0
  9 13  1  0  0  0  0
  9 25  1  0  0  0  0
 12  8  1  0  0  0  0
 12 15  1  0  0  0  0
 13 24  1  0  0  0  0
 14 25  1  0  0  0  0
 15  5  1  0  0  0  0
 16  3  1  0  0  0  0
 17 28  1  0  0  0  0
 17 10  1  0  0  0  0
 18 20  1  0  0  0  0
 19  6  2  0  0  0  0
 20 11  1  0  0  0  0
 20 13  1  0  0  0  0
 21 23  2  0  0  0  0
 21 26  1  0  0  0  0
 22 10  1  0  0  0  0
 23  4  1  0  0  0  0
 24 22  1  0  0  0  0
 25 17  1  0  0  0  0
 26  1  2  0  0  0  0
 27  2  1  0  0  0  0
 27  9  1  0  0  0  0
 28 29  1  0  0  0  0
 30 33  1  0  0  0  0
 30 34  1  0  0  0  0
 31 32  1  0  0  0  0
 32 29  1  0  0  0  0
 33 31  1  0  0  0  0
 34 32  1  0  0  0  0
M  END
>  <MODEL>
2

>  <REMARK>
 VINA RESULT:      -7.7      2.152      8.290
  Name = 
  3 active torsions:
  status: ('A' for Active; 'I' for Inactive)
    1  A    between atoms: C_17  and  O_28
    2  A    between atoms: O_28  and  C_29
    3  A    between atoms: C_29  and  C_32
                            x       y       z     vdW  Elec       q    Type
                         _______ _______ _______ _____ _____    ______ ____

>  <TORSDO>
F 3

$$$$
=
 OpenBabel11112417493D

 34 40  0  0  1  0  0  0  0  0999 V2000
  192.0920  176.0780  145.8710 C   0  0  0  0  0  0  0  0  0  0  0  0
  190.0680  177.3110  146.6750 C   0  0  0  0  0  2  0  0  0  0  0  0
  195.3270  174.6790  140.4010 C   0  0  1  0  0  3  0  0  0  0  0  0
  193.9970  175.5380  144.4930 C   0  0  0  0  0  0  0  0  0  0  0  0
  193.6470  174.1380  142.3800 C   0  0  2  0  0  3  0  0  0  0  0  0
  193.5550  173.1400  140.2470 O   0  0  0  0  0  0  0  0  0  0  0  0
  195.0410  176.0410  140.2960 O   0  0  0  0  0  1  0  0  0  0  0  0
  196.5660  173.5400  142.3580 C   0  0  0  0  0  2  0  0  0  0  0  0
  189.7240  175.4520  145.1580 N   0  0  2  0  0  0  0  0  0  0  0  0
  187.3960  176.1050  143.0120 C   0  0  0  0  0  2  0  0  0  0  0  0
  192.2640  174.7750  142.3610 C   0  0  0  0  0  2  0  0  0  0  0  0
  195.9040  174.2030  143.5680 C   0  0  0  0  0  2  0  0  0  0  0  0
  190.2930  175.4110  143.7900 C   0  0  1  0  0  3  0  0  0  0  0  0
  188.5910  177.1370  146.4960 C   0  0  0  0  0  2  0  0  0  0  0  0
  194.6200  174.9770  143.2330 C   0  0  2  0  0  3  0  0  0  0  0  0
  196.6530  174.4790  141.1550 C   0  0  0  0  0  2  0  0  0  0  0  0
  188.0330  177.0360  144.0330 C   0  0  2  0  0  3  0  0  0  0  0  0
  192.6040  175.4950  144.7110 C   0  0  0  0  0  0  0  0  0  0  0  0
  194.1360  173.9390  140.9640 C   0  0  0  0  0  0  0  0  0  0  0  0
  191.6850  174.7710  143.7740 C   0  0  2  0  0  3  0  0  0  0  0  0
  194.2710  176.7430  146.5130 C   0  0  0  0  0  3  0  0  0  0  0  0
  188.4490  175.4920  142.1060 C   0  0  0  0  0  2  0  0  0  0  0  0
  194.7900  176.1830  145.3910 N   0  0  0  0  0  0  0  0  0  0  0  0
  189.3770  174.5830  142.8890 C   0  0  0  0  0  2  0  0  0  0  0  0
  188.4590  176.2280  145.2840 C   0  0  1  0  0  3  0  0  0  0  0  0
  192.9380  176.6790  146.7500 N   0  0  0  0  0  0  0  0  0  0  0  0
  190.6240  175.9920  146.2030 C   0  0  1  0  0  3  0  0  0  0  0  0
  187.0960  178.0200  144.3720 O   0  0  0  0  0  0  0  0  0  0  0  0
  185.8600  177.3740  144.2990 C   0  0  0  0  0  2  0  0  0  0  0  0
  185.4860  177.6730  147.5720 O   0  0  0  0  0  0  0  0  0  0  0  0
  185.4410  179.2140  145.8200 N   0  0  0  0  0  2  0  0  0  0  0  0
  184.9080  177.9670  145.3210 C   0  0  2  0  0  3  0  0  0  0  0  0
  185.4600  179.0410  147.2630 C   0  0  0  0  0  2  0  0  0  0  0  0
  184.8160  177.0530  146.5130 C   0  0  0  0  0  2  0  0  0  0  0  0
  1 27  1  0  0  0  0
  1 26  1  0  0  0  0
  3  7  1  1  0  0  0
  3 19  1  0  0  0  0
  3 16  1  0  0  0  0
  4 18  1  0  0  0  0
  4 23  2  0  0  0  0
  5 11  1  6  0  0  0
  5 15  1  0  0  0  0
  6 19  2  0  0  0  0
  8 12  1  0  0  0  0
  9 25  1  0  0  0  0
  9 27  1  0  0  0  0
 10 17  1  0  0  0  0
 11 20  1  0  0  0  0
 13  9  1  0  0  0  0
 14  2  1  0  0  0  0
 15 12  1  0  0  0  0
 15  4  1  0  0  0  0
 16  8  1  0  0  0  0
 17 28  1  0  0  0  0
 17 25  1  0  0  0  0
 18  1  2  0  0  0  0
 19  5  1  0  0  0  0
 20 13  1  0  0  0  0
 20 18  1  0  0  0  0
 21 26  2  0  0  0  0
 22 24  1  0  0  0  0
 22 10  1  0  0  0  0
 23 21  1  0  0  0  0
 24 13  1  0  0  0  0
 25 14  1  0  0  0  0
 27  2  1  0  0  0  0
 29 28  1  0  0  0  0
 29 32  1  0  0  0  0
 31 33  1  0  0  0  0
 32 31  1  0  0  0  0
 32 34  1  0  0  0  0
 33 30  1  0  0  0  0
 34 30  1  0  0  0  0
M  END
>  <MODEL>
3

>  <REMARK>
 VINA RESULT:      -7.7      2.016      8.807
  Name = 
  3 active torsions:
  status: ('A' for Active; 'I' for Inactive)
    1  A    between atoms: C_17  and  O_28
    2  A    between atoms: O_28  and  C_29
    3  A    between atoms: C_29  and  C_32
                            x       y       z     vdW  Elec       q    Type
                         _______ _______ _______ _____ _____    ______ ____

>  <TORSDO>
F 3

$$$$
=
 OpenBabel11112417493D

 34 40  0  0  1  0  0  0  0  0999 V2000
  189.5520  174.9040  144.9210 C   0  0  0  0  0  0  0  0  0  0  0  0
  190.2420  173.0600  143.3750 C   0  0  0  0  0  2  0  0  0  0  0  0
  184.5310  178.8500  146.1720 C   0  0  1  0  0  3  0  0  0  0  0  0
  188.1020  176.3010  146.2500 C   0  0  0  0  0  0  0  0  0  0  0  0
  186.8990  178.2620  145.1310 C   0  0  2  0  0  3  0  0  0  0  0  0
  185.4510  179.9230  144.2920 O   0  0  0  0  0  0  0  0  0  0  0  0
  183.9500  177.5920  146.0070 O   0  0  0  0  0  1  0  0  0  0  0  0
  186.4210  179.4370  147.8280 C   0  0  0  0  0  2  0  0  0  0  0  0
  189.7490  175.2230  142.3980 N   0  0  2  0  0  0  0  0  0  0  0  0
  188.1530  174.9130  139.6040 C   0  0  0  0  0  2  0  0  0  0  0  0
  186.9530  177.3970  143.8800 C   0  0  0  0  0  2  0  0  0  0  0  0
  187.3750  178.2550  147.6370 C   0  0  0  0  0  2  0  0  0  0  0  0
  188.4250  175.8790  142.5140 C   0  0  1  0  0  3  0  0  0  0  0  0
  190.5110  172.9680  141.9040 C   0  0  0  0  0  2  0  0  0  0  0  0
  187.0720  177.4000  146.3980 C   0  0  2  0  0  3  0  0  0  0  0  0
  184.9580  179.0410  147.6380 C   0  0  0  0  0  2  0  0  0  0  0  0
  188.5180  173.8330  140.6130 C   0  0  2  0  0  3  0  0  0  0  0  0
  188.6450  175.9630  144.9930 C   0  0  0  0  0  0  0  0  0  0  0  0
  185.6160  179.0610  145.1410 C   0  0  0  0  0  0  0  0  0  0  0  0
  188.3380  176.7630  143.7630 C   0  0  2  0  0  3  0  0  0  0  0  0
  189.3210  174.5340  147.2480 C   0  0  0  0  0  3  0  0  0  0  0  0
  187.3530  176.0230  140.2630 C   0  0  0  0  0  2  0  0  0  0  0  0
  188.4380  175.5590  147.3400 N   0  0  0  0  0  0  0  0  0  0  0  0
  188.1910  176.7610  141.2880 C   0  0  0  0  0  2  0  0  0  0  0  0
  189.8470  174.2040  141.3170 C   0  0  1  0  0  3  0  0  0  0  0  0
  189.8770  174.2200  146.0510 N   0  0  0  0  0  0  0  0  0  0  0  0
  190.2320  174.5470  143.6240 C   0  0  1  0  0  3  0  0  0  0  0  0
  188.6390  172.6190  139.9290 O   0  0  0  0  0  0  0  0  0  0  0  0
  188.6030  172.9670  138.5770 C   0  0  0  0  0  2  0  0  0  0  0  0
  191.8760  172.4910  138.6420 O   0  0  0  0  0  0  0  0  0  0  0  0
  190.0590  171.0290  138.5450 N   0  0  0  0  0  2  0  0  0  0  0  0
  189.6950  172.2280  137.8260 C   0  0  2  0  0  3  0  0  0  0  0  0
  191.4980  171.1430  138.7230 C   0  0  0  0  0  2  0  0  0  0  0  0
  190.9380  173.0760  137.7850 C   0  0  0  0  0  2  0  0  0  0  0  0
  1 18  2  0  0  0  0
  1 26  1  0  0  0  0
  2 27  1  0  0  0  0
  3  7  1  1  0  0  0
  3 16  1  0  0  0  0
  4 15  1  0  0  0  0
  4 23  2  0  0  0  0
  5 11  1  6  0  0  0
  5 19  1  0  0  0  0
  5 15  1  0  0  0  0
  6 19  2  0  0  0  0
  9 13  1  0  0  0  0
  9 27  1  0  0  0  0
 10 22  1  0  0  0  0
 10 17  1  0  0  0  0
 12  8  1  0  0  0  0
 13 20  1  0  0  0  0
 14  2  1  0  0  0  0
 15 12  1  0  0  0  0
 16  8  1  0  0  0  0
 17 25  1  0  0  0  0
 18  4  1  0  0  0  0
 19  3  1  0  0  0  0
 20 11  1  0  0  0  0
 20 18  1  0  0  0  0
 21 23  1  0  0  0  0
 22 24  1  0  0  0  0
 24 13  1  0  0  0  0
 25 14  1  0  0  0  0
 25  9  1  0  0  0  0
 26 21  2  0  0  0  0
 27  1  1  0  0  0  0
 28 17  1  0  0  0  0
 29 28  1  0  0  0  0
 30 33  1  0  0  0  0
 31 33  1  0  0  0  0
 32 31  1  0  0  0  0
 32 29  1  0  0  0  0
 34 32  1  0  0  0  0
 34 30  1  0  0  0  0
M  END
>  <MODEL>
4

>  <REMARK>
 VINA RESULT:      -7.7      3.591      5.604
  Name = 
  3 active torsions:
  status: ('A' for Active; 'I' for Inactive)
    1  A    between atoms: C_17  and  O_28
    2  A    between atoms: O_28  and  C_29
    3  A    between atoms: C_29  and  C_32
                            x       y       z     vdW  Elec       q    Type
                         _______ _______ _______ _____ _____    ______ ____

>  <TORSDO>
F 3

$$$$
=
 OpenBabel11112417493D

 34 40  0  0  1  0  0  0  0  0999 V2000
  191.9820  175.8660  146.0660 C   0  0  0  0  0  0  0  0  0  0  0  0
  190.0380  177.4180  145.7910 C   0  0  0  0  0  2  0  0  0  0  0  0
  195.8800  171.9690  142.6060 C   0  0  1  0  0  3  0  0  0  0  0  0
  194.0030  174.6700  145.5100 C   0  0  0  0  0  0  0  0  0  0  0  0
  193.8300  172.4730  144.2120 C   0  0  2  0  0  3  0  0  0  0  0  0
  193.9670  170.6100  142.7740 O   0  0  0  0  0  0  0  0  0  0  0  0
  195.8040  173.1410  141.8530 O   0  0  0  0  0  1  0  0  0  0  0  0
  196.6010  171.8040  145.0800 C   0  0  0  0  0  2  0  0  0  0  0  0
  189.7070  175.0860  145.2150 N   0  0  2  0  0  0  0  0  0  0  0  0
  187.8890  174.7800  142.5600 C   0  0  0  0  0  2  0  0  0  0  0  0
  192.5700  173.0880  143.6190 C   0  0  0  0  0  2  0  0  0  0  0  0
  195.8390  172.9780  145.7000 C   0  0  0  0  0  2  0  0  0  0  0  0
  190.4890  174.3960  144.1620 C   0  0  1  0  0  3  0  0  0  0  0  0
  188.6030  177.2450  145.3960 C   0  0  0  0  0  2  0  0  0  0  0  0
  194.7490  173.5670  144.7930 C   0  0  2  0  0  3  0  0  0  0  0  0
  197.0190  172.0810  143.6350 C   0  0  0  0  0  2  0  0  0  0  0  0
  188.4640  176.0480  143.1750 C   0  0  2  0  0  3  0  0  0  0  0  0
  192.6000  174.7930  145.4210 C   0  0  0  0  0  0  0  0  0  0  0  0
  194.5210  171.6240  143.1700 C   0  0  0  0  0  0  0  0  0  0  0  0
  191.7640  173.7600  144.7280 C   0  0  2  0  0  3  0  0  0  0  0  0
  194.0910  176.6560  146.7980 C   0  0  0  0  0  3  0  0  0  0  0  0
  188.9880  173.7730  142.2660 C   0  0  0  0  0  2  0  0  0  0  0  0
  194.7120  175.6210  146.1780 N   0  0  0  0  0  0  0  0  0  0  0  0
  189.6360  173.2870  143.5470 C   0  0  0  0  0  2  0  0  0  0  0  0
  188.5560  175.8870  144.7130 C   0  0  1  0  0  3  0  0  0  0  0  0
  192.7400  176.7660  146.7480 N   0  0  0  0  0  0  0  0  0  0  0  0
  190.4820  176.0060  146.0800 C   0  0  1  0  0  3  0  0  0  0  0  0
  187.6260  177.1160  142.8360 O   0  0  0  0  0  0  0  0  0  0  0  0
  186.3650  176.5390  142.6640 C   0  0  0  0  0  2  0  0  0  0  0  0
  185.5730  178.7980  144.9470 O   0  0  0  0  0  0  0  0  0  0  0  0
  185.7400  178.8810  142.6210 N   0  0  0  0  0  2  0  0  0  0  0  0
  185.2850  177.5580  142.9810 C   0  0  2  0  0  3  0  0  0  0  0  0
  185.5760  179.6580  143.8390 C   0  0  0  0  0  2  0  0  0  0  0  0
  185.0500  177.5940  144.4670 C   0  0  0  0  0  2  0  0  0  0  0  0
  1 27  1  0  0  0  0
  1 26  1  0  0  0  0
  2 27  1  0  0  0  0
  3  7  1  1  0  0  0
  3 19  1  0  0  0  0
  3 16  1  0  0  0  0
  4 23  2  0  0  0  0
  5 11  1  6  0  0  0
  5 15  1  0  0  0  0
  6 19  2  0  0  0  0
  8 12  1  0  0  0  0
  9 27  1  0  0  0  0
 10 17  1  0  0  0  0
 11 20  1  0  0  0  0
 13 20  1  0  0  0  0
 13  9  1  0  0  0  0
 14  2  1  0  0  0  0
 15  4  1  0  0  0  0
 15 12  1  0  0  0  0
 16  8  1  0  0  0  0
 17 25  1  0  0  0  0
 18  4  1  0  0  0  0
 18  1  2  0  0  0  0
 19  5  1  0  0  0  0
 20 18  1  0  0  0  0
 22 10  1  0  0  0  0
 22 24  1  0  0  0  0
 23 21  1  0  0  0  0
 24 13  1  0  0  0  0
 25  9  1  0  0  0  0
 25 14  1  0  0  0  0
 26 21  2  0  0  0  0
 28 17  1  0  0  0  0
 29 28  1  0  0  0  0
 29 32  1  0  0  0  0
 31 32  1  0  0  0  0
 31 33  1  0  0  0  0
 32 34  1  0  0  0  0
 33 30  1  0  0  0  0
 34 30  1  0  0  0  0
M  END
>  <MODEL>
5

>  <REMARK>
 VINA RESULT:      -7.7      2.289      8.851
  Name = 
  3 active torsions:
  status: ('A' for Active; 'I' for Inactive)
    1  A    between atoms: C_17  and  O_28
    2  A    between atoms: O_28  and  C_29
    3  A    between atoms: C_29  and  C_32
                            x       y       z     vdW  Elec       q    Type
                         _______ _______ _______ _____ _____    ______ ____

>  <TORSDO>
F 3

$$$$
=
 OpenBabel11112417493D

 34 40  0  0  1  0  0  0  0  0999 V2000
  187.7730  176.6520  141.5180 C   0  0  0  0  0  0  0  0  0  0  0  0
  185.5980  176.9510  140.3160 C   0  0  0  0  0  2  0  0  0  0  0  0
  190.1580  175.5350  147.4690 C   0  0  1  0  0  3  0  0  0  0  0  0
  189.3400  175.8520  143.1690 C   0  0  0  0  0  0  0  0  0  0  0  0
  189.5200  177.0780  145.4080 C   0  0  2  0  0  3  0  0  0  0  0  0
  189.6610  177.8270  147.6380 O   0  0  0  0  0  0  0  0  0  0  0  0
  189.1050  174.6290  147.3420 O   0  0  0  0  0  1  0  0  0  0  0  0
  192.1580  175.7640  145.8520 C   0  0  0  0  0  2  0  0  0  0  0  0
  186.1640  178.5620  142.0370 N   0  0  2  0  0  0  0  0  0  0  0  0
  183.5680  179.3740  143.7830 C   0  0  0  0  0  2  0  0  0  0  0  0
  188.0550  177.4190  145.1760 C   0  0  0  0  0  2  0  0  0  0  0  0
  191.4610  175.7000  144.4910 C   0  0  0  0  0  2  0  0  0  0  0  0
  186.3880  178.1850  143.4530 C   0  0  1  0  0  3  0  0  0  0  0  0
  184.5130  177.9830  140.3480 C   0  0  0  0  0  2  0  0  0  0  0  0
  189.9350  175.8580  144.5600 C   0  0  2  0  0  3  0  0  0  0  0  0
  191.4510  174.9160  146.9090 C   0  0  0  0  0  2  0  0  0  0  0  0
  183.6940  178.2940  142.7190 C   0  0  2  0  0  3  0  0  0  0  0  0
  188.3130  176.7470  142.8020 C   0  0  0  0  0  0  0  0  0  0  0  0
  189.7670  176.8730  146.8850 C   0  0  0  0  0  0  0  0  0  0  0  0
  187.8570  177.8390  143.7210 C   0  0  2  0  0  3  0  0  0  0  0  0
  189.1980  174.8220  141.0420 C   0  0  0  0  0  3  0  0  0  0  0  0
  184.5950  179.1740  144.8840 C   0  0  0  0  0  2  0  0  0  0  0  0
  189.7370  174.8970  142.2850 N   0  0  0  0  0  0  0  0  0  0  0  0
  186.0030  179.3600  144.3530 C   0  0  0  0  0  2  0  0  0  0  0  0
  184.7340  178.7280  141.6550 C   0  0  1  0  0  3  0  0  0  0  0  0
  188.2350  175.6990  140.6640 N   0  0  0  0  0  0  0  0  0  0  0  0
  186.7340  177.6310  141.0350 C   0  0  1  0  0  3  0  0  0  0  0  0
  182.4360  178.1050  142.1360 O   0  0  0  0  0  0  0  0  0  0  0  0
  181.6100  179.0410  142.7620 C   0  0  0  0  0  2  0  0  0  0  0  0
  179.0730  177.1660  141.7660 O   0  0  0  0  0  0  0  0  0  0  0  0
  179.1970  179.1720  142.9510 N   0  0  0  0  0  2  0  0  0  0  0  0
  180.2950  179.1500  142.0120 C   0  0  2  0  0  3  0  0  0  0  0  0
  178.3290  178.0920  142.5110 C   0  0  0  0  0  2  0  0  0  0  0  0
  180.0920  177.9170  141.1720 C   0  0  0  0  0  2  0  0  0  0  0  0
  1 18  1  0  0  0  0
  2 14  1  0  0  0  0
  2 27  1  0  0  0  0
  3  7  1  6  0  0  0
  4 15  1  0  0  0  0
  5 11  1  1  0  0  0
  5 19  1  0  0  0  0
  8 16  1  0  0  0  0
  9 13  1  0  0  0  0
 10 22  1  0  0  0  0
 12 15  1  0  0  0  0
 12  8  1  0  0  0  0
 13 20  1  0  0  0  0
 13 24  1  0  0  0  0
 14 25  1  0  0  0  0
 15  5  1  0  0  0  0
 16  3  1  0  0  0  0
 17 10  1  0  0  0  0
 18  4  2  0  0  0  0
 18 20  1  0  0  0  0
 19  3  1  0  0  0  0
 19  6  2  0  0  0  0
 20 11  1  0  0  0  0
 21 23  2  0  0  0  0
 23  4  1  0  0  0  0
 24 22  1  0  0  0  0
 25  9  1  0  0  0  0
 25 17  1  0  0  0  0
 26 21  1  0  0  0  0
 26  1  2  0  0  0  0
 27  1  1  0  0  0  0
 27  9  1  0  0  0  0
 28 17  1  0  0  0  0
 28 29  1  0  0  0  0
 30 33  1  0  0  0  0
 32 29  1  0  0  0  0
 32 31  1  0  0  0  0
 33 31  1  0  0  0  0
 34 30  1  0  0  0  0
 34 32  1  0  0  0  0
M  END
>  <MODEL>
6

>  <REMARK>
 VINA RESULT:      -7.6      3.660      9.241
  Name = 
  3 active torsions:
  status: ('A' for Active; 'I' for Inactive)
    1  A    between atoms: C_17  and  O_28
    2  A    between atoms: O_28  and  C_29
    3  A    between atoms: C_29  and  C_32
                            x       y       z     vdW  Elec       q    Type
                         _______ _______ _______ _____ _____    ______ ____

>  <TORSDO>
F 3

$$$$
=
 OpenBabel11112417493D

 34 40  0  0  1  0  0  0  0  0999 V2000
  192.2360  176.1120  145.9420 C   0  0  0  0  0  0  0  0  0  0  0  0
  189.9650  177.0110  146.4930 C   0  0  0  0  0  2  0  0  0  0  0  0
  196.3260  175.4180  140.9290 C   0  0  1  0  0  3  0  0  0  0  0  0
  194.3630  175.9070  144.8220 C   0  0  0  0  0  0  0  0  0  0  0  0
  194.5000  174.5610  142.6510 C   0  0  2  0  0  3  0  0  0  0  0  0
  194.8340  173.6500  140.5030 O   0  0  0  0  0  0  0  0  0  0  0  0
  195.8600  176.7280  140.8170 O   0  0  0  0  0  1  0  0  0  0  0  0
  197.4530  174.3850  143.0090 C   0  0  0  0  0  2  0  0  0  0  0  0
  190.0980  175.1870  144.9020 N   0  0  2  0  0  0  0  0  0  0  0  0
  188.0000  175.5910  142.4760 C   0  0  0  0  0  2  0  0  0  0  0  0
  193.0530  174.9950  142.4590 C   0  0  0  0  0  2  0  0  0  0  0  0
  196.5480  174.8960  144.1340 C   0  0  0  0  0  2  0  0  0  0  0  0
  190.8400  175.2850  143.6220 C   0  0  1  0  0  3  0  0  0  0  0  0
  188.5660  176.6360  146.1120 C   0  0  0  0  0  2  0  0  0  0  0  0
  195.2200  175.4940  143.6460 C   0  0  2  0  0  3  0  0  0  0  0  0
  197.5580  175.3770  141.8510 C   0  0  0  0  0  2  0  0  0  0  0  0
  188.3540  176.5600  143.5950 C   0  0  2  0  0  3  0  0  0  0  0  0
  192.9750  175.6570  144.8490 C   0  0  0  0  0  0  0  0  0  0  0  0
  195.1930  174.4940  141.3090 C   0  0  0  0  0  0  0  0  0  0  0  0
  192.3010  174.8500  143.7800 C   0  0  2  0  0  3  0  0  0  0  0  0
  194.1920  177.0530  146.8880 C   0  0  0  0  0  3  0  0  0  0  0  0
  189.2410  175.1730  141.7070 C   0  0  0  0  0  2  0  0  0  0  0  0
  194.9290  176.6200  145.8340 N   0  0  0  0  0  0  0  0  0  0  0  0
  190.1810  174.3730  142.5870 C   0  0  0  0  0  2  0  0  0  0  0  0
  188.7270  175.7690  144.8730 C   0  0  1  0  0  3  0  0  0  0  0  0
  192.8620  176.7900  146.9410 N   0  0  0  0  0  0  0  0  0  0  0  0
  190.7660  175.8050  146.0700 C   0  0  1  0  0  3  0  0  0  0  0  0
  187.2480  177.3850  143.8260 O   0  0  0  0  0  0  0  0  0  0  0  0
  187.0600  178.0730  142.6240 C   0  0  0  0  0  2  0  0  0  0  0  0
  184.0620  178.2890  144.0060 O   0  0  0  0  0  0  0  0  0  0  0  0
  185.9400  179.6730  144.0600 N   0  0  0  0  0  2  0  0  0  0  0  0
  185.8990  179.0410  142.7620 C   0  0  2  0  0  3  0  0  0  0  0  0
  184.6250  179.4150  144.6240 C   0  0  0  0  0  2  0  0  0  0  0  0
  184.6010  178.2800  142.7160 C   0  0  0  0  0  2  0  0  0  0  0  0
  1 27  1  0  0  0  0
  1 26  1  0  0  0  0
  3  7  1  1  0  0  0
  3 19  1  0  0  0  0
  3 16  1  0  0  0  0
  4 18  1  0  0  0  0
  4 23  2  0  0  0  0
  5 11  1  6  0  0  0
  5 15  1  0  0  0  0
  6 19  2  0  0  0  0
  8 12  1  0  0  0  0
  9 27  1  0  0  0  0
 10 17  1  0  0  0  0
 11 20  1  0  0  0  0
 13 20  1  0  0  0  0
 13  9  1  0  0  0  0
 14  2  1  0  0  0  0
 15 12  1  0  0  0  0
 15  4  1  0  0  0  0
 16  8  1  0  0  0  0
 17 28  1  0  0  0  0
 17 25  1  0  0  0  0
 18  1  2  0  0  0  0
 19  5  1  0  0  0  0
 20 18  1  0  0  0  0
 21 26  2  0  0  0  0
 22 10  1  0  0  0  0
 22 24  1  0  0  0  0
 23 21  1  0  0  0  0
 24 13  1  0  0  0  0
 25  9  1  0  0  0  0
 25 14  1  0  0  0  0
 27  2  1  0  0  0  0
 29 32  1  0  0  0  0
 29 28  1  0  0  0  0
 30 33  1  0  0  0  0
 31 33  1  0  0  0  0
 32 31  1  0  0  0  0
 34 32  1  0  0  0  0
 34 30  1  0  0  0  0
M  END
>  <MODEL>
7

>  <REMARK>
 VINA RESULT:      -7.6      2.259      8.973
  Name = 
  3 active torsions:
  status: ('A' for Active; 'I' for Inactive)
    1  A    between atoms: C_17  and  O_28
    2  A    between atoms: O_28  and  C_29
    3  A    between atoms: C_29  and  C_32
                            x       y       z     vdW  Elec       q    Type
                         _______ _______ _______ _____ _____    ______ ____

>  <TORSDO>
F 3

$$$$
=
 OpenBabel11112417493D

 34 40  0  0  1  0  0  0  0  0999 V2000
  190.9820  173.4620  141.8580 C   0  0  0  0  0  0  0  0  0  0  0  0
  188.5260  173.7300  142.2580 C   0  0  0  0  0  2  0  0  0  0  0  0
  196.7290  174.6400  144.6760 C   0  0  1  0  0  3  0  0  0  0  0  0
  193.3210  173.1370  142.3560 C   0  0  0  0  0  0  0  0  0  0  0  0
  194.7500  175.1620  142.9890 C   0  0  2  0  0  3  0  0  0  0  0  0
  196.1980  176.7910  143.8870 O   0  0  0  0  0  0  0  0  0  0  0  0
  195.9500  174.0890  145.6940 O   0  0  0  0  0  1  0  0  0  0  0  0
  197.1900  173.5640  142.3740 C   0  0  0  0  0  2  0  0  0  0  0  0
  189.8730  175.7420  142.1430 N   0  0  2  0  0  0  0  0  0  0  0  0
  188.9240  177.9150  144.3390 C   0  0  0  0  0  2  0  0  0  0  0  0
  193.4490  175.7280  143.5410 C   0  0  0  0  0  2  0  0  0  0  0  0
  195.7960  173.0630  141.9850 C   0  0  0  0  0  2  0  0  0  0  0  0
  190.9930  176.0180  143.0750 C   0  0  1  0  0  3  0  0  0  0  0  0
  187.6040  174.9030  142.3860 C   0  0  0  0  0  2  0  0  0  0  0  0
  194.6620  173.6280  142.8540 C   0  0  2  0  0  3  0  0  0  0  0  0
  197.4240  173.5180  143.8840 C   0  0  0  0  0  2  0  0  0  0  0  0
  188.4620  176.4760  144.1690 C   0  0  2  0  0  3  0  0  0  0  0  0
  192.2030  173.9940  142.2760 C   0  0  0  0  0  0  0  0  0  0  0  0
  195.9060  175.6060  143.8560 C   0  0  0  0  0  0  0  0  0  0  0  0
  192.3200  175.4640  142.5470 C   0  0  2  0  0  3  0  0  0  0  0  0
  191.9700  171.3190  141.6660 C   0  0  0  0  0  3  0  0  0  0  0  0
  190.4320  177.9850  144.5080 C   0  0  0  0  0  2  0  0  0  0  0  0
  193.1660  171.8160  142.0710 N   0  0  0  0  0  0  0  0  0  0  0  0
  191.1420  177.5290  143.2490 C   0  0  0  0  0  2  0  0  0  0  0  0
  188.5230  176.0810  142.6730 C   0  0  1  0  0  3  0  0  0  0  0  0
  190.8960  172.1390  141.5520 N   0  0  0  0  0  0  0  0  0  0  0  0
  189.7730  174.3410  141.6710 C   0  0  1  0  0  3  0  0  0  0  0  0
  187.1550  176.3750  144.6570 O   0  0  0  0  0  0  0  0  0  0  0  0
  187.2640  176.6380  146.0250 C   0  0  0  0  0  2  0  0  0  0  0  0
  185.3770  179.0770  147.2220 O   0  0  0  0  0  0  0  0  0  0  0  0
  185.0110  177.4300  145.6110 N   0  0  0  0  0  2  0  0  0  0  0  0
  185.8860  176.8720  146.6160 C   0  0  2  0  0  3  0  0  0  0  0  0
  184.4960  178.6450  146.2210 C   0  0  0  0  0  2  0  0  0  0  0  0
  185.9750  177.9090  147.7040 C   0  0  0  0  0  2  0  0  0  0  0  0
  1 18  1  0  0  0  0
  2 14  1  0  0  0  0
  3  7  1  1  0  0  0
  4 15  1  0  0  0  0
  5 11  1  1  0  0  0
  5 19  1  0  0  0  0
  8 16  1  0  0  0  0
  9 25  1  0  0  0  0
  9 13  1  0  0  0  0
 10 22  1  0  0  0  0
 12  8  1  0  0  0  0
 12 15  1  0  0  0  0
 13 24  1  0  0  0  0
 14 25  1  0  0  0  0
 15  5  1  0  0  0  0
 16  3  1  0  0  0  0
 17 10  1  0  0  0  0
 17 28  1  0  0  0  0
 18  4  2  0  0  0  0
 18 20  1  0  0  0  0
 19  6  2  0  0  0  0
 19  3  1  0  0  0  0
 20 13  1  0  0  0  0
 20 11  1  0  0  0  0
 21 23  2  0  0  0  0
 23  4  1  0  0  0  0
 24 22  1  0  0  0  0
 25 17  1  0  0  0  0
 26 21  1  0  0  0  0
 26  1  2  0  0  0  0
 27  1  1  0  0  0  0
 27  9  1  0  0  0  0
 27  2  1  0  0  0  0
 28 29  1  0  0  0  0
 29 32  1  0  0  0  0
 30 34  1  0  0  0  0
 31 33  1  0  0  0  0
 31 32  1  0  0  0  0
 32 34  1  0  0  0  0
 33 30  1  0  0  0  0
M  END
>  <MODEL>
8

>  <REMARK>
 VINA RESULT:      -7.5      2.305      8.716
  Name = 
  3 active torsions:
  status: ('A' for Active; 'I' for Inactive)
    1  A    between atoms: C_17  and  O_28
    2  A    between atoms: O_28  and  C_29
    3  A    between atoms: C_29  and  C_32
                            x       y       z     vdW  Elec       q    Type
                         _______ _______ _______ _____ _____    ______ ____

>  <TORSDO>
F 3

$$$$
=
 OpenBabel11112417493D

 34 40  0  0  1  0  0  0  0  0999 V2000
  192.1480  175.9570  146.2230 C   0  0  0  0  0  0  0  0  0  0  0  0
  194.3760  174.8220  146.3360 C   0  0  0  0  0  2  0  0  0  0  0  0
  186.9170  176.4720  142.3870 C   0  0  1  0  0  3  0  0  0  0  0  0
  189.8270  176.3060  145.6670 C   0  0  0  0  0  0  0  0  0  0  0  0
  189.2300  177.3000  143.3870 C   0  0  2  0  0  3  0  0  0  0  0  0
  188.4060  177.9040  141.2620 O   0  0  0  0  0  0  0  0  0  0  0  0
  187.1950  175.1050  142.4130 O   0  0  0  0  0  1  0  0  0  0  0  0
  186.5290  177.9770  144.4490 C   0  0  0  0  0  2  0  0  0  0  0  0
  193.9950  176.3730  144.5130 N   0  0  2  0  0  0  0  0  0  0  0  0
  195.2800  175.2800  141.7550 C   0  0  0  0  0  2  0  0  0  0  0  0
  190.5120  176.6270  142.9180 C   0  0  0  0  0  2  0  0  0  0  0  0
  187.6530  177.5160  145.3800 C   0  0  0  0  0  2  0  0  0  0  0  0
  192.9190  176.1900  143.5090 C   0  0  1  0  0  3  0  0  0  0  0  0
  195.6450  174.9150  145.5450 C   0  0  0  0  0  2  0  0  0  0  0  0
  188.7230  176.6550  144.6930 C   0  0  2  0  0  3  0  0  0  0  0  0
  186.0030  176.8440  143.5680 C   0  0  0  0  0  2  0  0  0  0  0  0
  195.1520  174.5630  143.0910 C   0  0  2  0  0  3  0  0  0  0  0  0
  191.1850  176.3420  145.2890 C   0  0  0  0  0  0  0  0  0  0  0  0
  188.2010  177.2620  142.2800 C   0  0  0  0  0  0  0  0  0  0  0  0
  191.6140  176.8610  143.9490 C   0  0  2  0  0  3  0  0  0  0  0  0
  190.4470  175.4850  147.8000 C   0  0  0  0  0  3  0  0  0  0  0  0
  193.9240  175.7570  141.2640 C   0  0  0  0  0  2  0  0  0  0  0  0
  189.4940  175.8540  146.9070 N   0  0  0  0  0  0  0  0  0  0  0  0
  193.3550  176.8180  142.1850 C   0  0  0  0  0  2  0  0  0  0  0  0
  195.2350  175.5920  144.2460 C   0  0  1  0  0  3  0  0  0  0  0  0
  191.7580  175.5480  147.4600 N   0  0  0  0  0  0  0  0  0  0  0  0
  193.6190  176.0540  145.9100 C   0  0  1  0  0  3  0  0  0  0  0  0
  196.1870  173.6260  143.1850 O   0  0  0  0  0  0  0  0  0  0  0  0
  195.5750  172.3940  142.9440 C   0  0  0  0  0  2  0  0  0  0  0  0
  197.1910  171.7740  145.7630 O   0  0  0  0  0  0  0  0  0  0  0  0
  195.5190  170.6300  144.6050 N   0  0  0  0  0  2  0  0  0  0  0  0
  196.3560  171.2870  143.6290 C   0  0  2  0  0  3  0  0  0  0  0  0
  196.2820  170.7090  145.8400 C   0  0  0  0  0  2  0  0  0  0  0  0
  197.4990  171.8850  144.4040 C   0  0  0  0  0  2  0  0  0  0  0  0
  1 26  1  0  0  0  0
  3  7  1  1  0  0  0
  3 16  1  0  0  0  0
  4 23  2  0  0  0  0
  5 11  1  6  0  0  0
  5 15  1  0  0  0  0
  6 19  2  0  0  0  0
  8 12  1  0  0  0  0
  9 27  1  0  0  0  0
 10 17  1  0  0  0  0
 11 20  1  0  0  0  0
 13 20  1  0  0  0  0
 13  9  1  0  0  0  0
 14  2  1  0  0  0  0
 15 12  1  0  0  0  0
 15  4  1  0  0  0  0
 16  8  1  0  0  0  0
 17 28  1  0  0  0  0
 17 25  1  0  0  0  0
 18  4  1  0  0  0  0
 18  1  2  0  0  0  0
 19  3  1  0  0  0  0
 19  5  1  0  0  0  0
 20 18  1  0  0  0  0
 22 10  1  0  0  0  0
 22 24  1  0  0  0  0
 23 21  1  0  0  0  0
 24 13  1  0  0  0  0
 25  9  1  0  0  0  0
 25 14  1  0  0  0  0
 26 21  2  0  0  0  0
 27  1  1  0  0  0  0
 27  2  1  0  0  0  0
 29 28  1  0  0  0  0
 29 32  1  0  0  0  0
 30 33  1  0  0  0  0
 31 33  1  0  0  0  0
 32 34  1  0  0  0  0
 32 31  1  0  0  0  0
 34 30  1  0  0  0  0
M  END
>  <MODEL>
9

>  <REMARK>
 VINA RESULT:      -7.3      2.674      4.605
  Name = 
  3 active torsions:
  status: ('A' for Active; 'I' for Inactive)
    1  A    between atoms: C_17  and  O_28
    2  A    between atoms: O_28  and  C_29
    3  A    between atoms: C_29  and  C_32
                            x       y       z     vdW  Elec       q    Type
                         _______ _______ _______ _____ _____    ______ ____

>  <TORSDO>
F 3

$$$$
