=
 OpenBabel11112416343D

 32 38  0  0  1  0  0  0  0  0999 V2000
  191.6210  174.2860  143.9350 C   0  0  1  0  0  3  0  0  0  0  0  0
  187.3690  177.2480  143.2150 C   0  0  1  0  0  3  0  0  0  0  0  0
  186.4020  178.3510  147.9300 C   0  0  0  0  0  3  0  0  0  0  0  0
  185.1770  178.9070  147.5580 C   0  0  0  0  0  3  0  0  0  0  0  0
  185.4740  177.6510  141.4900 C   0  0  0  0  0  0  0  0  0  0  0  0
  184.1490  178.0150  141.2800 C   0  0  0  0  0  0  0  0  0  0  0  0
  189.4250  175.8900  142.7930 C   0  0  1  0  0  3  0  0  0  0  0  0
  188.8780  176.6610  145.0120 O   0  0  0  0  0  0  0  0  0  0  0  0
  182.1510  178.6940  141.7990 N   0  0  0  0  0  0  0  0  0  0  0  0
  190.7620  175.1430  144.8780 C   0  0  2  0  0  3  0  0  0  0  0  0
  187.1770  177.6750  146.9850 C   0  0  0  0  0  3  0  0  0  0  0  0
  187.5130  176.7420  144.6690 C   0  0  1  0  0  3  0  0  0  0  0  0
  186.7430  177.5710  145.6560 C   0  0  0  0  0  0  0  0  0  0  0  0
  185.0290  178.0070  143.8870 C   0  0  0  0  0  0  0  0  0  0  0  0
  182.2480  178.5840  140.4780 N   0  0  0  0  0  0  0  0  0  0  0  0
  191.0340  174.0420  142.5570 C   0  0  0  0  0  3  0  0  0  0  0  0
  189.3970  175.5680  144.2950 C   0  0  2  0  0  3  0  0  0  0  0  0
  183.4670  178.1710  140.1260 N   0  0  0  0  0  0  0  0  0  0  0  0
  190.0180  174.7460  142.0370 C   0  0  0  0  0  3  0  0  0  0  0  0
  191.9540  175.7560  144.1560 C   0  0  1  0  0  3  0  0  0  0  0  0
  184.7260  178.7860  146.2420 C   0  0  0  0  0  3  0  0  0  0  0  0
  185.5010  178.1140  145.2840 C   0  0  0  0  0  0  0  0  0  0  0  0
  183.7410  178.3700  143.5920 N   0  0  0  0  0  0  0  0  0  0  0  0
  188.0060  176.1800  142.3190 C   0  0  0  0  0  2  0  0  0  0  0  0
  186.3580  177.4230  140.3070 C   0  0  0  0  0  1  0  0  0  0  0  0
  180.9750  179.1550  142.5160 C   0  0  0  0  0  1  0  0  0  0  0  0
  185.9260  177.5820  142.8470 C   0  0  0  0  0  0  0  0  0  0  0  0
  183.3350  178.3380  142.3040 C   0  0  0  0  0  0  0  0  0  0  0  0
  193.0710  175.8640  145.0790 N   0  0  0  0  0  2  0  0  0  0  0  0
  194.4200  175.9670  144.6240 C   0  0  0  0  0  0  0  0  0  0  0  0
  195.4510  176.0680  145.5480 O   0  0  0  0  0  1  0  0  0  0  0  0
  194.6840  175.9660  143.3920 O   0  0  0  0  0  0  0  0  0  0  0  0
  1 16  1  6  0  0  0
  1 20  1  0  0  0  0
  1 10  1  0  0  0  0
  2 24  1  6  0  0  0
  2 12  1  0  0  0  0
  4  3  1  0  0  0  0
  5 27  1  0  0  0  0
  6  5  2  0  0  0  0
  6 28  1  0  0  0  0
  7 19  1  6  0  0  0
  7 17  1  0  0  0  0
  9 28  1  0  0  0  0
  9 26  1  0  0  0  0
 11  3  2  0  0  0  0
 12  8  1  0  0  0  0
 12 13  1  0  0  0  0
 13 11  1  0  0  0  0
 14 22  1  0  0  0  0
 15  9  1  0  0  0  0
 17 10  1  0  0  0  0
 17  8  1  0  0  0  0
 18 15  2  0  0  0  0
 18  6  1  0  0  0  0
 19 16  2  0  0  0  0
 20 10  1  0  0  0  0
 20 29  1  0  0  0  0
 21  4  2  0  0  0  0
 22 13  2  0  0  0  0
 22 21  1  0  0  0  0
 23 14  1  0  0  0  0
 24  7  1  0  0  0  0
 25  5  1  0  0  0  0
 27  2  1  0  0  0  0
 27 14  2  0  0  0  0
 28 23  2  0  0  0  0
 30 29  1  0  0  0  0
 30 31  1  0  0  0  0
 32 30  2  0  0  0  0
M  END
>  <MODEL>
1

>  <REMARK>
 VINA RESULT:      -9.7      0.000      0.000
  Name = 
  1 active torsions:
  status: ('A' for Active; 'I' for Inactive)
    1  A    between atoms: C_20  and  N_29
                            x       y       z     vdW  Elec       q    Type
                         _______ _______ _______ _____ _____    ______ ____

>  <TORSDO>
F 1

$$$$
=
 OpenBabel11112416343D

 32 38  0  0  1  0  0  0  0  0999 V2000
  195.1670  175.4850  145.5980 C   0  0  1  0  0  3  0  0  0  0  0  0
  190.0420  175.7780  144.5860 C   0  0  1  0  0  3  0  0  0  0  0  0
  190.0220  173.6480  140.1310 C   0  0  0  0  0  3  0  0  0  0  0  0
  188.6890  174.0190  139.9490 C   0  0  0  0  0  3  0  0  0  0  0  0
  187.9400  177.1400  145.2590 C   0  0  0  0  0  0  0  0  0  0  0  0
  186.7070  177.6490  144.8660 C   0  0  0  0  0  0  0  0  0  0  0  0
  192.2480  175.8760  145.7590 C   0  0  1  0  0  3  0  0  0  0  0  0
  192.0120  174.7320  143.6490 O   0  0  0  0  0  0  0  0  0  0  0  0
  185.0080  177.9960  143.5560 N   0  0  0  0  0  0  0  0  0  0  0  0
  194.2820  174.9310  144.4690 C   0  0  2  0  0  3  0  0  0  0  0  0
  190.7300  174.1100  141.2430 C   0  0  0  0  0  3  0  0  0  0  0  0
  190.8940  175.5260  143.3210 C   0  0  1  0  0  3  0  0  0  0  0  0
  190.1030  174.9290  142.1930 C   0  0  0  0  0  0  0  0  0  0  0  0
  188.0940  176.1880  142.9920 C   0  0  0  0  0  0  0  0  0  0  0  0
  184.7620  178.5330  144.7460 N   0  0  0  0  0  0  0  0  0  0  0  0
  194.5070  176.5100  146.5020 C   0  0  0  0  0  3  0  0  0  0  0  0
  192.8740  175.5580  144.3920 C   0  0  2  0  0  3  0  0  0  0  0  0
  185.7880  178.3350  145.5760 N   0  0  0  0  0  0  0  0  0  0  0  0
  193.1840  176.7160  146.5650 C   0  0  0  0  0  3  0  0  0  0  0  0
  194.5200  174.1130  145.7320 C   0  0  1  0  0  3  0  0  0  0  0  0
  188.0650  174.8550  140.8780 C   0  0  0  0  0  3  0  0  0  0  0  0
  188.7660  175.3200  142.0020 C   0  0  0  0  0  0  0  0  0  0  0  0
  186.8630  176.7090  142.6910 N   0  0  0  0  0  0  0  0  0  0  0  0
  190.9200  176.5910  145.5450 C   0  0  0  0  0  2  0  0  0  0  0  0
  188.3670  177.2980  146.6820 C   0  0  0  0  0  1  0  0  0  0  0  0
  184.0890  177.9960  142.4330 C   0  0  0  0  0  1  0  0  0  0  0  0
  188.6990  176.4320  144.2740 C   0  0  0  0  0  0  0  0  0  0  0  0
  186.2210  177.4430  143.6260 C   0  0  0  0  0  0  0  0  0  0  0  0
  195.5100  173.0850  145.4580 N   0  0  0  0  0  2  0  0  0  0  0  0
  195.1460  171.7190  145.2570 C   0  0  0  0  0  0  0  0  0  0  0  0
  196.1310  170.7760  144.9980 O   0  0  0  0  0  0  0  0  0  0  0  0
  193.9390  171.3620  145.3150 O   0  0  0  0  0  1  0  0  0  0  0  0
  1 20  1  0  0  0  0
  1 16  1  1  0  0  0
  2 24  1  1  0  0  0
  3 11  1  0  0  0  0
  4  3  2  0  0  0  0
  4 21  1  0  0  0  0
  5 25  1  0  0  0  0
  6  5  1  0  0  0  0
  6 18  1  0  0  0  0
  7 24  1  6  0  0  0
  7 19  1  0  0  0  0
  8 17  1  0  0  0  0
  9 28  1  0  0  0  0
  9 15  1  0  0  0  0
 10  1  1  0  0  0  0
 10 20  1  0  0  0  0
 11 13  2  0  0  0  0
 12  8  1  0  0  0  0
 12  2  1  0  0  0  0
 13 12  1  0  0  0  0
 14 27  1  0  0  0  0
 15 18  2  0  0  0  0
 16 19  2  0  0  0  0
 17 10  1  0  0  0  0
 17  7  1  0  0  0  0
 21 22  2  0  0  0  0
 22 13  1  0  0  0  0
 22 14  1  0  0  0  0
 23 14  2  0  0  0  0
 23 28  1  0  0  0  0
 26  9  1  0  0  0  0
 27  2  1  0  0  0  0
 27  5  2  0  0  0  0
 28  6  2  0  0  0  0
 29 20  1  0  0  0  0
 30 32  1  0  0  0  0
 30 29  1  0  0  0  0
 31 30  2  0  0  0  0
M  END
>  <MODEL>
2

>  <REMARK>
 VINA RESULT:      -8.9      2.309      5.199
  Name = 
  1 active torsions:
  status: ('A' for Active; 'I' for Inactive)
    1  A    between atoms: C_20  and  N_29
                            x       y       z     vdW  Elec       q    Type
                         _______ _______ _______ _____ _____    ______ ____

>  <TORSDO>
F 1

$$$$
=
 OpenBabel11112416343D

 32 38  0  0  1  0  0  0  0  0999 V2000
  190.6580  172.1750  139.6440 C   0  0  1  0  0  3  0  0  0  0  0  0
  188.6250  175.7360  142.8920 C   0  0  1  0  0  3  0  0  0  0  0  0
  191.6680  175.0950  146.7280 C   0  0  0  0  0  3  0  0  0  0  0  0
  190.8580  175.9110  147.5180 C   0  0  0  0  0  3  0  0  0  0  0  0
  186.4120  177.0150  143.3350 C   0  0  0  0  0  0  0  0  0  0  0  0
  185.5770  177.6070  144.2760 C   0  0  0  0  0  0  0  0  0  0  0  0
  189.1080  174.3730  140.8520 C   0  0  1  0  0  3  0  0  0  0  0  0
  190.5770  174.3140  142.7640 O   0  0  0  0  0  0  0  0  0  0  0  0
  184.9420  178.3040  146.2340 N   0  0  0  0  0  0  0  0  0  0  0  0
  191.0910  172.7190  141.0150 C   0  0  2  0  0  3  0  0  0  0  0  0
  191.2500  174.7280  145.4460 C   0  0  0  0  0  3  0  0  0  0  0  0
  189.5210  174.7030  143.6130 C   0  0  1  0  0  3  0  0  0  0  0  0
  190.0290  175.1940  144.9380 C   0  0  0  0  0  0  0  0  0  0  0  0
  187.9100  176.4950  145.2190 C   0  0  0  0  0  0  0  0  0  0  0  0
  184.0560  178.6900  145.3210 N   0  0  0  0  0  0  0  0  0  0  0  0
  189.2560  172.5520  139.2030 C   0  0  0  0  0  3  0  0  0  0  0  0
  190.0000  173.5140  141.7630 C   0  0  2  0  0  3  0  0  0  0  0  0
  184.4200  178.2790  144.1050 N   0  0  0  0  0  0  0  0  0  0  0  0
  188.5300  173.5310  139.7620 C   0  0  0  0  0  3  0  0  0  0  0  0
  191.5690  173.3920  139.7350 C   0  0  1  0  0  3  0  0  0  0  0  0
  189.6290  176.3590  147.0290 C   0  0  0  0  0  3  0  0  0  0  0  0
  189.2030  176.0010  145.7400 C   0  0  0  0  0  0  0  0  0  0  0  0
  187.0410  177.1140  146.0790 N   0  0  0  0  0  0  0  0  0  0  0  0
  188.0070  175.0110  141.6910 C   0  0  0  0  0  2  0  0  0  0  0  0
  186.0660  177.1330  141.8860 C   0  0  0  0  0  1  0  0  0  0  0  0
  184.8730  178.6150  147.6500 C   0  0  0  0  0  1  0  0  0  0  0  0
  187.5970  176.3780  143.8210 C   0  0  0  0  0  0  0  0  0  0  0  0
  185.8930  177.6270  145.5860 C   0  0  0  0  0  0  0  0  0  0  0  0
  192.9390  172.9900  139.4640 N   0  0  0  0  0  2  0  0  0  0  0  0
  194.0520  173.8050  139.8300 C   0  0  0  0  0  0  0  0  0  0  0  0
  195.3420  173.3740  139.5490 O   0  0  0  0  0  0  0  0  0  0  0  0
  193.8760  174.9120  140.4040 O   0  0  0  0  0  1  0  0  0  0  0  0
  1 16  1  1  0  0  0
  1 20  1  0  0  0  0
  1 10  1  0  0  0  0
  2 24  1  6  0  0  0
  2 12  1  0  0  0  0
  2 27  1  0  0  0  0
  3  4  1  0  0  0  0
  5 27  2  0  0  0  0
  5  6  1  0  0  0  0
  6 28  2  0  0  0  0
  7 19  1  6  0  0  0
  7 24  1  0  0  0  0
  7 17  1  0  0  0  0
  8 12  1  0  0  0  0
  9 26  1  0  0  0  0
 10 17  1  0  0  0  0
 11  3  2  0  0  0  0
 12 13  1  0  0  0  0
 13 11  1  0  0  0  0
 13 22  2  0  0  0  0
 14 22  1  0  0  0  0
 14 23  2  0  0  0  0
 15  9  1  0  0  0  0
 16 19  2  0  0  0  0
 17  8  1  0  0  0  0
 18  6  1  0  0  0  0
 18 15  2  0  0  0  0
 20 10  1  0  0  0  0
 21  4  2  0  0  0  0
 22 21  1  0  0  0  0
 25  5  1  0  0  0  0
 27 14  1  0  0  0  0
 28 23  1  0  0  0  0
 28  9  1  0  0  0  0
 29 20  1  0  0  0  0
 29 30  1  0  0  0  0
 30 32  1  0  0  0  0
 31 30  2  0  0  0  0
M  END
>  <MODEL>
3

>  <REMARK>
 VINA RESULT:      -8.5      2.626      4.411
  Name = 
  1 active torsions:
  status: ('A' for Active; 'I' for Inactive)
    1  A    between atoms: C_20  and  N_29
                            x       y       z     vdW  Elec       q    Type
                         _______ _______ _______ _____ _____    ______ ____

>  <TORSDO>
F 1

$$$$
=
 OpenBabel11112416343D

 32 38  0  0  1  0  0  0  0  0999 V2000
  185.0360  177.4590  146.3660 C   0  0  1  0  0  3  0  0  0  0  0  0
  189.9040  176.2880  144.8480 C   0  0  1  0  0  3  0  0  0  0  0  0
  188.8320  173.7020  140.7800 C   0  0  0  0  0  3  0  0  0  0  0  0
  190.1650  173.3050  140.6700 C   0  0  0  0  0  3  0  0  0  0  0  0
  192.3010  176.0470  145.8100 C   0  0  0  0  0  0  0  0  0  0  0  0
  193.5300  175.4010  145.7260 C   0  0  0  0  0  0  0  0  0  0  0  0
  187.9650  177.2900  146.0690 C   0  0  1  0  0  3  0  0  0  0  0  0
  187.6530  176.1300  143.9760 O   0  0  0  0  0  0  0  0  0  0  0  0
  195.0370  174.0590  144.9210 N   0  0  0  0  0  0  0  0  0  0  0  0
  185.6150  176.7840  145.1120 C   0  0  2  0  0  3  0  0  0  0  0  0
  188.4040  174.4070  141.9080 C   0  0  0  0  0  3  0  0  0  0  0  0
  188.8330  175.3890  144.1880 C   0  0  1  0  0  3  0  0  0  0  0  0
  189.3130  174.7410  142.9220 C   0  0  0  0  0  0  0  0  0  0  0  0
  191.6200  174.6650  143.8870 C   0  0  0  0  0  0  0  0  0  0  0  0
  195.5610  174.7590  145.9210 N   0  0  0  0  0  0  0  0  0  0  0  0
  186.0070  177.6420  147.5180 C   0  0  0  0  0  3  0  0  0  0  0  0
  187.0860  176.3340  145.2470 C   0  0  2  0  0  3  0  0  0  0  0  0
  194.6590  175.5970  146.4370 N   0  0  0  0  0  0  0  0  0  0  0  0
  187.3390  177.5410  147.4010 C   0  0  0  0  0  3  0  0  0  0  0  0
  185.4300  178.2950  145.1550 C   0  0  1  0  0  3  0  0  0  0  0  0
  191.0710  173.6120  141.6880 C   0  0  0  0  0  3  0  0  0  0  0  0
  190.6520  174.3250  142.8220 C   0  0  0  0  0  0  0  0  0  0  0  0
  192.8640  174.0900  143.8620 N   0  0  0  0  0  0  0  0  0  0  0  0
  189.3530  176.6800  146.2240 C   0  0  0  0  0  2  0  0  0  0  0  0
  192.1390  177.1700  146.7820 C   0  0  0  0  0  1  0  0  0  0  0  0
  195.7530  173.0860  144.1160 C   0  0  0  0  0  1  0  0  0  0  0  0
  191.2790  175.6270  144.8990 C   0  0  0  0  0  0  0  0  0  0  0  0
  193.7680  174.4560  144.7950 C   0  0  0  0  0  0  0  0  0  0  0  0
  184.2370  178.6540  144.4080 N   0  0  0  0  0  2  0  0  0  0  0  0
  184.0680  178.2980  143.0360 C   0  0  0  0  0  0  0  0  0  0  0  0
  182.9090  178.6660  142.3680 O   0  0  0  0  0  0  0  0  0  0  0  0
  184.9630  177.6550  142.4250 O   0  0  0  0  0  1  0  0  0  0  0  0
  1 16  1  1  0  0  0
  2 27  1  0  0  0  0
  2 24  1  1  0  0  0
  3 11  1  0  0  0  0
  4  3  2  0  0  0  0
  4 21  1  0  0  0  0
  5 25  1  0  0  0  0
  6  5  1  0  0  0  0
  6 18  1  0  0  0  0
  7 24  1  1  0  0  0
  7 19  1  0  0  0  0
  8 12  1  0  0  0  0
  8 17  1  0  0  0  0
  9 15  1  0  0  0  0
 10 20  1  0  0  0  0
 10 17  1  0  0  0  0
 10  1  1  0  0  0  0
 11 13  2  0  0  0  0
 12  2  1  0  0  0  0
 13 12  1  0  0  0  0
 14 27  1  0  0  0  0
 15 18  2  0  0  0  0
 17  7  1  0  0  0  0
 19 16  2  0  0  0  0
 20  1  1  0  0  0  0
 21 22  2  0  0  0  0
 22 13  1  0  0  0  0
 22 14  1  0  0  0  0
 23 14  2  0  0  0  0
 23 28  1  0  0  0  0
 26  9  1  0  0  0  0
 27  5  2  0  0  0  0
 28  9  1  0  0  0  0
 28  6  2  0  0  0  0
 29 20  1  0  0  0  0
 30 29  1  0  0  0  0
 31 30  2  0  0  0  0
 32 30  1  0  0  0  0
M  END
>  <MODEL>
4

>  <REMARK>
 VINA RESULT:      -8.4      2.700      8.981
  Name = 
  1 active torsions:
  status: ('A' for Active; 'I' for Inactive)
    1  A    between atoms: C_20  and  N_29
                            x       y       z     vdW  Elec       q    Type
                         _______ _______ _______ _____ _____    ______ ____

>  <TORSDO>
F 1

$$$$
=
 OpenBabel11112416343D

 32 38  0  0  1  0  0  0  0  0999 V2000
  185.4200  177.2770  144.6210 C   0  0  1  0  0  3  0  0  0  0  0  0
  190.2190  175.9850  142.9860 C   0  0  1  0  0  3  0  0  0  0  0  0
  188.9760  172.8380  139.3890 C   0  0  0  0  0  3  0  0  0  0  0  0
  190.3100  172.4520  139.2530 C   0  0  0  0  0  3  0  0  0  0  0  0
  192.6730  175.9200  143.8230 C   0  0  0  0  0  0  0  0  0  0  0  0
  193.9100  175.2900  143.7540 C   0  0  0  0  0  0  0  0  0  0  0  0
  188.3300  177.1160  144.1720 C   0  0  1  0  0  3  0  0  0  0  0  0
  187.9250  175.6700  142.2830 O   0  0  0  0  0  0  0  0  0  0  0  0
  195.4010  173.8740  143.0520 N   0  0  0  0  0  0  0  0  0  0  0  0
  185.9410  176.4430  143.4400 C   0  0  2  0  0  3  0  0  0  0  0  0
  188.5970  173.6870  140.4320 C   0  0  0  0  0  3  0  0  0  0  0  0
  189.1340  174.9850  142.5240 C   0  0  1  0  0  3  0  0  0  0  0  0
  189.5550  174.1750  141.3320 C   0  0  0  0  0  0  0  0  0  0  0  0
  191.9150  174.2730  142.1550 C   0  0  0  0  0  0  0  0  0  0  0  0
  195.9650  174.7150  143.9120 N   0  0  0  0  0  0  0  0  0  0  0  0
  186.4520  177.6350  145.6750 C   0  0  0  0  0  3  0  0  0  0  0  0
  187.4280  176.0410  143.5460 C   0  0  2  0  0  3  0  0  0  0  0  0
  195.0740  175.6010  144.3610 N   0  0  0  0  0  0  0  0  0  0  0  0
  187.7770  177.5410  145.4920 C   0  0  0  0  0  3  0  0  0  0  0  0
  185.7220  177.9420  143.2840 C   0  0  1  0  0  3  0  0  0  0  0  0
  191.2660  172.9130  140.1610 C   0  0  0  0  0  3  0  0  0  0  0  0
  190.8960  173.7710  141.2090 C   0  0  0  0  0  0  0  0  0  0  0  0
  193.1690  173.7200  142.1350 N   0  0  0  0  0  0  0  0  0  0  0  0
  189.7390  176.5570  144.3250 C   0  0  0  0  0  2  0  0  0  0  0  0
  192.5400  177.1660  144.6380 C   0  0  0  0  0  1  0  0  0  0  0  0
  196.0930  172.8100  142.3470 C   0  0  0  0  0  1  0  0  0  0  0  0
  191.6100  175.3610  143.0430 C   0  0  0  0  0  0  0  0  0  0  0  0
  194.1180  174.2280  142.9500 C   0  0  0  0  0  0  0  0  0  0  0  0
  184.4790  178.1730  142.5690 N   0  0  0  0  0  2  0  0  0  0  0  0
  184.4350  178.2910  141.1470 C   0  0  0  0  0  0  0  0  0  0  0  0
  183.2200  178.5120  140.5130 O   0  0  0  0  0  1  0  0  0  0  0  0
  185.4890  178.1980  140.4630 O   0  0  0  0  0  0  0  0  0  0  0  0
  1 16  1  1  0  0  0
  2 27  1  0  0  0  0
  2 24  1  1  0  0  0
  3 11  1  0  0  0  0
  4  3  2  0  0  0  0
  4 21  1  0  0  0  0
  5 25  1  0  0  0  0
  6  5  1  0  0  0  0
  6 18  1  0  0  0  0
  7 24  1  1  0  0  0
  7 19  1  0  0  0  0
  8 12  1  0  0  0  0
  8 17  1  0  0  0  0
  9 15  1  0  0  0  0
 10 17  1  0  0  0  0
 10  1  1  0  0  0  0
 11 13  2  0  0  0  0
 12  2  1  0  0  0  0
 13 12  1  0  0  0  0
 14 27  1  0  0  0  0
 15 18  2  0  0  0  0
 17  7  1  0  0  0  0
 19 16  2  0  0  0  0
 20 10  1  0  0  0  0
 20  1  1  0  0  0  0
 21 22  2  0  0  0  0
 22 13  1  0  0  0  0
 22 14  1  0  0  0  0
 23 14  2  0  0  0  0
 23 28  1  0  0  0  0
 26  9  1  0  0  0  0
 27  5  2  0  0  0  0
 28  9  1  0  0  0  0
 28  6  2  0  0  0  0
 29 20  1  0  0  0  0
 30 29  1  0  0  0  0
 31 30  1  0  0  0  0
 32 30  2  0  0  0  0
M  END
>  <MODEL>
5

>  <REMARK>
 VINA RESULT:      -8.4      2.652      9.113
  Name = 
  1 active torsions:
  status: ('A' for Active; 'I' for Inactive)
    1  A    between atoms: C_20  and  N_29
                            x       y       z     vdW  Elec       q    Type
                         _______ _______ _______ _____ _____    ______ ____

>  <TORSDO>
F 1

$$$$
=
 OpenBabel11112416343D

 32 38  0  0  1  0  0  0  0  0999 V2000
  185.8310  178.8900  143.0370 C   0  0  1  0  0  3  0  0  0  0  0  0
  188.9820  174.7350  142.6160 C   0  0  1  0  0  3  0  0  0  0  0  0
  191.8580  175.5590  146.5440 C   0  0  0  0  0  3  0  0  0  0  0  0
  192.7210  174.5410  146.1380 C   0  0  0  0  0  3  0  0  0  0  0  0
  189.8430  173.0420  140.8500 C   0  0  0  0  0  0  0  0  0  0  0  0
  190.8870  172.2240  140.4330 C   0  0  0  0  0  0  0  0  0  0  0  0
  187.1030  176.3460  142.2600 C   0  0  1  0  0  3  0  0  0  0  0  0
  188.5130  176.4920  144.2110 O   0  0  0  0  0  0  0  0  0  0  0  0
  192.8260  171.2460  140.5240 N   0  0  0  0  0  0  0  0  0  0  0  0
  186.9330  178.3080  143.9370 C   0  0  2  0  0  3  0  0  0  0  0  0
  190.8110  175.9610  145.7120 C   0  0  0  0  0  3  0  0  0  0  0  0
  189.5610  175.8420  143.5270 C   0  0  1  0  0  3  0  0  0  0  0  0
  190.6060  175.3300  144.4760 C   0  0  0  0  0  0  0  0  0  0  0  0
  191.2840  173.6480  142.7530 C   0  0  0  0  0  0  0  0  0  0  0  0
  192.1540  170.7920  139.4720 N   0  0  0  0  0  0  0  0  0  0  0  0
  185.7530  178.3070  141.6380 C   0  0  0  0  0  3  0  0  0  0  0  0
  187.8380  177.2640  143.2490 C   0  0  2  0  0  3  0  0  0  0  0  0
  190.9550  171.3730  139.3890 N   0  0  0  0  0  0  0  0  0  0  0  0
  186.3490  177.1660  141.2650 C   0  0  0  0  0  3  0  0  0  0  0  0
  185.4890  177.8540  144.1010 C   0  0  1  0  0  3  0  0  0  0  0  0
  192.5380  173.9250  144.8980 C   0  0  0  0  0  3  0  0  0  0  0  0
  191.4860  174.3180  144.0560 C   0  0  0  0  0  0  0  0  0  0  0  0
  192.2570  172.8050  142.2830 N   0  0  0  0  0  0  0  0  0  0  0  0
  188.1180  175.4450  141.5670 C   0  0  0  0  0  2  0  0  0  0  0  0
  188.5480  172.9970  140.1060 C   0  0  0  0  0  1  0  0  0  0  0  0
  194.1460  170.7990  140.9300 C   0  0  0  0  0  1  0  0  0  0  0  0
  190.0620  173.8350  142.0210 C   0  0  0  0  0  0  0  0  0  0  0  0
  192.0390  172.1410  141.1280 C   0  0  0  0  0  0  0  0  0  0  0  0
  184.9040  178.5210  145.2520 N   0  0  0  0  0  2  0  0  0  0  0  0
  185.0180  177.9890  146.5720 C   0  0  0  0  0  0  0  0  0  0  0  0
  184.4410  178.6660  147.6380 O   0  0  0  0  0  1  0  0  0  0  0  0
  185.6370  176.9110  146.7780 O   0  0  0  0  0  0  0  0  0  0  0  0
  1 16  1  6  0  0  0
  1 10  1  0  0  0  0
  1 20  1  0  0  0  0
  2 24  1  6  0  0  0
  2 12  1  0  0  0  0
  4  3  1  0  0  0  0
  5 27  1  0  0  0  0
  6  5  2  0  0  0  0
  6 28  1  0  0  0  0
  7 19  1  6  0  0  0
  7 17  1  0  0  0  0
  9 26  1  0  0  0  0
  9 28  1  0  0  0  0
 10 20  1  0  0  0  0
 11  3  2  0  0  0  0
 12  8  1  0  0  0  0
 12 13  1  0  0  0  0
 13 11  1  0  0  0  0
 14 22  1  0  0  0  0
 15  9  1  0  0  0  0
 17 10  1  0  0  0  0
 17  8  1  0  0  0  0
 18 15  2  0  0  0  0
 18  6  1  0  0  0  0
 19 16  2  0  0  0  0
 20 29  1  0  0  0  0
 21  4  2  0  0  0  0
 22 13  2  0  0  0  0
 22 21  1  0  0  0  0
 23 14  1  0  0  0  0
 24  7  1  0  0  0  0
 25  5  1  0  0  0  0
 27  2  1  0  0  0  0
 27 14  2  0  0  0  0
 28 23  2  0  0  0  0
 29 30  1  0  0  0  0
 30 32  2  0  0  0  0
 30 31  1  0  0  0  0
M  END
>  <MODEL>
6

>  <REMARK>
 VINA RESULT:      -8.3      3.061      8.007
  Name = 
  1 active torsions:
  status: ('A' for Active; 'I' for Inactive)
    1  A    between atoms: C_20  and  N_29
                            x       y       z     vdW  Elec       q    Type
                         _______ _______ _______ _____ _____    ______ ____

>  <TORSDO>
F 1

$$$$
=
 OpenBabel11112416343D

 32 38  0  0  1  0  0  0  0  0999 V2000
  186.2050  178.3790  141.8770 C   0  0  1  0  0  3  0  0  0  0  0  0
  189.5960  174.7360  143.4920 C   0  0  1  0  0  3  0  0  0  0  0  0
  190.9240  176.7820  147.7860 C   0  0  0  0  0  3  0  0  0  0  0  0
  191.9410  175.8380  147.9310 C   0  0  0  0  0  3  0  0  0  0  0  0
  191.1150  172.8550  142.5540 C   0  0  0  0  0  0  0  0  0  0  0  0
  192.2930  172.1300  142.6970 C   0  0  0  0  0  0  0  0  0  0  0  0
  187.8380  175.9430  142.1850 C   0  0  1  0  0  3  0  0  0  0  0  0
  188.4990  176.7020  144.3770 O   0  0  0  0  0  0  0  0  0  0  0  0
  194.1510  171.4880  143.6220 N   0  0  0  0  0  0  0  0  0  0  0  0
  186.9800  178.1680  143.1880 C   0  0  2  0  0  3  0  0  0  0  0  0
  190.1910  176.8420  146.5980 C   0  0  0  0  0  3  0  0  0  0  0  0
  189.7570  176.0830  144.2340 C   0  0  1  0  0  3  0  0  0  0  0  0
  190.4560  175.9420  145.5550 C   0  0  0  0  0  0  0  0  0  0  0  0
  191.7890  174.0530  144.5990 C   0  0  0  0  0  0  0  0  0  0  0  0
  193.9050  170.7290  142.5600 N   0  0  0  0  0  0  0  0  0  0  0  0
  186.6420  177.5100  140.7120 C   0  0  0  0  0  3  0  0  0  0  0  0
  188.1330  177.1460  143.0940 C   0  0  2  0  0  3  0  0  0  0  0  0
  192.7660  171.0970  141.9690 N   0  0  0  0  0  0  0  0  0  0  0  0
  187.4070  176.4160  140.8360 C   0  0  0  0  0  3  0  0  0  0  0  0
  185.5990  177.5520  143.0040 C   0  0  1  0  0  3  0  0  0  0  0  0
  192.2280  174.9550  146.8880 C   0  0  0  0  0  3  0  0  0  0  0  0
  191.4940  175.0040  145.6920 C   0  0  0  0  0  0  0  0  0  0  0  0
  192.9190  173.2820  144.6760 N   0  0  0  0  0  0  0  0  0  0  0  0
  189.0870  175.0750  142.0860 C   0  0  0  0  0  2  0  0  0  0  0  0
  190.1510  172.4650  141.4810 C   0  0  0  0  0  1  0  0  0  0  0  0
  195.2870  171.3350  144.5140 C   0  0  0  0  0  1  0  0  0  0  0  0
  190.8730  173.9000  143.5020 C   0  0  0  0  0  0  0  0  0  0  0  0
  193.1480  172.3650  143.7120 C   0  0  0  0  0  0  0  0  0  0  0  0
  184.6180  178.3530  143.7150 N   0  0  0  0  0  2  0  0  0  0  0  0
  184.4410  178.2530  145.1280 C   0  0  0  0  0  0  0  0  0  0  0  0
  183.4890  179.0410  145.7590 O   0  0  0  0  0  0  0  0  0  0  0  0
  185.1410  177.4540  145.8070 O   0  0  0  0  0  1  0  0  0  0  0  0
  1 16  1  6  0  0  0
  1 20  1  0  0  0  0
  1 10  1  0  0  0  0
  2 24  1  6  0  0  0
  2 27  1  0  0  0  0
  2 12  1  0  0  0  0
  3  4  1  0  0  0  0
  5  6  2  0  0  0  0
  5 27  1  0  0  0  0
  6 28  1  0  0  0  0
  7 19  1  6  0  0  0
  7 17  1  0  0  0  0
  9 28  1  0  0  0  0
  9 26  1  0  0  0  0
 11  3  2  0  0  0  0
 12  8  1  0  0  0  0
 12 13  1  0  0  0  0
 13 22  2  0  0  0  0
 13 11  1  0  0  0  0
 14 23  1  0  0  0  0
 14 22  1  0  0  0  0
 15  9  1  0  0  0  0
 16 19  2  0  0  0  0
 17 10  1  0  0  0  0
 17  8  1  0  0  0  0
 18 15  2  0  0  0  0
 18  6  1  0  0  0  0
 20 10  1  0  0  0  0
 20 29  1  0  0  0  0
 21  4  2  0  0  0  0
 22 21  1  0  0  0  0
 24  7  1  0  0  0  0
 25  5  1  0  0  0  0
 27 14  2  0  0  0  0
 28 23  2  0  0  0  0
 29 30  1  0  0  0  0
 30 31  2  0  0  0  0
 30 32  1  0  0  0  0
M  END
>  <MODEL>
7

>  <REMARK>
 VINA RESULT:      -8.3      2.708      8.309
  Name = 
  1 active torsions:
  status: ('A' for Active; 'I' for Inactive)
    1  A    between atoms: C_20  and  N_29
                            x       y       z     vdW  Elec       q    Type
                         _______ _______ _______ _____ _____    ______ ____

>  <TORSDO>
F 1

$$$$
=
 OpenBabel11112416343D

 32 38  0  0  1  0  0  0  0  0999 V2000
  186.2300  177.4980  145.9320 C   0  0  1  0  0  3  0  0  0  0  0  0
  190.9410  175.6910  144.5490 C   0  0  1  0  0  3  0  0  0  0  0  0
  189.5390  172.5180  141.0350 C   0  0  0  0  0  3  0  0  0  0  0  0
  190.8340  172.0030  140.9700 C   0  0  0  0  0  3  0  0  0  0  0  0
  193.3450  175.4340  145.4880 C   0  0  0  0  0  0  0  0  0  0  0  0
  194.5190  174.6880  145.4970 C   0  0  0  0  0  0  0  0  0  0  0  0
  189.1260  177.0450  145.6090 C   0  0  1  0  0  3  0  0  0  0  0  0
  188.6560  175.5610  143.7660 O   0  0  0  0  0  0  0  0  0  0  0  0
  195.8930  173.1090  144.9150 N   0  0  0  0  0  0  0  0  0  0  0  0
  186.7130  176.5660  144.8080 C   0  0  2  0  0  3  0  0  0  0  0  0
  189.2040  173.4440  142.0260 C   0  0  0  0  0  3  0  0  0  0  0  0
  189.7840  174.7770  144.0840 C   0  0  1  0  0  3  0  0  0  0  0  0
  190.1700  173.8790  142.9450 C   0  0  0  0  0  0  0  0  0  0  0  0
  192.4970  173.7920  143.8600 C   0  0  0  0  0  0  0  0  0  0  0  0
  196.5020  173.9310  145.7630 N   0  0  0  0  0  0  0  0  0  0  0  0
  187.2510  177.8040  147.0110 C   0  0  0  0  0  3  0  0  0  0  0  0
  188.1500  176.0320  144.9910 C   0  0  2  0  0  3  0  0  0  0  0  0
  195.6830  174.9160  146.1380 N   0  0  0  0  0  0  0  0  0  0  0  0
  188.5670  177.5780  146.8880 C   0  0  0  0  0  3  0  0  0  0  0  0
  186.6430  178.0710  144.5820 C   0  0  1  0  0  3  0  0  0  0  0  0
  191.7950  172.4120  141.8970 C   0  0  0  0  0  3  0  0  0  0  0  0
  191.4700  173.3470  142.8930 C   0  0  0  0  0  0  0  0  0  0  0  0
  193.6920  173.1240  143.9130 N   0  0  0  0  0  0  0  0  0  0  0  0
  190.4690  176.3640  145.8440 C   0  0  0  0  0  2  0  0  0  0  0  0
  193.3010  176.7210  146.2460 C   0  0  0  0  0  1  0  0  0  0  0  0
  196.5060  171.9540  144.2830 C   0  0  0  0  0  1  0  0  0  0  0  0
  192.2640  174.9430  144.6890 C   0  0  0  0  0  0  0  0  0  0  0  0
  194.6540  173.5770  144.7460 C   0  0  0  0  0  0  0  0  0  0  0  0
  185.4550  178.3860  143.8080 N   0  0  0  0  0  2  0  0  0  0  0  0
  185.4530  178.3570  142.3810 C   0  0  0  0  0  0  0  0  0  0  0  0
  184.2910  178.6660  141.6880 O   0  0  0  0  0  0  0  0  0  0  0  0
  186.4980  178.0550  141.7440 O   0  0  0  0  0  1  0  0  0  0  0  0
  1 16  1  1  0  0  0
  2 27  1  0  0  0  0
  2 24  1  1  0  0  0
  3 11  1  0  0  0  0
  4  3  2  0  0  0  0
  4 21  1  0  0  0  0
  5  6  1  0  0  0  0
  5 25  1  0  0  0  0
  6 18  1  0  0  0  0
  7 24  1  1  0  0  0
  7 19  1  0  0  0  0
  8 12  1  0  0  0  0
  8 17  1  0  0  0  0
  9 15  1  0  0  0  0
 10 17  1  0  0  0  0
 10  1  1  0  0  0  0
 11 13  2  0  0  0  0
 12  2  1  0  0  0  0
 13 12  1  0  0  0  0
 14 23  2  0  0  0  0
 14 27  1  0  0  0  0
 15 18  2  0  0  0  0
 17  7  1  0  0  0  0
 19 16  2  0  0  0  0
 20 10  1  0  0  0  0
 20  1  1  0  0  0  0
 21 22  2  0  0  0  0
 22 13  1  0  0  0  0
 22 14  1  0  0  0  0
 23 28  1  0  0  0  0
 26  9  1  0  0  0  0
 27  5  2  0  0  0  0
 28  9  1  0  0  0  0
 28  6  2  0  0  0  0
 29 20  1  0  0  0  0
 30 29  1  0  0  0  0
 31 30  2  0  0  0  0
 32 30  1  0  0  0  0
M  END
>  <MODEL>
8

>  <REMARK>
 VINA RESULT:      -8.2      2.676      9.299
  Name = 
  1 active torsions:
  status: ('A' for Active; 'I' for Inactive)
    1  A    between atoms: C_20  and  N_29
                            x       y       z     vdW  Elec       q    Type
                         _______ _______ _______ _____ _____    ______ ____

>  <TORSDO>
F 1

$$$$
=
 OpenBabel11112416343D

 32 38  0  0  1  0  0  0  0  0999 V2000
  186.7590  177.9810  143.3600 C   0  0  1  0  0  3  0  0  0  0  0  0
  190.3060  174.2000  144.0580 C   0  0  1  0  0  3  0  0  0  0  0  0
  193.6580  176.7630  146.6240 C   0  0  0  0  0  3  0  0  0  0  0  0
  194.5660  175.7100  146.5070 C   0  0  0  0  0  3  0  0  0  0  0  0
  191.0760  171.9550  143.0120 C   0  0  0  0  0  0  0  0  0  0  0  0
  192.1340  171.0870  142.7670 C   0  0  0  0  0  0  0  0  0  0  0  0
  188.2030  175.4120  143.4600 C   0  0  1  0  0  3  0  0  0  0  0  0
  189.8830  176.4480  144.8460 O   0  0  0  0  0  0  0  0  0  0  0  0
  194.1710  170.3340  142.8570 N   0  0  0  0  0  0  0  0  0  0  0  0
  188.0600  177.8940  144.1740 C   0  0  2  0  0  3  0  0  0  0  0  0
  192.4450  176.7200  145.9310 C   0  0  0  0  0  3  0  0  0  0  0  0
  190.8790  175.6160  144.2940 C   0  0  1  0  0  3  0  0  0  0  0  0
  192.1230  175.6110  145.1350 C   0  0  0  0  0  0  0  0  0  0  0  0
  192.7200  173.3860  144.1600 C   0  0  0  0  0  0  0  0  0  0  0  0
  193.3990  169.4420  142.2460 N   0  0  0  0  0  0  0  0  0  0  0  0
  186.5290  176.8520  142.3730 C   0  0  0  0  0  3  0  0  0  0  0  0
  188.9660  176.6990  143.8100 C   0  0  2  0  0  3  0  0  0  0  0  0
  192.1390  169.8740  142.1760 N   0  0  0  0  0  0  0  0  0  0  0  0
  187.1970  175.6900  142.3910 C   0  0  0  0  0  3  0  0  0  0  0  0
  186.7320  177.4880  144.8010 C   0  0  1  0  0  3  0  0  0  0  0  0
  194.2630  174.6140  145.6960 C   0  0  0  0  0  3  0  0  0  0  0  0
  193.0450  174.5580  145.0010 C   0  0  0  0  0  0  0  0  0  0  0  0
  193.7030  172.4690  143.8920 N   0  0  0  0  0  0  0  0  0  0  0  0
  189.1980  174.3490  143.0090 C   0  0  0  0  0  2  0  0  0  0  0  0
  189.6930  171.5350  142.6330 C   0  0  0  0  0  1  0  0  0  0  0  0
  195.5860  170.1660  143.1340 C   0  0  0  0  0  1  0  0  0  0  0  0
  191.3800  173.1830  143.6810 C   0  0  0  0  0  0  0  0  0  0  0  0
  193.3860  171.3640  143.1840 C   0  0  0  0  0  0  0  0  0  0  0  0
  186.2630  178.5560  145.6670 N   0  0  0  0  0  2  0  0  0  0  0  0
  186.0690  178.3630  147.0680 C   0  0  0  0  0  0  0  0  0  0  0  0
  185.6190  179.4160  147.8520 O   0  0  0  0  0  1  0  0  0  0  0  0
  186.2990  177.2440  147.5990 O   0  0  0  0  0  0  0  0  0  0  0  0
  1 16  1  6  0  0  0
  1 10  1  0  0  0  0
  1 20  1  0  0  0  0
  2 24  1  6  0  0  0
  2 12  1  0  0  0  0
  4  3  1  0  0  0  0
  5 27  1  0  0  0  0
  6  5  2  0  0  0  0
  6 28  1  0  0  0  0
  7 19  1  6  0  0  0
  7 17  1  0  0  0  0
  9 26  1  0  0  0  0
  9 28  1  0  0  0  0
 10 20  1  0  0  0  0
 11  3  2  0  0  0  0
 12  8  1  0  0  0  0
 12 13  1  0  0  0  0
 13 11  1  0  0  0  0
 14 22  1  0  0  0  0
 15  9  1  0  0  0  0
 16 19  2  0  0  0  0
 17 10  1  0  0  0  0
 17  8  1  0  0  0  0
 18 15  2  0  0  0  0
 18  6  1  0  0  0  0
 20 29  1  0  0  0  0
 21  4  2  0  0  0  0
 22 13  2  0  0  0  0
 22 21  1  0  0  0  0
 23 14  1  0  0  0  0
 24  7  1  0  0  0  0
 25  5  1  0  0  0  0
 27  2  1  0  0  0  0
 27 14  2  0  0  0  0
 28 23  2  0  0  0  0
 29 30  1  0  0  0  0
 30 32  2  0  0  0  0
 30 31  1  0  0  0  0
M  END
>  <MODEL>
9

>  <REMARK>
 VINA RESULT:      -8.0      3.074      8.685
  Name = 
  1 active torsions:
  status: ('A' for Active; 'I' for Inactive)
    1  A    between atoms: C_20  and  N_29
                            x       y       z     vdW  Elec       q    Type
                         _______ _______ _______ _____ _____    ______ ____

>  <TORSDO>
F 1

$$$$
