=
 OpenBabel11112418073D

 34 42  0  0  1  0  0  0  0  0999 V2000
  189.0010  175.4650  142.9560 C   0  0  2  0  0  3  0  0  0  0  0  0
  190.8900  174.0000  142.7480 O   0  0  0  0  0  0  0  0  0  0  0  0
  184.6400  178.9210  146.5940 C   0  0  2  0  0  3  0  0  0  0  0  0
  187.2570  177.2120  143.3400 C   0  0  1  0  0  3  0  0  0  0  0  0
  186.6530  177.5200  145.8330 C   0  0  2  0  0  3  0  0  0  0  0  0
  186.3370  178.1230  148.2330 C   0  0  0  0  0  1  0  0  0  0  0  0
  183.9230  177.8540  146.0130 O   0  0  0  0  0  0  0  0  0  0  0  0
  185.0880  178.5780  144.0150 C   0  0  1  0  0  3  0  0  0  0  0  0
  190.1440  174.3750  144.9850 C   0  0  2  0  0  3  0  0  0  0  0  0
  192.6200  175.2400  146.8740 C   0  0  0  0  0  2  0  0  0  0  0  0
  188.0440  177.3500  145.9610 O   0  0  0  0  0  0  0  0  0  0  0  0
  186.3160  179.2570  144.1510 O   0  0  0  0  0  0  0  0  0  0  0  0
  189.8340  175.7550  145.5990 C   0  0  1  0  0  3  0  0  0  0  0  0
  191.7880  173.3610  143.6130 C   0  0  0  0  0  2  0  0  0  0  0  0
  186.3430  177.8650  144.3770 C   0  0  2  0  0  0  0  0  0  0  0  0
  184.1480  178.9700  145.1790 C   0  0  2  0  0  3  0  0  0  0  0  0
  192.6250  175.0050  145.3660 C   0  0  2  0  0  3  0  0  0  0  0  0
  187.9050  175.9450  143.9140 C   0  0  2  0  0  3  0  0  0  0  0  0
  186.1260  178.5760  146.8010 C   0  0  2  0  0  3  0  0  0  0  0  0
  188.3530  176.0860  145.4030 C   0  0  2  0  0  3  0  0  0  0  0  0
  187.6270  176.3490  141.0320 C   0  0  0  0  0  2  0  0  0  0  0  0
  191.5890  176.2810  147.2810 C   0  0  0  0  0  2  0  0  0  0  0  0
  186.5770  176.8720  142.0170 C   0  0  0  0  0  2  0  0  0  0  0  0
  190.1730  175.7680  147.0820 C   0  0  0  0  0  2  0  0  0  0  0  0
  191.5940  173.9100  145.0160 C   0  0  1  0  0  3  0  0  0  0  0  0
  188.3650  175.1340  141.6030 C   0  0  0  0  0  2  0  0  0  0  0  0
  189.7380  174.2440  143.5120 C   0  0  1  0  0  3  0  0  0  0  0  0
  194.0110  174.5980  144.9650 C   0  0  0  0  0  3  0  0  0  0  0  0
  195.0410  174.7540  145.8020 C   0  0  0  0  0  3  0  0  0  0  0  0
  197.3270  172.8350  143.8390 C   0  0  0  0  0  3  0  0  0  0  0  0
  196.8590  173.0610  146.1130 C   0  0  0  0  0  2  0  0  0  0  0  0
  196.4400  174.3580  145.4330 C   0  0  1  0  0  3  0  0  0  0  0  0
  197.4780  172.2600  145.0230 C   0  0  0  0  0  3  0  0  0  0  0  0
  196.5810  174.1180  143.9350 C   0  0  0  0  0  2  0  0  0  0  0  0
  1 26  1  6  0  0  0
  1 27  1  0  0  0  0
  1 18  1  0  0  0  0
  2 27  1  0  0  0  0
  2 14  1  0  0  0  0
  3  7  1  1  0  0  0
  3 19  1  0  0  0  0
  4 23  1  6  0  0  0
  4 18  1  0  0  0  0
  4 15  1  0  0  0  0
  5 11  1  6  0  0  0
  5 19  1  0  0  0  0
  8 12  1  1  0  0  0
  8 15  1  0  0  0  0
  8 16  1  0  0  0  0
  9 25  1  0  0  0  0
  9 13  1  0  0  0  0
 10 22  1  0  0  0  0
 12 15  1  0  0  0  0
 13 24  1  0  0  0  0
 14 25  1  0  0  0  0
 15  5  1  0  0  0  0
 16  7  1  0  0  0  0
 16  3  1  0  0  0  0
 17 10  1  0  0  0  0
 18 20  1  0  0  0  0
 19  6  1  0  0  0  0
 20 13  1  0  0  0  0
 20 11  1  0  0  0  0
 21 26  1  0  0  0  0
 21 23  1  0  0  0  0
 24 22  1  0  0  0  0
 25 17  1  0  0  0  0
 27  9  1  0  0  0  0
 28 17  1  0  0  0  0
 28 29  2  0  0  0  0
 30 34  1  0  0  0  0
 30 33  2  0  0  0  0
 32 29  1  0  0  0  0
 32 31  1  0  0  0  0
 33 31  1  0  0  0  0
 34 32  1  0  0  0  0
M  END
>  <MODEL>
1

>  <REMARK>
 VINA RESULT:      -9.8      0.000      0.000
  Name = 
  2 active torsions:
  status: ('A' for Active; 'I' for Inactive)
    1  A    between atoms: C_17  and  C_28
    2  A    between atoms: C_29  and  C_32
                            x       y       z     vdW  Elec       q    Type
                         _______ _______ _______ _____ _____    ______ ____

>  <TORSDO>
F 2

$$$$
=
 OpenBabel11112418073D

 34 42  0  0  1  0  0  0  0  0999 V2000
  188.9490  175.6390  142.9460 C   0  0  2  0  0  3  0  0  0  0  0  0
  190.8740  174.2340  142.6650 O   0  0  0  0  0  0  0  0  0  0  0  0
  184.5860  178.9040  146.7540 C   0  0  2  0  0  3  0  0  0  0  0  0
  187.1660  177.3280  143.4060 C   0  0  1  0  0  3  0  0  0  0  0  0
  186.6180  177.5760  145.9180 C   0  0  2  0  0  3  0  0  0  0  0  0
  186.3480  178.1290  148.3350 C   0  0  0  0  0  1  0  0  0  0  0  0
  183.8850  177.8260  146.1740 O   0  0  0  0  0  0  0  0  0  0  0  0
  184.9760  178.6170  144.1590 C   0  0  1  0  0  3  0  0  0  0  0  0
  190.1760  174.5500  144.9270 C   0  0  2  0  0  3  0  0  0  0  0  0
  192.6740  175.4570  146.7660 C   0  0  0  0  0  2  0  0  0  0  0  0
  188.0160  177.4460  146.0070 O   0  0  0  0  0  0  0  0  0  0  0  0
  186.1870  179.3300  144.2750 O   0  0  0  0  0  0  0  0  0  0  0  0
  189.8420  175.9100  145.5720 C   0  0  1  0  0  3  0  0  0  0  0  0
  191.8130  173.6080  143.4960 C   0  0  0  0  0  2  0  0  0  0  0  0
  186.2600  177.9360  144.4770 C   0  0  2  0  0  0  0  0  0  0  0  0
  184.0560  178.9620  145.3530 C   0  0  2  0  0  3  0  0  0  0  0  0
  192.6470  175.2470  145.2550 C   0  0  2  0  0  3  0  0  0  0  0  0
  187.8650  176.0710  143.9410 C   0  0  2  0  0  3  0  0  0  0  0  0
  186.0860  178.6000  146.9170 C   0  0  2  0  0  3  0  0  0  0  0  0
  188.3470  176.2000  145.4200 C   0  0  2  0  0  3  0  0  0  0  0  0
  187.5000  176.5140  141.0740 C   0  0  0  0  0  2  0  0  0  0  0  0
  191.6240  176.4600  147.2170 C   0  0  0  0  0  2  0  0  0  0  0  0
  186.4620  176.9900  142.0940 C   0  0  0  0  0  2  0  0  0  0  0  0
  190.2190  175.9090  147.0460 C   0  0  0  0  0  2  0  0  0  0  0  0
  191.6390  174.1280  144.9130 C   0  0  1  0  0  3  0  0  0  0  0  0
  188.2870  175.3120  141.6040 C   0  0  0  0  0  2  0  0  0  0  0  0
  189.7360  174.4320  143.4630 C   0  0  1  0  0  3  0  0  0  0  0  0
  194.0330  174.8870  144.8110 C   0  0  0  0  0  3  0  0  0  0  0  0
  194.9400  175.8360  144.5590 C   0  0  0  0  0  3  0  0  0  0  0  0
  197.4670  175.7330  142.0350 C   0  0  0  0  0  2  0  0  0  0  0  0
  196.4030  174.1680  143.3990 C   0  0  0  0  0  2  0  0  0  0  0  0
  196.3350  175.5120  144.1130 C   0  0  0  0  0  3  0  0  0  0  0  0
  197.2140  174.4410  142.1840 C   0  0  0  0  0  2  0  0  0  0  0  0
  196.8660  176.5450  143.1280 C   0  0  0  0  0  2  0  0  0  0  0  0
  1 26  1  6  0  0  0
  1 27  1  0  0  0  0
  1 18  1  0  0  0  0
  2 27  1  0  0  0  0
  2 14  1  0  0  0  0
  3  7  1  1  0  0  0
  3 19  1  0  0  0  0
  4 23  1  6  0  0  0
  4 18  1  0  0  0  0
  4 15  1  0  0  0  0
  5 11  1  6  0  0  0
  5 19  1  0  0  0  0
  8 12  1  1  0  0  0
  8 15  1  0  0  0  0
  8 16  1  0  0  0  0
  9 13  1  0  0  0  0
 10 22  1  0  0  0  0
 12 15  1  0  0  0  0
 13 24  1  0  0  0  0
 14 25  1  0  0  0  0
 15  5  1  0  0  0  0
 16  7  1  0  0  0  0
 16  3  1  0  0  0  0
 17 10  1  0  0  0  0
 18 20  1  0  0  0  0
 19  6  1  0  0  0  0
 20 13  1  0  0  0  0
 20 11  1  0  0  0  0
 21 26  1  0  0  0  0
 21 23  1  0  0  0  0
 24 22  1  0  0  0  0
 25  9  1  0  0  0  0
 25 17  1  0  0  0  0
 27  9  1  0  0  0  0
 28 17  1  0  0  0  0
 29 28  2  0  0  0  0
 30 33  1  0  0  0  0
 30 34  1  0  0  0  0
 31 32  1  0  0  0  0
 32 29  1  0  0  0  0
 33 31  1  0  0  0  0
 34 32  1  0  0  0  0
M  END
>  <MODEL>
2

>  <REMARK>
 VINA RESULT:      -9.5      0.866      1.174
  Name = 
  2 active torsions:
  status: ('A' for Active; 'I' for Inactive)
    1  A    between atoms: C_17  and  C_28
    2  A    between atoms: C_29  and  C_32
                            x       y       z     vdW  Elec       q    Type
                         _______ _______ _______ _____ _____    ______ ____

>  <TORSDO>
F 2

$$$$
=
 OpenBabel11112418073D

 34 42  0  0  1  0  0  0  0  0999 V2000
  187.9040  175.9960  141.8860 C   0  0  2  0  0  3  0  0  0  0  0  0
  186.3210  176.8280  140.2860 O   0  0  0  0  0  0  0  0  0  0  0  0
  191.1220  176.3840  147.6910 C   0  0  2  0  0  3  0  0  0  0  0  0
  189.2760  175.1090  143.7770 C   0  0  1  0  0  3  0  0  0  0  0  0
  189.4820  176.7610  145.7520 C   0  0  2  0  0  3  0  0  0  0  0  0
  189.3710  178.1510  147.8200 C   0  0  0  0  0  1  0  0  0  0  0  0
  192.0730  176.6550  146.6850 O   0  0  0  0  0  0  0  0  0  0  0  0
  191.0860  174.6890  145.6670 C   0  0  1  0  0  3  0  0  0  0  0  0
  186.6900  178.2450  142.1740 C   0  0  2  0  0  3  0  0  0  0  0  0
  183.8750  179.0970  143.5150 C   0  0  0  0  0  2  0  0  0  0  0  0
  188.1320  176.9800  145.4190 O   0  0  0  0  0  0  0  0  0  0  0  0
  189.7570  174.3480  145.9930 O   0  0  0  0  0  0  0  0  0  0  0  0
  186.6880  177.7830  143.6450 C   0  0  1  0  0  3  0  0  0  0  0  0
  185.4290  177.9060  140.1960 C   0  0  0  0  0  2  0  0  0  0  0  0
  189.9250  175.4430  145.1200 C   0  0  2  0  0  0  0  0  0  0  0  0
  191.7850  175.2910  146.9080 C   0  0  2  0  0  3  0  0  0  0  0  0
  184.1110  178.1280  142.3610 C   0  0  2  0  0  3  0  0  0  0  0  0
  188.7690  176.3850  143.0910 C   0  0  2  0  0  3  0  0  0  0  0  0
  189.6970  176.7780  147.2630 C   0  0  2  0  0  3  0  0  0  0  0  0
  188.1090  177.4060  144.0690 C   0  0  2  0  0  3  0  0  0  0  0  0
  189.3630  173.9620  141.5670 C   0  0  0  0  0  2  0  0  0  0  0  0
  184.6610  178.7020  144.7560 C   0  0  0  0  0  2  0  0  0  0  0  0
  190.1730  174.3420  142.8090 C   0  0  0  0  0  2  0  0  0  0  0  0
  186.1550  178.8840  144.5500 C   0  0  0  0  0  2  0  0  0  0  0  0
  185.3420  178.5870  141.5510 C   0  0  1  0  0  3  0  0  0  0  0  0
  188.7610  175.2010  140.8970 C   0  0  0  0  0  2  0  0  0  0  0  0
  187.3050  177.2290  141.2040 C   0  0  1  0  0  3  0  0  0  0  0  0
  182.8750  178.1090  141.5120 C   0  0  0  0  0  3  0  0  0  0  0  0
  181.7370  178.6600  141.9450 C   0  0  0  0  0  3  0  0  0  0  0  0
  178.6970  180.2080  140.8840 C   0  0  0  0  0  2  0  0  0  0  0  0
  179.2750  178.2070  141.9330 C   0  0  0  0  0  2  0  0  0  0  0  0
  180.4830  178.6580  141.1220 C   0  0  0  0  0  3  0  0  0  0  0  0
  178.2230  179.2050  141.6080 C   0  0  0  0  0  2  0  0  0  0  0  0
  180.1490  180.0500  140.6000 C   0  0  0  0  0  2  0  0  0  0  0  0
  1 26  1  6  0  0  0
  1 18  1  0  0  0  0
  2 27  1  0  0  0  0
  3  7  1  6  0  0  0
  4 23  1  6  0  0  0
  4 15  1  0  0  0  0
  5 11  1  1  0  0  0
  5 19  1  0  0  0  0
  7 16  1  0  0  0  0
  8 12  1  1  0  0  0
  8 16  1  0  0  0  0
  9 13  1  0  0  0  0
 10 22  1  0  0  0  0
 13 20  1  0  0  0  0
 13 24  1  0  0  0  0
 14  2  1  0  0  0  0
 14 25  1  0  0  0  0
 15  8  1  0  0  0  0
 15  5  1  0  0  0  0
 15 12  1  0  0  0  0
 16  3  1  0  0  0  0
 17 10  1  0  0  0  0
 18  4  1  0  0  0  0
 18 20  1  0  0  0  0
 19  3  1  0  0  0  0
 19  6  1  0  0  0  0
 20 11  1  0  0  0  0
 21 23  1  0  0  0  0
 24 22  1  0  0  0  0
 25  9  1  0  0  0  0
 25 17  1  0  0  0  0
 26 21  1  0  0  0  0
 27  1  1  0  0  0  0
 27  9  1  0  0  0  0
 28 29  2  0  0  0  0
 28 17  1  0  0  0  0
 30 33  1  0  0  0  0
 32 31  1  0  0  0  0
 32 29  1  0  0  0  0
 33 31  1  0  0  0  0
 34 30  1  0  0  0  0
 34 32  1  0  0  0  0
M  END
>  <MODEL>
3

>  <REMARK>
 VINA RESULT:      -9.3      3.061      9.523
  Name = 
  2 active torsions:
  status: ('A' for Active; 'I' for Inactive)
    1  A    between atoms: C_17  and  C_28
    2  A    between atoms: C_29  and  C_32
                            x       y       z     vdW  Elec       q    Type
                         _______ _______ _______ _____ _____    ______ ____

>  <TORSDO>
F 2

$$$$
=
 OpenBabel11112418073D

 34 42  0  0  1  0  0  0  0  0999 V2000
  189.7400  174.0450  142.1960 C   0  0  2  0  0  3  0  0  0  0  0  0
  191.4080  172.5460  143.0500 O   0  0  0  0  0  0  0  0  0  0  0  0
  185.1580  178.7910  143.0170 C   0  0  2  0  0  3  0  0  0  0  0  0
  188.2080  175.8660  141.4370 C   0  0  1  0  0  3  0  0  0  0  0  0
  187.0840  177.1340  143.3870 C   0  0  2  0  0  3  0  0  0  0  0  0
  186.2990  178.6270  145.2250 C   0  0  0  0  0  1  0  0  0  0  0  0
  184.4590  177.6090  142.6940 O   0  0  0  0  0  0  0  0  0  0  0  0
  186.1470  177.4630  140.9600 C   0  0  1  0  0  3  0  0  0  0  0  0
  190.2160  173.7820  144.7100 C   0  0  2  0  0  3  0  0  0  0  0  0
  192.2740  175.2200  146.7460 C   0  0  0  0  0  2  0  0  0  0  0  0
  188.3700  176.9770  143.9360 O   0  0  0  0  0  0  0  0  0  0  0  0
  187.3890  178.0980  141.1650 O   0  0  0  0  0  0  0  0  0  0  0  0
  189.9610  175.3030  144.6730 C   0  0  1  0  0  3  0  0  0  0  0  0
  191.9830  172.2590  144.2960 C   0  0  0  0  0  2  0  0  0  0  0  0
  187.1730  176.9010  141.8800 C   0  0  2  0  0  0  0  0  0  0  0  0
  185.0230  178.3080  141.6040 C   0  0  2  0  0  3  0  0  0  0  0  0
  192.6010  174.4210  145.4870 C   0  0  2  0  0  3  0  0  0  0  0  0
  188.5250  174.8970  142.5840 C   0  0  2  0  0  3  0  0  0  0  0  0
  186.4930  178.5000  143.7250 C   0  0  2  0  0  3  0  0  0  0  0  0
  188.6260  175.5850  143.9810 C   0  0  2  0  0  3  0  0  0  0  0  0
  188.9880  174.1670  139.7910 C   0  0  0  0  0  2  0  0  0  0  0  0
  191.3280  176.3740  146.4540 C   0  0  0  0  0  2  0  0  0  0  0  0
  187.8180  175.0660  140.1970 C   0  0  0  0  0  2  0  0  0  0  0  0
  189.9410  175.8750  146.0830 C   0  0  0  0  0  2  0  0  0  0  0  0
  191.5420  173.3140  145.2960 C   0  0  1  0  0  3  0  0  0  0  0  0
  189.4000  173.2400  140.9390 C   0  0  0  0  0  2  0  0  0  0  0  0
  190.1540  173.1080  143.3350 C   0  0  1  0  0  3  0  0  0  0  0  0
  193.9740  173.8410  145.6490 C   0  0  0  0  0  3  0  0  0  0  0  0
  195.0570  174.6240  145.6180 C   0  0  0  0  0  3  0  0  0  0  0  0
  197.9410  172.9920  144.2830 C   0  0  0  0  0  2  0  0  0  0  0  0
  196.4360  172.5720  146.0140 C   0  0  0  0  0  2  0  0  0  0  0  0
  196.4450  174.0770  145.7770 C   0  0  0  0  0  3  0  0  0  0  0  0
  197.4780  172.0500  145.0910 C   0  0  0  0  0  2  0  0  0  0  0  0
  197.2870  174.3050  144.5270 C   0  0  0  0  0  2  0  0  0  0  0  0
  1 26  1  6  0  0  0
  1 18  1  0  0  0  0
  1 27  1  0  0  0  0
  2 27  1  0  0  0  0
  2 14  1  0  0  0  0
  3  7  1  1  0  0  0
  3 19  1  0  0  0  0
  4 23  1  6  0  0  0
  4 15  1  0  0  0  0
  4 18  1  0  0  0  0
  5 19  1  0  0  0  0
  5 11  1  6  0  0  0
  8 12  1  6  0  0  0
  8 16  1  0  0  0  0
  8 15  1  0  0  0  0
  9 25  1  0  0  0  0
 11 20  1  0  0  0  0
 12 15  1  0  0  0  0
 13  9  1  0  0  0  0
 13 24  1  0  0  0  0
 14 25  1  0  0  0  0
 15  5  1  0  0  0  0
 16  7  1  0  0  0  0
 16  3  1  0  0  0  0
 17 28  1  0  0  0  0
 17 10  1  0  0  0  0
 18 20  1  0  0  0  0
 19  6  1  0  0  0  0
 20 13  1  0  0  0  0
 21 23  1  0  0  0  0
 21 26  1  0  0  0  0
 22 10  1  0  0  0  0
 24 22  1  0  0  0  0
 25 17  1  0  0  0  0
 27  9  1  0  0  0  0
 29 28  2  0  0  0  0
 29 32  1  0  0  0  0
 30 34  1  0  0  0  0
 30 33  1  0  0  0  0
 32 31  1  0  0  0  0
 33 31  1  0  0  0  0
 34 32  1  0  0  0  0
M  END
>  <MODEL>
4

>  <REMARK>
 VINA RESULT:      -9.1      1.401      2.091
  Name = 
  2 active torsions:
  status: ('A' for Active; 'I' for Inactive)
    1  A    between atoms: C_17  and  C_28
    2  A    between atoms: C_29  and  C_32
                            x       y       z     vdW  Elec       q    Type
                         _______ _______ _______ _____ _____    ______ ____

>  <TORSDO>
F 2

$$$$
=
 OpenBabel11112418073D

 34 42  0  0  1  0  0  0  0  0999 V2000
  191.4800  174.5680  142.8040 C   0  0  2  0  0  3  0  0  0  0  0  0
  189.7220  176.1920  142.9770 O   0  0  0  0  0  0  0  0  0  0  0  0
  197.3310  172.0440  144.6990 C   0  0  2  0  0  3  0  0  0  0  0  0
  193.2350  172.7970  142.9640 C   0  0  1  0  0  3  0  0  0  0  0  0
  195.1620  173.4120  144.5710 C   0  0  2  0  0  3  0  0  0  0  0  0
  196.8170  173.7910  146.3990 C   0  0  0  0  0  1  0  0  0  0  0  0
  197.5280  172.5960  143.4160 O   0  0  0  0  0  0  0  0  0  0  0  0
  195.4820  171.3910  142.9320 C   0  0  1  0  0  3  0  0  0  0  0  0
  191.6260  176.6130  144.3580 C   0  0  2  0  0  3  0  0  0  0  0  0
  190.7110  177.1570  147.4100 C   0  0  0  0  0  2  0  0  0  0  0  0
  194.0810  173.9170  145.3170 O   0  0  0  0  0  0  0  0  0  0  0  0
  194.5900  171.1110  143.9880 O   0  0  0  0  0  0  0  0  0  0  0  0
  192.3100  175.5730  145.2680 C   0  0  1  0  0  3  0  0  0  0  0  0
  189.4360  177.3080  143.7760 C   0  0  0  0  0  2  0  0  0  0  0  0
  194.6130  172.4440  143.5240 C   0  0  2  0  0  0  0  0  0  0  0  0
  196.9370  171.3150  143.4500 C   0  0  2  0  0  3  0  0  0  0  0  0
  189.8390  176.7500  146.2260 C   0  0  2  0  0  3  0  0  0  0  0  0
  192.9520  174.2960  143.1340 C   0  0  2  0  0  3  0  0  0  0  0  0
  196.2060  172.7570  145.4710 C   0  0  2  0  0  3  0  0  0  0  0  0
  193.4360  174.8770  144.5000 C   0  0  2  0  0  3  0  0  0  0  0  0
  191.5720  172.6990  141.1110 C   0  0  0  0  0  2  0  0  0  0  0  0
  191.8520  176.1760  147.6360 C   0  0  0  0  0  2  0  0  0  0  0  0
  193.0240  172.4100  141.5030 C   0  0  0  0  0  2  0  0  0  0  0  0
  192.8730  176.2410  146.5130 C   0  0  0  0  0  2  0  0  0  0  0  0
  190.4230  177.3520  144.9300 C   0  0  1  0  0  3  0  0  0  0  0  0
  191.2170  174.1700  141.3490 C   0  0  0  0  0  2  0  0  0  0  0  0
  191.1170  176.0380  143.0300 C   0  0  1  0  0  3  0  0  0  0  0  0
  188.4490  177.2480  146.4810 C   0  0  0  0  0  3  0  0  0  0  0  0
  187.4860  176.4150  146.8880 C   0  0  0  0  0  3  0  0  0  0  0  0
  184.5280  178.1470  145.8790 C   0  0  0  0  0  2  0  0  0  0  0  0
  186.0490  178.3240  147.6380 C   0  0  0  0  0  2  0  0  0  0  0  0
  186.0840  176.8800  147.1520 C   0  0  0  0  0  3  0  0  0  0  0  0
  184.9750  178.9560  146.8280 C   0  0  0  0  0  2  0  0  0  0  0  0
  185.2280  176.8340  145.8930 C   0  0  0  0  0  2  0  0  0  0  0  0
  1 26  1  6  0  0  0
  1 27  1  0  0  0  0
  1 18  1  0  0  0  0
  2 27  1  0  0  0  0
  2 14  1  0  0  0  0
  3  7  1  6  0  0  0
  3 19  1  0  0  0  0
  4 23  1  6  0  0  0
  4 18  1  0  0  0  0
  4 15  1  0  0  0  0
  5 11  1  1  0  0  0
  5 19  1  0  0  0  0
  7 16  1  0  0  0  0
  8 16  1  0  0  0  0
  8 15  1  0  0  0  0
  8 12  1  1  0  0  0
  9 25  1  0  0  0  0
  9 13  1  0  0  0  0
 10 22  1  0  0  0  0
 13 24  1  0  0  0  0
 14 25  1  0  0  0  0
 15 12  1  0  0  0  0
 15  5  1  0  0  0  0
 16  3  1  0  0  0  0
 17 28  1  0  0  0  0
 17 10  1  0  0  0  0
 18 20  1  0  0  0  0
 19  6  1  0  0  0  0
 20 13  1  0  0  0  0
 20 11  1  0  0  0  0
 21 26  1  0  0  0  0
 21 23  1  0  0  0  0
 24 22  1  0  0  0  0
 25 17  1  0  0  0  0
 27  9  1  0  0  0  0
 28 29  2  0  0  0  0
 29 32  1  0  0  0  0
 30 34  1  0  0  0  0
 30 33  1  0  0  0  0
 32 31  1  0  0  0  0
 33 31  1  0  0  0  0
 34 32  1  0  0  0  0
M  END
>  <MODEL>
5

>  <REMARK>
 VINA RESULT:      -9.1      2.302      8.863
  Name = 
  2 active torsions:
  status: ('A' for Active; 'I' for Inactive)
    1  A    between atoms: C_17  and  C_28
    2  A    between atoms: C_29  and  C_32
                            x       y       z     vdW  Elec       q    Type
                         _______ _______ _______ _____ _____    ______ ____

>  <TORSDO>
F 2

$$$$
=
 OpenBabel11112418073D

 34 42  0  0  1  0  0  0  0  0999 V2000
  192.3880  176.1040  145.3220 C   0  0  2  0  0  3  0  0  0  0  0  0
  190.3300  176.2410  146.5490 O   0  0  0  0  0  0  0  0  0  0  0  0
  195.9690  174.0860  140.0970 C   0  0  2  0  0  3  0  0  0  0  0  0
  194.3550  176.1280  143.7820 C   0  0  1  0  0  3  0  0  0  0  0  0
  194.0380  174.6360  141.6970 C   0  0  2  0  0  3  0  0  0  0  0  0
  193.6140  173.5360  139.4990 C   0  0  0  0  0  1  0  0  0  0  0  0
  196.4210  173.3400  141.2060 O   0  0  0  0  0  0  0  0  0  0  0  0
  196.4400  175.5220  142.2620 C   0  0  1  0  0  3  0  0  0  0  0  0
  190.2540  174.8600  144.6010 C   0  0  2  0  0  3  0  0  0  0  0  0
  187.7340  175.6610  142.7440 C   0  0  0  0  0  2  0  0  0  0  0  0
  192.7410  175.1740  141.7840 O   0  0  0  0  0  0  0  0  0  0  0  0
  195.5820  176.5260  141.7670 O   0  0  0  0  0  0  0  0  0  0  0  0
  190.7790  175.2610  143.2080 C   0  0  1  0  0  3  0  0  0  0  0  0
  189.0070  175.8100  146.3780 C   0  0  0  0  0  2  0  0  0  0  0  0
  194.9770  175.5060  142.5310 C   0  0  2  0  0  0  0  0  0  0  0  0
  196.9420  174.6470  141.0900 C   0  0  2  0  0  3  0  0  0  0  0  0
  188.2160  176.3450  144.0190 C   0  0  2  0  0  3  0  0  0  0  0  0
  193.1320  175.3190  144.2360 C   0  0  2  0  0  3  0  0  0  0  0  0
  194.4980  174.5160  140.2470 C   0  0  2  0  0  3  0  0  0  0  0  0
  192.2370  174.8180  143.0590 C   0  0  2  0  0  3  0  0  0  0  0  0
  194.6040  177.0350  146.0890 C   0  0  0  0  0  2  0  0  0  0  0  0
  188.8320  175.5800  141.6950 C   0  0  0  0  0  2  0  0  0  0  0  0
  195.3140  176.2870  144.9580 C   0  0  0  0  0  2  0  0  0  0  0  0
  189.9340  174.6230  142.1150 C   0  0  0  0  0  2  0  0  0  0  0  0
  188.8380  175.2910  144.9600 C   0  0  1  0  0  3  0  0  0  0  0  0
  193.3240  176.3080  146.5160 C   0  0  0  0  0  2  0  0  0  0  0  0
  191.1110  175.3810  145.7610 C   0  0  1  0  0  3  0  0  0  0  0  0
  187.0380  177.0190  144.6570 C   0  0  0  0  0  3  0  0  0  0  0  0
  186.9310  178.3510  144.6630 C   0  0  0  0  0  3  0  0  0  0  0  0
  184.4990  178.6580  147.2620 C   0  0  0  0  0  2  0  0  0  0  0  0
  184.4430  178.3870  144.9460 C   0  0  0  0  0  2  0  0  0  0  0  0
  185.7670  179.0580  145.2930 C   0  0  0  0  0  3  0  0  0  0  0  0
  183.7290  178.2950  146.2470 C   0  0  0  0  0  2  0  0  0  0  0  0
  185.8610  179.0540  146.8140 C   0  0  0  0  0  2  0  0  0  0  0  0
  1 27  1  0  0  0  0
  1 26  1  1  0  0  0
  3 19  1  0  0  0  0
  3 16  1  0  0  0  0
  3  7  1  1  0  0  0
  4 18  1  0  0  0  0
  4 23  1  1  0  0  0
  5 11  1  6  0  0  0
  5 15  1  0  0  0  0
  6 19  1  0  0  0  0
  8 12  1  6  0  0  0
  8 15  1  0  0  0  0
  9 25  1  0  0  0  0
  9 27  1  0  0  0  0
 10 17  1  0  0  0  0
 11 20  1  0  0  0  0
 12 15  1  0  0  0  0
 13  9  1  0  0  0  0
 14  2  1  0  0  0  0
 15  4  1  0  0  0  0
 16  7  1  0  0  0  0
 16  8  1  0  0  0  0
 17 28  1  0  0  0  0
 17 25  1  0  0  0  0
 18  1  1  0  0  0  0
 19  5  1  0  0  0  0
 20 13  1  0  0  0  0
 20 18  1  0  0  0  0
 21 26  1  0  0  0  0
 22 24  1  0  0  0  0
 22 10  1  0  0  0  0
 23 21  1  0  0  0  0
 24 13  1  0  0  0  0
 25 14  1  0  0  0  0
 27  2  1  0  0  0  0
 28 29  2  0  0  0  0
 29 32  1  0  0  0  0
 31 32  1  0  0  0  0
 31 33  1  0  0  0  0
 32 34  1  0  0  0  0
 33 30  1  0  0  0  0
 34 30  1  0  0  0  0
M  END
>  <MODEL>
6

>  <REMARK>
 VINA RESULT:      -8.8      2.405      9.211
  Name = 
  2 active torsions:
  status: ('A' for Active; 'I' for Inactive)
    1  A    between atoms: C_17  and  C_28
    2  A    between atoms: C_29  and  C_32
                            x       y       z     vdW  Elec       q    Type
                         _______ _______ _______ _____ _____    ______ ____

>  <TORSDO>
F 2

$$$$
=
 OpenBabel11112418073D

 34 42  0  0  1  0  0  0  0  0999 V2000
  190.8960  172.6710  143.1600 C   0  0  2  0  0  3  0  0  0  0  0  0
  189.0370  174.1660  142.9060 O   0  0  0  0  0  0  0  0  0  0  0  0
  197.0840  171.3060  145.1720 C   0  0  2  0  0  3  0  0  0  0  0  0
  192.7960  171.1690  143.7760 C   0  0  1  0  0  3  0  0  0  0  0  0
  194.8090  172.4330  144.7880 C   0  0  2  0  0  3  0  0  0  0  0  0
  196.5920  173.5540  146.1240 C   0  0  0  0  0  1  0  0  0  0  0  0
  197.1150  171.3240  143.7610 O   0  0  0  0  0  0  0  0  0  0  0  0
  195.1360  169.9480  144.0180 C   0  0  1  0  0  3  0  0  0  0  0  0
  191.0210  175.1620  143.7870 C   0  0  2  0  0  3  0  0  0  0  0  0
  190.3560  176.8120  146.4860 C   0  0  0  0  0  2  0  0  0  0  0  0
  193.7660  173.1460  145.4060 O   0  0  0  0  0  0  0  0  0  0  0  0
  194.3720  170.0660  145.1980 O   0  0  0  0  0  0  0  0  0  0  0  0
  191.8700  174.5830  144.9380 C   0  0  1  0  0  3  0  0  0  0  0  0
  188.7380  175.4930  143.2470 C   0  0  0  0  0  2  0  0  0  0  0  0
  194.2440  171.1140  144.2620 C   0  0  2  0  0  0  0  0  0  0  0  0
  196.6340  170.1340  144.3510 C   0  0  2  0  0  3  0  0  0  0  0  0
  189.4130  175.9440  145.6580 C   0  0  2  0  0  3  0  0  0  0  0  0
  192.4100  172.6050  143.3930 C   0  0  2  0  0  3  0  0  0  0  0  0
  195.9820  172.2190  145.7400 C   0  0  2  0  0  3  0  0  0  0  0  0
  192.9710  173.6880  144.3670 C   0  0  2  0  0  3  0  0  0  0  0  0
  190.9800  170.2960  142.3100 C   0  0  0  0  0  2  0  0  0  0  0  0
  191.5880  176.0410  146.9330 C   0  0  0  0  0  2  0  0  0  0  0  0
  192.4810  170.2380  142.6090 C   0  0  0  0  0  2  0  0  0  0  0  0
  192.4910  175.7040  145.7590 C   0  0  0  0  0  2  0  0  0  0  0  0
  189.8220  176.0190  144.1710 C   0  0  1  0  0  3  0  0  0  0  0  0
  190.5310  171.7290  142.0090 C   0  0  0  0  0  2  0  0  0  0  0  0
  190.4380  174.0980  142.8500 C   0  0  1  0  0  3  0  0  0  0  0  0
  188.0160  176.4490  145.8660 C   0  0  0  0  0  3  0  0  0  0  0  0
  187.4920  176.5310  147.0920 C   0  0  0  0  0  3  0  0  0  0  0  0
  184.4990  178.1140  145.9520 C   0  0  0  0  0  2  0  0  0  0  0  0
  186.0770  178.5280  147.6200 C   0  0  0  0  0  2  0  0  0  0  0  0
  186.0990  177.0310  147.3360 C   0  0  0  0  0  3  0  0  0  0  0  0
  184.9750  179.0450  146.7660 C   0  0  0  0  0  2  0  0  0  0  0  0
  185.2020  176.8140  146.1240 C   0  0  0  0  0  2  0  0  0  0  0  0
  1 26  1  6  0  0  0
  1 18  1  0  0  0  0
  2 14  1  0  0  0  0
  3  7  1  6  0  0  0
  3 19  1  0  0  0  0
  4 23  1  6  0  0  0
  4 15  1  0  0  0  0
  5 11  1  1  0  0  0
  5 19  1  0  0  0  0
  7 16  1  0  0  0  0
  8 15  1  0  0  0  0
  8 16  1  0  0  0  0
  8 12  1  1  0  0  0
  9 25  1  0  0  0  0
  9 13  1  0  0  0  0
 10 22  1  0  0  0  0
 13 24  1  0  0  0  0
 14 25  1  0  0  0  0
 15  5  1  0  0  0  0
 15 12  1  0  0  0  0
 16  3  1  0  0  0  0
 17 28  1  0  0  0  0
 17 10  1  0  0  0  0
 18  4  1  0  0  0  0
 18 20  1  0  0  0  0
 19  6  1  0  0  0  0
 20 13  1  0  0  0  0
 20 11  1  0  0  0  0
 21 23  1  0  0  0  0
 24 22  1  0  0  0  0
 25 17  1  0  0  0  0
 26 21  1  0  0  0  0
 27  2  1  0  0  0  0
 27  1  1  0  0  0  0
 27  9  1  0  0  0  0
 28 29  2  0  0  0  0
 29 32  1  0  0  0  0
 30 34  1  0  0  0  0
 30 33  1  0  0  0  0
 32 31  1  0  0  0  0
 33 31  1  0  0  0  0
 34 32  1  0  0  0  0
M  END
>  <MODEL>
7

>  <REMARK>
 VINA RESULT:      -8.8      2.406      9.036
  Name = 
  2 active torsions:
  status: ('A' for Active; 'I' for Inactive)
    1  A    between atoms: C_17  and  C_28
    2  A    between atoms: C_29  and  C_32
                            x       y       z     vdW  Elec       q    Type
                         _______ _______ _______ _____ _____    ______ ____

>  <TORSDO>
F 2

$$$$
=
 OpenBabel11112418073D

 34 42  0  0  1  0  0  0  0  0999 V2000
  192.1320  176.0170  145.8180 C   0  0  2  0  0  3  0  0  0  0  0  0
  190.1720  177.3990  145.8830 O   0  0  0  0  0  0  0  0  0  0  0  0
  195.1740  170.2140  144.6900 C   0  0  2  0  0  3  0  0  0  0  0  0
  194.1030  174.5380  145.4020 C   0  0  1  0  0  3  0  0  0  0  0  0
  193.4500  172.1130  144.7950 C   0  0  2  0  0  3  0  0  0  0  0  0
  192.8610  169.8930  143.8230 C   0  0  0  0  0  1  0  0  0  0  0  0
  195.1920  170.4130  146.0860 O   0  0  0  0  0  0  0  0  0  0  0  0
  195.9390  172.6270  145.4400 C   0  0  1  0  0  3  0  0  0  0  0  0
  189.7700  175.0980  145.3820 C   0  0  2  0  0  3  0  0  0  0  0  0
  187.9460  174.8200  142.7290 C   0  0  0  0  0  2  0  0  0  0  0  0
  192.4550  172.7990  144.0730 O   0  0  0  0  0  0  0  0  0  0  0  0
  195.5840  173.1210  144.1680 O   0  0  0  0  0  0  0  0  0  0  0  0
  190.5440  174.2680  144.3400 C   0  0  1  0  0  3  0  0  0  0  0  0
  188.8090  177.2550  145.5890 C   0  0  0  0  0  2  0  0  0  0  0  0
  194.5610  173.1030  145.1400 C   0  0  2  0  0  0  0  0  0  0  0  0
  196.1830  171.1020  145.3530 C   0  0  2  0  0  3  0  0  0  0  0  0
  188.5230  176.0920  143.3440 C   0  0  2  0  0  3  0  0  0  0  0  0
  192.6250  174.5650  145.8150 C   0  0  2  0  0  3  0  0  0  0  0  0
  193.9720  170.9060  144.0210 C   0  0  2  0  0  3  0  0  0  0  0  0
  191.7290  173.5700  145.0120 C   0  0  2  0  0  3  0  0  0  0  0  0
  194.4470  176.7420  146.5130 C   0  0  0  0  0  2  0  0  0  0  0  0
  189.0290  173.7970  142.4250 C   0  0  0  0  0  2  0  0  0  0  0  0
  194.9280  175.2900  146.4430 C   0  0  0  0  0  2  0  0  0  0  0  0
  189.6330  173.2310  143.6990 C   0  0  0  0  0  2  0  0  0  0  0  0
  188.5970  175.9290  144.8770 C   0  0  1  0  0  3  0  0  0  0  0  0
  192.9520  176.8160  146.8350 C   0  0  0  0  0  2  0  0  0  0  0  0
  190.6400  176.1020  146.1480 C   0  0  1  0  0  3  0  0  0  0  0  0
  187.6350  177.2370  142.9580 C   0  0  0  0  0  3  0  0  0  0  0  0
  186.4300  177.0210  142.4230 C   0  0  0  0  0  3  0  0  0  0  0  0
  183.1640  178.2910  141.7280 C   0  0  0  0  0  2  0  0  0  0  0  0
  185.1640  178.0880  140.5450 C   0  0  0  0  0  2  0  0  0  0  0  0
  185.5170  178.1430  142.0260 C   0  0  0  0  0  3  0  0  0  0  0  0
  183.6910  178.2910  140.5130 C   0  0  0  0  0  2  0  0  0  0  0  0
  184.1940  178.0870  142.7810 C   0  0  0  0  0  2  0  0  0  0  0  0
  1 27  1  0  0  0  0
  1 26  1  1  0  0  0
  2 27  1  0  0  0  0
  3 16  1  0  0  0  0
  3  7  1  1  0  0  0
  4 18  1  0  0  0  0
  4 23  1  1  0  0  0
  5 11  1  6  0  0  0
  5 15  1  0  0  0  0
  6 19  1  0  0  0  0
  8 12  1  6  0  0  0
  9 27  1  0  0  0  0
 10 17  1  0  0  0  0
 11 20  1  0  0  0  0
 12 15  1  0  0  0  0
 13 20  1  0  0  0  0
 13  9  1  0  0  0  0
 14  2  1  0  0  0  0
 15  4  1  0  0  0  0
 15  8  1  0  0  0  0
 16  8  1  0  0  0  0
 16  7  1  0  0  0  0
 17 25  1  0  0  0  0
 18  1  1  0  0  0  0
 19  3  1  0  0  0  0
 19  5  1  0  0  0  0
 20 18  1  0  0  0  0
 21 26  1  0  0  0  0
 22 10  1  0  0  0  0
 22 24  1  0  0  0  0
 23 21  1  0  0  0  0
 24 13  1  0  0  0  0
 25  9  1  0  0  0  0
 25 14  1  0  0  0  0
 28 17  1  0  0  0  0
 29 28  2  0  0  0  0
 30 34  1  0  0  0  0
 31 32  1  0  0  0  0
 32 29  1  0  0  0  0
 32 34  1  0  0  0  0
 33 31  1  0  0  0  0
 33 30  1  0  0  0  0
M  END
>  <MODEL>
8

>  <REMARK>
 VINA RESULT:      -8.8      2.280      9.389
  Name = 
  2 active torsions:
  status: ('A' for Active; 'I' for Inactive)
    1  A    between atoms: C_17  and  C_28
    2  A    between atoms: C_29  and  C_32
                            x       y       z     vdW  Elec       q    Type
                         _______ _______ _______ _____ _____    ______ ____

>  <TORSDO>
F 2

$$$$
=
 OpenBabel11112418073D

 34 42  0  0  1  0  0  0  0  0999 V2000
  192.0740  175.8640  145.6670 C   0  0  2  0  0  3  0  0  0  0  0  0
  189.8350  176.4800  146.2730 O   0  0  0  0  0  0  0  0  0  0  0  0
  196.4060  172.1690  142.2360 C   0  0  2  0  0  3  0  0  0  0  0  0
  194.3110  175.3130  144.7020 C   0  0  1  0  0  3  0  0  0  0  0  0
  194.2630  173.2830  143.1050 C   0  0  2  0  0  3  0  0  0  0  0  0
  194.1840  171.5990  141.2670 C   0  0  0  0  0  1  0  0  0  0  0  0
  196.5150  171.7670  143.5840 O   0  0  0  0  0  0  0  0  0  0  0  0
  196.5810  174.1610  143.9600 C   0  0  1  0  0  3  0  0  0  0  0  0
  190.0050  174.5840  144.8310 C   0  0  2  0  0  3  0  0  0  0  0  0
  188.0590  174.9300  142.2740 C   0  0  0  0  0  2  0  0  0  0  0  0
  193.0540  173.8950  142.7230 O   0  0  0  0  0  0  0  0  0  0  0  0
  195.9800  175.0160  143.0130 O   0  0  0  0  0  0  0  0  0  0  0  0
  190.8610  174.5160  143.5500 C   0  0  1  0  0  3  0  0  0  0  0  0
  188.5360  176.0940  145.9170 C   0  0  0  0  0  2  0  0  0  0  0  0
  195.1030  174.3100  143.8630 C   0  0  2  0  0  0  0  0  0  0  0  0
  197.2080  172.9470  143.2360 C   0  0  2  0  0  3  0  0  0  0  0  0
  188.3390  175.9380  143.3850 C   0  0  2  0  0  3  0  0  0  0  0  0
  192.9290  174.7480  145.0560 C   0  0  2  0  0  3  0  0  0  0  0  0
  195.0030  172.7070  141.9010 C   0  0  2  0  0  3  0  0  0  0  0  0
  192.2500  173.9680  143.8860 C   0  0  2  0  0  3  0  0  0  0  0  0
  194.1740  176.8560  146.6530 C   0  0  0  0  0  2  0  0  0  0  0  0
  189.3370  174.4760  141.5860 C   0  0  0  0  0  2  0  0  0  0  0  0
  195.0100  175.7640  145.9810 C   0  0  0  0  0  2  0  0  0  0  0  0
  190.1950  173.6290  142.5090 C   0  0  0  0  0  2  0  0  0  0  0  0
  188.6100  175.1820  144.7040 C   0  0  1  0  0  3  0  0  0  0  0  0
  192.7520  176.3650  146.9450 C   0  0  0  0  0  2  0  0  0  0  0  0
  190.6530  175.3810  145.9700 C   0  0  1  0  0  3  0  0  0  0  0  0
  187.1460  176.8380  143.5060 C   0  0  0  0  0  3  0  0  0  0  0  0
  187.1890  178.0960  143.0580 C   0  0  0  0  0  3  0  0  0  0  0  0
  184.1710  179.1430  144.6600 C   0  0  0  0  0  2  0  0  0  0  0  0
  184.7670  178.4320  142.5200 C   0  0  0  0  0  2  0  0  0  0  0  0
  186.0140  179.0240  143.1640 C   0  0  0  0  0  3  0  0  0  0  0  0
  183.6920  178.6670  143.5200 C   0  0  0  0  0  2  0  0  0  0  0  0
  185.6490  179.3080  144.6160 C   0  0  0  0  0  2  0  0  0  0  0  0
  1 27  1  0  0  0  0
  1 26  1  1  0  0  0
  3 16  1  0  0  0  0
  3  7  1  1  0  0  0
  4 18  1  0  0  0  0
  4 23  1  1  0  0  0
  5 11  1  6  0  0  0
  5 15  1  0  0  0  0
  6 19  1  0  0  0  0
  8 12  1  6  0  0  0
  9 27  1  0  0  0  0
 10 17  1  0  0  0  0
 11 20  1  0  0  0  0
 12 15  1  0  0  0  0
 13 20  1  0  0  0  0
 13  9  1  0  0  0  0
 14  2  1  0  0  0  0
 15  8  1  0  0  0  0
 15  4  1  0  0  0  0
 16  7  1  0  0  0  0
 16  8  1  0  0  0  0
 17 28  1  0  0  0  0
 17 25  1  0  0  0  0
 18  1  1  0  0  0  0
 19  3  1  0  0  0  0
 19  5  1  0  0  0  0
 20 18  1  0  0  0  0
 21 26  1  0  0  0  0
 22 10  1  0  0  0  0
 22 24  1  0  0  0  0
 23 21  1  0  0  0  0
 24 13  1  0  0  0  0
 25  9  1  0  0  0  0
 25 14  1  0  0  0  0
 27  2  1  0  0  0  0
 29 32  1  0  0  0  0
 29 28  2  0  0  0  0
 31 32  1  0  0  0  0
 31 33  1  0  0  0  0
 32 34  1  0  0  0  0
 33 30  1  0  0  0  0
 34 30  1  0  0  0  0
M  END
>  <MODEL>
9

>  <REMARK>
 VINA RESULT:      -8.6      1.998      9.356
  Name = 
  2 active torsions:
  status: ('A' for Active; 'I' for Inactive)
    1  A    between atoms: C_17  and  C_28
    2  A    between atoms: C_29  and  C_32
                            x       y       z     vdW  Elec       q    Type
                         _______ _______ _______ _____ _____    ______ ____

>  <TORSDO>
F 2

$$$$
