=
 OpenBabel11112416583D

 31 35  0  0  0  0  0  0  0  0999 V2000
  184.9110  178.1320  146.4190 C   0  0  0  0  0  0  0  0  0  0  0  0
  187.3980  177.0490  143.8080 C   0  0  0  0  0  0  0  0  0  0  0  0
  186.7890  177.2500  142.5350 C   0  0  0  0  0  0  0  0  0  0  0  0
  191.0580  175.6970  147.3430 O   0  0  0  0  0  0  0  0  0  0  0  0
  191.5120  175.4780  146.1870 C   0  0  0  0  0  0  0  0  0  0  0  0
  184.9340  177.9470  141.1080 C   0  0  0  0  0  0  0  0  0  0  0  0
  186.7790  177.3380  145.0620 C   0  0  0  0  0  0  0  0  0  0  0  0
  185.6340  177.8800  147.5850 C   0  0  0  0  0  3  0  0  0  0  0  0
  185.4910  177.7650  142.3750 C   0  0  0  0  0  3  0  0  0  0  0  0
  189.3770  176.2960  145.0380 C   0  0  0  0  0  0  0  0  0  0  0  0
  183.6250  178.6500  146.4980 O   0  0  0  0  0  1  0  0  0  0  0  0
  188.7720  176.4200  141.4730 N   0  0  0  0  0  0  0  0  0  0  0  0
  183.3150  178.5900  140.9480 Cl  0  0  0  0  0  0  0  0  0  0  0  0
  188.7550  176.5840  146.2090 N   0  0  0  0  0  0  0  0  0  0  0  0
  188.7150  176.5210  143.8230 C   0  0  0  0  0  0  0  0  0  0  0  0
  190.7090  175.7610  145.0320 N   0  0  0  0  0  2  0  0  0  0  0  0
  185.4790  177.8630  145.1730 C   0  0  0  0  0  3  0  0  0  0  0  0
  185.6680  177.6150  139.9690 C   0  0  0  0  0  3  0  0  0  0  0  0
  187.5000  177.0890  146.2570 C   0  0  0  0  0  0  0  0  0  0  0  0
  186.9250  177.3600  147.5020 C   0  0  0  0  0  3  0  0  0  0  0  0
  189.3480  176.2280  142.6570 N   0  0  0  0  0  0  0  0  0  0  0  0
  187.5190  176.9190  141.3680 C   0  0  0  0  0  0  0  0  0  0  0  0
  186.9590  177.1020  140.1000 C   0  0  0  0  0  3  0  0  0  0  0  0
  195.4210  173.7880  145.6390 C   0  0  0  0  0  0  0  0  0  0  0  0
  193.0140  173.6120  145.5330 C   0  0  0  0  0  3  0  0  0  0  0  0
  193.9690  176.9740  146.7770 O   0  0  0  0  0  1  0  0  0  0  0  0
  196.6480  173.2400  145.4620 F   0  0  0  0  0  0  0  0  0  0  0  0
  194.2770  173.0460  145.3490 C   0  0  0  0  0  3  0  0  0  0  0  0
  194.0420  175.6700  146.3020 C   0  0  0  0  0  0  0  0  0  0  0  0
  192.8750  174.9260  146.0090 C   0  0  0  0  0  0  0  0  0  0  0  0
  195.3040  175.0950  146.1150 C   0  0  0  0  0  3  0  0  0  0  0  0
  1 11  1  0  0  0  0
  1  8  1  0  0  0  0
  2 15  1  0  0  0  0
  2  7  1  0  0  0  0
  3  2  2  0  0  0  0
  5  4  2  0  0  0  0
  6  9  2  0  0  0  0
  7 17  1  0  0  0  0
  7 19  2  0  0  0  0
  9  3  1  0  0  0  0
 10 14  2  0  0  0  0
 12 21  1  0  0  0  0
 13  6  1  0  0  0  0
 14 19  1  0  0  0  0
 15 10  1  0  0  0  0
 16 10  1  0  0  0  0
 16  5  1  0  0  0  0
 17  1  2  0  0  0  0
 18 23  2  0  0  0  0
 18  6  1  0  0  0  0
 19 20  1  0  0  0  0
 20  8  2  0  0  0  0
 21 15  2  0  0  0  0
 22 12  2  0  0  0  0
 22  3  1  0  0  0  0
 23 22  1  0  0  0  0
 24 31  1  0  0  0  0
 25 30  2  0  0  0  0
 27 24  1  0  0  0  0
 28 25  1  0  0  0  0
 28 24  2  0  0  0  0
 29 26  1  0  0  0  0
 30  5  1  0  0  0  0
 30 29  1  0  0  0  0
 31 29  2  0  0  0  0
M  END
>  <MODEL>
1

>  <REMARK>
 VINA RESULT:      -9.6      0.000      0.000
  Name = 
  1 active torsions:
  status: ('A' for Active; 'I' for Inactive)
    1  A    between atoms: C_5  and  C_30
                            x       y       z     vdW  Elec       q    Type
                         _______ _______ _______ _____ _____    ______ ____

>  <TORSDO>
F 1

$$$$
=
 OpenBabel11112416583D

 31 35  0  0  0  0  0  0  0  0999 V2000
  185.0190  178.0120  146.7770 C   0  0  0  0  0  0  0  0  0  0  0  0
  186.9020  177.6430  143.5380 C   0  0  0  0  0  0  0  0  0  0  0  0
  185.9610  177.8110  142.4800 C   0  0  0  0  0  0  0  0  0  0  0  0
  191.5250  176.7940  145.9090 O   0  0  0  0  0  0  0  0  0  0  0  0
  191.6980  176.7550  144.6600 C   0  0  0  0  0  0  0  0  0  0  0  0
  183.7090  178.2260  141.6310 C   0  0  0  0  0  0  0  0  0  0  0  0
  186.5860  177.7090  144.9280 C   0  0  0  0  0  0  0  0  0  0  0  0
  186.0500  177.8260  147.6980 C   0  0  0  0  0  3  0  0  0  0  0  0
  184.5960  178.0670  142.6980 C   0  0  0  0  0  3  0  0  0  0  0  0
  189.2310  177.2120  144.1600 C   0  0  0  0  0  0  0  0  0  0  0  0
  183.7270  178.2560  147.2220 O   0  0  0  0  0  1  0  0  0  0  0  0
  187.7180  177.4740  140.8840 N   0  0  0  0  0  0  0  0  0  0  0  0
  182.0170  178.5430  141.9410 Cl  0  0  0  0  0  0  0  0  0  0  0  0
  188.8900  177.2830  145.4720 N   0  0  0  0  0  0  0  0  0  0  0  0
  188.2510  177.3890  143.1750 C   0  0  0  0  0  0  0  0  0  0  0  0
  190.5890  176.9560  143.7730 N   0  0  0  0  0  2  0  0  0  0  0  0
  185.2870  177.9550  145.4080 C   0  0  0  0  0  3  0  0  0  0  0  0
  184.1730  178.1320  140.3180 C   0  0  0  0  0  3  0  0  0  0  0  0
  187.6210  177.5220  145.8780 C   0  0  0  0  0  0  0  0  0  0  0  0
  187.3470  177.5810  147.2480 C   0  0  0  0  0  3  0  0  0  0  0  0
  188.6040  177.3150  141.8650 N   0  0  0  0  0  0  0  0  0  0  0  0
  186.4130  177.7190  141.1420 C   0  0  0  0  0  0  0  0  0  0  0  0
  185.5230  177.8790  140.0750 C   0  0  0  0  0  3  0  0  0  0  0  0
  195.5580  175.9920  142.9390 C   0  0  0  0  0  0  0  0  0  0  0  0
  193.1490  176.0790  142.7620 C   0  0  0  0  0  3  0  0  0  0  0  0
  194.1900  177.0800  146.1790 O   0  0  0  0  0  1  0  0  0  0  0  0
  196.7690  175.7460  142.3820 F   0  0  0  0  0  0  0  0  0  0  0  0
  194.3960  175.8260  142.1860 C   0  0  0  0  0  3  0  0  0  0  0  0
  194.2300  176.6650  144.8540 C   0  0  0  0  0  0  0  0  0  0  0  0
  193.0450  176.5000  144.0970 C   0  0  0  0  0  0  0  0  0  0  0  0
  195.4740  176.4100  144.2690 C   0  0  0  0  0  3  0  0  0  0  0  0
  1 11  1  0  0  0  0
  1  8  1  0  0  0  0
  2  7  1  0  0  0  0
  3  9  1  0  0  0  0
  3  2  2  0  0  0  0
  5  4  2  0  0  0  0
  6 13  1  0  0  0  0
  6  9  2  0  0  0  0
  7 17  1  0  0  0  0
  7 19  2  0  0  0  0
 10 14  2  0  0  0  0
 12 22  2  0  0  0  0
 12 21  1  0  0  0  0
 14 19  1  0  0  0  0
 15  2  1  0  0  0  0
 15 10  1  0  0  0  0
 16 10  1  0  0  0  0
 16  5  1  0  0  0  0
 17  1  2  0  0  0  0
 18  6  1  0  0  0  0
 19 20  1  0  0  0  0
 20  8  2  0  0  0  0
 21 15  2  0  0  0  0
 22  3  1  0  0  0  0
 23 18  2  0  0  0  0
 23 22  1  0  0  0  0
 24 31  1  0  0  0  0
 25 30  2  0  0  0  0
 27 24  1  0  0  0  0
 28 25  1  0  0  0  0
 28 24  2  0  0  0  0
 29 26  1  0  0  0  0
 30  5  1  0  0  0  0
 30 29  1  0  0  0  0
 31 29  2  0  0  0  0
M  END
>  <MODEL>
2

>  <REMARK>
 VINA RESULT:      -9.4      1.788      1.886
  Name = 
  1 active torsions:
  status: ('A' for Active; 'I' for Inactive)
    1  A    between atoms: C_5  and  C_30
                            x       y       z     vdW  Elec       q    Type
                         _______ _______ _______ _____ _____    ______ ____

>  <TORSDO>
F 1

$$$$
=
 OpenBabel11112416583D

 31 35  0  0  0  0  0  0  0  0999 V2000
  184.9640  178.0120  146.7720 C   0  0  0  0  0  0  0  0  0  0  0  0
  186.8700  177.6250  143.5480 C   0  0  0  0  0  0  0  0  0  0  0  0
  185.9380  177.7980  142.4820 C   0  0  0  0  0  0  0  0  0  0  0  0
  191.4690  176.7500  145.9550 O   0  0  0  0  0  0  0  0  0  0  0  0
  191.6510  176.7080  144.7090 C   0  0  0  0  0  0  0  0  0  0  0  0
  183.6960  178.2270  141.6150 C   0  0  0  0  0  0  0  0  0  0  0  0
  186.5430  177.6960  144.9350 C   0  0  0  0  0  0  0  0  0  0  0  0
  185.9860  177.8200  147.7010 C   0  0  0  0  0  3  0  0  0  0  0  0
  184.5730  178.0630  142.6890 C   0  0  0  0  0  3  0  0  0  0  0  0
  189.1910  177.1800  144.1890 C   0  0  0  0  0  0  0  0  0  0  0  0
  183.6700  178.2650  147.2070 O   0  0  0  0  0  1  0  0  0  0  0  0
  187.7050  177.4480  140.9000 N   0  0  0  0  0  0  0  0  0  0  0  0
  182.0030  178.5550  141.9120 Cl  0  0  0  0  0  0  0  0  0  0  0  0
  188.8400  177.2560  145.4980 N   0  0  0  0  0  0  0  0  0  0  0  0
  188.2190  177.3620  143.1950 C   0  0  0  0  0  0  0  0  0  0  0  0
  190.5500  176.9150  143.8120 N   0  0  0  0  0  2  0  0  0  0  0  0
  185.2420  177.9510  145.4050 C   0  0  0  0  0  3  0  0  0  0  0  0
  184.1690  178.1270  140.3060 C   0  0  0  0  0  3  0  0  0  0  0  0
  187.5700  177.5040  145.8940 C   0  0  0  0  0  0  0  0  0  0  0  0
  187.2850  177.5670  147.2610 C   0  0  0  0  0  3  0  0  0  0  0  0
  188.5820  177.2840  141.8880 N   0  0  0  0  0  0  0  0  0  0  0  0
  186.3990  177.7010  141.1480 C   0  0  0  0  0  0  0  0  0  0  0  0
  185.5190  177.8650  140.0740 C   0  0  0  0  0  3  0  0  0  0  0  0
  195.6040  175.9810  143.1960 C   0  0  0  0  0  0  0  0  0  0  0  0
  194.1230  176.7810  144.9300 C   0  0  0  0  0  3  0  0  0  0  0  0
  192.1300  175.5120  142.0700 O   0  0  0  0  0  1  0  0  0  0  0  0
  196.8580  175.7590  142.7330 F   0  0  0  0  0  0  0  0  0  0  0  0
  195.4160  176.5510  144.4550 C   0  0  0  0  0  3  0  0  0  0  0  0
  193.2020  175.8660  142.8810 C   0  0  0  0  0  0  0  0  0  0  0  0
  193.0010  176.4440  144.1570 C   0  0  0  0  0  0  0  0  0  0  0  0
  194.5000  175.6400  142.4120 C   0  0  0  0  0  3  0  0  0  0  0  0
  1 11  1  0  0  0  0
  1  8  1  0  0  0  0
  2  7  1  0  0  0  0
  3  9  1  0  0  0  0
  3  2  2  0  0  0  0
  5  4  2  0  0  0  0
  6 13  1  0  0  0  0
  6  9  2  0  0  0  0
  7 17  1  0  0  0  0
  7 19  2  0  0  0  0
 10 14  2  0  0  0  0
 12 22  2  0  0  0  0
 12 21  1  0  0  0  0
 14 19  1  0  0  0  0
 15  2  1  0  0  0  0
 15 10  1  0  0  0  0
 16 10  1  0  0  0  0
 16  5  1  0  0  0  0
 17  1  2  0  0  0  0
 18  6  1  0  0  0  0
 19 20  1  0  0  0  0
 20  8  2  0  0  0  0
 21 15  2  0  0  0  0
 22  3  1  0  0  0  0
 23 18  2  0  0  0  0
 23 22  1  0  0  0  0
 24 28  1  0  0  0  0
 26 29  1  0  0  0  0
 27 24  1  0  0  0  0
 28 25  2  0  0  0  0
 29 30  2  0  0  0  0
 30  5  1  0  0  0  0
 30 25  1  0  0  0  0
 31 29  1  0  0  0  0
 31 24  2  0  0  0  0
M  END
>  <MODEL>
3

>  <REMARK>
 VINA RESULT:      -9.2      1.948      2.169
  Name = 
  1 active torsions:
  status: ('A' for Active; 'I' for Inactive)
    1  A    between atoms: C_5  and  C_30
                            x       y       z     vdW  Elec       q    Type
                         _______ _______ _______ _____ _____    ______ ____

>  <TORSDO>
F 1

$$$$
=
 OpenBabel11112416583D

 31 35  0  0  0  0  0  0  0  0999 V2000
  190.8930  176.6990  147.1230 C   0  0  0  0  0  0  0  0  0  0  0  0
  188.2790  176.4090  144.4300 C   0  0  0  0  0  0  0  0  0  0  0  0
  187.1440  177.1570  144.8600 C   0  0  0  0  0  0  0  0  0  0  0  0
  191.2760  173.3690  141.3500 O   0  0  0  0  0  0  0  0  0  0  0  0
  190.1690  173.5570  140.7770 C   0  0  0  0  0  0  0  0  0  0  0  0
  185.9630  178.5690  146.4650 C   0  0  0  0  0  0  0  0  0  0  0  0
  189.4900  176.2670  145.1720 C   0  0  0  0  0  0  0  0  0  0  0  0
  191.9200  175.9330  146.5710 C   0  0  0  0  0  3  0  0  0  0  0  0
  187.0960  177.8480  146.0830 C   0  0  0  0  0  3  0  0  0  0  0  0
  189.2670  175.0070  142.6820 C   0  0  0  0  0  0  0  0  0  0  0  0
  191.0660  177.2990  148.3630 O   0  0  0  0  0  1  0  0  0  0  0  0
  186.0050  176.5650  142.8340 N   0  0  0  0  0  0  0  0  0  0  0  0
  185.9400  179.4160  147.9950 Cl  0  0  0  0  0  0  0  0  0  0  0  0
  190.4020  174.8950  143.4180 N   0  0  0  0  0  0  0  0  0  0  0  0
  188.1910  175.7600  143.1700 C   0  0  0  0  0  0  0  0  0  0  0  0
  189.1590  174.3580  141.4070 N   0  0  0  0  0  2  0  0  0  0  0  0
  189.6930  176.8630  146.4300 C   0  0  0  0  0  3  0  0  0  0  0  0
  184.8490  178.6130  145.6250 C   0  0  0  0  0  3  0  0  0  0  0  0
  190.5440  175.4920  144.6250 C   0  0  0  0  0  0  0  0  0  0  0  0
  191.7440  175.3310  145.3250 C   0  0  0  0  0  3  0  0  0  0  0  0
  187.0600  175.8640  142.4250 N   0  0  0  0  0  0  0  0  0  0  0  0
  186.0050  177.2140  144.0220 C   0  0  0  0  0  0  0  0  0  0  0  0
  184.8710  177.9370  144.4060 C   0  0  0  0  0  3  0  0  0  0  0  0
  189.3630  171.9030  136.8970 C   0  0  0  0  0  0  0  0  0  0  0  0
  189.4880  173.7910  138.4000 C   0  0  0  0  0  3  0  0  0  0  0  0
  190.4410  170.6910  140.2010 O   0  0  0  0  0  1  0  0  0  0  0  0
  189.1040  171.3960  135.6670 F   0  0  0  0  0  0  0  0  0  0  0  0
  189.2220  173.2700  137.1320 C   0  0  0  0  0  3  0  0  0  0  0  0
  190.0380  171.5680  139.2020 C   0  0  0  0  0  0  0  0  0  0  0  0
  189.8990  172.9540  139.4500 C   0  0  0  0  0  0  0  0  0  0  0  0
  189.7690  171.0550  137.9290 C   0  0  0  0  0  3  0  0  0  0  0  0
  1 11  1  0  0  0  0
  2  3  1  0  0  0  0
  2  7  1  0  0  0  0
  3  9  1  0  0  0  0
  5  4  2  0  0  0  0
  5 16  1  0  0  0  0
  6 13  1  0  0  0  0
  7 17  1  0  0  0  0
  8  1  1  0  0  0  0
  9  6  2  0  0  0  0
 10 15  1  0  0  0  0
 10 14  2  0  0  0  0
 12 22  1  0  0  0  0
 14 19  1  0  0  0  0
 15  2  2  0  0  0  0
 16 10  1  0  0  0  0
 17  1  2  0  0  0  0
 18  6  1  0  0  0  0
 19  7  2  0  0  0  0
 19 20  1  0  0  0  0
 20  8  2  0  0  0  0
 21 12  2  0  0  0  0
 21 15  1  0  0  0  0
 22 23  1  0  0  0  0
 22  3  2  0  0  0  0
 23 18  2  0  0  0  0
 24 28  2  0  0  0  0
 24 31  1  0  0  0  0
 25 30  2  0  0  0  0
 27 24  1  0  0  0  0
 28 25  1  0  0  0  0
 29 30  1  0  0  0  0
 29 26  1  0  0  0  0
 30  5  1  0  0  0  0
 31 29  2  0  0  0  0
M  END
>  <MODEL>
4

>  <REMARK>
 VINA RESULT:      -8.8      4.404      6.486
  Name = 
  1 active torsions:
  status: ('A' for Active; 'I' for Inactive)
    1  A    between atoms: C_5  and  C_30
                            x       y       z     vdW  Elec       q    Type
                         _______ _______ _______ _____ _____    ______ ____

>  <TORSDO>
F 1

$$$$
=
 OpenBabel11112416583D

 31 35  0  0  0  0  0  0  0  0999 V2000
  195.0950  174.1040  145.4950 C   0  0  0  0  0  0  0  0  0  0  0  0
  191.6600  173.3450  144.1530 C   0  0  0  0  0  0  0  0  0  0  0  0
  191.7540  172.1320  143.4100 C   0  0  0  0  0  0  0  0  0  0  0  0
  189.4820  177.6260  146.3100 O   0  0  0  0  0  0  0  0  0  0  0  0
  188.5910  176.9900  145.6850 C   0  0  0  0  0  0  0  0  0  0  0  0
  193.0000  170.2290  142.5210 C   0  0  0  0  0  0  0  0  0  0  0  0
  192.7500  173.9760  144.8250 C   0  0  0  0  0  0  0  0  0  0  0  0
  194.8470  175.2920  146.1830 C   0  0  0  0  0  3  0  0  0  0  0  0
  192.9540  171.4150  143.2580 C   0  0  0  0  0  3  0  0  0  0  0  0
  190.2160  175.1610  144.9380 C   0  0  0  0  0  0  0  0  0  0  0  0
  196.3750  173.5670  145.4770 O   0  0  0  0  0  1  0  0  0  0  0  0
  189.4130  172.2730  142.9120 N   0  0  0  0  0  0  0  0  0  0  0  0
  194.5110  169.3640  142.3530 Cl  0  0  0  0  0  0  0  0  0  0  0  0
  191.2780  175.7300  145.5640 N   0  0  0  0  0  0  0  0  0  0  0  0
  190.3850  173.9670  144.2260 C   0  0  0  0  0  0  0  0  0  0  0  0
  188.9200  175.7740  144.9990 N   0  0  0  0  0  2  0  0  0  0  0  0
  194.0560  173.4560  144.8250 C   0  0  0  0  0  3  0  0  0  0  0  0
  191.8420  169.7360  141.9190 C   0  0  0  0  0  3  0  0  0  0  0  0
  192.5160  175.1840  145.5300 C   0  0  0  0  0  0  0  0  0  0  0  0
  193.5600  175.8290  146.1990 C   0  0  0  0  0  3  0  0  0  0  0  0
  189.3160  173.4060  143.6030 N   0  0  0  0  0  0  0  0  0  0  0  0
  190.5900  171.6160  142.7920 C   0  0  0  0  0  0  0  0  0  0  0  0
  190.6400  170.4290  142.0550 C   0  0  0  0  0  3  0  0  0  0  0  0
  184.5720  178.4930  145.5000 C   0  0  0  0  0  0  0  0  0  0  0  0
  186.8030  178.3180  144.5880 C   0  0  0  0  0  3  0  0  0  0  0  0
  186.5790  176.3560  147.7270 O   0  0  0  0  0  1  0  0  0  0  0  0
  183.3080  178.9760  145.4280 F   0  0  0  0  0  0  0  0  0  0  0  0
  185.5000  178.8160  144.5110 C   0  0  0  0  0  3  0  0  0  0  0  0
  186.2480  177.1700  146.6510 C   0  0  0  0  0  0  0  0  0  0  0  0
  187.1960  177.4910  145.6520 C   0  0  0  0  0  0  0  0  0  0  0  0
  184.9450  177.6730  146.5660 C   0  0  0  0  0  3  0  0  0  0  0  0
  1  8  1  0  0  0  0
  2 15  1  0  0  0  0
  2  7  1  0  0  0  0
  3  2  2  0  0  0  0
  5  4  2  0  0  0  0
  6  9  2  0  0  0  0
  7 17  1  0  0  0  0
  7 19  2  0  0  0  0
  8 20  2  0  0  0  0
  9  3  1  0  0  0  0
 10 16  1  0  0  0  0
 10 14  2  0  0  0  0
 11  1  1  0  0  0  0
 12 21  1  0  0  0  0
 13  6  1  0  0  0  0
 15 10  1  0  0  0  0
 16  5  1  0  0  0  0
 17  1  2  0  0  0  0
 18 23  2  0  0  0  0
 18  6  1  0  0  0  0
 19 14  1  0  0  0  0
 19 20  1  0  0  0  0
 21 15  2  0  0  0  0
 22 12  2  0  0  0  0
 22  3  1  0  0  0  0
 23 22  1  0  0  0  0
 24 31  1  0  0  0  0
 25 30  2  0  0  0  0
 27 24  1  0  0  0  0
 28 25  1  0  0  0  0
 28 24  2  0  0  0  0
 29 26  1  0  0  0  0
 30  5  1  0  0  0  0
 30 29  1  0  0  0  0
 31 29  2  0  0  0  0
M  END
>  <MODEL>
5

>  <REMARK>
 VINA RESULT:      -8.5      4.484      8.445
  Name = 
  1 active torsions:
  status: ('A' for Active; 'I' for Inactive)
    1  A    between atoms: C_5  and  C_30
                            x       y       z     vdW  Elec       q    Type
                         _______ _______ _______ _____ _____    ______ ____

>  <TORSDO>
F 1

$$$$
=
 OpenBabel11112416583D

 31 35  0  0  0  0  0  0  0  0999 V2000
  195.1580  174.0760  145.4650 C   0  0  0  0  0  0  0  0  0  0  0  0
  191.7000  173.3190  144.1840 C   0  0  0  0  0  0  0  0  0  0  0  0
  191.7790  172.1010  143.4460 C   0  0  0  0  0  0  0  0  0  0  0  0
  189.5690  177.6170  146.3520 O   0  0  0  0  0  0  0  0  0  0  0  0
  188.6660  176.9800  145.7450 C   0  0  0  0  0  0  0  0  0  0  0  0
  193.0050  170.1900  142.5480 C   0  0  0  0  0  0  0  0  0  0  0  0
  192.8020  173.9510  144.8340 C   0  0  0  0  0  0  0  0  0  0  0  0
  194.9250  175.2680  146.1500 C   0  0  0  0  0  3  0  0  0  0  0  0
  192.9740  171.3800  143.2790 C   0  0  0  0  0  3  0  0  0  0  0  0
  190.2740  175.1430  144.9820 C   0  0  0  0  0  0  0  0  0  0  0  0
  196.4360  173.5350  145.4290 O   0  0  0  0  0  1  0  0  0  0  0  0
  189.4300  172.2460  142.9850 N   0  0  0  0  0  0  0  0  0  0  0  0
  194.5100  169.3200  142.3600 Cl  0  0  0  0  0  0  0  0  0  0  0  0
  191.3470  175.7130  145.5870 N   0  0  0  0  0  0  0  0  0  0  0  0
  190.4290  173.9440  144.2740 C   0  0  0  0  0  0  0  0  0  0  0  0
  188.9800  175.7600  145.0610 N   0  0  0  0  0  2  0  0  0  0  0  0
  194.1070  173.4260  144.8150 C   0  0  0  0  0  3  0  0  0  0  0  0
  191.8360  169.6970  141.9670 C   0  0  0  0  0  3  0  0  0  0  0  0
  192.5830  175.1630  145.5360 C   0  0  0  0  0  0  0  0  0  0  0  0
  193.6400  175.8090  146.1850 C   0  0  0  0  0  3  0  0  0  0  0  0
  189.3470  173.3830  143.6720 N   0  0  0  0  0  0  0  0  0  0  0  0
  190.6040  171.5850  142.8500 C   0  0  0  0  0  0  0  0  0  0  0  0
  190.6380  170.3940  142.1190 C   0  0  0  0  0  3  0  0  0  0  0  0
  184.6180  178.4140  145.8060 C   0  0  0  0  0  0  0  0  0  0  0  0
  186.5000  177.3630  146.8980 C   0  0  0  0  0  3  0  0  0  0  0  0
  187.4060  178.2340  143.4080 O   0  0  0  0  0  1  0  0  0  0  0  0
  183.3390  178.8610  145.8400 F   0  0  0  0  0  0  0  0  0  0  0  0
  185.1820  177.8240  146.9360 C   0  0  0  0  0  3  0  0  0  0  0  0
  186.6910  178.0850  144.5900 C   0  0  0  0  0  0  0  0  0  0  0  0
  187.2730  177.4860  145.7320 C   0  0  0  0  0  0  0  0  0  0  0  0
  185.3710  178.5440  144.6370 C   0  0  0  0  0  3  0  0  0  0  0  0
  1  8  1  0  0  0  0
  2 15  1  0  0  0  0
  2  7  1  0  0  0  0
  3  2  2  0  0  0  0
  5  4  2  0  0  0  0
  6  9  2  0  0  0  0
  7 19  2  0  0  0  0
  8 20  2  0  0  0  0
  9  3  1  0  0  0  0
 10 16  1  0  0  0  0
 10 14  2  0  0  0  0
 11  1  1  0  0  0  0
 12 21  1  0  0  0  0
 13  6  1  0  0  0  0
 15 10  1  0  0  0  0
 16  5  1  0  0  0  0
 17  7  1  0  0  0  0
 17  1  2  0  0  0  0
 18 23  2  0  0  0  0
 18  6  1  0  0  0  0
 19 14  1  0  0  0  0
 19 20  1  0  0  0  0
 21 15  2  0  0  0  0
 22 12  2  0  0  0  0
 22  3  1  0  0  0  0
 23 22  1  0  0  0  0
 24 27  1  0  0  0  0
 24 28  1  0  0  0  0
 25 28  2  0  0  0  0
 26 29  1  0  0  0  0
 29 31  1  0  0  0  0
 29 30  2  0  0  0  0
 30  5  1  0  0  0  0
 30 25  1  0  0  0  0
 31 24  2  0  0  0  0
M  END
>  <MODEL>
6

>  <REMARK>
 VINA RESULT:      -8.5      4.503      8.450
  Name = 
  1 active torsions:
  status: ('A' for Active; 'I' for Inactive)
    1  A    between atoms: C_5  and  C_30
                            x       y       z     vdW  Elec       q    Type
                         _______ _______ _______ _____ _____    ______ ____

>  <TORSDO>
F 1

$$$$
=
 OpenBabel11112416583D

 31 35  0  0  0  0  0  0  0  0999 V2000
  192.5380  172.6920  140.4450 C   0  0  0  0  0  0  0  0  0  0  0  0
  192.0400  174.8230  143.5090 C   0  0  0  0  0  0  0  0  0  0  0  0
  193.2800  174.8480  144.2130 C   0  0  0  0  0  0  0  0  0  0  0  0
  186.9950  175.8530  142.4110 O   0  0  0  0  0  0  0  0  0  0  0  0
  187.3020  176.4360  143.4860 C   0  0  0  0  0  0  0  0  0  0  0  0
  195.6230  174.2210  144.4930 C   0  0  0  0  0  0  0  0  0  0  0  0
  191.8110  174.1210  142.2880 C   0  0  0  0  0  0  0  0  0  0  0  0
  191.2680  172.7620  139.8730 C   0  0  0  0  0  3  0  0  0  0  0  0
  194.4290  174.1700  143.7710 C   0  0  0  0  0  3  0  0  0  0  0  0
  189.7110  175.5750  143.4330 C   0  0  0  0  0  0  0  0  0  0  0  0
  193.5370  171.9540  139.8270 O   0  0  0  0  0  1  0  0  0  0  0  0
  192.2870  176.2550  145.8810 N   0  0  0  0  0  0  0  0  0  0  0  0
  197.0340  173.3650  143.9120 Cl  0  0  0  0  0  0  0  0  0  0  0  0
  189.5320  174.8940  142.2730 N   0  0  0  0  0  0  0  0  0  0  0  0
  190.9590  175.5530  144.0700 C   0  0  0  0  0  0  0  0  0  0  0  0
  188.6300  176.3180  144.0160 N   0  0  0  0  0  2  0  0  0  0  0  0
  192.8040  173.3650  141.6390 C   0  0  0  0  0  3  0  0  0  0  0  0
  195.6910  174.9550  145.6780 C   0  0  0  0  0  3  0  0  0  0  0  0
  190.5260  174.1810  141.6920 C   0  0  0  0  0  0  0  0  0  0  0  0
  190.2650  173.5050  140.4950 C   0  0  0  0  0  3  0  0  0  0  0  0
  191.1260  176.2380  145.2310 N   0  0  0  0  0  0  0  0  0  0  0  0
  193.3680  175.5870  145.4170 C   0  0  0  0  0  0  0  0  0  0  0  0
  194.5650  175.6370  146.1380 C   0  0  0  0  0  3  0  0  0  0  0  0
  184.3830  178.7100  145.6650 C   0  0  0  0  0  0  0  0  0  0  0  0
  185.7770  176.7510  145.4200 C   0  0  0  0  0  3  0  0  0  0  0  0
  186.3160  179.0380  142.5490 O   0  0  0  0  0  1  0  0  0  0  0  0
  183.4610  179.4160  146.3640 F   0  0  0  0  0  0  0  0  0  0  0  0
  184.8270  177.4770  146.1420 C   0  0  0  0  0  3  0  0  0  0  0  0
  185.8390  178.4970  143.7370 C   0  0  0  0  0  0  0  0  0  0  0  0
  186.2960  177.2460  144.2130 C   0  0  0  0  0  0  0  0  0  0  0  0
  184.8880  179.2180  144.4660 C   0  0  0  0  0  3  0  0  0  0  0  0
  1 17  1  0  0  0  0
  2 15  2  0  0  0  0
  2  3  1  0  0  0  0
  3 22  1  0  0  0  0
  4  5  2  0  0  0  0
  5 16  1  0  0  0  0
  5 30  1  0  0  0  0
  6 18  2  0  0  0  0
  7  2  1  0  0  0  0
  8  1  2  0  0  0  0
  8 20  1  0  0  0  0
  9  3  2  0  0  0  0
  9  6  1  0  0  0  0
 10 16  1  0  0  0  0
 10 15  1  0  0  0  0
 11  1  1  0  0  0  0
 13  6  1  0  0  0  0
 14 10  2  0  0  0  0
 15 21  1  0  0  0  0
 17  7  2  0  0  0  0
 18 23  1  0  0  0  0
 19 14  1  0  0  0  0
 19  7  1  0  0  0  0
 20 19  2  0  0  0  0
 21 12  2  0  0  0  0
 22 12  1  0  0  0  0
 22 23  2  0  0  0  0
 24 28  1  0  0  0  0
 24 27  1  0  0  0  0
 25 28  2  0  0  0  0
 26 29  1  0  0  0  0
 29 30  2  0  0  0  0
 29 31  1  0  0  0  0
 30 25  1  0  0  0  0
 31 24  2  0  0  0  0
M  END
>  <MODEL>
7

>  <REMARK>
 VINA RESULT:      -8.3      4.859      9.002
  Name = 
  1 active torsions:
  status: ('A' for Active; 'I' for Inactive)
    1  A    between atoms: C_5  and  C_30
                            x       y       z     vdW  Elec       q    Type
                         _______ _______ _______ _____ _____    ______ ____

>  <TORSDO>
F 1

$$$$
=
 OpenBabel11112416583D

 31 35  0  0  0  0  0  0  0  0999 V2000
  195.1280  174.7210  145.0360 C   0  0  0  0  0  0  0  0  0  0  0  0
  191.9160  174.5880  143.0770 C   0  0  0  0  0  0  0  0  0  0  0  0
  192.1650  173.8100  141.9080 C   0  0  0  0  0  0  0  0  0  0  0  0
  189.2610  177.5230  146.5490 O   0  0  0  0  0  0  0  0  0  0  0  0
  188.4840  177.2100  145.6060 C   0  0  0  0  0  0  0  0  0  0  0  0
  193.6130  172.4780  140.4620 C   0  0  0  0  0  0  0  0  0  0  0  0
  192.8850  174.8780  144.0850 C   0  0  0  0  0  0  0  0  0  0  0  0
  194.7350  175.4980  146.1250 C   0  0  0  0  0  3  0  0  0  0  0  0
  193.4140  173.2340  141.6200 C   0  0  0  0  0  3  0  0  0  0  0  0
  190.2880  175.8860  144.3670 C   0  0  0  0  0  0  0  0  0  0  0  0
  196.4320  174.2500  144.9540 O   0  0  0  0  0  1  0  0  0  0  0  0
  189.8900  174.1370  141.2250 N   0  0  0  0  0  0  0  0  0  0  0  0
  195.1820  171.7760  140.1360 Cl  0  0  0  0  0  0  0  0  0  0  0  0
  191.2380  176.1390  145.3040 N   0  0  0  0  0  0  0  0  0  0  0  0
  190.6070  175.1120  143.2440 C   0  0  0  0  0  0  0  0  0  0  0  0
  188.9590  176.4060  144.5180 N   0  0  0  0  0  2  0  0  0  0  0  0
  194.2120  174.4150  144.0290 C   0  0  0  0  0  3  0  0  0  0  0  0
  192.5610  172.2830  139.5670 C   0  0  0  0  0  3  0  0  0  0  0  0
  192.5020  175.6670  145.1990 C   0  0  0  0  0  0  0  0  0  0  0  0
  193.4250  175.9690  146.2050 C   0  0  0  0  0  3  0  0  0  0  0  0
  189.6490  174.8660  142.3120 N   0  0  0  0  0  0  0  0  0  0  0  0
  191.1100  173.6020  140.9880 C   0  0  0  0  0  0  0  0  0  0  0  0
  191.3120  172.8440  139.8300 C   0  0  0  0  0  3  0  0  0  0  0  0
  184.4200  178.5950  145.5370 C   0  0  0  0  0  0  0  0  0  0  0  0
  186.6390  178.5200  144.5840 C   0  0  0  0  0  3  0  0  0  0  0  0
  186.5270  176.4460  147.6570 O   0  0  0  0  0  1  0  0  0  0  0  0
  183.1400  179.0410  145.5020 F   0  0  0  0  0  0  0  0  0  0  0  0
  185.3210  178.9800  144.5450 C   0  0  0  0  0  3  0  0  0  0  0  0
  186.1530  177.2850  146.6150 C   0  0  0  0  0  0  0  0  0  0  0  0
  187.0750  177.6690  145.6130 C   0  0  0  0  0  0  0  0  0  0  0  0
  184.8350  177.7500  146.5690 C   0  0  0  0  0  3  0  0  0  0  0  0
  1  8  1  0  0  0  0
  2 15  1  0  0  0  0
  2  7  1  0  0  0  0
  3  2  2  0  0  0  0
  5 30  1  0  0  0  0
  5  4  2  0  0  0  0
  6  9  2  0  0  0  0
  7 19  2  0  0  0  0
  8 20  2  0  0  0  0
  9  3  1  0  0  0  0
 10 16  1  0  0  0  0
 10 14  2  0  0  0  0
 11  1  1  0  0  0  0
 12 21  1  0  0  0  0
 13  6  1  0  0  0  0
 15 10  1  0  0  0  0
 16  5  1  0  0  0  0
 17  7  1  0  0  0  0
 17  1  2  0  0  0  0
 18 23  2  0  0  0  0
 18  6  1  0  0  0  0
 19 14  1  0  0  0  0
 19 20  1  0  0  0  0
 21 15  2  0  0  0  0
 22 12  2  0  0  0  0
 22  3  1  0  0  0  0
 23 22  1  0  0  0  0
 24 31  1  0  0  0  0
 25 30  2  0  0  0  0
 27 24  1  0  0  0  0
 28 25  1  0  0  0  0
 28 24  2  0  0  0  0
 29 26  1  0  0  0  0
 30 29  1  0  0  0  0
 31 29  2  0  0  0  0
M  END
>  <MODEL>
8

>  <REMARK>
 VINA RESULT:      -8.3      4.526      8.138
  Name = 
  1 active torsions:
  status: ('A' for Active; 'I' for Inactive)
    1  A    between atoms: C_5  and  C_30
                            x       y       z     vdW  Elec       q    Type
                         _______ _______ _______ _____ _____    ______ ____

>  <TORSDO>
F 1

$$$$
=
 OpenBabel11112416583D

 31 35  0  0  0  0  0  0  0  0999 V2000
  186.1410  177.2640  141.1480 C   0  0  0  0  0  0  0  0  0  0  0  0
  187.6540  176.4450  144.4980 C   0  0  0  0  0  0  0  0  0  0  0  0
  186.7870  176.9810  145.4950 C   0  0  0  0  0  0  0  0  0  0  0  0
  191.7960  173.9500  142.4170 O   0  0  0  0  0  0  0  0  0  0  0  0
  191.8940  173.9190  143.6740 C   0  0  0  0  0  0  0  0  0  0  0  0
  184.7820  178.1820  146.2040 C   0  0  0  0  0  0  0  0  0  0  0  0
  187.4350  176.5430  143.0910 C   0  0  0  0  0  0  0  0  0  0  0  0
  187.0810  176.6890  140.2930 C   0  0  0  0  0  3  0  0  0  0  0  0
  185.6020  177.6750  145.1930 C   0  0  0  0  0  3  0  0  0  0  0  0
  189.7160  175.2150  144.0200 C   0  0  0  0  0  0  0  0  0  0  0  0
  185.0300  177.9100  140.6240 O   0  0  0  0  0  1  0  0  0  0  0  0
  188.2580  176.1490  147.1970 N   0  0  0  0  0  0  0  0  0  0  0  0
  183.3160  179.0410  145.7900 Cl  0  0  0  0  0  0  0  0  0  0  0  0
  189.4730  175.3290  142.6900 N   0  0  0  0  0  0  0  0  0  0  0  0
  188.8180  175.7670  144.9430 C   0  0  0  0  0  0  0  0  0  0  0  0
  190.8880  174.5330  144.4910 N   0  0  0  0  0  2  0  0  0  0  0  0
  186.3180  177.1910  142.5310 C   0  0  0  0  0  3  0  0  0  0  0  0
  185.1340  178.0050  147.5420 C   0  0  0  0  0  3  0  0  0  0  0  0
  188.3790  175.9640  142.2060 C   0  0  0  0  0  0  0  0  0  0  0  0
  188.1970  176.0410  140.8220 C   0  0  0  0  0  3  0  0  0  0  0  0
  189.0730  175.6470  146.2730 N   0  0  0  0  0  0  0  0  0  0  0  0
  187.1260  176.8110  146.8590 C   0  0  0  0  0  0  0  0  0  0  0  0
  186.3040  177.3200  147.8680 C   0  0  0  0  0  3  0  0  0  0  0  0
  195.2900  172.0730  145.5470 C   0  0  0  0  0  0  0  0  0  0  0  0
  194.1650  174.0260  144.6740 C   0  0  0  0  0  3  0  0  0  0  0  0
  191.9980  171.0430  144.2600 O   0  0  0  0  0  1  0  0  0  0  0  0
  196.3690  171.5060  146.1380 F   0  0  0  0  0  0  0  0  0  0  0  0
  195.2770  173.4430  145.2840 C   0  0  0  0  0  3  0  0  0  0  0  0
  193.0720  171.8620  144.5890 C   0  0  0  0  0  0  0  0  0  0  0  0
  193.0500  173.2500  144.3180 C   0  0  0  0  0  0  0  0  0  0  0  0
  194.1910  171.2860  145.2000 C   0  0  0  0  0  3  0  0  0  0  0  0
  1 17  1  0  0  0  0
  2 15  2  0  0  0  0
  2  3  1  0  0  0  0
  3 22  1  0  0  0  0
  4  5  2  0  0  0  0
  5 30  1  0  0  0  0
  5 16  1  0  0  0  0
  6 18  2  0  0  0  0
  7  2  1  0  0  0  0
  8 20  1  0  0  0  0
  8  1  2  0  0  0  0
  9  3  2  0  0  0  0
  9  6  1  0  0  0  0
 10 16  1  0  0  0  0
 10 15  1  0  0  0  0
 11  1  1  0  0  0  0
 13  6  1  0  0  0  0
 14 10  2  0  0  0  0
 15 21  1  0  0  0  0
 17  7  2  0  0  0  0
 18 23  1  0  0  0  0
 19 14  1  0  0  0  0
 19  7  1  0  0  0  0
 20 19  2  0  0  0  0
 21 12  2  0  0  0  0
 22 12  1  0  0  0  0
 22 23  2  0  0  0  0
 24 27  1  0  0  0  0
 25 28  2  0  0  0  0
 26 29  1  0  0  0  0
 28 24  1  0  0  0  0
 29 31  1  0  0  0  0
 30 29  2  0  0  0  0
 30 25  1  0  0  0  0
 31 24  2  0  0  0  0
M  END
>  <MODEL>
9

>  <REMARK>
 VINA RESULT:      -8.3      2.322      4.470
  Name = 
  1 active torsions:
  status: ('A' for Active; 'I' for Inactive)
    1  A    between atoms: C_5  and  C_30
                            x       y       z     vdW  Elec       q    Type
                         _______ _______ _______ _____ _____    ______ ____

>  <TORSDO>
F 1

$$$$
