=
 OpenBabel11112416183D

 30 34  0  0  1  0  0  0  0  0999 V2000
  187.7390  177.3240  145.1600 C   0  0  2  0  0  3  0  0  0  0  0  0
  186.1000  178.2920  146.7090 C   0  0  0  0  0  0  0  0  0  0  0  0
  185.1150  177.8700  141.9150 N   0  0  0  0  0  0  0  0  0  0  0  0
  188.0570  176.7370  143.8050 C   0  0  2  0  0  3  0  0  0  0  0  0
  188.6900  176.9150  146.2380 C   0  0  0  0  0  2  0  0  0  0  0  0
  191.7090  177.6000  144.0570 C   0  0  0  0  0  2  0  0  0  0  0  0
  189.0380  175.2600  141.4220 C   0  0  0  0  0  0  0  0  0  0  0  0
  190.5220  177.1220  144.4360 C   0  0  0  0  0  0  0  0  0  0  0  0
  187.8020  175.8470  141.0700 O   0  0  0  0  0  0  0  0  0  0  0  0
  186.0140  177.4660  140.8780 C   0  0  0  0  0  0  0  0  0  0  0  0
  190.1410  177.2620  145.8990 C   0  0  2  0  0  3  0  0  0  0  0  0
  189.5040  176.8420  143.3470 C   0  0  1  0  0  3  0  0  0  0  0  0
  184.8120  178.7900  146.9250 C   0  0  0  0  0  3  0  0  0  0  0  0
  186.9470  178.2150  147.8080 O   0  0  0  0  0  1  0  0  0  0  0  0
  185.9310  177.7760  143.0750 C   0  0  0  0  0  0  0  0  0  0  0  0
  183.9070  178.9150  145.8750 C   0  0  0  0  0  3  0  0  0  0  0  0
  186.5080  177.8870  145.4060 C   0  0  0  0  0  0  0  0  0  0  0  0
  187.2420  177.3570  142.7920 N   0  0  0  0  0  0  0  0  0  0  0  0
  185.6650  177.3900  139.6710 O   0  0  0  0  0  0  0  0  0  0  0  0
  187.4050  177.1840  141.3650 C   0  0  1  0  0  3  0  0  0  0  0  0
  191.0270  174.9810  142.6780 O   0  0  0  0  0  1  0  0  0  0  0  0
  184.2850  178.5600  144.5850 C   0  0  0  0  0  3  0  0  0  0  0  0
  185.5690  178.0640  144.3320 C   0  0  0  0  0  0  0  0  0  0  0  0
  189.8410  175.6750  142.4400 C   0  0  0  0  0  0  0  0  0  0  0  0
  189.4360  174.0520  140.6400 C   0  0  0  0  0  2  0  0  0  0  0  0
  188.3150  172.7110  139.2950 C   0  0  0  0  0  1  0  0  0  0  0  0
  188.3820  173.1390  140.6210 O   0  0  0  0  0  0  0  0  0  0  0  0
  191.1050  176.5180  146.8290 C   0  0  0  0  0  2  0  0  0  0  0  0
  192.6610  174.6430  146.2580 C   0  0  0  0  0  1  0  0  0  0  0  0
  191.2170  175.0290  146.5130 C   0  0  0  0  0  2  0  0  0  0  0  0
  1 17  1  0  0  0  0
  1  5  1  1  0  0  0
  2 13  1  0  0  0  0
  2 14  1  0  0  0  0
  3 15  2  0  0  0  0
  4 18  1  6  0  0  0
  4  1  1  0  0  0  0
  6  8  2  0  0  0  0
  7 24  2  0  0  0  0
  8 11  1  0  0  0  0
  9 20  1  0  0  0  0
  9  7  1  0  0  0  0
 10  3  1  0  0  0  0
 11  5  1  0  0  0  0
 11 28  1  1  0  0  0
 12 24  1  1  0  0  0
 12  4  1  0  0  0  0
 12  8  1  0  0  0  0
 15 23  1  0  0  0  0
 16 13  2  0  0  0  0
 17  2  2  0  0  0  0
 18 15  1  0  0  0  0
 19 10  2  0  0  0  0
 20 10  1  6  0  0  0
 20 18  1  0  0  0  0
 22 16  1  0  0  0  0
 23 22  2  0  0  0  0
 23 17  1  0  0  0  0
 24 21  1  0  0  0  0
 25  7  1  0  0  0  0
 26 27  1  0  0  0  0
 27 25  1  0  0  0  0
 29 30  1  0  0  0  0
 30 28  1  0  0  0  0
M  END
>  <MODEL>
1

>  <REMARK>
 VINA RESULT:      -8.8      0.000      0.000
  Name = 
  4 active torsions:
  status: ('A' for Active; 'I' for Inactive)
    1  A    between atoms: C_7  and  C_15
    2  A    between atoms: C_11  and  C_28
    3  A    between atoms: C_15  and  O_23
    4  A    between atoms: C_28  and  C_30
                            x       y       z     vdW  Elec       q    Type
                         _______ _______ _______ _____ _____    ______ ____

>  <TORSDO>
F 4

$$$$
=
 OpenBabel11112416183D

 30 34  0  0  1  0  0  0  0  0999 V2000
  188.3300  176.1320  143.0350 C   0  0  2  0  0  3  0  0  0  0  0  0
  186.9690  176.8260  141.1150 C   0  0  0  0  0  0  0  0  0  0  0  0
  185.9930  178.4690  145.6400 N   0  0  0  0  0  0  0  0  0  0  0  0
  188.7490  176.3340  144.4730 C   0  0  2  0  0  3  0  0  0  0  0  0
  189.3400  175.4060  142.2050 C   0  0  0  0  0  2  0  0  0  0  0  0
  189.8690  172.7660  144.8680 C   0  0  0  0  0  2  0  0  0  0  0  0
  190.0710  176.5640  147.1220 C   0  0  0  0  0  0  0  0  0  0  0  0
  189.7540  173.9710  144.3070 C   0  0  0  0  0  0  0  0  0  0  0  0
  188.8970  177.3490  147.1720 O   0  0  0  0  0  0  0  0  0  0  0  0
  186.6000  178.0460  146.8660 C   0  0  0  0  0  0  0  0  0  0  0  0
  189.7040  174.0410  142.7910 C   0  0  2  0  0  3  0  0  0  0  0  0
  189.2950  175.1120  145.1950 C   0  0  1  0  0  3  0  0  0  0  0  0
  185.9450  177.6300  140.6080 C   0  0  0  0  0  3  0  0  0  0  0  0
  187.6480  176.0130  140.2150 O   0  0  0  0  0  1  0  0  0  0  0  0
  186.6830  177.6840  144.6760 C   0  0  0  0  0  0  0  0  0  0  0  0
  185.2040  178.4600  141.4440 C   0  0  0  0  0  3  0  0  0  0  0  0
  187.2850  176.8510  142.5040 C   0  0  0  0  0  0  0  0  0  0  0  0
  187.6390  176.8270  145.2470 N   0  0  0  0  0  0  0  0  0  0  0  0
  186.2780  178.5290  147.9820 O   0  0  0  0  0  0  0  0  0  0  0  0
  187.6150  176.9550  146.6880 C   0  0  1  0  0  3  0  0  0  0  0  0
  191.5150  174.8710  146.3120 O   0  0  0  0  0  1  0  0  0  0  0  0
  185.4670  178.4840  142.8090 C   0  0  0  0  0  3  0  0  0  0  0  0
  186.4790  177.6860  143.3520 C   0  0  0  0  0  0  0  0  0  0  0  0
  190.2950  175.5440  146.2500 C   0  0  0  0  0  0  0  0  0  0  0  0
  191.1580  176.9510  148.0710 C   0  0  0  0  0  2  0  0  0  0  0  0
  191.5450  178.1090  149.9070 C   0  0  0  0  0  1  0  0  0  0  0  0
  190.8120  178.1360  148.7210 O   0  0  0  0  0  0  0  0  0  0  0  0
  190.9790  173.4960  142.1370 C   0  0  0  0  0  2  0  0  0  0  0  0
  193.0280  174.6440  143.0040 C   0  0  0  0  0  1  0  0  0  0  0  0
  192.0250  174.5750  141.8680 C   0  0  0  0  0  2  0  0  0  0  0  0
  1  5  1  6  0  0  0
  1  4  1  0  0  0  0
  2 17  1  0  0  0  0
  3 10  1  0  0  0  0
  4 12  1  0  0  0  0
  4 18  1  1  0  0  0
  5 11  1  0  0  0  0
  7  9  1  0  0  0  0
  7 25  1  0  0  0  0
  8  6  2  0  0  0  0
 10 19  2  0  0  0  0
 11 28  1  6  0  0  0
 11  8  1  0  0  0  0
 12  8  1  6  0  0  0
 12 24  1  0  0  0  0
 13  2  2  0  0  0  0
 13 16  1  0  0  0  0
 14  2  1  0  0  0  0
 15 18  1  0  0  0  0
 15  3  2  0  0  0  0
 16 22  2  0  0  0  0
 17  1  1  0  0  0  0
 17 23  2  0  0  0  0
 18 20  1  0  0  0  0
 20 10  1  6  0  0  0
 20  9  1  0  0  0  0
 22 23  1  0  0  0  0
 23 15  1  0  0  0  0
 24 21  1  0  0  0  0
 24  7  2  0  0  0  0
 25 27  1  0  0  0  0
 27 26  1  0  0  0  0
 30 28  1  0  0  0  0
 30 29  1  0  0  0  0
M  END
>  <MODEL>
2

>  <REMARK>
 VINA RESULT:      -7.6      2.038      5.516
  Name = 
  4 active torsions:
  status: ('A' for Active; 'I' for Inactive)
    1  A    between atoms: C_7  and  C_15
    2  A    between atoms: C_11  and  C_28
    3  A    between atoms: C_15  and  O_23
    4  A    between atoms: C_28  and  C_30
                            x       y       z     vdW  Elec       q    Type
                         _______ _______ _______ _____ _____    ______ ____

>  <TORSDO>
F 4

$$$$
=
 OpenBabel11112416183D

 30 34  0  0  1  0  0  0  0  0999 V2000
  188.3540  176.8380  145.5020 C   0  0  2  0  0  3  0  0  0  0  0  0
  186.5330  178.1760  146.4610 C   0  0  0  0  0  0  0  0  0  0  0  0
  186.5040  176.8810  141.7230 N   0  0  0  0  0  0  0  0  0  0  0  0
  188.8840  175.9820  144.3770 C   0  0  2  0  0  3  0  0  0  0  0  0
  189.0250  176.5970  146.8170 C   0  0  0  0  0  2  0  0  0  0  0  0
  192.4740  176.6810  145.2540 C   0  0  0  0  0  2  0  0  0  0  0  0
  190.1840  174.0190  142.5660 C   0  0  0  0  0  0  0  0  0  0  0  0
  191.1950  176.3500  145.4460 C   0  0  0  0  0  0  0  0  0  0  0  0
  189.1050  174.5910  141.8560 O   0  0  0  0  0  0  0  0  0  0  0  0
  187.5530  176.2350  140.9950 C   0  0  0  0  0  0  0  0  0  0  0  0
  190.5400  176.7930  146.7430 C   0  0  2  0  0  3  0  0  0  0  0  0
  190.3970  175.9180  144.2310 C   0  0  1  0  0  3  0  0  0  0  0  0
  185.2810  178.7740  146.3010 C   0  0  0  0  0  3  0  0  0  0  0  0
  187.1300  178.2690  147.7130 O   0  0  0  0  0  1  0  0  0  0  0  0
  187.0560  176.9720  143.0300 C   0  0  0  0  0  0  0  0  0  0  0  0
  184.6230  178.7420  145.0750 C   0  0  0  0  0  3  0  0  0  0  0  0
  187.1570  177.5030  145.3720 C   0  0  0  0  0  0  0  0  0  0  0  0
  188.3520  176.4360  143.1170 N   0  0  0  0  0  0  0  0  0  0  0  0
  187.4500  175.9450  139.7750 O   0  0  0  0  0  0  0  0  0  0  0  0
  188.7830  175.9800  141.8140 C   0  0  1  0  0  3  0  0  0  0  0  0
  191.8430  173.8840  144.2520 O   0  0  0  0  0  1  0  0  0  0  0  0
  185.2190  178.1210  143.9820 C   0  0  0  0  0  3  0  0  0  0  0  0
  186.4750  177.5180  144.1060 C   0  0  0  0  0  0  0  0  0  0  0  0
  190.8000  174.5810  143.6420 C   0  0  0  0  0  0  0  0  0  0  0  0
  190.6170  172.6620  142.1180 C   0  0  0  0  0  2  0  0  0  0  0  0
  192.3510  172.2370  140.8230 C   0  0  0  0  0  1  0  0  0  0  0  0
  191.0430  172.7200  140.7910 O   0  0  0  0  0  0  0  0  0  0  0  0
  191.2220  176.1940  147.9780 C   0  0  0  0  0  2  0  0  0  0  0  0
  190.8720  178.2640  149.3400 C   0  0  0  0  0  1  0  0  0  0  0  0
  191.8870  177.2420  148.8660 C   0  0  0  0  0  2  0  0  0  0  0  0
  1  5  1  1  0  0  0
  2 14  1  0  0  0  0
  3 15  2  0  0  0  0
  4 18  1  6  0  0  0
  4  1  1  0  0  0  0
  6  8  2  0  0  0  0
  7 24  2  0  0  0  0
  8 11  1  0  0  0  0
  9  7  1  0  0  0  0
 10  3  1  0  0  0  0
 11  5  1  0  0  0  0
 11 28  1  1  0  0  0
 12 24  1  1  0  0  0
 12  4  1  0  0  0  0
 12  8  1  0  0  0  0
 13  2  1  0  0  0  0
 15 18  1  0  0  0  0
 15 23  1  0  0  0  0
 16 13  2  0  0  0  0
 17  1  1  0  0  0  0
 17  2  2  0  0  0  0
 19 10  2  0  0  0  0
 20 10  1  6  0  0  0
 20  9  1  0  0  0  0
 20 18  1  0  0  0  0
 22 23  2  0  0  0  0
 22 16  1  0  0  0  0
 23 17  1  0  0  0  0
 24 21  1  0  0  0  0
 25  7  1  0  0  0  0
 27 26  1  0  0  0  0
 27 25  1  0  0  0  0
 28 30  1  0  0  0  0
 30 29  1  0  0  0  0
M  END
>  <MODEL>
3

>  <REMARK>
 VINA RESULT:      -7.2      1.607      2.018
  Name = 
  4 active torsions:
  status: ('A' for Active; 'I' for Inactive)
    1  A    between atoms: C_7  and  C_15
    2  A    between atoms: C_11  and  C_28
    3  A    between atoms: C_15  and  O_23
    4  A    between atoms: C_28  and  C_30
                            x       y       z     vdW  Elec       q    Type
                         _______ _______ _______ _____ _____    ______ ____

>  <TORSDO>
F 4

$$$$
=
 OpenBabel11112416183D

 30 34  0  0  1  0  0  0  0  0999 V2000
  188.1290  175.8760  143.5140 C   0  0  2  0  0  3  0  0  0  0  0  0
  186.0920  177.2450  143.5210 C   0  0  0  0  0  0  0  0  0  0  0  0
  189.3590  177.5420  147.1770 N   0  0  0  0  0  0  0  0  0  0  0  0
  189.5080  175.5950  144.0620 C   0  0  2  0  0  3  0  0  0  0  0  0
  187.9020  175.3380  142.1380 C   0  0  0  0  0  2  0  0  0  0  0  0
  189.4130  171.9810  143.0280 C   0  0  0  0  0  2  0  0  0  0  0  0
  192.3380  174.8880  144.6220 C   0  0  0  0  0  0  0  0  0  0  0  0
  189.2850  173.3040  142.9120 C   0  0  0  0  0  0  0  0  0  0  0  0
  191.9040  175.7340  145.6670 O   0  0  0  0  0  0  0  0  0  0  0  0
  190.5070  176.7130  147.3830 C   0  0  0  0  0  0  0  0  0  0  0  0
  188.1490  173.8310  142.0530 C   0  0  2  0  0  3  0  0  0  0  0  0
  190.0100  174.1650  143.9300 C   0  0  1  0  0  3  0  0  0  0  0  0
  185.3400  178.2610  144.1170 C   0  0  0  0  0  3  0  0  0  0  0  0
  185.5890  176.6770  142.3570 O   0  0  0  0  0  1  0  0  0  0  0  0
  188.8220  177.0180  145.9700 C   0  0  0  0  0  0  0  0  0  0  0  0
  185.7650  178.8700  145.2940 C   0  0  0  0  0  3  0  0  0  0  0  0
  187.3220  176.8210  144.1030 C   0  0  0  0  0  0  0  0  0  0  0  0
  189.5650  175.9400  145.4600 N   0  0  0  0  0  0  0  0  0  0  0  0
  191.2880  176.8680  148.3580 O   0  0  0  0  0  0  0  0  0  0  0  0
  190.6590  175.6320  146.3540 C   0  0  1  0  0  3  0  0  0  0  0  0
  192.0980  173.3830  142.8090 O   0  0  0  0  0  1  0  0  0  0  0  0
  186.9440  178.4570  145.9040 C   0  0  0  0  0  3  0  0  0  0  0  0
  187.7170  177.4380  145.3390 C   0  0  0  0  0  0  0  0  0  0  0  0
  191.5210  174.1600  143.8130 C   0  0  0  0  0  0  0  0  0  0  0  0
  193.8100  174.8630  144.3670 C   0  0  0  0  0  2  0  0  0  0  0  0
  195.3510  176.4380  144.4560 C   0  0  0  0  0  1  0  0  0  0  0  0
  194.2000  176.0590  143.7640 O   0  0  0  0  0  0  0  0  0  0  0  0
  188.2660  173.3840  140.5910 C   0  0  0  0  0  2  0  0  0  0  0  0
  190.2890  172.5680  139.3640 C   0  0  0  0  0  1  0  0  0  0  0  0
  189.5900  173.7820  139.9450 C   0  0  0  0  0  2  0  0  0  0  0  0
  1  5  1  6  0  0  0
  1  4  1  0  0  0  0
  1 17  1  0  0  0  0
  2 17  2  0  0  0  0
  2 13  1  0  0  0  0
  3 10  1  0  0  0  0
  4 18  1  1  0  0  0
  7  9  1  0  0  0  0
  8  6  2  0  0  0  0
 10 19  2  0  0  0  0
 11 28  1  6  0  0  0
 11  5  1  0  0  0  0
 11  8  1  0  0  0  0
 12  8  1  6  0  0  0
 12  4  1  0  0  0  0
 13 16  2  0  0  0  0
 14  2  1  0  0  0  0
 15  3  2  0  0  0  0
 16 22  1  0  0  0  0
 17 23  1  0  0  0  0
 18 15  1  0  0  0  0
 18 20  1  0  0  0  0
 20  9  1  6  0  0  0
 20 10  1  0  0  0  0
 21 24  1  0  0  0  0
 23 22  2  0  0  0  0
 23 15  1  0  0  0  0
 24 12  1  0  0  0  0
 24  7  2  0  0  0  0
 25  7  1  0  0  0  0
 27 25  1  0  0  0  0
 27 26  1  0  0  0  0
 29 30  1  0  0  0  0
 30 28  1  0  0  0  0
M  END
>  <MODEL>
4

>  <REMARK>
 VINA RESULT:      -7.1      2.317      5.453
  Name = 
  4 active torsions:
  status: ('A' for Active; 'I' for Inactive)
    1  A    between atoms: C_7  and  C_15
    2  A    between atoms: C_11  and  C_28
    3  A    between atoms: C_15  and  O_23
    4  A    between atoms: C_28  and  C_30
                            x       y       z     vdW  Elec       q    Type
                         _______ _______ _______ _____ _____    ______ ____

>  <TORSDO>
F 4

$$$$
=
 OpenBabel11112416183D

 30 34  0  0  1  0  0  0  0  0999 V2000
  186.9200  177.1890  143.6220 C   0  0  2  0  0  3  0  0  0  0  0  0
  184.8720  178.2700  144.4330 C   0  0  0  0  0  0  0  0  0  0  0  0
  187.9390  176.0070  147.5310 N   0  0  0  0  0  0  0  0  0  0  0  0
  188.2710  176.5800  143.9150 C   0  0  2  0  0  3  0  0  0  0  0  0
  186.7710  177.6920  142.2220 C   0  0  0  0  0  2  0  0  0  0  0  0
  188.2670  174.5360  140.7570 C   0  0  0  0  0  2  0  0  0  0  0  0
  191.0750  175.6040  144.0020 C   0  0  0  0  0  0  0  0  0  0  0  0
  188.1320  175.6130  141.5340 C   0  0  0  0  0  0  0  0  0  0  0  0
  190.5790  175.5670  145.3240 O   0  0  0  0  0  0  0  0  0  0  0  0
  189.0830  175.2160  147.1940 C   0  0  0  0  0  0  0  0  0  0  0  0
  187.0380  176.6050  141.1800 C   0  0  2  0  0  3  0  0  0  0  0  0
  188.7940  175.5750  142.8980 C   0  0  1  0  0  3  0  0  0  0  0  0
  184.0790  178.6660  145.5140 C   0  0  0  0  0  3  0  0  0  0  0  0
  184.4360  178.6200  143.1600 O   0  0  0  0  0  1  0  0  0  0  0  0
  187.4720  176.4200  146.2530 C   0  0  0  0  0  0  0  0  0  0  0  0
  184.4350  178.3410  146.8190 C   0  0  0  0  0  3  0  0  0  0  0  0
  186.0730  177.5360  144.6490 C   0  0  0  0  0  0  0  0  0  0  0  0
  188.2510  175.9220  145.1950 N   0  0  0  0  0  0  0  0  0  0  0  0
  189.8100  174.6730  148.0660 O   0  0  0  0  0  0  0  0  0  0  0  0
  189.3000  175.0720  145.7170 C   0  0  1  0  0  3  0  0  0  0  0  0
  190.9460  175.6660  141.6380 O   0  0  0  0  0  1  0  0  0  0  0  0
  185.5850  177.5980  147.0620 C   0  0  0  0  0  3  0  0  0  0  0  0
  186.3970  177.1790  146.0030 C   0  0  0  0  0  0  0  0  0  0  0  0
  190.3090  175.6080  142.8770 C   0  0  0  0  0  0  0  0  0  0  0  0
  192.5580  175.7140  143.8620 C   0  0  0  0  0  2  0  0  0  0  0  0
  194.1680  175.9560  145.3490 C   0  0  0  0  0  1  0  0  0  0  0  0
  193.0540  176.6030  144.8150 O   0  0  0  0  0  0  0  0  0  0  0  0
  187.2350  177.2250  139.7920 C   0  0  0  0  0  2  0  0  0  0  0  0
  186.6910  176.0420  137.6540 C   0  0  0  0  0  1  0  0  0  0  0  0
  186.1310  176.8540  138.8060 C   0  0  0  0  0  2  0  0  0  0  0  0
  1  5  1  1  0  0  0
  1  4  1  0  0  0  0
  1 17  1  0  0  0  0
  2 17  2  0  0  0  0
  2 13  1  0  0  0  0
  4 18  1  1  0  0  0
  6  8  2  0  0  0  0
  7  9  1  0  0  0  0
 10  3  1  0  0  0  0
 10 19  2  0  0  0  0
 11 28  1  6  0  0  0
 11  8  1  0  0  0  0
 11  5  1  0  0  0  0
 12  8  1  6  0  0  0
 12  4  1  0  0  0  0
 13 16  2  0  0  0  0
 14  2  1  0  0  0  0
 15  3  2  0  0  0  0
 16 22  1  0  0  0  0
 17 23  1  0  0  0  0
 18 20  1  0  0  0  0
 18 15  1  0  0  0  0
 20  9  1  1  0  0  0
 20 10  1  0  0  0  0
 21 24  1  0  0  0  0
 23 15  1  0  0  0  0
 23 22  2  0  0  0  0
 24 12  1  0  0  0  0
 24  7  2  0  0  0  0
 25  7  1  0  0  0  0
 25 27  1  0  0  0  0
 27 26  1  0  0  0  0
 29 30  1  0  0  0  0
 30 28  1  0  0  0  0
M  END
>  <MODEL>
5

>  <REMARK>
 VINA RESULT:      -6.9      2.192      5.359
  Name = 
  4 active torsions:
  status: ('A' for Active; 'I' for Inactive)
    1  A    between atoms: C_7  and  C_15
    2  A    between atoms: C_11  and  C_28
    3  A    between atoms: C_15  and  O_23
    4  A    between atoms: C_28  and  C_30
                            x       y       z     vdW  Elec       q    Type
                         _______ _______ _______ _____ _____    ______ ____

>  <TORSDO>
F 4

$$$$
=
 OpenBabel11112416183D

 30 34  0  0  1  0  0  0  0  0999 V2000
  190.2470  174.6350  143.8150 C   0  0  2  0  0  3  0  0  0  0  0  0
  192.3880  173.4380  143.8830 C   0  0  0  0  0  0  0  0  0  0  0  0
  191.2010  176.7080  147.3510 N   0  0  0  0  0  0  0  0  0  0  0  0
  189.2120  175.4870  144.5110 C   0  0  2  0  0  3  0  0  0  0  0  0
  189.7110  173.8480  142.6620 C   0  0  0  0  0  2  0  0  0  0  0  0
  187.8480  176.8400  141.2770 C   0  0  0  0  0  2  0  0  0  0  0  0
  186.8120  176.8740  145.5760 C   0  0  0  0  0  0  0  0  0  0  0  0
  188.2790  175.9300  142.1540 C   0  0  0  0  0  0  0  0  0  0  0  0
  187.8640  177.0970  146.4920 O   0  0  0  0  0  0  0  0  0  0  0  0
  190.0670  177.5800  147.3670 C   0  0  0  0  0  0  0  0  0  0  0  0
  189.0410  174.7350  141.6120 C   0  0  2  0  0  3  0  0  0  0  0  0
  188.3240  176.3380  143.6140 C   0  0  1  0  0  3  0  0  0  0  0  0
  193.5720  173.1490  144.5670 C   0  0  0  0  0  3  0  0  0  0  0  0
  192.1710  172.7810  142.6770 O   0  0  0  0  0  1  0  0  0  0  0  0
  191.0070  175.9840  146.1420 C   0  0  0  0  0  0  0  0  0  0  0  0
  193.8740  173.7750  145.7720 C   0  0  0  0  0  3  0  0  0  0  0  0
  191.4560  174.3730  144.4160 C   0  0  0  0  0  0  0  0  0  0  0  0
  189.8500  176.3750  145.4470 N   0  0  0  0  0  0  0  0  0  0  0  0
  189.8500  178.3900  148.3060 O   0  0  0  0  0  0  0  0  0  0  0  0
  189.1990  177.4600  146.1490 C   0  0  1  0  0  3  0  0  0  0  0  0
  185.8320  176.3270  143.4900 O   0  0  0  0  0  1  0  0  0  0  0  0
  193.0010  174.7180  146.3040 C   0  0  0  0  0  3  0  0  0  0  0  0
  191.8100  175.0370  145.6420 C   0  0  0  0  0  0  0  0  0  0  0  0
  186.9710  176.5320  144.2680 C   0  0  0  0  0  0  0  0  0  0  0  0
  185.4280  176.9650  146.1320 C   0  0  0  0  0  2  0  0  0  0  0  0
  184.6820  179.0150  145.8050 C   0  0  0  0  0  1  0  0  0  0  0  0
  185.2610  178.1930  146.7720 O   0  0  0  0  0  0  0  0  0  0  0  0
  188.1980  173.8890  140.6500 C   0  0  0  0  0  2  0  0  0  0  0  0
  188.4750  173.2200  138.2550 C   0  0  0  0  0  1  0  0  0  0  0  0
  189.0370  173.0910  139.6570 C   0  0  0  0  0  2  0  0  0  0  0  0
  1  5  1  1  0  0  0
  1 17  1  0  0  0  0
  1  4  1  0  0  0  0
  2 17  2  0  0  0  0
  2 13  1  0  0  0  0
  3 10  1  0  0  0  0
  4 18  1  1  0  0  0
  6  8  2  0  0  0  0
  7 25  1  0  0  0  0
  7  9  1  0  0  0  0
 10 19  2  0  0  0  0
 11 28  1  1  0  0  0
 11  8  1  0  0  0  0
 11  5  1  0  0  0  0
 12  8  1  6  0  0  0
 12 24  1  0  0  0  0
 12  4  1  0  0  0  0
 13 16  2  0  0  0  0
 14  2  1  0  0  0  0
 15  3  2  0  0  0  0
 16 22  1  0  0  0  0
 17 23  1  0  0  0  0
 18 15  1  0  0  0  0
 18 20  1  0  0  0  0
 20  9  1  1  0  0  0
 20 10  1  0  0  0  0
 21 24  1  0  0  0  0
 23 15  1  0  0  0  0
 23 22  2  0  0  0  0
 24  7  2  0  0  0  0
 25 27  1  0  0  0  0
 26 27  1  0  0  0  0
 29 30  1  0  0  0  0
 30 28  1  0  0  0  0
M  END
>  <MODEL>
6

>  <REMARK>
 VINA RESULT:      -6.8      2.232      7.053
  Name = 
  4 active torsions:
  status: ('A' for Active; 'I' for Inactive)
    1  A    between atoms: C_7  and  C_15
    2  A    between atoms: C_11  and  C_28
    3  A    between atoms: C_15  and  O_23
    4  A    between atoms: C_28  and  C_30
                            x       y       z     vdW  Elec       q    Type
                         _______ _______ _______ _____ _____    ______ ____

>  <TORSDO>
F 4

$$$$
=
 OpenBabel11112416183D

 30 34  0  0  1  0  0  0  0  0999 V2000
  187.1090  176.9380  143.5220 C   0  0  2  0  0  3  0  0  0  0  0  0
  185.4780  178.3450  142.3460 C   0  0  0  0  0  0  0  0  0  0  0  0
  188.2470  175.0990  139.9110 N   0  0  0  0  0  0  0  0  0  0  0  0
  188.0280  175.7390  143.5250 C   0  0  2  0  0  3  0  0  0  0  0  0
  186.6810  177.3780  144.8840 C   0  0  0  0  0  2  0  0  0  0  0  0
  190.2100  177.1550  146.2410 C   0  0  0  0  0  2  0  0  0  0  0  0
  189.6940  173.3400  144.0660 C   0  0  0  0  0  0  0  0  0  0  0  0
  189.0850  176.8010  145.6170 C   0  0  0  0  0  0  0  0  0  0  0  0
  189.5100  173.4140  142.6670 O   0  0  0  0  0  0  0  0  0  0  0  0
  189.3300  174.3220  140.4310 C   0  0  0  0  0  0  0  0  0  0  0  0
  187.8690  177.6920  145.7960 C   0  0  2  0  0  3  0  0  0  0  0  0
  189.2020  175.7900  144.4920 C   0  0  1  0  0  3  0  0  0  0  0  0
  184.8170  178.6650  141.1570 C   0  0  0  0  0  3  0  0  0  0  0  0
  185.1150  179.0480  143.4880 O   0  0  0  0  0  1  0  0  0  0  0  0
  187.8150  175.8190  141.0580 C   0  0  0  0  0  0  0  0  0  0  0  0
  185.1330  178.0200  139.9650 C   0  0  0  0  0  3  0  0  0  0  0  0
  186.4840  177.3360  142.3630 C   0  0  0  0  0  0  0  0  0  0  0  0
  188.5700  175.5270  142.2070 N   0  0  0  0  0  0  0  0  0  0  0  0
  189.9840  173.5130  139.7220 O   0  0  0  0  0  0  0  0  0  0  0  0
  189.6260  174.5950  141.8760 C   0  0  1  0  0  3  0  0  0  0  0  0
  189.7620  174.1510  146.2900 O   0  0  0  0  0  1  0  0  0  0  0  0
  186.1330  177.0540  139.9410 C   0  0  0  0  0  3  0  0  0  0  0  0
  186.8200  176.7140  141.1110 C   0  0  0  0  0  0  0  0  0  0  0  0
  189.5670  174.3850  144.9290 C   0  0  0  0  0  0  0  0  0  0  0  0
  189.9850  171.9830  144.6180 C   0  0  0  0  0  2  0  0  0  0  0  0
  192.1490  171.7470  144.2650 C   0  0  0  0  0  1  0  0  0  0  0  0
  190.9040  171.3310  143.7950 O   0  0  0  0  0  0  0  0  0  0  0  0
  187.4180  177.7810  147.2580 C   0  0  0  0  0  2  0  0  0  0  0  0
  185.1090  178.6690  147.6370 C   0  0  0  0  0  1  0  0  0  0  0  0
  185.9480  177.4190  147.4570 C   0  0  0  0  0  2  0  0  0  0  0  0
  1  4  1  0  0  0  0
  1  5  1  1  0  0  0
  2 17  1  0  0  0  0
  2 14  1  0  0  0  0
  3 10  1  0  0  0  0
  3 15  2  0  0  0  0
  4 18  1  6  0  0  0
  4 12  1  0  0  0  0
  5 11  1  0  0  0  0
  7 25  1  0  0  0  0
  7 24  2  0  0  0  0
  8 11  1  0  0  0  0
  8  6  2  0  0  0  0
  9  7  1  0  0  0  0
 11 28  1  1  0  0  0
 12 24  1  1  0  0  0
 12  8  1  0  0  0  0
 13  2  2  0  0  0  0
 15 23  1  0  0  0  0
 15 18  1  0  0  0  0
 16 13  1  0  0  0  0
 17  1  1  0  0  0  0
 19 10  2  0  0  0  0
 20 10  1  6  0  0  0
 20 18  1  0  0  0  0
 20  9  1  0  0  0  0
 22 16  2  0  0  0  0
 22 23  1  0  0  0  0
 23 17  2  0  0  0  0
 24 21  1  0  0  0  0
 27 26  1  0  0  0  0
 27 25  1  0  0  0  0
 28 30  1  0  0  0  0
 30 29  1  0  0  0  0
M  END
>  <MODEL>
7

>  <REMARK>
 VINA RESULT:      -6.8      2.181      4.276
  Name = 
  4 active torsions:
  status: ('A' for Active; 'I' for Inactive)
    1  A    between atoms: C_7  and  C_15
    2  A    between atoms: C_11  and  C_28
    3  A    between atoms: C_15  and  O_23
    4  A    between atoms: C_28  and  C_30
                            x       y       z     vdW  Elec       q    Type
                         _______ _______ _______ _____ _____    ______ ____

>  <TORSDO>
F 4

$$$$
=
 OpenBabel11112416183D

 30 34  0  0  1  0  0  0  0  0999 V2000
  191.9080  174.9780  144.6970 C   0  0  2  0  0  3  0  0  0  0  0  0
  194.1770  174.2210  144.1510 C   0  0  0  0  0  0  0  0  0  0  0  0
  190.5720  174.0310  140.8210 N   0  0  0  0  0  0  0  0  0  0  0  0
  190.5280  175.3870  144.2370 C   0  0  2  0  0  3  0  0  0  0  0  0
  192.2850  175.5190  146.0390 C   0  0  0  0  0  2  0  0  0  0  0  0
  188.9480  174.5520  147.5470 C   0  0  0  0  0  2  0  0  0  0  0  0
  187.8350  176.5440  143.7590 C   0  0  0  0  0  0  0  0  0  0  0  0
  189.8310  175.0780  146.6950 C   0  0  0  0  0  0  0  0  0  0  0  0
  188.2410  175.9210  142.5580 O   0  0  0  0  0  0  0  0  0  0  0  0
  189.1820  174.2960  141.0320 C   0  0  0  0  0  0  0  0  0  0  0  0
  191.2850  175.1270  147.1280 C   0  0  2  0  0  3  0  0  0  0  0  0
  189.4020  175.2190  145.2470 C   0  0  1  0  0  3  0  0  0  0  0  0
  195.0820  173.7590  143.1920 C   0  0  0  0  0  3  0  0  0  0  0  0
  194.6630  174.4350  145.4360 O   0  0  0  0  0  1  0  0  0  0  0  0
  191.1240  174.2690  142.1090 C   0  0  0  0  0  0  0  0  0  0  0  0
  194.6730  173.5030  141.8870 C   0  0  0  0  0  3  0  0  0  0  0  0
  192.8160  174.4560  143.8060 C   0  0  0  0  0  0  0  0  0  0  0  0
  190.1590  174.6450  143.0590 N   0  0  0  0  0  0  0  0  0  0  0  0
  188.3300  174.2180  140.1090 O   0  0  0  0  0  0  0  0  0  0  0  0
  188.8450  174.6340  142.4540 C   0  0  1  0  0  3  0  0  0  0  0  0
  187.8410  176.9750  146.0880 O   0  0  0  0  0  1  0  0  0  0  0  0
  193.3440  173.6900  141.5250 C   0  0  0  0  0  3  0  0  0  0  0  0
  192.4100  174.1450  142.4620 C   0  0  0  0  0  0  0  0  0  0  0  0
  188.3290  176.2600  144.9950 C   0  0  0  0  0  0  0  0  0  0  0  0
  186.8320  177.6420  143.6220 C   0  0  0  0  0  2  0  0  0  0  0  0
  184.8020  178.0270  144.3920 C   0  0  0  0  0  1  0  0  0  0  0  0
  185.5440  177.1060  143.6540 O   0  0  0  0  0  0  0  0  0  0  0  0
  191.4940  175.9810  148.3840 C   0  0  0  0  0  2  0  0  0  0  0  0
  191.2750  178.2210  149.4800 C   0  0  0  0  0  1  0  0  0  0  0  0
  191.0230  177.4230  148.2150 C   0  0  0  0  0  2  0  0  0  0  0  0
  1  5  1  6  0  0  0
  2 14  1  0  0  0  0
  3 10  1  0  0  0  0
  3 15  2  0  0  0  0
  4 18  1  6  0  0  0
  4  1  1  0  0  0  0
  4 12  1  0  0  0  0
  5 11  1  0  0  0  0
  7 24  2  0  0  0  0
  8 11  1  0  0  0  0
  8  6  2  0  0  0  0
  9  7  1  0  0  0  0
 11 28  1  1  0  0  0
 12 24  1  1  0  0  0
 12  8  1  0  0  0  0
 13  2  2  0  0  0  0
 15 23  1  0  0  0  0
 15 18  1  0  0  0  0
 16 13  1  0  0  0  0
 17  2  1  0  0  0  0
 17  1  1  0  0  0  0
 19 10  2  0  0  0  0
 20 10  1  6  0  0  0
 20  9  1  0  0  0  0
 20 18  1  0  0  0  0
 22 16  2  0  0  0  0
 22 23  1  0  0  0  0
 23 17  2  0  0  0  0
 24 21  1  0  0  0  0
 25 27  1  0  0  0  0
 25  7  1  0  0  0  0
 27 26  1  0  0  0  0
 30 28  1  0  0  0  0
 30 29  1  0  0  0  0
M  END
>  <MODEL>
8

>  <REMARK>
 VINA RESULT:      -6.7      2.639      6.237
  Name = 
  4 active torsions:
  status: ('A' for Active; 'I' for Inactive)
    1  A    between atoms: C_7  and  C_15
    2  A    between atoms: C_11  and  C_28
    3  A    between atoms: C_15  and  O_23
    4  A    between atoms: C_28  and  C_30
                            x       y       z     vdW  Elec       q    Type
                         _______ _______ _______ _____ _____    ______ ____

>  <TORSDO>
F 4

$$$$
=
 OpenBabel11112416183D

 30 34  0  0  1  0  0  0  0  0999 V2000
  190.9410  174.4860  144.4060 C   0  0  2  0  0  3  0  0  0  0  0  0
  192.8180  172.9660  144.8410 C   0  0  0  0  0  0  0  0  0  0  0  0
  189.8630  172.3010  140.9750 N   0  0  0  0  0  0  0  0  0  0  0  0
  189.8840  175.0080  143.4620 C   0  0  2  0  0  3  0  0  0  0  0  0
  191.3160  175.4460  145.4900 C   0  0  0  0  0  2  0  0  0  0  0  0
  187.6940  176.2370  146.2620 C   0  0  0  0  0  2  0  0  0  0  0  0
  187.8980  176.5220  141.8540 C   0  0  0  0  0  0  0  0  0  0  0  0
  188.8110  176.0510  145.5550 C   0  0  0  0  0  0  0  0  0  0  0  0
  188.1960  175.3380  141.1430 O   0  0  0  0  0  0  0  0  0  0  0  0
  188.6550  173.0090  140.6750 C   0  0  0  0  0  0  0  0  0  0  0  0
  190.1100  175.8850  146.3220 C   0  0  2  0  0  3  0  0  0  0  0  0
  188.6560  175.6360  144.1050 C   0  0  1  0  0  3  0  0  0  0  0  0
  193.6030  171.8880  144.4210 C   0  0  0  0  0  3  0  0  0  0  0  0
  193.1780  173.5930  146.0290 O   0  0  0  0  0  1  0  0  0  0  0  0
  190.2920  172.9320  142.1740 C   0  0  0  0  0  0  0  0  0  0  0  0
  193.3000  171.1950  143.2530 C   0  0  0  0  0  3  0  0  0  0  0  0
  191.6980  173.3870  144.0700 C   0  0  0  0  0  0  0  0  0  0  0  0
  189.4220  173.9490  142.6020 N   0  0  0  0  0  0  0  0  0  0  0  0
  187.9620  172.7620  139.6540 O   0  0  0  0  0  0  0  0  0  0  0  0
  188.2870  174.0320  141.7090 C   0  0  1  0  0  3  0  0  0  0  0  0
  187.7620  177.9390  143.7480 O   0  0  0  0  0  1  0  0  0  0  0  0
  192.1940  171.5600  142.4950 C   0  0  0  0  0  3  0  0  0  0  0  0
  191.3830  172.6290  142.8900 C   0  0  0  0  0  0  0  0  0  0  0  0
  188.0870  176.7020  143.1900 C   0  0  0  0  0  0  0  0  0  0  0  0
  187.4000  177.6690  141.0380 C   0  0  0  0  0  2  0  0  0  0  0  0
  185.2510  178.1640  141.0390 C   0  0  0  0  0  1  0  0  0  0  0  0
  186.1890  177.3250  140.4370 O   0  0  0  0  0  0  0  0  0  0  0  0
  190.4560  177.1180  147.1640 C   0  0  0  0  0  2  0  0  0  0  0  0
  191.4370  177.9400  149.3150 C   0  0  0  0  0  1  0  0  0  0  0  0
  191.4370  176.8190  148.2940 C   0  0  0  0  0  2  0  0  0  0  0  0
  1  5  1  6  0  0  0
  2 14  1  0  0  0  0
  3 15  2  0  0  0  0
  4 18  1  1  0  0  0
  4 12  1  0  0  0  0
  4  1  1  0  0  0  0
  5 11  1  0  0  0  0
  7 24  2  0  0  0  0
  8  6  2  0  0  0  0
  8 11  1  0  0  0  0
  9 20  1  0  0  0  0
  9  7  1  0  0  0  0
 10  3  1  0  0  0  0
 11 28  1  6  0  0  0
 12 24  1  6  0  0  0
 12  8  1  0  0  0  0
 13  2  1  0  0  0  0
 15 18  1  0  0  0  0
 15 23  1  0  0  0  0
 16 13  2  0  0  0  0
 17  1  1  0  0  0  0
 17  2  2  0  0  0  0
 19 10  2  0  0  0  0
 20 10  1  6  0  0  0
 20 18  1  0  0  0  0
 22 23  2  0  0  0  0
 22 16  1  0  0  0  0
 23 17  1  0  0  0  0
 24 21  1  0  0  0  0
 25  7  1  0  0  0  0
 27 25  1  0  0  0  0
 27 26  1  0  0  0  0
 28 30  1  0  0  0  0
 30 29  1  0  0  0  0
M  END
>  <MODEL>
9

>  <REMARK>
 VINA RESULT:      -6.7      2.539      5.896
  Name = 
  4 active torsions:
  status: ('A' for Active; 'I' for Inactive)
    1  A    between atoms: C_7  and  C_15
    2  A    between atoms: C_11  and  C_28
    3  A    between atoms: C_15  and  O_23
    4  A    between atoms: C_28  and  C_30
                            x       y       z     vdW  Elec       q    Type
                         _______ _______ _______ _____ _____    ______ ____

>  <TORSDO>
F 4

$$$$
