=
 OpenBabel11112417013D

 31 35  0  0  1  0  0  0  0  0999 V2000
  194.6860  175.9210  144.7730 C   0  0  0  0  0  0  0  0  0  0  0  0
  191.2510  176.6420  143.3130 C   0  0  2  0  0  3  0  0  0  0  0  0
  190.4970  175.3970  142.8900 C   0  0  0  0  0  0  0  0  0  0  0  0
  190.4620  173.0390  142.3030 C   0  0  0  0  0  0  0  0  0  0  0  0
  192.3540  176.3580  144.2920 C   0  0  0  0  0  0  0  0  0  0  0  0
  194.3860  175.8120  146.1350 C   0  0  0  0  0  3  0  0  0  0  0  0
  191.1610  174.1720  142.7240 C   0  0  0  0  0  3  0  0  0  0  0  0
  189.9050  177.5320  145.3850 C   0  0  1  0  0  3  0  0  0  0  0  0
  195.9620  175.7600  144.3460 F   0  0  0  0  0  0  0  0  0  0  0  0
  188.4410  176.6970  142.6980 O   0  0  0  0  0  0  0  0  0  0  0  0
  191.1730  171.7430  142.1450 C   0  0  0  0  0  1  0  0  0  0  0  0
  190.6380  176.3920  146.1110 C   0  0  0  0  0  2  0  0  0  0  0  0
  190.3010  177.7180  143.8850 C   0  0  2  0  0  3  0  0  0  0  0  0
  193.6710  176.1920  143.8510 C   0  0  0  0  0  3  0  0  0  0  0  0
  189.0950  173.1230  142.0290 C   0  0  0  0  0  3  0  0  0  0  0  0
  192.0550  176.2590  145.6590 C   0  0  0  0  0  0  0  0  0  0  0  0
  193.0700  175.9760  146.5780 C   0  0  0  0  0  3  0  0  0  0  0  0
  189.1240  177.9300  142.9290 C   0  0  0  0  0  2  0  0  0  0  0  0
  189.1240  175.4820  142.5780 C   0  0  0  0  0  0  0  0  0  0  0  0
  188.4270  174.3430  142.1650 C   0  0  0  0  0  3  0  0  0  0  0  0
  188.4140  178.2120  147.7390 O   0  0  0  0  0  0  0  0  0  0  0  0
  187.7840  177.7060  146.7720 C   0  0  0  0  0  0  0  0  0  0  0  0
  188.4660  177.3730  145.5610 N   0  0  0  0  0  2  0  0  0  0  0  0
  184.7880  178.2300  144.5050 C   0  0  1  0  0  3  0  0  0  0  0  0
  185.8160  176.4140  145.8950 C   0  0  0  0  0  2  0  0  0  0  0  0
  185.9530  179.6960  147.7340 O   0  0  0  0  0  1  0  0  0  0  0  0
  184.6840  178.8030  143.1080 C   0  0  0  0  0  1  0  0  0  0  0  0
  185.7020  177.0100  144.4900 C   0  0  0  0  0  2  0  0  0  0  0  0
  185.4510  178.7260  146.8650 C   0  0  2  0  0  3  0  0  0  0  0  0
  186.3110  177.4500  146.9100 C   0  0  2  0  0  3  0  0  0  0  0  0
  185.3410  179.2910  145.4490 C   0  0  0  0  0  2  0  0  0  0  0  0
  1  6  1  0  0  0  0
  2  3  1  1  0  0  0
  2 13  1  0  0  0  0
  2  5  1  0  0  0  0
  4  7  2  0  0  0  0
  5 16  2  0  0  0  0
  6 17  2  0  0  0  0
  7  3  1  0  0  0  0
  8 23  1  6  0  0  0
  8 12  1  0  0  0  0
  9  1  1  0  0  0  0
 10 18  1  0  0  0  0
 11  4  1  0  0  0  0
 13 18  1  6  0  0  0
 13  8  1  0  0  0  0
 14  5  1  0  0  0  0
 14  1  2  0  0  0  0
 15 20  2  0  0  0  0
 15  4  1  0  0  0  0
 16 12  1  0  0  0  0
 16 17  1  0  0  0  0
 19 10  1  0  0  0  0
 19  3  2  0  0  0  0
 20 19  1  0  0  0  0
 22 21  2  0  0  0  0
 23 22  1  0  0  0  0
 24 27  1  6  0  0  0
 24 31  1  0  0  0  0
 25 30  1  0  0  0  0
 28 24  1  0  0  0  0
 28 25  1  0  0  0  0
 29 30  1  0  0  0  0
 29 26  1  1  0  0  0
 30 22  1  6  0  0  0
 31 29  1  0  0  0  0
M  END
>  <MODEL>
1

>  <REMARK>
 VINA RESULT:      -9.1      0.000      0.000
  Name = 
  2 active torsions:
  status: ('A' for Active; 'I' for Inactive)
    1  A    between atoms: C_5  and  C_30
    2  A    between atoms: C_10  and  N_16
                            x       y       z     vdW  Elec       q    Type
                         _______ _______ _______ _____ _____    ______ ____

>  <TORSDO>
F 2

$$$$
=
 OpenBabel11112417013D

 31 35  0  0  1  0  0  0  0  0999 V2000
  185.9540  178.1260  140.5930 C   0  0  0  0  0  0  0  0  0  0  0  0
  188.5970  178.2330  143.3230 C   0  0  2  0  0  3  0  0  0  0  0  0
  188.1370  177.6360  144.6370 C   0  0  0  0  0  0  0  0  0  0  0  0
  186.3610  176.8970  146.1230 C   0  0  0  0  0  0  0  0  0  0  0  0
  187.7750  177.7800  142.1510 C   0  0  0  0  0  0  0  0  0  0  0  0
  186.2470  176.9040  139.9780 C   0  0  0  0  0  3  0  0  0  0  0  0
  186.7750  177.4180  144.8950 C   0  0  0  0  0  3  0  0  0  0  0  0
  190.4110  176.5450  142.4530 C   0  0  1  0  0  3  0  0  0  0  0  0
  184.9280  178.8850  140.1370 F   0  0  0  0  0  0  0  0  0  0  0  0
  190.4410  177.6090  145.4410 O   0  0  0  0  0  0  0  0  0  0  0  0
  184.9160  176.6560  146.3780 C   0  0  0  0  0  1  0  0  0  0  0  0
  189.1780  175.7120  142.0680 C   0  0  0  0  0  2  0  0  0  0  0  0
  190.0930  177.9500  143.0590 C   0  0  2  0  0  3  0  0  0  0  0  0
  186.7150  178.5630  141.6810 C   0  0  0  0  0  3  0  0  0  0  0  0
  187.3030  176.6020  147.1100 C   0  0  0  0  0  3  0  0  0  0  0  0
  188.0750  176.5610  141.5260 C   0  0  0  0  0  0  0  0  0  0  0  0
  187.3040  176.1190  140.4470 C   0  0  0  0  0  3  0  0  0  0  0  0
  190.9160  178.3200  144.2960 C   0  0  0  0  0  2  0  0  0  0  0  0
  189.0800  177.3690  145.6520 C   0  0  0  0  0  0  0  0  0  0  0  0
  188.6600  176.8390  146.8760 C   0  0  0  0  0  3  0  0  0  0  0  0
  193.2200  176.1070  142.0640 O   0  0  0  0  0  0  0  0  0  0  0  0
  192.6710  175.5510  143.0530 C   0  0  0  0  0  0  0  0  0  0  0  0
  191.2810  175.7550  143.3170 N   0  0  0  0  0  2  0  0  0  0  0  0
  192.6750  174.8300  146.7780 C   0  0  1  0  0  3  0  0  0  0  0  0
  192.6410  173.5770  144.6060 C   0  0  0  0  0  2  0  0  0  0  0  0
  195.0310  176.4780  144.3980 O   0  0  0  0  0  1  0  0  0  0  0  0
  191.8160  175.3760  147.8980 C   0  0  0  0  0  1  0  0  0  0  0  0
  191.7890  174.1380  145.7460 C   0  0  0  0  0  2  0  0  0  0  0  0
  194.3180  175.4360  144.9930 C   0  0  2  0  0  3  0  0  0  0  0  0
  193.4920  174.6670  143.9460 C   0  0  2  0  0  3  0  0  0  0  0  0
  193.4470  175.9730  146.1270 C   0  0  0  0  0  2  0  0  0  0  0  0
  1 14  1  0  0  0  0
  2  5  1  6  0  0  0
  2  3  1  0  0  0  0
  3  7  2  0  0  0  0
  3 19  1  0  0  0  0
  4 11  1  0  0  0  0
  4 15  2  0  0  0  0
  6 17  1  0  0  0  0
  6  1  2  0  0  0  0
  7  4  1  0  0  0  0
  8 13  1  0  0  0  0
  8 23  1  1  0  0  0
  9  1  1  0  0  0  0
 10 19  1  0  0  0  0
 12  8  1  0  0  0  0
 13  2  1  0  0  0  0
 13 18  1  1  0  0  0
 14  5  2  0  0  0  0
 16 12  1  0  0  0  0
 16  5  1  0  0  0  0
 17 16  2  0  0  0  0
 18 10  1  0  0  0  0
 19 20  2  0  0  0  0
 20 15  1  0  0  0  0
 21 22  2  0  0  0  0
 22 23  1  0  0  0  0
 24 27  1  1  0  0  0
 25 28  1  0  0  0  0
 28 24  1  0  0  0  0
 29 26  1  6  0  0  0
 29 31  1  0  0  0  0
 30 22  1  1  0  0  0
 30 25  1  0  0  0  0
 30 29  1  0  0  0  0
 31 24  1  0  0  0  0
M  END
>  <MODEL>
2

>  <REMARK>
 VINA RESULT:      -8.6      3.232      7.152
  Name = 
  2 active torsions:
  status: ('A' for Active; 'I' for Inactive)
    1  A    between atoms: C_5  and  C_30
    2  A    between atoms: C_10  and  N_16
                            x       y       z     vdW  Elec       q    Type
                         _______ _______ _______ _____ _____    ______ ____

>  <TORSDO>
F 2

$$$$
=
 OpenBabel11112417013D

 31 35  0  0  1  0  0  0  0  0999 V2000
  187.0490  177.2080  140.2570 C   0  0  0  0  0  0  0  0  0  0  0  0
  189.2420  177.7590  143.3140 C   0  0  2  0  0  3  0  0  0  0  0  0
  188.5270  177.5090  144.6260 C   0  0  0  0  0  0  0  0  0  0  0  0
  186.4780  177.2480  145.9080 C   0  0  0  0  0  0  0  0  0  0  0  0
  188.5660  177.1060  142.1420 C   0  0  0  0  0  0  0  0  0  0  0  0
  187.3050  175.8620  139.9780 C   0  0  0  0  0  3  0  0  0  0  0  0
  187.1260  177.4470  144.6860 C   0  0  0  0  0  3  0  0  0  0  0  0
  190.9830  175.8010  143.1500 C   0  0  1  0  0  3  0  0  0  0  0  0
  186.1880  177.9090  139.4800 F   0  0  0  0  0  0  0  0  0  0  0  0
  190.6670  177.5130  145.8000 O   0  0  0  0  0  0  0  0  0  0  0  0
  184.9950  177.1690  145.9570 C   0  0  0  0  0  1  0  0  0  0  0  0
  189.7440  174.9850  142.7460 C   0  0  0  0  0  2  0  0  0  0  0  0
  190.7230  177.3240  143.3780 C   0  0  2  0  0  3  0  0  0  0  0  0
  187.6760  177.8300  141.3400 C   0  0  0  0  0  3  0  0  0  0  0  0
  187.2230  177.1240  147.0830 C   0  0  0  0  0  3  0  0  0  0  0  0
  188.8300  175.7590  141.8540 C   0  0  0  0  0  0  0  0  0  0  0  0
  188.1910  175.1350  140.7780 C   0  0  0  0  0  3  0  0  0  0  0  0
  191.3810  177.9110  144.6290 C   0  0  0  0  0  2  0  0  0  0  0  0
  189.2710  177.4190  145.8220 C   0  0  0  0  0  0  0  0  0  0  0  0
  188.6170  177.2110  147.0400 C   0  0  0  0  0  3  0  0  0  0  0  0
  193.7940  175.3060  143.4450 O   0  0  0  0  0  0  0  0  0  0  0  0
  193.0310  174.9280  144.3750 C   0  0  0  0  0  0  0  0  0  0  0  0
  191.6250  175.1720  144.2990 N   0  0  0  0  0  2  0  0  0  0  0  0
  196.3870  173.3090  145.0890 C   0  0  1  0  0  3  0  0  0  0  0  0
  194.8200  174.9620  146.1370 C   0  0  0  0  0  2  0  0  0  0  0  0
  192.8860  172.0780  144.6830 O   0  0  0  0  0  1  0  0  0  0  0  0
  197.6230  173.1580  144.2280 C   0  0  0  0  0  1  0  0  0  0  0  0
  196.0660  174.7900  145.2670 C   0  0  0  0  0  2  0  0  0  0  0  0
  193.9600  172.7370  145.2830 C   0  0  2  0  0  3  0  0  0  0  0  0
  193.6160  174.2120  145.5570 C   0  0  2  0  0  3  0  0  0  0  0  0
  195.2150  172.5930  144.4250 C   0  0  0  0  0  2  0  0  0  0  0  0
  1 14  1  0  0  0  0
  2  5  1  6  0  0  0
  2 13  1  0  0  0  0
  2  3  1  0  0  0  0
  3  7  2  0  0  0  0
  3 19  1  0  0  0  0
  4 11  1  0  0  0  0
  4 15  2  0  0  0  0
  6  1  2  0  0  0  0
  6 17  1  0  0  0  0
  7  4  1  0  0  0  0
  8 13  1  0  0  0  0
  8 23  1  1  0  0  0
  9  1  1  0  0  0  0
 10 19  1  0  0  0  0
 12  8  1  0  0  0  0
 13 18  1  1  0  0  0
 14  5  2  0  0  0  0
 16  5  1  0  0  0  0
 16 12  1  0  0  0  0
 17 16  2  0  0  0  0
 18 10  1  0  0  0  0
 19 20  2  0  0  0  0
 20 15  1  0  0  0  0
 21 22  2  0  0  0  0
 23 22  1  0  0  0  0
 24 27  1  6  0  0  0
 24 28  1  0  0  0  0
 28 25  1  0  0  0  0
 29 26  1  6  0  0  0
 29 30  1  0  0  0  0
 30 22  1  6  0  0  0
 30 25  1  0  0  0  0
 31 24  1  0  0  0  0
 31 29  1  0  0  0  0
M  END
>  <MODEL>
3

>  <REMARK>
 VINA RESULT:      -8.2      3.248      7.744
  Name = 
  2 active torsions:
  status: ('A' for Active; 'I' for Inactive)
    1  A    between atoms: C_5  and  C_30
    2  A    between atoms: C_10  and  N_16
                            x       y       z     vdW  Elec       q    Type
                         _______ _______ _______ _____ _____    ______ ____

>  <TORSDO>
F 2

$$$$
=
 OpenBabel11112417013D

 31 35  0  0  1  0  0  0  0  0999 V2000
  192.4870  170.5610  142.8910 C   0  0  0  0  0  0  0  0  0  0  0  0
  191.1130  173.1670  145.2930 C   0  0  2  0  0  3  0  0  0  0  0  0
  192.1160  174.2420  145.6610 C   0  0  0  0  0  0  0  0  0  0  0  0
  194.4060  175.0470  145.7960 C   0  0  0  0  0  0  0  0  0  0  0  0
  191.4680  172.4400  144.0280 C   0  0  0  0  0  0  0  0  0  0  0  0
  192.1330  171.1150  141.6560 C   0  0  0  0  0  3  0  0  0  0  0  0
  193.4880  174.0630  145.4230 C   0  0  0  0  0  3  0  0  0  0  0  0
  189.3290  174.4280  143.8370 C   0  0  1  0  0  3  0  0  0  0  0  0
  193.1540  169.3820  142.9370 F   0  0  0  0  0  0  0  0  0  0  0  0
  190.3240  175.5990  146.6110 O   0  0  0  0  0  0  0  0  0  0  0  0
  195.8540  174.8530  145.5260 C   0  0  0  0  0  1  0  0  0  0  0  0
  190.4110  174.3110  142.7510 C   0  0  0  0  0  2  0  0  0  0  0  0
  189.6790  173.7340  145.1920 C   0  0  2  0  0  3  0  0  0  0  0  0
  192.1580  171.2230  144.0760 C   0  0  0  0  0  3  0  0  0  0  0  0
  193.9630  176.2140  146.4240 C   0  0  0  0  0  3  0  0  0  0  0  0
  191.1040  172.9890  142.7900 C   0  0  0  0  0  0  0  0  0  0  0  0
  191.4460  172.3320  141.6050 C   0  0  0  0  0  3  0  0  0  0  0  0
  189.3600  174.5590  146.4410 C   0  0  0  0  0  2  0  0  0  0  0  0
  191.6800  175.4070  146.3270 C   0  0  0  0  0  0  0  0  0  0  0  0
  192.6030  176.3930  146.6900 C   0  0  0  0  0  3  0  0  0  0  0  0
  186.8950  175.6590  142.9460 O   0  0  0  0  0  0  0  0  0  0  0  0
  187.7470  176.3910  143.5200 C   0  0  0  0  0  0  0  0  0  0  0  0
  188.9660  175.8300  144.0120 N   0  0  0  0  0  2  0  0  0  0  0  0
  184.7670  178.6090  142.7520 C   0  0  1  0  0  3  0  0  0  0  0  0
  186.3230  178.1200  144.6560 C   0  0  0  0  0  2  0  0  0  0  0  0
  188.2390  178.2840  141.4190 O   0  0  0  0  0  1  0  0  0  0  0  0
  183.4150  178.2880  142.1520 C   0  0  0  0  0  1  0  0  0  0  0  0
  184.9620  177.8060  144.0340 C   0  0  0  0  0  2  0  0  0  0  0  0
  187.2340  178.5880  142.3390 C   0  0  2  0  0  3  0  0  0  0  0  0
  187.4690  177.8580  143.6730 C   0  0  2  0  0  3  0  0  0  0  0  0
  185.8620  178.2690  141.7460 C   0  0  0  0  0  2  0  0  0  0  0  0
  1  9  1  0  0  0  0
  1 14  1  0  0  0  0
  2  5  1  6  0  0  0
  2  3  1  0  0  0  0
  3 19  1  0  0  0  0
  4 15  2  0  0  0  0
  5 14  2  0  0  0  0
  6  1  2  0  0  0  0
  7  3  2  0  0  0  0
  7  4  1  0  0  0  0
  8 23  1  1  0  0  0
  8 13  1  0  0  0  0
 11  4  1  0  0  0  0
 12 16  1  0  0  0  0
 12  8  1  0  0  0  0
 13  2  1  0  0  0  0
 13 18  1  1  0  0  0
 15 20  1  0  0  0  0
 16  5  1  0  0  0  0
 17  6  1  0  0  0  0
 17 16  2  0  0  0  0
 18 10  1  0  0  0  0
 19 10  1  0  0  0  0
 19 20  2  0  0  0  0
 21 22  2  0  0  0  0
 22 23  1  0  0  0  0
 24 27  1  6  0  0  0
 24 28  1  0  0  0  0
 28 25  1  0  0  0  0
 29 26  1  6  0  0  0
 29 30  1  0  0  0  0
 30 22  1  6  0  0  0
 30 25  1  0  0  0  0
 31 29  1  0  0  0  0
 31 24  1  0  0  0  0
M  END
>  <MODEL>
4

>  <REMARK>
 VINA RESULT:      -8.2      2.494      4.812
  Name = 
  2 active torsions:
  status: ('A' for Active; 'I' for Inactive)
    1  A    between atoms: C_5  and  C_30
    2  A    between atoms: C_10  and  N_16
                            x       y       z     vdW  Elec       q    Type
                         _______ _______ _______ _____ _____    ______ ____

>  <TORSDO>
F 2

$$$$
=
 OpenBabel11112417013D

 31 35  0  0  1  0  0  0  0  0999 V2000
  196.6540  170.5460  146.0540 C   0  0  0  0  0  0  0  0  0  0  0  0
  195.9170  174.2330  145.4940 C   0  0  2  0  0  3  0  0  0  0  0  0
  196.1550  174.6900  144.0690 C   0  0  0  0  0  0  0  0  0  0  0  0
  197.1520  174.3600  141.8760 C   0  0  0  0  0  0  0  0  0  0  0  0
  195.7440  172.7460  145.6140 C   0  0  0  0  0  0  0  0  0  0  0  0
  195.3990  169.9770  145.8110 C   0  0  0  0  0  3  0  0  0  0  0  0
  196.9110  173.9130  143.1770 C   0  0  0  0  0  3  0  0  0  0  0  0
  193.3100  174.3630  145.7800 C   0  0  1  0  0  3  0  0  0  0  0  0
  197.7030  169.7540  146.3830 F   0  0  0  0  0  0  0  0  0  0  0  0
  194.9560  176.7660  144.5260 O   0  0  0  0  0  0  0  0  0  0  0  0
  197.9410  173.5220  140.9360 C   0  0  0  0  0  1  0  0  0  0  0  0
  193.3470  173.0540  144.9730 C   0  0  0  0  0  2  0  0  0  0  0  0
  194.7110  174.9580  146.1320 C   0  0  2  0  0  3  0  0  0  0  0  0
  196.8280  171.9290  145.9530 C   0  0  0  0  0  3  0  0  0  0  0  0
  196.6500  175.5950  141.4580 C   0  0  0  0  0  3  0  0  0  0  0  0
  194.4840  172.1760  145.3810 C   0  0  0  0  0  0  0  0  0  0  0  0
  194.3140  170.7910  145.4700 C   0  0  0  0  0  3  0  0  0  0  0  0
  194.8430  176.4680  145.9180 C   0  0  0  0  0  2  0  0  0  0  0  0
  195.6820  175.9520  143.6500 C   0  0  0  0  0  0  0  0  0  0  0  0
  195.9180  176.3900  142.3440 C   0  0  0  0  0  3  0  0  0  0  0  0
  190.6060  175.0080  146.4890 O   0  0  0  0  0  0  0  0  0  0  0  0
  191.1030  175.5860  145.4850 C   0  0  0  0  0  0  0  0  0  0  0  0
  192.4550  175.3290  145.0990 N   0  0  0  0  0  2  0  0  0  0  0  0
  187.6440  177.0700  145.9660 C   0  0  1  0  0  3  0  0  0  0  0  0
  189.9810  177.8340  145.4730 C   0  0  0  0  0  2  0  0  0  0  0  0
  189.1960  174.7080  143.5270 O   0  0  0  0  0  1  0  0  0  0  0  0
  186.6190  176.8700  147.0620 C   0  0  0  0  0  1  0  0  0  0  0  0
  188.9330  177.6220  146.5670 C   0  0  0  0  0  2  0  0  0  0  0  0
  188.9500  175.9240  144.1670 C   0  0  2  0  0  3  0  0  0  0  0  0
  190.2560  176.5420  144.6960 C   0  0  2  0  0  3  0  0  0  0  0  0
  187.9150  175.7370  145.2750 C   0  0  0  0  0  2  0  0  0  0  0  0
  1  9  1  0  0  0  0
  2  3  1  6  0  0  0
  2  5  1  0  0  0  0
  2 13  1  0  0  0  0
  4  7  1  0  0  0  0
  5 14  2  0  0  0  0
  6  1  2  0  0  0  0
  7  3  2  0  0  0  0
  8 23  1  6  0  0  0
  8 13  1  0  0  0  0
 10 18  1  0  0  0  0
 11  4  1  0  0  0  0
 12 16  1  0  0  0  0
 12  8  1  0  0  0  0
 13 18  1  6  0  0  0
 14  1  1  0  0  0  0
 15  4  2  0  0  0  0
 15 20  1  0  0  0  0
 16 17  2  0  0  0  0
 16  5  1  0  0  0  0
 17  6  1  0  0  0  0
 19  3  1  0  0  0  0
 19 10  1  0  0  0  0
 20 19  2  0  0  0  0
 22 21  2  0  0  0  0
 23 22  1  0  0  0  0
 24 28  1  0  0  0  0
 24 27  1  1  0  0  0
 25 28  1  0  0  0  0
 29 26  1  1  0  0  0
 29 30  1  0  0  0  0
 29 31  1  0  0  0  0
 30 25  1  0  0  0  0
 30 22  1  1  0  0  0
 31 24  1  0  0  0  0
M  END
>  <MODEL>
5

>  <REMARK>
 VINA RESULT:      -8.1      3.540      5.670
  Name = 
  2 active torsions:
  status: ('A' for Active; 'I' for Inactive)
    1  A    between atoms: C_5  and  C_30
    2  A    between atoms: C_10  and  N_16
                            x       y       z     vdW  Elec       q    Type
                         _______ _______ _______ _____ _____    ______ ____

>  <TORSDO>
F 2

$$$$
=
 OpenBabel11112417013D

 31 35  0  0  1  0  0  0  0  0999 V2000
  185.4140  178.1680  147.6320 C   0  0  0  0  0  0  0  0  0  0  0  0
  187.6710  175.8240  145.6670 C   0  0  2  0  0  3  0  0  0  0  0  0
  187.8300  176.2130  144.2110 C   0  0  0  0  0  0  0  0  0  0  0  0
  187.0810  177.4410  142.2510 C   0  0  0  0  0  0  0  0  0  0  0  0
  187.1990  176.9580  146.5310 C   0  0  0  0  0  0  0  0  0  0  0  0
  186.3430  179.0910  148.1260 C   0  0  0  0  0  3  0  0  0  0  0  0
  186.9440  177.1160  143.6030 C   0  0  0  0  0  3  0  0  0  0  0  0
  190.0390  176.2730  146.7110 C   0  0  1  0  0  3  0  0  0  0  0  0
  184.0990  178.3100  147.9240 F   0  0  0  0  0  0  0  0  0  0  0  0
  189.7080  174.6690  143.9950 O   0  0  0  0  0  0  0  0  0  0  0  0
  186.1460  178.4100  141.6220 C   0  0  0  0  0  1  0  0  0  0  0  0
  189.5710  177.7370  146.6670 C   0  0  0  0  0  2  0  0  0  0  0  0
  188.9750  175.2280  146.2450 C   0  0  2  0  0  3  0  0  0  0  0  0
  185.8410  177.1040  146.8320 C   0  0  0  0  0  3  0  0  0  0  0  0
  188.0970  176.8570  141.4910 C   0  0  0  0  0  3  0  0  0  0  0  0
  188.1310  177.8770  147.0350 C   0  0  0  0  0  0  0  0  0  0  0  0
  187.7010  178.9480  147.8240 C   0  0  0  0  0  3  0  0  0  0  0  0
  189.5060  174.1410  145.3070 C   0  0  0  0  0  2  0  0  0  0  0  0
  188.8320  175.6000  143.4280 C   0  0  0  0  0  0  0  0  0  0  0  0
  188.9700  175.9370  142.0780 C   0  0  0  0  0  3  0  0  0  0  0  0
  192.3710  174.8720  147.6230 O   0  0  0  0  0  0  0  0  0  0  0  0
  192.4340  175.4530  146.5060 C   0  0  0  0  0  0  0  0  0  0  0  0
  191.2960  176.1430  145.9840 N   0  0  0  0  0  2  0  0  0  0  0  0
  193.3040  175.0670  142.8330 C   0  0  1  0  0  3  0  0  0  0  0  0
  193.8290  176.5910  144.7540 C   0  0  0  0  0  2  0  0  0  0  0  0
  193.8100  173.0060  145.9050 O   0  0  0  0  0  1  0  0  0  0  0  0
  192.4240  174.8770  141.6170 C   0  0  0  0  0  1  0  0  0  0  0  0
  192.9470  176.3800  143.5220 C   0  0  0  0  0  2  0  0  0  0  0  0
  193.9860  174.0770  145.0270 C   0  0  2  0  0  3  0  0  0  0  0  0
  193.7220  175.4180  145.7340 C   0  0  2  0  0  3  0  0  0  0  0  0
  193.1040  173.8980  143.7920 C   0  0  0  0  0  2  0  0  0  0  0  0
  1  9  1  0  0  0  0
  1  6  1  0  0  0  0
  2  3  1  6  0  0  0
  2 13  1  0  0  0  0
  2  5  1  0  0  0  0
  4  7  2  0  0  0  0
  5 14  1  0  0  0  0
  5 16  2  0  0  0  0
  7  3  1  0  0  0  0
  8 23  1  6  0  0  0
 10 18  1  0  0  0  0
 11  4  1  0  0  0  0
 12  8  1  0  0  0  0
 12 16  1  0  0  0  0
 13 18  1  6  0  0  0
 13  8  1  0  0  0  0
 14  1  2  0  0  0  0
 15 20  2  0  0  0  0
 15  4  1  0  0  0  0
 16 17  1  0  0  0  0
 17  6  2  0  0  0  0
 19 10  1  0  0  0  0
 19  3  2  0  0  0  0
 20 19  1  0  0  0  0
 22 21  2  0  0  0  0
 23 22  1  0  0  0  0
 24 27  1  6  0  0  0
 24 28  1  0  0  0  0
 24 31  1  0  0  0  0
 25 30  1  0  0  0  0
 28 25  1  0  0  0  0
 29 30  1  0  0  0  0
 29 26  1  1  0  0  0
 30 22  1  6  0  0  0
 31 29  1  0  0  0  0
M  END
>  <MODEL>
6

>  <REMARK>
 VINA RESULT:      -8.0      3.305      6.791
  Name = 
  2 active torsions:
  status: ('A' for Active; 'I' for Inactive)
    1  A    between atoms: C_5  and  C_30
    2  A    between atoms: C_10  and  N_16
                            x       y       z     vdW  Elec       q    Type
                         _______ _______ _______ _____ _____    ______ ____

>  <TORSDO>
F 2

$$$$
=
 OpenBabel11112417013D

 31 35  0  0  1  0  0  0  0  0999 V2000
  193.1340  170.1730  142.4610 C   0  0  0  0  0  0  0  0  0  0  0  0
  191.5120  172.6510  144.8450 C   0  0  2  0  0  3  0  0  0  0  0  0
  192.4580  173.7280  145.3360 C   0  0  0  0  0  0  0  0  0  0  0  0
  194.7110  174.5700  145.6910 C   0  0  0  0  0  0  0  0  0  0  0  0
  191.9850  171.9840  143.5850 C   0  0  0  0  0  0  0  0  0  0  0  0
  192.8690  170.7720  141.2240 C   0  0  0  0  0  3  0  0  0  0  0  0
  193.8480  173.5850  145.2050 C   0  0  0  0  0  3  0  0  0  0  0  0
  189.8250  173.9380  143.2990 C   0  0  1  0  0  3  0  0  0  0  0  0
  193.8210  169.0070  142.5150 F   0  0  0  0  0  0  0  0  0  0  0  0
  190.5660  175.0110  146.1900 O   0  0  0  0  0  0  0  0  0  0  0  0
  196.1800  174.4140  145.5330 C   0  0  0  0  0  1  0  0  0  0  0  0
  190.9940  173.8870  142.3010 C   0  0  0  0  0  2  0  0  0  0  0  0
  190.0790  173.1950  144.6490 C   0  0  2  0  0  3  0  0  0  0  0  0
  192.6950  170.7800  143.6410 C   0  0  0  0  0  3  0  0  0  0  0  0
  194.1930  175.7010  146.3260 C   0  0  0  0  0  3  0  0  0  0  0  0
  191.7100  172.5780  142.3440 C   0  0  0  0  0  0  0  0  0  0  0  0
  192.1620  171.9760  141.1650 C   0  0  0  0  0  3  0  0  0  0  0  0
  189.6420  173.9610  145.9000 C   0  0  0  0  0  2  0  0  0  0  0  0
  191.9440  174.8560  146.0100 C   0  0  0  0  0  0  0  0  0  0  0  0
  192.8120  175.8430  146.4870 C   0  0  0  0  0  3  0  0  0  0  0  0
  187.4100  175.1410  142.3220 O   0  0  0  0  0  0  0  0  0  0  0  0
  188.2120  175.8720  142.9630 C   0  0  0  0  0  0  0  0  0  0  0  0
  189.4180  175.3250  143.5000 N   0  0  0  0  0  2  0  0  0  0  0  0
  185.8330  177.7860  145.2150 C   0  0  1  0  0  3  0  0  0  0  0  0
  188.2520  177.8150  144.5540 C   0  0  0  0  0  2  0  0  0  0  0  0
  186.0880  177.1780  141.5410 O   0  0  0  0  0  1  0  0  0  0  0  0
  184.8470  177.3060  146.2580 C   0  0  0  0  0  1  0  0  0  0  0  0
  187.2400  177.3360  145.5960 C   0  0  0  0  0  2  0  0  0  0  0  0
  186.4380  177.6920  142.7900 C   0  0  2  0  0  3  0  0  0  0  0  0
  187.8900  177.3270  143.1480 C   0  0  2  0  0  3  0  0  0  0  0  0
  185.4500  177.2160  143.8530 C   0  0  0  0  0  2  0  0  0  0  0  0
  1  9  1  0  0  0  0
  1 14  1  0  0  0  0
  2  5  1  6  0  0  0
  2  3  1  0  0  0  0
  3 19  1  0  0  0  0
  4 15  2  0  0  0  0
  5 14  2  0  0  0  0
  6  1  2  0  0  0  0
  7  3  2  0  0  0  0
  7  4  1  0  0  0  0
  8 23  1  1  0  0  0
  8 13  1  0  0  0  0
 11  4  1  0  0  0  0
 12 16  1  0  0  0  0
 12  8  1  0  0  0  0
 13  2  1  0  0  0  0
 13 18  1  1  0  0  0
 15 20  1  0  0  0  0
 16  5  1  0  0  0  0
 17  6  1  0  0  0  0
 17 16  2  0  0  0  0
 18 10  1  0  0  0  0
 19 10  1  0  0  0  0
 19 20  2  0  0  0  0
 21 22  2  0  0  0  0
 22 23  1  0  0  0  0
 24 28  1  0  0  0  0
 24 27  1  1  0  0  0
 25 28  1  0  0  0  0
 29 26  1  6  0  0  0
 29 30  1  0  0  0  0
 29 31  1  0  0  0  0
 30 22  1  1  0  0  0
 30 25  1  0  0  0  0
 31 24  1  0  0  0  0
M  END
>  <MODEL>
7

>  <REMARK>
 VINA RESULT:      -7.9      2.522      5.028
  Name = 
  2 active torsions:
  status: ('A' for Active; 'I' for Inactive)
    1  A    between atoms: C_5  and  C_30
    2  A    between atoms: C_10  and  N_16
                            x       y       z     vdW  Elec       q    Type
                         _______ _______ _______ _____ _____    ______ ____

>  <TORSDO>
F 2

$$$$
=
 OpenBabel11112417013D

 31 35  0  0  1  0  0  0  0  0999 V2000
  186.0720  177.9090  147.8000 C   0  0  0  0  0  0  0  0  0  0  0  0
  187.9000  175.6420  145.3570 C   0  0  2  0  0  3  0  0  0  0  0  0
  187.8110  176.1040  143.9160 C   0  0  0  0  0  0  0  0  0  0  0  0
  186.7590  177.4440  142.1820 C   0  0  0  0  0  0  0  0  0  0  0  0
  187.6110  176.7350  146.3450 C   0  0  0  0  0  0  0  0  0  0  0  0
  187.0940  178.7920  148.1690 C   0  0  0  0  0  3  0  0  0  0  0  0
  186.8530  177.0500  143.5190 C   0  0  0  0  0  3  0  0  0  0  0  0
  190.4220  176.0030  145.9900 C   0  0  1  0  0  3  0  0  0  0  0  0
  184.8320  178.0520  148.3260 F   0  0  0  0  0  0  0  0  0  0  0  0
  189.5870  174.5490  143.2990 O   0  0  0  0  0  0  0  0  0  0  0  0
  185.7510  178.4570  141.7750 C   0  0  0  0  0  1  0  0  0  0  0  0
  189.9870  177.4740  146.1010 C   0  0  0  0  0  2  0  0  0  0  0  0
  189.2700  174.9990  145.6670 C   0  0  2  0  0  3  0  0  0  0  0  0
  186.3290  176.8830  146.8870 C   0  0  0  0  0  3  0  0  0  0  0  0
  187.6130  176.8870  141.2280 C   0  0  0  0  0  3  0  0  0  0  0  0
  188.6360  177.6140  146.7230 C   0  0  0  0  0  0  0  0  0  0  0  0
  188.3740  178.6470  147.6270 C   0  0  0  0  0  3  0  0  0  0  0  0
  189.6060  173.9560  144.5980 C   0  0  0  0  0  2  0  0  0  0  0  0
  188.6460  175.5200  142.9410 C   0  0  0  0  0  0  0  0  0  0  0  0
  188.5550  175.9260  141.6060 C   0  0  0  0  0  3  0  0  0  0  0  0
  192.8650  174.5630  146.4270 O   0  0  0  0  0  0  0  0  0  0  0  0
  192.7360  175.1830  145.3370 C   0  0  0  0  0  0  0  0  0  0  0  0
  191.5310  175.8950  145.0490 N   0  0  0  0  0  2  0  0  0  0  0  0
  196.0490  173.3450  145.1350 C   0  0  1  0  0  3  0  0  0  0  0  0
  194.0410  173.7940  143.7010 C   0  0  0  0  0  2  0  0  0  0  0  0
  195.0190  176.9060  145.5810 O   0  0  0  0  0  1  0  0  0  0  0  0
  196.6940  172.3490  146.0740 C   0  0  0  0  0  1  0  0  0  0  0  0
  194.7070  172.8010  144.6550 C   0  0  0  0  0  2  0  0  0  0  0  0
  195.1990  175.6880  144.9230 C   0  0  2  0  0  3  0  0  0  0  0  0
  193.8670  175.1720  144.3500 C   0  0  2  0  0  3  0  0  0  0  0  0
  195.8500  174.6720  145.8600 C   0  0  0  0  0  2  0  0  0  0  0  0
  1  6  1  0  0  0  0
  1  9  1  0  0  0  0
  2  3  1  6  0  0  0
  2 13  1  0  0  0  0
  2  5  1  0  0  0  0
  4  7  2  0  0  0  0
  5 16  2  0  0  0  0
  5 14  1  0  0  0  0
  7  3  1  0  0  0  0
  8 23  1  6  0  0  0
  8 12  1  0  0  0  0
 10 18  1  0  0  0  0
 11  4  1  0  0  0  0
 12 16  1  0  0  0  0
 13 18  1  6  0  0  0
 13  8  1  0  0  0  0
 14  1  2  0  0  0  0
 15 20  2  0  0  0  0
 15  4  1  0  0  0  0
 16 17  1  0  0  0  0
 17  6  2  0  0  0  0
 19 10  1  0  0  0  0
 19  3  2  0  0  0  0
 20 19  1  0  0  0  0
 22 21  2  0  0  0  0
 23 22  1  0  0  0  0
 24 31  1  0  0  0  0
 24 27  1  1  0  0  0
 25 30  1  0  0  0  0
 25 28  1  0  0  0  0
 28 24  1  0  0  0  0
 29 26  1  1  0  0  0
 29 31  1  0  0  0  0
 30 29  1  0  0  0  0
 30 22  1  1  0  0  0
M  END
>  <MODEL>
8

>  <REMARK>
 VINA RESULT:      -7.9      3.363      7.324
  Name = 
  2 active torsions:
  status: ('A' for Active; 'I' for Inactive)
    1  A    between atoms: C_5  and  C_30
    2  A    between atoms: C_10  and  N_16
                            x       y       z     vdW  Elec       q    Type
                         _______ _______ _______ _____ _____    ______ ____

>  <TORSDO>
F 2

$$$$
=
 OpenBabel11112417013D

 31 35  0  0  1  0  0  0  0  0999 V2000
  188.1370  176.1960  146.8790 C   0  0  0  0  0  0  0  0  0  0  0  0
  191.0180  174.0800  145.5840 C   0  0  2  0  0  3  0  0  0  0  0  0
  190.7450  173.4420  144.2360 C   0  0  0  0  0  0  0  0  0  0  0  0
  189.1960  172.7370  142.5010 C   0  0  0  0  0  0  0  0  0  0  0  0
  190.1270  175.2550  145.8700 C   0  0  0  0  0  0  0  0  0  0  0  0
  188.4740  177.4550  146.3720 C   0  0  0  0  0  3  0  0  0  0  0  0
  189.4390  173.3570  143.7290 C   0  0  0  0  0  3  0  0  0  0  0  0
  192.8790  175.8630  145.0810 C   0  0  1  0  0  3  0  0  0  0  0  0
  187.0080  176.0420  147.6110 F   0  0  0  0  0  0  0  0  0  0  0  0
  193.1100  172.8870  144.0110 O   0  0  0  0  0  0  0  0  0  0  0  0
  187.8110  172.6660  141.9660 C   0  0  0  0  0  1  0  0  0  0  0  0
  191.6920  176.6680  144.5250 C   0  0  0  0  0  2  0  0  0  0  0  0
  192.4990  174.4940  145.7300 C   0  0  2  0  0  3  0  0  0  0  0  0
  188.9600  175.0950  146.6260 C   0  0  0  0  0  3  0  0  0  0  0  0
  190.2540  172.1840  141.7750 C   0  0  0  0  0  3  0  0  0  0  0  0
  190.4700  176.5200  145.3710 C   0  0  0  0  0  0  0  0  0  0  0  0
  189.6380  177.6180  145.6140 C   0  0  0  0  0  3  0  0  0  0  0  0
  193.4040  173.3230  145.3390 C   0  0  0  0  0  2  0  0  0  0  0  0
  191.8030  172.8510  143.5150 C   0  0  0  0  0  0  0  0  0  0  0  0
  191.5550  172.2400  142.2820 C   0  0  0  0  0  3  0  0  0  0  0  0
  195.4070  177.2180  145.0110 O   0  0  0  0  0  0  0  0  0  0  0  0
  195.1280  176.4470  144.0530 C   0  0  0  0  0  0  0  0  0  0  0  0
  193.8960  175.7210  144.0460 N   0  0  0  0  0  2  0  0  0  0  0  0
  195.5760  173.9230  141.2570 C   0  0  1  0  0  3  0  0  0  0  0  0
  195.4030  176.4060  141.5570 C   0  0  0  0  0  2  0  0  0  0  0  0
  197.5450  174.9140  144.2700 O   0  0  0  0  0  1  0  0  0  0  0  0
  194.8040  172.6660  140.9170 C   0  0  0  0  0  1  0  0  0  0  0  0
  194.6390  175.1250  141.2180 C   0  0  0  0  0  2  0  0  0  0  0  0
  196.9750  175.0430  143.0030 C   0  0  2  0  0  3  0  0  0  0  0  0
  196.1000  176.3060  142.9180 C   0  0  2  0  0  3  0  0  0  0  0  0
  196.1920  173.7800  142.6450 C   0  0  0  0  0  2  0  0  0  0  0  0
  1  9  1  0  0  0  0
  2  3  1  6  0  0  0
  2 13  1  0  0  0  0
  2  5  1  0  0  0  0
  4  7  2  0  0  0  0
  5 14  2  0  0  0  0
  6  1  2  0  0  0  0
  7  3  1  0  0  0  0
  8 23  1  6  0  0  0
  8 13  1  0  0  0  0
 10 18  1  0  0  0  0
 11  4  1  0  0  0  0
 12  8  1  0  0  0  0
 12 16  1  0  0  0  0
 13 18  1  6  0  0  0
 14  1  1  0  0  0  0
 15 20  2  0  0  0  0
 15  4  1  0  0  0  0
 16 17  2  0  0  0  0
 16  5  1  0  0  0  0
 17  6  1  0  0  0  0
 19 10  1  0  0  0  0
 19  3  2  0  0  0  0
 20 19  1  0  0  0  0
 22 21  2  0  0  0  0
 23 22  1  0  0  0  0
 24 27  1  1  0  0  0
 24 31  1  0  0  0  0
 25 30  1  0  0  0  0
 28 24  1  0  0  0  0
 28 25  1  0  0  0  0
 29 26  1  1  0  0  0
 30 29  1  0  0  0  0
 30 22  1  1  0  0  0
 31 29  1  0  0  0  0
M  END
>  <MODEL>
9

>  <REMARK>
 VINA RESULT:      -7.8      3.853      7.336
  Name = 
  2 active torsions:
  status: ('A' for Active; 'I' for Inactive)
    1  A    between atoms: C_5  and  C_30
    2  A    between atoms: C_10  and  N_16
                            x       y       z     vdW  Elec       q    Type
                         _______ _______ _______ _____ _____    ______ ____

>  <TORSDO>
F 2

$$$$
