=
 OpenBabel11112416283D

 32 37  0  0  1  0  0  0  0  0999 V2000
  195.3190  175.3230  144.7690 C   0  0  0  0  0  2  0  0  0  0  0  0
  189.9860  176.0380  145.2840 C   0  0  1  0  0  3  0  0  0  0  0  0
  188.5720  174.8740  140.6570 C   0  0  0  0  0  3  0  0  0  0  0  0
  187.4420  175.6780  140.7860 C   0  0  0  0  0  3  0  0  0  0  0  0
  188.5790  177.6670  146.5810 C   0  0  0  0  0  0  0  0  0  0  0  0
  187.1800  178.0270  146.7690 C   0  0  0  0  0  0  0  0  0  0  0  0
  192.3010  175.3020  145.9460 C   0  0  1  0  0  3  0  0  0  0  0  0
  191.1730  174.2620  143.9700 C   0  0  0  0  0  2  0  0  0  0  0  0
  185.1220  178.5080  146.2120 N   0  0  0  0  0  0  0  0  0  0  0  0
  193.5000  173.5460  144.4960 C   0  0  0  0  0  2  0  0  0  0  0  0
  189.4820  174.7770  141.7100 C   0  0  0  0  0  3  0  0  0  0  0  0
  190.2050  175.3600  143.9960 N   0  0  0  0  0  0  0  0  0  0  0  0
  189.2740  175.4860  142.9080 C   0  0  0  0  0  0  0  0  0  0  0  0
  187.9240  177.0530  144.2480 N   0  0  0  0  0  0  0  0  0  0  0  0
  185.2170  178.6950  147.5200 N   0  0  0  0  0  0  0  0  0  0  0  0
  194.6320  176.3530  145.6840 C   0  0  0  0  0  2  0  0  0  0  0  0
  192.5100  174.7130  144.5410 C   0  0  2  0  0  3  0  0  0  0  0  0
  186.4850  178.4080  147.9040 C   0  0  0  0  0  3  0  0  0  0  0  0
  193.5920  175.7550  146.6400 C   0  0  0  0  0  2  0  0  0  0  0  0
  194.8980  173.8720  145.0360 C   0  0  1  0  0  3  0  0  0  0  0  0
  187.2290  176.3900  141.9680 C   0  0  0  0  0  3  0  0  0  0  0  0
  188.1430  176.3080  143.0360 C   0  0  0  0  0  0  0  0  0  0  0  0
  186.7090  177.8890  144.3220 C   0  0  0  0  0  2  0  0  0  0  0  0
  191.3370  176.4770  145.8600 C   0  0  0  0  0  2  0  0  0  0  0  0
  189.3830  177.7510  147.5480 O   0  0  0  0  0  0  0  0  0  0  0  0
  183.9190  178.7580  145.4380 C   0  0  0  0  0  1  0  0  0  0  0  0
  189.0550  177.2650  145.1900 C   0  0  2  0  0  3  0  0  0  0  0  0
  186.3050  178.0900  145.7400 C   0  0  0  0  0  0  0  0  0  0  0  0
  195.8640  172.9530  144.4540 N   0  0  0  0  0  2  0  0  0  0  0  0
  196.9770  172.4500  145.1930 C   0  0  0  0  0  0  0  0  0  0  0  0
  197.1630  172.8060  146.5240 O   0  0  0  0  0  1  0  0  0  0  0  0
  197.7940  171.6720  144.6360 O   0  0  0  0  0  0  0  0  0  0  0  0
  1 20  1  0  0  0  0
  1 16  1  0  0  0  0
  2 24  1  6  0  0  0
  3  4  2  0  0  0  0
  3 11  1  0  0  0  0
  4 21  1  0  0  0  0
  5  6  1  0  0  0  0
  5 25  2  0  0  0  0
  6 18  1  0  0  0  0
  7 24  1  6  0  0  0
  7 19  1  0  0  0  0
  8 12  1  0  0  0  0
  9 15  1  0  0  0  0
 10 17  1  0  0  0  0
 10 20  1  0  0  0  0
 11 13  2  0  0  0  0
 12  2  1  0  0  0  0
 13 22  1  0  0  0  0
 13 12  1  0  0  0  0
 14 23  1  0  0  0  0
 14 27  1  0  0  0  0
 15 18  2  0  0  0  0
 16 19  1  0  0  0  0
 17  8  1  1  0  0  0
 17  7  1  0  0  0  0
 20 29  1  6  0  0  0
 21 22  2  0  0  0  0
 22 14  1  0  0  0  0
 23 28  1  0  0  0  0
 26  9  1  0  0  0  0
 27  2  1  0  0  0  0
 27  5  1  1  0  0  0
 28  9  1  0  0  0  0
 28  6  2  0  0  0  0
 29 30  1  0  0  0  0
 30 31  1  0  0  0  0
 32 30  2  0  0  0  0
M  END
>  <MODEL>
1

>  <REMARK>
 VINA RESULT:      -8.6      0.000      0.000
  Name = 
  1 active torsions:
  status: ('A' for Active; 'I' for Inactive)
    1  A    between atoms: C_20  and  N_29
                            x       y       z     vdW  Elec       q    Type
                         _______ _______ _______ _____ _____    ______ ____

>  <TORSDO>
F 1

$$$$
=
 OpenBabel11112416283D

 32 37  0  0  1  0  0  0  0  0999 V2000
  187.4660  176.3940  146.5450 C   0  0  0  0  0  2  0  0  0  0  0  0
  191.8500  176.0570  143.4000 C   0  0  1  0  0  3  0  0  0  0  0  0
  190.1020  172.9590  139.9190 C   0  0  0  0  0  3  0  0  0  0  0  0
  191.3940  172.5150  139.6480 C   0  0  0  0  0  3  0  0  0  0  0  0
  194.3180  176.0390  143.8740 C   0  0  0  0  0  0  0  0  0  0  0  0
  195.5860  175.8900  143.1720 C   0  0  0  0  0  0  0  0  0  0  0  0
  190.1220  177.1660  144.8560 C   0  0  1  0  0  3  0  0  0  0  0  0
  189.4500  176.1350  142.6780 C   0  0  0  0  0  2  0  0  0  0  0  0
  197.0440  175.0330  141.7870 N   0  0  0  0  0  0  0  0  0  0  0  0
  187.6610  177.1240  144.1010 C   0  0  0  0  0  2  0  0  0  0  0  0
  189.8900  173.9150  140.9130 C   0  0  0  0  0  3  0  0  0  0  0  0
  190.7400  175.4420  142.6550 N   0  0  0  0  0  0  0  0  0  0  0  0
  190.9680  174.4390  141.6500 C   0  0  0  0  0  0  0  0  0  0  0  0
  193.3820  174.4970  142.1430 N   0  0  0  0  0  0  0  0  0  0  0  0
  197.6760  175.9750  142.4720 N   0  0  0  0  0  0  0  0  0  0  0  0
  188.9280  176.4710  147.0240 C   0  0  0  0  0  2  0  0  0  0  0  0
  189.0130  176.4040  144.1100 C   0  0  2  0  0  3  0  0  0  0  0  0
  196.8010  176.5300  143.3460 C   0  0  0  0  0  3  0  0  0  0  0  0
  189.7740  177.5300  146.3060 C   0  0  0  0  0  2  0  0  0  0  0  0
  187.0990  177.4470  145.4910 C   0  0  1  0  0  3  0  0  0  0  0  0
  192.4710  173.0240  140.3770 C   0  0  0  0  0  3  0  0  0  0  0  0
  192.2700  173.9830  141.3880 C   0  0  0  0  0  0  0  0  0  0  0  0
  194.7250  173.9840  141.8100 C   0  0  0  0  0  2  0  0  0  0  0  0
  191.3990  176.3380  144.8380 C   0  0  0  0  0  2  0  0  0  0  0  0
  194.2390  176.8120  144.8670 O   0  0  0  0  0  0  0  0  0  0  0  0
  197.6740  174.1910  140.7860 C   0  0  0  0  0  1  0  0  0  0  0  0
  193.1290  175.1930  143.4330 C   0  0  2  0  0  3  0  0  0  0  0  0
  195.7670  174.9760  142.1920 C   0  0  0  0  0  0  0  0  0  0  0  0
  185.6540  177.5870  145.4040 N   0  0  0  0  0  2  0  0  0  0  0  0
  184.9300  178.5270  146.1980 C   0  0  0  0  0  0  0  0  0  0  0  0
  185.5970  179.3710  147.0780 O   0  0  0  0  0  1  0  0  0  0  0  0
  183.6780  178.5940  146.0980 O   0  0  0  0  0  0  0  0  0  0  0  0
  1 16  1  0  0  0  0
  2 27  1  0  0  0  0
  2 24  1  1  0  0  0
  3 11  1  0  0  0  0
  4  3  2  0  0  0  0
  4 21  1  0  0  0  0
  5 25  2  0  0  0  0
  6 18  1  0  0  0  0
  6  5  1  0  0  0  0
  7 24  1  1  0  0  0
  7 19  1  0  0  0  0
  9 28  1  0  0  0  0
  9 15  1  0  0  0  0
 10 17  1  0  0  0  0
 10 20  1  0  0  0  0
 11 13  2  0  0  0  0
 12  8  1  0  0  0  0
 12  2  1  0  0  0  0
 13 12  1  0  0  0  0
 14 27  1  0  0  0  0
 15 18  2  0  0  0  0
 17  8  1  6  0  0  0
 17  7  1  0  0  0  0
 19 16  1  0  0  0  0
 20 29  1  6  0  0  0
 20  1  1  0  0  0  0
 21 22  2  0  0  0  0
 22 13  1  0  0  0  0
 22 14  1  0  0  0  0
 23 14  1  0  0  0  0
 23 28  1  0  0  0  0
 26  9  1  0  0  0  0
 27  5  1  6  0  0  0
 28  6  2  0  0  0  0
 29 30  1  0  0  0  0
 30 31  1  0  0  0  0
 32 30  2  0  0  0  0
M  END
>  <MODEL>
2

>  <REMARK>
 VINA RESULT:      -8.4      2.750      8.431
  Name = 
  1 active torsions:
  status: ('A' for Active; 'I' for Inactive)
    1  A    between atoms: C_20  and  N_29
                            x       y       z     vdW  Elec       q    Type
                         _______ _______ _______ _____ _____    ______ ____

>  <TORSDO>
F 1

$$$$
=
 OpenBabel11112416283D

 32 37  0  0  1  0  0  0  0  0999 V2000
  186.0610  176.6170  146.2120 C   0  0  0  0  0  2  0  0  0  0  0  0
  190.9850  175.0040  144.6730 C   0  0  1  0  0  3  0  0  0  0  0  0
  189.6890  171.4240  141.4680 C   0  0  0  0  0  3  0  0  0  0  0  0
  190.8980  170.7690  141.6910 C   0  0  0  0  0  3  0  0  0  0  0  0
  193.1840  174.7870  145.8700 C   0  0  0  0  0  0  0  0  0  0  0  0
  194.5420  174.3190  145.6280 C   0  0  0  0  0  0  0  0  0  0  0  0
  189.1690  176.6310  145.2990 C   0  0  1  0  0  3  0  0  0  0  0  0
  188.9280  175.2130  143.2530 C   0  0  0  0  0  2  0  0  0  0  0  0
  196.1300  172.9850  144.9390 N   0  0  0  0  0  0  0  0  0  0  0  0
  187.0420  176.7240  143.8530 C   0  0  0  0  0  2  0  0  0  0  0  0
  189.4010  172.6050  142.1530 C   0  0  0  0  0  3  0  0  0  0  0  0
  190.0220  174.3770  143.7530 N   0  0  0  0  0  0  0  0  0  0  0  0
  190.3190  173.1470  143.0710 C   0  0  0  0  0  0  0  0  0  0  0  0
  192.4750  173.0130  144.2560 N   0  0  0  0  0  0  0  0  0  0  0  0
  196.7200  173.9740  145.5940 N   0  0  0  0  0  0  0  0  0  0  0  0
  187.3250  176.6190  147.0910 C   0  0  0  0  0  2  0  0  0  0  0  0
  188.1790  175.8630  144.4070 C   0  0  2  0  0  3  0  0  0  0  0  0
  195.7630  174.8230  146.0420 C   0  0  0  0  0  3  0  0  0  0  0  0
  188.5180  177.3650  146.4790 C   0  0  0  0  0  2  0  0  0  0  0  0
  186.1970  177.4320  144.9200 C   0  0  1  0  0  3  0  0  0  0  0  0
  191.8140  171.2950  142.6040 C   0  0  0  0  0  3  0  0  0  0  0  0
  191.5320  172.4820  143.3080 C   0  0  0  0  0  0  0  0  0  0  0  0
  193.7370  172.2720  144.4490 C   0  0  0  0  0  2  0  0  0  0  0  0
  190.2240  175.6680  145.8260 C   0  0  0  0  0  2  0  0  0  0  0  0
  192.9870  175.7740  146.6290 O   0  0  0  0  0  0  0  0  0  0  0  0
  196.8370  171.8600  144.3530 C   0  0  0  0  0  1  0  0  0  0  0  0
  192.0200  174.0180  145.2540 C   0  0  2  0  0  3  0  0  0  0  0  0
  194.8050  173.1860  144.9390 C   0  0  0  0  0  0  0  0  0  0  0  0
  184.8820  177.7290  144.3720 N   0  0  0  0  0  2  0  0  0  0  0  0
  184.4820  179.0550  144.0280 C   0  0  0  0  0  0  0  0  0  0  0  0
  185.3600  180.1220  144.1830 O   0  0  0  0  0  1  0  0  0  0  0  0
  183.3270  179.2600  143.5760 O   0  0  0  0  0  0  0  0  0  0  0  0
  1 16  1  0  0  0  0
  2 27  1  0  0  0  0
  2 24  1  1  0  0  0
  3  4  2  0  0  0  0
  3 11  1  0  0  0  0
  4 21  1  0  0  0  0
  5 25  2  0  0  0  0
  6  5  1  0  0  0  0
  6 18  1  0  0  0  0
  7 24  1  1  0  0  0
  7 19  1  0  0  0  0
  8 12  1  0  0  0  0
  9 28  1  0  0  0  0
  9 15  1  0  0  0  0
 10 17  1  0  0  0  0
 10 20  1  0  0  0  0
 11 13  2  0  0  0  0
 12  2  1  0  0  0  0
 13 22  1  0  0  0  0
 13 12  1  0  0  0  0
 14 23  1  0  0  0  0
 14 27  1  0  0  0  0
 15 18  2  0  0  0  0
 17  8  1  6  0  0  0
 17  7  1  0  0  0  0
 19 16  1  0  0  0  0
 20 29  1  6  0  0  0
 20  1  1  0  0  0  0
 21 22  2  0  0  0  0
 22 14  1  0  0  0  0
 23 28  1  0  0  0  0
 26  9  1  0  0  0  0
 27  5  1  6  0  0  0
 28  6  2  0  0  0  0
 30 31  1  0  0  0  0
 30 29  1  0  0  0  0
 32 30  2  0  0  0  0
M  END
>  <MODEL>
3

>  <REMARK>
 VINA RESULT:      -8.3      2.490      8.451
  Name = 
  1 active torsions:
  status: ('A' for Active; 'I' for Inactive)
    1  A    between atoms: C_20  and  N_29
                            x       y       z     vdW  Elec       q    Type
                         _______ _______ _______ _____ _____    ______ ____

>  <TORSDO>
F 1

$$$$
=
 OpenBabel11112416283D

 32 37  0  0  1  0  0  0  0  0999 V2000
  187.6880  176.2560  146.8510 C   0  0  0  0  0  2  0  0  0  0  0  0
  191.2190  175.8890  142.7750 C   0  0  1  0  0  3  0  0  0  0  0  0
  188.7570  172.6850  139.8690 C   0  0  0  0  0  3  0  0  0  0  0  0
  189.9570  172.2490  139.3120 C   0  0  0  0  0  3  0  0  0  0  0  0
  193.7290  175.9110  142.6570 C   0  0  0  0  0  0  0  0  0  0  0  0
  194.8000  175.7580  141.6810 C   0  0  0  0  0  0  0  0  0  0  0  0
  189.8610  177.0140  144.5710 C   0  0  1  0  0  3  0  0  0  0  0  0
  188.7150  175.9220  142.6340 C   0  0  0  0  0  2  0  0  0  0  0  0
  195.9070  174.8830  140.0130 N   0  0  0  0  0  0  0  0  0  0  0  0
  187.2930  176.9260  144.4140 C   0  0  0  0  0  2  0  0  0  0  0  0
  188.7670  173.6640  140.8640 C   0  0  0  0  0  3  0  0  0  0  0  0
  189.9750  175.2430  142.3240 N   0  0  0  0  0  0  0  0  0  0  0  0
  189.9790  174.2180  141.3160 C   0  0  0  0  0  0  0  0  0  0  0  0
  192.4400  174.3150  141.2290 N   0  0  0  0  0  0  0  0  0  0  0  0
  196.6660  175.8490  140.5090 N   0  0  0  0  0  0  0  0  0  0  0  0
  189.2190  176.3620  146.9730 C   0  0  0  0  0  2  0  0  0  0  0  0
  188.6210  176.2220  144.1220 C   0  0  2  0  0  3  0  0  0  0  0  0
  196.0110  176.4150  141.5520 C   0  0  0  0  0  3  0  0  0  0  0  0
  189.8560  177.4110  146.0530 C   0  0  0  0  0  2  0  0  0  0  0  0
  187.0660  177.2780  145.8900 C   0  0  1  0  0  3  0  0  0  0  0  0
  191.1660  172.7880  139.7580 C   0  0  0  0  0  3  0  0  0  0  0  0
  191.1900  173.7700  140.7660 C   0  0  0  0  0  0  0  0  0  0  0  0
  193.6760  173.8090  140.6000 C   0  0  0  0  0  2  0  0  0  0  0  0
  191.1120  176.2010  144.2720 C   0  0  0  0  0  2  0  0  0  0  0  0
  193.8720  176.7070  143.6240 O   0  0  0  0  0  0  0  0  0  0  0  0
  196.3000  174.0230  138.9100 C   0  0  0  0  0  1  0  0  0  0  0  0
  192.4840  175.0400  142.5260 C   0  0  2  0  0  3  0  0  0  0  0  0
  194.7620  174.8220  140.7060 C   0  0  0  0  0  0  0  0  0  0  0  0
  185.6390  177.4000  146.1410 N   0  0  0  0  0  2  0  0  0  0  0  0
  184.9210  178.6070  145.8850 C   0  0  0  0  0  0  0  0  0  0  0  0
  185.5680  179.7160  145.3540 O   0  0  0  0  0  0  0  0  0  0  0  0
  183.6900  178.6650  146.1380 O   0  0  0  0  0  1  0  0  0  0  0  0
  1 16  1  0  0  0  0
  2 24  1  1  0  0  0
  3 11  1  0  0  0  0
  4 21  1  0  0  0  0
  4  3  2  0  0  0  0
  5 25  2  0  0  0  0
  6  5  1  0  0  0  0
  7 24  1  1  0  0  0
  7 19  1  0  0  0  0
  9 15  1  0  0  0  0
  9 28  1  0  0  0  0
 10 20  1  0  0  0  0
 11 13  2  0  0  0  0
 12  8  1  0  0  0  0
 12  2  1  0  0  0  0
 13 12  1  0  0  0  0
 14 27  1  0  0  0  0
 15 18  2  0  0  0  0
 17  8  1  6  0  0  0
 17 10  1  0  0  0  0
 17  7  1  0  0  0  0
 18  6  1  0  0  0  0
 19 16  1  0  0  0  0
 20 29  1  6  0  0  0
 20  1  1  0  0  0  0
 21 22  2  0  0  0  0
 22 14  1  0  0  0  0
 22 13  1  0  0  0  0
 23 28  1  0  0  0  0
 23 14  1  0  0  0  0
 26  9  1  0  0  0  0
 27  5  1  6  0  0  0
 27  2  1  0  0  0  0
 28  6  2  0  0  0  0
 30 32  1  0  0  0  0
 30 29  1  0  0  0  0
 31 30  2  0  0  0  0
M  END
>  <MODEL>
4

>  <REMARK>
 VINA RESULT:      -8.1      3.135      8.379
  Name = 
  1 active torsions:
  status: ('A' for Active; 'I' for Inactive)
    1  A    between atoms: C_20  and  N_29
                            x       y       z     vdW  Elec       q    Type
                         _______ _______ _______ _____ _____    ______ ____

>  <TORSDO>
F 1

$$$$
=
 OpenBabel11112416283D

 32 37  0  0  1  0  0  0  0  0999 V2000
  192.9760  173.7780  143.9860 C   0  0  0  0  0  2  0  0  0  0  0  0
  188.6140  176.8860  143.2580 C   0  0  1  0  0  3  0  0  0  0  0  0
  187.5620  177.9150  148.0120 C   0  0  0  0  0  3  0  0  0  0  0  0
  186.2200  178.1010  147.6880 C   0  0  0  0  0  3  0  0  0  0  0  0
  186.7220  176.8470  141.6050 C   0  0  0  0  0  0  0  0  0  0  0  0
  185.4740  177.5450  141.3230 C   0  0  0  0  0  0  0  0  0  0  0  0
  190.9240  175.9930  142.8100 C   0  0  1  0  0  3  0  0  0  0  0  0
  190.4340  177.1760  144.9590 C   0  0  0  0  0  2  0  0  0  0  0  0
  183.5370  178.4710  141.7300 N   0  0  0  0  0  0  0  0  0  0  0  0
  192.7190  176.2380  144.6390 C   0  0  0  0  0  2  0  0  0  0  0  0
  188.4730  177.5530  147.0200 C   0  0  0  0  0  3  0  0  0  0  0  0
  189.0070  177.0230  144.6700 N   0  0  0  0  0  0  0  0  0  0  0  0
  188.0540  177.3720  145.6890 C   0  0  0  0  0  0  0  0  0  0  0  0
  186.2510  177.3470  144.0090 N   0  0  0  0  0  0  0  0  0  0  0  0
  183.6980  178.4870  140.4150 N   0  0  0  0  0  0  0  0  0  0  0  0
  191.9460  173.6340  142.8500 C   0  0  0  0  0  2  0  0  0  0  0  0
  191.2340  176.0530  144.3150 C   0  0  2  0  0  3  0  0  0  0  0  0
  184.8920  177.9160  140.1230 C   0  0  0  0  0  3  0  0  0  0  0  0
  191.7090  174.9180  142.0460 C   0  0  0  0  0  2  0  0  0  0  0  0
  193.6400  175.1590  144.0540 C   0  0  1  0  0  3  0  0  0  0  0  0
  185.7920  177.9180  146.3720 C   0  0  0  0  0  3  0  0  0  0  0  0
  186.7000  177.5450  145.3620 C   0  0  0  0  0  0  0  0  0  0  0  0
  184.8170  177.5570  143.7300 C   0  0  0  0  0  2  0  0  0  0  0  0
  189.4320  175.7630  142.6130 C   0  0  0  0  0  2  0  0  0  0  0  0
  187.4230  176.4100  140.6540 O   0  0  0  0  0  0  0  0  0  0  0  0
  182.3520  178.9610  142.4120 C   0  0  0  0  0  1  0  0  0  0  0  0
  187.1120  176.5950  143.0570 C   0  0  2  0  0  3  0  0  0  0  0  0
  184.6140  177.9120  142.3000 C   0  0  0  0  0  0  0  0  0  0  0  0
  194.8600  175.0920  144.8430 N   0  0  0  0  0  2  0  0  0  0  0  0
  196.1080  174.6840  144.2830 C   0  0  0  0  0  0  0  0  0  0  0  0
  196.2060  174.3590  142.9350 O   0  0  0  0  0  0  0  0  0  0  0  0
  197.1300  174.6240  145.0130 O   0  0  0  0  0  1  0  0  0  0  0  0
  1 20  1  0  0  0  0
  2 24  1  1  0  0  0
  2 12  1  0  0  0  0
  4  3  1  0  0  0  0
  6  5  1  0  0  0  0
  6 28  2  0  0  0  0
  7 19  1  1  0  0  0
  7 17  1  0  0  0  0
  9 28  1  0  0  0  0
  9 26  1  0  0  0  0
 11  3  2  0  0  0  0
 12  8  1  0  0  0  0
 12 13  1  0  0  0  0
 13 11  1  0  0  0  0
 14 22  1  0  0  0  0
 15  9  1  0  0  0  0
 16  1  1  0  0  0  0
 17 10  1  6  0  0  0
 17  8  1  0  0  0  0
 18 15  2  0  0  0  0
 18  6  1  0  0  0  0
 19 16  1  0  0  0  0
 20 10  1  0  0  0  0
 20 29  1  1  0  0  0
 21  4  2  0  0  0  0
 22 13  2  0  0  0  0
 22 21  1  0  0  0  0
 23 14  1  0  0  0  0
 24  7  1  0  0  0  0
 25  5  2  0  0  0  0
 27  5  1  6  0  0  0
 27  2  1  0  0  0  0
 27 14  1  0  0  0  0
 28 23  1  0  0  0  0
 30 29  1  0  0  0  0
 30 32  1  0  0  0  0
 31 30  2  0  0  0  0
M  END
>  <MODEL>
5

>  <REMARK>
 VINA RESULT:      -8.0      2.533      4.527
  Name = 
  1 active torsions:
  status: ('A' for Active; 'I' for Inactive)
    1  A    between atoms: C_20  and  N_29
                            x       y       z     vdW  Elec       q    Type
                         _______ _______ _______ _____ _____    ______ ____

>  <TORSDO>
F 1

$$$$
=
 OpenBabel11112416283D

 32 37  0  0  1  0  0  0  0  0999 V2000
  186.1190  178.5350  141.6420 C   0  0  0  0  0  2  0  0  0  0  0  0
  190.0720  175.4860  143.7130 C   0  0  1  0  0  3  0  0  0  0  0  0
  190.3990  177.5580  148.2270 C   0  0  0  0  0  3  0  0  0  0  0  0
  191.7330  177.1660  148.3240 C   0  0  0  0  0  3  0  0  0  0  0  0
  192.1360  174.4360  142.7370 C   0  0  0  0  0  0  0  0  0  0  0  0
  193.3010  173.6690  143.1570 C   0  0  0  0  0  0  0  0  0  0  0  0
  187.9750  175.9960  142.4170 C   0  0  1  0  0  3  0  0  0  0  0  0
  188.0390  176.3650  144.8910 C   0  0  0  0  0  2  0  0  0  0  0  0
  195.0310  173.1220  144.3750 N   0  0  0  0  0  0  0  0  0  0  0  0
  185.9590  176.9880  143.6720 C   0  0  0  0  0  2  0  0  0  0  0  0
  189.6710  177.2650  147.0730 C   0  0  0  0  0  3  0  0  0  0  0  0
  189.4990  176.2590  144.8270 N   0  0  0  0  0  0  0  0  0  0  0  0
  190.2660  176.5770  146.0010 C   0  0  0  0  0  0  0  0  0  0  0  0
  192.2430  175.5020  144.9960 N   0  0  0  0  0  0  0  0  0  0  0  0
  195.0270  172.3080  143.3300 N   0  0  0  0  0  0  0  0  0  0  0  0
  187.2870  177.9160  140.8520 C   0  0  0  0  0  2  0  0  0  0  0  0
  187.4830  176.8840  143.5730 C   0  0  2  0  0  3  0  0  0  0  0  0
  193.9660  172.6200  142.5470 C   0  0  0  0  0  3  0  0  0  0  0  0
  187.4410  176.4010  141.0370 C   0  0  0  0  0  2  0  0  0  0  0  0
  185.2700  177.5110  142.4050 C   0  0  1  0  0  3  0  0  0  0  0  0
  192.3350  176.4870  147.2630 C   0  0  0  0  0  3  0  0  0  0  0  0
  191.6140  176.1920  146.0910 C   0  0  0  0  0  0  0  0  0  0  0  0
  193.6590  175.1150  145.1590 C   0  0  0  0  0  2  0  0  0  0  0  0
  189.4980  176.0040  142.3910 C   0  0  0  0  0  2  0  0  0  0  0  0
  191.6190  174.2210  141.6080 O   0  0  0  0  0  0  0  0  0  0  0  0
  196.0490  173.1120  145.4110 C   0  0  0  0  0  1  0  0  0  0  0  0
  191.6130  175.5400  143.6490 C   0  0  2  0  0  3  0  0  0  0  0  0
  193.9800  173.9490  144.2920 C   0  0  0  0  0  0  0  0  0  0  0  0
  183.9840  178.0910  142.7630 N   0  0  0  0  0  2  0  0  0  0  0  0
  182.9450  178.2910  141.8050 C   0  0  0  0  0  0  0  0  0  0  0  0
  183.1200  177.9060  140.4810 O   0  0  0  0  0  0  0  0  0  0  0  0
  181.8600  178.8150  142.1630 O   0  0  0  0  0  1  0  0  0  0  0  0
  1 20  1  0  0  0  0
  2 24  1  6  0  0  0
  2 12  1  0  0  0  0
  3  4  1  0  0  0  0
  5  6  1  0  0  0  0
  6 28  2  0  0  0  0
  7 19  1  6  0  0  0
  7 17  1  0  0  0  0
  9 26  1  0  0  0  0
 11  3  2  0  0  0  0
 12  8  1  0  0  0  0
 12 13  1  0  0  0  0
 13 22  2  0  0  0  0
 13 11  1  0  0  0  0
 14 23  1  0  0  0  0
 14 22  1  0  0  0  0
 15  9  1  0  0  0  0
 16 19  1  0  0  0  0
 16  1  1  0  0  0  0
 17 10  1  1  0  0  0
 17  8  1  0  0  0  0
 18  6  1  0  0  0  0
 18 15  2  0  0  0  0
 20 29  1  1  0  0  0
 20 10  1  0  0  0  0
 21  4  2  0  0  0  0
 22 21  1  0  0  0  0
 24  7  1  0  0  0  0
 25  5  2  0  0  0  0
 27  5  1  6  0  0  0
 27  2  1  0  0  0  0
 27 14  1  0  0  0  0
 28  9  1  0  0  0  0
 28 23  1  0  0  0  0
 30 32  1  0  0  0  0
 30 29  1  0  0  0  0
 31 30  2  0  0  0  0
M  END
>  <MODEL>
6

>  <REMARK>
 VINA RESULT:      -8.0      3.172      9.180
  Name = 
  1 active torsions:
  status: ('A' for Active; 'I' for Inactive)
    1  A    between atoms: C_20  and  N_29
                            x       y       z     vdW  Elec       q    Type
                         _______ _______ _______ _____ _____    ______ ____

>  <TORSDO>
F 1

$$$$
=
 OpenBabel11112416283D

 32 37  0  0  1  0  0  0  0  0999 V2000
  190.1760  171.7160  139.6750 C   0  0  0  0  0  2  0  0  0  0  0  0
  188.7920  175.7550  142.9910 C   0  0  1  0  0  3  0  0  0  0  0  0
  192.0980  174.9730  146.6280 C   0  0  0  0  0  3  0  0  0  0  0  0
  191.2450  175.5740  147.5500 C   0  0  0  0  0  3  0  0  0  0  0  0
  186.5980  176.8220  143.5900 C   0  0  0  0  0  0  0  0  0  0  0  0
  186.0610  177.8380  144.4860 C   0  0  0  0  0  0  0  0  0  0  0  0
  189.2800  174.6200  140.7970 C   0  0  1  0  0  3  0  0  0  0  0  0
  191.0990  174.9060  142.4900 C   0  0  0  0  0  2  0  0  0  0  0  0
  185.7570  178.9330  146.3530 N   0  0  0  0  0  0  0  0  0  0  0  0
  191.6430  173.6860  140.3890 C   0  0  0  0  0  2  0  0  0  0  0  0
  191.7060  174.8490  145.2950 C   0  0  0  0  0  3  0  0  0  0  0  0
  190.0680  175.2130  143.4850 N   0  0  0  0  0  0  0  0  0  0  0  0
  190.4520  175.3240  144.8660 C   0  0  0  0  0  0  0  0  0  0  0  0
  188.2930  176.3950  145.3780 N   0  0  0  0  0  0  0  0  0  0  0  0
  184.9130  179.4440  145.4690 N   0  0  0  0  0  0  0  0  0  0  0  0
  188.7570  172.2840  139.8600 C   0  0  0  0  0  2  0  0  0  0  0  0
  190.5430  173.9910  141.4090 C   0  0  2  0  0  3  0  0  0  0  0  0
  185.0710  178.7860  144.2950 C   0  0  0  0  0  3  0  0  0  0  0  0
  188.6530  173.8020  139.6610 C   0  0  0  0  0  2  0  0  0  0  0  0
  191.2150  172.7600  139.2440 C   0  0  1  0  0  3  0  0  0  0  0  0
  189.9960  176.0440  147.1360 C   0  0  0  0  0  3  0  0  0  0  0  0
  189.5850  175.9180  145.7960 C   0  0  0  0  0  0  0  0  0  0  0  0
  187.4340  177.0200  146.4030 C   0  0  0  0  0  2  0  0  0  0  0  0
  188.2450  174.8370  141.8930 C   0  0  0  0  0  2  0  0  0  0  0  0
  186.0890  176.6620  142.4490 O   0  0  0  0  0  0  0  0  0  0  0  0
  185.8430  179.3590  147.7390 C   0  0  0  0  0  1  0  0  0  0  0  0
  187.7210  175.9200  144.0900 C   0  0  2  0  0  3  0  0  0  0  0  0
  186.4720  177.9620  145.7690 C   0  0  0  0  0  0  0  0  0  0  0  0
  192.3890  172.1020  138.6930 N   0  0  0  0  0  2  0  0  0  0  0  0
  192.5200  171.8160  137.3010 C   0  0  0  0  0  0  0  0  0  0  0  0
  191.5240  172.1870  136.4050 O   0  0  0  0  0  0  0  0  0  0  0  0
  193.5480  171.2270  136.8790 O   0  0  0  0  0  1  0  0  0  0  0  0
  1 16  1  0  0  0  0
  2 24  1  6  0  0  0
  2 12  1  0  0  0  0
  2 27  1  0  0  0  0
  3  4  1  0  0  0  0
  5  6  1  0  0  0  0
  6 28  2  0  0  0  0
  7 19  1  6  0  0  0
  7 17  1  0  0  0  0
  7 24  1  0  0  0  0
  8 12  1  0  0  0  0
  9 26  1  0  0  0  0
 11  3  2  0  0  0  0
 12 13  1  0  0  0  0
 13 11  1  0  0  0  0
 13 22  2  0  0  0  0
 14 22  1  0  0  0  0
 14 23  1  0  0  0  0
 15  9  1  0  0  0  0
 17 10  1  6  0  0  0
 17  8  1  0  0  0  0
 18  6  1  0  0  0  0
 18 15  2  0  0  0  0
 19 16  1  0  0  0  0
 20 29  1  1  0  0  0
 20  1  1  0  0  0  0
 20 10  1  0  0  0  0
 21  4  2  0  0  0  0
 22 21  1  0  0  0  0
 25  5  2  0  0  0  0
 27  5  1  6  0  0  0
 27 14  1  0  0  0  0
 28  9  1  0  0  0  0
 28 23  1  0  0  0  0
 30 29  1  0  0  0  0
 31 30  2  0  0  0  0
 32 30  1  0  0  0  0
M  END
>  <MODEL>
7

>  <REMARK>
 VINA RESULT:      -7.9      3.434      5.595
  Name = 
  1 active torsions:
  status: ('A' for Active; 'I' for Inactive)
    1  A    between atoms: C_20  and  N_29
                            x       y       z     vdW  Elec       q    Type
                         _______ _______ _______ _____ _____    ______ ____

>  <TORSDO>
F 1

$$$$
=
 OpenBabel11112416283D

 32 37  0  0  1  0  0  0  0  0999 V2000
  187.5440  177.7470  142.1710 C   0  0  0  0  0  2  0  0  0  0  0  0
  190.7180  173.6880  143.8050 C   0  0  1  0  0  3  0  0  0  0  0  0
  194.0960  176.2960  146.3670 C   0  0  0  0  0  3  0  0  0  0  0  0
  195.0510  175.3080  146.1380 C   0  0  0  0  0  3  0  0  0  0  0  0
  191.4410  171.5270  142.7460 C   0  0  0  0  0  0  0  0  0  0  0  0
  192.3170  170.3940  143.0130 C   0  0  0  0  0  0  0  0  0  0  0  0
  188.5630  174.8830  143.2920 C   0  0  1  0  0  3  0  0  0  0  0  0
  190.0720  175.7410  145.0930 C   0  0  0  0  0  2  0  0  0  0  0  0
  194.1340  169.3390  143.6140 N   0  0  0  0  0  0  0  0  0  0  0  0
  188.0080  177.0390  144.5850 C   0  0  0  0  0  2  0  0  0  0  0  0
  192.8120  176.1570  145.8390 C   0  0  0  0  0  3  0  0  0  0  0  0
  191.1320  174.8850  144.5560 N   0  0  0  0  0  0  0  0  0  0  0  0
  192.4650  175.0290  145.0740 C   0  0  0  0  0  0  0  0  0  0  0  0
  193.0970  172.8850  144.0360 N   0  0  0  0  0  0  0  0  0  0  0  0
  193.2970  168.4230  143.1500 N   0  0  0  0  0  0  0  0  0  0  0  0
  187.8170  176.4470  141.3930 C   0  0  0  0  0  2  0  0  0  0  0  0
  189.0990  176.1420  143.9940 C   0  0  2  0  0  3  0  0  0  0  0  0
  192.1550  169.0420  142.7630 C   0  0  0  0  0  3  0  0  0  0  0  0
  187.5360  175.1640  142.1860 C   0  0  0  0  0  2  0  0  0  0  0  0
  186.9620  177.5250  143.5730 C   0  0  1  0  0  3  0  0  0  0  0  0
  194.7190  174.1860  145.3750 C   0  0  0  0  0  3  0  0  0  0  0  0
  193.4300  174.0380  144.8300 C   0  0  0  0  0  0  0  0  0  0  0  0
  194.1530  171.8740  143.8280 C   0  0  0  0  0  2  0  0  0  0  0  0
  189.7290  174.0970  142.7080 C   0  0  0  0  0  2  0  0  0  0  0  0
  190.3590  171.3490  142.1250 O   0  0  0  0  0  0  0  0  0  0  0  0
  195.4790  169.0520  144.0820 C   0  0  0  0  0  1  0  0  0  0  0  0
  191.8940  172.9220  143.1630 C   0  0  2  0  0  3  0  0  0  0  0  0
  193.5490  170.5430  143.5500 C   0  0  0  0  0  0  0  0  0  0  0  0
  186.3530  178.7510  144.0640 N   0  0  0  0  0  2  0  0  0  0  0  0
  184.9790  179.0640  143.8330 C   0  0  0  0  0  0  0  0  0  0  0  0
  184.1580  178.1810  143.1420 O   0  0  0  0  0  0  0  0  0  0  0  0
  184.5060  180.1470  144.2630 O   0  0  0  0  0  1  0  0  0  0  0  0
  1 20  1  0  0  0  0
  2 24  1  6  0  0  0
  2 12  1  0  0  0  0
  4  3  1  0  0  0  0
  5  6  1  0  0  0  0
  6 28  2  0  0  0  0
  7 19  1  6  0  0  0
  7 17  1  0  0  0  0
  9 26  1  0  0  0  0
 11  3  2  0  0  0  0
 12 13  1  0  0  0  0
 12  8  1  0  0  0  0
 13 11  1  0  0  0  0
 14 22  1  0  0  0  0
 15  9  1  0  0  0  0
 16  1  1  0  0  0  0
 16 19  1  0  0  0  0
 17 10  1  1  0  0  0
 17  8  1  0  0  0  0
 18  6  1  0  0  0  0
 18 15  2  0  0  0  0
 20 29  1  1  0  0  0
 20 10  1  0  0  0  0
 21  4  2  0  0  0  0
 22 13  2  0  0  0  0
 22 21  1  0  0  0  0
 23 14  1  0  0  0  0
 24  7  1  0  0  0  0
 25  5  2  0  0  0  0
 27  5  1  1  0  0  0
 27  2  1  0  0  0  0
 27 14  1  0  0  0  0
 28  9  1  0  0  0  0
 28 23  1  0  0  0  0
 30 29  1  0  0  0  0
 30 32  1  0  0  0  0
 31 30  2  0  0  0  0
M  END
>  <MODEL>
8

>  <REMARK>
 VINA RESULT:      -7.7      3.101      9.204
  Name = 
  1 active torsions:
  status: ('A' for Active; 'I' for Inactive)
    1  A    between atoms: C_20  and  N_29
                            x       y       z     vdW  Elec       q    Type
                         _______ _______ _______ _____ _____    ______ ____

>  <TORSDO>
F 1

$$$$
=
 OpenBabel11112416283D

 32 37  0  0  1  0  0  0  0  0999 V2000
  186.8700  176.5970  143.7910 C   0  0  0  0  0  2  0  0  0  0  0  0
  191.7650  174.3050  143.7950 C   0  0  1  0  0  3  0  0  0  0  0  0
  190.6200  169.9660  141.6440 C   0  0  0  0  0  3  0  0  0  0  0  0
  191.6930  169.3510  142.2840 C   0  0  0  0  0  3  0  0  0  0  0  0
  193.6970  174.3610  145.4010 C   0  0  0  0  0  0  0  0  0  0  0  0
  195.0150  173.7660  145.5800 C   0  0  0  0  0  0  0  0  0  0  0  0
  190.0680  176.1460  143.5340 C   0  0  1  0  0  3  0  0  0  0  0  0
  190.0090  174.1630  142.0100 C   0  0  0  0  0  2  0  0  0  0  0  0
  196.5330  172.1950  145.6480 N   0  0  0  0  0  0  0  0  0  0  0  0
  188.2340  175.8890  141.7460 C   0  0  0  0  0  2  0  0  0  0  0  0
  190.3580  171.3180  141.8680 C   0  0  0  0  0  3  0  0  0  0  0  0
  190.9030  173.4720  142.9420 N   0  0  0  0  0  0  0  0  0  0  0  0
  191.1670  172.0730  142.7370 C   0  0  0  0  0  0  0  0  0  0  0  0
  193.0690  172.2060  144.2990 N   0  0  0  0  0  0  0  0  0  0  0  0
  197.1150  173.3070  146.0730 N   0  0  0  0  0  0  0  0  0  0  0  0
  187.9640  176.8100  144.8540 C   0  0  0  0  0  2  0  0  0  0  0  0
  189.1580  175.1880  142.7450 C   0  0  2  0  0  3  0  0  0  0  0  0
  196.2000  174.3070  146.0470 C   0  0  0  0  0  3  0  0  0  0  0  0
  189.3180  177.2540  144.2860 C   0  0  0  0  0  2  0  0  0  0  0  0
  187.3090  176.9470  142.3640 C   0  0  1  0  0  3  0  0  0  0  0  0
  192.4990  170.0900  143.1530 C   0  0  0  0  0  3  0  0  0  0  0  0
  192.2410  171.4520  143.3940 C   0  0  0  0  0  0  0  0  0  0  0  0
  194.1890  171.4970  144.9480 C   0  0  0  0  0  2  0  0  0  0  0  0
  190.9050  175.3440  144.5220 C   0  0  0  0  0  2  0  0  0  0  0  0
  193.4910  175.5480  145.7710 O   0  0  0  0  0  0  0  0  0  0  0  0
  197.1950  170.9040  145.5800 C   0  0  0  0  0  1  0  0  0  0  0  0
  192.5720  173.5010  144.8370 C   0  0  2  0  0  3  0  0  0  0  0  0
  195.2580  172.4580  145.3320 C   0  0  0  0  0  0  0  0  0  0  0  0
  186.1460  177.1250  141.5090 N   0  0  0  0  0  2  0  0  0  0  0  0
  185.2140  178.1880  141.7030 C   0  0  0  0  0  0  0  0  0  0  0  0
  185.4040  179.1200  142.7170 O   0  0  0  0  0  1  0  0  0  0  0  0
  184.2130  178.2860  140.9480 O   0  0  0  0  0  0  0  0  0  0  0  0
  1 16  1  0  0  0  0
  2 24  1  1  0  0  0
  2 27  1  0  0  0  0
  3 11  2  0  0  0  0
  3  4  1  0  0  0  0
  4 21  2  0  0  0  0
  5  6  1  0  0  0  0
  5 25  2  0  0  0  0
  6 18  1  0  0  0  0
  7 19  1  1  0  0  0
  7 24  1  0  0  0  0
  8 17  1  0  0  0  0
  8 12  1  0  0  0  0
  9 15  1  0  0  0  0
 10 20  1  0  0  0  0
 11 13  1  0  0  0  0
 12  2  1  0  0  0  0
 13 12  1  0  0  0  0
 13 22  2  0  0  0  0
 14 27  1  0  0  0  0
 14 23  1  0  0  0  0
 17 10  1  6  0  0  0
 17  7  1  0  0  0  0
 18 15  2  0  0  0  0
 19 16  1  0  0  0  0
 20 29  1  6  0  0  0
 20  1  1  0  0  0  0
 21 22  1  0  0  0  0
 22 14  1  0  0  0  0
 23 28  1  0  0  0  0
 26  9  1  0  0  0  0
 27  5  1  6  0  0  0
 28  6  2  0  0  0  0
 28  9  1  0  0  0  0
 29 30  1  0  0  0  0
 30 31  1  0  0  0  0
 32 30  2  0  0  0  0
M  END
>  <MODEL>
9

>  <REMARK>
 VINA RESULT:      -7.7      3.002      8.660
  Name = 
  1 active torsions:
  status: ('A' for Active; 'I' for Inactive)
    1  A    between atoms: C_20  and  N_29
                            x       y       z     vdW  Elec       q    Type
                         _______ _______ _______ _____ _____    ______ ____

>  <TORSDO>
F 1

$$$$
