=
 OpenBabel11112416293D

 32 37  0  0  1  0  0  0  0  0999 V2000
  191.6030  174.2470  144.1740 C   0  0  0  0  0  2  0  0  0  0  0  0
  187.4910  177.6380  143.2390 C   0  0  1  0  0  3  0  0  0  0  0  0
  186.1440  178.1030  148.0220 C   0  0  0  0  0  3  0  0  0  0  0  0
  184.8450  178.4400  147.6420 C   0  0  0  0  0  3  0  0  0  0  0  0
  185.5650  177.5710  141.5390 C   0  0  0  0  0  0  0  0  0  0  0  0
  184.1490  177.8410  141.2670 C   0  0  0  0  0  0  0  0  0  0  0  0
  189.7480  176.5870  142.9100 C   0  0  1  0  0  3  0  0  0  0  0  0
  189.2270  177.7920  145.0490 C   0  0  0  0  0  2  0  0  0  0  0  0
  182.0610  178.4320  141.6650 N   0  0  0  0  0  0  0  0  0  0  0  0
  191.4620  176.7150  144.8310 C   0  0  0  0  0  2  0  0  0  0  0  0
  187.1190  177.8700  147.0500 C   0  0  0  0  0  3  0  0  0  0  0  0
  187.8120  177.7260  144.6780 N   0  0  0  0  0  0  0  0  0  0  0  0
  186.8030  177.9650  145.6840 C   0  0  0  0  0  0  0  0  0  0  0  0
  185.1780  178.4630  143.8480 C   0  0  2  0  0  3  0  0  0  0  0  0
  182.0500  178.2180  140.3160 O   0  0  0  0  0  0  0  0  0  0  0  0
  190.6130  174.1680  142.9970 C   0  0  0  0  0  2  0  0  0  0  0  0
  189.9860  176.6250  144.4320 C   0  0  2  0  0  3  0  0  0  0  0  0
  183.4060  177.9240  139.9830 C   0  0  0  0  0  2  0  0  0  0  0  0
  190.4980  175.4630  142.1820 C   0  0  0  0  0  2  0  0  0  0  0  0
  192.3420  175.5870  144.2800 C   0  0  1  0  0  3  0  0  0  0  0  0
  184.5180  178.5390  146.2880 C   0  0  0  0  0  3  0  0  0  0  0  0
  185.4850  178.2840  145.3040 C   0  0  0  0  0  0  0  0  0  0  0  0
  183.7380  178.3740  143.5610 N   0  0  0  0  0  2  0  0  0  0  0  0
  188.2550  176.4620  142.6270 C   0  0  0  0  0  2  0  0  0  0  0  0
  186.3730  177.3770  140.5920 O   0  0  0  0  0  0  0  0  0  0  0  0
  181.1680  179.4010  142.2760 C   0  0  0  0  0  1  0  0  0  0  0  0
  185.9820  177.4590  142.9960 C   0  0  2  0  0  3  0  0  0  0  0  0
  183.3280  178.1610  142.2070 C   0  0  0  0  0  0  0  0  0  0  0  0
  193.5210  175.4440  145.1220 N   0  0  0  0  0  2  0  0  0  0  0  0
  194.8070  175.1090  144.5970 C   0  0  0  0  0  0  0  0  0  0  0  0
  194.9740  174.9480  143.3590 O   0  0  0  0  0  0  0  0  0  0  0  0
  195.9110  174.9620  145.4820 N   0  0  0  0  0  1  0  0  0  0  0  0
  1 20  1  0  0  0  0
  2 24  1  1  0  0  0
  2 12  1  0  0  0  0
  4  3  1  0  0  0  0
  6  5  1  0  0  0  0
  6 28  2  0  0  0  0
  7 19  1  1  0  0  0
  7 17  1  0  0  0  0
  9 28  1  0  0  0  0
  9 26  1  0  0  0  0
 11  3  2  0  0  0  0
 12  8  1  0  0  0  0
 12 13  1  0  0  0  0
 13 11  1  0  0  0  0
 14 23  1  1  0  0  0
 14 22  1  0  0  0  0
 15  9  1  0  0  0  0
 16  1  1  0  0  0  0
 17 10  1  6  0  0  0
 17  8  1  0  0  0  0
 18 15  1  0  0  0  0
 18  6  1  0  0  0  0
 19 16  1  0  0  0  0
 20 10  1  0  0  0  0
 20 29  1  1  0  0  0
 21  4  2  0  0  0  0
 22 13  2  0  0  0  0
 22 21  1  0  0  0  0
 24  7  1  0  0  0  0
 25  5  2  0  0  0  0
 27  5  1  6  0  0  0
 27  2  1  0  0  0  0
 27 14  1  0  0  0  0
 28 23  1  0  0  0  0
 30 29  1  0  0  0  0
 30 32  1  0  0  0  0
 31 30  2  0  0  0  0
M  END
>  <MODEL>
1

>  <REMARK>
 VINA RESULT:      -9.3      0.000      0.000
  Name = 
  1 active torsions:
  status: ('A' for Active; 'I' for Inactive)
    1  A    between atoms: C_20  and  N_29
                            x       y       z     vdW  Elec       q    Type
                         _______ _______ _______ _____ _____    ______ ____

>  <TORSDO>
F 1

$$$$
=
 OpenBabel11112416293D

 32 37  0  0  1  0  0  0  0  0999 V2000
  195.4450  175.6790  144.5180 C   0  0  0  0  0  2  0  0  0  0  0  0
  190.1380  175.8100  145.5620 C   0  0  1  0  0  3  0  0  0  0  0  0
  188.6950  174.8540  140.8820 C   0  0  0  0  0  3  0  0  0  0  0  0
  187.4660  175.4740  141.1150 C   0  0  0  0  0  3  0  0  0  0  0  0
  188.6840  177.4890  146.8570 C   0  0  0  0  0  0  0  0  0  0  0  0
  187.4040  178.1970  146.9500 C   0  0  0  0  0  0  0  0  0  0  0  0
  192.5730  175.3730  145.9910 C   0  0  1  0  0  3  0  0  0  0  0  0
  191.3840  174.1450  144.1530 C   0  0  0  0  0  2  0  0  0  0  0  0
  185.3810  178.8620  146.3720 N   0  0  0  0  0  0  0  0  0  0  0  0
  193.8160  173.7080  144.4660 C   0  0  0  0  0  2  0  0  0  0  0  0
  189.6280  174.7400  141.9150 C   0  0  0  0  0  3  0  0  0  0  0  0
  190.3100  175.1350  144.2600 N   0  0  0  0  0  0  0  0  0  0  0  0
  189.3460  175.2530  143.1920 C   0  0  0  0  0  0  0  0  0  0  0  0
  187.7890  176.3690  144.8020 C   0  0  2  0  0  3  0  0  0  0  0  0
  185.5280  179.4240  147.6080 O   0  0  0  0  0  0  0  0  0  0  0  0
  194.7320  176.6640  145.4620 C   0  0  0  0  0  2  0  0  0  0  0  0
  192.7090  174.7590  144.5850 C   0  0  2  0  0  3  0  0  0  0  0  0
  186.7890  178.9460  148.0770 C   0  0  0  0  0  2  0  0  0  0  0  0
  193.8660  175.9930  146.5370 C   0  0  0  0  0  2  0  0  0  0  0  0
  195.2120  174.2020  144.8630 C   0  0  1  0  0  3  0  0  0  0  0  0
  187.1730  175.9870  142.3800 C   0  0  0  0  0  3  0  0  0  0  0  0
  188.1150  175.8980  143.4170 C   0  0  0  0  0  0  0  0  0  0  0  0
  186.7090  177.3660  144.8190 N   0  0  0  0  0  2  0  0  0  0  0  0
  191.4710  176.4270  145.9870 C   0  0  0  0  0  2  0  0  0  0  0  0
  189.4610  177.4370  147.8480 O   0  0  0  0  0  0  0  0  0  0  0  0
  184.0710  178.4770  145.8760 C   0  0  0  0  0  1  0  0  0  0  0  0
  189.0560  176.9030  145.5040 C   0  0  2  0  0  3  0  0  0  0  0  0
  186.5400  178.1640  145.9950 C   0  0  0  0  0  0  0  0  0  0  0  0
  196.2170  173.3720  144.2160 N   0  0  0  0  0  2  0  0  0  0  0  0
  196.9560  172.3700  144.9170 C   0  0  0  0  0  0  0  0  0  0  0  0
  196.7410  172.1490  146.1380 O   0  0  0  0  0  0  0  0  0  0  0  0
  197.9410  171.6110  144.2260 N   0  0  0  0  0  1  0  0  0  0  0  0
  1 20  1  0  0  0  0
  1 16  1  0  0  0  0
  2 24  1  6  0  0  0
  3  4  2  0  0  0  0
  3 11  1  0  0  0  0
  4 21  1  0  0  0  0
  5  6  1  0  0  0  0
  5 25  2  0  0  0  0
  6 18  1  0  0  0  0
  7 24  1  6  0  0  0
  7 19  1  0  0  0  0
  8 12  1  0  0  0  0
  9 15  1  0  0  0  0
 10 17  1  0  0  0  0
 10 20  1  0  0  0  0
 11 13  2  0  0  0  0
 12  2  1  0  0  0  0
 13 22  1  0  0  0  0
 13 12  1  0  0  0  0
 14 22  1  6  0  0  0
 14 23  1  0  0  0  0
 14 27  1  0  0  0  0
 15 18  1  0  0  0  0
 16 19  1  0  0  0  0
 17  8  1  1  0  0  0
 17  7  1  0  0  0  0
 20 29  1  6  0  0  0
 21 22  2  0  0  0  0
 23 28  1  0  0  0  0
 26  9  1  0  0  0  0
 27  2  1  0  0  0  0
 27  5  1  1  0  0  0
 28  9  1  0  0  0  0
 28  6  2  0  0  0  0
 29 30  1  0  0  0  0
 30 31  2  0  0  0  0
 32 30  1  0  0  0  0
M  END
>  <MODEL>
2

>  <REMARK>
 VINA RESULT:      -8.3      3.122      5.312
  Name = 
  1 active torsions:
  status: ('A' for Active; 'I' for Inactive)
    1  A    between atoms: C_20  and  N_29
                            x       y       z     vdW  Elec       q    Type
                         _______ _______ _______ _____ _____    ______ ____

>  <TORSDO>
F 1

$$$$
=
 OpenBabel11112416293D

 32 37  0  0  1  0  0  0  0  0999 V2000
  195.3160  175.7530  145.2300 C   0  0  0  0  0  2  0  0  0  0  0  0
  189.9550  175.7200  144.5000 C   0  0  1  0  0  3  0  0  0  0  0  0
  190.0890  173.5860  139.9910 C   0  0  0  0  0  3  0  0  0  0  0  0
  188.8530  174.1480  139.6680 C   0  0  0  0  0  3  0  0  0  0  0  0
  188.1690  177.5390  144.8210 C   0  0  0  0  0  0  0  0  0  0  0  0
  186.9280  178.1500  144.3320 C   0  0  0  0  0  0  0  0  0  0  0  0
  192.1220  175.5810  145.7610 C   0  0  1  0  0  3  0  0  0  0  0  0
  191.5830  173.8710  144.0060 C   0  0  0  0  0  2  0  0  0  0  0  0
  185.2000  178.5040  143.0060 N   0  0  0  0  0  0  0  0  0  0  0  0
  193.7840  173.7050  145.1600 C   0  0  0  0  0  2  0  0  0  0  0  0
  190.6410  173.7890  141.2570 C   0  0  0  0  0  3  0  0  0  0  0  0
  190.5350  174.7730  143.5250 N   0  0  0  0  0  0  0  0  0  0  0  0
  189.9650  174.5640  142.2150 C   0  0  0  0  0  0  0  0  0  0  0  0
  187.9780  175.9040  142.9320 C   0  0  2  0  0  3  0  0  0  0  0  0
  184.9440  179.3490  144.0480 O   0  0  0  0  0  0  0  0  0  0  0  0
  194.3400  176.8740  145.6320 C   0  0  0  0  0  2  0  0  0  0  0  0
  192.7010  174.6680  144.6640 C   0  0  2  0  0  3  0  0  0  0  0  0
  185.9860  179.0930  144.9900 C   0  0  0  0  0  2  0  0  0  0  0  0
  193.1730  176.4090  146.5130 C   0  0  0  0  0  2  0  0  0  0  0  0
  194.9800  174.3840  145.8380 C   0  0  1  0  0  3  0  0  0  0  0  0
  188.1710  174.9190  140.6110 C   0  0  0  0  0  3  0  0  0  0  0  0
  188.7290  175.1480  141.8780 C   0  0  0  0  0  0  0  0  0  0  0  0
  186.9520  176.7920  142.3650 N   0  0  0  0  0  2  0  0  0  0  0  0
  191.0840  176.5180  145.1540 C   0  0  0  0  0  2  0  0  0  0  0  0
  188.5860  177.7800  145.9850 O   0  0  0  0  0  0  0  0  0  0  0  0
  184.1170  177.9160  142.2380 C   0  0  0  0  0  1  0  0  0  0  0  0
  188.9530  176.6830  143.8400 C   0  0  2  0  0  3  0  0  0  0  0  0
  186.4160  177.8280  143.1940 C   0  0  0  0  0  0  0  0  0  0  0  0
  196.1370  173.5040  145.7630 N   0  0  0  0  0  2  0  0  0  0  0  0
  196.7180  173.0990  144.5220 C   0  0  0  0  0  0  0  0  0  0  0  0
  196.2550  173.5180  143.4290 O   0  0  0  0  0  0  0  0  0  0  0  0
  197.8340  172.2170  144.5230 N   0  0  0  0  0  1  0  0  0  0  0  0
  1 16  1  0  0  0  0
  1 20  1  0  0  0  0
  2 24  1  6  0  0  0
  3 11  1  0  0  0  0
  4  3  2  0  0  0  0
  4 21  1  0  0  0  0
  5 25  2  0  0  0  0
  6  5  1  0  0  0  0
  6 18  1  0  0  0  0
  7 24  1  6  0  0  0
  7 19  1  0  0  0  0
  9 28  1  0  0  0  0
  9 15  1  0  0  0  0
 10 20  1  0  0  0  0
 11 13  2  0  0  0  0
 12  8  1  0  0  0  0
 12  2  1  0  0  0  0
 13 12  1  0  0  0  0
 14 22  1  6  0  0  0
 14 27  1  0  0  0  0
 15 18  1  0  0  0  0
 16 19  1  0  0  0  0
 17  8  1  1  0  0  0
 17 10  1  0  0  0  0
 17  7  1  0  0  0  0
 20 29  1  6  0  0  0
 21 22  2  0  0  0  0
 22 13  1  0  0  0  0
 23 14  1  0  0  0  0
 23 28  1  0  0  0  0
 26  9  1  0  0  0  0
 27  2  1  0  0  0  0
 27  5  1  1  0  0  0
 28  6  2  0  0  0  0
 30 32  1  0  0  0  0
 30 29  1  0  0  0  0
 31 30  2  0  0  0  0
M  END
>  <MODEL>
3

>  <REMARK>
 VINA RESULT:      -8.2      2.236      5.023
  Name = 
  1 active torsions:
  status: ('A' for Active; 'I' for Inactive)
    1  A    between atoms: C_20  and  N_29
                            x       y       z     vdW  Elec       q    Type
                         _______ _______ _______ _____ _____    ______ ____

>  <TORSDO>
F 1

$$$$
=
 OpenBabel11112416293D

 32 37  0  0  1  0  0  0  0  0999 V2000
  190.2000  171.6920  140.2080 C   0  0  0  0  0  2  0  0  0  0  0  0
  188.9020  176.0660  143.1170 C   0  0  1  0  0  3  0  0  0  0  0  0
  192.2040  175.2250  146.7630 C   0  0  0  0  0  3  0  0  0  0  0  0
  191.4300  175.9640  147.6590 C   0  0  0  0  0  3  0  0  0  0  0  0
  186.6350  177.0200  143.8630 C   0  0  0  0  0  0  0  0  0  0  0  0
  185.8640  177.6880  144.9170 C   0  0  0  0  0  0  0  0  0  0  0  0
  189.2820  174.6850  141.0540 C   0  0  1  0  0  3  0  0  0  0  0  0
  191.2010  175.2010  142.5880 C   0  0  0  0  0  2  0  0  0  0  0  0
  185.4310  178.5870  146.8850 N   0  0  0  0  0  0  0  0  0  0  0  0
  191.6470  173.7640  140.6030 C   0  0  0  0  0  2  0  0  0  0  0  0
  191.8080  175.1050  145.4290 C   0  0  0  0  0  3  0  0  0  0  0  0
  190.2170  175.5950  143.5980 N   0  0  0  0  0  0  0  0  0  0  0  0
  190.6260  175.7180  144.9780 C   0  0  0  0  0  0  0  0  0  0  0  0
  188.6230  177.1620  145.3810 C   0  0  2  0  0  3  0  0  0  0  0  0
  184.2820  178.8400  146.1910 O   0  0  0  0  0  0  0  0  0  0  0  0
  188.7790  172.2420  140.4320 C   0  0  0  0  0  2  0  0  0  0  0  0
  190.6020  174.1600  141.6500 C   0  0  2  0  0  3  0  0  0  0  0  0
  184.5410  178.3630  144.8710 C   0  0  0  0  0  2  0  0  0  0  0  0
  188.6100  173.7230  140.0660 C   0  0  0  0  0  2  0  0  0  0  0  0
  191.1740  172.7090  139.5970 C   0  0  1  0  0  3  0  0  0  0  0  0
  190.2550  176.5790  147.2220 C   0  0  0  0  0  3  0  0  0  0  0  0
  189.8370  176.4440  145.8900 C   0  0  0  0  0  0  0  0  0  0  0  0
  187.6840  177.5130  146.4570 N   0  0  0  0  0  2  0  0  0  0  0  0
  188.3070  175.0150  142.1790 C   0  0  0  0  0  2  0  0  0  0  0  0
  186.1950  176.9660  142.6830 O   0  0  0  0  0  0  0  0  0  0  0  0
  185.8810  179.4800  147.9380 C   0  0  0  0  0  1  0  0  0  0  0  0
  187.9280  176.3370  144.2770 C   0  0  2  0  0  3  0  0  0  0  0  0
  186.3430  177.8620  146.1000 C   0  0  0  0  0  0  0  0  0  0  0  0
  192.3310  172.0230  139.0410 N   0  0  0  0  0  2  0  0  0  0  0  0
  192.4060  171.6250  137.6710 C   0  0  0  0  0  0  0  0  0  0  0  0
  191.4650  171.8810  136.8750 O   0  0  0  0  0  0  0  0  0  0  0  0
  193.5590  170.9360  137.2010 N   0  0  0  0  0  1  0  0  0  0  0  0
  1 16  1  0  0  0  0
  2 24  1  6  0  0  0
  2 12  1  0  0  0  0
  2 27  1  0  0  0  0
  3  4  1  0  0  0  0
  5  6  1  0  0  0  0
  6 28  2  0  0  0  0
  7 19  1  6  0  0  0
  7 17  1  0  0  0  0
  7 24  1  0  0  0  0
  8 12  1  0  0  0  0
  9 26  1  0  0  0  0
 11  3  2  0  0  0  0
 12 13  1  0  0  0  0
 13 11  1  0  0  0  0
 13 22  2  0  0  0  0
 14 22  1  1  0  0  0
 14 23  1  0  0  0  0
 15  9  1  0  0  0  0
 17 10  1  6  0  0  0
 17  8  1  0  0  0  0
 18  6  1  0  0  0  0
 18 15  1  0  0  0  0
 19 16  1  0  0  0  0
 20 29  1  1  0  0  0
 20  1  1  0  0  0  0
 20 10  1  0  0  0  0
 21  4  2  0  0  0  0
 22 21  1  0  0  0  0
 25  5  2  0  0  0  0
 27  5  1  6  0  0  0
 27 14  1  0  0  0  0
 28 23  1  0  0  0  0
 28  9  1  0  0  0  0
 30 29  1  0  0  0  0
 31 30  2  0  0  0  0
 32 30  1  0  0  0  0
M  END
>  <MODEL>
4

>  <REMARK>
 VINA RESULT:      -8.2      3.574      5.303
  Name = 
  1 active torsions:
  status: ('A' for Active; 'I' for Inactive)
    1  A    between atoms: C_20  and  N_29
                            x       y       z     vdW  Elec       q    Type
                         _______ _______ _______ _____ _____    ______ ____

>  <TORSDO>
F 1

$$$$
=
 OpenBabel11112416293D

 32 37  0  0  1  0  0  0  0  0999 V2000
  186.1060  178.5560  141.6890 C   0  0  0  0  0  2  0  0  0  0  0  0
  189.8790  175.4110  143.9570 C   0  0  1  0  0  3  0  0  0  0  0  0
  190.1450  177.9720  148.2320 C   0  0  0  0  0  3  0  0  0  0  0  0
  191.4440  177.5110  148.4480 C   0  0  0  0  0  3  0  0  0  0  0  0
  192.1080  174.4920  143.0670 C   0  0  0  0  0  0  0  0  0  0  0  0
  193.5060  174.1540  143.3540 C   0  0  0  0  0  0  0  0  0  0  0  0
  187.8830  175.9830  142.5450 C   0  0  1  0  0  3  0  0  0  0  0  0
  187.8020  176.3320  145.0290 C   0  0  0  0  0  2  0  0  0  0  0  0
  195.3800  173.9840  144.5060 N   0  0  0  0  0  0  0  0  0  0  0  0
  185.8070  176.9930  143.6910 C   0  0  0  0  0  2  0  0  0  0  0  0
  189.4270  177.5410  147.1150 C   0  0  0  0  0  3  0  0  0  0  0  0
  189.2610  176.2020  145.0400 N   0  0  0  0  0  0  0  0  0  0  0  0
  190.0040  176.6490  146.1950 C   0  0  0  0  0  0  0  0  0  0  0  0
  191.9000  175.1890  145.4640 C   0  0  2  0  0  3  0  0  0  0  0  0
  195.6950  173.3390  143.3440 O   0  0  0  0  0  0  0  0  0  0  0  0
  187.3190  177.9360  140.9710 C   0  0  0  0  0  2  0  0  0  0  0  0
  187.3330  176.8660  143.6810 C   0  0  2  0  0  3  0  0  0  0  0  0
  194.4820  173.3320  142.5910 C   0  0  0  0  0  2  0  0  0  0  0  0
  187.4410  176.4160  141.1400 C   0  0  0  0  0  2  0  0  0  0  0  0
  185.2030  177.5320  142.3900 C   0  0  1  0  0  3  0  0  0  0  0  0
  192.0280  176.6230  147.5430 C   0  0  0  0  0  3  0  0  0  0  0  0
  191.3230  176.2030  146.4050 C   0  0  0  0  0  0  0  0  0  0  0  0
  193.3680  175.1280  145.5320 N   0  0  0  0  0  2  0  0  0  0  0  0
  189.4060  175.9540  142.6070 C   0  0  0  0  0  2  0  0  0  0  0  0
  191.5420  174.0500  142.0310 O   0  0  0  0  0  0  0  0  0  0  0  0
  196.0040  173.6090  145.7630 C   0  0  0  0  0  1  0  0  0  0  0  0
  191.4160  175.4500  144.0220 C   0  0  2  0  0  3  0  0  0  0  0  0
  194.0710  174.4910  144.4610 C   0  0  0  0  0  0  0  0  0  0  0  0
  183.9020  178.1210  142.6720 N   0  0  0  0  0  2  0  0  0  0  0  0
  182.8990  178.2910  141.6700 C   0  0  0  0  0  0  0  0  0  0  0  0
  183.1000  177.9060  140.4880 O   0  0  0  0  0  0  0  0  0  0  0  0
  181.6580  178.8960  142.0130 N   0  0  0  0  0  1  0  0  0  0  0  0
  1 20  1  0  0  0  0
  2 24  1  6  0  0  0
  2 27  1  0  0  0  0
  2 12  1  0  0  0  0
  3  4  1  0  0  0  0
  5  6  1  0  0  0  0
  6 28  2  0  0  0  0
  7 19  1  6  0  0  0
  7 24  1  0  0  0  0
  7 17  1  0  0  0  0
  8 12  1  0  0  0  0
  9 26  1  0  0  0  0
 11  3  2  0  0  0  0
 12 13  1  0  0  0  0
 13 22  2  0  0  0  0
 13 11  1  0  0  0  0
 14 23  1  6  0  0  0
 14 22  1  0  0  0  0
 15  9  1  0  0  0  0
 16 19  1  0  0  0  0
 16  1  1  0  0  0  0
 17 10  1  1  0  0  0
 17  8  1  0  0  0  0
 18 15  1  0  0  0  0
 18  6  1  0  0  0  0
 20 29  1  1  0  0  0
 20 10  1  0  0  0  0
 21  4  2  0  0  0  0
 22 21  1  0  0  0  0
 25  5  2  0  0  0  0
 27  5  1  6  0  0  0
 27 14  1  0  0  0  0
 28  9  1  0  0  0  0
 28 23  1  0  0  0  0
 30 32  1  0  0  0  0
 30 29  1  0  0  0  0
 31 30  2  0  0  0  0
M  END
>  <MODEL>
5

>  <REMARK>
 VINA RESULT:      -8.1      1.852      8.715
  Name = 
  1 active torsions:
  status: ('A' for Active; 'I' for Inactive)
    1  A    between atoms: C_20  and  N_29
                            x       y       z     vdW  Elec       q    Type
                         _______ _______ _______ _____ _____    ______ ____

>  <TORSDO>
F 1

$$$$
=
 OpenBabel11112416293D

 32 37  0  0  1  0  0  0  0  0999 V2000
  187.7810  176.0500  146.8860 C   0  0  0  0  0  2  0  0  0  0  0  0
  191.8840  176.1230  143.3590 C   0  0  1  0  0  3  0  0  0  0  0  0
  189.8130  172.9260  140.1350 C   0  0  0  0  0  3  0  0  0  0  0  0
  191.0730  172.5690  139.6520 C   0  0  0  0  0  3  0  0  0  0  0  0
  194.4240  175.8980  143.6770 C   0  0  0  0  0  0  0  0  0  0  0  0
  195.6910  175.3710  143.1580 C   0  0  0  0  0  0  0  0  0  0  0  0
  190.2860  177.0260  145.0720 C   0  0  1  0  0  3  0  0  0  0  0  0
  189.4250  176.2250  142.8550 C   0  0  0  0  0  2  0  0  0  0  0  0
  197.0610  174.2620  141.8300 N   0  0  0  0  0  0  0  0  0  0  0  0
  187.7660  177.0390  144.5270 C   0  0  0  0  0  2  0  0  0  0  0  0
  189.6940  173.9090  141.1190 C   0  0  0  0  0  3  0  0  0  0  0  0
  190.7130  175.5590  142.6560 N   0  0  0  0  0  0  0  0  0  0  0  0
  190.8360  174.5410  141.6390 C   0  0  0  0  0  0  0  0  0  0  0  0
  193.3120  174.8990  141.6660 C   0  0  2  0  0  3  0  0  0  0  0  0
  197.9250  174.8840  142.6840 O   0  0  0  0  0  0  0  0  0  0  0  0
  189.2800  176.0790  147.2400 C   0  0  0  0  0  2  0  0  0  0  0  0
  189.1160  176.3390  144.3420 C   0  0  2  0  0  3  0  0  0  0  0  0
  197.0960  175.7000  143.5130 C   0  0  0  0  0  2  0  0  0  0  0  0
  190.0630  177.2210  146.5780 C   0  0  0  0  0  2  0  0  0  0  0  0
  187.3300  177.2080  145.9860 C   0  0  1  0  0  3  0  0  0  0  0  0
  192.2150  173.1900  140.1590 C   0  0  0  0  0  3  0  0  0  0  0  0
  192.1070  174.1620  141.1660 C   0  0  0  0  0  0  0  0  0  0  0  0
  194.5610  174.1580  141.4350 N   0  0  0  0  0  2  0  0  0  0  0  0
  191.5680  176.2310  144.8520 C   0  0  0  0  0  2  0  0  0  0  0  0
  194.4180  176.7910  144.5650 O   0  0  0  0  0  0  0  0  0  0  0  0
  197.4470  173.9580  140.4640 C   0  0  0  0  0  1  0  0  0  0  0  0
  193.1440  175.2640  143.1560 C   0  0  2  0  0  3  0  0  0  0  0  0
  195.7270  174.5480  142.1670 C   0  0  0  0  0  0  0  0  0  0  0  0
  185.8820  177.3500  146.0400 N   0  0  0  0  0  2  0  0  0  0  0  0
  185.2210  178.5950  145.8110 C   0  0  0  0  0  0  0  0  0  0  0  0
  185.8790  179.6290  145.5240 O   0  0  0  0  0  0  0  0  0  0  0  0
  183.8030  178.6650  145.9040 N   0  0  0  0  0  1  0  0  0  0  0  0
  1 16  1  0  0  0  0
  2 24  1  1  0  0  0
  3 11  1  0  0  0  0
  4  3  2  0  0  0  0
  4 21  1  0  0  0  0
  5 25  2  0  0  0  0
  6 18  1  0  0  0  0
  6  5  1  0  0  0  0
  7 24  1  1  0  0  0
  7 19  1  0  0  0  0
  9 28  1  0  0  0  0
  9 15  1  0  0  0  0
 10 20  1  0  0  0  0
 11 13  2  0  0  0  0
 12  8  1  0  0  0  0
 12  2  1  0  0  0  0
 13 12  1  0  0  0  0
 14 22  1  1  0  0  0
 14 27  1  0  0  0  0
 15 18  1  0  0  0  0
 17  8  1  6  0  0  0
 17 10  1  0  0  0  0
 17  7  1  0  0  0  0
 19 16  1  0  0  0  0
 20 29  1  6  0  0  0
 20  1  1  0  0  0  0
 21 22  2  0  0  0  0
 22 13  1  0  0  0  0
 23 14  1  0  0  0  0
 23 28  1  0  0  0  0
 26  9  1  0  0  0  0
 27  2  1  0  0  0  0
 27  5  1  6  0  0  0
 28  6  2  0  0  0  0
 30 32  1  0  0  0  0
 30 29  1  0  0  0  0
 31 30  2  0  0  0  0
M  END
>  <MODEL>
6

>  <REMARK>
 VINA RESULT:      -7.9      3.063      9.579
  Name = 
  1 active torsions:
  status: ('A' for Active; 'I' for Inactive)
    1  A    between atoms: C_20  and  N_29
                            x       y       z     vdW  Elec       q    Type
                         _______ _______ _______ _____ _____    ______ ____

>  <TORSDO>
F 1

$$$$
=
 OpenBabel11112416293D

 32 37  0  0  1  0  0  0  0  0999 V2000
  191.8020  170.9190  140.9120 C   0  0  0  0  0  2  0  0  0  0  0  0
  189.2340  175.4640  142.3330 C   0  0  1  0  0  3  0  0  0  0  0  0
  189.5530  174.6880  147.2520 C   0  0  0  0  0  3  0  0  0  0  0  0
  188.4340  175.4930  147.4700 C   0  0  0  0  0  3  0  0  0  0  0  0
  187.0430  176.5260  141.5110 C   0  0  0  0  0  0  0  0  0  0  0  0
  185.8250  177.2670  141.8560 C   0  0  0  0  0  0  0  0  0  0  0  0
  190.7240  173.9760  140.9640 C   0  0  1  0  0  3  0  0  0  0  0  0
  191.3220  174.5010  143.3450 C   0  0  0  0  0  2  0  0  0  0  0  0
  184.3260  178.2710  143.1270 N   0  0  0  0  0  0  0  0  0  0  0  0
  192.8140  172.9590  142.0780 C   0  0  0  0  0  2  0  0  0  0  0  0
  190.0520  174.5190  145.9590 C   0  0  0  0  0  3  0  0  0  0  0  0
  189.9490  174.9740  143.5290 N   0  0  0  0  0  0  0  0  0  0  0  0
  189.4320  175.1480  144.8670 C   0  0  0  0  0  0  0  0  0  0  0  0
  187.6860  176.6740  143.9280 C   0  0  2  0  0  3  0  0  0  0  0  0
  183.8600  178.5290  141.8690 O   0  0  0  0  0  0  0  0  0  0  0  0
  190.5750  171.5250  140.2060 C   0  0  0  0  0  2  0  0  0  0  0  0
  191.3690  173.4380  142.2550 C   0  0  2  0  0  3  0  0  0  0  0  0
  184.8480  177.9830  140.9950 C   0  0  0  0  0  2  0  0  0  0  0  0
  190.7480  172.9910  139.7880 C   0  0  0  0  0  2  0  0  0  0  0  0
  193.0000  171.8730  141.0120 C   0  0  1  0  0  3  0  0  0  0  0  0
  187.8100  176.1250  146.3930 C   0  0  0  0  0  3  0  0  0  0  0  0
  188.2900  175.9410  145.0880 C   0  0  0  0  0  0  0  0  0  0  0  0
  186.3050  177.1060  144.1930 N   0  0  0  0  0  2  0  0  0  0  0  0
  189.2830  174.3900  141.2450 C   0  0  0  0  0  2  0  0  0  0  0  0
  187.4170  176.4310  140.3120 O   0  0  0  0  0  0  0  0  0  0  0  0
  184.0830  179.1970  144.2190 C   0  0  0  0  0  1  0  0  0  0  0  0
  187.7700  175.8210  142.6440 C   0  0  2  0  0  3  0  0  0  0  0  0
  185.4860  177.4810  143.0810 C   0  0  0  0  0  0  0  0  0  0  0  0
  194.2150  171.1250  141.2970 N   0  0  0  0  0  2  0  0  0  0  0  0
  195.4650  171.4170  140.6710 C   0  0  0  0  0  0  0  0  0  0  0  0
  195.5670  172.3680  139.8520 O   0  0  0  0  0  0  0  0  0  0  0  0
  196.6080  170.6280  140.9790 N   0  0  0  0  0  1  0  0  0  0  0  0
  1 20  1  0  0  0  0
  2 24  1  6  0  0  0
  2 27  1  0  0  0  0
  2 12  1  0  0  0  0
  3  4  1  0  0  0  0
  5  6  1  0  0  0  0
  6 28  2  0  0  0  0
  7 19  1  6  0  0  0
  7 24  1  0  0  0  0
  7 17  1  0  0  0  0
  8 12  1  0  0  0  0
  9 26  1  0  0  0  0
 11  3  2  0  0  0  0
 12 13  1  0  0  0  0
 13 22  2  0  0  0  0
 13 11  1  0  0  0  0
 14 23  1  1  0  0  0
 14 22  1  0  0  0  0
 15  9  1  0  0  0  0
 16  1  1  0  0  0  0
 17 10  1  6  0  0  0
 17  8  1  0  0  0  0
 18  6  1  0  0  0  0
 18 15  1  0  0  0  0
 19 16  1  0  0  0  0
 20 29  1  1  0  0  0
 20 10  1  0  0  0  0
 21  4  2  0  0  0  0
 22 21  1  0  0  0  0
 25  5  2  0  0  0  0
 27  5  1  6  0  0  0
 27 14  1  0  0  0  0
 28  9  1  0  0  0  0
 28 23  1  0  0  0  0
 30 32  1  0  0  0  0
 30 29  1  0  0  0  0
 31 30  2  0  0  0  0
M  END
>  <MODEL>
7

>  <REMARK>
 VINA RESULT:      -7.8      2.884      3.849
  Name = 
  1 active torsions:
  status: ('A' for Active; 'I' for Inactive)
    1  A    between atoms: C_20  and  N_29
                            x       y       z     vdW  Elec       q    Type
                         _______ _______ _______ _____ _____    ______ ____

>  <TORSDO>
F 1

$$$$
=
 OpenBabel11112416293D

 32 37  0  0  1  0  0  0  0  0999 V2000
  186.4280  176.5040  146.1740 C   0  0  0  0  0  2  0  0  0  0  0  0
  191.3030  175.5370  144.0350 C   0  0  1  0  0  3  0  0  0  0  0  0
  189.7260  172.1340  140.7430 C   0  0  0  0  0  3  0  0  0  0  0  0
  190.9980  171.5600  140.7010 C   0  0  0  0  0  3  0  0  0  0  0  0
  193.5880  175.0710  145.1140 C   0  0  0  0  0  0  0  0  0  0  0  0
  194.8500  174.3240  145.0590 C   0  0  0  0  0  0  0  0  0  0  0  0
  189.4570  176.8810  145.0800 C   0  0  1  0  0  3  0  0  0  0  0  0
  189.1270  175.8450  142.8180 C   0  0  0  0  0  2  0  0  0  0  0  0
  196.3400  172.8660  144.3370 N   0  0  0  0  0  0  0  0  0  0  0  0
  187.2210  177.1010  143.8160 C   0  0  0  0  0  2  0  0  0  0  0  0
  189.4970  173.2680  141.5250 C   0  0  0  0  0  3  0  0  0  0  0  0
  190.2990  175.0100  143.0890 N   0  0  0  0  0  0  0  0  0  0  0  0
  190.5350  173.8360  142.2810 C   0  0  0  0  0  0  0  0  0  0  0  0
  192.9320  173.9020  142.9970 C   0  0  2  0  0  3  0  0  0  0  0  0
  197.0220  173.5110  145.3280 O   0  0  0  0  0  0  0  0  0  0  0  0
  187.7550  176.4130  146.9490 C   0  0  0  0  0  2  0  0  0  0  0  0
  188.4420  176.2280  144.1230 C   0  0  2  0  0  3  0  0  0  0  0  0
  196.1360  174.5380  145.7720 C   0  0  0  0  0  2  0  0  0  0  0  0
  188.8600  177.3360  146.4180 C   0  0  0  0  0  2  0  0  0  0  0  0
  186.4310  177.5500  145.0510 C   0  0  1  0  0  3  0  0  0  0  0  0
  192.0390  172.1160  141.4460 C   0  0  0  0  0  3  0  0  0  0  0  0
  191.8110  173.2410  142.2530 C   0  0  0  0  0  0  0  0  0  0  0  0
  194.0630  172.9930  143.2350 N   0  0  0  0  0  2  0  0  0  0  0  0
  190.6080  175.9170  145.3440 C   0  0  0  0  0  2  0  0  0  0  0  0
  193.4780  176.0880  145.8490 O   0  0  0  0  0  0  0  0  0  0  0  0
  197.0360  172.3060  143.1920 C   0  0  0  0  0  1  0  0  0  0  0  0
  192.4190  174.5160  144.3170 C   0  0  2  0  0  3  0  0  0  0  0  0
  195.0280  173.3560  144.2280 C   0  0  0  0  0  0  0  0  0  0  0  0
  185.0650  177.8660  144.6570 N   0  0  0  0  0  2  0  0  0  0  0  0
  184.6690  179.1710  144.2310 C   0  0  0  0  0  0  0  0  0  0  0  0
  185.5100  180.1050  144.1560 O   0  0  0  0  0  0  0  0  0  0  0  0
  183.3110  179.4140  143.8840 N   0  0  0  0  0  1  0  0  0  0  0  0
  1 16  1  0  0  0  0
  2 27  1  0  0  0  0
  2 24  1  1  0  0  0
  3 11  1  0  0  0  0
  4  3  2  0  0  0  0
  4 21  1  0  0  0  0
  5 25  2  0  0  0  0
  6  5  1  0  0  0  0
  6 18  1  0  0  0  0
  7 24  1  1  0  0  0
  7 19  1  0  0  0  0
  8 12  1  0  0  0  0
  9 15  1  0  0  0  0
 10 17  1  0  0  0  0
 10 20  1  0  0  0  0
 11 13  2  0  0  0  0
 12  2  1  0  0  0  0
 13 12  1  0  0  0  0
 14 22  1  1  0  0  0
 14 23  1  0  0  0  0
 14 27  1  0  0  0  0
 15 18  1  0  0  0  0
 17  8  1  6  0  0  0
 17  7  1  0  0  0  0
 19 16  1  0  0  0  0
 20 29  1  6  0  0  0
 20  1  1  0  0  0  0
 21 22  2  0  0  0  0
 22 13  1  0  0  0  0
 23 28  1  0  0  0  0
 26  9  1  0  0  0  0
 27  5  1  6  0  0  0
 28  9  1  0  0  0  0
 28  6  2  0  0  0  0
 30 29  1  0  0  0  0
 31 30  2  0  0  0  0
 32 30  1  0  0  0  0
M  END
>  <MODEL>
8

>  <REMARK>
 VINA RESULT:      -7.8      2.470      9.681
  Name = 
  1 active torsions:
  status: ('A' for Active; 'I' for Inactive)
    1  A    between atoms: C_20  and  N_29
                            x       y       z     vdW  Elec       q    Type
                         _______ _______ _______ _____ _____    ______ ____

>  <TORSDO>
F 1

$$$$
=
 OpenBabel11112416293D

 32 37  0  0  1  0  0  0  0  0999 V2000
  185.6390  177.0390  145.8270 C   0  0  0  0  0  2  0  0  0  0  0  0
  190.7120  176.3130  144.0900 C   0  0  1  0  0  3  0  0  0  0  0  0
  189.4790  173.5480  140.1230 C   0  0  0  0  0  3  0  0  0  0  0  0
  190.7430  172.9550  140.1200 C   0  0  0  0  0  3  0  0  0  0  0  0
  192.8610  175.6120  145.3140 C   0  0  0  0  0  0  0  0  0  0  0  0
  194.1140  174.8530  145.2690 C   0  0  0  0  0  0  0  0  0  0  0  0
  188.7730  177.5120  145.1430 C   0  0  1  0  0  3  0  0  0  0  0  0
  188.6850  176.8760  142.7160 C   0  0  0  0  0  2  0  0  0  0  0  0
  195.6630  173.4960  144.4760 N   0  0  0  0  0  0  0  0  0  0  0  0
  186.6910  177.9990  143.7020 C   0  0  0  0  0  2  0  0  0  0  0  0
  189.1740  174.5410  141.0550 C   0  0  0  0  0  3  0  0  0  0  0  0
  189.8130  175.9770  142.9670 N   0  0  0  0  0  0  0  0  0  0  0  0
  190.1280  174.9480  142.0030 C   0  0  0  0  0  0  0  0  0  0  0  0
  192.4320  174.8300  142.9720 C   0  0  2  0  0  3  0  0  0  0  0  0
  196.2370  173.9480  145.6290 O   0  0  0  0  0  0  0  0  0  0  0  0
  186.8720  176.7850  146.7130 C   0  0  0  0  0  2  0  0  0  0  0  0
  187.8630  177.0540  143.9870 C   0  0  2  0  0  3  0  0  0  0  0  0
  195.3160  174.9110  146.1420 C   0  0  0  0  0  2  0  0  0  0  0  0
  188.0360  177.7540  146.4670 C   0  0  0  0  0  2  0  0  0  0  0  0
  185.7740  178.2560  144.9030 C   0  0  1  0  0  3  0  0  0  0  0  0
  191.7000  173.3520  141.0560 C   0  0  0  0  0  3  0  0  0  0  0  0
  191.3940  174.3320  142.0120 C   0  0  0  0  0  0  0  0  0  0  0  0
  193.5220  173.8650  143.1740 N   0  0  0  0  0  2  0  0  0  0  0  0
  189.8800  176.4870  145.3620 C   0  0  0  0  0  2  0  0  0  0  0  0
  192.6780  176.4960  146.1940 O   0  0  0  0  0  0  0  0  0  0  0  0
  196.4760  173.1160  143.3340 C   0  0  0  0  0  1  0  0  0  0  0  0
  191.7810  175.2300  144.3140 C   0  0  2  0  0  3  0  0  0  0  0  0
  194.3750  174.0310  144.3110 C   0  0  0  0  0  0  0  0  0  0  0  0
  184.4630  178.6700  144.4240 N   0  0  0  0  0  2  0  0  0  0  0  0
  183.9540  178.2890  143.1450 C   0  0  0  0  0  0  0  0  0  0  0  0
  184.6250  177.5470  142.3810 O   0  0  0  0  0  0  0  0  0  0  0  0
  182.6730  178.7500  142.7320 N   0  0  0  0  0  1  0  0  0  0  0  0
  1 16  1  0  0  0  0
  2 27  1  0  0  0  0
  2 24  1  1  0  0  0
  3 11  1  0  0  0  0
  4  3  2  0  0  0  0
  4 21  1  0  0  0  0
  5 25  2  0  0  0  0
  6  5  1  0  0  0  0
  6 18  1  0  0  0  0
  7 24  1  1  0  0  0
  7 19  1  0  0  0  0
  8 12  1  0  0  0  0
  9 15  1  0  0  0  0
 10 17  1  0  0  0  0
 10 20  1  0  0  0  0
 11 13  2  0  0  0  0
 12  2  1  0  0  0  0
 13 22  1  0  0  0  0
 13 12  1  0  0  0  0
 14 22  1  6  0  0  0
 14 23  1  0  0  0  0
 14 27  1  0  0  0  0
 15 18  1  0  0  0  0
 17  8  1  6  0  0  0
 17  7  1  0  0  0  0
 19 16  1  0  0  0  0
 20 29  1  6  0  0  0
 20  1  1  0  0  0  0
 21 22  2  0  0  0  0
 23 28  1  0  0  0  0
 26  9  1  0  0  0  0
 27  5  1  1  0  0  0
 28  9  1  0  0  0  0
 28  6  2  0  0  0  0
 30 29  1  0  0  0  0
 31 30  2  0  0  0  0
 32 30  1  0  0  0  0
M  END
>  <MODEL>
9

>  <REMARK>
 VINA RESULT:      -7.6      1.856      9.360
  Name = 
  1 active torsions:
  status: ('A' for Active; 'I' for Inactive)
    1  A    between atoms: C_20  and  N_29
                            x       y       z     vdW  Elec       q    Type
                         _______ _______ _______ _____ _____    ______ ____

>  <TORSDO>
F 1

$$$$
