=
 OpenBabel11112417013D

 31 35  0  0  1  0  0  0  0  0999 V2000
  194.6620  175.8830  144.7640 C   0  0  0  0  0  0  0  0  0  0  0  0
  191.2170  176.5710  143.3120 C   0  0  2  0  0  3  0  0  0  0  0  0
  190.4500  175.3150  142.9430 C   0  0  0  0  0  0  0  0  0  0  0  0
  190.3920  172.9300  142.4750 C   0  0  0  0  0  0  0  0  0  0  0  0
  192.3280  176.3180  144.2920 C   0  0  0  0  0  0  0  0  0  0  0  0
  194.3770  175.8340  146.1330 C   0  0  0  0  0  3  0  0  0  0  0  0
  191.1000  174.0740  142.8510 C   0  0  0  0  0  3  0  0  0  0  0  0
  189.8890  177.5430  145.3580 C   0  0  1  0  0  3  0  0  0  0  0  0
  195.9640  175.6920  144.3210 O   0  0  0  0  0  1  0  0  0  0  0  0
  188.4010  176.6570  142.6540 N   0  0  0  0  0  2  0  0  0  0  0  0
  191.0880  171.6190  142.3970 C   0  0  0  0  0  1  0  0  0  0  0  0
  190.6330  176.4380  146.1270 C   0  0  0  0  0  2  0  0  0  0  0  0
  190.2860  177.6770  143.8530 C   0  0  2  0  0  3  0  0  0  0  0  0
  193.6380  176.1230  143.8430 C   0  0  0  0  0  3  0  0  0  0  0  0
  189.0320  173.0170  142.1700 C   0  0  0  0  0  3  0  0  0  0  0  0
  192.0450  176.2790  145.6650 C   0  0  0  0  0  0  0  0  0  0  0  0
  193.0670  176.0270  146.5830 C   0  0  0  0  0  3  0  0  0  0  0  0
  189.1160  177.9080  142.8910 C   0  0  0  0  0  2  0  0  0  0  0  0
  189.0840  175.4010  142.5990 C   0  0  0  0  0  0  0  0  0  0  0  0
  188.3800  174.2510  142.2320 C   0  0  0  0  0  3  0  0  0  0  0  0
  188.4110  178.2120  147.7210 O   0  0  0  0  0  0  0  0  0  0  0  0
  187.7760  177.7070  146.7570 C   0  0  0  0  0  0  0  0  0  0  0  0
  188.4520  177.3780  145.5400 N   0  0  0  0  0  2  0  0  0  0  0  0
  184.7490  178.2030  144.5140 C   0  0  1  0  0  3  0  0  0  0  0  0
  185.8080  176.4020  145.8990 C   0  0  0  0  0  2  0  0  0  0  0  0
  185.9470  179.6970  147.7180 O   0  0  0  0  0  1  0  0  0  0  0  0
  184.6180  178.7660  143.1150 C   0  0  0  0  0  1  0  0  0  0  0  0
  185.6730  176.9900  144.4940 C   0  0  0  0  0  2  0  0  0  0  0  0
  185.4400  178.7180  146.8610 C   0  0  2  0  0  3  0  0  0  0  0  0
  186.3050  177.4460  146.9050 C   0  0  2  0  0  3  0  0  0  0  0  0
  185.3090  179.2730  145.4440 C   0  0  0  0  0  2  0  0  0  0  0  0
  1  6  1  0  0  0  0
  2  3  1  1  0  0  0
  2 13  1  0  0  0  0
  2  5  1  0  0  0  0
  4  7  2  0  0  0  0
  5 16  2  0  0  0  0
  6 17  2  0  0  0  0
  7  3  1  0  0  0  0
  8 23  1  6  0  0  0
  8 12  1  0  0  0  0
  9  1  1  0  0  0  0
 10 18  1  0  0  0  0
 11  4  1  0  0  0  0
 13 18  1  6  0  0  0
 13  8  1  0  0  0  0
 14  5  1  0  0  0  0
 14  1  2  0  0  0  0
 15 20  2  0  0  0  0
 15  4  1  0  0  0  0
 16 12  1  0  0  0  0
 16 17  1  0  0  0  0
 19 10  1  0  0  0  0
 19  3  2  0  0  0  0
 20 19  1  0  0  0  0
 22 21  2  0  0  0  0
 23 22  1  0  0  0  0
 24 27  1  6  0  0  0
 24 31  1  0  0  0  0
 25 30  1  0  0  0  0
 28 24  1  0  0  0  0
 28 25  1  0  0  0  0
 29 30  1  0  0  0  0
 29 26  1  1  0  0  0
 30 22  1  6  0  0  0
 31 29  1  0  0  0  0
M  END
>  <MODEL>
1

>  <REMARK>
 VINA RESULT:      -9.1      0.000      0.000
  Name = 
  2 active torsions:
  status: ('A' for Active; 'I' for Inactive)
    1  A    between atoms: C_5  and  C_30
    2  A    between atoms: C_10  and  N_16
                            x       y       z     vdW  Elec       q    Type
                         _______ _______ _______ _____ _____    ______ ____

>  <TORSDO>
F 2

$$$$
=
 OpenBabel11112417013D

 31 35  0  0  1  0  0  0  0  0999 V2000
  185.8350  178.1490  140.6200 C   0  0  0  0  0  0  0  0  0  0  0  0
  188.5300  178.2200  143.3010 C   0  0  2  0  0  3  0  0  0  0  0  0
  188.0880  177.6210  144.6240 C   0  0  0  0  0  0  0  0  0  0  0  0
  186.3310  176.8670  146.1260 C   0  0  0  0  0  0  0  0  0  0  0  0
  187.6810  177.7780  142.1410 C   0  0  0  0  0  0  0  0  0  0  0  0
  186.1080  176.9290  139.9900 C   0  0  0  0  0  3  0  0  0  0  0  0
  186.7300  177.3840  144.8910 C   0  0  0  0  0  3  0  0  0  0  0  0
  190.3130  176.5150  142.4010 C   0  0  1  0  0  3  0  0  0  0  0  0
  184.7830  178.9370  140.1760 O   0  0  0  0  0  1  0  0  0  0  0  0
  190.4270  177.6400  145.4070 N   0  0  0  0  0  2  0  0  0  0  0  0
  184.8920  176.6060  146.3900 C   0  0  0  0  0  1  0  0  0  0  0  0
  189.0660  175.6980  142.0200 C   0  0  0  0  0  2  0  0  0  0  0  0
  190.0160  177.9250  143.0030 C   0  0  2  0  0  3  0  0  0  0  0  0
  186.6200  178.5730  141.6970 C   0  0  0  0  0  3  0  0  0  0  0  0
  187.2820  176.5980  147.1120 C   0  0  0  0  0  3  0  0  0  0  0  0
  187.9610  176.5610  141.5030 C   0  0  0  0  0  0  0  0  0  0  0  0
  187.1680  176.1340  140.4340 C   0  0  0  0  0  3  0  0  0  0  0  0
  190.8880  178.3180  144.2000 C   0  0  0  0  0  2  0  0  0  0  0  0
  189.0390  177.3800  145.6380 C   0  0  0  0  0  0  0  0  0  0  0  0
  188.6340  176.8550  146.8680 C   0  0  0  0  0  3  0  0  0  0  0  0
  193.1040  176.0110  141.9880 O   0  0  0  0  0  0  0  0  0  0  0  0
  192.5550  175.4770  142.9890 C   0  0  0  0  0  0  0  0  0  0  0  0
  191.1710  175.7130  143.2650 N   0  0  0  0  0  2  0  0  0  0  0  0
  192.6350  174.8170  146.7300 C   0  0  1  0  0  3  0  0  0  0  0  0
  192.4970  173.5350  144.5810 C   0  0  0  0  0  2  0  0  0  0  0  0
  194.9710  176.3560  144.2600 O   0  0  0  0  0  1  0  0  0  0  0  0
  191.8280  175.4020  147.8700 C   0  0  0  0  0  1  0  0  0  0  0  0
  191.6980  174.1410  145.7350 C   0  0  0  0  0  2  0  0  0  0  0  0
  194.2440  175.3450  144.8910 C   0  0  2  0  0  3  0  0  0  0  0  0
  193.3670  174.5840  143.8810 C   0  0  2  0  0  3  0  0  0  0  0  0
  193.4220  175.9250  146.0400 C   0  0  0  0  0  2  0  0  0  0  0  0
  1 14  1  0  0  0  0
  2  5  1  6  0  0  0
  2  3  1  0  0  0  0
  3  7  2  0  0  0  0
  3 19  1  0  0  0  0
  4 11  1  0  0  0  0
  4 15  2  0  0  0  0
  6 17  1  0  0  0  0
  6  1  2  0  0  0  0
  7  4  1  0  0  0  0
  8 13  1  0  0  0  0
  8 23  1  1  0  0  0
  9  1  1  0  0  0  0
 10 19  1  0  0  0  0
 12  8  1  0  0  0  0
 13  2  1  0  0  0  0
 13 18  1  1  0  0  0
 14  5  2  0  0  0  0
 16 12  1  0  0  0  0
 16  5  1  0  0  0  0
 17 16  2  0  0  0  0
 18 10  1  0  0  0  0
 19 20  2  0  0  0  0
 20 15  1  0  0  0  0
 21 22  2  0  0  0  0
 22 23  1  0  0  0  0
 24 27  1  1  0  0  0
 25 28  1  0  0  0  0
 28 24  1  0  0  0  0
 29 26  1  6  0  0  0
 29 31  1  0  0  0  0
 30 22  1  1  0  0  0
 30 25  1  0  0  0  0
 30 29  1  0  0  0  0
 31 24  1  0  0  0  0
M  END
>  <MODEL>
2

>  <REMARK>
 VINA RESULT:      -8.4      2.599      7.166
  Name = 
  2 active torsions:
  status: ('A' for Active; 'I' for Inactive)
    1  A    between atoms: C_5  and  C_30
    2  A    between atoms: C_10  and  N_16
                            x       y       z     vdW  Elec       q    Type
                         _______ _______ _______ _____ _____    ______ ____

>  <TORSDO>
F 2

$$$$
=
 OpenBabel11112417013D

 31 35  0  0  1  0  0  0  0  0999 V2000
  192.5210  170.5520  143.0020 C   0  0  0  0  0  0  0  0  0  0  0  0
  191.1290  173.1990  145.3490 C   0  0  2  0  0  3  0  0  0  0  0  0
  192.1280  174.2850  145.7030 C   0  0  0  0  0  0  0  0  0  0  0  0
  194.4140  175.1070  145.8070 C   0  0  0  0  0  0  0  0  0  0  0  0
  191.4910  172.4490  144.0980 C   0  0  0  0  0  0  0  0  0  0  0  0
  192.1670  171.0790  141.7550 C   0  0  0  0  0  3  0  0  0  0  0  0
  193.4980  174.1170  145.4430 C   0  0  0  0  0  3  0  0  0  0  0  0
  189.3510  174.4370  143.8640 C   0  0  1  0  0  3  0  0  0  0  0  0
  193.2090  169.3480  143.0750 O   0  0  0  0  0  1  0  0  0  0  0  0
  190.3100  175.6280  146.6890 N   0  0  0  0  0  2  0  0  0  0  0  0
  195.8590  174.9250  145.5130 C   0  0  0  0  0  1  0  0  0  0  0  0
  190.4300  174.2910  142.7780 C   0  0  0  0  0  2  0  0  0  0  0  0
  189.6930  173.7540  145.2270 C   0  0  2  0  0  3  0  0  0  0  0  0
  192.1850  171.2380  144.1730 C   0  0  0  0  0  3  0  0  0  0  0  0
  193.9730  176.2670  146.4490 C   0  0  0  0  0  3  0  0  0  0  0  0
  191.1270  172.9710  142.8480 C   0  0  0  0  0  0  0  0  0  0  0  0
  191.4740  172.2900  141.6770 C   0  0  0  0  0  3  0  0  0  0  0  0
  189.3290  174.5700  146.4720 C   0  0  0  0  0  2  0  0  0  0  0  0
  191.6960  175.4430  146.3840 C   0  0  0  0  0  0  0  0  0  0  0  0
  192.6160  176.4340  146.7370 C   0  0  0  0  0  3  0  0  0  0  0  0
  186.9180  175.6780  142.9960 O   0  0  0  0  0  0  0  0  0  0  0  0
  187.7860  176.4110  143.5410 C   0  0  0  0  0  0  0  0  0  0  0  0
  189.0090  175.8470  144.0220 N   0  0  0  0  0  2  0  0  0  0  0  0
  184.7960  178.6520  142.8520 C   0  0  1  0  0  3  0  0  0  0  0  0
  186.4250  178.1770  144.6970 C   0  0  0  0  0  2  0  0  0  0  0  0
  188.2000  178.2470  141.3760 O   0  0  0  0  0  1  0  0  0  0  0  0
  183.4120  178.3440  142.3210 C   0  0  0  0  0  1  0  0  0  0  0  0
  185.0340  177.8700  144.1400 C   0  0  0  0  0  2  0  0  0  0  0  0
  187.2410  178.5860  142.3320 C   0  0  2  0  0  3  0  0  0  0  0  0
  187.5250  177.8840  143.6710 C   0  0  2  0  0  3  0  0  0  0  0  0
  185.8400  178.2740  141.8080 C   0  0  0  0  0  2  0  0  0  0  0  0
  1  9  1  0  0  0  0
  1 14  1  0  0  0  0
  2  5  1  6  0  0  0
  2  3  1  0  0  0  0
  3 19  1  0  0  0  0
  4 15  2  0  0  0  0
  5 14  2  0  0  0  0
  6  1  2  0  0  0  0
  7  3  2  0  0  0  0
  7  4  1  0  0  0  0
  8 23  1  1  0  0  0
  8 13  1  0  0  0  0
 11  4  1  0  0  0  0
 12 16  1  0  0  0  0
 12  8  1  0  0  0  0
 13  2  1  0  0  0  0
 13 18  1  1  0  0  0
 15 20  1  0  0  0  0
 16  5  1  0  0  0  0
 17  6  1  0  0  0  0
 17 16  2  0  0  0  0
 18 10  1  0  0  0  0
 19 10  1  0  0  0  0
 19 20  2  0  0  0  0
 21 22  2  0  0  0  0
 22 23  1  0  0  0  0
 24 27  1  6  0  0  0
 24 28  1  0  0  0  0
 28 25  1  0  0  0  0
 29 26  1  6  0  0  0
 29 30  1  0  0  0  0
 30 22  1  6  0  0  0
 30 25  1  0  0  0  0
 31 29  1  0  0  0  0
 31 24  1  0  0  0  0
M  END
>  <MODEL>
3

>  <REMARK>
 VINA RESULT:      -8.3      2.610      4.801
  Name = 
  2 active torsions:
  status: ('A' for Active; 'I' for Inactive)
    1  A    between atoms: C_5  and  C_30
    2  A    between atoms: C_10  and  N_16
                            x       y       z     vdW  Elec       q    Type
                         _______ _______ _______ _____ _____    ______ ____

>  <TORSDO>
F 2

$$$$
=
 OpenBabel11112417013D

 31 35  0  0  1  0  0  0  0  0999 V2000
  187.2390  176.7610  140.2620 C   0  0  0  0  0  0  0  0  0  0  0  0
  189.4480  177.4780  143.2710 C   0  0  2  0  0  3  0  0  0  0  0  0
  188.7520  177.2640  144.6020 C   0  0  0  0  0  0  0  0  0  0  0  0
  186.7210  176.9800  145.9080 C   0  0  0  0  0  0  0  0  0  0  0  0
  188.7750  176.7640  142.1320 C   0  0  0  0  0  0  0  0  0  0  0  0
  187.5260  175.4120  140.0270 C   0  0  0  0  0  3  0  0  0  0  0  0
  187.3550  177.1390  144.6740 C   0  0  0  0  0  3  0  0  0  0  0  0
  191.2310  175.5520  143.1750 C   0  0  1  0  0  3  0  0  0  0  0  0
  186.3330  177.4280  139.4480 O   0  0  0  0  0  1  0  0  0  0  0  0
  190.9230  177.4340  145.7590 N   0  0  0  0  0  2  0  0  0  0  0  0
  185.2430  176.8330  145.9690 C   0  0  0  0  0  1  0  0  0  0  0  0
  190.0100  174.6940  142.8010 C   0  0  0  0  0  2  0  0  0  0  0  0
  190.9390  177.0780  143.3300 C   0  0  2  0  0  3  0  0  0  0  0  0
  187.8620  177.4370  141.3150 C   0  0  0  0  0  3  0  0  0  0  0  0
  187.4730  176.9600  147.0840 C   0  0  0  0  0  3  0  0  0  0  0  0
  189.0710  175.4150  141.8900 C   0  0  0  0  0  0  0  0  0  0  0  0
  188.4380  174.7370  140.8430 C   0  0  0  0  0  3  0  0  0  0  0  0
  191.6260  177.7550  144.5210 C   0  0  0  0  0  2  0  0  0  0  0  0
  189.5010  177.2790  145.7980 C   0  0  0  0  0  0  0  0  0  0  0  0
  188.8610  177.1100  147.0290 C   0  0  0  0  0  3  0  0  0  0  0  0
  193.9410  174.6310  143.3270 O   0  0  0  0  0  0  0  0  0  0  0  0
  193.2270  174.5220  144.3600 C   0  0  0  0  0  0  0  0  0  0  0  0
  191.8750  174.9890  144.3560 N   0  0  0  0  0  2  0  0  0  0  0  0
  196.6000  172.9990  145.2220 C   0  0  1  0  0  3  0  0  0  0  0  0
  194.9930  174.6910  146.1380 C   0  0  0  0  0  2  0  0  0  0  0  0
  193.1250  171.6940  144.8300 O   0  0  0  0  0  1  0  0  0  0  0  0
  197.8560  172.8110  144.3990 C   0  0  0  0  0  1  0  0  0  0  0  0
  196.2560  174.4820  145.3000 C   0  0  0  0  0  2  0  0  0  0  0  0
  194.1780  172.4040  145.4090 C   0  0  2  0  0  3  0  0  0  0  0  0
  193.8100  173.8870  145.5890 C   0  0  2  0  0  3  0  0  0  0  0  0
  195.4510  172.2270  144.5830 C   0  0  0  0  0  2  0  0  0  0  0  0
  1 14  1  0  0  0  0
  2  5  1  6  0  0  0
  2 13  1  0  0  0  0
  2  3  1  0  0  0  0
  3  7  2  0  0  0  0
  3 19  1  0  0  0  0
  4 11  1  0  0  0  0
  4 15  2  0  0  0  0
  6  1  2  0  0  0  0
  6 17  1  0  0  0  0
  7  4  1  0  0  0  0
  8 13  1  0  0  0  0
  8 23  1  1  0  0  0
  9  1  1  0  0  0  0
 10 19  1  0  0  0  0
 12  8  1  0  0  0  0
 13 18  1  1  0  0  0
 14  5  2  0  0  0  0
 16  5  1  0  0  0  0
 16 12  1  0  0  0  0
 17 16  2  0  0  0  0
 18 10  1  0  0  0  0
 19 20  2  0  0  0  0
 20 15  1  0  0  0  0
 21 22  2  0  0  0  0
 23 22  1  0  0  0  0
 24 27  1  6  0  0  0
 24 28  1  0  0  0  0
 28 25  1  0  0  0  0
 29 26  1  6  0  0  0
 29 30  1  0  0  0  0
 30 22  1  6  0  0  0
 30 25  1  0  0  0  0
 31 24  1  0  0  0  0
 31 29  1  0  0  0  0
M  END
>  <MODEL>
4

>  <REMARK>
 VINA RESULT:      -8.0      2.810      7.816
  Name = 
  2 active torsions:
  status: ('A' for Active; 'I' for Inactive)
    1  A    between atoms: C_5  and  C_30
    2  A    between atoms: C_10  and  N_16
                            x       y       z     vdW  Elec       q    Type
                         _______ _______ _______ _____ _____    ______ ____

>  <TORSDO>
F 2

$$$$
=
 OpenBabel11112417013D

 31 35  0  0  1  0  0  0  0  0999 V2000
  193.1880  170.6370  141.7420 C   0  0  0  0  0  0  0  0  0  0  0  0
  191.6150  172.7440  144.4870 C   0  0  2  0  0  3  0  0  0  0  0  0
  192.5300  173.8320  145.0180 C   0  0  0  0  0  0  0  0  0  0  0  0
  194.7450  174.8050  145.2640 C   0  0  0  0  0  0  0  0  0  0  0  0
  192.0230  172.2400  143.1310 C   0  0  0  0  0  0  0  0  0  0  0  0
  192.7820  171.3310  140.5970 C   0  0  0  0  0  3  0  0  0  0  0  0
  193.9050  173.8190  144.7390 C   0  0  0  0  0  3  0  0  0  0  0  0
  189.7310  174.0650  143.2210 C   0  0  1  0  0  3  0  0  0  0  0  0
  193.9690  169.4950  141.6190 O   0  0  0  0  0  1  0  0  0  0  0  0
  190.6210  174.8480  146.2060 N   0  0  0  0  0  2  0  0  0  0  0  0
  196.1960  174.7880  144.9480 C   0  0  0  0  0  1  0  0  0  0  0  0
  190.8080  174.1850  142.1290 C   0  0  0  0  0  2  0  0  0  0  0  0
  190.1390  173.1960  144.4530 C   0  0  2  0  0  3  0  0  0  0  0  0
  192.8110  171.0920  143.0090 C   0  0  0  0  0  3  0  0  0  0  0  0
  194.2200  175.8050  146.0860 C   0  0  0  0  0  3  0  0  0  0  0  0
  191.6070  172.9300  141.9830 C   0  0  0  0  0  0  0  0  0  0  0  0
  191.9950  172.4800  140.7170 C   0  0  0  0  0  3  0  0  0  0  0  0
  189.7250  173.7650  145.8150 C   0  0  0  0  0  2  0  0  0  0  0  0
  192.0140  174.8250  145.8790 C   0  0  0  0  0  0  0  0  0  0  0  0
  192.8570  175.8140  146.3930 C   0  0  0  0  0  3  0  0  0  0  0  0
  187.2890  175.3130  142.3920 O   0  0  0  0  0  0  0  0  0  0  0  0
  188.0610  175.9750  143.1350 C   0  0  0  0  0  0  0  0  0  0  0  0
  189.2810  175.3970  143.6060 N   0  0  0  0  0  2  0  0  0  0  0  0
  186.4690  177.5730  146.1940 C   0  0  1  0  0  3  0  0  0  0  0  0
  188.4820  177.8710  144.7290 C   0  0  0  0  0  2  0  0  0  0  0  0
  185.4550  177.0650  142.6380 O   0  0  0  0  0  1  0  0  0  0  0  0
  185.9670  176.9770  147.4910 C   0  0  0  0  0  1  0  0  0  0  0  0
  187.9540  177.2660  146.0310 C   0  0  0  0  0  2  0  0  0  0  0  0
  186.1770  177.5920  143.7100 C   0  0  2  0  0  3  0  0  0  0  0  0
  187.6890  177.3800  143.5130 C   0  0  2  0  0  3  0  0  0  0  0  0
  185.6820  176.9910  145.0250 C   0  0  0  0  0  2  0  0  0  0  0  0
  1 14  1  0  0  0  0
  2  5  1  6  0  0  0
  2  3  1  0  0  0  0
  3 19  1  0  0  0  0
  4 15  2  0  0  0  0
  6 17  1  0  0  0  0
  6  1  2  0  0  0  0
  7  3  2  0  0  0  0
  7  4  1  0  0  0  0
  8 23  1  1  0  0  0
  8 13  1  0  0  0  0
  9  1  1  0  0  0  0
 11  4  1  0  0  0  0
 12  8  1  0  0  0  0
 13  2  1  0  0  0  0
 13 18  1  1  0  0  0
 14  5  2  0  0  0  0
 15 20  1  0  0  0  0
 16 12  1  0  0  0  0
 16  5  1  0  0  0  0
 17 16  2  0  0  0  0
 18 10  1  0  0  0  0
 19 10  1  0  0  0  0
 19 20  2  0  0  0  0
 21 22  2  0  0  0  0
 22 23  1  0  0  0  0
 24 27  1  1  0  0  0
 25 28  1  0  0  0  0
 28 24  1  0  0  0  0
 29 26  1  6  0  0  0
 29 31  1  0  0  0  0
 30 22  1  1  0  0  0
 30 29  1  0  0  0  0
 30 25  1  0  0  0  0
 31 24  1  0  0  0  0
M  END
>  <MODEL>
5

>  <REMARK>
 VINA RESULT:      -7.8      2.588      4.954
  Name = 
  2 active torsions:
  status: ('A' for Active; 'I' for Inactive)
    1  A    between atoms: C_5  and  C_30
    2  A    between atoms: C_10  and  N_16
                            x       y       z     vdW  Elec       q    Type
                         _______ _______ _______ _____ _____    ______ ____

>  <TORSDO>
F 2

$$$$
=
 OpenBabel11112417013D

 31 35  0  0  1  0  0  0  0  0999 V2000
  190.1940  170.7970  139.3700 C   0  0  0  0  0  0  0  0  0  0  0  0
  190.5920  173.1010  142.3670 C   0  0  2  0  0  3  0  0  0  0  0  0
  191.7250  174.1010  142.2200 C   0  0  0  0  0  0  0  0  0  0  0  0
  193.7610  174.8480  141.1210 C   0  0  0  0  0  0  0  0  0  0  0  0
  190.1310  172.5350  141.0530 C   0  0  0  0  0  0  0  0  0  0  0  0
  189.2680  171.5090  138.5980 C   0  0  0  0  0  3  0  0  0  0  0  0
  192.7020  173.9430  141.2240 C   0  0  0  0  0  3  0  0  0  0  0  0
  188.4270  174.5840  142.2730 C   0  0  1  0  0  3  0  0  0  0  0  0
  190.6840  169.5800  138.9150 O   0  0  0  0  0  1  0  0  0  0  0  0
  190.8920  175.3250  144.1920 N   0  0  0  0  0  2  0  0  0  0  0  0
  194.7800  174.6780  140.0530 C   0  0  0  0  0  1  0  0  0  0  0  0
  188.7110  174.5740  140.7610 C   0  0  0  0  0  2  0  0  0  0  0  0
  189.3900  173.7000  143.1280 C   0  0  2  0  0  3  0  0  0  0  0  0
  190.6270  171.3110  140.5950 C   0  0  0  0  0  3  0  0  0  0  0  0
  193.8640  175.9100  142.0210 C   0  0  0  0  0  3  0  0  0  0  0  0
  189.1950  173.2430  140.2850 C   0  0  0  0  0  0  0  0  0  0  0  0
  188.7720  172.7340  139.0540 C   0  0  0  0  0  3  0  0  0  0  0  0
  189.8540  174.3320  144.4450 C   0  0  0  0  0  2  0  0  0  0  0  0
  191.8560  175.1560  143.1480 C   0  0  0  0  0  0  0  0  0  0  0  0
  192.9130  176.0630  143.0340 C   0  0  0  0  0  3  0  0  0  0  0  0
  186.0490  176.0120  142.9920 O   0  0  0  0  0  0  0  0  0  0  0  0
  187.1460  176.6280  143.0650 C   0  0  0  0  0  0  0  0  0  0  0  0
  188.3700  175.9620  142.7470 N   0  0  0  0  0  2  0  0  0  0  0  0
  185.1720  178.6740  145.5860 C   0  0  1  0  0  3  0  0  0  0  0  0
  187.5570  178.2380  144.9490 C   0  0  0  0  0  2  0  0  0  0  0  0
  185.4250  178.5830  141.8640 O   0  0  0  0  0  1  0  0  0  0  0  0
  184.0620  178.2910  146.5410 C   0  0  0  0  0  1  0  0  0  0  0  0
  186.4210  177.8560  145.8980 C   0  0  0  0  0  2  0  0  0  0  0  0
  185.8340  178.8090  143.1790 C   0  0  2  0  0  3  0  0  0  0  0  0
  187.1500  178.0710  143.4810 C   0  0  2  0  0  3  0  0  0  0  0  0
  184.7230  178.4190  144.1520 C   0  0  0  0  0  2  0  0  0  0  0  0
  1 14  1  0  0  0  0
  2  5  1  6  0  0  0
  2 13  1  0  0  0  0
  3  2  1  0  0  0  0
  3 19  1  0  0  0  0
  4  7  1  0  0  0  0
  4 15  2  0  0  0  0
  6 17  1  0  0  0  0
  6  1  2  0  0  0  0
  7  3  2  0  0  0  0
  8 23  1  1  0  0  0
  8 13  1  0  0  0  0
  9  1  1  0  0  0  0
 10 18  1  0  0  0  0
 11  4  1  0  0  0  0
 12  8  1  0  0  0  0
 13 18  1  1  0  0  0
 14  5  2  0  0  0  0
 15 20  1  0  0  0  0
 16 12  1  0  0  0  0
 16  5  1  0  0  0  0
 17 16  2  0  0  0  0
 19 10  1  0  0  0  0
 20 19  2  0  0  0  0
 21 22  2  0  0  0  0
 23 22  1  0  0  0  0
 24 28  1  0  0  0  0
 24 27  1  1  0  0  0
 25 28  1  0  0  0  0
 29 26  1  6  0  0  0
 29 30  1  0  0  0  0
 29 31  1  0  0  0  0
 30 22  1  1  0  0  0
 30 25  1  0  0  0  0
 31 24  1  0  0  0  0
M  END
>  <MODEL>
6

>  <REMARK>
 VINA RESULT:      -7.8      3.024      5.250
  Name = 
  2 active torsions:
  status: ('A' for Active; 'I' for Inactive)
    1  A    between atoms: C_5  and  C_30
    2  A    between atoms: C_10  and  N_16
                            x       y       z     vdW  Elec       q    Type
                         _______ _______ _______ _____ _____    ______ ____

>  <TORSDO>
F 2

$$$$
=
 OpenBabel11112417013D

 31 35  0  0  1  0  0  0  0  0999 V2000
  186.2970  177.3670  142.3840 C   0  0  0  0  0  0  0  0  0  0  0  0
  188.8170  174.7970  143.6070 C   0  0  2  0  0  3  0  0  0  0  0  0
  189.2600  173.8200  142.5350 C   0  0  0  0  0  0  0  0  0  0  0  0
  188.9430  172.7710  140.3640 C   0  0  0  0  0  0  0  0  0  0  0  0
  188.2230  176.0590  143.0470 C   0  0  0  0  0  0  0  0  0  0  0  0
  187.1410  178.4110  141.9890 C   0  0  0  0  0  3  0  0  0  0  0  0
  188.5490  173.7000  141.3300 C   0  0  0  0  0  3  0  0  0  0  0  0
  190.9630  176.2390  144.0720 C   0  0  1  0  0  3  0  0  0  0  0  0
  184.9220  177.5000  142.2490 O   0  0  0  0  0  1  0  0  0  0  0  0
  191.0720  173.0300  144.0090 N   0  0  0  0  0  2  0  0  0  0  0  0
  188.1910  172.6660  139.0860 C   0  0  0  0  0  1  0  0  0  0  0  0
  190.5490  176.9380  142.7660 C   0  0  0  0  0  2  0  0  0  0  0  0
  189.9660  175.1470  144.5780 C   0  0  2  0  0  3  0  0  0  0  0  0
  186.8380  176.1900  142.9110 C   0  0  0  0  0  3  0  0  0  0  0  0
  190.0410  171.9410  140.5990 C   0  0  0  0  0  3  0  0  0  0  0  0
  189.0680  177.1100  142.6620 C   0  0  0  0  0  0  0  0  0  0  0  0
  188.5270  178.2810  142.1240 C   0  0  0  0  0  3  0  0  0  0  0  0
  190.6200  173.8690  145.1140 C   0  0  0  0  0  2  0  0  0  0  0  0
  190.3460  172.9520  142.7790 C   0  0  0  0  0  0  0  0  0  0  0  0
  190.7400  172.0310  141.8050 C   0  0  0  0  0  3  0  0  0  0  0  0
  193.3390  177.5340  145.0150 O   0  0  0  0  0  0  0  0  0  0  0  0
  193.4720  176.4380  144.4080 C   0  0  0  0  0  0  0  0  0  0  0  0
  192.3230  175.7280  143.9380 N   0  0  0  0  0  2  0  0  0  0  0  0
  194.8640  173.0030  143.5690 C   0  0  1  0  0  3  0  0  0  0  0  0
  195.0220  175.3660  142.7470 C   0  0  0  0  0  2  0  0  0  0  0  0
  195.0480  175.2910  146.5130 O   0  0  0  0  0  1  0  0  0  0  0  0
  194.1830  171.6680  143.3580 C   0  0  0  0  0  1  0  0  0  0  0  0
  194.3360  174.0130  142.5560 C   0  0  0  0  0  2  0  0  0  0  0  0
  195.2860  174.8400  145.2130 C   0  0  2  0  0  3  0  0  0  0  0  0
  194.8510  175.8910  144.1770 C   0  0  2  0  0  3  0  0  0  0  0  0
  194.5970  173.4950  144.9870 C   0  0  0  0  0  2  0  0  0  0  0  0
  1 14  1  0  0  0  0
  2  3  1  6  0  0  0
  2 13  1  0  0  0  0
  3 19  1  0  0  0  0
  4 15  2  0  0  0  0
  4  7  1  0  0  0  0
  5  2  1  0  0  0  0
  6 17  1  0  0  0  0
  6  1  2  0  0  0  0
  7  3  2  0  0  0  0
  8 23  1  6  0  0  0
  8 13  1  0  0  0  0
  9  1  1  0  0  0  0
 10 18  1  0  0  0  0
 11  4  1  0  0  0  0
 12  8  1  0  0  0  0
 13 18  1  6  0  0  0
 14  5  2  0  0  0  0
 15 20  1  0  0  0  0
 16 12  1  0  0  0  0
 16  5  1  0  0  0  0
 17 16  2  0  0  0  0
 19 10  1  0  0  0  0
 20 19  2  0  0  0  0
 22 21  2  0  0  0  0
 23 22  1  0  0  0  0
 24 27  1  6  0  0  0
 24 31  1  0  0  0  0
 25 30  1  0  0  0  0
 28 25  1  0  0  0  0
 28 24  1  0  0  0  0
 29 26  1  1  0  0  0
 30 22  1  1  0  0  0
 30 29  1  0  0  0  0
 31 29  1  0  0  0  0
M  END
>  <MODEL>
7

>  <REMARK>
 VINA RESULT:      -7.7      2.804      7.008
  Name = 
  2 active torsions:
  status: ('A' for Active; 'I' for Inactive)
    1  A    between atoms: C_5  and  C_30
    2  A    between atoms: C_10  and  N_16
                            x       y       z     vdW  Elec       q    Type
                         _______ _______ _______ _____ _____    ______ ____

>  <TORSDO>
F 2

$$$$
=
 OpenBabel11112417013D

 31 35  0  0  1  0  0  0  0  0999 V2000
  186.1990  177.3960  142.3430 C   0  0  0  0  0  0  0  0  0  0  0  0
  188.6020  174.8100  143.7520 C   0  0  2  0  0  3  0  0  0  0  0  0
  189.1120  173.8250  142.7170 C   0  0  0  0  0  0  0  0  0  0  0  0
  188.9420  172.7700  140.5330 C   0  0  0  0  0  0  0  0  0  0  0  0
  188.0600  176.0740  143.1470 C   0  0  0  0  0  0  0  0  0  0  0  0
  187.0780  178.4310  142.0060 C   0  0  0  0  0  3  0  0  0  0  0  0
  188.4880  173.7060  141.4650 C   0  0  0  0  0  3  0  0  0  0  0  0
  190.7210  176.2350  144.3640 C   0  0  1  0  0  3  0  0  0  0  0  0
  184.8380  177.5400  142.1090 O   0  0  0  0  0  1  0  0  0  0  0  0
  190.8060  173.0250  144.3210 N   0  0  0  0  0  2  0  0  0  0  0  0
  188.2830  172.6660  139.2050 C   0  0  0  0  0  1  0  0  0  0  0  0
  190.4080  176.9320  143.0290 C   0  0  0  0  0  2  0  0  0  0  0  0
  189.6820  175.1540  144.8010 C   0  0  2  0  0  3  0  0  0  0  0  0
  186.6900  176.2170  142.9110 C   0  0  0  0  0  3  0  0  0  0  0  0
  190.0130  171.9310  140.8480 C   0  0  0  0  0  3  0  0  0  0  0  0
  188.9400  177.1170  142.8190 C   0  0  0  0  0  0  0  0  0  0  0  0
  188.4490  178.2900  142.2400 C   0  0  0  0  0  3  0  0  0  0  0  0
  190.2840  173.8730  145.3880 C   0  0  0  0  0  2  0  0  0  0  0  0
  190.1700  172.9490  143.0420 C   0  0  0  0  0  0  0  0  0  0  0  0
  190.6250  172.0200  142.1010 C   0  0  0  0  0  3  0  0  0  0  0  0
  192.7660  176.7580  146.3040 O   0  0  0  0  0  0  0  0  0  0  0  0
  193.0660  176.0330  145.3170 C   0  0  0  0  0  0  0  0  0  0  0  0
  192.0830  175.7130  144.3300 N   0  0  0  0  0  2  0  0  0  0  0  0
  195.0810  174.4870  142.4910 C   0  0  1  0  0  3  0  0  0  0  0  0
  195.2820  176.3340  144.1740 C   0  0  0  0  0  2  0  0  0  0  0  0
  193.7490  173.2830  145.7630 O   0  0  0  0  0  1  0  0  0  0  0  0
  194.7130  174.1590  141.0590 C   0  0  0  0  0  1  0  0  0  0  0  0
  194.9050  175.9830  142.7340 C   0  0  0  0  0  2  0  0  0  0  0  0
  194.5580  174.0130  144.8890 C   0  0  2  0  0  3  0  0  0  0  0  0
  194.4710  175.5200  145.1870 C   0  0  2  0  0  3  0  0  0  0  0  0
  194.1910  173.6940  143.4410 C   0  0  0  0  0  2  0  0  0  0  0  0
  1 14  1  0  0  0  0
  2  3  1  6  0  0  0
  2 13  1  0  0  0  0
  3 19  1  0  0  0  0
  4 15  2  0  0  0  0
  4  7  1  0  0  0  0
  5  2  1  0  0  0  0
  6 17  1  0  0  0  0
  6  1  2  0  0  0  0
  7  3  2  0  0  0  0
  8 23  1  6  0  0  0
  8 13  1  0  0  0  0
  9  1  1  0  0  0  0
 10 18  1  0  0  0  0
 11  4  1  0  0  0  0
 12  8  1  0  0  0  0
 13 18  1  6  0  0  0
 14  5  2  0  0  0  0
 15 20  1  0  0  0  0
 16 12  1  0  0  0  0
 16  5  1  0  0  0  0
 17 16  2  0  0  0  0
 19 10  1  0  0  0  0
 20 19  2  0  0  0  0
 22 21  2  0  0  0  0
 23 22  1  0  0  0  0
 24 27  1  6  0  0  0
 24 28  1  0  0  0  0
 24 31  1  0  0  0  0
 25 30  1  0  0  0  0
 28 25  1  0  0  0  0
 29 30  1  0  0  0  0
 29 26  1  1  0  0  0
 30 22  1  6  0  0  0
 31 29  1  0  0  0  0
M  END
>  <MODEL>
8

>  <REMARK>
 VINA RESULT:      -7.6      2.720      6.880
  Name = 
  2 active torsions:
  status: ('A' for Active; 'I' for Inactive)
    1  A    between atoms: C_5  and  C_30
    2  A    between atoms: C_10  and  N_16
                            x       y       z     vdW  Elec       q    Type
                         _______ _______ _______ _____ _____    ______ ____

>  <TORSDO>
F 2

$$$$
=
 OpenBabel11112417013D

 31 35  0  0  1  0  0  0  0  0999 V2000
  195.4920  175.1750  144.7060 C   0  0  0  0  0  0  0  0  0  0  0  0
  192.0040  175.1820  143.1930 C   0  0  2  0  0  3  0  0  0  0  0  0
  191.4080  173.7960  143.0320 C   0  0  0  0  0  0  0  0  0  0  0  0
  191.6600  171.3790  142.9430 C   0  0  0  0  0  0  0  0  0  0  0  0
  193.1270  175.2280  144.1910 C   0  0  0  0  0  0  0  0  0  0  0  0
  195.1990  175.3030  146.0680 C   0  0  0  0  0  3  0  0  0  0  0  0
  192.2110  172.6490  143.1300 C   0  0  0  0  0  3  0  0  0  0  0  0
  190.5400  176.2840  145.0740 C   0  0  1  0  0  3  0  0  0  0  0  0
  196.8120  175.0840  144.2870 O   0  0  0  0  0  1  0  0  0  0  0  0
  189.2080  174.8040  142.5540 N   0  0  0  0  0  2  0  0  0  0  0  0
  192.5180  170.1720  143.0650 C   0  0  0  0  0  1  0  0  0  0  0  0
  191.4090  175.4160  146.0000 C   0  0  0  0  0  2  0  0  0  0  0  0
  190.9330  176.2310  143.5630 C   0  0  2  0  0  3  0  0  0  0  0  0
  194.4560  175.1350  143.7670 C   0  0  0  0  0  3  0  0  0  0  0  0
  190.3030  171.2430  142.6400 C   0  0  0  0  0  3  0  0  0  0  0  0
  192.8350  175.3680  145.5560 C   0  0  0  0  0  0  0  0  0  0  0  0
  193.8710  175.3960  146.4940 C   0  0  0  0  0  3  0  0  0  0  0  0
  189.7540  176.1570  142.5870 C   0  0  0  0  0  2  0  0  0  0  0  0
  190.0460  173.6520  142.6900 C   0  0  0  0  0  0  0  0  0  0  0  0
  189.4980  172.3780  142.5140 C   0  0  0  0  0  3  0  0  0  0  0  0
  188.4100  178.1860  145.3110 O   0  0  0  0  0  0  0  0  0  0  0  0
  188.1190  176.9660  145.4280 C   0  0  0  0  0  0  0  0  0  0  0  0
  189.1330  175.9660  145.2920 N   0  0  0  0  0  2  0  0  0  0  0  0
  184.7300  178.5300  144.7190 C   0  0  1  0  0  3  0  0  0  0  0  0
  185.9000  176.3310  144.4380 C   0  0  0  0  0  2  0  0  0  0  0  0
  186.7380  177.8350  147.7870 O   0  0  0  0  0  1  0  0  0  0  0  0
  184.3450  179.8190  144.0240 C   0  0  0  0  0  1  0  0  0  0  0  0
  185.5110  177.6440  143.7550 C   0  0  0  0  0  2  0  0  0  0  0  0
  185.9670  177.5510  146.6590 C   0  0  2  0  0  3  0  0  0  0  0  0
  186.7000  176.5750  145.7220 C   0  0  2  0  0  3  0  0  0  0  0  0
  185.5780  178.8450  145.9460 C   0  0  0  0  0  2  0  0  0  0  0  0
  1  6  1  0  0  0  0
  2  3  1  1  0  0  0
  2 13  1  0  0  0  0
  2  5  1  0  0  0  0
  3  7  1  0  0  0  0
  4 11  1  0  0  0  0
  4  7  2  0  0  0  0
  5 16  2  0  0  0  0
  6 17  2  0  0  0  0
  8 23  1  6  0  0  0
  8 12  1  0  0  0  0
  9  1  1  0  0  0  0
 10 18  1  0  0  0  0
 10 19  1  0  0  0  0
 13 18  1  6  0  0  0
 13  8  1  0  0  0  0
 14  5  1  0  0  0  0
 14  1  2  0  0  0  0
 15  4  1  0  0  0  0
 16 12  1  0  0  0  0
 16 17  1  0  0  0  0
 19  3  2  0  0  0  0
 20 15  2  0  0  0  0
 20 19  1  0  0  0  0
 21 22  2  0  0  0  0
 23 22  1  0  0  0  0
 24 27  1  6  0  0  0
 24 31  1  0  0  0  0
 25 30  1  0  0  0  0
 28 25  1  0  0  0  0
 28 24  1  0  0  0  0
 29 26  1  1  0  0  0
 30 22  1  6  0  0  0
 30 29  1  0  0  0  0
 31 29  1  0  0  0  0
M  END
>  <MODEL>
9

>  <REMARK>
 VINA RESULT:      -7.6      1.238      1.603
  Name = 
  2 active torsions:
  status: ('A' for Active; 'I' for Inactive)
    1  A    between atoms: C_5  and  C_30
    2  A    between atoms: C_10  and  N_16
                            x       y       z     vdW  Elec       q    Type
                         _______ _______ _______ _____ _____    ______ ____

>  <TORSDO>
F 2

$$$$
