=
 OpenBabel11112416253D

 30 35  0  0  1  0  0  0  0  0999 V2000
  187.2880  178.0860  143.8990 C   0  0  0  0  0  0  0  0  0  0  0  0
  185.2370  178.7440  145.0820 C   0  0  0  0  0  0  0  0  0  0  0  0
  188.9490  176.5670  147.4700 N   0  0  0  0  0  0  0  0  0  0  0  0
  188.7210  177.5660  143.8540 C   0  0  0  0  0  0  0  0  0  0  0  0
  186.7410  178.3990  142.5490 C   0  0  0  0  0  2  0  0  0  0  0  0
  187.9640  175.2600  141.0870 O   0  0  0  0  0  0  0  0  0  0  0  0
  191.4420  176.6320  143.3520 C   0  0  1  0  0  3  0  0  0  0  0  0
  187.8790  176.2820  141.8210 C   0  0  0  0  0  0  0  0  0  0  0  0
  191.3570  176.1520  144.7200 N   0  0  0  0  0  0  0  0  0  0  0  0
  190.0880  176.1460  147.0100 C   0  0  2  0  0  3  0  0  0  0  0  0
  186.6080  177.0970  141.7690 C   0  0  2  0  0  3  0  0  0  0  0  0
  188.9490  176.6120  142.7460 N   0  0  0  0  0  0  0  0  0  0  0  0
  184.5190  178.8210  146.2770 C   0  0  0  0  0  3  0  0  0  0  0  0
  192.5830  175.5390  145.1830 C   0  0  0  0  0  2  0  0  0  0  0  0
  192.7970  176.1690  142.8370 C   0  0  0  0  0  2  0  0  0  0  0  0
  184.6260  179.2510  143.9400 O   0  0  0  0  0  1  0  0  0  0  0  0
  188.2810  177.1160  146.3360 C   0  0  0  0  0  0  0  0  0  0  0  0
  185.0590  178.3500  147.4680 C   0  0  0  0  0  3  0  0  0  0  0  0
  186.5480  178.1820  145.0570 C   0  0  0  0  0  0  0  0  0  0  0  0
  189.0980  176.9760  145.1720 C   0  0  0  0  0  0  0  0  0  0  0  0
  191.1060  175.5000  147.8820 C   0  0  0  0  0  1  0  0  0  0  0  0
  190.2230  176.4040  145.5640 C   0  0  0  0  0  0  0  0  0  0  0  0
  193.5870  175.7180  144.0590 C   0  0  0  0  0  2  0  0  0  0  0  0
  190.5050  175.2160  141.6610 O   0  0  0  0  0  0  0  0  0  0  0  0
  186.3300  177.7880  147.4790 C   0  0  0  0  0  3  0  0  0  0  0  0
  187.0780  177.6940  146.3000 C   0  0  0  0  0  0  0  0  0  0  0  0
  190.2910  176.1100  142.5270 C   0  0  0  0  0  0  0  0  0  0  0  0
  186.2200  177.3990  140.3270 C   0  0  0  0  0  2  0  0  0  0  0  0
  183.8830  177.8540  140.1290 O   0  0  0  0  0  1  0  0  0  0  0  0
  185.1320  178.4600  140.2620 C   0  0  0  0  0  2  0  0  0  0  0  0
  1 19  1  0  0  0  0
  2 13  1  0  0  0  0
  4  1  2  0  0  0  0
  4 20  1  0  0  0  0
  5  1  1  0  0  0  0
  6  8  2  0  0  0  0
  7 15  1  6  0  0  0
  7  9  1  0  0  0  0
  8 12  1  0  0  0  0
  9 14  1  0  0  0  0
  9 22  1  0  0  0  0
 10  3  1  0  0  0  0
 10 21  1  1  0  0  0
 11 28  1  6  0  0  0
 11  8  1  0  0  0  0
 11  5  1  0  0  0  0
 12  4  1  0  0  0  0
 13 18  2  0  0  0  0
 15 23  1  0  0  0  0
 16  2  1  0  0  0  0
 17  3  2  0  0  0  0
 18 25  1  0  0  0  0
 19  2  2  0  0  0  0
 19 26  1  0  0  0  0
 20 22  2  0  0  0  0
 20 17  1  0  0  0  0
 22 10  1  0  0  0  0
 23 14  1  0  0  0  0
 24 27  2  0  0  0  0
 26 17  1  0  0  0  0
 26 25  2  0  0  0  0
 27 12  1  0  0  0  0
 27  7  1  0  0  0  0
 29 30  1  0  0  0  0
 30 28  1  0  0  0  0
M  END
>  <MODEL>
1

>  <REMARK>
 VINA RESULT:      -9.1      0.000      0.000
  Name = 
  2 active torsions:
  status: ('A' for Active; 'I' for Inactive)
    1  A    between atoms: C_11  and  C_28
    2  A    between atoms: C_28  and  C_30
                            x       y       z     vdW  Elec       q    Type
                         _______ _______ _______ _____ _____    ______ ____

>  <TORSDO>
F 2

$$$$
=
 OpenBabel11112416253D

 30 35  0  0  1  0  0  0  0  0999 V2000
  187.5650  176.4330  144.7820 C   0  0  0  0  0  0  0  0  0  0  0  0
  186.4070  178.2930  145.8930 C   0  0  0  0  0  0  0  0  0  0  0  0
  186.3290  177.8300  140.9950 N   0  0  0  0  0  0  0  0  0  0  0  0
  187.9160  175.5890  143.5620 C   0  0  0  0  0  0  0  0  0  0  0  0
  188.2280  175.9570  146.0290 C   0  0  0  0  0  2  0  0  0  0  0  0
  191.4990  175.5770  144.4030 O   0  0  0  0  0  0  0  0  0  0  0  0
  188.8090  173.7330  141.4910 C   0  0  1  0  0  3  0  0  0  0  0  0
  190.2500  175.6160  144.5800 C   0  0  0  0  0  0  0  0  0  0  0  0
  188.2970  174.7470  140.5880 N   0  0  0  0  0  0  0  0  0  0  0  0
  186.8870  176.9280  140.2450 C   0  0  0  0  0  0  0  0  0  0  0  0
  189.7300  176.1660  145.8870 C   0  0  2  0  0  3  0  0  0  0  0  0
  189.3470  175.2130  143.5180 N   0  0  0  0  0  0  0  0  0  0  0  0
  185.6130  179.4390  145.7930 C   0  0  0  0  0  3  0  0  0  0  0  0
  188.4000  174.3710  139.1940 C   0  0  0  0  0  2  0  0  0  0  0  0
  189.4250  172.6630  140.6010 C   0  0  0  0  0  2  0  0  0  0  0  0
  186.7890  177.8960  147.1700 O   0  0  0  0  0  1  0  0  0  0  0  0
  186.6780  177.4590  142.3270 C   0  0  2  0  0  3  0  0  0  0  0  0
  185.1750  179.9000  144.5570 C   0  0  0  0  0  3  0  0  0  0  0  0
  186.7830  177.5660  144.7250 C   0  0  0  0  0  0  0  0  0  0  0  0
  187.4940  176.2870  142.3110 C   0  0  0  0  0  0  0  0  0  0  0  0
  186.7640  176.9400  138.7620 C   0  0  0  0  0  1  0  0  0  0  0  0
  187.6180  175.9270  141.0460 C   0  0  0  0  0  0  0  0  0  0  0  0
  188.9380  172.9510  139.1870 C   0  0  0  0  0  2  0  0  0  0  0  0
  191.0300  174.0720  142.3290 O   0  0  0  0  0  0  0  0  0  0  0  0
  185.5300  179.2200  143.3980 C   0  0  0  0  0  3  0  0  0  0  0  0
  186.3240  178.0690  143.4610 C   0  0  0  0  0  0  0  0  0  0  0  0
  189.8010  174.3300  142.4610 C   0  0  0  0  0  0  0  0  0  0  0  0
  190.4510  175.5290  147.0670 C   0  0  0  0  0  2  0  0  0  0  0  0
  192.5300  176.6800  147.3130 O   0  0  0  0  0  1  0  0  0  0  0  0
  191.2470  176.5630  147.8480 C   0  0  0  0  0  2  0  0  0  0  0  0
  1  5  1  0  0  0  0
  2 16  1  0  0  0  0
  4  1  2  0  0  0  0
  6  8  2  0  0  0  0
  7 15  1  6  0  0  0
  7 27  1  0  0  0  0
  8 11  1  0  0  0  0
  9 22  1  0  0  0  0
  9  7  1  0  0  0  0
 10  3  2  0  0  0  0
 10 22  1  0  0  0  0
 11  5  1  0  0  0  0
 11 28  1  1  0  0  0
 12  4  1  0  0  0  0
 12  8  1  0  0  0  0
 13  2  1  0  0  0  0
 14  9  1  0  0  0  0
 17  3  1  1  0  0  0
 17 26  1  0  0  0  0
 18 13  2  0  0  0  0
 19  1  1  0  0  0  0
 19  2  2  0  0  0  0
 20 17  1  0  0  0  0
 20  4  1  0  0  0  0
 21 10  1  0  0  0  0
 22 20  2  0  0  0  0
 23 14  1  0  0  0  0
 23 15  1  0  0  0  0
 24 27  2  0  0  0  0
 25 26  2  0  0  0  0
 25 18  1  0  0  0  0
 26 19  1  0  0  0  0
 27 12  1  0  0  0  0
 28 30  1  0  0  0  0
 29 30  1  0  0  0  0
M  END
>  <MODEL>
2

>  <REMARK>
 VINA RESULT:      -8.5      2.446      5.499
  Name = 
  2 active torsions:
  status: ('A' for Active; 'I' for Inactive)
    1  A    between atoms: C_11  and  C_28
    2  A    between atoms: C_28  and  C_30
                            x       y       z     vdW  Elec       q    Type
                         _______ _______ _______ _____ _____    ______ ____

>  <TORSDO>
F 2

$$$$
=
 OpenBabel11112416253D

 30 35  0  0  1  0  0  0  0  0999 V2000
  188.3960  176.2810  143.6460 C   0  0  0  0  0  0  0  0  0  0  0  0
  186.0940  177.0890  143.9440 C   0  0  0  0  0  0  0  0  0  0  0  0
  189.4300  177.5730  147.5300 N   0  0  0  0  0  0  0  0  0  0  0  0
  189.8500  176.1380  144.0810 C   0  0  0  0  0  0  0  0  0  0  0  0
  188.1080  175.6060  142.3490 C   0  0  0  0  0  2  0  0  0  0  0  0
  189.8940  172.5410  143.3000 O   0  0  0  0  0  0  0  0  0  0  0  0
  192.6930  175.6590  144.5510 C   0  0  1  0  0  3  0  0  0  0  0  0
  189.5650  173.7570  143.2220 C   0  0  0  0  0  0  0  0  0  0  0  0
  192.3760  176.0870  145.9010 N   0  0  0  0  0  0  0  0  0  0  0  0
  190.6730  177.1990  147.5510 C   0  0  2  0  0  3  0  0  0  0  0  0
  188.2610  174.1030  142.5440 C   0  0  2  0  0  3  0  0  0  0  0  0
  190.3880  174.7800  143.8410 N   0  0  0  0  0  0  0  0  0  0  0  0
  185.1430  177.7200  144.7490 C   0  0  0  0  0  3  0  0  0  0  0  0
  193.5350  176.1350  146.7670 C   0  0  0  0  0  2  0  0  0  0  0  0
  194.1620  175.2620  144.5780 C   0  0  0  0  0  2  0  0  0  0  0  0
  185.6830  176.6760  142.6810 O   0  0  0  0  0  1  0  0  0  0  0  0
  188.9590  177.1860  146.2400 C   0  0  0  0  0  0  0  0  0  0  0  0
  185.4710  178.1750  146.0210 C   0  0  0  0  0  3  0  0  0  0  0  0
  187.4290  176.9000  144.4090 C   0  0  0  0  0  0  0  0  0  0  0  0
  190.0050  176.5450  145.5090 C   0  0  0  0  0  0  0  0  0  0  0  0
  191.5490  177.4240  148.7330 C   0  0  0  0  0  1  0  0  0  0  0  0
  191.0750  176.5610  146.2830 C   0  0  0  0  0  0  0  0  0  0  0  0
  194.7250  175.8020  145.8860 C   0  0  0  0  0  2  0  0  0  0  0  0
  192.2580  173.3590  144.0290 O   0  0  0  0  0  0  0  0  0  0  0  0
  186.7610  178.0010  146.5080 C   0  0  0  0  0  3  0  0  0  0  0  0
  187.7390  177.3720  145.7300 C   0  0  0  0  0  0  0  0  0  0  0  0
  191.7880  174.5280  144.1210 C   0  0  0  0  0  0  0  0  0  0  0  0
  188.1480  173.3960  141.2000 C   0  0  0  0  0  2  0  0  0  0  0  0
  188.2860  174.3720  139.0230 O   0  0  0  0  0  1  0  0  0  0  0  0
  189.0360  174.0560  140.1560 C   0  0  0  0  0  2  0  0  0  0  0  0
  1  4  2  0  0  0  0
  1 19  1  0  0  0  0
  2 19  2  0  0  0  0
  2 13  1  0  0  0  0
  3 10  1  0  0  0  0
  4 20  1  0  0  0  0
  5 11  1  0  0  0  0
  5  1  1  0  0  0  0
  7 15  1  1  0  0  0
  7  9  1  0  0  0  0
  8  6  2  0  0  0  0
  8 12  1  0  0  0  0
  9 22  1  0  0  0  0
  9 14  1  0  0  0  0
 10 21  1  6  0  0  0
 11 28  1  6  0  0  0
 11  8  1  0  0  0  0
 12  4  1  0  0  0  0
 12 27  1  0  0  0  0
 13 18  2  0  0  0  0
 15 23  1  0  0  0  0
 16  2  1  0  0  0  0
 17  3  2  0  0  0  0
 18 25  1  0  0  0  0
 19 26  1  0  0  0  0
 20 17  1  0  0  0  0
 20 22  2  0  0  0  0
 22 10  1  0  0  0  0
 23 14  1  0  0  0  0
 24 27  2  0  0  0  0
 26 17  1  0  0  0  0
 26 25  2  0  0  0  0
 27  7  1  0  0  0  0
 29 30  1  0  0  0  0
 30 28  1  0  0  0  0
M  END
>  <MODEL>
3

>  <REMARK>
 VINA RESULT:      -8.2      1.930      2.752
  Name = 
  2 active torsions:
  status: ('A' for Active; 'I' for Inactive)
    1  A    between atoms: C_11  and  C_28
    2  A    between atoms: C_28  and  C_30
                            x       y       z     vdW  Elec       q    Type
                         _______ _______ _______ _____ _____    ______ ____

>  <TORSDO>
F 2

$$$$
=
 OpenBabel11112416253D

 30 35  0  0  1  0  0  0  0  0999 V2000
  188.7240  176.0990  145.8270 C   0  0  0  0  0  0  0  0  0  0  0  0
  187.0490  177.8660  146.1610 C   0  0  0  0  0  0  0  0  0  0  0  0
  187.6730  175.7700  141.7520 N   0  0  0  0  0  0  0  0  0  0  0  0
  189.4010  175.0100  145.0020 C   0  0  0  0  0  0  0  0  0  0  0  0
  189.3210  176.2570  147.1830 C   0  0  0  0  0  2  0  0  0  0  0  0
  192.7660  176.1950  145.9110 O   0  0  0  0  0  0  0  0  0  0  0  0
  190.9350  172.8560  143.7630 C   0  0  1  0  0  3  0  0  0  0  0  0
  191.5280  175.9730  146.0210 C   0  0  0  0  0  0  0  0  0  0  0  0
  190.3200  173.3390  142.5400 N   0  0  0  0  0  0  0  0  0  0  0  0
  188.5070  174.8410  141.3940 C   0  0  0  0  0  0  0  0  0  0  0  0
  190.7420  176.7810  147.0260 C   0  0  2  0  0  3  0  0  0  0  0  0
  190.8750  175.0180  145.1430 N   0  0  0  0  0  0  0  0  0  0  0  0
  186.0360  178.6680  145.6310 C   0  0  0  0  0  3  0  0  0  0  0  0
  190.6740  172.5530  141.3780 C   0  0  0  0  0  2  0  0  0  0  0  0
  191.8800  171.7420  143.3360 C   0  0  0  0  0  2  0  0  0  0  0  0
  187.3540  178.0350  147.5070 O   0  0  0  0  0  1  0  0  0  0  0  0
  187.9320  175.9730  143.1390 C   0  0  2  0  0  3  0  0  0  0  0  0
  185.6570  178.5560  144.2980 C   0  0  0  0  0  3  0  0  0  0  0  0
  187.7180  176.9070  145.3430 C   0  0  0  0  0  0  0  0  0  0  0  0
  188.9870  175.1130  143.5710 C   0  0  0  0  0  0  0  0  0  0  0  0
  188.5640  174.3190  140.0010 C   0  0  0  0  0  1  0  0  0  0  0  0
  189.3420  174.3910  142.5230 C   0  0  0  0  0  0  0  0  0  0  0  0
  191.5150  171.4010  141.8970 C   0  0  0  0  0  2  0  0  0  0  0  0
  192.9040  174.0110  144.4980 O   0  0  0  0  0  0  0  0  0  0  0  0
  186.2940  177.6380  143.4710 C   0  0  0  0  0  3  0  0  0  0  0  0
  187.3150  176.8190  143.9680 C   0  0  0  0  0  0  0  0  0  0  0  0
  191.6410  173.9770  144.4880 C   0  0  0  0  0  0  0  0  0  0  0  0
  191.4410  176.7850  148.3790 C   0  0  0  0  0  2  0  0  0  0  0  0
  191.5660  177.9380  150.4680 O   0  0  0  0  0  1  0  0  0  0  0  0
  191.1530  178.0690  149.1420 C   0  0  0  0  0  2  0  0  0  0  0  0
  1  5  1  0  0  0  0
  2 16  1  0  0  0  0
  4 12  1  0  0  0  0
  4  1  2  0  0  0  0
  6  8  2  0  0  0  0
  7 15  1  6  0  0  0
  7 27  1  0  0  0  0
  8 11  1  0  0  0  0
  9  7  1  0  0  0  0
 10  3  2  0  0  0  0
 10 22  1  0  0  0  0
 11  5  1  0  0  0  0
 11 28  1  1  0  0  0
 12  8  1  0  0  0  0
 13  2  1  0  0  0  0
 14 23  1  0  0  0  0
 14  9  1  0  0  0  0
 17  3  1  1  0  0  0
 17 20  1  0  0  0  0
 17 26  1  0  0  0  0
 18 13  2  0  0  0  0
 19  1  1  0  0  0  0
 19  2  2  0  0  0  0
 20  4  1  0  0  0  0
 21 10  1  0  0  0  0
 22  9  1  0  0  0  0
 22 20  2  0  0  0  0
 23 15  1  0  0  0  0
 25 26  2  0  0  0  0
 25 18  1  0  0  0  0
 26 19  1  0  0  0  0
 27 24  2  0  0  0  0
 27 12  1  0  0  0  0
 28 30  1  0  0  0  0
 30 29  1  0  0  0  0
M  END
>  <MODEL>
4

>  <REMARK>
 VINA RESULT:      -7.8      3.059      5.558
  Name = 
  2 active torsions:
  status: ('A' for Active; 'I' for Inactive)
    1  A    between atoms: C_11  and  C_28
    2  A    between atoms: C_28  and  C_30
                            x       y       z     vdW  Elec       q    Type
                         _______ _______ _______ _____ _____    ______ ____

>  <TORSDO>
F 2

$$$$
=
 OpenBabel11112416253D

 30 35  0  0  1  0  0  0  0  0999 V2000
  187.8500  176.5060  145.5750 C   0  0  0  0  0  0  0  0  0  0  0  0
  186.3360  178.1860  146.5360 C   0  0  0  0  0  0  0  0  0  0  0  0
  186.4320  177.3420  141.6880 N   0  0  0  0  0  0  0  0  0  0  0  0
  188.3780  175.6540  144.4250 C   0  0  0  0  0  0  0  0  0  0  0  0
  188.5720  176.2630  146.8560 C   0  0  0  0  0  2  0  0  0  0  0  0
  191.8820  176.4010  145.2710 O   0  0  0  0  0  0  0  0  0  0  0  0
  189.6470  173.8540  142.5080 C   0  0  1  0  0  3  0  0  0  0  0  0
  190.6460  176.2110  145.4430 C   0  0  0  0  0  0  0  0  0  0  0  0
  188.9630  174.6780  141.5270 N   0  0  0  0  0  0  0  0  0  0  0  0
  187.1660  176.5110  141.0130 C   0  0  0  0  0  0  0  0  0  0  0  0
  190.0070  176.7480  146.7010 C   0  0  2  0  0  3  0  0  0  0  0  0
  189.8550  175.5600  144.4130 N   0  0  0  0  0  0  0  0  0  0  0  0
  185.3390  179.1440  146.3450 C   0  0  0  0  0  3  0  0  0  0  0  0
  189.1610  174.2220  140.1670 C   0  0  0  0  0  2  0  0  0  0  0  0
  190.4720  172.8580  141.7050 C   0  0  0  0  0  2  0  0  0  0  0  0
  186.7670  177.9690  147.8400 O   0  0  0  0  0  1  0  0  0  0  0  0
  186.8230  177.1500  143.0460 C   0  0  2  0  0  3  0  0  0  0  0  0
  184.8400  179.4160  145.0760 C   0  0  0  0  0  3  0  0  0  0  0  0
  186.8650  177.4580  145.4290 C   0  0  0  0  0  0  0  0  0  0  0  0
  187.8500  176.1600  143.1230 C   0  0  0  0  0  0  0  0  0  0  0  0
  187.0670  176.3860  139.5330 C   0  0  0  0  0  1  0  0  0  0  0  0
  188.0630  175.7350  141.8910 C   0  0  0  0  0  0  0  0  0  0  0  0
  189.9630  172.9380  140.2730 C   0  0  0  0  0  2  0  0  0  0  0  0
  191.7460  174.6800  143.3200 O   0  0  0  0  0  0  0  0  0  0  0  0
  185.3390  178.7310  143.9740 C   0  0  0  0  0  3  0  0  0  0  0  0
  186.3390  177.7650  144.1280 C   0  0  0  0  0  0  0  0  0  0  0  0
  190.4880  174.7040  143.4300 C   0  0  0  0  0  0  0  0  0  0  0  0
  190.8180  176.3550  147.9280 C   0  0  0  0  0  2  0  0  0  0  0  0
  191.5660  177.5300  149.8690 O   0  0  0  0  0  1  0  0  0  0  0  0
  191.5980  177.5410  148.4750 C   0  0  0  0  0  2  0  0  0  0  0  0
  1  5  1  0  0  0  0
  2 16  1  0  0  0  0
  4  1  2  0  0  0  0
  6  8  2  0  0  0  0
  7 15  1  6  0  0  0
  7 27  1  0  0  0  0
  8 11  1  0  0  0  0
  9 22  1  0  0  0  0
  9  7  1  0  0  0  0
 10  3  2  0  0  0  0
 10 22  1  0  0  0  0
 11  5  1  0  0  0  0
 11 28  1  1  0  0  0
 12  4  1  0  0  0  0
 12  8  1  0  0  0  0
 13  2  1  0  0  0  0
 14 23  1  0  0  0  0
 14  9  1  0  0  0  0
 17  3  1  1  0  0  0
 17 20  1  0  0  0  0
 17 26  1  0  0  0  0
 18 13  2  0  0  0  0
 19  1  1  0  0  0  0
 19  2  2  0  0  0  0
 20  4  1  0  0  0  0
 21 10  1  0  0  0  0
 22 20  2  0  0  0  0
 23 15  1  0  0  0  0
 24 27  2  0  0  0  0
 25 26  2  0  0  0  0
 25 18  1  0  0  0  0
 26 19  1  0  0  0  0
 27 12  1  0  0  0  0
 28 30  1  0  0  0  0
 30 29  1  0  0  0  0
M  END
>  <MODEL>
5

>  <REMARK>
 VINA RESULT:      -7.8      2.579      5.377
  Name = 
  2 active torsions:
  status: ('A' for Active; 'I' for Inactive)
    1  A    between atoms: C_11  and  C_28
    2  A    between atoms: C_28  and  C_30
                            x       y       z     vdW  Elec       q    Type
                         _______ _______ _______ _____ _____    ______ ____

>  <TORSDO>
F 2

$$$$
=
 OpenBabel11112416253D

 30 35  0  0  1  0  0  0  0  0999 V2000
  189.3680  176.9330  145.5530 C   0  0  0  0  0  0  0  0  0  0  0  0
  191.1720  176.1150  147.0060 C   0  0  0  0  0  0  0  0  0  0  0  0
  190.6610  174.4280  142.4110 N   0  0  0  0  0  0  0  0  0  0  0  0
  188.6500  177.0440  144.2120 C   0  0  0  0  0  0  0  0  0  0  0  0
  188.6960  177.7050  146.6370 C   0  0  0  0  0  2  0  0  0  0  0  0
  185.3560  176.4630  145.7480 O   0  0  0  0  0  0  0  0  0  0  0  0
  187.0110  177.5160  141.8410 C   0  0  1  0  0  3  0  0  0  0  0  0
  186.5560  176.8380  145.6490 C   0  0  0  0  0  0  0  0  0  0  0  0
  187.7520  176.3890  141.3030 N   0  0  0  0  0  0  0  0  0  0  0  0
  189.7710  174.7360  141.5170 C   0  0  0  0  0  0  0  0  0  0  0  0
  187.3430  177.0630  146.9180 C   0  0  2  0  0  3  0  0  0  0  0  0
  187.1780  176.9690  144.3430 N   0  0  0  0  0  0  0  0  0  0  0  0
  192.2900  175.2950  147.1780 C   0  0  0  0  0  3  0  0  0  0  0  0
  187.4060  176.0870  139.9310 C   0  0  0  0  0  2  0  0  0  0  0  0
  185.9990  177.8930  140.7690 C   0  0  0  0  0  2  0  0  0  0  0  0
  190.7920  176.9050  148.0860 O   0  0  0  0  0  1  0  0  0  0  0  0
  190.3270  175.2280  143.5440 C   0  0  2  0  0  3  0  0  0  0  0  0
  192.7470  174.4820  146.1470 C   0  0  0  0  0  3  0  0  0  0  0  0
  190.4750  176.1400  145.7620 C   0  0  0  0  0  0  0  0  0  0  0  0
  189.1690  176.0160  143.2620 C   0  0  0  0  0  0  0  0  0  0  0  0
  189.7610  174.1200  140.1620 C   0  0  0  0  0  1  0  0  0  0  0  0
  188.8220  175.7490  142.0160 C   0  0  0  0  0  0  0  0  0  0  0  0
  186.4280  177.1660  139.5020 C   0  0  0  0  0  2  0  0  0  0  0  0
  185.1130  176.9940  143.2090 O   0  0  0  0  0  0  0  0  0  0  0  0
  192.0850  174.4760  144.9240 C   0  0  0  0  0  3  0  0  0  0  0  0
  190.9620  175.2840  144.7170 C   0  0  0  0  0  0  0  0  0  0  0  0
  186.3650  177.1550  143.1580 C   0  0  0  0  0  0  0  0  0  0  0  0
  186.5570  177.9290  147.8940 C   0  0  0  0  0  2  0  0  0  0  0  0
  186.3160  180.3020  148.0310 O   0  0  0  0  0  1  0  0  0  0  0  0
  186.0540  179.1970  147.2210 C   0  0  0  0  0  2  0  0  0  0  0  0
  1 19  1  0  0  0  0
  1  5  1  0  0  0  0
  2 13  1  0  0  0  0
  2 16  1  0  0  0  0
  4 12  1  0  0  0  0
  4  1  2  0  0  0  0
  5 11  1  0  0  0  0
  7 15  1  6  0  0  0
  7 27  1  0  0  0  0
  8  6  2  0  0  0  0
  8 11  1  0  0  0  0
  9  7  1  0  0  0  0
  9 22  1  0  0  0  0
 10 22  1  0  0  0  0
 10  3  2  0  0  0  0
 11 28  1  1  0  0  0
 12  8  1  0  0  0  0
 14  9  1  0  0  0  0
 17  3  1  6  0  0  0
 17 26  1  0  0  0  0
 18 13  2  0  0  0  0
 19  2  2  0  0  0  0
 20 17  1  0  0  0  0
 20  4  1  0  0  0  0
 21 10  1  0  0  0  0
 22 20  2  0  0  0  0
 23 14  1  0  0  0  0
 23 15  1  0  0  0  0
 25 18  1  0  0  0  0
 26 25  2  0  0  0  0
 26 19  1  0  0  0  0
 27 24  2  0  0  0  0
 27 12  1  0  0  0  0
 30 28  1  0  0  0  0
 30 29  1  0  0  0  0
M  END
>  <MODEL>
6

>  <REMARK>
 VINA RESULT:      -7.8      2.153      6.017
  Name = 
  2 active torsions:
  status: ('A' for Active; 'I' for Inactive)
    1  A    between atoms: C_11  and  C_28
    2  A    between atoms: C_28  and  C_30
                            x       y       z     vdW  Elec       q    Type
                         _______ _______ _______ _____ _____    ______ ____

>  <TORSDO>
F 2

$$$$
=
 OpenBabel11112416253D

 30 35  0  0  1  0  0  0  0  0999 V2000
  187.5160  176.4650  141.7310 C   0  0  0  0  0  0  0  0  0  0  0  0
  185.6810  177.4870  140.4550 C   0  0  0  0  0  0  0  0  0  0  0  0
  185.6810  177.5440  145.3760 N   0  0  0  0  0  0  0  0  0  0  0  0
  188.2690  176.1680  143.0230 C   0  0  2  0  0  3  0  0  0  0  0  0
  188.1580  175.8560  140.5310 C   0  0  0  0  0  2  0  0  0  0  0  0
  188.6430  172.6070  142.1710 O   0  0  0  0  0  0  0  0  0  0  0  0
  189.9900  175.3990  145.2540 C   0  0  1  0  0  3  0  0  0  0  0  0
  188.5220  173.8500  141.9970 C   0  0  0  0  0  0  0  0  0  0  0  0
  188.8590  175.8210  146.0610 N   0  0  0  0  0  0  0  0  0  0  0  0
  186.5510  177.0500  146.2040 C   0  0  0  0  0  0  0  0  0  0  0  0
  188.0550  174.3410  140.6470 C   0  0  2  0  0  3  0  0  0  0  0  0
  188.7520  174.7710  143.0960 N   0  0  0  0  0  0  0  0  0  0  0  0
  184.4720  178.1860  140.4510 C   0  0  0  0  0  3  0  0  0  0  0  0
  189.1120  175.7310  147.4830 C   0  0  0  0  0  2  0  0  0  0  0  0
  191.0180  174.8600  146.2370 C   0  0  0  0  0  2  0  0  0  0  0  0
  186.2240  177.1510  139.2200 O   0  0  0  0  0  1  0  0  0  0  0  0
  186.2000  177.2410  144.0830 C   0  0  0  0  0  0  0  0  0  0  0  0
  183.8650  178.5730  141.6400 C   0  0  0  0  0  3  0  0  0  0  0  0
  186.3240  177.1560  141.6840 C   0  0  0  0  0  0  0  0  0  0  0  0
  187.4260  176.5190  144.2040 C   0  0  0  0  0  0  0  0  0  0  0  0
  186.3910  177.1560  147.6800 C   0  0  0  0  0  1  0  0  0  0  0  0
  187.6760  176.4090  145.4970 C   0  0  0  0  0  0  0  0  0  0  0  0
  190.5620  175.3060  147.6200 C   0  0  0  0  0  2  0  0  0  0  0  0
  189.9070  173.1690  144.3790 O   0  0  0  0  0  0  0  0  0  0  0  0
  184.4610  178.2600  142.8570 C   0  0  0  0  0  3  0  0  0  0  0  0
  185.6710  177.5590  142.8980 C   0  0  0  0  0  0  0  0  0  0  0  0
  189.5660  174.3750  144.2280 C   0  0  0  0  0  0  0  0  0  0  0  0
  188.8550  173.6850  139.5290 C   0  0  0  0  0  2  0  0  0  0  0  0
  189.4060  174.1650  137.2540 O   0  0  0  0  0  1  0  0  0  0  0  0
  188.3490  174.1220  138.1620 C   0  0  0  0  0  2  0  0  0  0  0  0
  2 19  1  0  0  0  0
  3 10  2  0  0  0  0
  4  1  1  6  0  0  0
  4 12  1  0  0  0  0
  4 20  1  0  0  0  0
  5 11  1  0  0  0  0
  5  1  1  0  0  0  0
  7  9  1  0  0  0  0
  7 15  1  1  0  0  0
  8  6  2  0  0  0  0
  8 12  1  0  0  0  0
  9 14  1  0  0  0  0
 10 21  1  0  0  0  0
 11 28  1  6  0  0  0
 11  8  1  0  0  0  0
 12 27  1  0  0  0  0
 13  2  2  0  0  0  0
 13 18  1  0  0  0  0
 14 23  1  0  0  0  0
 15 23  1  0  0  0  0
 16  2  1  0  0  0  0
 17 20  1  0  0  0  0
 17  3  1  0  0  0  0
 18 25  2  0  0  0  0
 19  1  2  0  0  0  0
 19 26  1  0  0  0  0
 20 22  2  0  0  0  0
 22  9  1  0  0  0  0
 22 10  1  0  0  0  0
 25 26  1  0  0  0  0
 26 17  2  0  0  0  0
 27 24  2  0  0  0  0
 27  7  1  0  0  0  0
 29 30  1  0  0  0  0
 30 28  1  0  0  0  0
M  END
>  <MODEL>
7

>  <REMARK>
 VINA RESULT:      -7.8      2.201      4.072
  Name = 
  2 active torsions:
  status: ('A' for Active; 'I' for Inactive)
    1  A    between atoms: C_11  and  C_28
    2  A    between atoms: C_28  and  C_30
                            x       y       z     vdW  Elec       q    Type
                         _______ _______ _______ _____ _____    ______ ____

>  <TORSDO>
F 2

$$$$
=
 OpenBabel11112416253D

 30 35  0  0  1  0  0  0  0  0999 V2000
  189.1020  175.9380  143.0140 C   0  0  0  0  0  0  0  0  0  0  0  0
  187.0130  176.4000  144.2220 C   0  0  0  0  0  0  0  0  0  0  0  0
  191.3750  176.8040  146.4640 N   0  0  0  0  0  0  0  0  0  0  0  0
  190.6220  175.9210  142.8890 C   0  0  0  0  0  0  0  0  0  0  0  0
  188.4130  175.4160  141.8000 C   0  0  0  0  0  2  0  0  0  0  0  0
  190.6290  172.5000  141.5300 O   0  0  0  0  0  0  0  0  0  0  0  0
  193.4680  175.7440  142.2600 C   0  0  1  0  0  3  0  0  0  0  0  0
  190.2110  173.6630  141.7820 C   0  0  0  0  0  0  0  0  0  0  0  0
  193.6310  175.9400  143.6890 N   0  0  0  0  0  0  0  0  0  0  0  0
  192.5650  176.5910  145.9910 C   0  0  2  0  0  3  0  0  0  0  0  0
  188.7300  173.9320  141.6670 C   0  0  2  0  0  3  0  0  0  0  0  0
  191.1300  174.6870  142.2470 N   0  0  0  0  0  0  0  0  0  0  0  0
  186.3750  176.7890  145.4020 C   0  0  0  0  0  3  0  0  0  0  0  0
  195.0180  176.0140  144.0970 C   0  0  0  0  0  2  0  0  0  0  0  0
  194.8720  175.5360  141.7100 C   0  0  0  0  0  2  0  0  0  0  0  0
  186.2040  176.1160  143.1270 O   0  0  0  0  0  1  0  0  0  0  0  0
  190.4990  176.5420  145.3700 C   0  0  0  0  0  0  0  0  0  0  0  0
  187.1070  177.1040  146.5410 C   0  0  0  0  0  3  0  0  0  0  0  0
  188.4360  176.3190  144.1580 C   0  0  0  0  0  0  0  0  0  0  0  0
  191.2530  176.1440  144.2240 C   0  0  0  0  0  0  0  0  0  0  0  0
  193.7910  176.7600  146.8180 C   0  0  0  0  0  1  0  0  0  0  0  0
  192.5260  176.1890  144.5720 C   0  0  0  0  0  0  0  0  0  0  0  0
  195.8300  175.9580  142.8160 C   0  0  0  0  0  2  0  0  0  0  0  0
  193.0350  173.5020  141.5300 O   0  0  0  0  0  0  0  0  0  0  0  0
  188.4950  177.0280  146.5160 C   0  0  0  0  0  3  0  0  0  0  0  0
  189.1670  176.6400  145.3510 C   0  0  0  0  0  0  0  0  0  0  0  0
  192.5500  174.5780  141.9790 C   0  0  0  0  0  0  0  0  0  0  0  0
  188.1890  173.4080  140.3430 C   0  0  0  0  0  2  0  0  0  0  0  0
  187.8200  174.5520  138.2780 O   0  0  0  0  0  1  0  0  0  0  0  0
  188.8140  174.1390  139.1650 C   0  0  0  0  0  2  0  0  0  0  0  0
  1 19  1  0  0  0  0
  2 13  1  0  0  0  0
  4  1  2  0  0  0  0
  4 20  1  0  0  0  0
  5  1  1  0  0  0  0
  6  8  2  0  0  0  0
  7 15  1  6  0  0  0
  7  9  1  0  0  0  0
  8 12  1  0  0  0  0
  9 14  1  0  0  0  0
  9 22  1  0  0  0  0
 10  3  1  0  0  0  0
 10 21  1  6  0  0  0
 11 28  1  6  0  0  0
 11  8  1  0  0  0  0
 11  5  1  0  0  0  0
 12  4  1  0  0  0  0
 13 18  2  0  0  0  0
 15 23  1  0  0  0  0
 16  2  1  0  0  0  0
 17  3  2  0  0  0  0
 19  2  2  0  0  0  0
 19 26  1  0  0  0  0
 20 22  2  0  0  0  0
 20 17  1  0  0  0  0
 22 10  1  0  0  0  0
 23 14  1  0  0  0  0
 24 27  2  0  0  0  0
 25 18  1  0  0  0  0
 26 17  1  0  0  0  0
 26 25  2  0  0  0  0
 27 12  1  0  0  0  0
 27  7  1  0  0  0  0
 29 30  1  0  0  0  0
 30 28  1  0  0  0  0
M  END
>  <MODEL>
8

>  <REMARK>
 VINA RESULT:      -7.6      2.284      3.224
  Name = 
  2 active torsions:
  status: ('A' for Active; 'I' for Inactive)
    1  A    between atoms: C_11  and  C_28
    2  A    between atoms: C_28  and  C_30
                            x       y       z     vdW  Elec       q    Type
                         _______ _______ _______ _____ _____    ______ ____

>  <TORSDO>
F 2

$$$$
=
 OpenBabel11112416253D

 30 35  0  0  1  0  0  0  0  0999 V2000
  189.9310  174.5300  144.1260 C   0  0  0  0  0  0  0  0  0  0  0  0
  192.2080  173.6160  143.9980 C   0  0  0  0  0  0  0  0  0  0  0  0
  191.0110  176.9610  147.4040 N   0  0  0  0  0  0  0  0  0  0  0  0
  188.8350  175.3540  144.7930 C   0  0  2  0  0  3  0  0  0  0  0  0
  189.4810  173.8800  142.8620 C   0  0  0  0  0  2  0  0  0  0  0  0
  187.8680  176.9330  141.6120 O   0  0  0  0  0  0  0  0  0  0  0  0
  186.4890  176.8000  145.7590 C   0  0  1  0  0  3  0  0  0  0  0  0
  188.3130  176.0540  142.4000 C   0  0  0  0  0  0  0  0  0  0  0  0
  187.4520  177.4660  146.6160 N   0  0  0  0  0  0  0  0  0  0  0  0
  189.8740  177.5530  147.6100 C   0  0  0  0  0  0  0  0  0  0  0  0
  189.1980  174.9690  141.8350 C   0  0  2  0  0  3  0  0  0  0  0  0
  188.0400  176.1400  143.8230 N   0  0  0  0  0  0  0  0  0  0  0  0
  193.5090  173.5720  144.5050 C   0  0  0  0  0  3  0  0  0  0  0  0
  186.8430  178.4150  147.5230 C   0  0  0  0  0  2  0  0  0  0  0  0
  185.1540  177.4750  146.0380 C   0  0  0  0  0  2  0  0  0  0  0  0
  191.9240  172.8000  142.9090 O   0  0  0  0  0  1  0  0  0  0  0  0
  190.7710  176.0920  146.2990 C   0  0  0  0  0  0  0  0  0  0  0  0
  193.8770  174.3450  145.6000 C   0  0  0  0  0  3  0  0  0  0  0  0
  191.2240  174.4560  144.5970 C   0  0  0  0  0  0  0  0  0  0  0  0
  189.4190  176.2250  145.8560 C   0  0  0  0  0  0  0  0  0  0  0  0
  189.6850  178.5530  148.6960 C   0  0  0  0  0  1  0  0  0  0  0  0
  188.8400  177.0990  146.6600 C   0  0  0  0  0  0  0  0  0  0  0  0
  185.3460  178.2920  147.3080 C   0  0  0  0  0  2  0  0  0  0  0  0
  186.2650  177.6620  143.5320 O   0  0  0  0  0  0  0  0  0  0  0  0
  192.9450  175.1820  146.2030 C   0  0  0  0  0  3  0  0  0  0  0  0
  191.6330  175.2520  145.7210 C   0  0  0  0  0  0  0  0  0  0  0  0
  186.9030  176.8970  144.3090 C   0  0  0  0  0  0  0  0  0  0  0  0
  188.5690  174.3520  140.5930 C   0  0  0  0  0  2  0  0  0  0  0  0
  188.1750  172.3030  139.4290 O   0  0  0  0  0  1  0  0  0  0  0  0
  188.6890  172.8360  140.6110 C   0  0  0  0  0  2  0  0  0  0  0  0
  1 19  2  0  0  0  0
  2 13  2  0  0  0  0
  2 19  1  0  0  0  0
  3 10  2  0  0  0  0
  4  1  1  6  0  0  0
  4 20  1  0  0  0  0
  5  1  1  0  0  0  0
  6  8  2  0  0  0  0
  7 15  1  6  0  0  0
  7  9  1  0  0  0  0
  8 12  1  0  0  0  0
  9 22  1  0  0  0  0
  9 14  1  0  0  0  0
 10 21  1  0  0  0  0
 11 28  1  6  0  0  0
 11  8  1  0  0  0  0
 11  5  1  0  0  0  0
 12 27  1  0  0  0  0
 12  4  1  0  0  0  0
 13 18  1  0  0  0  0
 15 23  1  0  0  0  0
 16  2  1  0  0  0  0
 17  3  1  0  0  0  0
 18 25  2  0  0  0  0
 19 26  1  0  0  0  0
 20 17  1  0  0  0  0
 20 22  2  0  0  0  0
 22 10  1  0  0  0  0
 23 14  1  0  0  0  0
 24 27  2  0  0  0  0
 26 25  1  0  0  0  0
 26 17  2  0  0  0  0
 27  7  1  0  0  0  0
 28 30  1  0  0  0  0
 29 30  1  0  0  0  0
M  END
>  <MODEL>
9

>  <REMARK>
 VINA RESULT:      -7.6      2.118      5.780
  Name = 
  2 active torsions:
  status: ('A' for Active; 'I' for Inactive)
    1  A    between atoms: C_11  and  C_28
    2  A    between atoms: C_28  and  C_30
                            x       y       z     vdW  Elec       q    Type
                         _______ _______ _______ _____ _____    ______ ____

>  <TORSDO>
F 2

$$$$
