=
 OpenBabel11112417483D

 34 40  0  0  1  0  0  0  0  0999 V2000
  192.1220  176.1130  145.2720 C   0  0  0  0  0  0  0  0  0  0  0  0
  190.0980  177.2190  146.4160 C   0  0  0  0  0  2  0  0  0  0  0  0
  195.3470  173.9510  140.0900 C   0  0  1  0  0  3  0  0  0  0  0  0
  193.8880  174.7340  144.2610 C   0  0  0  0  0  0  0  0  0  0  0  0
  193.4970  174.0180  141.9270 C   0  0  0  0  0  0  0  0  0  0  0  0
  193.2730  172.6840  139.8970 C   0  0  0  0  0  2  0  0  0  0  0  0
  195.1290  175.1100  139.1340 C   0  0  0  0  0  1  0  0  0  0  0  0
  196.4980  173.2190  142.0070 C   0  0  0  0  0  2  0  0  0  0  0  0
  189.8170  175.8750  144.4940 C   0  0  2  0  0  3  0  0  0  0  0  0
  187.2220  176.0550  142.6300 C   0  0  0  0  0  2  0  0  0  0  0  0
  192.2400  174.4890  141.9400 C   0  0  0  0  0  3  0  0  0  0  0  0
  195.6620  173.3380  143.2790 C   0  0  0  0  0  2  0  0  0  0  0  0
  190.2970  175.6310  143.0640 C   0  0  1  0  0  3  0  0  0  0  0  0
  188.6500  177.3960  145.9710 C   0  0  0  0  0  2  0  0  0  0  0  0
  194.3460  174.0870  143.1670 C   0  0  0  0  0  0  0  0  0  0  0  0
  196.2810  174.3610  141.1340 N   0  0  0  0  0  2  0  0  0  0  0  0
  187.7870  177.1340  143.5470 C   0  0  2  0  0  3  0  0  0  0  0  0
  192.5350  175.3350  144.2460 C   0  0  2  0  0  3  0  0  0  0  0  0
  194.0240  173.4840  140.6490 C   0  0  0  0  0  0  0  0  0  0  0  0
  191.6680  175.0830  143.1130 N   0  0  0  0  0  0  0  0  0  0  0  0
  194.2330  175.8500  146.4890 C   0  0  0  0  0  3  0  0  0  0  0  0
  188.2580  175.5240  141.6460 C   0  0  0  0  0  2  0  0  0  0  0  0
  194.6810  174.7640  145.5490 C   0  0  0  0  0  3  0  0  0  0  0  0
  189.3360  174.7010  142.3360 C   0  0  0  0  0  2  0  0  0  0  0  0
  188.4340  176.4600  144.7720 C   0  0  1  0  0  3  0  0  0  0  0  0
  193.0450  176.4450  146.3750 C   0  0  0  0  0  3  0  0  0  0  0  0
  190.7950  176.8060  145.1470 C   0  0  2  0  0  3  0  0  0  0  0  0
  186.6320  178.0450  143.9390 C   0  0  0  0  0  2  0  0  0  0  0  0
  185.4920  177.2460  144.3580 N   0  0  0  0  0  2  0  0  0  0  0  0
  185.5160  177.8020  147.4790 O   0  0  0  0  0  0  0  0  0  0  0  0
  185.4920  179.2880  145.6420 C   0  0  0  0  0  2  0  0  0  0  0  0
  184.7100  178.0620  145.2710 C   0  0  2  0  0  3  0  0  0  0  0  0
  185.7120  179.1460  147.1300 C   0  0  0  0  0  2  0  0  0  0  0  0
  184.5480  177.3290  146.5830 C   0  0  0  0  0  2  0  0  0  0  0  0
  1 26  2  0  0  0  0
  3  7  1  6  0  0  0
  3 19  1  0  0  0  0
  3 16  1  0  0  0  0
  4 23  1  0  0  0  0
  5 11  2  0  0  0  0
  5 15  1  0  0  0  0
  6 19  2  0  0  0  0
  8 12  1  0  0  0  0
  9 25  1  0  0  0  0
  9 27  1  0  0  0  0
 10 17  1  0  0  0  0
 11 20  1  0  0  0  0
 13 20  1  0  0  0  0
 13  9  1  0  0  0  0
 14  2  1  0  0  0  0
 15 12  1  0  0  0  0
 15  4  2  0  0  0  0
 16  8  1  0  0  0  0
 17 28  1  0  0  0  0
 17 25  1  0  0  0  0
 18  4  1  0  0  0  0
 18  1  1  0  0  0  0
 19  5  1  0  0  0  0
 20 18  1  0  0  0  0
 22 24  1  0  0  0  0
 22 10  1  0  0  0  0
 23 21  2  0  0  0  0
 24 13  1  0  0  0  0
 25 14  1  0  0  0  0
 26 21  1  0  0  0  0
 27  1  1  0  0  0  0
 27  2  1  0  0  0  0
 28 29  1  0  0  0  0
 29 32  1  0  0  0  0
 31 33  1  0  0  0  0
 32 31  1  0  0  0  0
 32 34  1  0  0  0  0
 33 30  1  0  0  0  0
 34 30  1  0  0  0  0
M  END
>  <MODEL>
1

>  <REMARK>
 VINA RESULT:      -8.3      0.000      0.000
  Name = 
  3 active torsions:
  status: ('A' for Active; 'I' for Inactive)
    1  A    between atoms: C_17  and  C_28
    2  A    between atoms: C_28  and  N_29
    3  A    between atoms: N_29  and  C_32
                            x       y       z     vdW  Elec       q    Type
                         _______ _______ _______ _____ _____    ______ ____

>  <TORSDO>
F 3

$$$$
=
 OpenBabel11112417483D

 34 40  0  0  1  0  0  0  0  0999 V2000
  191.8880  174.3620  142.5260 C   0  0  0  0  0  0  0  0  0  0  0  0
  189.5310  175.3900  142.6460 C   0  0  0  0  0  2  0  0  0  0  0  0
  197.1150  171.6020  145.1680 C   0  0  1  0  0  3  0  0  0  0  0  0
  194.2620  173.7320  142.4370 C   0  0  0  0  0  0  0  0  0  0  0  0
  195.3990  173.4860  144.6190 C   0  0  0  0  0  0  0  0  0  0  0  0
  196.9880  173.6640  146.4600 C   0  0  0  0  0  2  0  0  0  0  0  0
  196.4520  170.5850  146.0800 C   0  0  0  0  0  1  0  0  0  0  0  0
  197.6410  172.1430  142.9390 C   0  0  0  0  0  2  0  0  0  0  0  0
  191.0590  175.6560  144.4270 C   0  0  2  0  0  3  0  0  0  0  0  0
  190.1310  176.4130  147.3940 C   0  0  0  0  0  2  0  0  0  0  0  0
  194.3410  173.9780  145.2810 C   0  0  0  0  0  3  0  0  0  0  0  0
  196.6440  173.1180  142.3180 C   0  0  0  0  0  2  0  0  0  0  0  0
  192.0070  174.9230  145.3740 C   0  0  1  0  0  3  0  0  0  0  0  0
  188.7480  176.0070  143.8000 C   0  0  0  0  0  2  0  0  0  0  0  0
  195.3860  173.4140  143.1160 C   0  0  0  0  0  0  0  0  0  0  0  0
  196.9610  171.1720  143.7820 N   0  0  0  0  0  2  0  0  0  0  0  0
  189.3100  175.7250  146.3090 C   0  0  2  0  0  3  0  0  0  0  0  0
  193.0620  174.1880  143.1740 C   0  0  0  0  0  0  0  0  0  0  0  0
  196.5390  172.9750  145.4150 C   0  0  0  0  0  0  0  0  0  0  0  0
  193.1650  174.4340  144.5980 N   0  0  0  0  0  0  0  0  0  0  0  0
  192.8350  173.7010  140.3650 C   0  0  0  0  0  3  0  0  0  0  0  0
  191.4500  175.6980  147.6690 C   0  0  0  0  0  2  0  0  0  0  0  0
  194.2320  173.7410  140.9240 C   0  0  0  0  0  2  0  0  0  0  0  0
  192.4300  175.8410  146.5130 C   0  0  0  0  0  2  0  0  0  0  0  0
  189.7520  176.2630  144.9340 C   0  0  1  0  0  3  0  0  0  0  0  0
  191.7660  174.0150  141.0970 C   0  0  0  0  0  3  0  0  0  0  0  0
  190.6720  174.6970  143.3410 C   0  0  2  0  0  3  0  0  0  0  0  0
  187.8440  176.0210  146.5930 C   0  0  0  0  0  2  0  0  0  0  0  0
  187.6900  177.4080  147.0020 N   0  0  0  0  0  2  0  0  0  0  0  0
  185.1990  179.2280  146.2720 O   0  0  0  0  0  0  0  0  0  0  0  0
  185.3760  176.8900  146.5610 C   0  0  0  0  0  2  0  0  0  0  0  0
  186.3350  177.5580  147.5030 C   0  0  2  0  0  3  0  0  0  0  0  0
  184.5210  178.0220  146.0430 C   0  0  0  0  0  2  0  0  0  0  0  0
  185.9380  179.0150  147.4440 C   0  0  0  0  0  2  0  0  0  0  0  0
  1 18  2  0  0  0  0
  1 27  1  0  0  0  0
  2 27  1  0  0  0  0
  2 14  1  0  0  0  0
  3 19  1  0  0  0  0
  3  7  1  1  0  0  0
  4 15  2  0  0  0  0
  4 18  1  0  0  0  0
  5 11  2  0  0  0  0
  5 19  1  0  0  0  0
  8 16  1  0  0  0  0
  9 25  1  0  0  0  0
  9 13  1  0  0  0  0
 10 22  1  0  0  0  0
 12  8  1  0  0  0  0
 12 15  1  0  0  0  0
 13 24  1  0  0  0  0
 14 25  1  0  0  0  0
 15  5  1  0  0  0  0
 16  3  1  0  0  0  0
 17 28  1  0  0  0  0
 17 10  1  0  0  0  0
 18 20  1  0  0  0  0
 19  6  2  0  0  0  0
 20 11  1  0  0  0  0
 20 13  1  0  0  0  0
 21 23  1  0  0  0  0
 21 26  2  0  0  0  0
 23  4  1  0  0  0  0
 24 22  1  0  0  0  0
 25 17  1  0  0  0  0
 26  1  1  0  0  0  0
 27  9  1  0  0  0  0
 28 29  1  0  0  0  0
 29 32  1  0  0  0  0
 30 34  1  0  0  0  0
 31 32  1  0  0  0  0
 33 30  1  0  0  0  0
 33 31  1  0  0  0  0
 34 32  1  0  0  0  0
M  END
>  <MODEL>
2

>  <REMARK>
 VINA RESULT:      -8.2      1.810      4.140
  Name = 
  3 active torsions:
  status: ('A' for Active; 'I' for Inactive)
    1  A    between atoms: C_17  and  C_28
    2  A    between atoms: C_28  and  N_29
    3  A    between atoms: N_29  and  C_32
                            x       y       z     vdW  Elec       q    Type
                         _______ _______ _______ _____ _____    ______ ____

>  <TORSDO>
F 3

$$$$
=
 OpenBabel11112417483D

 34 40  0  0  1  0  0  0  0  0999 V2000
  192.1620  176.1980  145.4680 C   0  0  0  0  0  0  0  0  0  0  0  0
  189.9880  177.1130  146.4990 C   0  0  0  0  0  2  0  0  0  0  0  0
  195.7810  174.1790  140.4920 C   0  0  1  0  0  3  0  0  0  0  0  0
  194.1080  174.9880  144.5770 C   0  0  0  0  0  0  0  0  0  0  0  0
  193.8780  174.1170  142.2740 C   0  0  0  0  0  0  0  0  0  0  0  0
  193.8760  172.6690  140.3110 C   0  0  0  0  0  2  0  0  0  0  0  0
  195.4610  175.2550  139.4710 C   0  0  0  0  0  1  0  0  0  0  0  0
  196.9480  173.6820  142.4740 C   0  0  0  0  0  2  0  0  0  0  0  0
  189.9270  175.6520  144.6430 C   0  0  2  0  0  3  0  0  0  0  0  0
  187.3890  175.4330  142.7060 C   0  0  0  0  0  2  0  0  0  0  0  0
  192.5750  174.4370  142.2300 C   0  0  0  0  0  3  0  0  0  0  0  0
  196.0630  173.7640  143.7160 C   0  0  0  0  0  2  0  0  0  0  0  0
  190.4770  175.3960  143.2410 C   0  0  1  0  0  3  0  0  0  0  0  0
  188.5450  177.0960  146.0070 C   0  0  0  0  0  2  0  0  0  0  0  0
  194.6740  174.3470  143.5300 C   0  0  0  0  0  0  0  0  0  0  0  0
  196.6270  174.7470  141.5370 N   0  0  0  0  0  2  0  0  0  0  0  0
  187.7960  176.6150  143.5790 C   0  0  2  0  0  3  0  0  0  0  0  0
  192.6950  175.4250  144.4940 C   0  0  2  0  0  3  0  0  0  0  0  0
  194.5040  173.5880  141.0400 C   0  0  0  0  0  0  0  0  0  0  0  0
  191.9000  175.0170  143.3540 N   0  0  0  0  0  0  0  0  0  0  0  0
  194.2500  176.2450  146.7510 C   0  0  0  0  0  3  0  0  0  0  0  0
  188.5110  174.9810  141.7780 C   0  0  0  0  0  2  0  0  0  0  0  0
  194.8510  175.1740  145.8810 C   0  0  0  0  0  3  0  0  0  0  0  0
  189.6550  174.3250  142.5380 C   0  0  0  0  0  2  0  0  0  0  0  0
  188.4770  176.0830  144.8540 C   0  0  1  0  0  3  0  0  0  0  0  0
  193.0050  176.6900  146.5750 C   0  0  0  0  0  3  0  0  0  0  0  0
  190.7690  176.7220  145.2720 C   0  0  2  0  0  3  0  0  0  0  0  0
  186.5310  177.4020  143.8930 C   0  0  0  0  0  2  0  0  0  0  0  0
  185.4800  177.0450  142.9530 N   0  0  0  0  0  2  0  0  0  0  0  0
  184.5010  177.8280  140.0410 O   0  0  0  0  0  0  0  0  0  0  0  0
  183.5640  178.2790  142.1630 C   0  0  0  0  0  2  0  0  0  0  0  0
  185.0590  178.2710  142.2970 C   0  0  2  0  0  3  0  0  0  0  0  0
  183.3290  178.2710  140.6710 C   0  0  0  0  0  2  0  0  0  0  0  0
  185.5460  178.2650  140.8670 C   0  0  0  0  0  2  0  0  0  0  0  0
  1 26  2  0  0  0  0
  3  7  1  6  0  0  0
  3 19  1  0  0  0  0
  3 16  1  0  0  0  0
  4 23  1  0  0  0  0
  5 15  1  0  0  0  0
  6 19  2  0  0  0  0
  8 12  1  0  0  0  0
  9 25  1  0  0  0  0
  9 27  1  0  0  0  0
 10 17  1  0  0  0  0
 11  5  2  0  0  0  0
 11 20  1  0  0  0  0
 13 20  1  0  0  0  0
 13  9  1  0  0  0  0
 14  2  1  0  0  0  0
 15 12  1  0  0  0  0
 15  4  2  0  0  0  0
 16  8  1  0  0  0  0
 17 28  1  0  0  0  0
 17 25  1  0  0  0  0
 18  4  1  0  0  0  0
 18  1  1  0  0  0  0
 19  5  1  0  0  0  0
 20 18  1  0  0  0  0
 22 24  1  0  0  0  0
 22 10  1  0  0  0  0
 23 21  2  0  0  0  0
 24 13  1  0  0  0  0
 25 14  1  0  0  0  0
 26 21  1  0  0  0  0
 27  1  1  0  0  0  0
 27  2  1  0  0  0  0
 29 28  1  0  0  0  0
 30 33  1  0  0  0  0
 30 34  1  0  0  0  0
 31 32  1  0  0  0  0
 32 29  1  0  0  0  0
 33 31  1  0  0  0  0
 34 32  1  0  0  0  0
M  END
>  <MODEL>
3

>  <REMARK>
 VINA RESULT:      -8.0      1.833      2.264
  Name = 
  3 active torsions:
  status: ('A' for Active; 'I' for Inactive)
    1  A    between atoms: C_17  and  C_28
    2  A    between atoms: C_28  and  N_29
    3  A    between atoms: N_29  and  C_32
                            x       y       z     vdW  Elec       q    Type
                         _______ _______ _______ _____ _____    ______ ____

>  <TORSDO>
F 3

$$$$
=
 OpenBabel11112417483D

 34 40  0  0  1  0  0  0  0  0999 V2000
  192.6160  176.1180  144.5540 C   0  0  0  0  0  0  0  0  0  0  0  0
  190.8430  177.9570  144.2290 C   0  0  0  0  0  2  0  0  0  0  0  0
  195.2760  170.3700  143.2080 C   0  0  1  0  0  3  0  0  0  0  0  0
  194.0920  174.2420  145.1420 C   0  0  0  0  0  0  0  0  0  0  0  0
  193.5180  172.0580  144.1350 C   0  0  0  0  0  0  0  0  0  0  0  0
  193.0120  169.6940  143.8090 C   0  0  0  0  0  2  0  0  0  0  0  0
  195.2310  170.4010  141.6910 C   0  0  0  0  0  1  0  0  0  0  0  0
  196.3410  171.2200  145.1260 C   0  0  0  0  0  2  0  0  0  0  0  0
  190.2830  175.6760  143.9740 C   0  0  2  0  0  3  0  0  0  0  0  0
  187.7040  174.7070  142.3470 C   0  0  0  0  0  2  0  0  0  0  0  0
  192.3600  172.5310  143.6470 C   0  0  0  0  0  3  0  0  0  0  0  0
  195.5740  172.3770  145.7630 C   0  0  0  0  0  2  0  0  0  0  0  0
  190.6730  174.3670  143.2910 C   0  0  1  0  0  3  0  0  0  0  0  0
  189.4350  177.9180  143.6460 C   0  0  0  0  0  2  0  0  0  0  0  0
  194.4020  172.9380  144.9770 C   0  0  0  0  0  0  0  0  0  0  0  0
  196.2960  171.3040  143.6750 N   0  0  0  0  0  2  0  0  0  0  0  0
  188.4700  176.0150  142.1850 C   0  0  2  0  0  3  0  0  0  0  0  0
  192.8610  174.7880  144.5260 C   0  0  2  0  0  3  0  0  0  0  0  0
  193.9100  170.6760  143.7730 C   0  0  0  0  0  0  0  0  0  0  0  0
  191.9310  173.8770  143.8890 N   0  0  0  0  0  0  0  0  0  0  0  0
  194.6850  176.6040  145.7740 C   0  0  0  0  0  3  0  0  0  0  0  0
  188.6060  173.4840  142.2290 C   0  0  0  0  0  2  0  0  0  0  0  0
  194.9150  175.1410  146.0380 C   0  0  0  0  0  3  0  0  0  0  0  0
  189.5470  173.3490  143.4170 C   0  0  0  0  0  2  0  0  0  0  0  0
  189.0280  176.4400  143.5570 C   0  0  1  0  0  3  0  0  0  0  0  0
  193.6130  177.0490  145.1170 C   0  0  0  0  0  3  0  0  0  0  0  0
  191.4230  176.6350  143.8010 C   0  0  2  0  0  3  0  0  0  0  0  0
  187.4990  177.0420  141.6200 C   0  0  0  0  0  2  0  0  0  0  0  0
  186.2650  177.0310  142.3890 N   0  0  0  0  0  2  0  0  0  0  0  0
  183.6920  178.4690  143.5570 O   0  0  0  0  0  0  0  0  0  0  0  0
  185.9730  179.0820  143.6260 C   0  0  0  0  0  2  0  0  0  0  0  0
  185.7110  178.3730  142.3290 C   0  0  2  0  0  3  0  0  0  0  0  0
  184.5950  179.3360  144.1900 C   0  0  0  0  0  2  0  0  0  0  0  0
  184.2030  178.2890  142.2640 C   0  0  0  0  0  2  0  0  0  0  0  0
  1 26  2  0  0  0  0
  3  7  1  6  0  0  0
  3 16  1  0  0  0  0
  3 19  1  0  0  0  0
  4 23  1  0  0  0  0
  5 15  1  0  0  0  0
  8 12  1  0  0  0  0
 11 20  1  0  0  0  0
 11  5  2  0  0  0  0
 13 24  1  0  0  0  0
 13 20  1  0  0  0  0
 13  9  1  0  0  0  0
 14  2  1  0  0  0  0
 15  4  2  0  0  0  0
 15 12  1  0  0  0  0
 16  8  1  0  0  0  0
 17 10  1  0  0  0  0
 17 25  1  0  0  0  0
 18  1  1  0  0  0  0
 18  4  1  0  0  0  0
 19  6  2  0  0  0  0
 19  5  1  0  0  0  0
 20 18  1  0  0  0  0
 21 23  2  0  0  0  0
 22 10  1  0  0  0  0
 22 24  1  0  0  0  0
 25 14  1  0  0  0  0
 25  9  1  0  0  0  0
 26 21  1  0  0  0  0
 27  9  1  0  0  0  0
 27  2  1  0  0  0  0
 27  1  1  0  0  0  0
 28 17  1  0  0  0  0
 28 29  1  0  0  0  0
 30 33  1  0  0  0  0
 31 33  1  0  0  0  0
 32 29  1  0  0  0  0
 32 31  1  0  0  0  0
 34 32  1  0  0  0  0
 34 30  1  0  0  0  0
M  END
>  <MODEL>
4

>  <REMARK>
 VINA RESULT:      -7.9      2.401      2.791
  Name = 
  3 active torsions:
  status: ('A' for Active; 'I' for Inactive)
    1  A    between atoms: C_17  and  C_28
    2  A    between atoms: C_28  and  N_29
    3  A    between atoms: N_29  and  C_32
                            x       y       z     vdW  Elec       q    Type
                         _______ _______ _______ _____ _____    ______ ____

>  <TORSDO>
F 3

$$$$
=
 OpenBabel11112417483D

 34 40  0  0  1  0  0  0  0  0999 V2000
  189.7040  177.4640  143.1200 C   0  0  0  0  0  0  0  0  0  0  0  0
  192.1030  176.8550  142.4140 C   0  0  0  0  0  2  0  0  0  0  0  0
  185.1750  178.8930  147.5220 C   0  0  1  0  0  3  0  0  0  0  0  0
  187.3470  177.6780  143.7890 C   0  0  0  0  0  0  0  0  0  0  0  0
  186.8820  177.4270  146.2040 C   0  0  0  0  0  0  0  0  0  0  0  0
  185.9410  176.7300  148.3440 C   0  0  0  0  0  2  0  0  0  0  0  0
  185.9410  179.8780  148.3880 C   0  0  0  0  0  1  0  0  0  0  0  0
  184.0920  178.5730  145.4590 C   0  0  0  0  0  2  0  0  0  0  0  0
  191.2140  176.0910  144.4650 C   0  0  2  0  0  3  0  0  0  0  0  0
  193.0640  175.1170  146.8880 C   0  0  0  0  0  2  0  0  0  0  0  0
  188.1420  177.0420  146.4580 C   0  0  0  0  0  3  0  0  0  0  0  0
  184.9790  177.8780  144.4280 C   0  0  0  0  0  2  0  0  0  0  0  0
  190.5000  176.5140  145.7470 C   0  0  1  0  0  3  0  0  0  0  0  0
  193.2630  176.2350  143.1850 C   0  0  0  0  0  2  0  0  0  0  0  0
  186.4420  177.7010  144.7920 C   0  0  0  0  0  0  0  0  0  0  0  0
  184.8590  179.5250  146.2460 N   0  0  0  0  0  2  0  0  0  0  0  0
  193.4330  176.0760  145.7610 C   0  0  2  0  0  3  0  0  0  0  0  0
  188.7600  177.3430  144.0820 C   0  0  0  0  0  0  0  0  0  0  0  0
  185.9700  177.6210  147.3560 C   0  0  0  0  0  0  0  0  0  0  0  0
  189.1130  176.8930  145.4130 N   0  0  0  0  0  0  0  0  0  0  0  0
  188.0850  178.2340  141.4480 C   0  0  0  0  0  3  0  0  0  0  0  0
  191.8040  175.5470  147.6310 C   0  0  0  0  0  2  0  0  0  0  0  0
  186.9330  177.8770  142.3480 C   0  0  0  0  0  2  0  0  0  0  0  0
  190.5540  175.3930  146.7760 C   0  0  0  0  0  2  0  0  0  0  0  0
  192.6790  175.6590  144.4840 C   0  0  1  0  0  3  0  0  0  0  0  0
  189.3540  178.0150  141.7960 C   0  0  0  0  0  3  0  0  0  0  0  0
  191.1380  177.2400  143.5040 C   0  0  2  0  0  3  0  0  0  0  0  0
  194.9430  176.0040  145.5820 C   0  0  0  0  0  2  0  0  0  0  0  0
  195.4430  174.7400  146.1000 N   0  0  0  0  0  2  0  0  0  0  0  0
  197.1680  172.1010  145.7630 O   0  0  0  0  0  0  0  0  0  0  0  0
  195.1930  172.8090  144.6760 C   0  0  0  0  0  2  0  0  0  0  0  0
  196.0260  174.0200  144.9810 C   0  0  2  0  0  3  0  0  0  0  0  0
  196.1180  171.6470  144.9510 C   0  0  0  0  0  2  0  0  0  0  0  0
  197.3580  173.4420  145.3980 C   0  0  0  0  0  2  0  0  0  0  0  0
  1 27  1  0  0  0  0
  1 18  2  0  0  0  0
  2 14  1  0  0  0  0
  2 27  1  0  0  0  0
  3  7  1  1  0  0  0
  4 18  1  0  0  0  0
  4 15  2  0  0  0  0
  5 11  2  0  0  0  0
  5 19  1  0  0  0  0
  8 16  1  0  0  0  0
  9 25  1  0  0  0  0
  9 13  1  0  0  0  0
 10 22  1  0  0  0  0
 12 15  1  0  0  0  0
 12  8  1  0  0  0  0
 13 24  1  0  0  0  0
 14 25  1  0  0  0  0
 15  5  1  0  0  0  0
 16  3  1  0  0  0  0
 17 10  1  0  0  0  0
 18 20  1  0  0  0  0
 19  3  1  0  0  0  0
 19  6  2  0  0  0  0
 20 13  1  0  0  0  0
 20 11  1  0  0  0  0
 21 26  2  0  0  0  0
 21 23  1  0  0  0  0
 23  4  1  0  0  0  0
 24 22  1  0  0  0  0
 25 17  1  0  0  0  0
 26  1  1  0  0  0  0
 27  9  1  0  0  0  0
 28 17  1  0  0  0  0
 28 29  1  0  0  0  0
 31 33  1  0  0  0  0
 31 32  1  0  0  0  0
 32 34  1  0  0  0  0
 32 29  1  0  0  0  0
 33 30  1  0  0  0  0
 34 30  1  0  0  0  0
M  END
>  <MODEL>
5

>  <REMARK>
 VINA RESULT:      -7.9      3.300      9.183
  Name = 
  3 active torsions:
  status: ('A' for Active; 'I' for Inactive)
    1  A    between atoms: C_17  and  C_28
    2  A    between atoms: C_28  and  N_29
    3  A    between atoms: N_29  and  C_32
                            x       y       z     vdW  Elec       q    Type
                         _______ _______ _______ _____ _____    ______ ____

>  <TORSDO>
F 3

$$$$
=
 OpenBabel11112417483D

 34 40  0  0  1  0  0  0  0  0999 V2000
  192.4250  175.9000  145.3240 C   0  0  0  0  0  0  0  0  0  0  0  0
  190.2510  176.6600  146.4750 C   0  0  0  0  0  2  0  0  0  0  0  0
  195.9180  174.2110  140.1410 C   0  0  1  0  0  3  0  0  0  0  0  0
  194.3940  174.8280  144.3160 C   0  0  0  0  0  0  0  0  0  0  0  0
  194.1070  173.9970  142.0050 C   0  0  0  0  0  0  0  0  0  0  0  0
  194.0980  172.5950  140.0080 C   0  0  0  0  0  2  0  0  0  0  0  0
  195.4890  175.2900  139.1630 C   0  0  0  0  0  1  0  0  0  0  0  0
  197.2030  173.7400  142.0540 C   0  0  0  0  0  2  0  0  0  0  0  0
  190.1890  175.2410  144.5880 C   0  0  2  0  0  3  0  0  0  0  0  0
  187.5810  174.9160  142.7630 C   0  0  0  0  0  2  0  0  0  0  0  0
  192.7880  174.2400  142.0280 C   0  0  0  0  0  3  0  0  0  0  0  0
  196.3750  173.7420  143.3370 C   0  0  0  0  0  2  0  0  0  0  0  0
  190.6870  175.0490  143.1570 C   0  0  1  0  0  3  0  0  0  0  0  0
  188.7900  176.5690  146.0500 C   0  0  0  0  0  2  0  0  0  0  0  0
  194.9460  174.2450  143.2290 C   0  0  0  0  0  0  0  0  0  0  0  0
  196.7780  174.8050  141.1600 N   0  0  0  0  0  2  0  0  0  0  0  0
  187.9580  176.1000  143.6460 C   0  0  2  0  0  3  0  0  0  0  0  0
  192.9560  175.1820  144.3090 C   0  0  2  0  0  3  0  0  0  0  0  0
  194.7050  173.5330  140.7300 C   0  0  0  0  0  0  0  0  0  0  0  0
  192.1330  174.7530  143.1960 N   0  0  0  0  0  0  0  0  0  0  0  0
  194.5630  176.0420  146.5130 C   0  0  0  0  0  3  0  0  0  0  0  0
  188.6820  174.5510  141.7740 C   0  0  0  0  0  2  0  0  0  0  0  0
  195.1840  175.0290  145.5900 C   0  0  0  0  0  3  0  0  0  0  0  0
  189.8960  173.9470  142.4650 C   0  0  0  0  0  2  0  0  0  0  0  0
  188.7280  175.5810  144.8750 C   0  0  1  0  0  3  0  0  0  0  0  0
  193.2870  176.4160  146.4050 C   0  0  0  0  0  3  0  0  0  0  0  0
  190.9950  176.3450  145.2050 C   0  0  2  0  0  3  0  0  0  0  0  0
  186.6650  176.8030  144.0370 C   0  0  0  0  0  2  0  0  0  0  0  0
  186.7160  178.1970  143.6260 N   0  0  0  0  0  2  0  0  0  0  0  0
  183.9290  179.4340  144.4930 O   0  0  0  0  0  0  0  0  0  0  0  0
  185.4760  178.1120  145.6930 C   0  0  0  0  0  2  0  0  0  0  0  0
  186.2390  178.9900  144.7450 C   0  0  2  0  0  3  0  0  0  0  0  0
  184.0700  178.6650  145.6570 C   0  0  0  0  0  2  0  0  0  0  0  0
  185.2010  179.9740  144.2540 C   0  0  0  0  0  2  0  0  0  0  0  0
  1 26  2  0  0  0  0
  3  7  1  6  0  0  0
  3 19  1  0  0  0  0
  3 16  1  0  0  0  0
  4 23  1  0  0  0  0
  5 11  2  0  0  0  0
  5 15  1  0  0  0  0
  6 19  2  0  0  0  0
  8 12  1  0  0  0  0
  9 25  1  0  0  0  0
  9 27  1  0  0  0  0
 10 17  1  0  0  0  0
 11 20  1  0  0  0  0
 13 20  1  0  0  0  0
 13  9  1  0  0  0  0
 14  2  1  0  0  0  0
 15 12  1  0  0  0  0
 15  4  2  0  0  0  0
 16  8  1  0  0  0  0
 17 28  1  0  0  0  0
 17 25  1  0  0  0  0
 18  4  1  0  0  0  0
 18  1  1  0  0  0  0
 19  5  1  0  0  0  0
 20 18  1  0  0  0  0
 22 24  1  0  0  0  0
 22 10  1  0  0  0  0
 23 21  2  0  0  0  0
 24 13  1  0  0  0  0
 25 14  1  0  0  0  0
 26 21  1  0  0  0  0
 27  1  1  0  0  0  0
 27  2  1  0  0  0  0
 29 28  1  0  0  0  0
 29 32  1  0  0  0  0
 30 33  1  0  0  0  0
 32 31  1  0  0  0  0
 33 31  1  0  0  0  0
 34 30  1  0  0  0  0
 34 32  1  0  0  0  0
M  END
>  <MODEL>
6

>  <REMARK>
 VINA RESULT:      -7.8      1.086      1.277
  Name = 
  3 active torsions:
  status: ('A' for Active; 'I' for Inactive)
    1  A    between atoms: C_17  and  C_28
    2  A    between atoms: C_28  and  N_29
    3  A    between atoms: N_29  and  C_32
                            x       y       z     vdW  Elec       q    Type
                         _______ _______ _______ _____ _____    ______ ____

>  <TORSDO>
F 3

$$$$
=
 OpenBabel11112417483D

 34 40  0  0  1  0  0  0  0  0999 V2000
  189.7140  176.8340  145.8640 C   0  0  0  0  0  0  0  0  0  0  0  0
  187.3170  177.7040  146.2190 C   0  0  0  0  0  2  0  0  0  0  0  0
  194.8860  175.5160  142.1980 C   0  0  1  0  0  3  0  0  0  0  0  0
  191.8460  175.6670  145.4950 C   0  0  0  0  0  0  0  0  0  0  0  0
  192.4660  175.2670  143.1350 C   0  0  0  0  0  0  0  0  0  0  0  0
  193.1710  174.2200  141.0480 C   0  0  0  0  0  2  0  0  0  0  0  0
  194.9630  176.7880  141.3720 C   0  0  0  0  0  1  0  0  0  0  0  0
  195.2510  174.5660  144.3190 C   0  0  0  0  0  2  0  0  0  0  0  0
  187.9300  176.6290  144.2070 C   0  0  2  0  0  3  0  0  0  0  0  0
  186.2690  176.9770  141.4940 C   0  0  0  0  0  2  0  0  0  0  0  0
  191.2690  175.6890  142.6980 C   0  0  0  0  0  3  0  0  0  0  0  0
  193.9760  174.4800  145.1550 C   0  0  0  0  0  2  0  0  0  0  0  0
  188.9500  176.6000  143.0710 C   0  0  1  0  0  3  0  0  0  0  0  0
  186.1510  177.8920  145.2550 C   0  0  0  0  0  2  0  0  0  0  0  0
  192.7510  175.1940  144.6110 C   0  0  0  0  0  0  0  0  0  0  0  0
  195.2970  175.8100  143.5670 N   0  0  0  0  0  2  0  0  0  0  0  0
  186.3340  177.9380  142.6760 C   0  0  2  0  0  3  0  0  0  0  0  0
  190.5620  176.2200  145.0080 C   0  0  2  0  0  3  0  0  0  0  0  0
  193.4960  174.9330  142.1230 C   0  0  0  0  0  0  0  0  0  0  0  0
  190.2340  176.0970  143.6020 N   0  0  0  0  0  0  0  0  0  0  0  0
  191.1930  176.4760  147.7860 C   0  0  0  0  0  3  0  0  0  0  0  0
  187.6490  176.6220  140.9530 C   0  0  0  0  0  2  0  0  0  0  0  0
  192.0650  175.5460  146.9870 C   0  0  0  0  0  3  0  0  0  0  0  0
  188.4360  175.7480  141.9190 C   0  0  0  0  0  2  0  0  0  0  0  0
  186.5040  177.1240  143.9730 C   0  0  1  0  0  3  0  0  0  0  0  0
  190.0980  177.0420  147.2740 C   0  0  0  0  0  3  0  0  0  0  0  0
  188.4890  177.4930  145.2980 C   0  0  2  0  0  3  0  0  0  0  0  0
  185.0450  178.7470  142.6740 C   0  0  0  0  0  2  0  0  0  0  0  0
  184.3590  178.5810  141.4020 N   0  0  0  0  0  2  0  0  0  0  0  0
  181.4390  179.5230  142.2000 O   0  0  0  0  0  0  0  0  0  0  0  0
  182.1830  178.0630  140.4980 C   0  0  0  0  0  2  0  0  0  0  0  0
  183.0970  177.9180  141.6800 C   0  0  2  0  0  3  0  0  0  0  0  0
  181.0250  178.8770  141.0260 C   0  0  0  0  0  2  0  0  0  0  0  0
  182.3750  178.6580  142.7830 C   0  0  0  0  0  2  0  0  0  0  0  0
  1 26  2  0  0  0  0
  3  7  1  6  0  0  0
  3 16  1  0  0  0  0
  4 23  1  0  0  0  0
  5 15  1  0  0  0  0
  6 19  2  0  0  0  0
  8 12  1  0  0  0  0
  9 27  1  0  0  0  0
 10 17  1  0  0  0  0
 11  5  2  0  0  0  0
 11 20  1  0  0  0  0
 13 20  1  0  0  0  0
 13  9  1  0  0  0  0
 14  2  1  0  0  0  0
 15 12  1  0  0  0  0
 15  4  2  0  0  0  0
 16  8  1  0  0  0  0
 17 25  1  0  0  0  0
 18  4  1  0  0  0  0
 18  1  1  0  0  0  0
 19  3  1  0  0  0  0
 19  5  1  0  0  0  0
 20 18  1  0  0  0  0
 22 10  1  0  0  0  0
 22 24  1  0  0  0  0
 23 21  2  0  0  0  0
 24 13  1  0  0  0  0
 25  9  1  0  0  0  0
 25 14  1  0  0  0  0
 26 21  1  0  0  0  0
 27  1  1  0  0  0  0
 27  2  1  0  0  0  0
 28 17  1  0  0  0  0
 29 32  1  0  0  0  0
 29 28  1  0  0  0  0
 30 34  1  0  0  0  0
 31 33  1  0  0  0  0
 31 32  1  0  0  0  0
 32 34  1  0  0  0  0
 33 30  1  0  0  0  0
M  END
>  <MODEL>
7

>  <REMARK>
 VINA RESULT:      -7.8      2.460      3.235
  Name = 
  3 active torsions:
  status: ('A' for Active; 'I' for Inactive)
    1  A    between atoms: C_17  and  C_28
    2  A    between atoms: C_28  and  N_29
    3  A    between atoms: N_29  and  C_32
                            x       y       z     vdW  Elec       q    Type
                         _______ _______ _______ _____ _____    ______ ____

>  <TORSDO>
F 3

$$$$
=
 OpenBabel11112417483D

 34 40  0  0  1  0  0  0  0  0999 V2000
  190.9930  174.0320  141.3850 C   0  0  0  0  0  0  0  0  0  0  0  0
  188.4380  174.3210  141.2710 C   0  0  0  0  0  2  0  0  0  0  0  0
  196.7370  174.6220  144.3160 C   0  0  1  0  0  3  0  0  0  0  0  0
  193.4500  174.0800  141.3100 C   0  0  0  0  0  0  0  0  0  0  0  0
  194.5620  175.3810  143.0950 C   0  0  0  0  0  0  0  0  0  0  0  0
  195.9920  176.9420  144.3050 C   0  0  0  0  0  2  0  0  0  0  0  0
  196.3760  174.1540  145.7150 C   0  0  0  0  0  1  0  0  0  0  0  0
  197.1320  173.9480  142.0970 C   0  0  0  0  0  2  0  0  0  0  0  0
  189.7850  175.9030  142.3920 C   0  0  2  0  0  3  0  0  0  0  0  0
  188.6150  177.9150  144.5890 C   0  0  0  0  0  2  0  0  0  0  0  0
  193.3920  175.8720  143.5340 C   0  0  0  0  0  3  0  0  0  0  0  0
  195.9090  174.1270  141.2000 C   0  0  0  0  0  2  0  0  0  0  0  0
  190.8840  176.0860  143.4370 C   0  0  1  0  0  3  0  0  0  0  0  0
  187.4860  175.2530  142.0120 C   0  0  0  0  0  2  0  0  0  0  0  0
  194.6030  174.4870  141.8850 C   0  0  0  0  0  0  0  0  0  0  0  0
  196.7430  173.4740  143.4160 N   0  0  0  0  0  2  0  0  0  0  0  0
  188.0510  176.5610  144.1710 C   0  0  2  0  0  3  0  0  0  0  0  0
  192.1540  174.5480  141.8510 C   0  0  0  0  0  0  0  0  0  0  0  0
  195.7840  175.7030  143.8690 C   0  0  0  0  0  0  0  0  0  0  0  0
  192.1510  175.5590  142.8890 N   0  0  0  0  0  0  0  0  0  0  0  0
  192.1380  172.5480  139.8060 C   0  0  0  0  0  3  0  0  0  0  0  0
  190.0770  177.8320  145.0110 C   0  0  0  0  0  2  0  0  0  0  0  0
  193.4510  173.2410  140.0510 C   0  0  0  0  0  2  0  0  0  0  0  0
  190.9990  177.5520  143.8330 C   0  0  0  0  0  2  0  0  0  0  0  0
  188.3490  176.3370  142.6760 C   0  0  1  0  0  3  0  0  0  0  0  0
  191.0070  172.9340  140.4000 C   0  0  0  0  0  3  0  0  0  0  0  0
  189.7150  174.4430  142.0580 C   0  0  2  0  0  3  0  0  0  0  0  0
  186.5560  176.5850  144.4580 C   0  0  0  0  0  2  0  0  0  0  0  0
  186.0880  177.9600  144.5310 N   0  0  0  0  0  2  0  0  0  0  0  0
  186.1400  177.1090  147.5850 O   0  0  0  0  0  0  0  0  0  0  0  0
  185.5590  179.1560  146.5570 C   0  0  0  0  0  2  0  0  0  0  0  0
  185.1570  178.0360  145.6430 C   0  0  2  0  0  3  0  0  0  0  0  0
  185.9040  178.4650  147.8550 C   0  0  0  0  0  2  0  0  0  0  0  0
  185.3020  176.8020  146.5030 C   0  0  0  0  0  2  0  0  0  0  0  0
  1 18  2  0  0  0  0
  1 27  1  0  0  0  0
  2 14  1  0  0  0  0
  2 27  1  0  0  0  0
  3  7  1  1  0  0  0
  4 18  1  0  0  0  0
  4 15  2  0  0  0  0
  5 11  2  0  0  0  0
  5 19  1  0  0  0  0
  8 16  1  0  0  0  0
  9 25  1  0  0  0  0
  9 13  1  0  0  0  0
 10 22  1  0  0  0  0
 12 15  1  0  0  0  0
 12  8  1  0  0  0  0
 13 24  1  0  0  0  0
 14 25  1  0  0  0  0
 15  5  1  0  0  0  0
 16  3  1  0  0  0  0
 17 28  1  0  0  0  0
 17 10  1  0  0  0  0
 18 20  1  0  0  0  0
 19  6  2  0  0  0  0
 19  3  1  0  0  0  0
 20 13  1  0  0  0  0
 20 11  1  0  0  0  0
 21 23  1  0  0  0  0
 21 26  2  0  0  0  0
 23  4  1  0  0  0  0
 24 22  1  0  0  0  0
 25 17  1  0  0  0  0
 26  1  1  0  0  0  0
 27  9  1  0  0  0  0
 28 29  1  0  0  0  0
 29 32  1  0  0  0  0
 30 33  1  0  0  0  0
 31 33  1  0  0  0  0
 32 34  1  0  0  0  0
 32 31  1  0  0  0  0
 34 30  1  0  0  0  0
M  END
>  <MODEL>
8

>  <REMARK>
 VINA RESULT:      -7.6      1.430      3.727
  Name = 
  3 active torsions:
  status: ('A' for Active; 'I' for Inactive)
    1  A    between atoms: C_17  and  C_28
    2  A    between atoms: C_28  and  N_29
    3  A    between atoms: N_29  and  C_32
                            x       y       z     vdW  Elec       q    Type
                         _______ _______ _______ _____ _____    ______ ____

>  <TORSDO>
F 3

$$$$
=
 OpenBabel11112417483D

 34 40  0  0  1  0  0  0  0  0999 V2000
  190.9100  172.2110  142.8510 C   0  0  0  0  0  0  0  0  0  0  0  0
  189.1370  174.0610  142.6020 C   0  0  0  0  0  2  0  0  0  0  0  0
  195.5570  169.0770  146.0920 C   0  0  1  0  0  3  0  0  0  0  0  0
  192.8310  170.6780  142.9080 C   0  0  0  0  0  0  0  0  0  0  0  0
  194.4300  171.0170  144.7640 C   0  0  0  0  0  0  0  0  0  0  0  0
  196.4680  171.3380  146.0650 C   0  0  0  0  0  2  0  0  0  0  0  0
  194.9140  168.9840  147.4640 C   0  0  0  0  0  1  0  0  0  0  0  0
  195.5370  168.2480  143.8900 C   0  0  0  0  0  2  0  0  0  0  0  0
  191.1290  174.4480  143.8110 C   0  0  2  0  0  3  0  0  0  0  0  0
  191.4090  176.8010  145.9630 C   0  0  0  0  0  2  0  0  0  0  0  0
  193.8240  172.1520  145.1440 C   0  0  0  0  0  3  0  0  0  0  0  0
  194.7550  169.1430  142.9300 C   0  0  0  0  0  2  0  0  0  0  0  0
  192.0390  173.9150  144.9160 C   0  0  1  0  0  3  0  0  0  0  0  0
  188.9650  175.4050  143.3020 C   0  0  0  0  0  2  0  0  0  0  0  0
  193.9490  170.2710  143.5480 C   0  0  0  0  0  0  0  0  0  0  0  0
  194.8720  168.1660  145.1810 N   0  0  0  0  0  2  0  0  0  0  0  0
  190.1310  176.1080  145.5010 C   0  0  2  0  0  3  0  0  0  0  0  0
  192.1080  171.8800  143.3830 C   0  0  0  0  0  0  0  0  0  0  0  0
  195.5370  170.5050  145.6050 C   0  0  0  0  0  0  0  0  0  0  0  0
  192.7020  172.6870  144.4300 N   0  0  0  0  0  0  0  0  0  0  0  0
  190.9170  170.2980  141.3200 C   0  0  0  0  0  3  0  0  0  0  0  0
  192.4590  175.8150  146.4620 C   0  0  0  0  0  2  0  0  0  0  0  0
  192.3570  170.0000  141.6420 C   0  0  0  0  0  2  0  0  0  0  0  0
  193.0440  174.9800  145.3330 C   0  0  0  0  0  2  0  0  0  0  0  0
  190.2890  175.7060  144.0220 C   0  0  1  0  0  3  0  0  0  0  0  0
  190.2670  171.3320  141.8560 C   0  0  0  0  0  3  0  0  0  0  0  0
  190.1580  173.3610  143.4580 C   0  0  2  0  0  3  0  0  0  0  0  0
  188.9850  177.0870  145.7080 C   0  0  0  0  0  2  0  0  0  0  0  0
  188.2590  176.7500  146.9220 N   0  0  0  0  0  2  0  0  0  0  0  0
  185.7710  178.6620  147.3740 O   0  0  0  0  0  0  0  0  0  0  0  0
  186.5890  177.6220  145.4160 C   0  0  0  0  0  2  0  0  0  0  0  0
  186.8480  176.7110  146.5810 C   0  0  2  0  0  3  0  0  0  0  0  0
  185.6660  178.6800  145.9750 C   0  0  0  0  0  2  0  0  0  0  0  0
  186.0440  177.3270  147.7030 C   0  0  0  0  0  2  0  0  0  0  0  0
  1 18  2  0  0  0  0
  1 27  1  0  0  0  0
  2 14  1  0  0  0  0
  2 27  1  0  0  0  0
  3  7  1  1  0  0  0
  4 18  1  0  0  0  0
  4 15  2  0  0  0  0
  5 11  2  0  0  0  0
  5 19  1  0  0  0  0
  8 16  1  0  0  0  0
  9 25  1  0  0  0  0
  9 13  1  0  0  0  0
 10 22  1  0  0  0  0
 12 15  1  0  0  0  0
 12  8  1  0  0  0  0
 13 24  1  0  0  0  0
 14 25  1  0  0  0  0
 15  5  1  0  0  0  0
 16  3  1  0  0  0  0
 17 28  1  0  0  0  0
 17 10  1  0  0  0  0
 18 20  1  0  0  0  0
 19  6  2  0  0  0  0
 19  3  1  0  0  0  0
 20 13  1  0  0  0  0
 20 11  1  0  0  0  0
 21 23  1  0  0  0  0
 21 26  2  0  0  0  0
 23  4  1  0  0  0  0
 24 22  1  0  0  0  0
 25 17  1  0  0  0  0
 26  1  1  0  0  0  0
 27  9  1  0  0  0  0
 28 29  1  0  0  0  0
 30 34  1  0  0  0  0
 31 33  1  0  0  0  0
 31 32  1  0  0  0  0
 32 29  1  0  0  0  0
 32 34  1  0  0  0  0
 33 30  1  0  0  0  0
M  END
>  <MODEL>
9

>  <REMARK>
 VINA RESULT:      -7.4      3.143      5.009
  Name = 
  3 active torsions:
  status: ('A' for Active; 'I' for Inactive)
    1  A    between atoms: C_17  and  C_28
    2  A    between atoms: C_28  and  N_29
    3  A    between atoms: N_29  and  C_32
                            x       y       z     vdW  Elec       q    Type
                         _______ _______ _______ _____ _____    ______ ____

>  <TORSDO>
F 3

$$$$
