=
 OpenBabel11112416443D

 32 37  0  0  1  0  0  0  0  0999 V2000
  186.8230  177.8130  146.8280 C   0  0  0  0  0  2  0  0  0  0  0  0
  191.0290  175.6120  144.6000 C   0  0  2  0  0  3  0  0  0  0  0  0
  190.2150  173.7140  140.1870 C   0  0  0  0  0  3  0  0  0  0  0  0
  191.5410  173.3050  140.0720 C   0  0  0  0  0  3  0  0  0  0  0  0
  193.4450  175.6800  145.3660 C   0  0  0  0  0  0  0  0  0  0  0  0
  194.9150  175.5990  145.0500 C   0  0  1  0  0  3  0  0  0  0  0  0
  189.2450  177.1480  145.4750 C   0  0  1  0  0  3  0  0  0  0  0  0
  188.8230  175.8350  143.3940 N   0  0  0  0  0  2  0  0  0  0  0  0
  196.5550  174.7300  143.6560 C   0  0  2  0  0  3  0  0  0  0  0  0
  186.8930  176.9580  144.3940 C   0  0  0  0  0  2  0  0  0  0  0  0
  189.8080  174.3990  141.2870 N   0  0  0  0  0  0  0  0  0  0  0  0
  190.1830  175.3830  143.3720 C   0  0  0  0  0  0  0  0  0  0  0  0
  190.6540  174.7080  142.3110 C   0  0  0  0  0  0  0  0  0  0  0  0
  192.8990  174.6780  143.1840 C   0  0  0  0  0  0  0  0  0  0  0  0
  196.8980  174.3220  145.0850 C   0  0  0  0  0  2  0  0  0  0  0  0
  187.3740  176.4100  147.1030 C   0  0  0  0  0  2  0  0  0  0  0  0
  188.4080  176.9910  144.1850 C   0  0  1  0  0  3  0  0  0  0  0  0
  195.6540  174.5920  145.8930 C   0  0  0  0  0  2  0  0  0  0  0  0
  188.8260  176.2330  146.6380 C   0  0  0  0  0  2  0  0  0  0  0  0
  186.3890  178.0330  145.3640 C   0  0  1  0  0  3  0  0  0  0  0  0
  192.4380  173.6190  141.0890 C   0  0  0  0  0  3  0  0  0  0  0  0
  192.0170  174.3310  142.2240 C   0  0  0  0  0  0  0  0  0  0  0  0
  194.3390  174.2580  143.1120 C   0  0  0  0  0  2  0  0  0  0  0  0
  190.7350  177.0020  145.1700 C   0  0  0  0  0  2  0  0  0  0  0  0
  193.0860  176.0080  146.5310 O   0  0  0  0  0  0  0  0  0  0  0  0
  197.5630  175.7480  143.1580 C   0  0  0  0  0  1  0  0  0  0  0  0
  192.4630  175.4020  144.3480 N   0  0  0  0  0  0  0  0  0  0  0  0
  195.2130  175.3090  143.6400 N   0  0  1  0  0  0  0  0  0  0  0  0
  184.8730  178.0970  145.2770 C   0  0  0  0  0  2  0  0  0  0  0  0
  184.4420  179.0630  144.2280 C   0  0  0  0  0  0  0  0  0  0  0  0
  184.9990  180.1890  144.1430 O   0  0  0  0  0  1  0  0  0  0  0  0
  183.4460  178.7130  143.3260 O   0  0  0  0  0  0  0  0  0  0  0  0
  1 16  1  0  0  0  0
  2 24  1  6  0  0  0
  3 11  2  0  0  0  0
  4  3  1  0  0  0  0
  4 21  2  0  0  0  0
  5 25  2  0  0  0  0
  6  5  1  0  0  0  0
  6 18  1  1  0  0  0
  7 24  1  6  0  0  0
  7 19  1  0  0  0  0
  8 17  1  0  0  0  0
  9 26  1  1  0  0  0
  9 15  1  0  0  0  0
 10 20  1  0  0  0  0
 11 13  1  0  0  0  0
 12  8  1  0  0  0  0
 12  2  1  0  0  0  0
 13 12  2  0  0  0  0
 14 27  1  0  0  0  0
 15 18  1  0  0  0  0
 17 10  1  1  0  0  0
 17  7  1  0  0  0  0
 19 16  1  0  0  0  0
 20 29  1  1  0  0  0
 20  1  1  0  0  0  0
 21 22  1  0  0  0  0
 22 13  1  0  0  0  0
 22 14  2  0  0  0  0
 23 14  1  0  0  0  0
 27  2  1  0  0  0  0
 27  5  1  0  0  0  0
 28 23  1  1  0  0  0
 28  9  1  0  0  0  0
 28  6  1  0  0  0  0
 30 29  1  0  0  0  0
 31 30  1  0  0  0  0
 32 30  2  0  0  0  0
M  END
>  <MODEL>
1

>  <REMARK>
 VINA RESULT:      -8.8      0.000      0.000
  Name = 
  2 active torsions:
  status: ('A' for Active; 'I' for Inactive)
    1  A    between atoms: C_20  and  C_29
    2  A    between atoms: C_29  and  C_30
                            x       y       z     vdW  Elec       q    Type
                         _______ _______ _______ _____ _____    ______ ____

>  <TORSDO>
F 2

$$$$
=
 OpenBabel11112416443D

 32 37  0  0  1  0  0  0  0  0999 V2000
  184.9580  178.7520  144.5240 C   0  0  0  0  0  2  0  0  0  0  0  0
  189.4430  176.0750  144.0600 C   0  0  2  0  0  3  0  0  0  0  0  0
  189.4310  172.7130  140.5330 C   0  0  0  0  0  3  0  0  0  0  0  0
  190.7410  172.3430  140.8240 C   0  0  0  0  0  3  0  0  0  0  0  0
  191.6680  176.5040  145.1970 C   0  0  0  0  0  0  0  0  0  0  0  0
  193.1680  176.3750  145.2150 C   0  0  1  0  0  3  0  0  0  0  0  0
  187.5720  177.7490  143.9790 C   0  0  1  0  0  3  0  0  0  0  0  0
  187.5160  175.7710  142.4570 N   0  0  0  0  0  2  0  0  0  0  0  0
  195.0180  175.1360  144.5570 C   0  0  2  0  0  3  0  0  0  0  0  0
  185.4660  177.0970  142.6100 C   0  0  0  0  0  2  0  0  0  0  0  0
  188.8420  173.7250  141.2210 N   0  0  0  0  0  0  0  0  0  0  0  0
  188.8410  175.3950  142.8550 C   0  0  0  0  0  0  0  0  0  0  0  0
  189.4860  174.4080  142.2110 C   0  0  0  0  0  0  0  0  0  0  0  0
  191.5190  174.7770  143.4480 C   0  0  0  0  0  0  0  0  0  0  0  0
  195.0670  175.2720  146.0740 C   0  0  0  0  0  2  0  0  0  0  0  0
  185.4020  177.5590  145.3760 C   0  0  0  0  0  2  0  0  0  0  0  0
  186.9930  177.1150  142.6940 C   0  0  1  0  0  3  0  0  0  0  0  0
  193.7000  175.7600  146.4830 C   0  0  0  0  0  2  0  0  0  0  0  0
  186.9100  177.2870  145.2880 C   0  0  0  0  0  2  0  0  0  0  0  0
  184.8190  178.4240  143.0220 C   0  0  1  0  0  3  0  0  0  0  0  0
  191.4370  173.0300  141.8150 C   0  0  0  0  0  3  0  0  0  0  0  0
  190.8270  174.0790  142.5230 C   0  0  0  0  0  0  0  0  0  0  0  0
  192.9330  174.4150  143.8040 C   0  0  0  0  0  2  0  0  0  0  0  0
  189.0880  177.5640  144.0350 C   0  0  0  0  0  2  0  0  0  0  0  0
  191.1030  177.2060  146.0790 O   0  0  0  0  0  0  0  0  0  0  0  0
  196.1330  175.9520  143.9320 C   0  0  0  0  0  1  0  0  0  0  0  0
  190.8910  175.8470  144.1760 N   0  0  0  0  0  0  0  0  0  0  0  0
  193.7220  175.6180  144.0820 N   0  0  1  0  0  0  0  0  0  0  0  0
  183.3500  178.3940  142.6320 C   0  0  0  0  0  2  0  0  0  0  0  0
  183.1960  178.2880  141.1530 C   0  0  0  0  0  0  0  0  0  0  0  0
  182.1780  177.7310  140.6650 O   0  0  0  0  0  1  0  0  0  0  0  0
  184.1600  178.8270  140.3140 O   0  0  0  0  0  0  0  0  0  0  0  0
  1 16  1  0  0  0  0
  2 24  1  6  0  0  0
  2 27  1  0  0  0  0
  3  4  1  0  0  0  0
  3 11  2  0  0  0  0
  4 21  2  0  0  0  0
  5  6  1  0  0  0  0
  5 25  2  0  0  0  0
  6 18  1  1  0  0  0
  7 24  1  1  0  0  0
  7 19  1  0  0  0  0
  8 17  1  0  0  0  0
  8 12  1  0  0  0  0
  9 26  1  6  0  0  0
  9 15  1  0  0  0  0
 10 20  1  0  0  0  0
 11 13  1  0  0  0  0
 12  2  1  0  0  0  0
 13 22  1  0  0  0  0
 13 12  2  0  0  0  0
 14 23  1  0  0  0  0
 14 27  1  0  0  0  0
 15 18  1  0  0  0  0
 17 10  1  1  0  0  0
 17  7  1  0  0  0  0
 19 16  1  0  0  0  0
 20 29  1  1  0  0  0
 20  1  1  0  0  0  0
 21 22  1  0  0  0  0
 22 14  2  0  0  0  0
 27  5  1  0  0  0  0
 28 23  1  1  0  0  0
 28  9  1  0  0  0  0
 28  6  1  0  0  0  0
 30 29  1  0  0  0  0
 31 30  1  0  0  0  0
 32 30  2  0  0  0  0
M  END
>  <MODEL>
2

>  <REMARK>
 VINA RESULT:      -8.7      1.636      2.277
  Name = 
  2 active torsions:
  status: ('A' for Active; 'I' for Inactive)
    1  A    between atoms: C_20  and  C_29
    2  A    between atoms: C_29  and  C_30
                            x       y       z     vdW  Elec       q    Type
                         _______ _______ _______ _____ _____    ______ ____

>  <TORSDO>
F 2

$$$$
=
 OpenBabel11112416443D

 32 37  0  0  1  0  0  0  0  0999 V2000
  185.6130  178.4280  142.9210 C   0  0  0  0  0  2  0  0  0  0  0  0
  189.3290  174.8050  142.1650 C   0  0  2  0  0  3  0  0  0  0  0  0
  192.5530  174.4320  145.7990 C   0  0  0  0  0  3  0  0  0  0  0  0
  193.2430  173.4190  145.1390 C   0  0  0  0  0  3  0  0  0  0  0  0
  189.4810  173.0500  140.3420 C   0  0  0  0  0  0  0  0  0  0  0  0
  189.9840  171.7160  139.8560 C   0  0  1  0  0  3  0  0  0  0  0  0
  187.2370  176.0940  142.6880 C   0  0  1  0  0  3  0  0  0  0  0  0
  189.1270  176.1030  144.3210 N   0  0  0  0  0  2  0  0  0  0  0  0
  191.6430  170.0980  139.9970 C   0  0  2  0  0  3  0  0  0  0  0  0
  187.3280  177.7150  144.7120 C   0  0  0  0  0  2  0  0  0  0  0  0
  191.4310  174.9610  145.2460 N   0  0  0  0  0  0  0  0  0  0  0  0
  189.8260  175.1140  143.5550 C   0  0  0  0  0  0  0  0  0  0  0  0
  190.9390  174.5420  144.0450 C   0  0  0  0  0  0  0  0  0  0  0  0
  191.1030  173.0090  142.1950 C   0  0  0  0  0  0  0  0  0  0  0  0
  191.5350  170.5260  138.5380 C   0  0  0  0  0  2  0  0  0  0  0  0
  186.8860  178.5850  142.0820 C   0  0  0  0  0  2  0  0  0  0  0  0
  187.6960  176.3440  144.1430 C   0  0  1  0  0  3  0  0  0  0  0  0
  190.7220  171.7960  138.5450 C   0  0  0  0  0  2  0  0  0  0  0  0
  187.5280  177.2420  141.7070 C   0  0  0  0  0  2  0  0  0  0  0  0
  185.8840  178.1320  144.4100 C   0  0  1  0  0  3  0  0  0  0  0  0
  192.7610  172.9530  143.9190 C   0  0  0  0  0  3  0  0  0  0  0  0
  191.5970  173.4980  143.3510 C   0  0  0  0  0  0  0  0  0  0  0  0
  191.8110  171.9210  141.4390 C   0  0  0  0  0  2  0  0  0  0  0  0
  187.7980  174.7710  142.1670 C   0  0  0  0  0  2  0  0  0  0  0  0
  188.6660  173.6950  139.6270 O   0  0  0  0  0  0  0  0  0  0  0  0
  191.1290  168.6810  140.1550 C   0  0  0  0  0  1  0  0  0  0  0  0
  189.9150  173.5740  141.6120 N   0  0  0  0  0  0  0  0  0  0  0  0
  190.8470  171.0110  140.8160 N   0  0  1  0  0  0  0  0  0  0  0  0
  185.5420  179.3510  145.2510 C   0  0  0  0  0  2  0  0  0  0  0  0
  185.1930  178.9530  146.6450 C   0  0  0  0  0  0  0  0  0  0  0  0
  184.2380  178.1590  146.8520 O   0  0  0  0  0  0  0  0  0  0  0  0
  185.9360  179.4350  147.7120 O   0  0  0  0  0  1  0  0  0  0  0  0
  1 20  1  0  0  0  0
  2 24  1  1  0  0  0
  2 12  1  0  0  0  0
  4  3  1  0  0  0  0
  5 27  1  0  0  0  0
  6 18  1  6  0  0  0
  6  5  1  0  0  0  0
  6 28  1  0  0  0  0
  7 19  1  6  0  0  0
  7 17  1  0  0  0  0
  9 26  1  6  0  0  0
  9 28  1  0  0  0  0
 11  3  2  0  0  0  0
 12 13  2  0  0  0  0
 12  8  1  0  0  0  0
 13 11  1  0  0  0  0
 14 22  2  0  0  0  0
 15 18  1  0  0  0  0
 15  9  1  0  0  0  0
 16  1  1  0  0  0  0
 17  8  1  0  0  0  0
 17 10  1  6  0  0  0
 19 16  1  0  0  0  0
 20 10  1  0  0  0  0
 20 29  1  1  0  0  0
 21  4  2  0  0  0  0
 22 21  1  0  0  0  0
 22 13  1  0  0  0  0
 23 14  1  0  0  0  0
 24  7  1  0  0  0  0
 25  5  2  0  0  0  0
 27  2  1  0  0  0  0
 27 14  1  0  0  0  0
 28 23  1  6  0  0  0
 29 30  1  0  0  0  0
 30 31  2  0  0  0  0
 30 32  1  0  0  0  0
M  END
>  <MODEL>
3

>  <REMARK>
 VINA RESULT:      -8.0      2.766      5.218
  Name = 
  2 active torsions:
  status: ('A' for Active; 'I' for Inactive)
    1  A    between atoms: C_20  and  C_29
    2  A    between atoms: C_29  and  C_30
                            x       y       z     vdW  Elec       q    Type
                         _______ _______ _______ _____ _____    ______ ____

>  <TORSDO>
F 2

$$$$
=
 OpenBabel11112416443D

 32 37  0  0  1  0  0  0  0  0999 V2000
  184.8330  177.7850  143.7050 C   0  0  0  0  0  2  0  0  0  0  0  0
  189.2140  175.4780  141.9780 C   0  0  2  0  0  3  0  0  0  0  0  0
  193.2250  176.6190  144.4980 C   0  0  0  0  0  3  0  0  0  0  0  0
  194.0150  175.8050  143.6910 C   0  0  0  0  0  3  0  0  0  0  0  0
  189.4600  173.6480  140.2400 C   0  0  0  0  0  0  0  0  0  0  0  0
  190.2390  172.4950  139.6640 C   0  0  1  0  0  3  0  0  0  0  0  0
  187.0310  176.0840  143.0630 C   0  0  1  0  0  3  0  0  0  0  0  0
  189.1700  176.9040  144.0600 N   0  0  0  0  0  2  0  0  0  0  0  0
  192.3240  171.5250  139.3490 C   0  0  2  0  0  3  0  0  0  0  0  0
  187.1050  177.8920  144.9250 C   0  0  0  0  0  2  0  0  0  0  0  0
  191.8840  176.6870  144.2900 N   0  0  0  0  0  0  0  0  0  0  0  0
  189.9320  176.1030  143.1490 C   0  0  0  0  0  0  0  0  0  0  0  0
  191.2610  175.9840  143.3010 C   0  0  0  0  0  0  0  0  0  0  0  0
  191.4340  174.3630  141.5280 C   0  0  0  0  0  0  0  0  0  0  0  0
  191.6870  171.7070  137.9760 C   0  0  0  0  0  2  0  0  0  0  0  0
  185.6970  178.2340  142.5220 C   0  0  0  0  0  2  0  0  0  0  0  0
  187.7520  176.6500  144.3090 C   0  0  1  0  0  3  0  0  0  0  0  0
  190.5220  172.6400  138.1910 C   0  0  0  0  0  2  0  0  0  0  0  0
  186.6340  177.1310  142.0100 C   0  0  0  0  0  2  0  0  0  0  0  0
  185.5810  177.7830  145.0540 C   0  0  1  0  0  3  0  0  0  0  0  0
  193.4110  175.0580  142.6820 C   0  0  0  0  0  3  0  0  0  0  0  0
  192.0240  175.1260  142.4720 C   0  0  0  0  0  0  0  0  0  0  0  0
  192.2400  173.4730  140.6260 C   0  0  0  0  0  2  0  0  0  0  0  0
  187.8500  174.9560  142.4350 C   0  0  0  0  0  2  0  0  0  0  0  0
  188.3130  173.9020  139.7820 O   0  0  0  0  0  0  0  0  0  0  0  0
  192.3910  170.0490  139.6910 C   0  0  0  0  0  1  0  0  0  0  0  0
  190.0140  174.4390  141.3100 N   0  0  0  0  0  0  0  0  0  0  0  0
  191.5170  172.2310  140.3420 N   0  0  1  0  0  0  0  0  0  0  0  0
  185.0820  178.9240  145.9250 C   0  0  0  0  0  2  0  0  0  0  0  0
  185.6740  178.8470  147.2910 C   0  0  0  0  0  0  0  0  0  0  0  0
  186.1150  179.8880  147.8460 O   0  0  0  0  0  0  0  0  0  0  0  0
  185.7140  177.6340  147.9640 O   0  0  0  0  0  1  0  0  0  0  0  0
  1 20  1  0  0  0  0
  2 24  1  1  0  0  0
  2 12  1  0  0  0  0
  4  3  1  0  0  0  0
  5 27  1  0  0  0  0
  6 18  1  6  0  0  0
  6  5  1  0  0  0  0
  6 28  1  0  0  0  0
  7 19  1  6  0  0  0
  7 17  1  0  0  0  0
  8 17  1  0  0  0  0
  9 26  1  1  0  0  0
  9 28  1  0  0  0  0
 10 20  1  0  0  0  0
 11  3  2  0  0  0  0
 12 13  2  0  0  0  0
 12  8  1  0  0  0  0
 13 11  1  0  0  0  0
 14 22  2  0  0  0  0
 15 18  1  0  0  0  0
 15  9  1  0  0  0  0
 16  1  1  0  0  0  0
 17 10  1  6  0  0  0
 19 16  1  0  0  0  0
 20 29  1  1  0  0  0
 21  4  2  0  0  0  0
 22 21  1  0  0  0  0
 22 13  1  0  0  0  0
 23 14  1  0  0  0  0
 24  7  1  0  0  0  0
 25  5  2  0  0  0  0
 27 14  1  0  0  0  0
 27  2  1  0  0  0  0
 28 23  1  6  0  0  0
 29 30  1  0  0  0  0
 30 31  2  0  0  0  0
 30 32  1  0  0  0  0
M  END
>  <MODEL>
4

>  <REMARK>
 VINA RESULT:      -7.9      2.524      4.991
  Name = 
  2 active torsions:
  status: ('A' for Active; 'I' for Inactive)
    1  A    between atoms: C_20  and  C_29
    2  A    between atoms: C_29  and  C_30
                            x       y       z     vdW  Elec       q    Type
                         _______ _______ _______ _____ _____    ______ ____

>  <TORSDO>
F 2

$$$$
=
 OpenBabel11112416443D

 32 37  0  0  1  0  0  0  0  0999 V2000
  186.2170  177.1480  142.4260 C   0  0  0  0  0  2  0  0  0  0  0  0
  190.6080  174.4490  143.3930 C   0  0  2  0  0  3  0  0  0  0  0  0
  193.7070  176.6580  146.4350 C   0  0  0  0  0  3  0  0  0  0  0  0
  194.6100  175.6020  146.3500 C   0  0  0  0  0  3  0  0  0  0  0  0
  191.1750  172.0640  142.7470 C   0  0  0  0  0  0  0  0  0  0  0  0
  191.9520  170.7970  142.9910 C   0  0  1  0  0  3  0  0  0  0  0  0
  188.2830  175.3970  143.3230 C   0  0  1  0  0  3  0  0  0  0  0  0
  190.0720  176.6200  144.5650 N   0  0  0  0  0  2  0  0  0  0  0  0
  193.8950  169.8430  143.8300 C   0  0  2  0  0  3  0  0  0  0  0  0
  187.9740  177.8230  144.1920 C   0  0  0  0  0  2  0  0  0  0  0  0
  192.5220  176.5950  145.7740 N   0  0  0  0  0  0  0  0  0  0  0  0
  190.9830  175.5300  144.3770 C   0  0  0  0  0  0  0  0  0  0  0  0
  192.1690  175.5230  145.0080 C   0  0  0  0  0  0  0  0  0  0  0  0
  192.7030  173.3110  144.2220 C   0  0  0  0  0  0  0  0  0  0  0  0
  193.7580  169.4110  142.3740 C   0  0  0  0  0  2  0  0  0  0  0  0
  187.4620  177.0790  141.5360 C   0  0  0  0  0  2  0  0  0  0  0  0
  188.6290  176.4560  144.3950 C   0  0  1  0  0  3  0  0  0  0  0  0
  192.7070  170.3140  141.7800 C   0  0  0  0  0  2  0  0  0  0  0  0
  188.3730  175.8890  141.8690 C   0  0  0  0  0  2  0  0  0  0  0  0
  186.4880  177.7360  143.8260 C   0  0  1  0  0  3  0  0  0  0  0  0
  194.2750  174.4830  145.5920 C   0  0  0  0  0  3  0  0  0  0  0  0
  193.0480  174.4170  144.9130 C   0  0  0  0  0  0  0  0  0  0  0  0
  193.6420  172.1450  144.0930 C   0  0  0  0  0  2  0  0  0  0  0  0
  189.1160  174.1320  143.5270 C   0  0  0  0  0  2  0  0  0  0  0  0
  190.2740  172.0690  141.8640 O   0  0  0  0  0  0  0  0  0  0  0  0
  193.6700  168.6530  144.7420 C   0  0  0  0  0  1  0  0  0  0  0  0
  191.4480  173.2480  143.5210 N   0  0  0  0  0  0  0  0  0  0  0  0
  192.9030  170.8800  144.1100 N   0  0  1  0  0  0  0  0  0  0  0  0
  185.8770  179.1250  143.9320 C   0  0  0  0  0  2  0  0  0  0  0  0
  184.4830  179.0530  144.4540 C   0  0  0  0  0  0  0  0  0  0  0  0
  183.5120  179.0180  143.6530 O   0  0  0  0  0  0  0  0  0  0  0  0
  184.2550  178.9980  145.8220 O   0  0  0  0  0  1  0  0  0  0  0  0
  1 20  1  0  0  0  0
  2 27  1  0  0  0  0
  2 24  1  1  0  0  0
  2 12  1  0  0  0  0
  4  3  1  0  0  0  0
  5  6  1  0  0  0  0
  5 27  1  0  0  0  0
  6 18  1  6  0  0  0
  6 28  1  0  0  0  0
  7 19  1  6  0  0  0
  7 24  1  0  0  0  0
  7 17  1  0  0  0  0
  9 28  1  0  0  0  0
  9 26  1  1  0  0  0
 11  3  2  0  0  0  0
 12  8  1  0  0  0  0
 12 13  2  0  0  0  0
 13 11  1  0  0  0  0
 14 22  2  0  0  0  0
 15  9  1  0  0  0  0
 16 19  1  0  0  0  0
 16  1  1  0  0  0  0
 17 10  1  6  0  0  0
 17  8  1  0  0  0  0
 18 15  1  0  0  0  0
 20 29  1  6  0  0  0
 20 10  1  0  0  0  0
 21  4  2  0  0  0  0
 22 13  1  0  0  0  0
 22 21  1  0  0  0  0
 23 14  1  0  0  0  0
 25  5  2  0  0  0  0
 27 14  1  0  0  0  0
 28 23  1  6  0  0  0
 29 30  1  0  0  0  0
 30 32  1  0  0  0  0
 31 30  2  0  0  0  0
M  END
>  <MODEL>
5

>  <REMARK>
 VINA RESULT:      -7.9      2.724      4.489
  Name = 
  2 active torsions:
  status: ('A' for Active; 'I' for Inactive)
    1  A    between atoms: C_20  and  C_29
    2  A    between atoms: C_29  and  C_30
                            x       y       z     vdW  Elec       q    Type
                         _______ _______ _______ _____ _____    ______ ____

>  <TORSDO>
F 2

$$$$
=
 OpenBabel11112416443D

 32 37  0  0  1  0  0  0  0  0999 V2000
  185.9110  177.7850  143.1090 C   0  0  0  0  0  2  0  0  0  0  0  0
  190.4170  175.1030  143.0460 C   0  0  2  0  0  3  0  0  0  0  0  0
  193.5390  176.3190  146.5840 C   0  0  0  0  0  3  0  0  0  0  0  0
  194.4720  175.3880  146.1380 C   0  0  0  0  0  3  0  0  0  0  0  0
  191.0400  173.0880  141.6400 C   0  0  0  0  0  0  0  0  0  0  0  0
  191.8660  171.8440  141.4390 C   0  0  1  0  0  3  0  0  0  0  0  0
  188.0610  175.9240  143.3380 C   0  0  1  0  0  3  0  0  0  0  0  0
  189.8480  176.7450  144.8770 N   0  0  0  0  0  2  0  0  0  0  0  0
  193.8650  170.7500  141.8780 C   0  0  2  0  0  3  0  0  0  0  0  0
  187.7010  177.9160  144.9630 C   0  0  0  0  0  2  0  0  0  0  0  0
  192.3360  176.4270  145.9620 N   0  0  0  0  0  0  0  0  0  0  0  0
  190.7880  175.8160  144.3230 C   0  0  0  0  0  0  0  0  0  0  0  0
  191.9930  175.6520  144.8930 C   0  0  0  0  0  0  0  0  0  0  0  0
  192.5740  173.8440  143.4120 C   0  0  0  0  0  0  0  0  0  0  0  0
  193.6950  170.8130  140.3640 C   0  0  0  0  0  2  0  0  0  0  0  0
  187.1280  178.0640  142.2210 C   0  0  0  0  0  2  0  0  0  0  0  0
  188.4070  176.5860  144.6920 C   0  0  1  0  0  3  0  0  0  0  0  0
  192.5970  171.8180  140.1210 C   0  0  0  0  0  2  0  0  0  0  0  0
  188.0880  176.8700  142.1260 C   0  0  0  0  0  2  0  0  0  0  0  0
  186.2070  177.8930  144.6190 C   0  0  1  0  0  3  0  0  0  0  0  0
  194.1500  174.5660  145.0610 C   0  0  0  0  0  3  0  0  0  0  0  0
  192.9040  174.6760  144.4220 C   0  0  0  0  0  0  0  0  0  0  0  0
  193.5460  172.8250  142.8890 C   0  0  0  0  0  2  0  0  0  0  0  0
  188.9410  174.6980  143.0980 C   0  0  0  0  0  2  0  0  0  0  0  0
  190.1110  173.3450  140.8260 O   0  0  0  0  0  0  0  0  0  0  0  0
  193.7090  169.3180  142.3520 C   0  0  0  0  0  1  0  0  0  0  0  0
  191.3000  173.9630  142.7550 N   0  0  0  0  0  0  0  0  0  0  0  0
  192.8500  171.5950  142.5030 N   0  0  1  0  0  0  0  0  0  0  0  0
  185.5560  179.1430  145.1870 C   0  0  0  0  0  2  0  0  0  0  0  0
  185.1490  178.9310  146.6050 C   0  0  0  0  0  0  0  0  0  0  0  0
  184.0970  178.2900  146.8690 O   0  0  0  0  0  0  0  0  0  0  0  0
  185.9410  179.4160  147.6360 O   0  0  0  0  0  1  0  0  0  0  0  0
  1 20  1  0  0  0  0
  2 24  1  1  0  0  0
  2 12  1  0  0  0  0
  4  3  1  0  0  0  0
  5 27  1  0  0  0  0
  6 18  1  6  0  0  0
  6  5  1  0  0  0  0
  6 28  1  0  0  0  0
  7 19  1  6  0  0  0
  7 17  1  0  0  0  0
  9 26  1  1  0  0  0
  9 28  1  0  0  0  0
 11  3  2  0  0  0  0
 12  8  1  0  0  0  0
 12 13  2  0  0  0  0
 13 11  1  0  0  0  0
 14 22  2  0  0  0  0
 15  9  1  0  0  0  0
 16  1  1  0  0  0  0
 17  8  1  0  0  0  0
 17 10  1  6  0  0  0
 18 15  1  0  0  0  0
 19 16  1  0  0  0  0
 20 10  1  0  0  0  0
 20 29  1  6  0  0  0
 21  4  2  0  0  0  0
 22 13  1  0  0  0  0
 22 21  1  0  0  0  0
 23 14  1  0  0  0  0
 24  7  1  0  0  0  0
 25  5  2  0  0  0  0
 27  2  1  0  0  0  0
 27 14  1  0  0  0  0
 28 23  1  6  0  0  0
 29 30  1  0  0  0  0
 30 31  2  0  0  0  0
 30 32  1  0  0  0  0
M  END
>  <MODEL>
6

>  <REMARK>
 VINA RESULT:      -7.7      2.454      4.453
  Name = 
  2 active torsions:
  status: ('A' for Active; 'I' for Inactive)
    1  A    between atoms: C_20  and  C_29
    2  A    between atoms: C_29  and  C_30
                            x       y       z     vdW  Elec       q    Type
                         _______ _______ _______ _____ _____    ______ ____

>  <TORSDO>
F 2

$$$$
=
 OpenBabel11112416443D

 32 37  0  0  1  0  0  0  0  0999 V2000
  187.8960  177.8570  146.5530 C   0  0  0  0  0  2  0  0  0  0  0  0
  191.5650  175.5950  143.5670 C   0  0  2  0  0  3  0  0  0  0  0  0
  189.8120  172.6910  140.0690 C   0  0  0  0  0  3  0  0  0  0  0  0
  191.0940  172.3860  139.6210 C   0  0  0  0  0  3  0  0  0  0  0  0
  194.0580  176.0470  143.5080 C   0  0  0  0  0  0  0  0  0  0  0  0
  195.3690  176.0280  142.7660 C   0  0  1  0  0  3  0  0  0  0  0  0
  189.8960  177.1240  144.6570 C   0  0  1  0  0  3  0  0  0  0  0  0
  189.0970  175.3450  143.0960 N   0  0  0  0  0  2  0  0  0  0  0  0
  196.6500  175.0180  141.1150 C   0  0  2  0  0  3  0  0  0  0  0  0
  187.3900  176.4880  144.4260 C   0  0  0  0  0  2  0  0  0  0  0  0
  189.6400  173.5660  141.0930 N   0  0  0  0  0  0  0  0  0  0  0  0
  190.4450  175.0220  142.7330 C   0  0  0  0  0  0  0  0  0  0  0  0
  190.6880  174.1710  141.7230 C   0  0  0  0  0  0  0  0  0  0  0  0
  193.0660  174.5370  141.8350 C   0  0  0  0  0  0  0  0  0  0  0  0
  197.4480  174.9720  142.4130 C   0  0  0  0  0  2  0  0  0  0  0  0
  188.7110  176.6070  146.8980 C   0  0  0  0  0  2  0  0  0  0  0  0
  188.7560  176.6080  143.7480 C   0  0  1  0  0  3  0  0  0  0  0  0
  196.4650  175.3050  143.5060 C   0  0  0  0  0  2  0  0  0  0  0  0
  189.9760  176.4590  146.0410 C   0  0  0  0  0  2  0  0  0  0  0  0
  187.0290  177.7040  145.2860 C   0  0  1  0  0  3  0  0  0  0  0  0
  192.1880  172.9980  140.2270 C   0  0  0  0  0  3  0  0  0  0  0  0
  192.0080  173.9060  141.2830 C   0  0  0  0  0  0  0  0  0  0  0  0
  194.4710  174.2400  141.3930 C   0  0  0  0  0  2  0  0  0  0  0  0
  191.2390  177.0450  143.9310 C   0  0  0  0  0  2  0  0  0  0  0  0
  194.0050  176.5940  144.6440 O   0  0  0  0  0  0  0  0  0  0  0  0
  197.3030  175.9830  140.1450 C   0  0  0  0  0  1  0  0  0  0  0  0
  192.8800  175.4620  142.9210 N   0  0  0  0  0  0  0  0  0  0  0  0
  195.2880  175.4560  141.4140 N   0  0  1  0  0  0  0  0  0  0  0  0
  185.5610  177.6120  145.6700 C   0  0  0  0  0  2  0  0  0  0  0  0
  184.8350  178.8570  145.2910 C   0  0  0  0  0  0  0  0  0  0  0  0
  183.6490  179.0360  145.6770 O   0  0  0  0  0  1  0  0  0  0  0  0
  185.4720  179.8310  144.5370 O   0  0  0  0  0  0  0  0  0  0  0  0
  1 16  1  0  0  0  0
  2 24  1  6  0  0  0
  3 11  2  0  0  0  0
  4  3  1  0  0  0  0
  4 21  2  0  0  0  0
  5 25  2  0  0  0  0
  6 18  1  1  0  0  0
  6  5  1  0  0  0  0
  7 24  1  6  0  0  0
  7 19  1  0  0  0  0
  8 17  1  0  0  0  0
  9 26  1  6  0  0  0
  9 28  1  0  0  0  0
  9 15  1  0  0  0  0
 10 20  1  0  0  0  0
 11 13  1  0  0  0  0
 12  8  1  0  0  0  0
 12  2  1  0  0  0  0
 13 12  2  0  0  0  0
 14 27  1  0  0  0  0
 15 18  1  0  0  0  0
 17 10  1  1  0  0  0
 17  7  1  0  0  0  0
 19 16  1  0  0  0  0
 20 29  1  1  0  0  0
 20  1  1  0  0  0  0
 21 22  1  0  0  0  0
 22 13  1  0  0  0  0
 22 14  2  0  0  0  0
 23 14  1  0  0  0  0
 27  5  1  0  0  0  0
 27  2  1  0  0  0  0
 28 23  1  1  0  0  0
 28  6  1  0  0  0  0
 30 29  1  0  0  0  0
 30 31  1  0  0  0  0
 32 30  2  0  0  0  0
M  END
>  <MODEL>
7

>  <REMARK>
 VINA RESULT:      -7.6      1.380      1.668
  Name = 
  2 active torsions:
  status: ('A' for Active; 'I' for Inactive)
    1  A    between atoms: C_20  and  C_29
    2  A    between atoms: C_29  and  C_30
                            x       y       z     vdW  Elec       q    Type
                         _______ _______ _______ _____ _____    ______ ____

>  <TORSDO>
F 2

$$$$
=
 OpenBabel11112416443D

 32 37  0  0  1  0  0  0  0  0999 V2000
  189.2970  173.3350  138.7260 C   0  0  0  0  0  2  0  0  0  0  0  0
  188.5800  175.2220  143.5650 C   0  0  2  0  0  3  0  0  0  0  0  0
  192.4030  174.6710  146.5340 C   0  0  0  0  0  3  0  0  0  0  0  0
  191.7310  175.2900  147.5840 C   0  0  0  0  0  3  0  0  0  0  0  0
  186.6640  176.6280  144.4480 C   0  0  0  0  0  0  0  0  0  0  0  0
  186.1310  177.6300  145.4390 C   0  0  1  0  0  3  0  0  0  0  0  0
  189.0330  174.8610  141.1210 C   0  0  1  0  0  3  0  0  0  0  0  0
  190.7940  174.2850  142.7960 N   0  0  0  0  0  2  0  0  0  0  0  0
  186.2870  178.5130  147.5800 C   0  0  2  0  0  3  0  0  0  0  0  0
  191.1580  173.5040  140.5050 C   0  0  0  0  0  2  0  0  0  0  0  0
  191.8070  174.5550  145.3190 N   0  0  0  0  0  0  0  0  0  0  0  0
  190.0190  174.8700  143.8500 C   0  0  0  0  0  0  0  0  0  0  0  0
  190.5500  175.0230  145.0740 C   0  0  0  0  0  0  0  0  0  0  0  0
  188.6220  176.2170  145.8850 C   0  0  0  0  0  0  0  0  0  0  0  0
  184.8540  178.0330  147.3800 C   0  0  0  0  0  2  0  0  0  0  0  0
  188.5640  172.6400  139.8770 C   0  0  0  0  0  2  0  0  0  0  0  0
  190.5300  174.5830  141.3890 C   0  0  1  0  0  3  0  0  0  0  0  0
  184.8840  177.1660  146.1470 C   0  0  0  0  0  2  0  0  0  0  0  0
  188.1510  173.6070  140.9960 C   0  0  0  0  0  2  0  0  0  0  0  0
  190.7810  173.6340  139.0260 C   0  0  1  0  0  3  0  0  0  0  0  0
  190.4530  175.7970  147.3660 C   0  0  0  0  0  3  0  0  0  0  0  0
  189.8390  175.6810  146.1080 C   0  0  0  0  0  0  0  0  0  0  0  0
  187.8510  176.8910  146.9840 C   0  0  0  0  0  2  0  0  0  0  0  0
  188.4700  175.8270  142.1630 C   0  0  0  0  0  2  0  0  0  0  0  0
  185.9350  176.2770  143.4810 O   0  0  0  0  0  0  0  0  0  0  0  0
  186.3170  180.0280  147.6360 C   0  0  0  0  0  1  0  0  0  0  0  0
  187.9930  176.0910  144.5970 N   0  0  0  0  0  0  0  0  0  0  0  0
  187.1030  178.0390  146.4640 N   0  0  1  0  0  0  0  0  0  0  0  0
  191.6710  172.7100  138.2110 C   0  0  0  0  0  2  0  0  0  0  0  0
  191.5740  173.0240  136.7580 C   0  0  0  0  0  0  0  0  0  0  0  0
  191.3190  172.1080  135.9320 O   0  0  0  0  0  0  0  0  0  0  0  0
  191.7370  174.3290  136.3160 O   0  0  0  0  0  1  0  0  0  0  0  0
  1 20  1  0  0  0  0
  1 16  1  0  0  0  0
  2 24  1  6  0  0  0
  2 12  1  0  0  0  0
  2 27  1  0  0  0  0
  3  4  1  0  0  0  0
  5 27  1  0  0  0  0
  5  6  1  0  0  0  0
  6 18  1  1  0  0  0
  6 28  1  0  0  0  0
  7 19  1  1  0  0  0
  7 17  1  0  0  0  0
  7 24  1  0  0  0  0
  8 12  1  0  0  0  0
  9 26  1  6  0  0  0
 11  3  2  0  0  0  0
 12 13  2  0  0  0  0
 13 11  1  0  0  0  0
 13 22  1  0  0  0  0
 14 22  2  0  0  0  0
 14 23  1  0  0  0  0
 15  9  1  0  0  0  0
 16 19  1  0  0  0  0
 17 10  1  6  0  0  0
 17  8  1  0  0  0  0
 18 15  1  0  0  0  0
 20 29  1  6  0  0  0
 20 10  1  0  0  0  0
 21  4  2  0  0  0  0
 22 21  1  0  0  0  0
 25  5  2  0  0  0  0
 27 14  1  0  0  0  0
 28 23  1  1  0  0  0
 28  9  1  0  0  0  0
 30 29  1  0  0  0  0
 31 30  2  0  0  0  0
 32 30  1  0  0  0  0
M  END
>  <MODEL>
8

>  <REMARK>
 VINA RESULT:      -7.4      3.305      8.192
  Name = 
  2 active torsions:
  status: ('A' for Active; 'I' for Inactive)
    1  A    between atoms: C_20  and  C_29
    2  A    between atoms: C_29  and  C_30
                            x       y       z     vdW  Elec       q    Type
                         _______ _______ _______ _____ _____    ______ ____

>  <TORSDO>
F 2

$$$$
=
 OpenBabel11112416443D

 32 37  0  0  1  0  0  0  0  0999 V2000
  185.6400  177.5340  141.5190 C   0  0  0  0  0  2  0  0  0  0  0  0
  190.2570  175.9350  143.4230 C   0  0  2  0  0  3  0  0  0  0  0  0
  191.0630  177.1680  148.0670 C   0  0  0  0  0  3  0  0  0  0  0  0
  192.3100  176.5500  148.0590 C   0  0  0  0  0  3  0  0  0  0  0  0
  191.9510  174.3730  142.3640 C   0  0  0  0  0  0  0  0  0  0  0  0
  193.0830  173.3890  142.5050 C   0  0  1  0  0  3  0  0  0  0  0  0
  187.8860  176.1680  142.6250 C   0  0  1  0  0  3  0  0  0  0  0  0
  188.5260  177.0770  144.8610 N   0  0  0  0  0  2  0  0  0  0  0  0
  194.9020  172.6910  143.7670 C   0  0  2  0  0  3  0  0  0  0  0  0
  186.3300  177.7260  143.9980 C   0  0  0  0  0  2  0  0  0  0  0  0
  190.2730  177.1190  146.9630 N   0  0  0  0  0  0  0  0  0  0  0  0
  189.8250  176.4810  144.7610 C   0  0  0  0  0  0  0  0  0  0  0  0
  190.6540  176.4840  145.8180 C   0  0  0  0  0  0  0  0  0  0  0  0
  192.2880  175.1250  144.6840 C   0  0  0  0  0  0  0  0  0  0  0  0
  195.4000  172.9760  142.3540 C   0  0  0  0  0  2  0  0  0  0  0  0
  186.9970  178.2160  141.3180 C   0  0  0  0  0  2  0  0  0  0  0  0
  187.4130  176.6460  144.0170 C   0  0  1  0  0  3  0  0  0  0  0  0
  194.2930  173.7470  141.6810 C   0  0  0  0  0  2  0  0  0  0  0  0
  188.1850  177.2910  141.6180 C   0  0  0  0  0  2  0  0  0  0  0  0
  185.2050  177.4410  142.9970 C   0  0  1  0  0  3  0  0  0  0  0  0
  192.7250  175.8750  146.9140 C   0  0  0  0  0  3  0  0  0  0  0  0
  191.9060  175.8220  145.7750 C   0  0  0  0  0  0  0  0  0  0  0  0
  193.6260  174.4450  144.6210 C   0  0  0  0  0  2  0  0  0  0  0  0
  189.0780  175.2190  142.7590 C   0  0  0  0  0  2  0  0  0  0  0  0
  191.4400  174.5600  141.2260 O   0  0  0  0  0  0  0  0  0  0  0  0
  194.9470  171.2000  144.0360 C   0  0  0  0  0  1  0  0  0  0  0  0
  191.4500  175.0780  143.5160 N   0  0  0  0  0  0  0  0  0  0  0  0
  193.5290  173.1780  143.8900 N   0  0  1  0  0  0  0  0  0  0  0  0
  184.0600  178.4060  143.2610 C   0  0  0  0  0  2  0  0  0  0  0  0
  184.3670  179.2880  144.4230 C   0  0  0  0  0  0  0  0  0  0  0  0
  185.0560  180.3290  144.2580 O   0  0  0  0  0  0  0  0  0  0  0  0
  183.8710  178.9770  145.6810 O   0  0  0  0  0  1  0  0  0  0  0  0
  1 20  1  0  0  0  0
  2 24  1  1  0  0  0
  2 27  1  0  0  0  0
  2 12  1  0  0  0  0
  4  3  1  0  0  0  0
  5  6  1  0  0  0  0
  5 27  1  0  0  0  0
  6 18  1  6  0  0  0
  6 28  1  0  0  0  0
  7 19  1  6  0  0  0
  7 24  1  0  0  0  0
  7 17  1  0  0  0  0
  9 28  1  0  0  0  0
  9 26  1  6  0  0  0
 11  3  2  0  0  0  0
 12  8  1  0  0  0  0
 12 13  2  0  0  0  0
 13 11  1  0  0  0  0
 14 22  2  0  0  0  0
 15  9  1  0  0  0  0
 16  1  1  0  0  0  0
 16 19  1  0  0  0  0
 17 10  1  6  0  0  0
 17  8  1  0  0  0  0
 18 15  1  0  0  0  0
 20 29  1  6  0  0  0
 20 10  1  0  0  0  0
 21  4  2  0  0  0  0
 22 13  1  0  0  0  0
 22 21  1  0  0  0  0
 23 14  1  0  0  0  0
 25  5  2  0  0  0  0
 27 14  1  0  0  0  0
 28 23  1  1  0  0  0
 29 30  1  0  0  0  0
 30 32  1  0  0  0  0
 31 30  2  0  0  0  0
M  END
>  <MODEL>
9

>  <REMARK>
 VINA RESULT:      -7.3      2.205      4.134
  Name = 
  2 active torsions:
  status: ('A' for Active; 'I' for Inactive)
    1  A    between atoms: C_20  and  C_29
    2  A    between atoms: C_29  and  C_30
                            x       y       z     vdW  Elec       q    Type
                         _______ _______ _______ _____ _____    ______ ____

>  <TORSDO>
F 2

$$$$
