=
 OpenBabel11112417113D

 37 43  0  0  1  0  0  0  0  0999 V2000
  191.9900  173.4780  143.1430 C   0  0  0  0  0  2  0  0  0  0  0  0
  195.3000  176.1020  142.6920 C   0  0  0  0  0  0  0  0  0  0  0  0
  191.8810  176.3760  144.9740 C   0  0  0  0  0  0  0  0  0  0  0  0
  192.3630  172.1340  142.5100 C   0  0  2  0  0  3  0  0  0  0  0  0
  188.7840  175.0370  143.4540 O   0  0  0  0  0  0  0  0  0  0  0  0
  194.2640  176.5800  144.8950 C   0  0  0  0  0  0  0  0  0  0  0  0
  190.8590  176.0090  144.0600 N   0  0  0  0  0  0  0  0  0  0  0  0
  189.8600  171.7400  141.9760 C   0  0  2  0  0  3  0  0  0  0  0  0
  193.0290  176.5970  144.2990 C   0  0  0  0  0  0  0  0  0  0  0  0
  189.6130  175.4040  144.5190 C   0  0  1  0  0  3  0  0  0  0  0  0
  194.3260  176.4930  146.2950 C   0  0  0  0  0  3  0  0  0  0  0  0
  191.3200  171.5790  141.5270 C   0  0  0  0  0  2  0  0  0  0  0  0
  192.8500  176.4540  142.9190 N   0  0  0  0  0  0  0  0  0  0  0  0
  195.3970  174.5870  142.6650 C   0  0  0  0  0  1  0  0  0  0  0  0
  190.7030  176.0690  147.1140 O   0  0  0  0  0  0  0  0  0  0  0  0
  193.1240  176.3360  147.0310 C   0  0  0  0  0  3  0  0  0  0  0  0
  193.9820  176.5330  141.9950 C   0  0  0  0  0  2  0  0  0  0  0  0
  189.3390  173.1970  142.0010 C   0  0  1  0  0  3  0  0  0  0  0  0
  188.8900  173.6460  143.3930 C   0  0  0  0  0  2  0  0  0  0  0  0
  191.8770  176.2520  146.3680 C   0  0  0  0  0  0  0  0  0  0  0  0
  191.4830  175.9600  142.7070 C   0  0  1  0  0  3  0  0  0  0  0  0
  195.3900  176.5570  144.0610 O   0  0  0  0  0  0  0  0  0  0  0  0
  188.9220  176.3010  145.5200 C   0  0  0  0  0  0  0  0  0  0  0  0
  196.4690  176.6670  141.9120 C   0  0  0  0  0  1  0  0  0  0  0  0
  190.2840  174.2040  141.3190 C   0  0  0  0  0  2  0  0  0  0  0  0
  189.6240  171.0560  143.1580 F   0  0  0  0  0  0  0  0  0  0  0  0
  191.5530  174.5390  142.1200 C   0  0  2  0  0  3  0  0  0  0  0  0
  189.4490  176.4920  146.6960 N   0  0  0  0  0  0  0  0  0  0  0  0
  186.4920  176.6710  145.9860 C   0  0  0  0  0  3  0  0  0  0  0  0
  187.6310  176.9710  145.2200 C   0  0  0  0  0  0  0  0  0  0  0  0
  187.5320  177.9460  144.2140 C   0  0  0  0  0  3  0  0  0  0  0  0
  186.2350  179.5240  142.9870 F   0  0  0  0  0  0  0  0  0  0  0  0
  185.1890  178.2750  144.7260 C   0  0  0  0  0  3  0  0  0  0  0  0
  186.3170  178.5900  143.9650 C   0  0  0  0  0  0  0  0  0  0  0  0
  185.2770  177.3150  145.7380 C   0  0  0  0  0  3  0  0  0  0  0  0
  193.1940  171.9340  144.5520 C   0  0  0  0  0  1  0  0  0  0  0  0
  192.6110  171.2000  143.5180 O   0  0  0  0  0  0  0  0  0  0  0  0
  2 22  1  0  0  0  0
  3 20  1  0  0  0  0
  4  1  1  0  0  0  0
  4 37  1  1  0  0  0
  6 11  2  0  0  0  0
  7 10  1  0  0  0  0
  7  3  1  0  0  0  0
  8 18  1  0  0  0  0
  8 26  1  1  0  0  0
  9  6  1  0  0  0  0
  9  3  2  0  0  0  0
 10  5  1  6  0  0  0
 10 23  1  0  0  0  0
 11 16  1  0  0  0  0
 12  8  1  0  0  0  0
 12  4  1  0  0  0  0
 13  9  1  0  0  0  0
 14  2  1  0  0  0  0
 17  2  1  0  0  0  0
 17 13  1  0  0  0  0
 18 25  1  1  0  0  0
 18 19  1  0  0  0  0
 19  5  1  0  0  0  0
 20 16  2  0  0  0  0
 20 15  1  0  0  0  0
 21 13  1  1  0  0  0
 21  7  1  0  0  0  0
 22  6  1  0  0  0  0
 23 28  2  0  0  0  0
 24  2  1  0  0  0  0
 27 25  1  1  0  0  0
 27 21  1  0  0  0  0
 27  1  1  0  0  0  0
 28 15  1  0  0  0  0
 30 23  1  0  0  0  0
 30 29  2  0  0  0  0
 31 30  1  0  0  0  0
 32 34  1  0  0  0  0
 33 35  2  0  0  0  0
 34 31  2  0  0  0  0
 34 33  1  0  0  0  0
 35 29  1  0  0  0  0
 37 36  1  0  0  0  0
M  END
>  <MODEL>
1

>  <REMARK>
 VINA RESULT:      -9.4      0.000      0.000
  Name = 
  2 active torsions:
  status: ('A' for Active; 'I' for Inactive)
    1  A    between atoms: C_4  and  O_37
    2  A    between atoms: C_23  and  C_30
                            x       y       z     vdW  Elec       q    Type
                         _______ _______ _______ _____ _____    ______ ____

>  <TORSDO>
F 2

$$$$
=
 OpenBabel11112417113D

 37 43  0  0  1  0  0  0  0  0999 V2000
  191.9060  174.8860  143.3670 C   0  0  0  0  0  2  0  0  0  0  0  0
  190.6600  171.1320  141.8160 C   0  0  0  0  0  0  0  0  0  0  0  0
  188.6230  174.6660  142.3960 C   0  0  0  0  0  0  0  0  0  0  0  0
  193.4360  174.8820  143.4430 C   0  0  2  0  0  3  0  0  0  0  0  0
  189.5280  176.6030  145.4180 O   0  0  0  0  0  0  0  0  0  0  0  0
  189.1270  172.8590  140.9100 C   0  0  0  0  0  0  0  0  0  0  0  0
  189.0100  175.0430  143.7090 N   0  0  0  0  0  0  0  0  0  0  0  0
  193.2970  176.5200  145.4430 C   0  0  2  0  0  3  0  0  0  0  0  0
  188.9960  173.3890  142.1690 C   0  0  0  0  0  0  0  0  0  0  0  0
  189.0320  176.4440  144.1200 C   0  0  1  0  0  3  0  0  0  0  0  0
  188.6960  173.6270  139.8170 C   0  0  0  0  0  3  0  0  0  0  0  0
  194.0090  175.3210  144.7990 C   0  0  0  0  0  2  0  0  0  0  0  0
  189.5910  172.8170  143.2980 N   0  0  0  0  0  0  0  0  0  0  0  0
  192.0390  171.7330  141.6050 C   0  0  0  0  0  1  0  0  0  0  0  0
  187.7700  176.8120  141.5440 O   0  0  0  0  0  0  0  0  0  0  0  0
  188.2290  174.9480  140.0430 C   0  0  0  0  0  3  0  0  0  0  0  0
  190.1780  171.4780  143.2510 C   0  0  0  0  0  2  0  0  0  0  0  0
  191.8540  176.2410  145.9300 C   0  0  1  0  0  3  0  0  0  0  0  0
  190.8110  177.1220  145.2390 C   0  0  0  0  0  2  0  0  0  0  0  0
  188.2100  175.4950  141.3470 C   0  0  0  0  0  0  0  0  0  0  0  0
  189.7330  173.8810  144.3010 C   0  0  1  0  0  3  0  0  0  0  0  0
  189.7690  171.6200  140.7880 O   0  0  0  0  0  0  0  0  0  0  0  0
  187.6720  177.0760  143.9290 C   0  0  0  0  0  0  0  0  0  0  0  0
  190.7740  169.6270  141.6920 C   0  0  0  0  0  1  0  0  0  0  0  0
  191.4780  174.7480  145.9270 C   0  0  0  0  0  2  0  0  0  0  0  0
  193.3950  177.6470  144.6430 F   0  0  0  0  0  0  0  0  0  0  0  0
  191.2290  174.1490  144.5340 C   0  0  2  0  0  3  0  0  0  0  0  0
  187.2070  177.2690  142.7270 N   0  0  0  0  0  0  0  0  0  0  0  0
  186.0760  178.6900  144.9790 C   0  0  0  0  0  3  0  0  0  0  0  0
  186.8370  177.5130  145.0760 C   0  0  0  0  0  0  0  0  0  0  0  0
  186.7470  176.7440  146.2470 C   0  0  0  0  0  3  0  0  0  0  0  0
  185.8600  176.4050  148.4330 F   0  0  0  0  0  0  0  0  0  0  0  0
  185.1890  178.3310  147.2020 C   0  0  0  0  0  3  0  0  0  0  0  0
  185.9320  177.1540  147.3060 C   0  0  0  0  0  0  0  0  0  0  0  0
  185.2590  179.0990  146.0370 C   0  0  0  0  0  3  0  0  0  0  0  0
  195.3370  175.5290  142.5130 C   0  0  0  0  0  1  0  0  0  0  0  0
  193.9530  175.6850  142.4250 O   0  0  0  0  0  0  0  0  0  0  0  0
  1  4  1  0  0  0  0
  2 17  1  0  0  0  0
  3  7  1  0  0  0  0
  4 37  1  6  0  0  0
  4 12  1  0  0  0  0
  6  9  2  0  0  0  0
  7 10  1  0  0  0  0
  7 21  1  0  0  0  0
  8 26  1  6  0  0  0
  8 18  1  0  0  0  0
  9  3  1  0  0  0  0
  9 13  1  0  0  0  0
 10 23  1  1  0  0  0
 10  5  1  0  0  0  0
 11 16  2  0  0  0  0
 11  6  1  0  0  0  0
 12  8  1  0  0  0  0
 14  2  1  0  0  0  0
 15 28  1  0  0  0  0
 16 20  1  0  0  0  0
 17 13  1  0  0  0  0
 18 19  1  6  0  0  0
 19  5  1  0  0  0  0
 20 15  1  0  0  0  0
 20  3  2  0  0  0  0
 21 13  1  6  0  0  0
 21 27  1  0  0  0  0
 22  6  1  0  0  0  0
 22  2  1  0  0  0  0
 23 30  1  0  0  0  0
 24  2  1  0  0  0  0
 25 18  1  0  0  0  0
 27  1  1  6  0  0  0
 27 25  1  0  0  0  0
 28 23  2  0  0  0  0
 29 30  2  0  0  0  0
 29 35  1  0  0  0  0
 30 31  1  0  0  0  0
 31 34  2  0  0  0  0
 33 34  1  0  0  0  0
 34 32  1  0  0  0  0
 35 33  2  0  0  0  0
 37 36  1  0  0  0  0
M  END
>  <MODEL>
2

>  <REMARK>
 VINA RESULT:      -9.2      2.455      5.258
  Name = 
  2 active torsions:
  status: ('A' for Active; 'I' for Inactive)
    1  A    between atoms: C_4  and  O_37
    2  A    between atoms: C_23  and  C_30
                            x       y       z     vdW  Elec       q    Type
                         _______ _______ _______ _____ _____    ______ ____

>  <TORSDO>
F 2

$$$$
=
 OpenBabel11112417113D

 37 43  0  0  1  0  0  0  0  0999 V2000
  192.8680  174.8010  144.1030 C   0  0  0  0  0  2  0  0  0  0  0  0
  192.0460  170.8140  142.8910 C   0  0  0  0  0  0  0  0  0  0  0  0
  189.7080  174.2060  142.9100 C   0  0  0  0  0  0  0  0  0  0  0  0
  194.3810  174.9330  144.2990 C   0  0  2  0  0  3  0  0  0  0  0  0
  190.1990  176.5200  145.7560 O   0  0  0  0  0  0  0  0  0  0  0  0
  190.4720  172.3000  141.6800 C   0  0  0  0  0  0  0  0  0  0  0  0
  189.9500  174.7510  144.1980 N   0  0  0  0  0  0  0  0  0  0  0  0
  193.9480  176.7560  146.0860 C   0  0  2  0  0  3  0  0  0  0  0  0
  190.1930  172.9470  142.8570 C   0  0  0  0  0  0  0  0  0  0  0  0
  189.8310  176.1840  144.4490 C   0  0  1  0  0  3  0  0  0  0  0  0
  190.0820  172.9100  140.4770 C   0  0  0  0  0  3  0  0  0  0  0  0
  194.8000  175.5600  145.6380 C   0  0  0  0  0  2  0  0  0  0  0  0
  190.7280  172.5500  144.0870 N   0  0  0  0  0  0  0  0  0  0  0  0
  193.3890  171.5020  142.7220 C   0  0  0  0  0  1  0  0  0  0  0  0
  188.7740  176.1710  141.7570 O   0  0  0  0  0  0  0  0  0  0  0  0
  189.5000  174.2040  140.5160 C   0  0  0  0  0  3  0  0  0  0  0  0
  191.4160  171.2670  144.2360 C   0  0  0  0  0  2  0  0  0  0  0  0
  192.4930  176.4110  146.4860 C   0  0  1  0  0  3  0  0  0  0  0  0
  191.4510  177.1230  145.6210 C   0  0  0  0  0  2  0  0  0  0  0  0
  189.3260  174.8820  141.7450 C   0  0  0  0  0  0  0  0  0  0  0  0
  190.7030  173.7220  144.9710 C   0  0  1  0  0  3  0  0  0  0  0  0
  191.2130  171.1140  141.7490 O   0  0  0  0  0  0  0  0  0  0  0  0
  188.4500  176.6770  144.0820 C   0  0  0  0  0  0  0  0  0  0  0  0
  192.2810  169.3190  142.9460 C   0  0  0  0  0  1  0  0  0  0  0  0
  192.2310  174.9000  146.6220 C   0  0  0  0  0  2  0  0  0  0  0  0
  194.0300  177.7960  145.1740 F   0  0  0  0  0  0  0  0  0  0  0  0
  192.1490  174.1380  145.2890 C   0  0  2  0  0  3  0  0  0  0  0  0
  188.0780  176.7020  142.8330 N   0  0  0  0  0  0  0  0  0  0  0  0
  186.7380  178.3250  144.8630 C   0  0  0  0  0  3  0  0  0  0  0  0
  187.4880  177.1610  145.1040 C   0  0  0  0  0  0  0  0  0  0  0  0
  187.2680  176.4490  146.2940 C   0  0  0  0  0  3  0  0  0  0  0  0
  186.1390  176.2080  148.3790 F   0  0  0  0  0  0  0  0  0  0  0  0
  185.6050  178.0660  146.9860 C   0  0  0  0  0  3  0  0  0  0  0  0
  186.3350  176.9020  147.2320 C   0  0  0  0  0  0  0  0  0  0  0  0
  185.8050  178.7770  145.8010 C   0  0  0  0  0  3  0  0  0  0  0  0
  193.8440  175.9330  142.3990 C   0  0  0  0  0  1  0  0  0  0  0  0
  194.9240  175.6650  143.2410 O   0  0  0  0  0  0  0  0  0  0  0  0
  1  4  1  0  0  0  0
  2 24  1  0  0  0  0
  2 17  1  0  0  0  0
  3  7  1  0  0  0  0
  4 37  1  6  0  0  0
  4 12  1  0  0  0  0
  6 22  1  0  0  0  0
  6  9  2  0  0  0  0
  7 10  1  0  0  0  0
  7 21  1  0  0  0  0
  8 26  1  6  0  0  0
  8 18  1  0  0  0  0
  9  3  1  0  0  0  0
  9 13  1  0  0  0  0
 10 23  1  1  0  0  0
 10  5  1  0  0  0  0
 11 16  2  0  0  0  0
 11  6  1  0  0  0  0
 12  8  1  0  0  0  0
 13 17  1  0  0  0  0
 14  2  1  0  0  0  0
 15 28  1  0  0  0  0
 16 20  1  0  0  0  0
 18 19  1  6  0  0  0
 18 25  1  0  0  0  0
 19  5  1  0  0  0  0
 20 15  1  0  0  0  0
 20  3  2  0  0  0  0
 21 13  1  6  0  0  0
 21 27  1  0  0  0  0
 22  2  1  0  0  0  0
 23 30  1  0  0  0  0
 27  1  1  6  0  0  0
 27 25  1  0  0  0  0
 28 23  2  0  0  0  0
 29 30  2  0  0  0  0
 29 35  1  0  0  0  0
 30 31  1  0  0  0  0
 31 34  2  0  0  0  0
 33 34  1  0  0  0  0
 34 32  1  0  0  0  0
 35 33  2  0  0  0  0
 36 37  1  0  0  0  0
M  END
>  <MODEL>
3

>  <REMARK>
 VINA RESULT:      -8.8      2.335      5.104
  Name = 
  2 active torsions:
  status: ('A' for Active; 'I' for Inactive)
    1  A    between atoms: C_4  and  O_37
    2  A    between atoms: C_23  and  C_30
                            x       y       z     vdW  Elec       q    Type
                         _______ _______ _______ _____ _____    ______ ____

>  <TORSDO>
F 2

$$$$
=
 OpenBabel11112417113D

 37 43  0  0  1  0  0  0  0  0999 V2000
  192.4730  172.9560  142.4580 C   0  0  0  0  0  2  0  0  0  0  0  0
  195.7560  175.5380  141.6850 C   0  0  0  0  0  0  0  0  0  0  0  0
  192.8410  175.6130  144.5960 C   0  0  0  0  0  0  0  0  0  0  0  0
  192.6590  171.6900  141.6160 C   0  0  2  0  0  3  0  0  0  0  0  0
  189.4560  174.5390  143.5540 O   0  0  0  0  0  0  0  0  0  0  0  0
  195.1740  175.7700  144.0850 C   0  0  0  0  0  0  0  0  0  0  0  0
  191.6500  175.3820  143.8580 N   0  0  0  0  0  0  0  0  0  0  0  0
  190.0850  171.4210  141.5300 C   0  0  2  0  0  3  0  0  0  0  0  0
  193.8500  175.8880  143.7430 C   0  0  0  0  0  0  0  0  0  0  0  0
  190.4860  174.7540  144.4750 C   0  0  1  0  0  3  0  0  0  0  0  0
  195.4930  175.5130  145.4280 C   0  0  0  0  0  3  0  0  0  0  0  0
  191.4260  171.2810  140.7940 C   0  0  0  0  0  2  0  0  0  0  0  0
  193.4100  175.9160  142.4150 N   0  0  0  0  0  0  0  0  0  0  0  0
  195.7770  174.0360  141.4660 C   0  0  0  0  0  1  0  0  0  0  0  0
  192.0720  175.0760  146.8720 O   0  0  0  0  0  0  0  0  0  0  0  0
  194.4440  175.2950  146.3580 C   0  0  0  0  0  3  0  0  0  0  0  0
  194.3510  176.0800  141.3070 C   0  0  0  0  0  2  0  0  0  0  0  0
  189.6450  172.8760  141.8200 C   0  0  1  0  0  3  0  0  0  0  0  0
  189.4850  173.1630  143.3150 C   0  0  0  0  0  2  0  0  0  0  0  0
  193.0920  175.3210  145.9410 C   0  0  0  0  0  0  0  0  0  0  0  0
  192.0070  175.4830  142.4140 C   0  0  1  0  0  3  0  0  0  0  0  0
  196.1210  175.8220  143.0540 O   0  0  0  0  0  0  0  0  0  0  0  0
  190.0360  175.5400  145.6850 C   0  0  0  0  0  0  0  0  0  0  0  0
  196.7820  176.1670  140.7650 C   0  0  0  0  0  1  0  0  0  0  0  0
  190.4910  173.9350  141.0900 C   0  0  0  0  0  2  0  0  0  0  0  0
  190.0430  170.6040  142.6480 F   0  0  0  0  0  0  0  0  0  0  0  0
  191.9010  174.1430  141.6660 C   0  0  2  0  0  3  0  0  0  0  0  0
  190.7830  175.5760  146.7530 N   0  0  0  0  0  0  0  0  0  0  0  0
  187.8560  176.0760  146.7880 C   0  0  0  0  0  3  0  0  0  0  0  0
  188.7440  176.2700  145.7170 C   0  0  0  0  0  0  0  0  0  0  0  0
  188.4080  177.2000  144.7200 C   0  0  0  0  0  3  0  0  0  0  0  0
  186.8870  178.7930  143.8090 F   0  0  0  0  0  0  0  0  0  0  0  0
  186.3210  177.6930  145.8440 C   0  0  0  0  0  3  0  0  0  0  0  0
  187.2010  177.9040  144.7810 C   0  0  0  0  0  0  0  0  0  0  0  0
  186.6490  176.7790  146.8490 C   0  0  0  0  0  3  0  0  0  0  0  0
  193.1610  171.2000  143.7150 C   0  0  0  0  0  1  0  0  0  0  0  0
  193.0490  170.6350  142.4440 O   0  0  0  0  0  0  0  0  0  0  0  0
  2 22  1  0  0  0  0
  3 20  1  0  0  0  0
  4 37  1  1  0  0  0
  4  1  1  0  0  0  0
  6 11  2  0  0  0  0
  7 10  1  0  0  0  0
  7  3  1  0  0  0  0
  8 18  1  0  0  0  0
  8 26  1  1  0  0  0
  9  6  1  0  0  0  0
  9  3  2  0  0  0  0
 10  5  1  6  0  0  0
 10 23  1  0  0  0  0
 11 16  1  0  0  0  0
 12  8  1  0  0  0  0
 12  4  1  0  0  0  0
 13  9  1  0  0  0  0
 14  2  1  0  0  0  0
 17  2  1  0  0  0  0
 17 13  1  0  0  0  0
 18 25  1  1  0  0  0
 18 19  1  0  0  0  0
 19  5  1  0  0  0  0
 20 16  2  0  0  0  0
 20 15  1  0  0  0  0
 21 13  1  1  0  0  0
 21  7  1  0  0  0  0
 22  6  1  0  0  0  0
 23 30  1  0  0  0  0
 23 28  2  0  0  0  0
 24  2  1  0  0  0  0
 27 25  1  1  0  0  0
 27 21  1  0  0  0  0
 27  1  1  0  0  0  0
 28 15  1  0  0  0  0
 29 35  1  0  0  0  0
 30 29  2  0  0  0  0
 31 34  2  0  0  0  0
 31 30  1  0  0  0  0
 32 34  1  0  0  0  0
 33 35  2  0  0  0  0
 34 33  1  0  0  0  0
 37 36  1  0  0  0  0
M  END
>  <MODEL>
4

>  <REMARK>
 VINA RESULT:      -8.6      1.120      1.255
  Name = 
  2 active torsions:
  status: ('A' for Active; 'I' for Inactive)
    1  A    between atoms: C_4  and  O_37
    2  A    between atoms: C_23  and  C_30
                            x       y       z     vdW  Elec       q    Type
                         _______ _______ _______ _____ _____    ______ ____

>  <TORSDO>
F 2

$$$$
=
 OpenBabel11112417113D

 37 43  0  0  1  0  0  0  0  0999 V2000
  195.3660  173.5210  143.5170 C   0  0  0  0  0  2  0  0  0  0  0  0
  195.6570  169.5290  144.9390 C   0  0  0  0  0  0  0  0  0  0  0  0
  192.4020  171.8460  143.9340 C   0  0  0  0  0  0  0  0  0  0  0  0
  196.7680  173.9790  143.1030 C   0  0  2  0  0  3  0  0  0  0  0  0
  192.6240  175.4420  144.7830 O   0  0  0  0  0  0  0  0  0  0  0  0
  193.5040  169.7320  143.7230 C   0  0  0  0  0  0  0  0  0  0  0  0
  192.6810  173.0810  144.5760 N   0  0  0  0  0  0  0  0  0  0  0  0
  196.0980  176.4110  143.6850 C   0  0  2  0  0  3  0  0  0  0  0  0
  193.2450  170.9000  144.3970 C   0  0  0  0  0  0  0  0  0  0  0  0
  192.1580  174.3410  144.0570 C   0  0  1  0  0  3  0  0  0  0  0  0
  192.7340  169.4350  142.5870 C   0  0  0  0  0  3  0  0  0  0  0  0
  197.1950  175.3360  143.6840 C   0  0  0  0  0  2  0  0  0  0  0  0
  194.0870  171.4020  145.3930 N   0  0  0  0  0  0  0  0  0  0  0  0
  196.6580  170.1810  144.0020 C   0  0  0  0  0  1  0  0  0  0  0  0
  190.7030  172.5620  142.3020 O   0  0  0  0  0  0  0  0  0  0  0  0
  191.7870  170.3860  142.1270 C   0  0  0  0  0  3  0  0  0  0  0  0
  195.1630  170.5890  145.9600 C   0  0  0  0  0  2  0  0  0  0  0  0
  194.9240  176.1500  144.6590 C   0  0  1  0  0  3  0  0  0  0  0  0
  193.5740  176.0330  143.9480 C   0  0  0  0  0  2  0  0  0  0  0  0
  191.6260  171.6250  142.7900 C   0  0  0  0  0  0  0  0  0  0  0  0
  193.8460  172.8490  145.4770 C   0  0  1  0  0  3  0  0  0  0  0  0
  194.5840  168.9540  144.1590 O   0  0  0  0  0  0  0  0  0  0  0  0
  190.6500  174.2940  143.9640 C   0  0  0  0  0  0  0  0  0  0  0  0
  196.3620  168.4210  145.6920 C   0  0  0  0  0  1  0  0  0  0  0  0
  195.1850  174.9990  145.6480 C   0  0  0  0  0  2  0  0  0  0  0  0
  195.6830  176.7010  142.3950 F   0  0  0  0  0  0  0  0  0  0  0  0
  195.1170  173.5920  145.0320 C   0  0  2  0  0  3  0  0  0  0  0  0
  190.0750  173.5120  143.0940 N   0  0  0  0  0  0  0  0  0  0  0  0
  189.3370  176.3850  144.3650 C   0  0  0  0  0  3  0  0  0  0  0  0
  189.7800  175.1340  144.8260 C   0  0  0  0  0  0  0  0  0  0  0  0
  189.3420  174.6810  146.0800 C   0  0  0  0  0  3  0  0  0  0  0  0
  188.0870  175.0230  148.0770 F   0  0  0  0  0  0  0  0  0  0  0  0
  188.0720  176.7170  146.4020 C   0  0  0  0  0  3  0  0  0  0  0  0
  188.4960  175.4700  146.8660 C   0  0  0  0  0  0  0  0  0  0  0  0
  188.4910  177.1740  145.1500 C   0  0  0  0  0  3  0  0  0  0  0  0
  196.3130  172.7940  141.2900 C   0  0  0  0  0  1  0  0  0  0  0  0
  196.8530  174.0100  141.7100 O   0  0  0  0  0  0  0  0  0  0  0  0
  2 24  1  0  0  0  0
  2 17  1  0  0  0  0
  3  9  1  0  0  0  0
  3  7  1  0  0  0  0
  4 37  1  6  0  0  0
  4  1  1  0  0  0  0
  4 12  1  0  0  0  0
  6 22  1  0  0  0  0
  6  9  2  0  0  0  0
  8 26  1  6  0  0  0
  8 18  1  0  0  0  0
  9 13  1  0  0  0  0
 10 23  1  1  0  0  0
 10  7  1  0  0  0  0
 10  5  1  0  0  0  0
 11  6  1  0  0  0  0
 12  8  1  0  0  0  0
 13 21  1  0  0  0  0
 13 17  1  0  0  0  0
 14  2  1  0  0  0  0
 15 20  1  0  0  0  0
 15 28  1  0  0  0  0
 16 11  2  0  0  0  0
 16 20  1  0  0  0  0
 18 19  1  6  0  0  0
 18 25  1  0  0  0  0
 19  5  1  0  0  0  0
 20  3  2  0  0  0  0
 21  7  1  6  0  0  0
 22  2  1  0  0  0  0
 23 30  1  0  0  0  0
 27  1  1  6  0  0  0
 27 21  1  0  0  0  0
 27 25  1  0  0  0  0
 28 23  2  0  0  0  0
 29 30  2  0  0  0  0
 29 35  1  0  0  0  0
 30 31  1  0  0  0  0
 31 34  2  0  0  0  0
 33 34  1  0  0  0  0
 34 32  1  0  0  0  0
 35 33  2  0  0  0  0
 36 37  1  0  0  0  0
M  END
>  <MODEL>
5

>  <REMARK>
 VINA RESULT:      -7.9      2.965      5.774
  Name = 
  2 active torsions:
  status: ('A' for Active; 'I' for Inactive)
    1  A    between atoms: C_4  and  O_37
    2  A    between atoms: C_23  and  C_30
                            x       y       z     vdW  Elec       q    Type
                         _______ _______ _______ _____ _____    ______ ____

>  <TORSDO>
F 2

$$$$
=
 OpenBabel11112417113D

 37 43  0  0  1  0  0  0  0  0999 V2000
  189.7140  175.9310  145.5630 C   0  0  0  0  0  2  0  0  0  0  0  0
  187.7810  176.9310  141.9150 C   0  0  0  0  0  0  0  0  0  0  0  0
  190.3560  173.8690  142.8980 C   0  0  0  0  0  0  0  0  0  0  0  0
  189.0690  176.7570  146.6810 C   0  0  2  0  0  3  0  0  0  0  0  0
  193.0640  174.7050  145.2790 O   0  0  0  0  0  0  0  0  0  0  0  0
  188.3070  174.5080  141.8400 C   0  0  0  0  0  0  0  0  0  0  0  0
  191.3830  174.5370  143.6160 N   0  0  0  0  0  0  0  0  0  0  0  0
  191.3180  176.6980  147.9620 C   0  0  2  0  0  3  0  0  0  0  0  0
  189.5790  174.7810  142.2760 C   0  0  0  0  0  0  0  0  0  0  0  0
  192.1700  173.8450  144.6330 C   0  0  1  0  0  3  0  0  0  0  0  0
  187.8560  173.1790  141.8940 C   0  0  0  0  0  3  0  0  0  0  0  0
  190.0660  177.5020  147.5810 C   0  0  0  0  0  2  0  0  0  0  0  0
  190.0480  176.0820  142.4790 N   0  0  0  0  0  0  0  0  0  0  0  0
  187.1670  177.1210  143.2900 C   0  0  0  0  0  1  0  0  0  0  0  0
  190.7490  171.5450  143.6080 O   0  0  0  0  0  0  0  0  0  0  0  0
  188.6890  172.1900  142.4770 C   0  0  0  0  0  3  0  0  0  0  0  0
  189.3000  177.2430  141.9960 C   0  0  0  0  0  2  0  0  0  0  0  0
  192.2940  176.4130  146.7950 C   0  0  1  0  0  3  0  0  0  0  0  0
  192.4940  174.9180  146.5360 C   0  0  0  0  0  2  0  0  0  0  0  0
  189.9530  172.5340  143.0120 C   0  0  0  0  0  0  0  0  0  0  0  0
  191.1580  176.0000  143.4380 C   0  0  1  0  0  3  0  0  0  0  0  0
  187.5050  175.5900  141.4540 O   0  0  0  0  0  0  0  0  0  0  0  0
  192.8470  172.6280  144.0460 C   0  0  0  0  0  0  0  0  0  0  0  0
  187.1340  177.9180  140.9650 C   0  0  0  0  0  1  0  0  0  0  0  0
  191.9770  177.2090  145.5150 C   0  0  0  0  0  2  0  0  0  0  0  0
  190.9820  175.5630  148.6810 F   0  0  0  0  0  0  0  0  0  0  0  0
  190.7470  176.7140  144.7370 C   0  0  2  0  0  3  0  0  0  0  0  0
  192.1340  171.6030  143.6710 N   0  0  0  0  0  0  0  0  0  0  0  0
  194.9350  173.0330  142.7290 C   0  0  0  0  0  3  0  0  0  0  0  0
  194.3210  172.5410  143.8930 C   0  0  0  0  0  0  0  0  0  0  0  0
  195.1310  172.0230  144.9170 C   0  0  0  0  0  3  0  0  0  0  0  0
  197.2880  171.4680  145.7650 F   0  0  0  0  0  0  0  0  0  0  0  0
  197.1170  172.4590  143.6050 C   0  0  0  0  0  3  0  0  0  0  0  0
  196.5210  171.9770  144.7710 C   0  0  0  0  0  0  0  0  0  0  0  0
  196.3250  172.9880  142.5830 C   0  0  0  0  0  3  0  0  0  0  0  0
  186.9610  176.4160  147.2600 C   0  0  0  0  0  1  0  0  0  0  0  0
  188.2540  175.9300  147.4570 O   0  0  0  0  0  0  0  0  0  0  0  0
  1  4  1  0  0  0  0
  2 17  1  0  0  0  0
  2 14  1  0  0  0  0
  3 20  1  0  0  0  0
  3  7  1  0  0  0  0
  4 37  1  1  0  0  0
  4 12  1  0  0  0  0
  5 19  1  0  0  0  0
  6 11  2  0  0  0  0
  6  9  1  0  0  0  0
  7 10  1  0  0  0  0
  8 26  1  6  0  0  0
  9 13  1  0  0  0  0
  9  3  2  0  0  0  0
 10 23  1  6  0  0  0
 10  5  1  0  0  0  0
 11 16  1  0  0  0  0
 12  8  1  0  0  0  0
 15 28  1  0  0  0  0
 16 20  2  0  0  0  0
 17 13  1  0  0  0  0
 18 25  1  6  0  0  0
 18  8  1  0  0  0  0
 19 18  1  0  0  0  0
 20 15  1  0  0  0  0
 21 13  1  6  0  0  0
 21  7  1  0  0  0  0
 21 27  1  0  0  0  0
 22  6  1  0  0  0  0
 22  2  1  0  0  0  0
 24  2  1  0  0  0  0
 27 25  1  1  0  0  0
 27  1  1  0  0  0  0
 28 23  2  0  0  0  0
 29 30  1  0  0  0  0
 30 23  1  0  0  0  0
 30 31  2  0  0  0  0
 33 34  2  0  0  0  0
 34 31  1  0  0  0  0
 34 32  1  0  0  0  0
 35 29  2  0  0  0  0
 35 33  1  0  0  0  0
 36 37  1  0  0  0  0
M  END
>  <MODEL>
6

>  <REMARK>
 VINA RESULT:      -7.9      2.727      7.557
  Name = 
  2 active torsions:
  status: ('A' for Active; 'I' for Inactive)
    1  A    between atoms: C_4  and  O_37
    2  A    between atoms: C_23  and  C_30
                            x       y       z     vdW  Elec       q    Type
                         _______ _______ _______ _____ _____    ______ ____

>  <TORSDO>
F 2

$$$$
=
 OpenBabel11112417113D

 37 43  0  0  1  0  0  0  0  0999 V2000
  190.1380  175.8040  145.3010 C   0  0  0  0  0  2  0  0  0  0  0  0
  187.1100  177.3110  142.7290 C   0  0  0  0  0  0  0  0  0  0  0  0
  190.1360  174.5870  142.0940 C   0  0  0  0  0  0  0  0  0  0  0  0
  189.7860  176.2130  146.7340 C   0  0  2  0  0  3  0  0  0  0  0  0
  193.3450  175.2730  143.8040 O   0  0  0  0  0  0  0  0  0  0  0  0
  187.8120  175.1040  141.8410 C   0  0  0  0  0  0  0  0  0  0  0  0
  191.2640  175.2270  142.6700 N   0  0  0  0  0  0  0  0  0  0  0  0
  192.3120  176.2320  147.3020 C   0  0  2  0  0  3  0  0  0  0  0  0
  189.1260  175.4760  141.9820 C   0  0  0  0  0  0  0  0  0  0  0  0
  192.3820  174.4550  143.2040 C   0  0  1  0  0  3  0  0  0  0  0  0
  187.5250  173.7450  141.6380 C   0  0  0  0  0  3  0  0  0  0  0  0
  190.9350  176.8780  147.5090 C   0  0  0  0  0  2  0  0  0  0  0  0
  189.5110  176.7510  142.4100 N   0  0  0  0  0  0  0  0  0  0  0  0
  186.9250  177.0550  144.2150 C   0  0  0  0  0  1  0  0  0  0  0  0
  190.9390  172.2630  141.9910 O   0  0  0  0  0  0  0  0  0  0  0  0
  188.5830  172.8010  141.6770 C   0  0  0  0  0  3  0  0  0  0  0  0
  188.5470  177.8480  142.4890 C   0  0  0  0  0  2  0  0  0  0  0  0
  192.9130  176.4080  145.8860 C   0  0  1  0  0  3  0  0  0  0  0  0
  193.1640  175.0760  145.1750 C   0  0  0  0  0  2  0  0  0  0  0  0
  189.9120  173.2160  141.9300 C   0  0  0  0  0  0  0  0  0  0  0  0
  190.8600  176.6290  142.9770 C   0  0  1  0  0  3  0  0  0  0  0  0
  186.8340  176.0930  142.0020 O   0  0  0  0  0  0  0  0  0  0  0  0
  192.9610  173.5500  142.1420 C   0  0  0  0  0  0  0  0  0  0  0  0
  186.1180  178.3720  142.3020 C   0  0  0  0  0  1  0  0  0  0  0  0
  192.1520  177.4230  145.0130 C   0  0  0  0  0  2  0  0  0  0  0  0
  192.3160  174.9160  147.7360 F   0  0  0  0  0  0  0  0  0  0  0  0
  190.7960  176.9280  144.4840 C   0  0  2  0  0  3  0  0  0  0  0  0
  192.2670  172.5390  141.6980 N   0  0  0  0  0  0  0  0  0  0  0  0
  195.4030  173.0130  142.0890 C   0  0  0  0  0  3  0  0  0  0  0  0
  194.3220  173.7550  141.5850 C   0  0  0  0  0  0  0  0  0  0  0  0
  194.5480  174.6420  140.5210 C   0  0  0  0  0  3  0  0  0  0  0  0
  196.0350  175.6660  138.9640 F   0  0  0  0  0  0  0  0  0  0  0  0
  196.8990  174.0660  140.5040 C   0  0  0  0  0  3  0  0  0  0  0  0
  195.8300  174.8010  139.9870 C   0  0  0  0  0  0  0  0  0  0  0  0
  196.6860  173.1710  141.5550 C   0  0  0  0  0  3  0  0  0  0  0  0
  189.3160  174.0640  146.4980 C   0  0  0  0  0  1  0  0  0  0  0  0
  189.3240  175.0970  147.4350 O   0  0  0  0  0  0  0  0  0  0  0  0
  1  4  1  0  0  0  0
  2 14  1  0  0  0  0
  3  7  1  0  0  0  0
  4 37  1  1  0  0  0
  4 12  1  0  0  0  0
  5 19  1  0  0  0  0
  6  9  2  0  0  0  0
  6 22  1  0  0  0  0
  7 21  1  0  0  0  0
  7 10  1  0  0  0  0
  8 12  1  0  0  0  0
  8 26  1  6  0  0  0
  9  3  1  0  0  0  0
  9 13  1  0  0  0  0
 10 23  1  6  0  0  0
 10  5  1  0  0  0  0
 11 16  2  0  0  0  0
 11  6  1  0  0  0  0
 13 17  1  0  0  0  0
 16 20  1  0  0  0  0
 17  2  1  0  0  0  0
 18 25  1  6  0  0  0
 18  8  1  0  0  0  0
 19 18  1  0  0  0  0
 20 15  1  0  0  0  0
 20  3  2  0  0  0  0
 21 13  1  1  0  0  0
 21 27  1  0  0  0  0
 22  2  1  0  0  0  0
 24  2  1  0  0  0  0
 27 25  1  1  0  0  0
 27  1  1  0  0  0  0
 28 15  1  0  0  0  0
 28 23  2  0  0  0  0
 30 29  1  0  0  0  0
 30 23  1  0  0  0  0
 31 30  2  0  0  0  0
 32 34  1  0  0  0  0
 33 35  1  0  0  0  0
 34 33  2  0  0  0  0
 34 31  1  0  0  0  0
 35 29  2  0  0  0  0
 36 37  1  0  0  0  0
M  END
>  <MODEL>
7

>  <REMARK>
 VINA RESULT:      -7.8      2.615      7.382
  Name = 
  2 active torsions:
  status: ('A' for Active; 'I' for Inactive)
    1  A    between atoms: C_4  and  O_37
    2  A    between atoms: C_23  and  C_30
                            x       y       z     vdW  Elec       q    Type
                         _______ _______ _______ _____ _____    ______ ____

>  <TORSDO>
F 2

$$$$
=
 OpenBabel11112417113D

 37 43  0  0  1  0  0  0  0  0999 V2000
  193.9420  172.5750  142.4480 C   0  0  0  0  0  2  0  0  0  0  0  0
  196.0210  174.9620  139.6160 C   0  0  0  0  0  0  0  0  0  0  0  0
  194.0010  175.9480  143.0680 C   0  0  0  0  0  0  0  0  0  0  0  0
  194.2900  171.1080  142.1770 C   0  0  2  0  0  3  0  0  0  0  0  0
  190.9430  173.9920  143.7940 O   0  0  0  0  0  0  0  0  0  0  0  0
  195.9870  176.2090  141.7600 C   0  0  0  0  0  0  0  0  0  0  0  0
  192.7920  175.2120  142.9500 N   0  0  0  0  0  0  0  0  0  0  0  0
  191.9710  170.4300  143.1080 C   0  0  2  0  0  3  0  0  0  0  0  0
  194.6470  175.9400  141.8840 C   0  0  0  0  0  0  0  0  0  0  0  0
  192.0510  174.7770  144.1300 C   0  0  1  0  0  3  0  0  0  0  0  0
  196.6800  176.6730  142.8900 C   0  0  0  0  0  3  0  0  0  0  0  0
  193.0760  170.1710  142.0730 C   0  0  0  0  0  2  0  0  0  0  0  0
  193.9150  175.2670  140.9010 N   0  0  0  0  0  0  0  0  0  0  0  0
  196.4360  173.5600  140.0250 C   0  0  0  0  0  1  0  0  0  0  0  0
  193.9930  176.4410  145.4800 O   0  0  0  0  0  0  0  0  0  0  0  0
  195.9970  176.7600  144.1300 C   0  0  0  0  0  3  0  0  0  0  0  0
  194.4710  175.0320  139.5680 C   0  0  0  0  0  2  0  0  0  0  0  0
  191.2000  171.7590  142.9250 C   0  0  1  0  0  3  0  0  0  0  0  0
  191.3240  172.6920  144.1320 C   0  0  0  0  0  2  0  0  0  0  0  0
  194.6410  176.3720  144.2380 C   0  0  0  0  0  0  0  0  0  0  0  0
  192.7470  174.6700  141.5610 C   0  0  1  0  0  3  0  0  0  0  0  0
  196.6010  175.9140  140.5350 O   0  0  0  0  0  0  0  0  0  0  0  0
  191.6910  175.9610  144.9980 C   0  0  0  0  0  0  0  0  0  0  0  0
  196.5620  175.2310  138.2270 C   0  0  0  0  0  1  0  0  0  0  0  0
  191.4910  172.4640  141.5870 C   0  0  0  0  0  2  0  0  0  0  0  0
  192.4430  170.2460  144.3980 F   0  0  0  0  0  0  0  0  0  0  0  0
  192.8700  173.1380  141.5010 C   0  0  2  0  0  3  0  0  0  0  0  0
  192.6250  176.6150  145.6290 N   0  0  0  0  0  0  0  0  0  0  0  0
  189.7020  177.2820  144.2530 C   0  0  0  0  0  3  0  0  0  0  0  0
  190.2860  176.4060  145.1820 C   0  0  0  0  0  0  0  0  0  0  0  0
  189.5020  175.9250  146.2440 C   0  0  0  0  0  3  0  0  0  0  0  0
  187.4300  175.8630  147.4180 F   0  0  0  0  0  0  0  0  0  0  0  0
  187.6060  177.2100  145.4610 C   0  0  0  0  0  3  0  0  0  0  0  0
  188.1710  176.3290  146.3860 C   0  0  0  0  0  0  0  0  0  0  0  0
  188.3710  177.6860  144.3940 C   0  0  0  0  0  3  0  0  0  0  0  0
  195.9170  171.7650  143.5260 C   0  0  0  0  0  1  0  0  0  0  0  0
  195.1630  170.6480  143.1650 O   0  0  0  0  0  0  0  0  0  0  0  0
  2 14  1  0  0  0  0
  2 22  1  0  0  0  0
  3 20  1  0  0  0  0
  4  1  1  0  0  0  0
  4 37  1  1  0  0  0
  5 19  1  0  0  0  0
  6  9  1  0  0  0  0
  6 11  2  0  0  0  0
  7  3  1  0  0  0  0
  7 10  1  0  0  0  0
  8 26  1  1  0  0  0
  9  3  2  0  0  0  0
 10  5  1  6  0  0  0
 10 23  1  0  0  0  0
 11 16  1  0  0  0  0
 12  4  1  0  0  0  0
 12  8  1  0  0  0  0
 13  9  1  0  0  0  0
 15 28  1  0  0  0  0
 16 20  2  0  0  0  0
 17  2  1  0  0  0  0
 17 13  1  0  0  0  0
 18 25  1  6  0  0  0
 18  8  1  0  0  0  0
 18 19  1  0  0  0  0
 20 15  1  0  0  0  0
 21 13  1  6  0  0  0
 21  7  1  0  0  0  0
 22  6  1  0  0  0  0
 23 30  1  0  0  0  0
 23 28  2  0  0  0  0
 24  2  1  0  0  0  0
 27 21  1  0  0  0  0
 27 25  1  1  0  0  0
 27  1  1  0  0  0  0
 29 35  2  0  0  0  0
 29 30  1  0  0  0  0
 30 31  2  0  0  0  0
 31 34  1  0  0  0  0
 33 34  2  0  0  0  0
 34 32  1  0  0  0  0
 35 33  1  0  0  0  0
 37 36  1  0  0  0  0
M  END
>  <MODEL>
8

>  <REMARK>
 VINA RESULT:      -7.7      2.221      3.158
  Name = 
  2 active torsions:
  status: ('A' for Active; 'I' for Inactive)
    1  A    between atoms: C_4  and  O_37
    2  A    between atoms: C_23  and  C_30
                            x       y       z     vdW  Elec       q    Type
                         _______ _______ _______ _____ _____    ______ ____

>  <TORSDO>
F 2

$$$$
=
 OpenBabel11112417113D

 37 43  0  0  1  0  0  0  0  0999 V2000
  189.4130  174.1330  142.8170 C   0  0  0  0  0  2  0  0  0  0  0  0
  187.7980  176.7770  145.7220 C   0  0  0  0  0  0  0  0  0  0  0  0
  191.6560  176.1900  144.4000 C   0  0  0  0  0  0  0  0  0  0  0  0
  188.2490  173.5410  142.0170 C   0  0  2  0  0  3  0  0  0  0  0  0
  192.6000  172.7020  143.5970 O   0  0  0  0  0  0  0  0  0  0  0  0
  189.9280  177.7630  144.9200 C   0  0  0  0  0  0  0  0  0  0  0  0
  191.7790  174.7750  144.4020 N   0  0  0  0  0  0  0  0  0  0  0  0
  189.6620  171.4080  141.6190 C   0  0  2  0  0  3  0  0  0  0  0  0
  190.5380  176.5420  145.0690 C   0  0  0  0  0  0  0  0  0  0  0  0
  192.6980  174.0940  143.4950 C   0  0  1  0  0  3  0  0  0  0  0  0
  190.5870  178.7470  144.1650 C   0  0  0  0  0  3  0  0  0  0  0  0
  188.2750  172.0100  141.8880 C   0  0  0  0  0  2  0  0  0  0  0  0
  189.8820  175.4270  145.6000 N   0  0  0  0  0  0  0  0  0  0  0  0
  187.0880  176.3720  144.4430 C   0  0  0  0  0  1  0  0  0  0  0  0
  193.5350  176.8040  142.9330 O   0  0  0  0  0  0  0  0  0  0  0  0
  191.8040  178.4180  143.5140 C   0  0  0  0  0  3  0  0  0  0  0  0
  188.5860  175.5560  146.2670 C   0  0  0  0  0  2  0  0  0  0  0  0
  190.6620  171.5150  142.7960 C   0  0  1  0  0  3  0  0  0  0  0  0
  191.9160  172.3170  142.4420 C   0  0  0  0  0  2  0  0  0  0  0  0
  192.3450  177.1150  143.6070 C   0  0  0  0  0  0  0  0  0  0  0  0
  190.5800  174.2350  145.1040 C   0  0  1  0  0  3  0  0  0  0  0  0
  188.6430  177.9190  145.4530 O   0  0  0  0  0  0  0  0  0  0  0  0
  194.1100  174.5980  143.6880 C   0  0  0  0  0  0  0  0  0  0  0  0
  186.7510  177.1730  146.7420 C   0  0  0  0  0  1  0  0  0  0  0  0
  190.0140  171.9640  144.1190 C   0  0  0  0  0  2  0  0  0  0  0  0
  190.1810  171.8670  140.4200 F   0  0  0  0  0  0  0  0  0  0  0  0
  189.6340  173.4530  144.1770 C   0  0  2  0  0  3  0  0  0  0  0  0
  194.4190  175.8170  143.3430 N   0  0  0  0  0  0  0  0  0  0  0  0
  195.7270  172.7030  143.4710 C   0  0  0  0  0  3  0  0  0  0  0  0
  195.1850  173.7410  144.2480 C   0  0  0  0  0  0  0  0  0  0  0  0
  195.7160  173.9780  145.5260 C   0  0  0  0  0  3  0  0  0  0  0  0
  197.2470  173.4170  147.2630 F   0  0  0  0  0  0  0  0  0  0  0  0
  197.2720  172.1450  145.2490 C   0  0  0  0  0  3  0  0  0  0  0  0
  196.7500  173.1810  146.0260 C   0  0  0  0  0  0  0  0  0  0  0  0
  196.7620  171.9060  143.9710 C   0  0  0  0  0  3  0  0  0  0  0  0
  188.1900  175.4990  140.9880 C   0  0  0  0  0  1  0  0  0  0  0  0
  188.2130  174.1240  140.7490 O   0  0  0  0  0  0  0  0  0  0  0  0
  2 17  1  0  0  0  0
  2 24  1  0  0  0  0
  3  7  1  0  0  0  0
  3  9  1  0  0  0  0
  4 37  1  6  0  0  0
  4  1  1  0  0  0  0
  6  9  2  0  0  0  0
  6 22  1  0  0  0  0
  8 26  1  6  0  0  0
  8 12  1  0  0  0  0
  8 18  1  0  0  0  0
  9 13  1  0  0  0  0
 10  5  1  1  0  0  0
 10 23  1  0  0  0  0
 10  7  1  0  0  0  0
 11  6  1  0  0  0  0
 12  4  1  0  0  0  0
 13 17  1  0  0  0  0
 14  2  1  0  0  0  0
 15 28  1  0  0  0  0
 15 20  1  0  0  0  0
 16 20  1  0  0  0  0
 16 11  2  0  0  0  0
 18 19  1  6  0  0  0
 18 25  1  0  0  0  0
 19  5  1  0  0  0  0
 20  3  2  0  0  0  0
 21  7  1  6  0  0  0
 21 13  1  0  0  0  0
 22  2  1  0  0  0  0
 23 30  1  0  0  0  0
 25 27  1  0  0  0  0
 27  1  1  6  0  0  0
 27 21  1  0  0  0  0
 28 23  2  0  0  0  0
 29 35  2  0  0  0  0
 29 30  1  0  0  0  0
 30 31  2  0  0  0  0
 31 34  1  0  0  0  0
 33 34  2  0  0  0  0
 34 32  1  0  0  0  0
 35 33  1  0  0  0  0
 37 36  1  0  0  0  0
M  END
>  <MODEL>
9

>  <REMARK>
 VINA RESULT:      -7.3      2.495      6.757
  Name = 
  2 active torsions:
  status: ('A' for Active; 'I' for Inactive)
    1  A    between atoms: C_4  and  O_37
    2  A    between atoms: C_23  and  C_30
                            x       y       z     vdW  Elec       q    Type
                         _______ _______ _______ _____ _____    ______ ____

>  <TORSDO>
F 2

$$$$
