=
 OpenBabel11112417103D

 37 43  0  0  1  0  0  0  0  0999 V2000
  192.0050  174.9590  144.1820 C   0  0  0  0  0  2  0  0  0  0  0  0
  191.8160  171.3830  140.7010 C   0  0  1  0  0  0  0  0  0  0  0  0
  188.8090  174.3270  141.1420 C   0  0  0  0  0  0  0  0  0  0  0  0
  192.5910  175.2370  145.4930 N   0  0  0  0  0  0  0  0  0  0  0  0
  188.1660  175.5880  144.8140 C   0  0  0  0  0  2  0  0  0  0  0  0
  189.9550  172.7020  139.5570 C   0  0  1  0  0  3  0  0  0  0  0  0
  188.9380  174.6900  142.5640 C   0  0  0  0  0  0  0  0  0  0  0  0
  191.1450  176.1940  147.2320 C   0  0  2  0  0  3  0  0  0  0  0  0
  189.7120  173.3220  140.8960 C   0  0  0  0  0  0  0  0  0  0  0  0
  188.1420  175.6110  143.3000 C   0  0  0  0  0  0  0  0  0  0  0  0
  189.6530  173.7330  138.4690 C   0  0  0  0  0  2  0  0  0  0  0  0
  192.2250  176.4710  146.1810 C   0  0  0  0  0  2  0  0  0  0  0  0
  190.4320  173.0470  142.0200 C   0  0  0  0  0  0  0  0  0  0  0  0
  193.1410  171.0190  140.5590 F   0  0  0  0  0  0  0  0  0  0  0  0
  187.2810  176.0140  140.2300 C   0  0  0  0  0  3  0  0  0  0  0  0
  188.2700  174.3640  138.6970 C   0  0  0  0  0  2  0  0  0  0  0  0
  191.6760  172.1990  142.0010 C   0  0  0  0  0  2  0  0  0  0  0  0
  189.7200  176.3110  146.6730 C   0  0  0  0  0  2  0  0  0  0  0  0
  189.5670  175.5840  145.3470 C   0  0  1  0  0  3  0  0  0  0  0  0
  188.1210  174.9300  140.0930 C   0  0  0  0  0  0  0  0  0  0  0  0
  190.0030  173.8780  143.0420 C   0  0  0  0  0  0  0  0  0  0  0  0
  191.4010  172.2030  139.4610 C   0  0  0  0  0  2  0  0  0  0  0  0
  187.2260  176.5330  142.7240 C   0  0  0  0  0  0  0  0  0  0  0  0
  190.9830  170.1150  140.7980 C   0  0  0  0  0  1  0  0  0  0  0  0
  189.9980  174.2590  145.4480 O   0  0  0  0  0  0  0  0  0  0  0  0
  191.3060  177.1580  148.3870 C   0  0  0  0  0  1  0  0  0  0  0  0
  190.7980  174.0080  144.3200 C   0  0  2  0  0  3  0  0  0  0  0  0
  186.9070  176.6960  141.3760 C   0  0  0  0  0  3  0  0  0  0  0  0
  186.5400  178.8560  143.3220 C   0  0  0  0  0  3  0  0  0  0  0  0
  186.5010  177.4820  143.5950 C   0  0  0  0  0  0  0  0  0  0  0  0
  185.7560  177.0140  144.6880 C   0  0  0  0  0  3  0  0  0  0  0  0
  184.3340  177.4460  146.5870 O   0  0  0  0  0  1  0  0  0  0  0  0
  185.1130  179.2830  145.2310 C   0  0  0  0  0  3  0  0  0  0  0  0
  185.0670  177.9140  145.5050 C   0  0  0  0  0  0  0  0  0  0  0  0
  185.8490  179.7550  144.1400 C   0  0  0  0  0  3  0  0  0  0  0  0
  194.2840  173.5110  145.4430 C   0  0  0  0  0  2  0  0  0  0  0  0
  193.4970  174.3300  146.1320 C   0  0  0  0  0  3  0  0  0  0  0  0
  1  4  1  0  0  0  0
  2 24  1  1  0  0  0
  2 17  1  0  0  0  0
  3  7  1  0  0  0  0
  4 37  1  0  0  0  0
  4 12  1  0  0  0  0
  6 11  1  6  0  0  0
  6  9  1  0  0  0  0
  7 21  1  0  0  0  0
  7 10  2  0  0  0  0
  8 26  1  1  0  0  0
  9  3  2  0  0  0  0
  9 13  1  0  0  0  0
 10  5  1  0  0  0  0
 11 16  1  0  0  0  0
 12  8  1  0  0  0  0
 13 21  2  0  0  0  0
 14  2  1  0  0  0  0
 15 28  1  0  0  0  0
 16 20  1  0  0  0  0
 17 13  1  0  0  0  0
 18  8  1  0  0  0  0
 19  5  1  1  0  0  0
 19 25  1  0  0  0  0
 19 18  1  0  0  0  0
 20 15  2  0  0  0  0
 20  3  1  0  0  0  0
 21 27  1  0  0  0  0
 22  6  1  0  0  0  0
 22  2  1  0  0  0  0
 23 10  1  0  0  0  0
 23 30  1  0  0  0  0
 27  1  1  6  0  0  0
 27 25  1  0  0  0  0
 28 23  2  0  0  0  0
 29 30  2  0  0  0  0
 29 35  1  0  0  0  0
 30 31  1  0  0  0  0
 31 34  2  0  0  0  0
 33 34  1  0  0  0  0
 34 32  1  0  0  0  0
 35 33  2  0  0  0  0
 36 37  2  0  0  0  0
M  END
>  <MODEL>
1

>  <REMARK>
 VINA RESULT:      -8.9      0.000      0.000
  Name = 
  2 active torsions:
  status: ('A' for Active; 'I' for Inactive)
    1  A    between atoms: N_4  and  C_37
    2  A    between atoms: C_23  and  C_30
                            x       y       z     vdW  Elec       q    Type
                         _______ _______ _______ _____ _____    ______ ____

>  <TORSDO>
F 2

$$$$
=
 OpenBabel11112417103D

 37 43  0  0  1  0  0  0  0  0999 V2000
  191.4150  175.0560  142.2700 C   0  0  0  0  0  2  0  0  0  0  0  0
  190.4770  172.3420  138.1850 C   0  0  1  0  0  0  0  0  0  0  0  0
  187.7730  175.2160  139.7090 C   0  0  0  0  0  0  0  0  0  0  0  0
  192.2040  175.0190  143.5020 N   0  0  0  0  0  0  0  0  0  0  0  0
  187.7610  175.6600  143.6190 C   0  0  0  0  0  2  0  0  0  0  0  0
  188.5620  173.9420  137.6540 C   0  0  1  0  0  3  0  0  0  0  0  0
  188.1320  175.2530  141.1360 C   0  0  0  0  0  0  0  0  0  0  0  0
  191.0960  175.6170  145.6100 C   0  0  2  0  0  3  0  0  0  0  0  0
  188.5600  174.2600  139.1160 C   0  0  0  0  0  0  0  0  0  0  0  0
  187.5170  176.0160  142.1680 C   0  0  0  0  0  0  0  0  0  0  0  0
  188.1740  175.1970  136.8720 C   0  0  0  0  0  2  0  0  0  0  0  0
  192.0270  176.0820  144.4850 C   0  0  0  0  0  2  0  0  0  0  0  0
  189.4170  173.7200  140.0280 C   0  0  0  0  0  0  0  0  0  0  0  0
  191.7410  171.9730  137.7610 F   0  0  0  0  0  0  0  0  0  0  0  0
  186.2450  177.1130  139.4280 C   0  0  0  0  0  3  0  0  0  0  0  0
  186.8850  175.8080  137.4440 C   0  0  0  0  0  2  0  0  0  0  0  0
  190.5850  172.8560  139.6330 C   0  0  0  0  0  2  0  0  0  0  0  0
  189.6160  175.9030  145.3210 C   0  0  0  0  0  2  0  0  0  0  0  0
  189.2220  175.4910  143.9110 C   0  0  1  0  0  3  0  0  0  0  0  0
  186.9800  176.0580  138.9330 C   0  0  0  0  0  0  0  0  0  0  0  0
  189.1990  174.3200  141.2570 C   0  0  0  0  0  0  0  0  0  0  0  0
  189.9420  173.4280  137.2280 C   0  0  0  0  0  2  0  0  0  0  0  0
  186.5910  177.0720  141.9520 C   0  0  0  0  0  0  0  0  0  0  0  0
  189.5850  171.1120  138.1410 C   0  0  0  0  0  1  0  0  0  0  0  0
  189.5730  174.1620  143.6600 O   0  0  0  0  0  0  0  0  0  0  0  0
  191.4890  176.2980  146.9030 C   0  0  0  0  0  1  0  0  0  0  0  0
  190.1800  174.1390  142.3920 C   0  0  2  0  0  3  0  0  0  0  0  0
  186.0890  177.5390  140.7370 C   0  0  0  0  0  3  0  0  0  0  0  0
  186.0730  179.2310  143.0890 C   0  0  0  0  0  3  0  0  0  0  0  0
  186.0660  177.8300  143.1070 C   0  0  0  0  0  0  0  0  0  0  0  0
  185.5440  177.1550  144.2200 C   0  0  0  0  0  3  0  0  0  0  0  0
  184.5310  177.2020  146.4090 O   0  0  0  0  0  1  0  0  0  0  0  0
  185.0570  179.2720  145.2870 C   0  0  0  0  0  3  0  0  0  0  0  0
  185.0430  177.8750  145.3080 C   0  0  0  0  0  0  0  0  0  0  0  0
  185.5710  179.9510  144.1780 C   0  0  0  0  0  3  0  0  0  0  0  0
  194.3070  174.1860  144.3590 C   0  0  0  0  0  2  0  0  0  0  0  0
  193.1310  173.9630  143.7820 C   0  0  0  0  0  3  0  0  0  0  0  0
  1  4  1  0  0  0  0
  2 24  1  6  0  0  0
  2 17  1  0  0  0  0
  3  7  1  0  0  0  0
  4 37  1  0  0  0  0
  4 12  1  0  0  0  0
  6 11  1  6  0  0  0
  6  9  1  0  0  0  0
  7 21  1  0  0  0  0
  7 10  2  0  0  0  0
  8 26  1  1  0  0  0
  9  3  2  0  0  0  0
  9 13  1  0  0  0  0
 10  5  1  0  0  0  0
 11 16  1  0  0  0  0
 12  8  1  0  0  0  0
 13 21  2  0  0  0  0
 14  2  1  0  0  0  0
 15 28  1  0  0  0  0
 16 20  1  0  0  0  0
 17 13  1  0  0  0  0
 18  8  1  0  0  0  0
 19  5  1  1  0  0  0
 19 18  1  0  0  0  0
 20 15  2  0  0  0  0
 20  3  1  0  0  0  0
 21 27  1  0  0  0  0
 22  6  1  0  0  0  0
 22  2  1  0  0  0  0
 23 10  1  0  0  0  0
 23 30  1  0  0  0  0
 25 19  1  0  0  0  0
 27  1  1  1  0  0  0
 27 25  1  0  0  0  0
 28 23  2  0  0  0  0
 29 30  2  0  0  0  0
 29 35  1  0  0  0  0
 30 31  1  0  0  0  0
 31 34  2  0  0  0  0
 33 34  1  0  0  0  0
 34 32  1  0  0  0  0
 35 33  2  0  0  0  0
 37 36  2  0  0  0  0
M  END
>  <MODEL>
2

>  <REMARK>
 VINA RESULT:      -8.8      1.378      1.932
  Name = 
  2 active torsions:
  status: ('A' for Active; 'I' for Inactive)
    1  A    between atoms: N_4  and  C_37
    2  A    between atoms: C_23  and  C_30
                            x       y       z     vdW  Elec       q    Type
                         _______ _______ _______ _____ _____    ______ ____

>  <TORSDO>
F 2

$$$$
=
 OpenBabel11112417103D

 37 43  0  0  1  0  0  0  0  0999 V2000
  192.4060  175.2330  144.4800 C   0  0  0  0  0  2  0  0  0  0  0  0
  192.4730  171.6040  141.0510 C   0  0  1  0  0  0  0  0  0  0  0  0
  189.1910  174.2240  141.5650 C   0  0  0  0  0  0  0  0  0  0  0  0
  193.0040  175.5910  145.7670 N   0  0  0  0  0  0  0  0  0  0  0  0
  188.5460  175.4670  145.2420 C   0  0  0  0  0  2  0  0  0  0  0  0
  190.4460  172.7030  139.9590 C   0  0  1  0  0  3  0  0  0  0  0  0
  189.3300  174.6190  142.9770 C   0  0  0  0  0  0  0  0  0  0  0  0
  191.5270  176.4180  147.5450 C   0  0  2  0  0  3  0  0  0  0  0  0
  190.1860  173.3140  141.2980 C   0  0  0  0  0  0  0  0  0  0  0  0
  188.4680  175.4640  143.7310 C   0  0  0  0  0  0  0  0  0  0  0  0
  190.0000  173.6800  138.8700 C   0  0  0  0  0  2  0  0  0  0  0  0
  192.5350  176.7900  146.4530 C   0  0  0  0  0  2  0  0  0  0  0  0
  190.9690  173.1330  142.3990 C   0  0  0  0  0  0  0  0  0  0  0  0
  193.8240  171.3780  140.8660 F   0  0  0  0  0  0  0  0  0  0  0  0
  187.4640  175.7270  140.6890 C   0  0  0  0  0  3  0  0  0  0  0  0
  188.5670  174.1660  139.1410 C   0  0  0  0  0  2  0  0  0  0  0  0
  192.2930  172.4210  142.3450 C   0  0  0  0  0  2  0  0  0  0  0  0
  190.0790  176.3770  147.0360 C   0  0  0  0  0  2  0  0  0  0  0  0
  189.9570  175.6180  145.7250 C   0  0  1  0  0  3  0  0  0  0  0  0
  188.4070  174.7350  140.5340 C   0  0  0  0  0  0  0  0  0  0  0  0
  190.4910  173.9310  143.4260 C   0  0  0  0  0  0  0  0  0  0  0  0
  191.9320  172.3560  139.8170 C   0  0  0  0  0  2  0  0  0  0  0  0
  187.4410  176.2760  143.1770 C   0  0  0  0  0  0  0  0  0  0  0  0
  191.7830  170.2570  141.1930 C   0  0  0  0  0  1  0  0  0  0  0  0
  190.5280  174.3470  145.8260 O   0  0  0  0  0  0  0  0  0  0  0  0
  191.6250  177.4120  148.6820 C   0  0  0  0  0  1  0  0  0  0  0  0
  191.3110  174.1630  144.6730 C   0  0  2  0  0  3  0  0  0  0  0  0
  187.0600  176.3840  141.8390 C   0  0  0  0  0  3  0  0  0  0  0  0
  186.0800  176.6450  145.2350 C   0  0  0  0  0  3  0  0  0  0  0  0
  186.6500  177.1570  144.0620 C   0  0  0  0  0  0  0  0  0  0  0  0
  186.4790  178.5120  143.7430 C   0  0  0  0  0  3  0  0  0  0  0  0
  185.5660  180.6830  144.2630 O   0  0  0  0  0  1  0  0  0  0  0  0
  185.1650  178.8270  145.7510 C   0  0  0  0  0  3  0  0  0  0  0  0
  185.7350  179.3440  144.5850 C   0  0  0  0  0  0  0  0  0  0  0  0
  185.3370  177.4780  146.0770 C   0  0  0  0  0  3  0  0  0  0  0  0
  195.3080  174.9260  146.0780 C   0  0  0  0  0  2  0  0  0  0  0  0
  194.0220  174.7930  146.3830 C   0  0  0  0  0  3  0  0  0  0  0  0
  1  4  1  0  0  0  0
  2 24  1  1  0  0  0
  2 17  1  0  0  0  0
  3  7  1  0  0  0  0
  4 37  1  0  0  0  0
  4 12  1  0  0  0  0
  6 11  1  6  0  0  0
  6  9  1  0  0  0  0
  7 21  1  0  0  0  0
  7 10  2  0  0  0  0
  8 26  1  1  0  0  0
  9  3  2  0  0  0  0
  9 13  1  0  0  0  0
 10  5  1  0  0  0  0
 11 16  1  0  0  0  0
 12  8  1  0  0  0  0
 13 21  2  0  0  0  0
 14  2  1  0  0  0  0
 15 28  1  0  0  0  0
 16 20  1  0  0  0  0
 17 13  1  0  0  0  0
 18  8  1  0  0  0  0
 19  5  1  1  0  0  0
 19 25  1  0  0  0  0
 19 18  1  0  0  0  0
 20 15  2  0  0  0  0
 20  3  1  0  0  0  0
 21 27  1  0  0  0  0
 22  6  1  0  0  0  0
 22  2  1  0  0  0  0
 23 10  1  0  0  0  0
 23 30  1  0  0  0  0
 27  1  1  6  0  0  0
 27 25  1  0  0  0  0
 28 23  2  0  0  0  0
 29 35  1  0  0  0  0
 30 29  2  0  0  0  0
 31 30  1  0  0  0  0
 31 34  2  0  0  0  0
 32 34  1  0  0  0  0
 33 35  2  0  0  0  0
 34 33  1  0  0  0  0
 36 37  2  0  0  0  0
M  END
>  <MODEL>
3

>  <REMARK>
 VINA RESULT:      -8.7      0.971      1.252
  Name = 
  2 active torsions:
  status: ('A' for Active; 'I' for Inactive)
    1  A    between atoms: N_4  and  C_37
    2  A    between atoms: C_23  and  C_30
                            x       y       z     vdW  Elec       q    Type
                         _______ _______ _______ _____ _____    ______ ____

>  <TORSDO>
F 2

$$$$
=
 OpenBabel11112417103D

 37 43  0  0  1  0  0  0  0  0999 V2000
  189.6120  174.7480  141.3280 C   0  0  0  0  0  2  0  0  0  0  0  0
  186.8280  177.0940  144.7460 C   0  0  1  0  0  0  0  0  0  0  0  0
  190.5200  175.2420  145.6620 C   0  0  0  0  0  0  0  0  0  0  0  0
  189.4930  174.0680  140.0390 N   0  0  0  0  0  0  0  0  0  0  0  0
  191.4010  172.0350  143.5580 C   0  0  0  0  0  2  0  0  0  0  0  0
  188.8410  177.0370  146.3140 C   0  0  1  0  0  3  0  0  0  0  0  0
  190.6170  174.2110  144.6150 C   0  0  0  0  0  0  0  0  0  0  0  0
  190.6280  171.9100  139.7530 C   0  0  2  0  0  3  0  0  0  0  0  0
  189.3140  175.8780  145.4960 C   0  0  0  0  0  0  0  0  0  0  0  0
  191.6400  173.2370  144.4470 C   0  0  0  0  0  0  0  0  0  0  0  0
  190.0540  177.8280  146.8050 C   0  0  0  0  0  2  0  0  0  0  0  0
  190.6690  173.4160  139.4730 C   0  0  0  0  0  2  0  0  0  0  0  0
  188.6600  175.3750  144.4110 C   0  0  0  0  0  0  0  0  0  0  0  0
  186.0630  177.9560  143.9830 F   0  0  0  0  0  0  0  0  0  0  0  0
  192.7310  175.2290  146.7210 C   0  0  0  0  0  3  0  0  0  0  0  0
  191.0740  176.8880  147.4660 C   0  0  0  0  0  2  0  0  0  0  0  0
  187.4550  176.0460  143.8070 C   0  0  0  0  0  2  0  0  0  0  0  0
  191.2940  171.5280  141.0830 C   0  0  0  0  0  2  0  0  0  0  0  0
  190.8520  172.4340  142.2210 C   0  0  1  0  0  3  0  0  0  0  0  0
  191.4580  175.7330  146.5650 C   0  0  0  0  0  0  0  0  0  0  0  0
  189.4360  174.3810  143.8400 C   0  0  0  0  0  0  0  0  0  0  0  0
  187.9030  177.9210  145.4820 C   0  0  0  0  0  2  0  0  0  0  0  0
  192.8870  173.2450  145.1300 C   0  0  0  0  0  0  0  0  0  0  0  0
  185.9130  176.4070  145.7460 C   0  0  0  0  0  1  0  0  0  0  0  0
  189.4590  172.4830  142.3120 O   0  0  0  0  0  0  0  0  0  0  0  0
  191.3120  171.1680  138.6250 C   0  0  0  0  0  1  0  0  0  0  0  0
  189.1130  173.8370  142.4680 C   0  0  2  0  0  3  0  0  0  0  0  0
  193.3330  174.1530  146.0910 C   0  0  0  0  0  3  0  0  0  0  0  0
  194.5700  172.2250  143.5960 C   0  0  0  0  0  3  0  0  0  0  0  0
  193.8940  172.2070  144.8230 C   0  0  0  0  0  0  0  0  0  0  0  0
  194.1910  171.2090  145.7630 C   0  0  0  0  0  3  0  0  0  0  0  0
  195.4370  169.2460  146.4030 O   0  0  0  0  0  1  0  0  0  0  0  0
  195.8160  170.2530  144.2440 C   0  0  0  0  0  3  0  0  0  0  0  0
  195.1490  170.2330  145.4720 C   0  0  0  0  0  0  0  0  0  0  0  0
  195.5280  171.2490  143.3060 C   0  0  0  0  0  3  0  0  0  0  0  0
  188.1910  174.1420  138.0010 C   0  0  0  0  0  2  0  0  0  0  0  0
  188.2540  174.0060  139.3210 C   0  0  0  0  0  3  0  0  0  0  0  0
  2 22  1  0  0  0  0
  2 24  1  1  0  0  0
  3 20  2  0  0  0  0
  4  1  1  0  0  0  0
  5 10  1  0  0  0  0
  6 22  1  6  0  0  0
  6 11  1  0  0  0  0
  7  3  1  0  0  0  0
  8 26  1  6  0  0  0
  8 18  1  0  0  0  0
  9  3  1  0  0  0  0
  9  6  1  0  0  0  0
 10  7  1  0  0  0  0
 10 23  2  0  0  0  0
 11 16  1  0  0  0  0
 12  8  1  0  0  0  0
 12  4  1  0  0  0  0
 13  9  2  0  0  0  0
 14  2  1  0  0  0  0
 17 13  1  0  0  0  0
 17  2  1  0  0  0  0
 19 18  1  6  0  0  0
 19 25  1  0  0  0  0
 19  5  1  0  0  0  0
 20 15  1  0  0  0  0
 20 16  1  0  0  0  0
 21 13  1  0  0  0  0
 21  7  2  0  0  0  0
 23 28  1  0  0  0  0
 25 27  1  0  0  0  0
 27  1  1  6  0  0  0
 27 21  1  0  0  0  0
 28 15  2  0  0  0  0
 29 30  1  0  0  0  0
 30 23  1  0  0  0  0
 30 31  2  0  0  0  0
 33 34  2  0  0  0  0
 34 31  1  0  0  0  0
 34 32  1  0  0  0  0
 35 29  2  0  0  0  0
 35 33  1  0  0  0  0
 36 37  2  0  0  0  0
 37  4  1  0  0  0  0
M  END
>  <MODEL>
4

>  <REMARK>
 VINA RESULT:      -8.5      2.858      8.370
  Name = 
  2 active torsions:
  status: ('A' for Active; 'I' for Inactive)
    1  A    between atoms: N_4  and  C_37
    2  A    between atoms: C_23  and  C_30
                            x       y       z     vdW  Elec       q    Type
                         _______ _______ _______ _____ _____    ______ ____

>  <TORSDO>
F 2

$$$$
=
 OpenBabel11112417103D

 37 43  0  0  1  0  0  0  0  0999 V2000
  189.2470  177.4850  143.2640 C   0  0  0  0  0  2  0  0  0  0  0  0
  191.4760  176.4200  147.6030 C   0  0  1  0  0  0  0  0  0  0  0  0
  192.5790  174.6060  143.9430 C   0  0  0  0  0  0  0  0  0  0  0  0
  187.9810  177.9900  142.7310 N   0  0  0  0  0  0  0  0  0  0  0  0
  189.6700  174.0660  141.3490 C   0  0  0  0  0  2  0  0  0  0  0  0
  193.3300  175.2690  146.2800 C   0  0  1  0  0  3  0  0  0  0  0  0
  191.3340  174.7040  143.1620 C   0  0  0  0  0  0  0  0  0  0  0  0
  186.9550  176.7990  140.8460 C   0  0  2  0  0  3  0  0  0  0  0  0
  192.3180  175.1200  145.1900 C   0  0  0  0  0  0  0  0  0  0  0  0
  191.0910  174.2100  141.8500 C   0  0  0  0  0  0  0  0  0  0  0  0
  194.7120  175.4630  145.6540 C   0  0  0  0  0  2  0  0  0  0  0  0
  187.7830  178.0110  141.2860 C   0  0  0  0  0  2  0  0  0  0  0  0
  191.0350  175.5770  145.2540 C   0  0  0  0  0  0  0  0  0  0  0  0
  191.2160  177.5410  148.3690 F   0  0  0  0  0  0  0  0  0  0  0  0
  194.2530  173.8700  142.3100 C   0  0  0  0  0  3  0  0  0  0  0  0
  194.9820  174.3720  144.6050 C   0  0  0  0  0  2  0  0  0  0  0  0
  190.5360  176.4390  146.3820 C   0  0  0  0  0  2  0  0  0  0  0  0
  187.8160  175.5720  140.5160 C   0  0  0  0  0  2  0  0  0  0  0  0
  188.8710  175.3130  141.5800 C   0  0  1  0  0  3  0  0  0  0  0  0
  193.8820  174.2860  143.5700 C   0  0  0  0  0  0  0  0  0  0  0  0
  190.4210  175.3620  144.0320 C   0  0  0  0  0  0  0  0  0  0  0  0
  192.9610  176.4500  147.1850 C   0  0  0  0  0  2  0  0  0  0  0  0
  192.0950  173.7410  140.9610 C   0  0  0  0  0  0  0  0  0  0  0  0
  191.1910  175.1900  148.4510 C   0  0  0  0  0  1  0  0  0  0  0  0
  188.2930  175.2390  142.8500 O   0  0  0  0  0  0  0  0  0  0  0  0
  186.1280  177.1660  139.6320 C   0  0  0  0  0  1  0  0  0  0  0  0
  189.0980  176.0140  143.7040 C   0  0  2  0  0  3  0  0  0  0  0  0
  193.4680  173.6410  141.1930 C   0  0  0  0  0  3  0  0  0  0  0  0
  191.9260  174.1620  138.5080 C   0  0  0  0  0  3  0  0  0  0  0  0
  191.7200  173.3070  139.5990 C   0  0  0  0  0  0  0  0  0  0  0  0
  191.1730  172.0330  139.3870 C   0  0  0  0  0  3  0  0  0  0  0  0
  190.2810  170.3640  137.8910 O   0  0  0  0  0  1  0  0  0  0  0  0
  191.0280  172.4830  137.0130 C   0  0  0  0  0  3  0  0  0  0  0  0
  190.8250  171.6240  138.0960 C   0  0  0  0  0  0  0  0  0  0  0  0
  191.5780  173.7520  137.2180 C   0  0  0  0  0  3  0  0  0  0  0  0
  185.9410  179.2240  143.1380 C   0  0  0  0  0  2  0  0  0  0  0  0
  186.9240  178.4500  143.5830 C   0  0  0  0  0  3  0  0  0  0  0  0
  2 14  1  0  0  0  0
  2 24  1  1  0  0  0
  3  9  2  0  0  0  0
  4  1  1  0  0  0  0
  4 37  1  0  0  0  0
  5 19  1  0  0  0  0
  5 10  1  0  0  0  0
  6 11  1  6  0  0  0
  6 22  1  0  0  0  0
  7  3  1  0  0  0  0
  7 21  1  0  0  0  0
  8 26  1  6  0  0  0
  8 12  1  0  0  0  0
  9 13  1  0  0  0  0
  9  6  1  0  0  0  0
 10  7  2  0  0  0  0
 12  4  1  0  0  0  0
 13 17  1  0  0  0  0
 15 20  2  0  0  0  0
 16 11  1  0  0  0  0
 17  2  1  0  0  0  0
 18  8  1  0  0  0  0
 19 18  1  6  0  0  0
 19 25  1  0  0  0  0
 20  3  1  0  0  0  0
 20 16  1  0  0  0  0
 21 13  2  0  0  0  0
 22  2  1  0  0  0  0
 23 28  2  0  0  0  0
 23 10  1  0  0  0  0
 25 27  1  0  0  0  0
 27  1  1  6  0  0  0
 27 21  1  0  0  0  0
 28 15  1  0  0  0  0
 29 30  1  0  0  0  0
 30 23  1  0  0  0  0
 31 30  2  0  0  0  0
 32 34  1  0  0  0  0
 33 35  1  0  0  0  0
 33 34  2  0  0  0  0
 34 31  1  0  0  0  0
 35 29  2  0  0  0  0
 36 37  2  0  0  0  0
M  END
>  <MODEL>
5

>  <REMARK>
 VINA RESULT:      -8.1      2.872      7.682
  Name = 
  2 active torsions:
  status: ('A' for Active; 'I' for Inactive)
    1  A    between atoms: N_4  and  C_37
    2  A    between atoms: C_23  and  C_30
                            x       y       z     vdW  Elec       q    Type
                         _______ _______ _______ _____ _____    ______ ____

>  <TORSDO>
F 2

$$$$
=
 OpenBabel11112417103D

 37 43  0  0  1  0  0  0  0  0999 V2000
  193.6130  175.1440  142.4590 C   0  0  0  0  0  2  0  0  0  0  0  0
  192.7020  171.8350  138.8310 C   0  0  1  0  0  0  0  0  0  0  0  0
  189.6450  174.0260  140.7690 C   0  0  0  0  0  0  0  0  0  0  0  0
  194.6080  175.4600  143.4840 N   0  0  0  0  0  0  0  0  0  0  0  0
  190.2850  174.8870  144.5550 C   0  0  0  0  0  2  0  0  0  0  0  0
  190.3410  172.7890  138.6590 C   0  0  1  0  0  3  0  0  0  0  0  0
  190.2550  174.3190  142.0760 C   0  0  0  0  0  0  0  0  0  0  0  0
  193.8180  175.9710  145.7520 C   0  0  2  0  0  3  0  0  0  0  0  0
  190.5390  173.2570  140.0650 C   0  0  0  0  0  0  0  0  0  0  0  0
  189.6650  174.9990  143.1780 C   0  0  0  0  0  0  0  0  0  0  0  0
  189.4610  173.7960  137.9180 C   0  0  0  0  0  2  0  0  0  0  0  0
  194.3320  176.5400  144.4250 C   0  0  0  0  0  2  0  0  0  0  0  0
  191.6790  173.0750  140.7910 C   0  0  0  0  0  0  0  0  0  0  0  0
  193.9070  171.7760  138.1570 F   0  0  0  0  0  0  0  0  0  0  0  0
  187.6110  175.3960  140.7380 C   0  0  0  0  0  3  0  0  0  0  0  0
  188.1910  174.0970  138.7310 C   0  0  0  0  0  2  0  0  0  0  0  0
  192.9430  172.5190  140.1910 C   0  0  0  0  0  2  0  0  0  0  0  0
  192.2910  175.8120  145.7850 C   0  0  0  0  0  2  0  0  0  0  0  0
  191.7600  175.1530  144.5220 C   0  0  1  0  0  3  0  0  0  0  0  0
  188.5060  174.5300  140.1470 C   0  0  0  0  0  0  0  0  0  0  0  0
  191.5470  173.7280  142.0040 C   0  0  0  0  0  0  0  0  0  0  0  0
  191.6970  172.6220  137.9630 C   0  0  0  0  0  2  0  0  0  0  0  0
  188.4510  175.7340  143.1200 C   0  0  0  0  0  0  0  0  0  0  0  0
  192.2110  170.4140  139.0510 C   0  0  0  0  0  1  0  0  0  0  0  0
  192.4210  173.9490  144.2680 O   0  0  0  0  0  0  0  0  0  0  0  0
  194.2480  176.8730  146.8880 C   0  0  0  0  0  1  0  0  0  0  0  0
  192.7440  173.9470  142.9000 C   0  0  2  0  0  3  0  0  0  0  0  0
  187.6040  175.9080  142.0240 C   0  0  0  0  0  3  0  0  0  0  0  0
  188.8710  177.1740  145.1140 C   0  0  0  0  0  3  0  0  0  0  0  0
  187.9710  176.4480  144.3220 C   0  0  0  0  0  0  0  0  0  0  0  0
  186.6120  176.4170  144.6700 C   0  0  0  0  0  3  0  0  0  0  0  0
  184.8170  177.0620  146.1450 O   0  0  0  0  0  1  0  0  0  0  0  0
  187.0640  177.8170  146.5920 C   0  0  0  0  0  3  0  0  0  0  0  0
  186.1610  177.0990  145.8040 C   0  0  0  0  0  0  0  0  0  0  0  0
  188.4190  177.8560  146.2480 C   0  0  0  0  0  3  0  0  0  0  0  0
  197.0210  175.3300  143.5690 C   0  0  0  0  0  2  0  0  0  0  0  0
  195.8360  174.7320  143.6050 C   0  0  0  0  0  3  0  0  0  0  0  0
  1  4  1  0  0  0  0
  2 24  1  1  0  0  0
  2 17  1  0  0  0  0
  3  7  1  0  0  0  0
  4 37  1  0  0  0  0
  4 12  1  0  0  0  0
  6 11  1  6  0  0  0
  6  9  1  0  0  0  0
  7 10  2  0  0  0  0
  8 18  1  0  0  0  0
  8 26  1  1  0  0  0
  9  3  2  0  0  0  0
  9 13  1  0  0  0  0
 10  5  1  0  0  0  0
 11 16  1  0  0  0  0
 12  8  1  0  0  0  0
 13 21  2  0  0  0  0
 14  2  1  0  0  0  0
 15 28  1  0  0  0  0
 16 20  1  0  0  0  0
 17 13  1  0  0  0  0
 19  5  1  1  0  0  0
 19 18  1  0  0  0  0
 20 15  2  0  0  0  0
 20  3  1  0  0  0  0
 21  7  1  0  0  0  0
 21 27  1  0  0  0  0
 22  6  1  0  0  0  0
 22  2  1  0  0  0  0
 23 10  1  0  0  0  0
 23 30  1  0  0  0  0
 25 19  1  0  0  0  0
 27  1  1  6  0  0  0
 27 25  1  0  0  0  0
 28 23  2  0  0  0  0
 29 35  1  0  0  0  0
 30 31  1  0  0  0  0
 30 29  2  0  0  0  0
 31 34  2  0  0  0  0
 34 32  1  0  0  0  0
 34 33  1  0  0  0  0
 35 33  2  0  0  0  0
 36 37  2  0  0  0  0
M  END
>  <MODEL>
6

>  <REMARK>
 VINA RESULT:      -7.9      1.717      2.232
  Name = 
  2 active torsions:
  status: ('A' for Active; 'I' for Inactive)
    1  A    between atoms: N_4  and  C_37
    2  A    between atoms: C_23  and  C_30
                            x       y       z     vdW  Elec       q    Type
                         _______ _______ _______ _____ _____    ______ ____

>  <TORSDO>
F 2

$$$$
=
 OpenBabel11112417103D

 37 43  0  0  1  0  0  0  0  0999 V2000
  190.4680  173.3410  142.9290 C   0  0  0  0  0  2  0  0  0  0  0  0
  194.0430  175.1300  145.9210 C   0  0  1  0  0  0  0  0  0  0  0  0
  190.2270  176.9230  145.5670 C   0  0  0  0  0  0  0  0  0  0  0  0
  190.2970  172.5370  141.7190 N   0  0  0  0  0  0  0  0  0  0  0  0
  188.5220  176.6490  142.0310 C   0  0  0  0  0  2  0  0  0  0  0  0
  192.2710  176.5840  147.0430 C   0  0  1  0  0  3  0  0  0  0  0  0
  189.8130  176.5050  144.2170 C   0  0  0  0  0  0  0  0  0  0  0  0
  188.7660  173.3570  139.9840 C   0  0  2  0  0  3  0  0  0  0  0  0
  191.4970  176.4390  145.7710 C   0  0  0  0  0  0  0  0  0  0  0  0
  188.6190  176.8550  143.5280 C   0  0  0  0  0  0  0  0  0  0  0  0
  191.2930  176.6650  148.2150 C   0  0  0  0  0  2  0  0  0  0  0  0
  188.9600  172.3870  141.1540 C   0  0  0  0  0  2  0  0  0  0  0  0
  191.9050  175.7140  144.6920 C   0  0  0  0  0  0  0  0  0  0  0  0
  194.8470  174.0260  146.1380 F   0  0  0  0  0  0  0  0  0  0  0  0
  188.2040  177.9150  146.5330 C   0  0  0  0  0  3  0  0  0  0  0  0
  190.2130  177.7240  147.9400 C   0  0  0  0  0  2  0  0  0  0  0  0
  193.1230  174.8300  144.7220 C   0  0  0  0  0  2  0  0  0  0  0  0
  188.2180  174.7230  140.4210 C   0  0  0  0  0  2  0  0  0  0  0  0
  188.9580  175.2720  141.6310 C   0  0  1  0  0  3  0  0  0  0  0  0
  189.5160  177.5020  146.6150 C   0  0  0  0  0  0  0  0  0  0  0  0
  190.8960  175.7140  143.7440 C   0  0  0  0  0  0  0  0  0  0  0  0
  193.2370  175.4050  147.2080 C   0  0  0  0  0  2  0  0  0  0  0  0
  187.4920  177.4820  144.1250 C   0  0  0  0  0  0  0  0  0  0  0  0
  194.9410  176.3130  145.5970 C   0  0  0  0  0  1  0  0  0  0  0  0
  190.3370  175.2900  141.4100 O   0  0  0  0  0  0  0  0  0  0  0  0
  187.8210  172.7450  138.9730 C   0  0  0  0  0  1  0  0  0  0  0  0
  190.9380  174.7660  142.5680 C   0  0  2  0  0  3  0  0  0  0  0  0
  187.3430  177.8980  145.4490 C   0  0  0  0  0  3  0  0  0  0  0  0
  185.0670  178.0390  143.9410 C   0  0  0  0  0  3  0  0  0  0  0  0
  186.2840  177.7410  143.3140 C   0  0  0  0  0  0  0  0  0  0  0  0
  186.3510  177.7050  141.9130 C   0  0  0  0  0  3  0  0  0  0  0  0
  185.2780  177.9160  139.7630 O   0  0  0  0  0  1  0  0  0  0  0  0
  183.9960  178.2480  141.7790 C   0  0  0  0  0  3  0  0  0  0  0  0
  185.2080  177.9560  141.1480 C   0  0  0  0  0  0  0  0  0  0  0  0
  183.9250  178.2910  143.1750 C   0  0  0  0  0  3  0  0  0  0  0  0
  191.3280  170.6690  140.5790 C   0  0  0  0  0  2  0  0  0  0  0  0
  191.4020  171.9050  141.0600 C   0  0  0  0  0  3  0  0  0  0  0  0
  2 24  1  6  0  0  0
  2 14  1  0  0  0  0
  2 22  1  0  0  0  0
  3  9  1  0  0  0  0
  3 20  2  0  0  0  0
  4  1  1  0  0  0  0
  5 10  1  0  0  0  0
  6 22  1  1  0  0  0
  6 11  1  0  0  0  0
  7  3  1  0  0  0  0
  8 26  1  6  0  0  0
  8 18  1  0  0  0  0
  8 12  1  0  0  0  0
  9  6  1  0  0  0  0
 10 23  2  0  0  0  0
 10  7  1  0  0  0  0
 12  4  1  0  0  0  0
 13 17  1  0  0  0  0
 13  9  2  0  0  0  0
 15 20  1  0  0  0  0
 16 11  1  0  0  0  0
 17  2  1  0  0  0  0
 19 18  1  6  0  0  0
 19  5  1  0  0  0  0
 20 16  1  0  0  0  0
 21  7  2  0  0  0  0
 21 13  1  0  0  0  0
 23 28  1  0  0  0  0
 25 19  1  0  0  0  0
 25 27  1  0  0  0  0
 27  1  1  1  0  0  0
 27 21  1  0  0  0  0
 28 15  2  0  0  0  0
 30 29  1  0  0  0  0
 30 23  1  0  0  0  0
 31 30  2  0  0  0  0
 32 34  1  0  0  0  0
 33 35  1  0  0  0  0
 34 33  2  0  0  0  0
 34 31  1  0  0  0  0
 35 29  2  0  0  0  0
 36 37  2  0  0  0  0
 37  4  1  0  0  0  0
M  END
>  <MODEL>
7

>  <REMARK>
 VINA RESULT:      -7.8      2.367      5.899
  Name = 
  2 active torsions:
  status: ('A' for Active; 'I' for Inactive)
    1  A    between atoms: N_4  and  C_37
    2  A    between atoms: C_23  and  C_30
                            x       y       z     vdW  Elec       q    Type
                         _______ _______ _______ _____ _____    ______ ____

>  <TORSDO>
F 2

$$$$
=
 OpenBabel11112417103D

 37 43  0  0  1  0  0  0  0  0999 V2000
  193.5410  173.5520  143.4610 C   0  0  0  0  0  2  0  0  0  0  0  0
  193.0000  169.3720  140.7830 C   0  0  1  0  0  0  0  0  0  0  0  0
  190.0610  172.4120  140.9230 C   0  0  0  0  0  0  0  0  0  0  0  0
  194.2530  174.0670  144.6300 N   0  0  0  0  0  0  0  0  0  0  0  0
  189.7850  174.3780  144.3210 C   0  0  0  0  0  2  0  0  0  0  0  0
  191.0400  170.4840  139.5850 C   0  0  1  0  0  3  0  0  0  0  0  0
  190.3290  173.0410  142.2270 C   0  0  0  0  0  0  0  0  0  0  0  0
  192.9880  175.3760  146.2780 C   0  0  2  0  0  3  0  0  0  0  0  0
  190.9320  171.3580  140.7940 C   0  0  0  0  0  0  0  0  0  0  0  0
  189.6130  174.1060  142.8410 C   0  0  0  0  0  0  0  0  0  0  0  0
  190.6360  171.2900  138.3500 C   0  0  0  0  0  2  0  0  0  0  0  0
  193.9610  175.4190  145.0950 C   0  0  0  0  0  2  0  0  0  0  0  0
  191.7580  171.2910  141.8760 C   0  0  0  0  0  0  0  0  0  0  0  0
  194.3040  168.9570  140.5890 F   0  0  0  0  0  0  0  0  0  0  0  0
  188.4560  173.9230  139.8490 C   0  0  0  0  0  3  0  0  0  0  0  0
  189.2840  171.9840  138.5810 C   0  0  0  0  0  2  0  0  0  0  0  0
  192.9910  170.4290  141.9040 C   0  0  0  0  0  2  0  0  0  0  0  0
  191.5160  175.4140  145.8450 C   0  0  0  0  0  2  0  0  0  0  0  0
  191.2310  174.4460  144.7080 C   0  0  1  0  0  3  0  0  0  0  0  0
  189.2750  172.8140  139.8470 C   0  0  0  0  0  0  0  0  0  0  0  0
  191.4340  172.3140  142.7510 C   0  0  0  0  0  0  0  0  0  0  0  0
  192.4690  169.9440  139.4520 C   0  0  0  0  0  2  0  0  0  0  0  0
  188.6480  174.9180  142.1860 C   0  0  0  0  0  0  0  0  0  0  0  0
  192.1770  168.1660  141.2060 C   0  0  0  0  0  1  0  0  0  0  0  0
  191.6650  173.1570  145.0250 O   0  0  0  0  0  0  0  0  0  0  0  0
  193.2650  176.5430  147.2010 C   0  0  0  0  0  1  0  0  0  0  0  0
  192.3500  172.6730  143.8970 C   0  0  2  0  0  3  0  0  0  0  0  0
  188.1980  174.8230  140.8680 C   0  0  0  0  0  3  0  0  0  0  0  0
  188.7930  176.8830  143.7160 C   0  0  0  0  0  3  0  0  0  0  0  0
  188.0140  176.0350  142.9190 C   0  0  0  0  0  0  0  0  0  0  0  0
  186.6340  176.2620  142.8080 C   0  0  0  0  0  3  0  0  0  0  0  0
  184.6730  177.5410  143.3880 O   0  0  0  0  0  1  0  0  0  0  0  0
  186.8200  178.1630  144.2960 C   0  0  0  0  0  3  0  0  0  0  0  0
  186.0390  177.3220  143.4980 C   0  0  0  0  0  0  0  0  0  0  0  0
  188.1970  177.9440  144.4050 C   0  0  0  0  0  3  0  0  0  0  0  0
  196.3260  173.8070  145.8490 C   0  0  0  0  0  2  0  0  0  0  0  0
  195.2150  173.2810  145.3450 C   0  0  0  0  0  3  0  0  0  0  0  0
  1  4  1  0  0  0  0
  2 24  1  1  0  0  0
  2 17  1  0  0  0  0
  3  7  1  0  0  0  0
  4 12  1  0  0  0  0
  4 37  1  0  0  0  0
  6 11  1  6  0  0  0
  6  9  1  0  0  0  0
  7 21  1  0  0  0  0
  7 10  2  0  0  0  0
  8 26  1  1  0  0  0
  9  3  2  0  0  0  0
  9 13  1  0  0  0  0
 10  5  1  0  0  0  0
 11 16  1  0  0  0  0
 12  8  1  0  0  0  0
 13 17  1  0  0  0  0
 13 21  2  0  0  0  0
 14  2  1  0  0  0  0
 15 28  1  0  0  0  0
 16 20  1  0  0  0  0
 18  8  1  0  0  0  0
 19  5  1  1  0  0  0
 19 25  1  0  0  0  0
 19 18  1  0  0  0  0
 20 15  2  0  0  0  0
 20  3  1  0  0  0  0
 21 27  1  0  0  0  0
 22  6  1  0  0  0  0
 22  2  1  0  0  0  0
 23 10  1  0  0  0  0
 23 30  1  0  0  0  0
 27  1  1  6  0  0  0
 27 25  1  0  0  0  0
 28 23  2  0  0  0  0
 29 35  1  0  0  0  0
 30 29  2  0  0  0  0
 31 30  1  0  0  0  0
 31 34  2  0  0  0  0
 32 34  1  0  0  0  0
 33 35  2  0  0  0  0
 34 33  1  0  0  0  0
 37 36  2  0  0  0  0
M  END
>  <MODEL>
8

>  <REMARK>
 VINA RESULT:      -7.7      1.531      2.349
  Name = 
  2 active torsions:
  status: ('A' for Active; 'I' for Inactive)
    1  A    between atoms: N_4  and  C_37
    2  A    between atoms: C_23  and  C_30
                            x       y       z     vdW  Elec       q    Type
                         _______ _______ _______ _____ _____    ______ ____

>  <TORSDO>
F 2

$$$$
=
 OpenBabel11112417103D

 37 43  0  0  1  0  0  0  0  0999 V2000
  187.1010  177.8570  142.5830 C   0  0  0  0  0  2  0  0  0  0  0  0
  186.2470  178.3310  147.4800 C   0  0  1  0  0  0  0  0  0  0  0  0
  189.6660  176.3890  145.9170 C   0  0  0  0  0  0  0  0  0  0  0  0
  186.3910  177.8210  141.3040 N   0  0  0  0  0  0  0  0  0  0  0  0
  189.1560  174.4950  142.5070 C   0  0  0  0  0  2  0  0  0  0  0  0
  188.6700  177.6470  147.8910 C   0  0  1  0  0  3  0  0  0  0  0  0
  189.1900  175.9400  144.5980 C   0  0  0  0  0  0  0  0  0  0  0  0
  186.9740  176.0580  139.6990 C   0  0  2  0  0  3  0  0  0  0  0  0
  188.6050  176.9920  146.5480 C   0  0  0  0  0  0  0  0  0  0  0  0
  189.9040  175.1790  143.6310 C   0  0  0  0  0  0  0  0  0  0  0  0
  190.0870  178.1740  148.1190 C   0  0  0  0  0  2  0  0  0  0  0  0
  187.1420  177.5310  140.0880 C   0  0  0  0  0  2  0  0  0  0  0  0
  187.5140  177.0060  145.7310 C   0  0  0  0  0  0  0  0  0  0  0  0
  185.3940  179.4170  147.5420 F   0  0  0  0  0  0  0  0  0  0  0  0
  192.0820  175.9790  145.8540 C   0  0  0  0  0  3  0  0  0  0  0  0
  191.1210  177.0720  147.8370 C   0  0  0  0  0  2  0  0  0  0  0  0
  186.2920  177.8350  146.0220 C   0  0  0  0  0  2  0  0  0  0  0  0
  188.0300  175.1450  140.3370 C   0  0  0  0  0  2  0  0  0  0  0  0
  188.2070  175.4300  141.8200 C   0  0  1  0  0  3  0  0  0  0  0  0
  190.9430  176.4570  146.4660 C   0  0  0  0  0  0  0  0  0  0  0  0
  187.8450  176.3990  144.5310 C   0  0  0  0  0  0  0  0  0  0  0  0
  187.6380  178.7760  147.9780 C   0  0  0  0  0  2  0  0  0  0  0  0
  191.3010  174.9220  143.6710 C   0  0  0  0  0  0  0  0  0  0  0  0
  185.6890  177.2380  148.3770 C   0  0  0  0  0  1  0  0  0  0  0  0
  186.9820  175.3870  142.4900 O   0  0  0  0  0  0  0  0  0  0  0  0
  187.0480  175.9230  138.1930 C   0  0  0  0  0  1  0  0  0  0  0  0
  186.9400  176.5150  143.3280 C   0  0  2  0  0  3  0  0  0  0  0  0
  192.2190  175.3200  144.6440 C   0  0  0  0  0  3  0  0  0  0  0  0
  192.4650  174.8450  141.4660 C   0  0  0  0  0  3  0  0  0  0  0  0
  191.9370  174.1660  142.5720 C   0  0  0  0  0  0  0  0  0  0  0  0
  192.0300  172.7680  142.6350 C   0  0  0  0  0  3  0  0  0  0  0  0
  192.7230  170.6730  141.6620 O   0  0  0  0  0  1  0  0  0  0  0  0
  193.1580  172.7380  140.4930 C   0  0  0  0  0  3  0  0  0  0  0  0
  192.6370  172.0560  141.5960 C   0  0  0  0  0  0  0  0  0  0  0  0
  193.0730  174.1330  140.4280 C   0  0  0  0  0  3  0  0  0  0  0  0
  184.4270  178.6710  140.1760 C   0  0  0  0  0  2  0  0  0  0  0  0
  184.9780  178.0450  141.2100 C   0  0  0  0  0  3  0  0  0  0  0  0
  2 14  1  0  0  0  0
  2 22  1  0  0  0  0
  2 24  1  1  0  0  0
  3 20  2  0  0  0  0
  3  9  1  0  0  0  0
  4  1  1  0  0  0  0
  5 10  1  0  0  0  0
  6 22  1  6  0  0  0
  6 11  1  0  0  0  0
  7  3  1  0  0  0  0
  8 26  1  6  0  0  0
  8 12  1  0  0  0  0
  8 18  1  0  0  0  0
  9  6  1  0  0  0  0
 10 23  2  0  0  0  0
 10  7  1  0  0  0  0
 12  4  1  0  0  0  0
 13 17  1  0  0  0  0
 13  9  2  0  0  0  0
 15 20  1  0  0  0  0
 16 11  1  0  0  0  0
 17  2  1  0  0  0  0
 19 18  1  6  0  0  0
 19 25  1  0  0  0  0
 19  5  1  0  0  0  0
 20 16  1  0  0  0  0
 21  7  2  0  0  0  0
 21 13  1  0  0  0  0
 23 28  1  0  0  0  0
 25 27  1  0  0  0  0
 27  1  1  6  0  0  0
 27 21  1  0  0  0  0
 28 15  2  0  0  0  0
 29 30  1  0  0  0  0
 30 31  2  0  0  0  0
 30 23  1  0  0  0  0
 33 34  2  0  0  0  0
 34 32  1  0  0  0  0
 34 31  1  0  0  0  0
 35 33  1  0  0  0  0
 35 29  2  0  0  0  0
 36 37  2  0  0  0  0
 37  4  1  0  0  0  0
M  END
>  <MODEL>
9

>  <REMARK>
 VINA RESULT:      -7.6      3.266      8.412
  Name = 
  2 active torsions:
  status: ('A' for Active; 'I' for Inactive)
    1  A    between atoms: N_4  and  C_37
    2  A    between atoms: C_23  and  C_30
                            x       y       z     vdW  Elec       q    Type
                         _______ _______ _______ _____ _____    ______ ____

>  <TORSDO>
F 2

$$$$
