=
 OpenBabel11112417383D

 28 32  0  0  1  0  0  0  0  0999 V2000
  186.9290  177.9290  144.2970 C   0  0  0  0  0  0  0  0  0  0  0  0
  190.2010  177.9420  146.7940 O   0  0  0  0  0  0  0  0  0  0  0  0
  187.4390  173.2010  141.3170 O   0  0  0  0  0  0  0  0  0  0  0  0
  185.4400  176.7590  146.3660 C   0  0  0  0  0  3  0  0  0  0  0  0
  189.1040  173.2910  142.9920 N   0  0  0  0  0  0  0  0  0  0  0  0
  187.6830  178.5600  143.1630 C   0  0  0  0  0  2  0  0  0  0  0  0
  190.8100  175.9520  148.0830 O   0  0  0  0  0  0  0  0  0  0  0  0
  190.6360  176.5060  146.6980 S   0  0  0  0  0  0  0  0  0  0  0  0
  192.1050  175.3400  144.7770 C   0  0  1  0  0  3  0  0  0  0  0  0
  189.4330  175.5620  145.8550 N   0  0  2  0  0  0  0  0  0  0  0  0
  186.3870  177.0410  140.0780 O   0  0  0  0  0  0  0  0  0  0  0  0
  188.8850  175.4760  143.5640 C   0  0  1  0  0  3  0  0  0  0  0  0
  191.4280  174.1610  145.3140 N   0  0  0  0  0  2  0  0  0  0  0  0
  192.1910  176.4130  145.8420 C   0  0  0  0  0  2  0  0  0  0  0  0
  187.1540  177.2020  141.0620 C   0  0  0  0  0  0  0  0  0  0  0  0
  187.4890  176.8790  145.0580 C   0  0  0  0  0  0  0  0  0  0  0  0
  188.0980  173.8620  142.1650 C   0  0  0  0  0  0  0  0  0  0  0  0
  193.4990  174.9640  144.3260 C   0  0  0  0  0  1  0  0  0  0  0  0
  188.2320  176.1950  141.3080 C   0  0  0  0  0  2  0  0  0  0  0  0
  186.7250  176.2930  146.0810 C   0  0  0  0  0  3  0  0  0  0  0  0
  185.6430  178.3940  144.5960 C   0  0  0  0  0  3  0  0  0  0  0  0
  184.9020  177.8130  145.6260 C   0  0  0  0  0  3  0  0  0  0  0  0
  186.9790  178.3470  141.9040 N   0  0  0  0  0  2  0  0  0  0  0  0
  189.5090  174.3660  143.8210 C   0  0  1  0  0  3  0  0  0  0  0  0
  187.8630  175.3060  142.4810 C   0  0  2  0  0  3  0  0  0  0  0  0
  189.9640  174.3160  145.2310 C   0  0  2  0  0  3  0  0  0  0  0  0
  189.2180  171.8810  143.3230 C   0  0  0  0  0  1  0  0  0  0  0  0
  188.8750  176.3670  144.7500 C   0  0  1  0  0  3  0  0  0  0  0  0
  1 21  2  0  0  0  0
  1 16  1  0  0  0  0
  3 17  2  0  0  0  0
  5 27  1  0  0  0  0
  5 24  1  0  0  0  0
  6  1  1  0  0  0  0
  8  2  2  0  0  0  0
  8  7  2  0  0  0  0
  9 18  1  1  0  0  0
  9 13  1  0  0  0  0
  9 14  1  0  0  0  0
 10  8  1  6  0  0  0
 11 15  2  0  0  0  0
 12 24  1  0  0  0  0
 12 28  1  0  0  0  0
 14  8  1  0  0  0  0
 15 19  1  0  0  0  0
 15 23  1  0  0  0  0
 16 20  2  0  0  0  0
 17 25  1  0  0  0  0
 17  5  1  0  0  0  0
 19 25  1  0  0  0  0
 20  4  1  0  0  0  0
 21 22  1  0  0  0  0
 22  4  2  0  0  0  0
 23  6  1  0  0  0  0
 24 26  1  0  0  0  0
 25 12  1  0  0  0  0
 26 13  1  0  0  0  0
 26 10  1  0  0  0  0
 28 16  1  0  0  0  0
 28 10  1  0  0  0  0
M  END
>  <MODEL>
1

>  <REMARK>
 VINA RESULT:      -8.3      0.000      0.000
  Name = 
  0 active torsions:
  status: ('A' for Active; 'I' for Inactive)
                            x       y       z     vdW  Elec       q    Type
                         _______ _______ _______ _____ _____    ______ ____

>  <TORSDO>
F 0

$$$$
=
 OpenBabel11112417383D

 28 32  0  0  1  0  0  0  0  0999 V2000
  188.9650  176.6070  145.2860 C   0  0  0  0  0  0  0  0  0  0  0  0
  193.0770  176.7590  145.3860 O   0  0  0  0  0  0  0  0  0  0  0  0
  187.7800  173.0320  141.1260 O   0  0  0  0  0  0  0  0  0  0  0  0
  189.0570  174.6410  147.2840 C   0  0  0  0  0  3  0  0  0  0  0  0
  190.1100  173.0860  141.5140 N   0  0  0  0  0  0  0  0  0  0  0  0
  188.8650  177.6600  144.2220 C   0  0  0  0  0  2  0  0  0  0  0  0
  194.4140  174.7090  145.3540 O   0  0  0  0  0  0  0  0  0  0  0  0
  193.4240  175.5360  144.5840 S   0  0  0  0  0  0  0  0  0  0  0  0
  193.4980  175.2650  141.9140 C   0  0  1  0  0  3  0  0  0  0  0  0
  191.9960  174.5790  144.2850 N   0  0  2  0  0  0  0  0  0  0  0  0
  186.0430  176.7030  142.0710 O   0  0  0  0  0  0  0  0  0  0  0  0
  190.1900  174.9440  142.8130 C   0  0  1  0  0  3  0  0  0  0  0  0
  193.3240  173.8640  142.2950 N   0  0  0  0  0  2  0  0  0  0  0  0
  194.1610  176.0260  143.0430 C   0  0  0  0  0  2  0  0  0  0  0  0
  187.2390  176.7870  142.4520 C   0  0  0  0  0  0  0  0  0  0  0  0
  189.9100  175.5610  145.2000 C   0  0  0  0  0  0  0  0  0  0  0  0
  188.7870  173.5950  141.6330 C   0  0  0  0  0  0  0  0  0  0  0  0
  194.3600  175.3510  140.6730 C   0  0  0  0  0  1  0  0  0  0  0  0
  188.2890  176.0320  141.7020 C   0  0  0  0  0  2  0  0  0  0  0  0
  189.9330  174.5750  146.2000 C   0  0  0  0  0  3  0  0  0  0  0  0
  188.0960  176.6680  146.3820 C   0  0  0  0  0  3  0  0  0  0  0  0
  188.1410  175.6910  147.3780 C   0  0  0  0  0  3  0  0  0  0  0  0
  187.5570  177.6110  143.5790 N   0  0  0  0  0  2  0  0  0  0  0  0
  190.8870  173.9830  142.2870 C   0  0  1  0  0  3  0  0  0  0  0  0
  188.7310  174.8170  142.4960 C   0  0  2  0  0  3  0  0  0  0  0  0
  192.0970  173.6890  143.0920 C   0  0  2  0  0  3  0  0  0  0  0  0
  190.4550  171.7050  141.2220 C   0  0  0  0  0  1  0  0  0  0  0  0
  190.8560  175.4810  144.0250 C   0  0  1  0  0  3  0  0  0  0  0  0
  1 21  1  0  0  0  0
  3 17  2  0  0  0  0
  4 22  1  0  0  0  0
  5 17  1  0  0  0  0
  5 24  1  0  0  0  0
  6  1  1  0  0  0  0
  8  7  2  0  0  0  0
  8  2  2  0  0  0  0
  9 18  1  6  0  0  0
  9 13  1  0  0  0  0
  9 14  1  0  0  0  0
 10  8  1  6  0  0  0
 11 15  2  0  0  0  0
 12 28  1  0  0  0  0
 13 26  1  0  0  0  0
 14  8  1  0  0  0  0
 15 23  1  0  0  0  0
 16  1  2  0  0  0  0
 16 20  1  0  0  0  0
 17 25  1  0  0  0  0
 19 15  1  0  0  0  0
 19 25  1  0  0  0  0
 20  4  2  0  0  0  0
 21 22  2  0  0  0  0
 23  6  1  0  0  0  0
 24 12  1  0  0  0  0
 24 26  1  0  0  0  0
 25 12  1  0  0  0  0
 26 10  1  0  0  0  0
 27  5  1  0  0  0  0
 28 10  1  0  0  0  0
 28 16  1  0  0  0  0
M  END
>  <MODEL>
2

>  <REMARK>
 VINA RESULT:      -7.8      2.200      2.858
  Name = 
  0 active torsions:
  status: ('A' for Active; 'I' for Inactive)
                            x       y       z     vdW  Elec       q    Type
                         _______ _______ _______ _____ _____    ______ ____

>  <TORSDO>
F 0

$$$$
=
 OpenBabel11112417383D

 28 32  0  0  1  0  0  0  0  0999 V2000
  191.0580  174.0050  143.6300 C   0  0  0  0  0  0  0  0  0  0  0  0
  189.9730  175.6190  147.2580 O   0  0  0  0  0  0  0  0  0  0  0  0
  187.4390  176.2170  139.9560 O   0  0  0  0  0  0  0  0  0  0  0  0
  192.9600  176.0490  143.3670 C   0  0  0  0  0  3  0  0  0  0  0  0
  187.1410  177.2000  142.0840 N   0  0  0  0  0  0  0  0  0  0  0  0
  190.0600  172.8900  143.7300 C   0  0  0  0  0  2  0  0  0  0  0  0
  189.5730  178.0220  147.4980 O   0  0  0  0  0  0  0  0  0  0  0  0
  189.1130  176.7690  146.8100 S   0  0  0  0  0  0  0  0  0  0  0  0
  186.5370  176.7230  146.0580 C   0  0  1  0  0  3  0  0  0  0  0  0
  189.2440  176.9880  145.0830 N   0  0  2  0  0  0  0  0  0  0  0  0
  188.8160  172.2980  140.3220 O   0  0  0  0  0  0  0  0  0  0  0  0
  188.3500  175.7210  143.3070 C   0  0  1  0  0  3  0  0  0  0  0  0
  186.9620  177.9530  145.3920 N   0  0  0  0  0  2  0  0  0  0  0  0
  187.4230  176.4540  147.2570 C   0  0  0  0  0  2  0  0  0  0  0  0
  188.8370  172.7740  141.4870 C   0  0  0  0  0  0  0  0  0  0  0  0
  190.7120  175.3340  143.9610 C   0  0  0  0  0  0  0  0  0  0  0  0
  187.6320  176.1980  141.2010 C   0  0  0  0  0  0  0  0  0  0  0  0
  185.1000  176.8610  146.5130 C   0  0  0  0  0  1  0  0  0  0  0  0
  187.8220  173.8060  141.8620 C   0  0  0  0  0  2  0  0  0  0  0  0
  191.6700  176.3490  143.8080 C   0  0  0  0  0  3  0  0  0  0  0  0
  192.3570  173.7140  143.1960 C   0  0  0  0  0  3  0  0  0  0  0  0
  193.3040  174.7310  143.0650 C   0  0  0  0  0  3  0  0  0  0  0  0
  189.8200  172.3030  142.4160 N   0  0  0  0  0  2  0  0  0  0  0  0
  187.6520  176.8150  143.3480 C   0  0  1  0  0  3  0  0  0  0  0  0
  188.4650  175.1800  141.9150 C   0  0  2  0  0  3  0  0  0  0  0  0
  188.0790  177.6870  144.4680 C   0  0  2  0  0  3  0  0  0  0  0  0
  186.7730  178.5510  141.6980 C   0  0  0  0  0  1  0  0  0  0  0  0
  189.3160  175.6650  144.4320 C   0  0  1  0  0  3  0  0  0  0  0  0
  1  6  1  0  0  0  0
  1 16  1  0  0  0  0
  3 17  2  0  0  0  0
  4 20  1  0  0  0  0
  5 24  1  0  0  0  0
  8 14  1  0  0  0  0
  8  2  2  0  0  0  0
  8  7  2  0  0  0  0
  9 18  1  1  0  0  0
  9 14  1  0  0  0  0
 10  8  1  1  0  0  0
 11 15  2  0  0  0  0
 12 24  1  0  0  0  0
 12 28  1  0  0  0  0
 13  9  1  0  0  0  0
 15 19  1  0  0  0  0
 15 23  1  0  0  0  0
 16 28  1  0  0  0  0
 17 25  1  0  0  0  0
 17  5  1  0  0  0  0
 19 25  1  0  0  0  0
 20 16  2  0  0  0  0
 21  1  2  0  0  0  0
 22 21  1  0  0  0  0
 22  4  2  0  0  0  0
 23  6  1  0  0  0  0
 24 26  1  0  0  0  0
 25 12  1  0  0  0  0
 26 10  1  0  0  0  0
 26 13  1  0  0  0  0
 27  5  1  0  0  0  0
 28 10  1  0  0  0  0
M  END
>  <MODEL>
3

>  <REMARK>
 VINA RESULT:      -7.7      1.476      5.160
  Name = 
  0 active torsions:
  status: ('A' for Active; 'I' for Inactive)
                            x       y       z     vdW  Elec       q    Type
                         _______ _______ _______ _____ _____    ______ ____

>  <TORSDO>
F 0

$$$$
=
 OpenBabel11112417383D

 28 32  0  0  1  0  0  0  0  0999 V2000
  188.6840  175.9510  145.2060 C   0  0  0  0  0  0  0  0  0  0  0  0
  188.2450  172.9840  142.3880 O   0  0  0  0  0  0  0  0  0  0  0  0
  194.1680  177.1420  145.1700 O   0  0  0  0  0  0  0  0  0  0  0  0
  188.0090  177.8290  143.2360 C   0  0  0  0  0  3  0  0  0  0  0  0
  193.6550  175.6140  143.4420 N   0  0  0  0  0  0  0  0  0  0  0  0
  189.0440  174.9840  146.2960 C   0  0  0  0  0  2  0  0  0  0  0  0
  189.2570  173.1950  140.1690 O   0  0  0  0  0  0  0  0  0  0  0  0
  189.5440  173.1100  141.6410 S   0  0  0  0  0  0  0  0  0  0  0  0
  191.9490  172.1220  142.3080 C   0  0  1  0  0  3  0  0  0  0  0  0
  190.3940  174.5510  142.1380 N   0  0  2  0  0  0  0  0  0  0  0  0
  191.5600  176.6580  148.3870 O   0  0  0  0  0  0  0  0  0  0  0  0
  191.5730  175.0240  144.1240 C   0  0  1  0  0  3  0  0  0  0  0  0
  192.3700  173.2040  141.4200 N   0  0  0  0  0  2  0  0  0  0  0  0
  190.5470  171.6760  141.9480 C   0  0  0  0  0  2  0  0  0  0  0  0
  191.1120  175.9160  147.4750 C   0  0  0  0  0  0  0  0  0  0  0  0
  189.2420  175.8440  143.9140 C   0  0  0  0  0  0  0  0  0  0  0  0
  193.3750  176.3110  144.6500 C   0  0  0  0  0  0  0  0  0  0  0  0
  192.9010  170.9530  142.1730 C   0  0  0  0  0  1  0  0  0  0  0  0
  192.0750  175.2960  146.5130 C   0  0  0  0  0  2  0  0  0  0  0  0
  188.9060  176.8010  142.9420 C   0  0  0  0  0  3  0  0  0  0  0  0
  187.7780  176.9810  145.4880 C   0  0  0  0  0  3  0  0  0  0  0  0
  187.4410  177.9160  144.5080 C   0  0  0  0  0  3  0  0  0  0  0  0
  189.7020  175.6780  147.3960 N   0  0  0  0  0  2  0  0  0  0  0  0
  192.4770  174.8640  143.2050 C   0  0  1  0  0  3  0  0  0  0  0  0
  192.0070  176.0030  145.1720 C   0  0  2  0  0  3  0  0  0  0  0  0
  191.8660  174.5020  141.9040 C   0  0  2  0  0  3  0  0  0  0  0  0
  194.6020  176.0410  142.4260 C   0  0  0  0  0  1  0  0  0  0  0  0
  190.2180  174.7380  143.5920 C   0  0  1  0  0  3  0  0  0  0  0  0
  1 21  1  0  0  0  0
  1  6  1  0  0  0  0
  4 22  1  0  0  0  0
  5 17  1  0  0  0  0
  6 23  1  0  0  0  0
  7  8  2  0  0  0  0
  8 14  1  0  0  0  0
  8  2  2  0  0  0  0
  9 18  1  6  0  0  0
 10  8  1  1  0  0  0
 10 28  1  0  0  0  0
 12 25  1  0  0  0  0
 13 26  1  0  0  0  0
 13  9  1  0  0  0  0
 14  9  1  0  0  0  0
 15 11  2  0  0  0  0
 16  1  2  0  0  0  0
 17  3  2  0  0  0  0
 17 25  1  0  0  0  0
 19 15  1  0  0  0  0
 20  4  2  0  0  0  0
 20 16  1  0  0  0  0
 22 21  2  0  0  0  0
 23 15  1  0  0  0  0
 24  5  1  0  0  0  0
 24 12  1  0  0  0  0
 25 19  1  0  0  0  0
 26 10  1  0  0  0  0
 26 24  1  0  0  0  0
 27  5  1  0  0  0  0
 28 16  1  0  0  0  0
 28 12  1  0  0  0  0
M  END
>  <MODEL>
4

>  <REMARK>
 VINA RESULT:      -7.4      2.421      5.503
  Name = 
  0 active torsions:
  status: ('A' for Active; 'I' for Inactive)
                            x       y       z     vdW  Elec       q    Type
                         _______ _______ _______ _____ _____    ______ ____

>  <TORSDO>
F 0

$$$$
=
 OpenBabel11112417383D

 28 32  0  0  1  0  0  0  0  0999 V2000
  189.2620  175.9060  145.2920 C   0  0  0  0  0  0  0  0  0  0  0  0
  189.5040  172.4260  143.1080 O   0  0  0  0  0  0  0  0  0  0  0  0
  194.5880  177.5600  145.9190 O   0  0  0  0  0  0  0  0  0  0  0  0
  188.8500  177.3020  142.8940 C   0  0  0  0  0  3  0  0  0  0  0  0
  194.4800  175.6880  144.4800 N   0  0  0  0  0  0  0  0  0  0  0  0
  189.4730  175.2030  146.6000 C   0  0  0  0  0  2  0  0  0  0  0  0
  190.8850  172.2980  141.0910 O   0  0  0  0  0  0  0  0  0  0  0  0
  190.9070  172.5230  142.5760 S   0  0  0  0  0  0  0  0  0  0  0  0
  193.2040  171.9040  143.8210 C   0  0  1  0  0  3  0  0  0  0  0  0
  191.5720  174.1040  142.9010 N   0  0  2  0  0  0  0  0  0  0  0  0
  191.4740  177.4690  148.6900 O   0  0  0  0  0  0  0  0  0  0  0  0
  192.3460  175.0540  144.9160 C   0  0  1  0  0  3  0  0  0  0  0  0
  193.7170  172.8280  142.8120 N   0  0  0  0  0  2  0  0  0  0  0  0
  191.9170  171.2710  143.3330 C   0  0  0  0  0  2  0  0  0  0  0  0
  191.2400  176.5280  147.8890 C   0  0  0  0  0  0  0  0  0  0  0  0
  190.0490  175.6040  144.1590 C   0  0  0  0  0  0  0  0  0  0  0  0
  193.9500  176.5760  145.4560 C   0  0  0  0  0  0  0  0  0  0  0  0
  194.2280  170.8220  144.0870 C   0  0  0  0  0  1  0  0  0  0  0  0
  192.3930  175.8240  147.2470 C   0  0  0  0  0  2  0  0  0  0  0  0
  189.8410  176.3220  142.9690 C   0  0  0  0  0  3  0  0  0  0  0  0
  188.2650  176.8850  145.2030 C   0  0  0  0  0  3  0  0  0  0  0  0
  188.0580  177.5790  144.0100 C   0  0  0  0  0  3  0  0  0  0  0  0
  189.8830  176.1530  147.6280 N   0  0  0  0  0  2  0  0  0  0  0  0
  193.4080  174.8030  144.2110 C   0  0  1  0  0  3  0  0  0  0  0  0
  192.5290  176.2520  145.7980 C   0  0  2  0  0  3  0  0  0  0  0  0
  193.0630  174.1440  142.9290 C   0  0  2  0  0  3  0  0  0  0  0  0
  195.5700  175.9960  143.5700 C   0  0  0  0  0  1  0  0  0  0  0  0
  191.1270  174.5500  144.2370 C   0  0  1  0  0  3  0  0  0  0  0  0
  1  6  1  0  0  0  0
  4 20  2  0  0  0  0
  4 22  1  0  0  0  0
  5 17  1  0  0  0  0
  6 23  1  0  0  0  0
  7  8  2  0  0  0  0
  8  2  2  0  0  0  0
  8 14  1  0  0  0  0
  9 18  1  6  0  0  0
 10  8  1  1  0  0  0
 10 26  1  0  0  0  0
 10 28  1  0  0  0  0
 12 25  1  0  0  0  0
 13 26  1  0  0  0  0
 13  9  1  0  0  0  0
 14  9  1  0  0  0  0
 15 11  2  0  0  0  0
 16 28  1  0  0  0  0
 16  1  2  0  0  0  0
 17 25  1  0  0  0  0
 17  3  2  0  0  0  0
 19 15  1  0  0  0  0
 20 16  1  0  0  0  0
 21  1  1  0  0  0  0
 22 21  2  0  0  0  0
 23 15  1  0  0  0  0
 24  5  1  0  0  0  0
 24 12  1  0  0  0  0
 25 19  1  0  0  0  0
 26 24  1  0  0  0  0
 27  5  1  0  0  0  0
 28 12  1  0  0  0  0
M  END
>  <MODEL>
5

>  <REMARK>
 VINA RESULT:      -7.2      2.816      5.768
  Name = 
  0 active torsions:
  status: ('A' for Active; 'I' for Inactive)
                            x       y       z     vdW  Elec       q    Type
                         _______ _______ _______ _____ _____    ______ ____

>  <TORSDO>
F 0

$$$$
=
 OpenBabel11112417383D

 28 32  0  0  1  0  0  0  0  0999 V2000
  186.1030  177.0370  143.9420 C   0  0  0  0  0  0  0  0  0  0  0  0
  187.4870  173.9950  141.5400 O   0  0  0  0  0  0  0  0  0  0  0  0
  190.2330  177.9160  147.6380 O   0  0  0  0  0  0  0  0  0  0  0  0
  187.0640  178.8740  142.0540 C   0  0  0  0  0  3  0  0  0  0  0  0
  190.9220  176.3540  146.0030 N   0  0  0  0  0  0  0  0  0  0  0  0
  185.5660  176.0930  144.9780 C   0  0  0  0  0  2  0  0  0  0  0  0
  189.7430  174.0650  140.5920 O   0  0  0  0  0  0  0  0  0  0  0  0
  188.9530  174.0190  141.8700 S   0  0  0  0  0  0  0  0  0  0  0  0
  190.2020  172.9240  143.9790 C   0  0  1  0  0  3  0  0  0  0  0  0
  189.3380  175.4280  142.8250 N   0  0  2  0  0  0  0  0  0  0  0  0
  186.1130  177.7010  148.2370 O   0  0  0  0  0  0  0  0  0  0  0  0
  188.8930  175.9090  145.0910 C   0  0  1  0  0  3  0  0  0  0  0  0
  191.1830  173.9460  143.6200 N   0  0  0  0  0  2  0  0  0  0  0  0
  189.3860  172.5440  142.7600 C   0  0  0  0  0  2  0  0  0  0  0  0
  186.3510  176.9510  147.2550 C   0  0  0  0  0  0  0  0  0  0  0  0
  187.3790  176.8500  143.3660 C   0  0  0  0  0  0  0  0  0  0  0  0
  189.9480  177.1110  146.7100 C   0  0  0  0  0  0  0  0  0  0  0  0
  190.9140  171.6990  144.5110 C   0  0  0  0  0  1  0  0  0  0  0  0
  187.6660  176.2420  147.1920 C   0  0  0  0  0  2  0  0  0  0  0  0
  187.8530  177.7870  142.4340 C   0  0  0  0  0  3  0  0  0  0  0  0
  185.3170  178.1270  143.5480 C   0  0  0  0  0  3  0  0  0  0  0  0
  185.7940  179.0410  142.6070 C   0  0  0  0  0  3  0  0  0  0  0  0
  185.3530  176.7910  146.2400 N   0  0  0  0  0  2  0  0  0  0  0  0
  190.1670  175.6630  145.0240 C   0  0  1  0  0  3  0  0  0  0  0  0
  188.5690  176.9010  146.1660 C   0  0  2  0  0  3  0  0  0  0  0  0
  190.5740  175.2870  143.6490 C   0  0  2  0  0  3  0  0  0  0  0  0
  192.3320  176.6890  145.9000 C   0  0  0  0  0  1  0  0  0  0  0  0
  188.2390  175.6790  143.7800 C   0  0  1  0  0  3  0  0  0  0  0  0
  1  6  1  0  0  0  0
  2  8  2  0  0  0  0
  4 20  2  0  0  0  0
  4 22  1  0  0  0  0
  5 17  1  0  0  0  0
  6 23  1  0  0  0  0
  7  8  2  0  0  0  0
  8 14  1  0  0  0  0
  9 18  1  6  0  0  0
 10  8  1  1  0  0  0
 10 26  1  0  0  0  0
 10 28  1  0  0  0  0
 12 25  1  0  0  0  0
 13 26  1  0  0  0  0
 13  9  1  0  0  0  0
 14  9  1  0  0  0  0
 15 11  2  0  0  0  0
 16 28  1  0  0  0  0
 16  1  2  0  0  0  0
 17  3  2  0  0  0  0
 19 15  1  0  0  0  0
 20 16  1  0  0  0  0
 21  1  1  0  0  0  0
 22 21  2  0  0  0  0
 23 15  1  0  0  0  0
 24 12  1  0  0  0  0
 24  5  1  0  0  0  0
 25 17  1  0  0  0  0
 25 19  1  0  0  0  0
 26 24  1  0  0  0  0
 27  5  1  0  0  0  0
 28 12  1  0  0  0  0
M  END
>  <MODEL>
6

>  <REMARK>
 VINA RESULT:      -7.2      2.126      4.812
  Name = 
  0 active torsions:
  status: ('A' for Active; 'I' for Inactive)
                            x       y       z     vdW  Elec       q    Type
                         _______ _______ _______ _____ _____    ______ ____

>  <TORSDO>
F 0

$$$$
=
 OpenBabel11112417383D

 28 32  0  0  1  0  0  0  0  0999 V2000
  195.0480  173.9610  144.3250 C   0  0  0  0  0  0  0  0  0  0  0  0
  192.6310  172.0170  141.6190 O   0  0  0  0  0  0  0  0  0  0  0  0
  191.4870  176.3930  147.9160 O   0  0  0  0  0  0  0  0  0  0  0  0
  195.2520  171.5620  145.7630 C   0  0  0  0  0  3  0  0  0  0  0  0
  190.3040  175.0170  146.4020 N   0  0  0  0  0  0  0  0  0  0  0  0
  194.9750  175.2650  143.5860 C   0  0  0  0  0  2  0  0  0  0  0  0
  190.7770  170.6080  142.3720 O   0  0  0  0  0  0  0  0  0  0  0  0
  191.3250  172.0060  142.3640 S   0  0  0  0  0  0  0  0  0  0  0  0
  189.5120  173.9750  142.5710 C   0  0  1  0  0  3  0  0  0  0  0  0
  191.5610  172.5330  144.0110 N   0  0  2  0  0  0  0  0  0  0  0  0
  194.9410  177.9080  146.1390 O   0  0  0  0  0  0  0  0  0  0  0  0
  191.9600  174.6860  144.8870 C   0  0  1  0  0  3  0  0  0  0  0  0
  189.1680  173.2030  143.7630 N   0  0  0  0  0  2  0  0  0  0  0  0
  190.1650  173.0730  141.5440 C   0  0  0  0  0  2  0  0  0  0  0  0
  194.4730  177.0810  145.3150 C   0  0  0  0  0  0  0  0  0  0  0  0
  193.8970  173.1740  144.5450 C   0  0  0  0  0  0  0  0  0  0  0  0
  191.4480  175.7430  146.8370 C   0  0  0  0  0  0  0  0  0  0  0  0
  188.2600  174.5870  141.9820 C   0  0  0  0  0  1  0  0  0  0  0  0
  192.9920  176.8840  145.2540 C   0  0  0  0  0  2  0  0  0  0  0  0
  194.0120  171.9830  145.2800 C   0  0  0  0  0  3  0  0  0  0  0  0
  196.2890  173.5260  144.8060 C   0  0  0  0  0  3  0  0  0  0  0  0
  196.3910  172.3310  145.5210 C   0  0  0  0  0  3  0  0  0  0  0  0
  195.3700  176.3660  144.4570 N   0  0  0  0  0  2  0  0  0  0  0  0
  190.7340  174.3970  145.2030 C   0  0  1  0  0  3  0  0  0  0  0  0
  192.6090  175.5700  145.9080 C   0  0  2  0  0  3  0  0  0  0  0  0
  190.3320  173.0780  144.6590 C   0  0  2  0  0  3  0  0  0  0  0  0
  189.2350  174.5410  147.2630 C   0  0  0  0  0  1  0  0  0  0  0  0
  192.5510  173.6290  144.0310 C   0  0  1  0  0  3  0  0  0  0  0  0
  1 16  2  0  0  0  0
  1 21  1  0  0  0  0
  2  8  2  0  0  0  0
  5 17  1  0  0  0  0
  5 27  1  0  0  0  0
  6  1  1  0  0  0  0
  6 23  1  0  0  0  0
  8  7  2  0  0  0  0
  9 18  1  6  0  0  0
  9 13  1  0  0  0  0
 10  8  1  6  0  0  0
 10 28  1  0  0  0  0
 10 26  1  0  0  0  0
 12 24  1  0  0  0  0
 12 25  1  0  0  0  0
 13 26  1  0  0  0  0
 14  8  1  0  0  0  0
 14  9  1  0  0  0  0
 15 11  2  0  0  0  0
 16 20  1  0  0  0  0
 17  3  2  0  0  0  0
 19 15  1  0  0  0  0
 19 25  1  0  0  0  0
 20  4  2  0  0  0  0
 21 22  2  0  0  0  0
 22  4  1  0  0  0  0
 23 15  1  0  0  0  0
 24  5  1  0  0  0  0
 25 17  1  0  0  0  0
 26 24  1  0  0  0  0
 28 16  1  0  0  0  0
 28 12  1  0  0  0  0
M  END
>  <MODEL>
7

>  <REMARK>
 VINA RESULT:      -7.2      3.516      7.296
  Name = 
  0 active torsions:
  status: ('A' for Active; 'I' for Inactive)
                            x       y       z     vdW  Elec       q    Type
                         _______ _______ _______ _____ _____    ______ ____

>  <TORSDO>
F 0

$$$$
=
 OpenBabel11112417383D

 28 32  0  0  1  0  0  0  0  0999 V2000
  189.6090  176.0480  144.2960 C   0  0  0  0  0  0  0  0  0  0  0  0
  193.4640  177.1660  145.2050 O   0  0  0  0  0  0  0  0  0  0  0  0
  190.0690  170.7910  142.3870 O   0  0  0  0  0  0  0  0  0  0  0  0
  189.2630  175.3080  146.9790 C   0  0  0  0  0  3  0  0  0  0  0  0
  192.1570  171.5500  143.1940 N   0  0  0  0  0  0  0  0  0  0  0  0
  189.7440  176.4350  142.8530 C   0  0  0  0  0  2  0  0  0  0  0  0
  194.9250  175.7000  146.5130 O   0  0  0  0  0  0  0  0  0  0  0  0
  194.1470  175.8260  145.2340 S   0  0  0  0  0  0  0  0  0  0  0  0
  195.0540  174.3770  143.1640 C   0  0  1  0  0  3  0  0  0  0  0  0
  192.9680  174.5410  145.1580 N   0  0  2  0  0  0  0  0  0  0  0  0
  187.8070  173.9750  140.9280 O   0  0  0  0  0  0  0  0  0  0  0  0
  191.6710  173.7600  143.3500 C   0  0  1  0  0  3  0  0  0  0  0  0
  194.8980  173.3140  144.1550 N   0  0  0  0  0  2  0  0  0  0  0  0
  195.2710  175.7030  143.8630 C   0  0  0  0  0  2  0  0  0  0  0  0
  188.8180  174.4970  141.4650 C   0  0  0  0  0  0  0  0  0  0  0  0
  190.6240  175.3280  144.9630 C   0  0  0  0  0  0  0  0  0  0  0  0
  190.8200  171.7380  142.7450 C   0  0  0  0  0  0  0  0  0  0  0  0
  196.2410  174.0750  142.2760 C   0  0  0  0  0  1  0  0  0  0  0  0
  190.1100  173.7440  141.4540 C   0  0  0  0  0  2  0  0  0  0  0  0
  190.4300  174.9510  146.3020 C   0  0  0  0  0  3  0  0  0  0  0  0
  188.4450  176.4080  144.9870 C   0  0  0  0  0  3  0  0  0  0  0  0
  188.2730  176.0410  146.3230 C   0  0  0  0  0  3  0  0  0  0  0  0
  188.7030  175.7970  142.0550 N   0  0  0  0  0  2  0  0  0  0  0  0
  192.5780  172.8540  143.5530 C   0  0  1  0  0  3  0  0  0  0  0  0
  190.3950  173.1710  142.8300 C   0  0  2  0  0  3  0  0  0  0  0  0
  193.5070  173.2510  144.6380 C   0  0  2  0  0  3  0  0  0  0  0  0
  192.6960  170.3110  143.7290 C   0  0  0  0  0  1  0  0  0  0  0  0
  191.8860  174.9330  144.2330 C   0  0  1  0  0  3  0  0  0  0  0  0
  1 16  2  0  0  0  0
  1 21  1  0  0  0  0
  2  8  2  0  0  0  0
  3 17  2  0  0  0  0
  5 24  1  0  0  0  0
  5 27  1  0  0  0  0
  6  1  1  0  0  0  0
  8  7  2  0  0  0  0
  9 18  1  6  0  0  0
  9 14  1  0  0  0  0
  9 13  1  0  0  0  0
 10  8  1  6  0  0  0
 11 15  2  0  0  0  0
 12 24  1  0  0  0  0
 12 28  1  0  0  0  0
 13 26  1  0  0  0  0
 14  8  1  0  0  0  0
 15 23  1  0  0  0  0
 16 20  1  0  0  0  0
 17 25  1  0  0  0  0
 17  5  1  0  0  0  0
 19 15  1  0  0  0  0
 19 25  1  0  0  0  0
 20  4  2  0  0  0  0
 21 22  2  0  0  0  0
 22  4  1  0  0  0  0
 23  6  1  0  0  0  0
 24 26  1  0  0  0  0
 25 12  1  0  0  0  0
 26 10  1  0  0  0  0
 28 16  1  0  0  0  0
 28 10  1  0  0  0  0
M  END
>  <MODEL>
8

>  <REMARK>
 VINA RESULT:      -6.9      2.527      3.586
  Name = 
  0 active torsions:
  status: ('A' for Active; 'I' for Inactive)
                            x       y       z     vdW  Elec       q    Type
                         _______ _______ _______ _____ _____    ______ ____

>  <TORSDO>
F 0

$$$$
=
 OpenBabel11112417383D

 28 32  0  0  1  0  0  0  0  0999 V2000
  190.8540  176.8830  145.6620 C   0  0  0  0  0  0  0  0  0  0  0  0
  194.8430  177.1450  144.6840 O   0  0  0  0  0  0  0  0  0  0  0  0
  188.9130  172.6230  142.5680 O   0  0  0  0  0  0  0  0  0  0  0  0
  191.5660  175.2910  147.8570 C   0  0  0  0  0  3  0  0  0  0  0  0
  191.2580  172.7970  142.3340 N   0  0  0  0  0  0  0  0  0  0  0  0
  190.4250  177.7360  144.5050 C   0  0  0  0  0  2  0  0  0  0  0  0
  196.2630  175.1510  144.6390 O   0  0  0  0  0  0  0  0  0  0  0  0
  195.0610  175.8110  144.0250 S   0  0  0  0  0  0  0  0  0  0  0  0
  194.4890  175.0900  141.5040 C   0  0  1  0  0  3  0  0  0  0  0  0
  193.6690  174.7850  144.2580 N   0  0  2  0  0  0  0  0  0  0  0  0
  187.2270  176.3600  143.3260 O   0  0  0  0  0  0  0  0  0  0  0  0
  191.5350  174.8510  143.2570 C   0  0  1  0  0  3  0  0  0  0  0  0
  194.5070  173.7710  142.1350 N   0  0  0  0  0  2  0  0  0  0  0  0
  195.3590  176.0480  142.2900 C   0  0  0  0  0  2  0  0  0  0  0  0
  188.4720  176.5360  143.3710 C   0  0  0  0  0  0  0  0  0  0  0  0
  191.8150  175.8600  145.5050 C   0  0  0  0  0  0  0  0  0  0  0  0
  189.9750  173.2870  142.7040 C   0  0  0  0  0  0  0  0  0  0  0  0
  195.0090  174.9820  140.0870 C   0  0  0  0  0  1  0  0  0  0  0  0
  189.3510  175.6890  142.5080 C   0  0  0  0  0  2  0  0  0  0  0  0
  192.1500  175.0610  146.6110 C   0  0  0  0  0  3  0  0  0  0  0  0
  190.2810  177.1110  146.9190 C   0  0  0  0  0  3  0  0  0  0  0  0
  190.6360  176.3190  148.0130 C   0  0  0  0  0  3  0  0  0  0  0  0
  189.0040  177.5480  144.2330 N   0  0  0  0  0  2  0  0  0  0  0  0
  192.1420  173.8300  142.7300 C   0  0  1  0  0  3  0  0  0  0  0  0
  190.0540  174.6380  143.3460 C   0  0  2  0  0  3  0  0  0  0  0  0
  193.5300  173.7070  143.2360 C   0  0  2  0  0  3  0  0  0  0  0  0
  191.6100  171.3950  142.1880 C   0  0  0  0  0  1  0  0  0  0  0  0
  192.4430  175.6030  144.1570 C   0  0  1  0  0  3  0  0  0  0  0  0
  1 21  1  0  0  0  0
  3 17  2  0  0  0  0
  4 22  1  0  0  0  0
  5 17  1  0  0  0  0
  5 24  1  0  0  0  0
  6  1  1  0  0  0  0
  8  7  2  0  0  0  0
  8  2  2  0  0  0  0
  9 18  1  6  0  0  0
  9 13  1  0  0  0  0
  9 14  1  0  0  0  0
 10  8  1  6  0  0  0
 11 15  2  0  0  0  0
 12 25  1  0  0  0  0
 12 28  1  0  0  0  0
 13 26  1  0  0  0  0
 14  8  1  0  0  0  0
 15 23  1  0  0  0  0
 16  1  2  0  0  0  0
 16 20  1  0  0  0  0
 17 25  1  0  0  0  0
 19 25  1  0  0  0  0
 19 15  1  0  0  0  0
 20  4  2  0  0  0  0
 21 22  2  0  0  0  0
 23  6  1  0  0  0  0
 24 26  1  0  0  0  0
 24 12  1  0  0  0  0
 26 10  1  0  0  0  0
 27  5  1  0  0  0  0
 28 10  1  0  0  0  0
 28 16  1  0  0  0  0
M  END
>  <MODEL>
9

>  <REMARK>
 VINA RESULT:      -6.9      2.932      4.196
  Name = 
  0 active torsions:
  status: ('A' for Active; 'I' for Inactive)
                            x       y       z     vdW  Elec       q    Type
                         _______ _______ _______ _____ _____    ______ ____

>  <TORSDO>
F 0

$$$$
