=
 OpenBabel11112417013D

 31 35  0  0  1  0  0  0  0  0999 V2000
  192.3310  170.5780  142.7810 C   0  0  0  0  0  0  0  0  0  0  0  0
  191.3140  173.4700  145.0130 C   0  0  2  0  0  3  0  0  0  0  0  0
  192.4380  174.3860  145.4690 C   0  0  0  0  0  0  0  0  0  0  0  0
  194.8220  174.6610  145.8920 C   0  0  0  0  0  0  0  0  0  0  0  0
  191.6230  172.8450  143.6390 C   0  0  1  0  0  3  0  0  0  0  0  0
  191.3260  170.6230  141.6680 C   0  0  0  0  0  2  0  0  0  0  0  0
  193.7500  173.8870  145.4440 C   0  0  0  0  0  3  0  0  0  0  0  0
  189.4620  174.8090  143.8200 C   0  0  2  0  0  3  0  0  0  0  0  0
  193.1230  169.6050  142.8630 O   0  0  0  0  0  0  0  0  0  0  0  0
  190.8540  176.2870  146.0840 C   0  0  0  0  0  2  0  0  0  0  0  0
  196.2040  174.1160  145.8430 C   0  0  0  0  0  1  0  0  0  0  0  0
  189.7180  174.0150  142.5270 C   0  0  0  0  0  2  0  0  0  0  0  0
  189.8850  174.0570  145.0950 C   0  0  2  0  0  3  0  0  0  0  0  0
  192.3280  171.5780  143.8070 N   0  0  0  0  0  2  0  0  0  0  0  0
  194.5960  175.9460  146.3840 C   0  0  0  0  0  3  0  0  0  0  0  0
  190.3760  172.6610  142.7720 C   0  0  1  0  0  3  0  0  0  0  0  0
  190.7860  172.0350  141.4450 C   0  0  0  0  0  2  0  0  0  0  0  0
  189.6300  175.0500  146.6040 S   0  0  0  0  0  0  0  0  0  0  0  0
  192.2150  175.6790  146.0030 C   0  0  0  0  0  0  0  0  0  0  0  0
  193.2970  176.4510  146.4400 C   0  0  0  0  0  3  0  0  0  0  0  0
  188.4030  177.4570  143.5890 O   0  0  0  0  0  0  0  0  0  0  0  0
  187.5880  176.5120  143.7650 C   0  0  0  0  0  0  0  0  0  0  0  0
  188.0540  175.1660  143.9010 N   0  0  0  0  0  2  0  0  0  0  0  0
  184.9350  179.5290  144.4090 C   0  0  1  0  0  3  0  0  0  0  0  0
  185.7490  177.8150  142.7380 C   0  0  0  0  0  2  0  0  0  0  0  0
  186.3830  176.5990  146.2460 F   0  0  0  0  0  0  0  0  0  0  0  0
  185.5670  180.7020  144.0420 F   0  0  0  0  0  0  0  0  0  0  0  0
  184.5860  178.7120  143.1570 C   0  0  0  0  0  2  0  0  0  0  0  0
  185.6860  177.2620  145.2500 C   0  0  2  0  0  3  0  0  0  0  0  0
  186.1240  176.8100  143.8400 C   0  0  2  0  0  3  0  0  0  0  0  0
  185.8120  178.7730  145.4180 C   0  0  0  0  0  2  0  0  0  0  0  0
  1  9  2  0  0  0  0
  1 14  1  0  0  0  0
  2 13  1  0  0  0  0
  2  3  1  6  0  0  0
  3 19  1  0  0  0  0
  4 15  2  0  0  0  0
  5 14  1  1  0  0  0
  5  2  1  0  0  0  0
  6  1  1  0  0  0  0
  7  3  2  0  0  0  0
  7  4  1  0  0  0  0
  8 23  1  1  0  0  0
  8 13  1  0  0  0  0
 10 18  1  0  0  0  0
 11  4  1  0  0  0  0
 12 16  1  0  0  0  0
 12  8  1  0  0  0  0
 13 18  1  1  0  0  0
 15 20  1  0  0  0  0
 16 17  1  6  0  0  0
 16  5  1  0  0  0  0
 17  6  1  0  0  0  0
 19 10  1  0  0  0  0
 19 20  2  0  0  0  0
 21 22  2  0  0  0  0
 22 23  1  0  0  0  0
 24 27  1  6  0  0  0
 24 31  1  0  0  0  0
 25 28  1  0  0  0  0
 25 30  1  0  0  0  0
 28 24  1  0  0  0  0
 29 31  1  0  0  0  0
 29 26  1  1  0  0  0
 30 22  1  1  0  0  0
 30 29  1  0  0  0  0
M  END
>  <MODEL>
1

>  <REMARK>
 VINA RESULT:      -8.7      0.000      0.000
  Name = 
  2 active torsions:
  status: ('A' for Active; 'I' for Inactive)
    1  A    between atoms: C_5  and  C_30
    2  A    between atoms: C_10  and  N_16
                            x       y       z     vdW  Elec       q    Type
                         _______ _______ _______ _____ _____    ______ ____

>  <TORSDO>
F 2

$$$$
=
 OpenBabel11112417013D

 31 35  0  0  1  0  0  0  0  0999 V2000
  187.8180  174.8840  138.8860 C   0  0  0  0  0  0  0  0  0  0  0  0
  188.4240  176.7100  142.1530 C   0  0  2  0  0  3  0  0  0  0  0  0
  187.1860  177.2300  142.8650 C   0  0  0  0  0  0  0  0  0  0  0  0
  184.8600  177.9380  142.6910 C   0  0  0  0  0  0  0  0  0  0  0  0
  188.1080  175.4460  141.3310 C   0  0  1  0  0  3  0  0  0  0  0  0
  188.6590  173.6480  139.0130 C   0  0  0  0  0  2  0  0  0  0  0  0
  186.0180  177.4210  142.1080 C   0  0  0  0  0  3  0  0  0  0  0  0
  189.7980  175.1740  143.7030 C   0  0  2  0  0  3  0  0  0  0  0  0
  187.2690  175.1520  137.7860 O   0  0  0  0  0  0  0  0  0  0  0  0
  188.3780  177.4690  145.1060 C   0  0  0  0  0  2  0  0  0  0  0  0
  183.6330  178.1180  141.8730 C   0  0  0  0  0  1  0  0  0  0  0  0
  189.5790  173.9990  142.7350 C   0  0  0  0  0  2  0  0  0  0  0  0
  189.6920  176.5530  143.0260 C   0  0  2  0  0  3  0  0  0  0  0  0
  187.7170  175.8120  139.9720 N   0  0  0  0  0  2  0  0  0  0  0  0
  184.8560  178.2860  144.0410 C   0  0  0  0  0  3  0  0  0  0  0  0
  189.2610  174.4410  141.3110 C   0  0  1  0  0  3  0  0  0  0  0  0
  188.8530  173.2380  140.4710 C   0  0  0  0  0  2  0  0  0  0  0  0
  189.8910  177.9260  144.2110 S   0  0  0  0  0  0  0  0  0  0  0  0
  187.1810  177.6190  144.2270 C   0  0  0  0  0  0  0  0  0  0  0  0
  186.0130  178.1280  144.8040 C   0  0  0  0  0  3  0  0  0  0  0  0
  190.2260  174.5540  146.4620 O   0  0  0  0  0  0  0  0  0  0  0  0
  191.2410  174.7140  145.7330 C   0  0  0  0  0  0  0  0  0  0  0  0
  191.0960  175.0390  144.3480 N   0  0  0  0  0  2  0  0  0  0  0  0
  195.1920  175.2790  144.9400 C   0  0  1  0  0  3  0  0  0  0  0  0
  193.2670  175.9560  146.4320 C   0  0  0  0  0  2  0  0  0  0  0  0
  192.7210  172.4650  145.1270 F   0  0  0  0  0  0  0  0  0  0  0  0
  195.2710  176.2830  143.9940 F   0  0  0  0  0  0  0  0  0  0  0  0
  194.7850  175.8720  146.2960 C   0  0  0  0  0  2  0  0  0  0  0  0
  193.4720  173.5360  145.5840 C   0  0  2  0  0  3  0  0  0  0  0  0
  192.6050  174.5720  146.3310 C   0  0  2  0  0  3  0  0  0  0  0  0
  194.2460  174.1780  144.4360 C   0  0  0  0  0  2  0  0  0  0  0  0
  1  6  1  0  0  0  0
  1 14  1  0  0  0  0
  2  3  1  1  0  0  0
  2 13  1  0  0  0  0
  3 19  1  0  0  0  0
  4 15  2  0  0  0  0
  5 14  1  6  0  0  0
  5  2  1  0  0  0  0
  6 17  1  0  0  0  0
  7  4  1  0  0  0  0
  7  3  2  0  0  0  0
  8 23  1  6  0  0  0
  9  1  2  0  0  0  0
 11  4  1  0  0  0  0
 12  8  1  0  0  0  0
 13  8  1  0  0  0  0
 13 18  1  1  0  0  0
 15 20  1  0  0  0  0
 16 17  1  6  0  0  0
 16  5  1  0  0  0  0
 16 12  1  0  0  0  0
 18 10  1  0  0  0  0
 19 20  2  0  0  0  0
 19 10  1  0  0  0  0
 22 21  2  0  0  0  0
 23 22  1  0  0  0  0
 24 27  1  6  0  0  0
 24 28  1  0  0  0  0
 28 25  1  0  0  0  0
 29 26  1  6  0  0  0
 29 30  1  0  0  0  0
 30 22  1  6  0  0  0
 30 25  1  0  0  0  0
 31 24  1  0  0  0  0
 31 29  1  0  0  0  0
M  END
>  <MODEL>
2

>  <REMARK>
 VINA RESULT:      -8.4      3.342      7.437
  Name = 
  2 active torsions:
  status: ('A' for Active; 'I' for Inactive)
    1  A    between atoms: C_5  and  C_30
    2  A    between atoms: C_10  and  N_16
                            x       y       z     vdW  Elec       q    Type
                         _______ _______ _______ _____ _____    ______ ____

>  <TORSDO>
F 2

$$$$
=
 OpenBabel11112417013D

 31 35  0  0  1  0  0  0  0  0999 V2000
  185.7710  178.1590  140.6140 C   0  0  0  0  0  0  0  0  0  0  0  0
  188.0870  177.7180  143.5830 C   0  0  2  0  0  3  0  0  0  0  0  0
  187.4120  177.4830  144.9240 C   0  0  0  0  0  0  0  0  0  0  0  0
  185.4120  177.7390  146.2920 C   0  0  0  0  0  0  0  0  0  0  0  0
  187.2320  177.1740  142.4220 C   0  0  1  0  0  3  0  0  0  0  0  0
  186.3670  177.2640  139.5670 C   0  0  0  0  0  2  0  0  0  0  0  0
  186.0750  177.8860  145.0730 C   0  0  0  0  0  3  0  0  0  0  0  0
  189.7520  175.8240  143.0450 C   0  0  2  0  0  3  0  0  0  0  0  0
  184.8310  178.9360  140.3040 O   0  0  0  0  0  0  0  0  0  0  0  0
  189.5170  176.5230  145.9960 C   0  0  0  0  0  2  0  0  0  0  0  0
  183.9930  178.1610  146.4210 C   0  0  0  0  0  1  0  0  0  0  0  0
  188.9290  175.4530  141.7990 C   0  0  0  0  0  2  0  0  0  0  0  0
  189.5700  177.2880  143.4850 C   0  0  2  0  0  3  0  0  0  0  0  0
  186.3280  178.2100  141.9320 N   0  0  0  0  0  2  0  0  0  0  0  0
  186.0810  177.1960  147.3880 C   0  0  0  0  0  3  0  0  0  0  0  0
  188.0710  176.6010  141.2790 C   0  0  1  0  0  3  0  0  0  0  0  0
  187.1380  176.0990  140.1850 C   0  0  0  0  0  2  0  0  0  0  0  0
  190.5050  177.6790  145.0020 S   0  0  0  0  0  0  0  0  0  0  0  0
  188.0930  176.9640  146.0530 C   0  0  0  0  0  0  0  0  0  0  0  0
  187.4160  176.8120  147.2690 C   0  0  0  0  0  3  0  0  0  0  0  0
  191.3420  173.8940  144.4350 O   0  0  0  0  0  0  0  0  0  0  0  0
  191.8960  174.5640  143.5220 C   0  0  0  0  0  0  0  0  0  0  0  0
  191.1590  175.5530  142.7980 N   0  0  0  0  0  2  0  0  0  0  0  0
  195.3150  172.9730  145.0520 C   0  0  1  0  0  3  0  0  0  0  0  0
  193.6110  172.8080  143.1910 C   0  0  0  0  0  2  0  0  0  0  0  0
  193.7750  176.3440  144.4790 F   0  0  0  0  0  0  0  0  0  0  0  0
  194.9340  172.0060  145.9620 F   0  0  0  0  0  0  0  0  0  0  0  0
  195.0390  172.4830  143.6240 C   0  0  0  0  0  2  0  0  0  0  0  0
  194.2860  175.1010  144.1430 C   0  0  2  0  0  3  0  0  0  0  0  0
  193.3380  174.3210  143.2070 C   0  0  2  0  0  3  0  0  0  0  0  0
  194.6180  174.2980  145.3970 C   0  0  0  0  0  2  0  0  0  0  0  0
  1 14  1  0  0  0  0
  2  3  1  1  0  0  0
  3  7  2  0  0  0  0
  3 19  1  0  0  0  0
  4 11  1  0  0  0  0
  4 15  2  0  0  0  0
  5 14  1  6  0  0  0
  5  2  1  0  0  0  0
  6 17  1  0  0  0  0
  6  1  1  0  0  0  0
  7  4  1  0  0  0  0
  8 23  1  6  0  0  0
  8 13  1  0  0  0  0
  9  1  2  0  0  0  0
 10 19  1  0  0  0  0
 12  8  1  0  0  0  0
 13  2  1  0  0  0  0
 13 18  1  1  0  0  0
 16 17  1  6  0  0  0
 16 12  1  0  0  0  0
 16  5  1  0  0  0  0
 18 10  1  0  0  0  0
 19 20  2  0  0  0  0
 20 15  1  0  0  0  0
 22 21  2  0  0  0  0
 23 22  1  0  0  0  0
 24 31  1  0  0  0  0
 24 27  1  1  0  0  0
 25 30  1  0  0  0  0
 25 28  1  0  0  0  0
 28 24  1  0  0  0  0
 29 26  1  1  0  0  0
 29 31  1  0  0  0  0
 30 22  1  1  0  0  0
 30 29  1  0  0  0  0
M  END
>  <MODEL>
3

>  <REMARK>
 VINA RESULT:      -8.2      3.305      8.002
  Name = 
  2 active torsions:
  status: ('A' for Active; 'I' for Inactive)
    1  A    between atoms: C_5  and  C_30
    2  A    between atoms: C_10  and  N_16
                            x       y       z     vdW  Elec       q    Type
                         _______ _______ _______ _____ _____    ______ ____

>  <TORSDO>
F 2

$$$$
=
 OpenBabel11112417013D

 31 35  0  0  1  0  0  0  0  0999 V2000
  184.6750  178.1210  146.6160 C   0  0  0  0  0  0  0  0  0  0  0  0
  186.7230  176.4110  143.9210 C   0  0  2  0  0  3  0  0  0  0  0  0
  186.4820  176.8880  142.4990 C   0  0  0  0  0  0  0  0  0  0  0  0
  184.9690  177.9640  140.9200 C   0  0  0  0  0  0  0  0  0  0  0  0
  186.4730  177.5390  144.9410 C   0  0  1  0  0  3  0  0  0  0  0  0
  185.6880  178.4460  147.6740 C   0  0  0  0  0  2  0  0  0  0  0  0
  185.2720  177.5420  142.2150 C   0  0  0  0  0  3  0  0  0  0  0  0
  189.2170  176.6040  144.5460 C   0  0  2  0  0  3  0  0  0  0  0  0
  183.4520  178.2910  146.8540 O   0  0  0  0  0  0  0  0  0  0  0  0
  188.6760  175.9210  141.6320 C   0  0  0  0  0  2  0  0  0  0  0  0
  183.6870  178.6660  140.6480 C   0  0  0  0  0  1  0  0  0  0  0  0
  188.8620  177.6000  145.6640 C   0  0  0  0  0  2  0  0  0  0  0  0
  188.0560  175.6650  144.1710 C   0  0  2  0  0  3  0  0  0  0  0  0
  185.0800  177.5260  145.3770 N   0  0  0  0  0  2  0  0  0  0  0  0
  185.8700  177.7280  139.8820 C   0  0  0  0  0  3  0  0  0  0  0  0
  187.4180  177.4800  146.1420 C   0  0  1  0  0  3  0  0  0  0  0  0
  187.0870  178.6270  147.0870 C   0  0  0  0  0  2  0  0  0  0  0  0
  188.4870  174.5420  142.7990 S   0  0  0  0  0  0  0  0  0  0  0  0
  187.3740  176.6230  141.4310 C   0  0  0  0  0  0  0  0  0  0  0  0
  187.0660  177.0590  140.1380 C   0  0  0  0  0  3  0  0  0  0  0  0
  191.9470  177.3520  144.1350 O   0  0  0  0  0  0  0  0  0  0  0  0
  191.7200  176.2580  144.7180 C   0  0  0  0  0  0  0  0  0  0  0  0
  190.3770  175.8200  144.9430 N   0  0  0  0  0  2  0  0  0  0  0  0
  195.7330  175.7580  144.2650 C   0  0  1  0  0  3  0  0  0  0  0  0
  193.8900  176.2900  145.9120 C   0  0  0  0  0  2  0  0  0  0  0  0
  192.5390  174.1750  143.1030 F   0  0  0  0  0  0  0  0  0  0  0  0
  196.2520  176.9890  143.9120 F   0  0  0  0  0  0  0  0  0  0  0  0
  195.3160  175.7730  145.7430 C   0  0  0  0  0  2  0  0  0  0  0  0
  193.4940  174.6030  144.0100 C   0  0  2  0  0  3  0  0  0  0  0  0
  192.8700  175.4130  145.1670 C   0  0  2  0  0  3  0  0  0  0  0  0
  194.5920  175.3920  143.3040 C   0  0  0  0  0  2  0  0  0  0  0  0
  1  9  2  0  0  0  0
  1  6  1  0  0  0  0
  2  3  1  6  0  0  0
  2 13  1  0  0  0  0
  2  5  1  0  0  0  0
  4  7  2  0  0  0  0
  5 14  1  1  0  0  0
  5 16  1  0  0  0  0
  7  3  1  0  0  0  0
  8 23  1  1  0  0  0
  8 12  1  0  0  0  0
 10 18  1  0  0  0  0
 11  4  1  0  0  0  0
 13 18  1  6  0  0  0
 13  8  1  0  0  0  0
 14  1  1  0  0  0  0
 15 20  2  0  0  0  0
 15  4  1  0  0  0  0
 16 12  1  6  0  0  0
 16 17  1  0  0  0  0
 17  6  1  0  0  0  0
 19 10  1  0  0  0  0
 19  3  2  0  0  0  0
 20 19  1  0  0  0  0
 21 22  2  0  0  0  0
 22 23  1  0  0  0  0
 24 27  1  6  0  0  0
 24 28  1  0  0  0  0
 28 25  1  0  0  0  0
 29 26  1  6  0  0  0
 29 30  1  0  0  0  0
 30 22  1  6  0  0  0
 30 25  1  0  0  0  0
 31 29  1  0  0  0  0
 31 24  1  0  0  0  0
M  END
>  <MODEL>
4

>  <REMARK>
 VINA RESULT:      -8.1      3.609      8.657
  Name = 
  2 active torsions:
  status: ('A' for Active; 'I' for Inactive)
    1  A    between atoms: C_5  and  C_30
    2  A    between atoms: C_10  and  N_16
                            x       y       z     vdW  Elec       q    Type
                         _______ _______ _______ _____ _____    ______ ____

>  <TORSDO>
F 2

$$$$
=
 OpenBabel11112417013D

 31 35  0  0  1  0  0  0  0  0999 V2000
  186.6150  177.5290  140.6440 C   0  0  0  0  0  0  0  0  0  0  0  0
  188.2460  177.2220  144.0530 C   0  0  2  0  0  3  0  0  0  0  0  0
  187.3080  177.2880  145.2480 C   0  0  0  0  0  0  0  0  0  0  0  0
  185.1630  178.0250  146.1390 C   0  0  0  0  0  0  0  0  0  0  0  0
  187.5380  176.6340  142.8170 C   0  0  1  0  0  3  0  0  0  0  0  0
  187.2350  176.4120  139.8560 C   0  0  0  0  0  2  0  0  0  0  0  0
  186.0530  177.8920  145.0720 C   0  0  0  0  0  3  0  0  0  0  0  0
  189.6420  175.0550  144.0980 C   0  0  2  0  0  3  0  0  0  0  0  0
  185.8900  178.3730  140.0590 O   0  0  0  0  0  0  0  0  0  0  0  0
  188.9940  176.2170  146.8330 C   0  0  0  0  0  2  0  0  0  0  0  0
  183.8350  178.6560  145.9250 C   0  0  0  0  0  1  0  0  0  0  0  0
  189.0100  174.6180  142.7650 C   0  0  0  0  0  2  0  0  0  0  0  0
  189.6290  176.5790  144.3110 C   0  0  2  0  0  3  0  0  0  0  0  0
  186.9230  177.7000  142.0320 N   0  0  0  0  0  2  0  0  0  0  0  0
  185.5220  177.5650  147.4060 C   0  0  0  0  0  3  0  0  0  0  0  0
  188.4640  175.7840  141.9460 C   0  0  1  0  0  3  0  0  0  0  0  0
  187.6750  175.2570  140.7550 C   0  0  0  0  0  2  0  0  0  0  0  0
  190.3240  177.0600  145.9290 S   0  0  0  0  0  0  0  0  0  0  0  0
  187.6760  176.8560  146.5460 C   0  0  0  0  0  0  0  0  0  0  0  0
  186.7740  176.9850  147.6070 C   0  0  0  0  0  3  0  0  0  0  0  0
  190.3990  172.3950  144.8310 O   0  0  0  0  0  0  0  0  0  0  0  0
  191.3170  173.2080  144.5390 C   0  0  0  0  0  0  0  0  0  0  0  0
  191.0060  174.5560  144.1770 N   0  0  0  0  0  2  0  0  0  0  0  0
  195.1340  174.4700  143.9100 C   0  0  1  0  0  3  0  0  0  0  0  0
  193.5100  173.5760  145.6290 C   0  0  0  0  0  2  0  0  0  0  0  0
  192.5220  172.4040  142.1890 F   0  0  0  0  0  0  0  0  0  0  0  0
  195.1420  175.8370  144.1140 F   0  0  0  0  0  0  0  0  0  0  0  0
  194.9810  173.7440  145.2540 C   0  0  0  0  0  2  0  0  0  0  0  0
  193.4080  172.7630  143.1910 C   0  0  2  0  0  3  0  0  0  0  0  0
  192.7420  172.7520  144.5830 C   0  0  2  0  0  3  0  0  0  0  0  0
  194.0460  174.1150  142.8860 C   0  0  0  0  0  2  0  0  0  0  0  0
  1 14  1  0  0  0  0
  2 13  1  0  0  0  0
  2  3  1  1  0  0  0
  3 19  1  0  0  0  0
  4 15  2  0  0  0  0
  5 14  1  6  0  0  0
  5  2  1  0  0  0  0
  6  1  1  0  0  0  0
  6 17  1  0  0  0  0
  7  3  2  0  0  0  0
  7  4  1  0  0  0  0
  8 23  1  6  0  0  0
  8 13  1  0  0  0  0
  9  1  2  0  0  0  0
 11  4  1  0  0  0  0
 12  8  1  0  0  0  0
 13 18  1  1  0  0  0
 15 20  1  0  0  0  0
 16 17  1  6  0  0  0
 16 12  1  0  0  0  0
 16  5  1  0  0  0  0
 18 10  1  0  0  0  0
 19 10  1  0  0  0  0
 19 20  2  0  0  0  0
 22 21  2  0  0  0  0
 23 22  1  0  0  0  0
 24 27  1  1  0  0  0
 24 28  1  0  0  0  0
 28 25  1  0  0  0  0
 29 26  1  6  0  0  0
 29 30  1  0  0  0  0
 30 22  1  6  0  0  0
 30 25  1  0  0  0  0
 31 29  1  0  0  0  0
 31 24  1  0  0  0  0
M  END
>  <MODEL>
5

>  <REMARK>
 VINA RESULT:      -8.0      3.305      7.709
  Name = 
  2 active torsions:
  status: ('A' for Active; 'I' for Inactive)
    1  A    between atoms: C_5  and  C_30
    2  A    between atoms: C_10  and  N_16
                            x       y       z     vdW  Elec       q    Type
                         _______ _______ _______ _____ _____    ______ ____

>  <TORSDO>
F 2

$$$$
=
 OpenBabel11112417013D

 31 35  0  0  1  0  0  0  0  0999 V2000
  187.4910  176.5490  140.8760 C   0  0  0  0  0  0  0  0  0  0  0  0
  188.2910  177.0890  144.5430 C   0  0  2  0  0  3  0  0  0  0  0  0
  187.1200  177.4810  145.4290 C   0  0  0  0  0  0  0  0  0  0  0  0
  184.8980  178.4710  145.5810 C   0  0  0  0  0  0  0  0  0  0  0  0
  187.8300  176.2210  143.3570 C   0  0  1  0  0  3  0  0  0  0  0  0
  188.1760  175.2530  140.5540 C   0  0  0  0  0  2  0  0  0  0  0  0
  185.9890  178.0480  144.8200 C   0  0  0  0  0  3  0  0  0  0  0  0
  189.4590  174.9750  145.4430 C   0  0  2  0  0  3  0  0  0  0  0  0
  186.9860  177.2310  139.9480 O   0  0  0  0  0  0  0  0  0  0  0  0
  188.3170  176.8140  147.5790 C   0  0  0  0  0  2  0  0  0  0  0  0
  183.7070  179.0550  144.9120 C   0  0  0  0  0  1  0  0  0  0  0  0
  189.1070  174.2260  144.1470 C   0  0  0  0  0  2  0  0  0  0  0  0
  189.5250  176.5030  145.2690 C   0  0  2  0  0  3  0  0  0  0  0  0
  187.4950  177.0630  142.2130 N   0  0  0  0  0  2  0  0  0  0  0  0
  184.9270  178.3430  146.9700 C   0  0  0  0  0  3  0  0  0  0  0  0
  188.8540  175.1540  142.9630 C   0  0  1  0  0  3  0  0  0  0  0  0
  188.3090  174.3580  141.7850 C   0  0  0  0  0  2  0  0  0  0  0  0
  189.8800  177.3660  146.8370 S   0  0  0  0  0  0  0  0  0  0  0  0
  187.1530  177.3880  146.8420 C   0  0  0  0  0  0  0  0  0  0  0  0
  186.0510  177.8050  147.5960 C   0  0  0  0  0  3  0  0  0  0  0  0
  192.0220  175.4050  144.2490 O   0  0  0  0  0  0  0  0  0  0  0  0
  191.9780  174.7430  145.3200 C   0  0  0  0  0  0  0  0  0  0  0  0
  190.7270  174.4820  145.9610 N   0  0  0  0  0  2  0  0  0  0  0  0
  195.8650  173.9310  144.4310 C   0  0  1  0  0  3  0  0  0  0  0  0
  194.3220  175.3220  145.8720 C   0  0  0  0  0  2  0  0  0  0  0  0
  192.6340  172.0930  144.9200 F   0  0  0  0  0  0  0  0  0  0  0  0
  196.2210  174.7680  143.3900 F   0  0  0  0  0  0  0  0  0  0  0  0
  195.7270  174.7420  145.7270 C   0  0  0  0  0  2  0  0  0  0  0  0
  193.7060  172.9000  145.2610 C   0  0  2  0  0  3  0  0  0  0  0  0
  193.2490  174.2220  145.9140 C   0  0  2  0  0  3  0  0  0  0  0  0
  194.5960  173.1540  144.0480 C   0  0  0  0  0  2  0  0  0  0  0  0
  1 14  1  0  0  0  0
  2 13  1  0  0  0  0
  2  3  1  1  0  0  0
  3 19  1  0  0  0  0
  4 15  2  0  0  0  0
  5 14  1  6  0  0  0
  5  2  1  0  0  0  0
  6  1  1  0  0  0  0
  6 17  1  0  0  0  0
  7  3  2  0  0  0  0
  7  4  1  0  0  0  0
  8 23  1  6  0  0  0
  9  1  2  0  0  0  0
 11  4  1  0  0  0  0
 12  8  1  0  0  0  0
 13  8  1  0  0  0  0
 13 18  1  1  0  0  0
 15 20  1  0  0  0  0
 16 17  1  6  0  0  0
 16  5  1  0  0  0  0
 16 12  1  0  0  0  0
 18 10  1  0  0  0  0
 19 10  1  0  0  0  0
 19 20  2  0  0  0  0
 21 22  2  0  0  0  0
 22 23  1  0  0  0  0
 24 27  1  6  0  0  0
 24 28  1  0  0  0  0
 25 30  1  0  0  0  0
 28 25  1  0  0  0  0
 29 26  1  6  0  0  0
 29 30  1  0  0  0  0
 30 22  1  6  0  0  0
 31 24  1  0  0  0  0
 31 29  1  0  0  0  0
M  END
>  <MODEL>
6

>  <REMARK>
 VINA RESULT:      -8.0      3.393      7.730
  Name = 
  2 active torsions:
  status: ('A' for Active; 'I' for Inactive)
    1  A    between atoms: C_5  and  C_30
    2  A    between atoms: C_10  and  N_16
                            x       y       z     vdW  Elec       q    Type
                         _______ _______ _______ _____ _____    ______ ____

>  <TORSDO>
F 2

$$$$
=
 OpenBabel11112417013D

 31 35  0  0  1  0  0  0  0  0999 V2000
  194.4260  176.6440  144.9770 C   0  0  0  0  0  0  0  0  0  0  0  0
  191.0760  176.1810  143.2630 C   0  0  2  0  0  3  0  0  0  0  0  0
  190.9910  175.0380  142.2650 C   0  0  0  0  0  0  0  0  0  0  0  0
  192.1740  173.5320  140.7580 C   0  0  0  0  0  0  0  0  0  0  0  0
  192.0960  175.8790  144.3770 C   0  0  1  0  0  3  0  0  0  0  0  0
  194.0610  176.8050  146.4240 C   0  0  0  0  0  2  0  0  0  0  0  0
  192.1860  174.5500  141.7130 C   0  0  0  0  0  3  0  0  0  0  0  0
  189.2550  175.9600  145.0750 C   0  0  2  0  0  3  0  0  0  0  0  0
  195.6120  176.8440  144.6100 O   0  0  0  0  0  0  0  0  0  0  0  0
  188.4430  174.9710  142.3160 C   0  0  0  0  0  2  0  0  0  0  0  0
  193.4540  173.0240  140.1980 C   0  0  0  0  0  1  0  0  0  0  0  0
  190.3440  175.8370  146.1550 C   0  0  0  0  0  2  0  0  0  0  0  0
  189.7270  176.7040  143.8130 C   0  0  2  0  0  3  0  0  0  0  0  0
  193.4190  176.3660  143.9980 N   0  0  0  0  0  2  0  0  0  0  0  0
  190.9620  172.9920  140.3310 C   0  0  0  0  0  3  0  0  0  0  0  0
  191.6800  176.4420  145.7370 C   0  0  1  0  0  3  0  0  0  0  0  0
  192.7510  176.0960  146.7630 C   0  0  0  0  0  2  0  0  0  0  0  0
  188.4370  176.7750  142.5250 S   0  0  0  0  0  0  0  0  0  0  0  0
  189.7640  174.5060  141.7990 C   0  0  0  0  0  0  0  0  0  0  0  0
  189.7620  173.4790  140.8490 C   0  0  0  0  0  3  0  0  0  0  0  0
  187.9880  175.2910  147.5500 O   0  0  0  0  0  0  0  0  0  0  0  0
  187.5090  176.2480  146.8850 C   0  0  0  0  0  0  0  0  0  0  0  0
  188.0880  176.6250  145.6330 N   0  0  0  0  0  2  0  0  0  0  0  0
  184.8460  179.1790  145.9470 C   0  0  1  0  0  3  0  0  0  0  0  0
  185.1090  176.7260  146.4990 C   0  0  0  0  0  2  0  0  0  0  0  0
  187.8980  178.7080  148.0740 F   0  0  0  0  0  0  0  0  0  0  0  0
  184.7660  179.2210  144.5680 F   0  0  0  0  0  0  0  0  0  0  0  0
  184.1510  177.9150  146.4720 C   0  0  0  0  0  2  0  0  0  0  0  0
  186.6040  178.4870  147.6340 C   0  0  2  0  0  3  0  0  0  0  0  0
  186.3180  176.9850  147.4130 C   0  0  2  0  0  3  0  0  0  0  0  0
  186.3160  179.3010  146.3750 C   0  0  0  0  0  2  0  0  0  0  0  0
  1  6  1  0  0  0  0
  2  3  1  1  0  0  0
  2 13  1  0  0  0  0
  2  5  1  0  0  0  0
  4  7  1  0  0  0  0
  5 14  1  6  0  0  0
  5 16  1  0  0  0  0
  6 17  1  0  0  0  0
  7  3  2  0  0  0  0
  8 23  1  1  0  0  0
  8 12  1  0  0  0  0
  9  1  2  0  0  0  0
 10 18  1  0  0  0  0
 11  4  1  0  0  0  0
 13 18  1  6  0  0  0
 13  8  1  0  0  0  0
 14  1  1  0  0  0  0
 15  4  2  0  0  0  0
 15 20  1  0  0  0  0
 16 12  1  1  0  0  0
 16 17  1  0  0  0  0
 19  3  1  0  0  0  0
 19 10  1  0  0  0  0
 20 19  2  0  0  0  0
 22 21  2  0  0  0  0
 23 22  1  0  0  0  0
 24 27  1  6  0  0  0
 24 31  1  0  0  0  0
 24 28  1  0  0  0  0
 25 30  1  0  0  0  0
 28 25  1  0  0  0  0
 29 26  1  6  0  0  0
 30 22  1  6  0  0  0
 30 29  1  0  0  0  0
 31 29  1  0  0  0  0
M  END
>  <MODEL>
7

>  <REMARK>
 VINA RESULT:      -7.9      2.916      4.777
  Name = 
  2 active torsions:
  status: ('A' for Active; 'I' for Inactive)
    1  A    between atoms: C_5  and  C_30
    2  A    between atoms: C_10  and  N_16
                            x       y       z     vdW  Elec       q    Type
                         _______ _______ _______ _____ _____    ______ ____

>  <TORSDO>
F 2

$$$$
=
 OpenBabel11112417013D

 31 35  0  0  1  0  0  0  0  0999 V2000
  195.3790  175.5460  143.4670 C   0  0  0  0  0  0  0  0  0  0  0  0
  191.6790  175.1150  142.7590 C   0  0  2  0  0  3  0  0  0  0  0  0
  191.2050  173.6870  142.5430 C   0  0  0  0  0  0  0  0  0  0  0  0
  191.7770  171.4050  141.9080 C   0  0  0  0  0  0  0  0  0  0  0  0
  192.8940  175.1640  143.7050 C   0  0  1  0  0  3  0  0  0  0  0  0
  195.4050  176.4760  144.6440 C   0  0  0  0  0  2  0  0  0  0  0  0
  192.1550  172.7240  142.1670 C   0  0  0  0  0  3  0  0  0  0  0  0
  190.3480  176.2480  144.6540 C   0  0  2  0  0  3  0  0  0  0  0  0
  196.4540  175.2530  142.8840 O   0  0  0  0  0  0  0  0  0  0  0  0
  188.7610  174.2610  142.9860 C   0  0  0  0  0  2  0  0  0  0  0  0
  192.8030  170.4000  141.5250 C   0  0  0  0  0  1  0  0  0  0  0  0
  191.6440  176.4160  145.4670 C   0  0  0  0  0  2  0  0  0  0  0  0
  190.5860  176.1430  143.1370 C   0  0  2  0  0  3  0  0  0  0  0  0
  194.1340  175.0730  142.9400 N   0  0  0  0  0  2  0  0  0  0  0  0
  190.4380  171.0310  142.0110 C   0  0  0  0  0  3  0  0  0  0  0  0
  192.9020  176.4010  144.6050 C   0  0  1  0  0  3  0  0  0  0  0  0
  194.1390  176.3590  145.4910 C   0  0  0  0  0  2  0  0  0  0  0  0
  189.0380  175.8790  142.2080 S   0  0  0  0  0  0  0  0  0  0  0  0
  189.8430  173.3050  142.6100 C   0  0  0  0  0  0  0  0  0  0  0  0
  189.4760  171.9780  142.3590 C   0  0  0  0  0  3  0  0  0  0  0  0
  187.8160  176.0410  145.9680 O   0  0  0  0  0  0  0  0  0  0  0  0
  188.1990  177.1870  145.6100 C   0  0  0  0  0  0  0  0  0  0  0  0
  189.4490  177.3570  144.9370 N   0  0  0  0  0  2  0  0  0  0  0  0
  184.3350  178.2690  146.2880 C   0  0  1  0  0  3  0  0  0  0  0  0
  186.6660  178.2090  147.2660 C   0  0  0  0  0  2  0  0  0  0  0  0
  186.8480  178.3550  143.5070 F   0  0  0  0  0  0  0  0  0  0  0  0
  183.7000  177.1680  146.8300 F   0  0  0  0  0  0  0  0  0  0  0  0
  185.2940  178.8780  147.3210 C   0  0  0  0  0  2  0  0  0  0  0  0
  186.3150  178.6380  144.7530 C   0  0  2  0  0  3  0  0  0  0  0  0
  187.3280  178.3720  145.8880 C   0  0  2  0  0  3  0  0  0  0  0  0
  185.0160  177.8670  144.9720 C   0  0  0  0  0  2  0  0  0  0  0  0
  1  6  1  0  0  0  0
  2  3  1  1  0  0  0
  2 13  1  0  0  0  0
  2  5  1  0  0  0  0
  3 19  1  0  0  0  0
  4 15  2  0  0  0  0
  4  7  1  0  0  0  0
  5 14  1  6  0  0  0
  5 16  1  0  0  0  0
  6 17  1  0  0  0  0
  7  3  2  0  0  0  0
  8 23  1  6  0  0  0
  8 12  1  0  0  0  0
  9  1  2  0  0  0  0
 11  4  1  0  0  0  0
 13 18  1  6  0  0  0
 13  8  1  0  0  0  0
 14  1  1  0  0  0  0
 15 20  1  0  0  0  0
 16 12  1  1  0  0  0
 16 17  1  0  0  0  0
 18 10  1  0  0  0  0
 19 10  1  0  0  0  0
 20 19  2  0  0  0  0
 22 21  2  0  0  0  0
 23 22  1  0  0  0  0
 24 27  1  1  0  0  0
 24 28  1  0  0  0  0
 25 28  1  0  0  0  0
 29 26  1  6  0  0  0
 29 31  1  0  0  0  0
 29 30  1  0  0  0  0
 30 22  1  6  0  0  0
 30 25  1  0  0  0  0
 31 24  1  0  0  0  0
M  END
>  <MODEL>
8

>  <REMARK>
 VINA RESULT:      -7.8      2.396      4.609
  Name = 
  2 active torsions:
  status: ('A' for Active; 'I' for Inactive)
    1  A    between atoms: C_5  and  C_30
    2  A    between atoms: C_10  and  N_16
                            x       y       z     vdW  Elec       q    Type
                         _______ _______ _______ _____ _____    ______ ____

>  <TORSDO>
F 2

$$$$
=
 OpenBabel11112417013D

 31 35  0  0  1  0  0  0  0  0999 V2000
  194.3280  175.4720  145.9740 C   0  0  0  0  0  0  0  0  0  0  0  0
  191.3330  175.0580  143.6850 C   0  0  2  0  0  3  0  0  0  0  0  0
  190.9490  173.6270  143.3440 C   0  0  0  0  0  0  0  0  0  0  0  0
  191.6500  171.3020  143.1470 C   0  0  0  0  0  0  0  0  0  0  0  0
  191.9900  175.1450  145.0760 C   0  0  1  0  0  3  0  0  0  0  0  0
  193.8580  176.4720  146.9890 C   0  0  0  0  0  2  0  0  0  0  0  0
  191.9250  172.6280  143.4860 C   0  0  0  0  0  3  0  0  0  0  0  0
  189.3380  176.3260  144.7130 C   0  0  2  0  0  3  0  0  0  0  0  0
  195.5370  175.1260  145.9560 O   0  0  0  0  0  0  0  0  0  0  0  0
  188.5950  174.2670  142.6020 C   0  0  0  0  0  2  0  0  0  0  0  0
  192.6950  170.2590  143.3190 C   0  0  0  0  0  1  0  0  0  0  0  0
  190.1320  176.5220  146.0160 C   0  0  0  0  0  2  0  0  0  0  0  0
  190.2320  176.1250  143.4760 C   0  0  2  0  0  3  0  0  0  0  0  0
  193.4370  174.9880  144.9620 N   0  0  0  0  0  2  0  0  0  0  0  0
  190.3950  170.9560  142.6480 C   0  0  0  0  0  3  0  0  0  0  0  0
  191.6430  176.4350  145.8210 C   0  0  1  0  0  3  0  0  0  0  0  0
  192.3420  176.4270  147.1740 C   0  0  0  0  0  2  0  0  0  0  0  0
  189.2620  175.8290  141.9590 S   0  0  0  0  0  0  0  0  0  0  0  0
  189.6890  173.2720  142.8040 C   0  0  0  0  0  0  0  0  0  0  0  0
  189.4200  171.9380  142.4760 C   0  0  0  0  0  3  0  0  0  0  0  0
  186.5020  176.1890  144.3670 O   0  0  0  0  0  0  0  0  0  0  0  0
  187.0410  177.3280  144.3500 C   0  0  0  0  0  0  0  0  0  0  0  0
  188.4560  177.4650  144.5050 N   0  0  0  0  0  2  0  0  0  0  0  0
  183.7010  178.6580  142.4440 C   0  0  1  0  0  3  0  0  0  0  0  0
  184.7740  178.2650  144.6990 C   0  0  0  0  0  2  0  0  0  0  0  0
  187.4270  178.8710  142.0950 F   0  0  0  0  0  0  0  0  0  0  0  0
  182.8880  177.5580  142.2480 F   0  0  0  0  0  0  0  0  0  0  0  0
  183.7080  179.0410  143.9310 C   0  0  0  0  0  2  0  0  0  0  0  0
  186.1910  179.0400  142.6960 C   0  0  2  0  0  3  0  0  0  0  0  0
  186.1870  178.5420  144.1570 C   0  0  2  0  0  3  0  0  0  0  0  0
  185.0960  178.3670  141.8730 C   0  0  0  0  0  2  0  0  0  0  0  0
  1  6  1  0  0  0  0
  2  3  1  1  0  0  0
  2  5  1  0  0  0  0
  3  7  1  0  0  0  0
  4 11  1  0  0  0  0
  4  7  2  0  0  0  0
  5 14  1  6  0  0  0
  5 16  1  0  0  0  0
  6 17  1  0  0  0  0
  8 23  1  6  0  0  0
  8 12  1  0  0  0  0
  9  1  2  0  0  0  0
 10 19  1  0  0  0  0
 13 18  1  6  0  0  0
 13  2  1  0  0  0  0
 13  8  1  0  0  0  0
 14  1  1  0  0  0  0
 15  4  1  0  0  0  0
 16 12  1  1  0  0  0
 16 17  1  0  0  0  0
 18 10  1  0  0  0  0
 19  3  2  0  0  0  0
 20 15  2  0  0  0  0
 20 19  1  0  0  0  0
 22 21  2  0  0  0  0
 22 23  1  0  0  0  0
 24 27  1  1  0  0  0
 24 28  1  0  0  0  0
 28 25  1  0  0  0  0
 29 26  1  6  0  0  0
 29 30  1  0  0  0  0
 30 22  1  6  0  0  0
 30 25  1  0  0  0  0
 31 24  1  0  0  0  0
 31 29  1  0  0  0  0
M  END
>  <MODEL>
9

>  <REMARK>
 VINA RESULT:      -7.5      2.333      4.526
  Name = 
  2 active torsions:
  status: ('A' for Active; 'I' for Inactive)
    1  A    between atoms: C_5  and  C_30
    2  A    between atoms: C_10  and  N_16
                            x       y       z     vdW  Elec       q    Type
                         _______ _______ _______ _____ _____    ______ ____

>  <TORSDO>
F 2

$$$$
