=
 OpenBabel11112417133D

 37 42  0  0  1  0  0  0  0  0999 V2000
  194.9850  175.5560  142.3040 C   0  0  0  0  0  0  0  0  0  0  0  0
  191.9950  175.9000  145.1950 C   0  0  0  0  0  0  0  0  0  0  0  0
  190.6560  178.4920  144.2600 C   0  0  0  0  0  1  0  0  0  0  0  0
  194.3500  175.7300  144.7950 C   0  0  0  0  0  0  0  0  0  0  0  0
  190.7500  175.9500  144.3790 C   0  0  1  0  0  3  0  0  0  0  0  0
  193.0320  175.5690  144.3940 C   0  0  0  0  0  0  0  0  0  0  0  0
  189.9130  177.2170  144.6340 C   0  0  1  0  0  3  0  0  0  0  0  0
  194.5790  176.1190  146.1240 C   0  0  0  0  0  3  0  0  0  0  0  0
  192.5780  175.3270  143.0210 C   0  0  2  0  0  3  0  0  0  0  0  0
  195.1160  174.1020  141.8870 C   0  0  0  0  0  1  0  0  0  0  0  0
  191.1100  176.7910  147.3940 C   0  0  0  0  0  2  0  0  0  0  0  0
  193.5190  176.3780  146.9540 N   0  0  0  0  0  0  0  0  0  0  0  0
  193.5360  176.0410  142.0680 C   0  0  0  0  0  2  0  0  0  0  0  0
  192.2260  176.2960  146.5180 C   0  0  0  0  0  0  0  0  0  0  0  0
  191.2070  175.8640  142.9690 N   0  0  1  0  0  0  0  0  0  0  0  0
  195.4590  175.7030  143.7740 C   0  0  0  0  0  2  0  0  0  0  0  0
  189.3700  177.3260  146.0750 C   0  0  2  0  0  3  0  0  0  0  0  0
  195.9070  176.3790  141.4280 C   0  0  0  0  0  1  0  0  0  0  0  0
  189.8690  176.3260  146.9310 O   0  0  0  0  0  0  0  0  0  0  0  0
  191.1910  174.0030  141.2610 C   0  0  0  0  0  2  0  0  0  0  0  0
  190.3250  173.1630  140.3150 C   0  0  2  0  0  3  0  0  0  0  0  0
  189.7480  171.7530  142.4200 C   0  0  2  0  0  3  0  0  0  0  0  0
  189.3290  172.2280  141.0210 C   0  0  0  0  0  2  0  0  0  0  0  0
  189.6760  172.8510  143.4490 C   0  0  0  0  0  0  0  0  0  0  0  0
  189.8720  172.5850  144.6230 O   0  0  0  0  0  0  0  0  0  0  0  0
  189.3270  174.2620  143.0660 C   0  0  0  0  0  2  0  0  0  0  0  0
  191.0100  171.1870  142.3940 F   0  0  0  0  0  0  0  0  0  0  0  0
  190.3770  174.9430  142.1770 C   0  0  1  0  0  3  0  0  0  0  0  0
  190.4950  171.1780  138.9140 N   0  0  0  0  0  1  0  0  0  0  0  0
  191.2140  172.3470  139.3930 C   0  0  0  0  0  2  0  0  0  0  0  0
  187.1470  177.2690  147.2630 C   0  0  0  0  0  3  0  0  0  0  0  0
  187.8760  177.2980  146.0640 C   0  0  0  0  0  0  0  0  0  0  0  0
  187.1990  177.2490  144.8410 C   0  0  0  0  0  3  0  0  0  0  0  0
  185.1500  177.1420  143.6270 F   0  0  0  0  0  0  0  0  0  0  0  0
  185.0790  177.1650  146.0090 C   0  0  0  0  0  3  0  0  0  0  0  0
  185.8030  177.1860  144.8140 C   0  0  0  0  0  0  0  0  0  0  0  0
  185.7510  177.2060  147.2340 C   0  0  0  0  0  3  0  0  0  0  0  0
  1 16  1  0  0  0  0
  2 14  1  0  0  0  0
  4  8  2  0  0  0  0
  5  7  1  0  0  0  0
  5  2  1  1  0  0  0
  6  4  1  0  0  0  0
  6  2  2  0  0  0  0
  7  3  1  1  0  0  0
  7 17  1  0  0  0  0
  8 12  1  0  0  0  0
  9 13  1  6  0  0  0
  9  6  1  0  0  0  0
 10  1  1  0  0  0  0
 13  1  1  0  0  0  0
 14 12  2  0  0  0  0
 14 11  1  0  0  0  0
 15 28  1  6  0  0  0
 15  9  1  0  0  0  0
 15  5  1  0  0  0  0
 16  4  1  0  0  0  0
 17 32  1  6  0  0  0
 17 19  1  0  0  0  0
 18  1  1  0  0  0  0
 19 11  1  0  0  0  0
 21 30  1  1  0  0  0
 21 23  1  0  0  0  0
 21 20  1  0  0  0  0
 22 27  1  6  0  0  0
 22 24  1  0  0  0  0
 23 22  1  0  0  0  0
 24 25  2  0  0  0  0
 26 24  1  0  0  0  0
 28 20  1  1  0  0  0
 28 26  1  0  0  0  0
 29 30  1  0  0  0  0
 32 31  2  0  0  0  0
 33 32  1  0  0  0  0
 34 36  1  0  0  0  0
 35 37  2  0  0  0  0
 36 33  2  0  0  0  0
 36 35  1  0  0  0  0
 37 31  1  0  0  0  0
M  END
>  <MODEL>
1

>  <REMARK>
 VINA RESULT:      -9.1      0.000      0.000
  Name = 
  3 active torsions:
  status: ('A' for Active; 'I' for Inactive)
    1  A    between atoms: C_4  and  C_37
    2  A    between atoms: N_21  and  C_27
    3  A    between atoms: C_23  and  C_30
                            x       y       z     vdW  Elec       q    Type
                         _______ _______ _______ _____ _____    ______ ____

>  <TORSDO>
F 3

$$$$
=
 OpenBabel11112417133D

 37 42  0  0  1  0  0  0  0  0999 V2000
  193.9790  174.5730  145.1040 C   0  0  0  0  0  0  0  0  0  0  0  0
  190.0350  175.9030  145.4050 C   0  0  0  0  0  0  0  0  0  0  0  0
  190.1660  178.3540  143.5730 C   0  0  0  0  0  1  0  0  0  0  0  0
  192.0420  175.3750  146.6010 C   0  0  0  0  0  0  0  0  0  0  0  0
  189.5790  175.9110  143.9880 C   0  0  1  0  0  3  0  0  0  0  0  0
  191.2330  175.2820  145.4770 C   0  0  0  0  0  0  0  0  0  0  0  0
  189.0780  177.2920  143.5240 C   0  0  1  0  0  3  0  0  0  0  0  0
  191.5120  176.0240  147.7270 C   0  0  0  0  0  3  0  0  0  0  0  0
  191.6500  174.7910  144.1610 C   0  0  2  0  0  3  0  0  0  0  0  0
  193.9930  173.0560  145.0160 C   0  0  0  0  0  1  0  0  0  0  0  0
  188.2470  177.3620  146.4460 C   0  0  0  0  0  2  0  0  0  0  0  0
  190.2630  176.5850  147.6700 N   0  0  0  0  0  0  0  0  0  0  0  0
  193.1200  175.1560  143.9580 C   0  0  0  0  0  2  0  0  0  0  0  0
  189.5120  176.5580  146.5270 C   0  0  0  0  0  0  0  0  0  0  0  0
  190.7540  175.4580  143.2000 N   0  0  1  0  0  0  0  0  0  0  0  0
  193.4970  174.9910  146.5180 C   0  0  0  0  0  2  0  0  0  0  0  0
  187.8250  177.7850  144.2780 C   0  0  2  0  0  3  0  0  0  0  0  0
  195.4000  175.0640  144.9260 C   0  0  0  0  0  1  0  0  0  0  0  0
  187.4640  176.9530  145.3550 O   0  0  0  0  0  0  0  0  0  0  0  0
  191.5730  173.6900  141.5930 C   0  0  0  0  0  2  0  0  0  0  0  0
  191.2080  172.8000  140.3990 C   0  0  2  0  0  3  0  0  0  0  0  0
  190.1080  171.2350  142.1590 C   0  0  2  0  0  3  0  0  0  0  0  0
  190.1520  171.7230  140.7040 C   0  0  0  0  0  2  0  0  0  0  0  0
  189.5420  172.2680  143.0980 C   0  0  0  0  0  0  0  0  0  0  0  0
  189.3430  171.9720  144.2650 O   0  0  0  0  0  0  0  0  0  0  0  0
  189.1760  173.6460  142.6200 C   0  0  0  0  0  2  0  0  0  0  0  0
  191.3590  170.8220  142.5810 F   0  0  0  0  0  0  0  0  0  0  0  0
  190.3780  174.4850  142.1630 C   0  0  1  0  0  3  0  0  0  0  0  0
  192.1000  170.9580  139.0780 N   0  0  0  0  0  1  0  0  0  0  0  0
  192.4580  172.1360  139.8510 C   0  0  0  0  0  2  0  0  0  0  0  0
  185.3610  178.0320  143.8030 C   0  0  0  0  0  3  0  0  0  0  0  0
  186.6780  177.9280  143.3300 C   0  0  0  0  0  0  0  0  0  0  0  0
  186.9190  177.9080  141.9520 C   0  0  0  0  0  3  0  0  0  0  0  0
  186.0930  177.9880  139.7180 F   0  0  0  0  0  0  0  0  0  0  0  0
  184.5440  178.1160  141.5260 C   0  0  0  0  0  3  0  0  0  0  0  0
  185.8550  178.0050  141.0520 C   0  0  0  0  0  0  0  0  0  0  0  0
  184.2970  178.1290  142.9020 C   0  0  0  0  0  3  0  0  0  0  0  0
  1 16  1  0  0  0  0
  2  6  2  0  0  0  0
  2 14  1  0  0  0  0
  4  8  2  0  0  0  0
  5  2  1  1  0  0  0
  6  4  1  0  0  0  0
  7  3  1  1  0  0  0
  7  5  1  0  0  0  0
  7 17  1  0  0  0  0
  9 13  1  6  0  0  0
  9  6  1  0  0  0  0
 10  1  1  0  0  0  0
 11 14  1  0  0  0  0
 12  8  1  0  0  0  0
 13  1  1  0  0  0  0
 14 12  2  0  0  0  0
 15 28  1  6  0  0  0
 15  5  1  0  0  0  0
 15  9  1  0  0  0  0
 16  4  1  0  0  0  0
 17 32  1  6  0  0  0
 17 19  1  0  0  0  0
 18  1  1  0  0  0  0
 19 11  1  0  0  0  0
 21 30  1  1  0  0  0
 21 23  1  0  0  0  0
 21 20  1  0  0  0  0
 22 27  1  1  0  0  0
 22 24  1  0  0  0  0
 23 22  1  0  0  0  0
 24 25  2  0  0  0  0
 26 24  1  0  0  0  0
 28 20  1  1  0  0  0
 28 26  1  0  0  0  0
 29 30  1  0  0  0  0
 32 31  1  0  0  0  0
 33 32  2  0  0  0  0
 34 36  1  0  0  0  0
 35 37  1  0  0  0  0
 36 35  2  0  0  0  0
 36 33  1  0  0  0  0
 37 31  2  0  0  0  0
M  END
>  <MODEL>
2

>  <REMARK>
 VINA RESULT:      -9.0      1.814      2.597
  Name = 
  3 active torsions:
  status: ('A' for Active; 'I' for Inactive)
    1  A    between atoms: C_4  and  C_37
    2  A    between atoms: N_21  and  C_27
    3  A    between atoms: C_23  and  C_30
                            x       y       z     vdW  Elec       q    Type
                         _______ _______ _______ _____ _____    ______ ____

>  <TORSDO>
F 3

$$$$
=
 OpenBabel11112417133D

 37 42  0  0  1  0  0  0  0  0999 V2000
  193.9550  174.3380  145.1050 C   0  0  0  0  0  0  0  0  0  0  0  0
  190.1120  175.8450  145.7190 C   0  0  0  0  0  0  0  0  0  0  0  0
  190.1040  178.1170  143.6640 C   0  0  0  0  0  1  0  0  0  0  0  0
  192.2260  175.3460  146.7270 C   0  0  0  0  0  0  0  0  0  0  0  0
  189.4970  175.7450  144.3660 C   0  0  1  0  0  3  0  0  0  0  0  0
  191.2920  175.1860  145.7150 C   0  0  0  0  0  0  0  0  0  0  0  0
  188.9860  177.0980  143.8350 C   0  0  1  0  0  3  0  0  0  0  0  0
  191.8480  176.1130  147.8410 C   0  0  0  0  0  3  0  0  0  0  0  0
  191.5410  174.5640  144.4110 C   0  0  2  0  0  3  0  0  0  0  0  0
  193.9140  172.8200  145.1570 C   0  0  0  0  0  1  0  0  0  0  0  0
  188.4980  177.4600  146.8120 C   0  0  0  0  0  2  0  0  0  0  0  0
  190.6170  176.7160  147.8710 N   0  0  0  0  0  0  0  0  0  0  0  0
  192.9880  174.8510  144.0130 C   0  0  0  0  0  2  0  0  0  0  0  0
  189.7400  176.6170  146.8270 C   0  0  0  0  0  0  0  0  0  0  0  0
  190.5600  175.1770  143.4990 N   0  0  1  0  0  0  0  0  0  0  0  0
  193.6500  174.8990  146.5190 C   0  0  0  0  0  2  0  0  0  0  0  0
  187.8430  177.7050  144.6750 C   0  0  2  0  0  3  0  0  0  0  0  0
  195.3600  174.7550  144.7260 C   0  0  0  0  0  1  0  0  0  0  0  0
  187.5830  176.9870  145.8580 O   0  0  0  0  0  0  0  0  0  0  0  0
  189.5440  174.6670  141.2430 C   0  0  0  0  0  2  0  0  0  0  0  0
  188.8500  173.6070  140.3800 C   0  0  2  0  0  3  0  0  0  0  0  0
  191.2410  172.6880  139.9390 C   0  0  2  0  0  3  0  0  0  0  0  0
  189.7340  172.4030  140.0110 C   0  0  0  0  0  2  0  0  0  0  0  0
  191.8530  172.9120  141.2970 C   0  0  0  0  0  0  0  0  0  0  0  0
  193.0620  173.0360  141.3950 O   0  0  0  0  0  0  0  0  0  0  0  0
  191.0100  172.9440  142.5410 C   0  0  0  0  0  2  0  0  0  0  0  0
  191.5030  173.7580  139.1010 F   0  0  0  0  0  0  0  0  0  0  0  0
  190.0400  174.1320  142.6040 C   0  0  1  0  0  3  0  0  0  0  0  0
  188.2460  173.2580  138.0460 N   0  0  0  0  0  1  0  0  0  0  0  0
  188.3170  174.2460  139.1100 C   0  0  0  0  0  2  0  0  0  0  0  0
  186.5720  177.3470  142.5270 C   0  0  0  0  0  3  0  0  0  0  0  0
  186.5990  177.8080  143.8520 C   0  0  0  0  0  0  0  0  0  0  0  0
  185.4640  178.4190  144.3960 C   0  0  0  0  0  3  0  0  0  0  0  0
  183.2060  179.1450  144.1590 F   0  0  0  0  0  0  0  0  0  0  0  0
  184.2780  178.0880  142.3100 C   0  0  0  0  0  3  0  0  0  0  0  0
  184.3050  178.5550  143.6280 C   0  0  0  0  0  0  0  0  0  0  0  0
  185.4120  177.4840  141.7600 C   0  0  0  0  0  3  0  0  0  0  0  0
  1 10  1  0  0  0  0
  1 16  1  0  0  0  0
  2 14  1  0  0  0  0
  4  8  2  0  0  0  0
  5  2  1  1  0  0  0
  6  2  2  0  0  0  0
  6  4  1  0  0  0  0
  7  3  1  1  0  0  0
  7  5  1  0  0  0  0
  7 17  1  0  0  0  0
  8 12  1  0  0  0  0
  9 13  1  6  0  0  0
  9  6  1  0  0  0  0
 11 14  1  0  0  0  0
 13  1  1  0  0  0  0
 14 12  2  0  0  0  0
 15 28  1  6  0  0  0
 15  5  1  0  0  0  0
 15  9  1  0  0  0  0
 16  4  1  0  0  0  0
 17 32  1  6  0  0  0
 17 19  1  0  0  0  0
 18  1  1  0  0  0  0
 19 11  1  0  0  0  0
 21 30  1  6  0  0  0
 21 20  1  0  0  0  0
 22 27  1  6  0  0  0
 22 23  1  0  0  0  0
 22 24  1  0  0  0  0
 23 21  1  0  0  0  0
 24 25  2  0  0  0  0
 24 26  1  0  0  0  0
 26 28  1  0  0  0  0
 28 20  1  6  0  0  0
 29 30  1  0  0  0  0
 31 32  1  0  0  0  0
 32 33  2  0  0  0  0
 35 36  2  0  0  0  0
 36 34  1  0  0  0  0
 36 33  1  0  0  0  0
 37 35  1  0  0  0  0
 37 31  2  0  0  0  0
M  END
>  <MODEL>
3

>  <REMARK>
 VINA RESULT:      -8.6      2.052      2.898
  Name = 
  3 active torsions:
  status: ('A' for Active; 'I' for Inactive)
    1  A    between atoms: C_4  and  C_37
    2  A    between atoms: N_21  and  C_27
    3  A    between atoms: C_23  and  C_30
                            x       y       z     vdW  Elec       q    Type
                         _______ _______ _______ _____ _____    ______ ____

>  <TORSDO>
F 3

$$$$
=
 OpenBabel11112417133D

 37 42  0  0  1  0  0  0  0  0999 V2000
  188.0010  177.0800  142.4970 C   0  0  0  0  0  0  0  0  0  0  0  0
  191.1780  176.0150  144.9850 C   0  0  0  0  0  0  0  0  0  0  0  0
  190.9840  172.9630  144.8070 C   0  0  0  0  0  1  0  0  0  0  0  0
  189.1100  177.2120  144.8190 C   0  0  0  0  0  0  0  0  0  0  0  0
  192.0270  175.1750  144.0960 C   0  0  1  0  0  3  0  0  0  0  0  0
  190.2190  176.6100  144.2420 C   0  0  0  0  0  0  0  0  0  0  0  0
  192.2710  173.7610  144.6560 C   0  0  1  0  0  3  0  0  0  0  0  0
  189.0830  177.3090  146.2190 C   0  0  0  0  0  3  0  0  0  0  0  0
  190.3670  176.2690  142.8240 C   0  0  2  0  0  3  0  0  0  0  0  0
  188.4080  178.2690  141.6440 C   0  0  0  0  0  1  0  0  0  0  0  0
  192.1200  175.3530  147.2400 C   0  0  0  0  0  2  0  0  0  0  0  0
  190.1000  176.7700  146.9630 N   0  0  0  0  0  0  0  0  0  0  0  0
  188.9870  175.9120  142.2720 C   0  0  0  0  0  2  0  0  0  0  0  0
  191.1440  176.1060  146.3830 C   0  0  0  0  0  0  0  0  0  0  0  0
  191.3090  175.1370  142.7970 N   0  0  1  0  0  0  0  0  0  0  0  0
  187.9020  177.5340  143.9770 C   0  0  0  0  0  2  0  0  0  0  0  0
  193.0610  173.7440  145.9820 C   0  0  2  0  0  3  0  0  0  0  0  0
  186.6260  176.6320  142.0490 C   0  0  0  0  0  1  0  0  0  0  0  0
  193.2770  175.0290  146.5150 O   0  0  0  0  0  0  0  0  0  0  0  0
  193.6370  175.7910  142.0650 C   0  0  0  0  0  2  0  0  0  0  0  0
  194.5350  176.1440  140.8740 C   0  0  2  0  0  3  0  0  0  0  0  0
  194.7320  173.5760  140.5200 C   0  0  2  0  0  3  0  0  0  0  0  0
  194.7930  174.9800  139.9010 C   0  0  0  0  0  2  0  0  0  0  0  0
  193.3280  173.1620  140.8790 C   0  0  0  0  0  0  0  0  0  0  0  0
  193.1210  172.0270  141.2740 O   0  0  0  0  0  0  0  0  0  0  0  0
  192.1690  174.1060  140.7210 C   0  0  0  0  0  2  0  0  0  0  0  0
  195.5660  173.4840  141.6200 F   0  0  0  0  0  0  0  0  0  0  0  0
  192.2230  175.3210  141.6590 C   0  0  1  0  0  3  0  0  0  0  0  0
  195.9860  176.4620  142.8040 N   0  0  0  0  0  1  0  0  0  0  0  0
  195.8640  176.6840  141.3730 C   0  0  0  0  0  2  0  0  0  0  0  0
  194.4220  171.6370  145.7300 C   0  0  0  0  0  3  0  0  0  0  0  0
  194.3650  173.0370  145.7950 C   0  0  0  0  0  0  0  0  0  0  0  0
  195.5470  173.7830  145.7330 C   0  0  0  0  0  3  0  0  0  0  0  0
  197.9200  173.8610  145.5310 F   0  0  0  0  0  0  0  0  0  0  0  0
  196.8320  171.7410  145.5220 C   0  0  0  0  0  3  0  0  0  0  0  0
  196.7780  173.1360  145.5930 C   0  0  0  0  0  0  0  0  0  0  0  0
  195.6540  170.9910  145.5910 C   0  0  0  0  0  3  0  0  0  0  0  0
  1 16  1  0  0  0  0
  2 14  1  0  0  0  0
  4  8  2  0  0  0  0
  5  7  1  0  0  0  0
  5  2  1  1  0  0  0
  6  4  1  0  0  0  0
  6  2  2  0  0  0  0
  7  3  1  1  0  0  0
  7 17  1  0  0  0  0
  8 12  1  0  0  0  0
  9 13  1  1  0  0  0
  9  6  1  0  0  0  0
 10  1  1  0  0  0  0
 13  1  1  0  0  0  0
 14 12  2  0  0  0  0
 14 11  1  0  0  0  0
 15 28  1  6  0  0  0
 15  9  1  0  0  0  0
 15  5  1  0  0  0  0
 16  4  1  0  0  0  0
 17 32  1  6  0  0  0
 17 19  1  0  0  0  0
 18  1  1  0  0  0  0
 19 11  1  0  0  0  0
 21 30  1  1  0  0  0
 21 20  1  0  0  0  0
 22 24  1  0  0  0  0
 22 27  1  1  0  0  0
 23 22  1  0  0  0  0
 23 21  1  0  0  0  0
 24 25  2  0  0  0  0
 26 24  1  0  0  0  0
 28 26  1  1  0  0  0
 28 20  1  0  0  0  0
 30 29  1  0  0  0  0
 31 32  1  0  0  0  0
 33 32  2  0  0  0  0
 34 36  1  0  0  0  0
 35 37  1  0  0  0  0
 35 36  2  0  0  0  0
 36 33  1  0  0  0  0
 37 31  2  0  0  0  0
M  END
>  <MODEL>
4

>  <REMARK>
 VINA RESULT:      -8.4      3.048      6.634
  Name = 
  3 active torsions:
  status: ('A' for Active; 'I' for Inactive)
    1  A    between atoms: C_4  and  C_37
    2  A    between atoms: N_21  and  C_27
    3  A    between atoms: C_23  and  C_30
                            x       y       z     vdW  Elec       q    Type
                         _______ _______ _______ _____ _____    ______ ____

>  <TORSDO>
F 3

$$$$
=
 OpenBabel11112417133D

 37 42  0  0  1  0  0  0  0  0999 V2000
  191.3570  171.1470  138.7320 C   0  0  0  0  0  0  0  0  0  0  0  0
  190.2670  174.1660  141.3990 C   0  0  0  0  0  0  0  0  0  0  0  0
  189.7870  172.4930  143.9200 C   0  0  0  0  0  1  0  0  0  0  0  0
  189.7740  173.0940  139.3150 C   0  0  0  0  0  0  0  0  0  0  0  0
  191.2580  174.0100  142.4990 C   0  0  1  0  0  3  0  0  0  0  0  0
  190.6390  173.3880  140.3590 C   0  0  0  0  0  0  0  0  0  0  0  0
  190.6020  173.7770  143.8730 C   0  0  1  0  0  3  0  0  0  0  0  0
  188.5330  173.7500  139.3000 C   0  0  0  0  0  3  0  0  0  0  0  0
  191.9010  172.6990  140.6440 C   0  0  2  0  0  3  0  0  0  0  0  0
  192.5040  171.6340  137.8630 C   0  0  0  0  0  1  0  0  0  0  0  0
  188.5290  175.5810  142.5770 C   0  0  0  0  0  2  0  0  0  0  0  0
  188.1940  174.5990  140.3210 N   0  0  0  0  0  0  0  0  0  0  0  0
  191.7540  171.2380  140.2230 C   0  0  0  0  0  2  0  0  0  0  0  0
  189.0240  174.8130  141.3860 C   0  0  0  0  0  0  0  0  0  0  0  0
  192.1100  172.8640  142.0930 N   0  0  1  0  0  0  0  0  0  0  0  0
  190.0800  171.9530  138.3790 C   0  0  0  0  0  2  0  0  0  0  0  0
  189.7460  174.9630  144.3640 C   0  0  2  0  0  3  0  0  0  0  0  0
  191.1020  169.6920  138.3990 C   0  0  0  0  0  1  0  0  0  0  0  0
  189.5970  175.9760  143.3970 O   0  0  0  0  0  0  0  0  0  0  0  0
  193.8630  174.6210  142.5620 C   0  0  0  0  0  2  0  0  0  0  0  0
  195.3650  174.9200  142.6400 C   0  0  2  0  0  3  0  0  0  0  0  0
  195.2490  173.8550  145.0080 C   0  0  2  0  0  3  0  0  0  0  0  0
  196.1030  174.1930  143.7780 C   0  0  0  0  0  2  0  0  0  0  0  0
  194.2610  172.7490  144.7410 C   0  0  0  0  0  0  0  0  0  0  0  0
  193.5990  172.3030  145.6630 O   0  0  0  0  0  0  0  0  0  0  0  0
  194.1040  172.1540  143.3700 C   0  0  0  0  0  2  0  0  0  0  0  0
  194.6050  174.9820  145.4880 F   0  0  0  0  0  0  0  0  0  0  0  0
  193.5380  173.1300  142.3290 C   0  0  1  0  0  3  0  0  0  0  0  0
  196.9670  176.6850  143.1380 N   0  0  0  0  0  1  0  0  0  0  0  0
  195.5860  176.4160  142.7740 C   0  0  0  0  0  2  0  0  0  0  0  0
  191.4120  174.9110  146.2550 C   0  0  0  0  0  3  0  0  0  0  0  0
  190.3260  175.5310  145.6200 C   0  0  0  0  0  0  0  0  0  0  0  0
  189.7440  176.6660  146.1930 C   0  0  0  0  0  3  0  0  0  0  0  0
  189.6880  178.2910  147.9360 F   0  0  0  0  0  0  0  0  0  0  0  0
  191.3390  176.5740  148.0130 C   0  0  0  0  0  3  0  0  0  0  0  0
  190.2520  177.1890  147.3850 C   0  0  0  0  0  0  0  0  0  0  0  0
  191.9190  175.4340  147.4480 C   0  0  0  0  0  3  0  0  0  0  0  0
  1 13  1  0  0  0  0
  4  6  1  0  0  0  0
  5  2  1  6  0  0  0
  5  7  1  0  0  0  0
  6  9  1  0  0  0  0
  6  2  2  0  0  0  0
  7  3  1  6  0  0  0
  7 17  1  0  0  0  0
  8  4  2  0  0  0  0
  8 12  1  0  0  0  0
  9 13  1  1  0  0  0
  9 15  1  0  0  0  0
 10  1  1  0  0  0  0
 11 19  1  0  0  0  0
 12 14  2  0  0  0  0
 14  2  1  0  0  0  0
 14 11  1  0  0  0  0
 15 28  1  6  0  0  0
 15  5  1  0  0  0  0
 16  1  1  0  0  0  0
 16  4  1  0  0  0  0
 17 32  1  1  0  0  0
 18  1  1  0  0  0  0
 19 17  1  0  0  0  0
 20 21  1  0  0  0  0
 21 30  1  1  0  0  0
 21 23  1  0  0  0  0
 22 27  1  6  0  0  0
 23 22  1  0  0  0  0
 24 22  1  0  0  0  0
 24 25  2  0  0  0  0
 26 24  1  0  0  0  0
 28 20  1  1  0  0  0
 28 26  1  0  0  0  0
 30 29  1  0  0  0  0
 31 37  1  0  0  0  0
 32 33  1  0  0  0  0
 32 31  2  0  0  0  0
 33 36  2  0  0  0  0
 36 34  1  0  0  0  0
 36 35  1  0  0  0  0
 37 35  2  0  0  0  0
M  END
>  <MODEL>
5

>  <REMARK>
 VINA RESULT:      -8.0      2.791      5.890
  Name = 
  3 active torsions:
  status: ('A' for Active; 'I' for Inactive)
    1  A    between atoms: C_4  and  C_37
    2  A    between atoms: N_21  and  C_27
    3  A    between atoms: C_23  and  C_30
                            x       y       z     vdW  Elec       q    Type
                         _______ _______ _______ _____ _____    ______ ____

>  <TORSDO>
F 3

$$$$
=
 OpenBabel11112417133D

 37 42  0  0  1  0  0  0  0  0999 V2000
  191.3310  169.9370  139.1390 C   0  0  0  0  0  0  0  0  0  0  0  0
  189.5060  173.5840  140.0220 C   0  0  0  0  0  0  0  0  0  0  0  0
  187.5100  172.6700  142.1580 C   0  0  0  0  0  1  0  0  0  0  0  0
  190.0170  171.9910  138.3090 C   0  0  0  0  0  0  0  0  0  0  0  0
  189.7310  173.7210  141.4880 C   0  0  1  0  0  3  0  0  0  0  0  0
  190.2380  172.5460  139.5610 C   0  0  0  0  0  0  0  0  0  0  0  0
  188.4230  173.8810  142.2860 C   0  0  1  0  0  3  0  0  0  0  0  0
  189.0950  172.6360  137.4690 C   0  0  0  0  0  3  0  0  0  0  0  0
  191.0320  171.9440  140.6360 C   0  0  2  0  0  3  0  0  0  0  0  0
  192.8240  170.1510  138.9630 C   0  0  0  0  0  1  0  0  0  0  0  0
  187.6640  175.2920  139.7040 C   0  0  0  0  0  2  0  0  0  0  0  0
  188.4130  173.7360  137.9190 N   0  0  0  0  0  0  0  0  0  0  0  0
  190.8930  170.4260  140.5390 C   0  0  0  0  0  2  0  0  0  0  0  0
  188.5810  174.2210  139.1860 C   0  0  0  0  0  0  0  0  0  0  0  0
  190.4710  172.4950  141.8820 N   0  0  1  0  0  0  0  0  0  0  0  0
  190.5810  170.6340  137.9740 C   0  0  0  0  0  2  0  0  0  0  0  0
  187.6420  175.1690  141.9490 C   0  0  2  0  0  3  0  0  0  0  0  0
  191.0590  168.4500  139.0510 C   0  0  0  0  0  1  0  0  0  0  0  0
  188.1900  175.8810  140.8640 O   0  0  0  0  0  0  0  0  0  0  0  0
  192.2490  174.1640  142.5420 C   0  0  0  0  0  2  0  0  0  0  0  0
  193.5090  174.4030  143.3820 C   0  0  2  0  0  3  0  0  0  0  0  0
  191.8700  174.7880  145.3640 C   0  0  2  0  0  3  0  0  0  0  0  0
  193.2770  174.3790  144.9030 C   0  0  0  0  0  2  0  0  0  0  0  0
  190.8300  173.7490  145.0370 C   0  0  0  0  0  0  0  0  0  0  0  0
  189.6900  173.8940  145.4470 O   0  0  0  0  0  0  0  0  0  0  0  0
  191.1740  172.5140  144.2520 C   0  0  0  0  0  2  0  0  0  0  0  0
  191.5160  176.0180  144.8390 F   0  0  0  0  0  0  0  0  0  0  0  0
  191.5820  172.7950  142.7990 C   0  0  1  0  0  3  0  0  0  0  0  0
  195.1220  176.1240  143.9920 N   0  0  0  0  0  1  0  0  0  0  0  0
  194.1430  175.7270  142.9930 C   0  0  0  0  0  2  0  0  0  0  0  0
  186.3300  176.2840  143.7910 C   0  0  0  0  0  3  0  0  0  0  0  0
  187.5580  176.0490  143.1540 C   0  0  0  0  0  0  0  0  0  0  0  0
  188.7130  176.6850  143.6220 C   0  0  0  0  0  3  0  0  0  0  0  0
  189.7670  178.1500  145.1780 F   0  0  0  0  0  0  0  0  0  0  0  0
  187.4220  177.7650  145.3630 C   0  0  0  0  0  3  0  0  0  0  0  0
  188.6460  177.5390  144.7260 C   0  0  0  0  0  0  0  0  0  0  0  0
  186.2640  177.1380  144.8950 C   0  0  0  0  0  3  0  0  0  0  0  0
  1 13  1  0  0  0  0
  4  6  2  0  0  0  0
  5  2  1  6  0  0  0
  5 15  1  0  0  0  0
  5  7  1  0  0  0  0
  6  2  1  0  0  0  0
  6  9  1  0  0  0  0
  7  3  1  6  0  0  0
  8 12  2  0  0  0  0
  8  4  1  0  0  0  0
  9 13  1  1  0  0  0
  9 15  1  0  0  0  0
 10  1  1  0  0  0  0
 11 19  1  0  0  0  0
 12 14  1  0  0  0  0
 14 11  1  0  0  0  0
 14  2  2  0  0  0  0
 15 28  1  1  0  0  0
 16  4  1  0  0  0  0
 16  1  1  0  0  0  0
 17  7  1  0  0  0  0
 17 32  1  1  0  0  0
 18  1  1  0  0  0  0
 19 17  1  0  0  0  0
 20 21  1  0  0  0  0
 21 30  1  6  0  0  0
 21 23  1  0  0  0  0
 22 27  1  6  0  0  0
 23 22  1  0  0  0  0
 24 22  1  0  0  0  0
 24 25  2  0  0  0  0
 26 24  1  0  0  0  0
 28 20  1  1  0  0  0
 28 26  1  0  0  0  0
 30 29  1  0  0  0  0
 31 37  1  0  0  0  0
 32 33  1  0  0  0  0
 32 31  2  0  0  0  0
 33 36  2  0  0  0  0
 36 34  1  0  0  0  0
 36 35  1  0  0  0  0
 37 35  2  0  0  0  0
M  END
>  <MODEL>
6

>  <REMARK>
 VINA RESULT:      -8.0      2.516      5.970
  Name = 
  3 active torsions:
  status: ('A' for Active; 'I' for Inactive)
    1  A    between atoms: C_4  and  C_37
    2  A    between atoms: N_21  and  C_27
    3  A    between atoms: C_23  and  C_30
                            x       y       z     vdW  Elec       q    Type
                         _______ _______ _______ _____ _____    ______ ____

>  <TORSDO>
F 3

$$$$
=
 OpenBabel11112417133D

 37 42  0  0  1  0  0  0  0  0999 V2000
  187.1830  176.9070  142.6960 C   0  0  0  0  0  0  0  0  0  0  0  0
  190.8000  175.4400  144.1730 C   0  0  0  0  0  0  0  0  0  0  0  0
  189.9230  172.6280  145.0140 C   0  0  0  0  0  1  0  0  0  0  0  0
  189.1400  177.1570  144.3520 C   0  0  0  0  0  0  0  0  0  0  0  0
  191.0210  174.2170  143.3530 C   0  0  1  0  0  3  0  0  0  0  0  0
  189.7680  176.1380  143.6500 C   0  0  0  0  0  0  0  0  0  0  0  0
  191.1730  172.9410  144.2040 C   0  0  1  0  0  3  0  0  0  0  0  0
  189.7050  177.5410  145.5790 C   0  0  0  0  0  3  0  0  0  0  0  0
  189.2530  175.4880  142.4420 C   0  0  2  0  0  3  0  0  0  0  0  0
  187.4450  177.7120  141.4340 C   0  0  0  0  0  1  0  0  0  0  0  0
  192.4180  174.9920  146.0690 C   0  0  0  0  0  2  0  0  0  0  0  0
  190.8010  176.8770  146.0650 N   0  0  0  0  0  0  0  0  0  0  0  0
  187.7270  175.4700  142.5220 C   0  0  0  0  0  2  0  0  0  0  0  0
  191.3570  175.8190  145.4010 C   0  0  0  0  0  0  0  0  0  0  0  0
  189.8470  174.1400  142.4480 N   0  0  1  0  0  0  0  0  0  0  0  0
  187.7900  177.6590  143.9090 C   0  0  0  0  0  2  0  0  0  0  0  0
  192.4110  172.9510  145.1250 C   0  0  2  0  0  3  0  0  0  0  0  0
  185.6850  176.8230  142.8950 C   0  0  0  0  0  1  0  0  0  0  0  0
  193.0860  174.1870  145.1330 O   0  0  0  0  0  0  0  0  0  0  0  0
  191.7420  173.9800  140.7860 C   0  0  0  0  0  2  0  0  0  0  0  0
  192.1180  173.7850  139.3130 C   0  0  2  0  0  3  0  0  0  0  0  0
  191.8020  171.2470  139.7750 C   0  0  2  0  0  3  0  0  0  0  0  0
  191.7970  172.3900  138.7500 C   0  0  0  0  0  2  0  0  0  0  0  0
  190.6220  171.3050  140.7110 C   0  0  0  0  0  0  0  0  0  0  0  0
  190.4410  170.3950  141.5020 O   0  0  0  0  0  0  0  0  0  0  0  0
  189.6400  172.4420  140.6640 C   0  0  0  0  0  2  0  0  0  0  0  0
  192.9900  171.2230  140.4840 F   0  0  0  0  0  0  0  0  0  0  0  0
  190.2350  173.7970  141.0710 C   0  0  1  0  0  3  0  0  0  0  0  0
  194.0920  174.8970  140.2090 N   0  0  0  0  0  1  0  0  0  0  0  0
  193.5950  174.0780  139.1160 C   0  0  0  0  0  2  0  0  0  0  0  0
  192.9890  170.9090  143.7650 C   0  0  0  0  0  3  0  0  0  0  0  0
  193.3490  171.8530  144.7370 C   0  0  0  0  0  0  0  0  0  0  0  0
  194.5810  171.7400  145.3900 C   0  0  0  0  0  3  0  0  0  0  0  0
  196.6480  170.5950  145.6970 F   0  0  0  0  0  0  0  0  0  0  0  0
  195.0970  169.7640  144.0900 C   0  0  0  0  0  3  0  0  0  0  0  0
  195.4550  170.6990  145.0640 C   0  0  0  0  0  0  0  0  0  0  0  0
  193.8630  169.8680  143.4400 C   0  0  0  0  0  3  0  0  0  0  0  0
  1 18  1  0  0  0  0
  1 16  1  0  0  0  0
  2 14  1  0  0  0  0
  4  8  2  0  0  0  0
  5  2  1  1  0  0  0
  5  7  1  0  0  0  0
  6  2  2  0  0  0  0
  6  4  1  0  0  0  0
  7  3  1  1  0  0  0
  7 17  1  0  0  0  0
  8 12  1  0  0  0  0
  9 15  1  0  0  0  0
  9 13  1  1  0  0  0
  9  6  1  0  0  0  0
 10  1  1  0  0  0  0
 13  1  1  0  0  0  0
 14 12  2  0  0  0  0
 14 11  1  0  0  0  0
 15 28  1  6  0  0  0
 15  5  1  0  0  0  0
 16  4  1  0  0  0  0
 17 32  1  6  0  0  0
 17 19  1  0  0  0  0
 19 11  1  0  0  0  0
 20 28  1  0  0  0  0
 21 30  1  1  0  0  0
 21 20  1  0  0  0  0
 22 27  1  1  0  0  0
 22 24  1  0  0  0  0
 23 21  1  0  0  0  0
 23 22  1  0  0  0  0
 24 25  2  0  0  0  0
 26 24  1  0  0  0  0
 28 26  1  1  0  0  0
 30 29  1  0  0  0  0
 31 32  1  0  0  0  0
 32 33  2  0  0  0  0
 35 36  2  0  0  0  0
 36 33  1  0  0  0  0
 36 34  1  0  0  0  0
 37 31  2  0  0  0  0
 37 35  1  0  0  0  0
M  END
>  <MODEL>
7

>  <REMARK>
 VINA RESULT:      -7.9      2.997      6.368
  Name = 
  3 active torsions:
  status: ('A' for Active; 'I' for Inactive)
    1  A    between atoms: C_4  and  C_37
    2  A    between atoms: N_21  and  C_27
    3  A    between atoms: C_23  and  C_30
                            x       y       z     vdW  Elec       q    Type
                         _______ _______ _______ _____ _____    ______ ____

>  <TORSDO>
F 3

$$$$
=
 OpenBabel11112417133D

 37 42  0  0  1  0  0  0  0  0999 V2000
  186.9970  176.9700  142.0140 C   0  0  0  0  0  0  0  0  0  0  0  0
  190.7530  175.5970  143.2080 C   0  0  0  0  0  0  0  0  0  0  0  0
  189.9260  173.7110  145.4750 C   0  0  0  0  0  1  0  0  0  0  0  0
  189.3610  177.5180  142.8780 C   0  0  0  0  0  0  0  0  0  0  0  0
  190.6280  174.1210  143.0620 C   0  0  1  0  0  3  0  0  0  0  0  0
  189.6750  176.1870  142.6450 C   0  0  0  0  0  0  0  0  0  0  0  0
  190.9120  173.3590  144.3700 C   0  0  1  0  0  3  0  0  0  0  0  0
  190.2840  178.2820  143.6110 C   0  0  0  0  0  3  0  0  0  0  0  0
  188.7830  175.1890  142.0470 C   0  0  2  0  0  3  0  0  0  0  0  0
  186.9510  177.0520  140.4970 C   0  0  0  0  0  1  0  0  0  0  0  0
  192.8040  175.7160  144.6880 C   0  0  0  0  0  2  0  0  0  0  0  0
  191.4150  177.6920  144.1130 N   0  0  0  0  0  0  0  0  0  0  0  0
  187.3490  175.5290  142.4490 C   0  0  0  0  0  2  0  0  0  0  0  0
  191.6680  176.3590  143.9460 C   0  0  0  0  0  0  0  0  0  0  0  0
  189.2410  173.8950  142.5820 N   0  0  1  0  0  0  0  0  0  0  0  0
  187.9860  178.0390  142.5460 C   0  0  0  0  0  2  0  0  0  0  0  0
  192.3590  173.5210  144.8830 C   0  0  2  0  0  3  0  0  0  0  0  0
  185.6170  177.3000  142.5420 C   0  0  0  0  0  1  0  0  0  0  0  0
  193.1070  174.4580  144.1450 O   0  0  0  0  0  0  0  0  0  0  0  0
  188.9840  173.5160  140.0980 C   0  0  0  0  0  2  0  0  0  0  0  0
  188.7610  172.4750  138.9950 C   0  0  2  0  0  3  0  0  0  0  0  0
  191.3130  172.0190  139.1880 C   0  0  2  0  0  3  0  0  0  0  0  0
  189.9250  171.4870  138.8040 C   0  0  0  0  0  2  0  0  0  0  0  0
  191.4850  172.1650  140.6770 C   0  0  0  0  0  0  0  0  0  0  0  0
  192.5760  172.4700  141.1270 O   0  0  0  0  0  0  0  0  0  0  0  0
  190.3480  171.9030  141.6260 C   0  0  0  0  0  2  0  0  0  0  0  0
  191.5800  173.2150  138.5440 F   0  0  0  0  0  0  0  0  0  0  0  0
  189.1890  172.9000  141.5000 C   0  0  1  0  0  3  0  0  0  0  0  0
  187.9180  174.4940  137.9240 N   0  0  0  0  0  1  0  0  0  0  0  0
  188.4760  173.1750  137.6780 C   0  0  0  0  0  2  0  0  0  0  0  0
  192.4930  171.0880  144.2360 C   0  0  0  0  0  3  0  0  0  0  0  0
  193.0520  172.1960  144.8890 C   0  0  0  0  0  0  0  0  0  0  0  0
  194.2500  172.0520  145.5960 C   0  0  0  0  0  3  0  0  0  0  0  0
  196.0550  170.6760  146.3250 F   0  0  0  0  0  0  0  0  0  0  0  0
  194.3380  169.7100  144.9840 C   0  0  0  0  0  3  0  0  0  0  0  0
  194.8940  170.8120  145.6410 C   0  0  0  0  0  0  0  0  0  0  0  0
  193.1370  169.8480  144.2810 C   0  0  0  0  0  3  0  0  0  0  0  0
  1 13  1  0  0  0  0
  1 18  1  0  0  0  0
  1 16  1  0  0  0  0
  2 14  1  0  0  0  0
  4  8  2  0  0  0  0
  5  2  1  1  0  0  0
  5  7  1  0  0  0  0
  6  4  1  0  0  0  0
  6  2  2  0  0  0  0
  7 17  1  0  0  0  0
  7  3  1  1  0  0  0
  8 12  1  0  0  0  0
  9 13  1  1  0  0  0
  9 15  1  0  0  0  0
  9  6  1  0  0  0  0
 10  1  1  0  0  0  0
 14 12  2  0  0  0  0
 14 11  1  0  0  0  0
 15 28  1  6  0  0  0
 15  5  1  0  0  0  0
 16  4  1  0  0  0  0
 17 32  1  6  0  0  0
 19 11  1  0  0  0  0
 19 17  1  0  0  0  0
 21 30  1  6  0  0  0
 21 20  1  0  0  0  0
 22 27  1  6  0  0  0
 22 24  1  0  0  0  0
 23 21  1  0  0  0  0
 23 22  1  0  0  0  0
 24 25  2  0  0  0  0
 24 26  1  0  0  0  0
 28 20  1  6  0  0  0
 28 26  1  0  0  0  0
 30 29  1  0  0  0  0
 31 37  2  0  0  0  0
 31 32  1  0  0  0  0
 32 33  2  0  0  0  0
 33 36  1  0  0  0  0
 35 36  2  0  0  0  0
 36 34  1  0  0  0  0
 37 35  1  0  0  0  0
M  END
>  <MODEL>
8

>  <REMARK>
 VINA RESULT:      -7.9      3.169      6.295
  Name = 
  3 active torsions:
  status: ('A' for Active; 'I' for Inactive)
    1  A    between atoms: C_4  and  C_37
    2  A    between atoms: N_21  and  C_27
    3  A    between atoms: C_23  and  C_30
                            x       y       z     vdW  Elec       q    Type
                         _______ _______ _______ _____ _____    ______ ____

>  <TORSDO>
F 3

$$$$
=
 OpenBabel11112417133D

 37 42  0  0  1  0  0  0  0  0999 V2000
  191.3450  175.6300  146.9650 C   0  0  0  0  0  0  0  0  0  0  0  0
  191.9780  174.5890  142.9730 C   0  0  0  0  0  0  0  0  0  0  0  0
  189.6430  172.6510  142.5580 C   0  0  0  0  0  1  0  0  0  0  0  0
  192.9180  174.6490  145.1750 C   0  0  0  0  0  0  0  0  0  0  0  0
  190.6900  174.9610  142.3250 C   0  0  1  0  0  3  0  0  0  0  0  0
  191.9920  175.0750  144.2340 C   0  0  0  0  0  0  0  0  0  0  0  0
  190.0140  173.7790  141.6060 C   0  0  1  0  0  3  0  0  0  0  0  0
  193.9390  173.7910  144.7360 C   0  0  0  0  0  3  0  0  0  0  0  0
  190.7710  175.8350  144.5170 C   0  0  2  0  0  3  0  0  0  0  0  0
  191.6020  177.1160  147.1430 C   0  0  0  0  0  1  0  0  0  0  0  0
  192.9400  173.0710  141.1890 C   0  0  0  0  0  2  0  0  0  0  0  0
  193.9610  173.3640  143.4340 N   0  0  0  0  0  0  0  0  0  0  0  0
  190.2540  175.4120  145.8920 C   0  0  0  0  0  2  0  0  0  0  0  0
  192.9930  173.7270  142.5390 C   0  0  0  0  0  0  0  0  0  0  0  0
  189.8450  175.4950  143.4230 N   0  0  1  0  0  0  0  0  0  0  0  0
  192.6870  174.9220  146.6390 C   0  0  0  0  0  2  0  0  0  0  0  0
  190.8320  173.2210  140.4220 C   0  0  2  0  0  3  0  0  0  0  0  0
  190.8310  175.0830  148.2790 C   0  0  0  0  0  1  0  0  0  0  0  0
  192.1140  173.7940  140.3150 O   0  0  0  0  0  0  0  0  0  0  0  0
  188.0390  176.4790  141.9560 C   0  0  0  0  0  2  0  0  0  0  0  0
  187.4120  177.7700  141.4170 C   0  0  2  0  0  3  0  0  0  0  0  0
  186.1540  177.8700  143.6890 C   0  0  2  0  0  3  0  0  0  0  0  0
  186.7140  178.6340  142.4810 C   0  0  0  0  0  2  0  0  0  0  0  0
  187.2370  177.3570  144.6020 C   0  0  0  0  0  0  0  0  0  0  0  0
  186.9300  176.8310  145.6580 O   0  0  0  0  0  0  0  0  0  0  0  0
  188.6920  177.5160  144.2580 C   0  0  0  0  0  2  0  0  0  0  0  0
  185.3260  176.8390  143.2820 F   0  0  0  0  0  0  0  0  0  0  0  0
  189.1310  176.7170  143.0230 C   0  0  1  0  0  3  0  0  0  0  0  0
  185.2520  178.2910  140.4200 N   0  0  0  0  0  1  0  0  0  0  0  0
  186.4240  177.4400  140.3120 C   0  0  0  0  0  2  0  0  0  0  0  0
  190.5560  172.8660  137.9410 C   0  0  0  0  0  3  0  0  0  0  0  0
  190.0770  173.4040  139.1440 C   0  0  0  0  0  0  0  0  0  0  0  0
  188.9040  174.1660  139.1440 C   0  0  0  0  0  3  0  0  0  0  0  0
  187.0670  175.1130  137.9560 F   0  0  0  0  0  0  0  0  0  0  0  0
  188.6800  173.8330  136.7550 C   0  0  0  0  0  3  0  0  0  0  0  0
  188.2040  174.3770  137.9520 C   0  0  0  0  0  0  0  0  0  0  0  0
  189.8560  173.0770  136.7500 C   0  0  0  0  0  3  0  0  0  0  0  0
  1 10  1  0  0  0  0
  1 18  1  0  0  0  0
  2  6  1  0  0  0  0
  4 16  1  0  0  0  0
  5  2  1  1  0  0  0
  5 15  1  0  0  0  0
  6  9  1  0  0  0  0
  6  4  2  0  0  0  0
  7  5  1  0  0  0  0
  7  3  1  1  0  0  0
  8  4  1  0  0  0  0
  9 13  1  1  0  0  0
 11 14  1  0  0  0  0
 12  8  2  0  0  0  0
 13  1  1  0  0  0  0
 14  2  2  0  0  0  0
 14 12  1  0  0  0  0
 15 28  1  6  0  0  0
 15  9  1  0  0  0  0
 16  1  1  0  0  0  0
 17 32  1  6  0  0  0
 17  7  1  0  0  0  0
 19 17  1  0  0  0  0
 19 11  1  0  0  0  0
 21 30  1  6  0  0  0
 21 20  1  0  0  0  0
 21 23  1  0  0  0  0
 22 27  1  6  0  0  0
 22 24  1  0  0  0  0
 23 22  1  0  0  0  0
 24 25  2  0  0  0  0
 26 24  1  0  0  0  0
 28 20  1  1  0  0  0
 28 26  1  0  0  0  0
 30 29  1  0  0  0  0
 31 32  1  0  0  0  0
 33 32  2  0  0  0  0
 35 36  2  0  0  0  0
 36 34  1  0  0  0  0
 36 33  1  0  0  0  0
 37 35  1  0  0  0  0
 37 31  2  0  0  0  0
M  END
>  <MODEL>
9

>  <REMARK>
 VINA RESULT:      -7.8      2.693      6.370
  Name = 
  3 active torsions:
  status: ('A' for Active; 'I' for Inactive)
    1  A    between atoms: C_4  and  C_37
    2  A    between atoms: N_21  and  C_27
    3  A    between atoms: C_23  and  C_30
                            x       y       z     vdW  Elec       q    Type
                         _______ _______ _______ _____ _____    ______ ____

>  <TORSDO>
F 3

$$$$
