=
 OpenBabel11112416443D

 32 38  0  0  1  0  0  0  0  0999 V2000
  187.1840  178.3060  146.6280 O   0  0  0  0  0  0  0  0  0  0  0  0
  191.1760  175.5160  144.8370 C   0  0  2  0  0  3  0  0  0  0  0  0
  189.3590  171.9530  141.9090 C   0  0  0  0  0  3  0  0  0  0  0  0
  190.4720  171.1720  142.2250 C   0  0  0  0  0  3  0  0  0  0  0  0
  193.5800  175.4260  145.3860 C   0  0  1  0  0  3  0  0  0  0  0  0
  194.9410  174.9140  144.8950 C   0  0  1  0  0  3  0  0  0  0  0  0
  189.6370  177.4590  145.3400 C   0  0  1  0  0  3  0  0  0  0  0  0
  188.8450  175.4640  144.2110 O   0  0  0  0  0  0  0  0  0  0  0  0
  196.1180  173.0780  144.0910 C   0  0  2  0  0  3  0  0  0  0  0  0
  187.2950  177.3010  144.4300 C   0  0  0  0  0  2  0  0  0  0  0  0
  189.2490  173.2500  142.4170 C   0  0  0  0  0  3  0  0  0  0  0  0
  190.1430  175.1850  143.7400 C   0  0  2  0  0  3  0  0  0  0  0  0
  190.2480  173.7710  143.2490 C   0  0  0  0  0  0  0  0  0  0  0  0
  192.4390  173.5580  144.4740 C   0  0  1  0  0  3  0  0  0  0  0  0
  196.8270  173.5740  145.3450 C   0  0  0  0  0  2  0  0  0  0  0  0
  187.7110  177.0680  147.0460 C   0  0  2  0  0  3  0  0  0  0  0  0
  188.7420  176.8680  144.2450 C   0  0  1  0  0  3  0  0  0  0  0  0
  195.8490  174.4980  146.0220 C   0  0  0  0  0  2  0  0  0  0  0  0
  189.2110  176.9660  146.7270 C   0  0  0  0  0  2  0  0  0  0  0  0
  186.7970  177.1770  145.8740 C   0  0  1  0  0  0  0  0  0  0  0  0
  191.4830  171.6940  143.0360 C   0  0  0  0  0  3  0  0  0  0  0  0
  191.3960  173.0070  143.5280 C   0  0  0  0  0  0  0  0  0  0  0  0
  193.8060  172.8670  144.3190 C   0  0  0  0  0  2  0  0  0  0  0  0
  191.0830  177.0350  145.0650 C   0  0  0  0  0  2  0  0  0  0  0  0
  193.6890  176.8130  145.4950 O   0  0  0  0  0  1  0  0  0  0  0  0
  197.0000  173.3060  142.8790 C   0  0  0  0  0  1  0  0  0  0  0  0
  192.5180  175.0360  144.4310 N   0  0  1  0  0  0  0  0  0  0  0  0
  194.8610  173.8060  143.9370 N   0  0  1  0  0  0  0  0  0  0  0  0
  185.3370  176.8180  146.1210 C   0  0  0  0  0  2  0  0  0  0  0  0
  184.4680  178.0320  146.2260 C   0  0  0  0  0  0  0  0  0  0  0  0
  184.0740  178.7670  144.9920 C   0  0  0  0  0  1  0  0  0  0  0  0
  184.1020  178.4390  147.3170 O   0  0  0  0  0  0  0  0  0  0  0  0
  1 16  1  0  0  0  0
  2 24  1  6  0  0  0
  3  4  2  0  0  0  0
  3 11  1  0  0  0  0
  4 21  1  0  0  0  0
  5 25  1  6  0  0  0
  6  5  1  0  0  0  0
  6 18  1  1  0  0  0
  7 24  1  6  0  0  0
  7 19  1  0  0  0  0
  8 17  1  0  0  0  0
  9 26  1  6  0  0  0
  9 15  1  0  0  0  0
 10 20  1  0  0  0  0
 11 13  2  0  0  0  0
 12 13  1  1  0  0  0
 12  8  1  0  0  0  0
 12  2  1  0  0  0  0
 13 22  1  0  0  0  0
 14 23  1  6  0  0  0
 15 18  1  0  0  0  0
 16 19  1  6  0  0  0
 17 10  1  1  0  0  0
 17  7  1  0  0  0  0
 20 29  1  1  0  0  0
 20  1  1  0  0  0  0
 20 16  1  0  0  0  0
 21 22  2  0  0  0  0
 22 14  1  0  0  0  0
 27 14  1  0  0  0  0
 27  2  1  0  0  0  0
 27  5  1  0  0  0  0
 28  9  1  0  0  0  0
 28 23  1  0  0  0  0
 28  6  1  0  0  0  0
 29 30  1  0  0  0  0
 30 32  2  0  0  0  0
 31 30  1  0  0  0  0
M  END
>  <MODEL>
1

>  <REMARK>
 VINA RESULT:      -8.4      0.000      0.000
  Name = 
  2 active torsions:
  status: ('A' for Active; 'I' for Inactive)
    1  A    between atoms: C_20  and  C_29
    2  A    between atoms: C_29  and  C_30
                            x       y       z     vdW  Elec       q    Type
                         _______ _______ _______ _____ _____    ______ ____

>  <TORSDO>
F 2

$$$$
=
 OpenBabel11112416443D

 32 38  0  0  1  0  0  0  0  0999 V2000
  185.6740  177.8240  141.3400 O   0  0  0  0  0  0  0  0  0  0  0  0
  189.9630  175.2470  142.7140 C   0  0  2  0  0  3  0  0  0  0  0  0
  190.2370  175.2660  147.6630 C   0  0  0  0  0  3  0  0  0  0  0  0
  191.6250  175.1670  147.5540 C   0  0  0  0  0  3  0  0  0  0  0  0
  191.9050  174.3740  141.4680 C   0  0  1  0  0  3  0  0  0  0  0  0
  193.1130  173.4330  141.5640 C   0  0  1  0  0  3  0  0  0  0  0  0
  187.7090  175.7950  141.7060 C   0  0  1  0  0  3  0  0  0  0  0  0
  188.1460  176.0690  144.0760 O   0  0  0  0  0  0  0  0  0  0  0  0
  194.9640  172.8180  142.8290 C   0  0  2  0  0  3  0  0  0  0  0  0
  185.8870  176.4450  143.3160 C   0  0  0  0  0  2  0  0  0  0  0  0
  189.4430  175.2590  146.5140 C   0  0  0  0  0  3  0  0  0  0  0  0
  189.1640  175.0960  144.0260 C   0  0  2  0  0  3  0  0  0  0  0  0
  190.0330  175.1600  145.2470 C   0  0  0  0  0  0  0  0  0  0  0  0
  192.0570  174.9610  143.7600 C   0  0  1  0  0  3  0  0  0  0  0  0
  195.4570  173.2070  141.4410 C   0  0  0  0  0  2  0  0  0  0  0  0
  186.9510  178.2840  141.7170 C   0  0  2  0  0  3  0  0  0  0  0  0
  187.1790  175.6620  143.1380 C   0  0  1  0  0  3  0  0  0  0  0  0
  194.3070  173.9350  140.7940 C   0  0  0  0  0  2  0  0  0  0  0  0
  188.0380  177.2540  141.3730 C   0  0  0  0  0  2  0  0  0  0  0  0
  185.9390  177.8590  142.7260 C   0  0  1  0  0  0  0  0  0  0  0  0
  192.2180  175.0460  146.2940 C   0  0  0  0  0  3  0  0  0  0  0  0
  191.4280  175.0090  145.1340 C   0  0  0  0  0  0  0  0  0  0  0  0
  193.4630  174.3330  143.7720 C   0  0  0  0  0  2  0  0  0  0  0  0
  188.9730  174.9400  141.5760 C   0  0  0  0  0  2  0  0  0  0  0  0
  191.1210  173.9120  140.4100 O   0  0  0  0  0  1  0  0  0  0  0  0
  195.1790  171.3330  143.0510 C   0  0  0  0  0  1  0  0  0  0  0  0
  191.1560  174.3690  142.7450 N   0  0  1  0  0  0  0  0  0  0  0  0
  193.5430  173.1370  142.9350 N   0  0  1  0  0  0  0  0  0  0  0  0
  185.1600  178.9730  143.4130 C   0  0  0  0  0  2  0  0  0  0  0  0
  185.2780  178.9080  144.9030 C   0  0  0  0  0  0  0  0  0  0  0  0
  184.0510  178.7670  145.7360 C   0  0  0  0  0  1  0  0  0  0  0  0
  186.3700  178.9970  145.4410 O   0  0  0  0  0  0  0  0  0  0  0  0
  1 16  1  0  0  0  0
  1 20  1  0  0  0  0
  2 24  1  6  0  0  0
  2 27  1  0  0  0  0
  2 12  1  0  0  0  0
  4  3  1  0  0  0  0
  5 25  1  6  0  0  0
  5  6  1  0  0  0  0
  5 27  1  0  0  0  0
  6 18  1  6  0  0  0
  6 28  1  0  0  0  0
  7 19  1  1  0  0  0
  7 17  1  0  0  0  0
  9 28  1  0  0  0  0
  9 26  1  6  0  0  0
 11  3  2  0  0  0  0
 12  8  1  1  0  0  0
 12 13  1  0  0  0  0
 13 11  1  0  0  0  0
 14 23  1  1  0  0  0
 14 22  1  0  0  0  0
 15  9  1  0  0  0  0
 16 19  1  6  0  0  0
 16 20  1  0  0  0  0
 17 10  1  6  0  0  0
 17  8  1  0  0  0  0
 18 15  1  0  0  0  0
 20 10  1  0  0  0  0
 20 29  1  1  0  0  0
 21  4  2  0  0  0  0
 22 13  2  0  0  0  0
 22 21  1  0  0  0  0
 24  7  1  0  0  0  0
 27 14  1  0  0  0  0
 28 23  1  0  0  0  0
 29 30  1  0  0  0  0
 30 32  2  0  0  0  0
 30 31  1  0  0  0  0
M  END
>  <MODEL>
2

>  <REMARK>
 VINA RESULT:      -8.3      2.341      3.868
  Name = 
  2 active torsions:
  status: ('A' for Active; 'I' for Inactive)
    1  A    between atoms: C_20  and  C_29
    2  A    between atoms: C_29  and  C_30
                            x       y       z     vdW  Elec       q    Type
                         _______ _______ _______ _____ _____    ______ ____

>  <TORSDO>
F 2

$$$$
=
 OpenBabel11112416443D

 32 38  0  0  1  0  0  0  0  0999 V2000
  189.6150  172.6480  139.5080 O   0  0  0  0  0  0  0  0  0  0  0  0
  188.5580  175.5300  143.6910 C   0  0  2  0  0  3  0  0  0  0  0  0
  192.3160  175.0270  146.8830 C   0  0  0  0  0  3  0  0  0  0  0  0
  191.4250  175.2910  147.9230 C   0  0  0  0  0  3  0  0  0  0  0  0
  186.5530  176.7380  144.4710 C   0  0  1  0  0  3  0  0  0  0  0  0
  186.0570  177.7940  145.4690 C   0  0  1  0  0  3  0  0  0  0  0  0
  189.0070  174.8420  141.2990 C   0  0  1  0  0  3  0  0  0  0  0  0
  190.5870  174.3730  143.0790 O   0  0  0  0  0  0  0  0  0  0  0  0
  186.0580  178.4760  147.6910 C   0  0  2  0  0  3  0  0  0  0  0  0
  191.2630  173.8290  140.8270 C   0  0  0  0  0  2  0  0  0  0  0  0
  191.8760  175.0650  145.5580 C   0  0  0  0  0  3  0  0  0  0  0  0
  190.0920  175.4530  143.8360 C   0  0  2  0  0  3  0  0  0  0  0  0
  190.5370  175.3600  145.2660 C   0  0  0  0  0  0  0  0  0  0  0  0
  188.1930  175.9370  145.9850 C   0  0  1  0  0  3  0  0  0  0  0  0
  184.6090  178.2910  147.2620 C   0  0  0  0  0  2  0  0  0  0  0  0
  189.0910  172.2960  140.7670 C   0  0  2  0  0  3  0  0  0  0  0  0
  190.4760  174.7660  141.7310 C   0  0  1  0  0  3  0  0  0  0  0  0
  184.6660  177.5100  145.9750 C   0  0  0  0  0  2  0  0  0  0  0  0
  188.3300  173.4720  141.4010 C   0  0  0  0  0  2  0  0  0  0  0  0
  190.5520  172.4990  140.5530 C   0  0  1  0  0  0  0  0  0  0  0  0
  190.0940  175.6080  147.6380 C   0  0  0  0  0  3  0  0  0  0  0  0
  189.6470  175.6770  146.3080 C   0  0  0  0  0  0  0  0  0  0  0  0
  187.4650  176.7130  147.0990 C   0  0  0  0  0  2  0  0  0  0  0  0
  188.2860  175.8420  142.2080 C   0  0  0  0  0  2  0  0  0  0  0  0
  186.2470  177.2180  143.1960 O   0  0  0  0  0  1  0  0  0  0  0  0
  186.3310  179.9440  147.9570 C   0  0  0  0  0  1  0  0  0  0  0  0
  188.0090  176.5270  144.6400 N   0  0  1  0  0  0  0  0  0  0  0  0
  186.9340  177.9910  146.6280 N   0  0  1  0  0  0  0  0  0  0  0  0
  191.3890  171.2400  140.3730 C   0  0  0  0  0  2  0  0  0  0  0  0
  192.3840  171.0610  141.4760 C   0  0  0  0  0  0  0  0  0  0  0  0
  191.9090  170.8270  142.8690 C   0  0  0  0  0  1  0  0  0  0  0  0
  193.5810  171.1320  141.2480 O   0  0  0  0  0  0  0  0  0  0  0  0
  1 20  1  0  0  0  0
  1 16  1  0  0  0  0
  2 24  1  6  0  0  0
  2 12  1  0  0  0  0
  2 27  1  0  0  0  0
  3  4  1  0  0  0  0
  5 25  1  6  0  0  0
  5 27  1  0  0  0  0
  5  6  1  0  0  0  0
  6 18  1  1  0  0  0
  6 28  1  0  0  0  0
  7 19  1  1  0  0  0
  7 17  1  0  0  0  0
  7 24  1  0  0  0  0
  9 26  1  6  0  0  0
 11  3  2  0  0  0  0
 12  8  1  6  0  0  0
 12 13  1  0  0  0  0
 13 11  1  0  0  0  0
 13 22  2  0  0  0  0
 14 22  1  0  0  0  0
 14 23  1  1  0  0  0
 15  9  1  0  0  0  0
 16 19  1  1  0  0  0
 17 10  1  6  0  0  0
 17  8  1  0  0  0  0
 18 15  1  0  0  0  0
 20 29  1  6  0  0  0
 20 16  1  0  0  0  0
 20 10  1  0  0  0  0
 21  4  2  0  0  0  0
 22 21  1  0  0  0  0
 27 14  1  0  0  0  0
 28 23  1  0  0  0  0
 28  9  1  0  0  0  0
 29 30  1  0  0  0  0
 30 31  1  0  0  0  0
 32 30  2  0  0  0  0
M  END
>  <MODEL>
3

>  <REMARK>
 VINA RESULT:      -8.2      3.024      8.145
  Name = 
  2 active torsions:
  status: ('A' for Active; 'I' for Inactive)
    1  A    between atoms: C_20  and  C_29
    2  A    between atoms: C_29  and  C_30
                            x       y       z     vdW  Elec       q    Type
                         _______ _______ _______ _____ _____    ______ ____

>  <TORSDO>
F 2

$$$$
=
 OpenBabel11112416443D

 32 38  0  0  1  0  0  0  0  0999 V2000
  186.8250  178.1980  146.7070 O   0  0  0  0  0  0  0  0  0  0  0  0
  190.3700  175.1330  144.4790 C   0  0  2  0  0  3  0  0  0  0  0  0
  188.5900  173.6840  140.0850 C   0  0  0  0  0  3  0  0  0  0  0  0
  189.3660  172.5280  140.1900 C   0  0  0  0  0  3  0  0  0  0  0  0
  192.4550  174.0790  145.2690 C   0  0  1  0  0  3  0  0  0  0  0  0
  193.7360  173.3730  144.8030 C   0  0  1  0  0  3  0  0  0  0  0  0
  189.2570  177.1400  145.5410 C   0  0  1  0  0  3  0  0  0  0  0  0
  188.3380  176.0690  143.5680 O   0  0  0  0  0  0  0  0  0  0  0  0
  194.6140  171.6850  143.4670 C   0  0  2  0  0  3  0  0  0  0  0  0
  187.2650  178.0910  144.3310 C   0  0  0  0  0  2  0  0  0  0  0  0
  188.6610  174.6640  141.0770 C   0  0  0  0  0  3  0  0  0  0  0  0
  189.6100  175.5800  143.2120 C   0  0  2  0  0  3  0  0  0  0  0  0
  189.5030  174.4920  142.1840 C   0  0  0  0  0  0  0  0  0  0  0  0
  191.1840  173.1500  143.4950 C   0  0  1  0  0  3  0  0  0  0  0  0
  195.0680  171.4300  144.8980 C   0  0  0  0  0  2  0  0  0  0  0  0
  186.9170  176.7940  146.6260 C   0  0  2  0  0  3  0  0  0  0  0  0
  188.5650  177.3150  144.1850 C   0  0  1  0  0  3  0  0  0  0  0  0
  194.1950  172.3040  145.7600 C   0  0  0  0  0  2  0  0  0  0  0  0
  188.3800  176.3390  146.5090 C   0  0  0  0  0  2  0  0  0  0  0  0
  186.3920  177.6140  145.4970 C   0  0  1  0  0  0  0  0  0  0  0  0
  190.2240  172.3600  141.2800 C   0  0  0  0  0  3  0  0  0  0  0  0
  190.3240  173.3520  142.2680 C   0  0  0  0  0  0  0  0  0  0  0  0
  192.3410  172.1640  143.2540 C   0  0  0  0  0  2  0  0  0  0  0  0
  190.5820  176.4050  145.3180 C   0  0  0  0  0  2  0  0  0  0  0  0
  192.8570  175.2140  145.9740 O   0  0  0  0  0  1  0  0  0  0  0  0
  195.8100  172.0450  142.6070 C   0  0  0  0  0  1  0  0  0  0  0  0
  191.6180  174.4310  144.1000 N   0  0  1  0  0  0  0  0  0  0  0  0
  193.6500  172.7820  143.4630 N   0  0  1  0  0  0  0  0  0  0  0  0
  184.8760  177.6810  145.3590 C   0  0  0  0  0  2  0  0  0  0  0  0
  184.4460  178.7140  144.3650 C   0  0  0  0  0  0  0  0  0  0  0  0
  183.9620  178.2900  143.0210 C   0  0  0  0  0  1  0  0  0  0  0  0
  184.5130  179.9010  144.6390 O   0  0  0  0  0  0  0  0  0  0  0  0
  2 24  1  1  0  0  0
  3  4  2  0  0  0  0
  3 11  1  0  0  0  0
  4 21  1  0  0  0  0
  5 25  1  6  0  0  0
  6  5  1  0  0  0  0
  6 18  1  1  0  0  0
  7 24  1  6  0  0  0
  7 19  1  0  0  0  0
  8 17  1  0  0  0  0
  9 26  1  6  0  0  0
  9 15  1  0  0  0  0
 10 20  1  0  0  0  0
 11 13  2  0  0  0  0
 12 13  1  6  0  0  0
 12  8  1  0  0  0  0
 12  2  1  0  0  0  0
 13 22  1  0  0  0  0
 14 23  1  6  0  0  0
 14 27  1  0  0  0  0
 15 18  1  0  0  0  0
 16 19  1  6  0  0  0
 16  1  1  0  0  0  0
 17 10  1  1  0  0  0
 17  7  1  0  0  0  0
 20 29  1  6  0  0  0
 20 16  1  0  0  0  0
 20  1  1  0  0  0  0
 21 22  2  0  0  0  0
 22 14  1  0  0  0  0
 23 28  1  0  0  0  0
 27  2  1  0  0  0  0
 27  5  1  0  0  0  0
 28  9  1  0  0  0  0
 28  6  1  0  0  0  0
 30 32  2  0  0  0  0
 30 29  1  0  0  0  0
 31 30  1  0  0  0  0
M  END
>  <MODEL>
4

>  <REMARK>
 VINA RESULT:      -8.1      1.398      1.757
  Name = 
  2 active torsions:
  status: ('A' for Active; 'I' for Inactive)
    1  A    between atoms: C_20  and  C_29
    2  A    between atoms: C_29  and  C_30
                            x       y       z     vdW  Elec       q    Type
                         _______ _______ _______ _____ _____    ______ ____

>  <TORSDO>
F 2

$$$$
=
 OpenBabel11112416443D

 32 38  0  0  1  0  0  0  0  0999 V2000
  193.4550  172.3500  144.2420 O   0  0  0  0  0  0  0  0  0  0  0  0
  189.2380  175.3500  144.6110 C   0  0  2  0  0  3  0  0  0  0  0  0
  187.5290  176.1540  140.0280 C   0  0  0  0  0  3  0  0  0  0  0  0
  186.9910  177.3620  140.4760 C   0  0  0  0  0  3  0  0  0  0  0  0
  188.2030  176.6220  146.4540 C   0  0  1  0  0  3  0  0  0  0  0  0
  186.9220  177.3480  146.8870 C   0  0  1  0  0  3  0  0  0  0  0  0
  190.8420  173.4160  144.8950 C   0  0  1  0  0  3  0  0  0  0  0  0
  190.1490  174.1850  142.7020 O   0  0  0  0  0  0  0  0  0  0  0  0
  185.3160  178.9200  146.2870 C   0  0  2  0  0  3  0  0  0  0  0  0
  191.5210  172.2030  142.7970 C   0  0  0  0  0  2  0  0  0  0  0  0
  188.1800  175.3040  140.9250 C   0  0  0  0  0  3  0  0  0  0  0  0
  188.9550  174.7090  143.2360 C   0  0  2  0  0  3  0  0  0  0  0  0
  188.3030  175.6590  142.2750 C   0  0  0  0  0  0  0  0  0  0  0  0
  187.9090  177.2510  144.1860 C   0  0  1  0  0  3  0  0  0  0  0  0
  185.9410  179.3710  147.6000 C   0  0  0  0  0  2  0  0  0  0  0  0
  193.2860  173.7370  144.0620 C   0  0  2  0  0  3  0  0  0  0  0  0
  190.4400  173.0380  143.4650 C   0  0  1  0  0  3  0  0  0  0  0  0
  187.1960  178.5510  147.7530 C   0  0  0  0  0  2  0  0  0  0  0  0
  192.1150  174.2680  144.9040 C   0  0  0  0  0  2  0  0  0  0  0  0
  192.9360  172.7570  142.9940 C   0  0  1  0  0  0  0  0  0  0  0  0
  187.0920  177.7120  141.8250 C   0  0  0  0  0  3  0  0  0  0  0  0
  187.7190  176.8510  142.7410 C   0  0  0  0  0  0  0  0  0  0  0  0
  186.8610  178.2750  144.6630 C   0  0  0  0  0  2  0  0  0  0  0  0
  189.6910  174.2020  145.5300 C   0  0  0  0  0  2  0  0  0  0  0  0
  188.4210  175.6060  147.3860 O   0  0  0  0  0  1  0  0  0  0  0  0
  183.8670  178.5380  146.5140 C   0  0  0  0  0  1  0  0  0  0  0  0
  188.0400  176.0820  145.0850 N   0  0  1  0  0  0  0  0  0  0  0  0
  186.0600  177.7700  145.7770 N   0  0  1  0  0  0  0  0  0  0  0  0
  193.9600  172.5770  141.8810 C   0  0  0  0  0  2  0  0  0  0  0  0
  193.4470  173.0560  140.5600 C   0  0  0  0  0  0  0  0  0  0  0  0
  193.1720  174.5060  140.3550 C   0  0  0  0  0  1  0  0  0  0  0  0
  193.2270  172.2650  139.6580 O   0  0  0  0  0  0  0  0  0  0  0  0
  2 27  1  0  0  0  0
  2 24  1  1  0  0  0
  3  4  2  0  0  0  0
  3 11  1  0  0  0  0
  4 21  1  0  0  0  0
  5  6  1  0  0  0  0
  5 25  1  1  0  0  0
  6 18  1  6  0  0  0
  7 19  1  6  0  0  0
  7 24  1  0  0  0  0
  8 12  1  0  0  0  0
  8 17  1  0  0  0  0
  9 26  1  1  0  0  0
  9 15  1  0  0  0  0
 10 20  1  0  0  0  0
 11 13  2  0  0  0  0
 12 13  1  6  0  0  0
 12  2  1  0  0  0  0
 13 22  1  0  0  0  0
 14 23  1  1  0  0  0
 14 27  1  0  0  0  0
 15 18  1  0  0  0  0
 16  1  1  0  0  0  0
 16 19  1  1  0  0  0
 17 10  1  6  0  0  0
 17  7  1  0  0  0  0
 20 29  1  6  0  0  0
 20 16  1  0  0  0  0
 20  1  1  0  0  0  0
 21 22  2  0  0  0  0
 22 14  1  0  0  0  0
 23 28  1  0  0  0  0
 27  5  1  0  0  0  0
 28  9  1  0  0  0  0
 28  6  1  0  0  0  0
 30 29  1  0  0  0  0
 31 30  1  0  0  0  0
 32 30  2  0  0  0  0
M  END
>  <MODEL>
5

>  <REMARK>
 VINA RESULT:      -7.7      2.950      7.982
  Name = 
  2 active torsions:
  status: ('A' for Active; 'I' for Inactive)
    1  A    between atoms: C_20  and  C_29
    2  A    between atoms: C_29  and  C_30
                            x       y       z     vdW  Elec       q    Type
                         _______ _______ _______ _____ _____    ______ ____

>  <TORSDO>
F 2

$$$$
=
 OpenBabel11112416443D

 32 38  0  0  1  0  0  0  0  0999 V2000
  185.2380  177.6100  143.1950 O   0  0  0  0  0  0  0  0  0  0  0  0
  189.7220  175.1140  142.4350 C   0  0  2  0  0  3  0  0  0  0  0  0
  192.8240  176.4000  146.0820 C   0  0  0  0  0  3  0  0  0  0  0  0
  193.8910  176.1540  145.2170 C   0  0  0  0  0  3  0  0  0  0  0  0
  190.6410  173.7790  140.5750 C   0  0  1  0  0  3  0  0  0  0  0  0
  191.7530  172.7930  140.1930 C   0  0  1  0  0  3  0  0  0  0  0  0
  187.2670  175.5760  142.8260 C   0  0  1  0  0  3  0  0  0  0  0  0
  188.9770  176.4200  144.3250 O   0  0  0  0  0  0  0  0  0  0  0  0
  194.0380  172.3690  140.2520 C   0  0  2  0  0  3  0  0  0  0  0  0
  186.6760  176.7820  144.9550 C   0  0  0  0  0  2  0  0  0  0  0  0
  191.5140  176.1630  145.6610 C   0  0  0  0  0  3  0  0  0  0  0  0
  189.8520  175.3820  143.9500 C   0  0  2  0  0  3  0  0  0  0  0  0
  191.2610  175.6850  144.3680 C   0  0  0  0  0  0  0  0  0  0  0  0
  192.0490  174.9280  142.0980 C   0  0  1  0  0  3  0  0  0  0  0  0
  193.5960  172.3380  138.7950 C   0  0  0  0  0  2  0  0  0  0  0  0
  186.4520  178.0390  142.6230 C   0  0  2  0  0  3  0  0  0  0  0  0
  187.6830  175.8680  144.2720 C   0  0  1  0  0  3  0  0  0  0  0  0
  192.2290  172.9700  138.7740 C   0  0  0  0  0  2  0  0  0  0  0  0
  187.2160  176.8630  141.9950 C   0  0  0  0  0  2  0  0  0  0  0  0
  186.2560  177.9820  144.0990 C   0  0  1  0  0  0  0  0  0  0  0  0
  193.6480  175.6560  143.9340 C   0  0  0  0  0  3  0  0  0  0  0  0
  192.3360  175.3880  143.5100 C   0  0  0  0  0  0  0  0  0  0  0  0
  193.2460  174.2040  141.4540 C   0  0  0  0  0  2  0  0  0  0  0  0
  188.2860  174.6090  142.2150 C   0  0  0  0  0  2  0  0  0  0  0  0
  189.4300  173.1280  140.3370 O   0  0  0  0  0  1  0  0  0  0  0  0
  194.4660  170.9810  140.6870 C   0  0  0  0  0  1  0  0  0  0  0  0
  190.7800  174.1730  141.9950 N   0  0  1  0  0  0  0  0  0  0  0  0
  192.9240  172.8280  141.0760 N   0  0  1  0  0  0  0  0  0  0  0  0
  185.9320  179.3010  144.7890 C   0  0  0  0  0  2  0  0  0  0  0  0
  185.0080  179.1180  145.9520 C   0  0  0  0  0  0  0  0  0  0  0  0
  185.5630  179.0460  147.3320 C   0  0  0  0  0  1  0  0  0  0  0  0
  183.8070  179.0010  145.7740 O   0  0  0  0  0  0  0  0  0  0  0  0
  1 20  1  0  0  0  0
  2 24  1  1  0  0  0
  2 12  1  0  0  0  0
  4  3  2  0  0  0  0
  5 25  1  1  0  0  0
  5 27  1  0  0  0  0
  6 18  1  6  0  0  0
  6  5  1  0  0  0  0
  6 28  1  0  0  0  0
  7 19  1  6  0  0  0
  7 17  1  0  0  0  0
  9 26  1  1  0  0  0
  9 28  1  0  0  0  0
 11  3  1  0  0  0  0
 12  8  1  6  0  0  0
 12 13  1  0  0  0  0
 13 11  2  0  0  0  0
 14 23  1  1  0  0  0
 14 22  1  0  0  0  0
 15  9  1  0  0  0  0
 16 19  1  1  0  0  0
 16  1  1  0  0  0  0
 16 20  1  0  0  0  0
 17  8  1  0  0  0  0
 17 10  1  6  0  0  0
 18 15  1  0  0  0  0
 20 29  1  1  0  0  0
 20 10  1  0  0  0  0
 21  4  1  0  0  0  0
 22 21  2  0  0  0  0
 22 13  1  0  0  0  0
 24  7  1  0  0  0  0
 27 14  1  0  0  0  0
 27  2  1  0  0  0  0
 28 23  1  0  0  0  0
 29 30  1  0  0  0  0
 30 31  1  0  0  0  0
 32 30  2  0  0  0  0
M  END
>  <MODEL>
6

>  <REMARK>
 VINA RESULT:      -7.6      2.543      4.403
  Name = 
  2 active torsions:
  status: ('A' for Active; 'I' for Inactive)
    1  A    between atoms: C_20  and  C_29
    2  A    between atoms: C_29  and  C_30
                            x       y       z     vdW  Elec       q    Type
                         _______ _______ _______ _____ _____    ______ ____

>  <TORSDO>
F 2

$$$$
=
 OpenBabel11112416443D

 32 38  0  0  1  0  0  0  0  0999 V2000
  196.1770  175.2910  144.9990 O   0  0  0  0  0  0  0  0  0  0  0  0
  191.0280  175.9260  145.0290 C   0  0  2  0  0  3  0  0  0  0  0  0
  189.2570  174.2470  140.7140 C   0  0  0  0  0  3  0  0  0  0  0  0
  188.1910  175.1400  140.8420 C   0  0  0  0  0  3  0  0  0  0  0  0
  189.4610  177.1120  146.5200 C   0  0  1  0  0  3  0  0  0  0  0  0
  187.9790  177.2610  146.8880 C   0  0  1  0  0  3  0  0  0  0  0  0
  193.3590  175.1770  145.6600 C   0  0  1  0  0  3  0  0  0  0  0  0
  192.4350  174.7470  143.4600 O   0  0  0  0  0  0  0  0  0  0  0  0
  185.8290  177.6040  146.0710 C   0  0  2  0  0  3  0  0  0  0  0  0
  194.5920  173.7880  143.9610 C   0  0  0  0  0  2  0  0  0  0  0  0
  190.2150  174.1540  141.7250 C   0  0  0  0  0  3  0  0  0  0  0  0
  191.1240  174.8050  143.9720 C   0  0  2  0  0  3  0  0  0  0  0  0
  190.1180  174.9580  142.8690 C   0  0  0  0  0  0  0  0  0  0  0  0
  188.9560  176.7260  144.2360 C   0  0  1  0  0  3  0  0  0  0  0  0
  186.1260  178.7060  147.0790 C   0  0  0  0  0  2  0  0  0  0  0  0
  195.3630  176.2890  144.4290 C   0  0  2  0  0  3  0  0  0  0  0  0
  193.2250  174.1990  144.4880 C   0  0  1  0  0  3  0  0  0  0  0  0
  187.6160  178.6660  147.2940 C   0  0  0  0  0  2  0  0  0  0  0  0
  194.0610  176.4670  145.2250 C   0  0  0  0  0  2  0  0  0  0  0  0
  195.5570  174.9640  143.7740 C   0  0  1  0  0  0  0  0  0  0  0  0
  188.0770  175.9280  141.9890 C   0  0  0  0  0  3  0  0  0  0  0  0
  189.0190  175.8220  143.0250 C   0  0  0  0  0  0  0  0  0  0  0  0
  187.5330  177.2410  144.5200 C   0  0  0  0  0  2  0  0  0  0  0  0
  191.9570  175.5040  146.1810 C   0  0  0  0  0  2  0  0  0  0  0  0
  190.1200  176.6950  147.6780 O   0  0  0  0  0  1  0  0  0  0  0  0
  184.7390  176.6970  146.6090 C   0  0  0  0  0  1  0  0  0  0  0  0
  189.6140  176.1310  145.4210 N   0  0  1  0  0  0  0  0  0  0  0  0
  187.0480  176.8340  145.8380 N   0  0  1  0  0  0  0  0  0  0  0  0
  196.5680  174.9140  142.6350 C   0  0  0  0  0  2  0  0  0  0  0  0
  195.9130  174.6770  141.3100 C   0  0  0  0  0  0  0  0  0  0  0  0
  194.9620  175.6860  140.7650 C   0  0  0  0  0  1  0  0  0  0  0  0
  196.1340  173.6520  140.6870 O   0  0  0  0  0  0  0  0  0  0  0  0
  2 27  1  0  0  0  0
  2 24  1  1  0  0  0
  3  4  2  0  0  0  0
  3 11  1  0  0  0  0
  4 21  1  0  0  0  0
  5  6  1  0  0  0  0
  5 25  1  1  0  0  0
  6 18  1  6  0  0  0
  7 19  1  6  0  0  0
  7 24  1  0  0  0  0
  8 12  1  0  0  0  0
  8 17  1  0  0  0  0
  9 26  1  1  0  0  0
  9 15  1  0  0  0  0
 11 13  2  0  0  0  0
 12 13  1  6  0  0  0
 12  2  1  0  0  0  0
 13 22  1  0  0  0  0
 14 23  1  1  0  0  0
 14 27  1  0  0  0  0
 15 18  1  0  0  0  0
 16  1  1  0  0  0  0
 16 19  1  1  0  0  0
 17 10  1  6  0  0  0
 17  7  1  0  0  0  0
 20 29  1  6  0  0  0
 20 10  1  0  0  0  0
 20 16  1  0  0  0  0
 20  1  1  0  0  0  0
 21 22  2  0  0  0  0
 22 14  1  0  0  0  0
 23 28  1  0  0  0  0
 27  5  1  0  0  0  0
 28  9  1  0  0  0  0
 28  6  1  0  0  0  0
 30 29  1  0  0  0  0
 31 30  1  0  0  0  0
 32 30  2  0  0  0  0
M  END
>  <MODEL>
7

>  <REMARK>
 VINA RESULT:      -7.6      2.416      7.796
  Name = 
  2 active torsions:
  status: ('A' for Active; 'I' for Inactive)
    1  A    between atoms: C_20  and  C_29
    2  A    between atoms: C_29  and  C_30
                            x       y       z     vdW  Elec       q    Type
                         _______ _______ _______ _____ _____    ______ ____

>  <TORSDO>
F 2

$$$$
=
 OpenBabel11112416443D

 32 38  0  0  1  0  0  0  0  0999 V2000
  185.9770  179.2790  144.7040 O   0  0  0  0  0  0  0  0  0  0  0  0
  189.7520  175.9000  143.5860 C   0  0  2  0  0  3  0  0  0  0  0  0
  188.4460  173.4540  139.4770 C   0  0  0  0  0  3  0  0  0  0  0  0
  189.2140  172.3740  139.9160 C   0  0  0  0  0  3  0  0  0  0  0  0
  191.7510  175.1100  144.7970 C   0  0  1  0  0  3  0  0  0  0  0  0
  193.0780  174.3560  144.6320 C   0  0  1  0  0  3  0  0  0  0  0  0
  188.5230  178.0600  144.0530 C   0  0  1  0  0  3  0  0  0  0  0  0
  187.8200  176.5490  142.2910 O   0  0  0  0  0  0  0  0  0  0  0  0
  194.1000  172.4390  143.8040 C   0  0  2  0  0  3  0  0  0  0  0  0
  186.6610  178.6580  142.4680 C   0  0  0  0  0  2  0  0  0  0  0  0
  188.4080  174.6330  140.2240 C   0  0  0  0  0  3  0  0  0  0  0  0
  189.1250  176.0300  142.1820 C   0  0  2  0  0  3  0  0  0  0  0  0
  189.1320  174.7370  141.4200 C   0  0  0  0  0  0  0  0  0  0  0  0
  190.6760  173.7720  143.1610 C   0  0  1  0  0  3  0  0  0  0  0  0
  194.4050  172.5230  145.2940 C   0  0  0  0  0  2  0  0  0  0  0  0
  186.0860  177.8960  144.9500 C   0  0  2  0  0  3  0  0  0  0  0  0
  187.9740  177.9070  142.6300 C   0  0  1  0  0  3  0  0  0  0  0  0
  193.4420  173.5420  145.8460 C   0  0  0  0  0  2  0  0  0  0  0  0
  187.5560  177.4700  145.0840 C   0  0  0  0  0  2  0  0  0  0  0  0
  185.6750  178.4270  143.6190 C   0  0  1  0  0  0  0  0  0  0  0  0
  189.9550  172.4790  141.0960 C   0  0  0  0  0  3  0  0  0  0  0  0
  189.9460  173.6700  141.8400 C   0  0  0  0  0  0  0  0  0  0  0  0
  191.8580  172.7910  143.2640 C   0  0  0  0  0  2  0  0  0  0  0  0
  189.8690  177.3330  144.1340 C   0  0  0  0  0  2  0  0  0  0  0  0
  192.0710  176.3850  145.2650 O   0  0  0  0  0  1  0  0  0  0  0  0
  195.3760  172.6330  143.0080 C   0  0  0  0  0  1  0  0  0  0  0  0
  191.0370  175.1670  143.5010 N   0  0  1  0  0  0  0  0  0  0  0  0
  193.1350  173.4790  143.4580 N   0  0  1  0  0  0  0  0  0  0  0  0
  184.1820  178.4170  143.3190 C   0  0  0  0  0  2  0  0  0  0  0  0
  183.8960  178.0920  141.8860 C   0  0  0  0  0  0  0  0  0  0  0  0
  182.5250  178.2970  141.3410 C   0  0  0  0  0  1  0  0  0  0  0  0
  184.7710  177.6340  141.1700 O   0  0  0  0  0  0  0  0  0  0  0  0
  1 16  1  0  0  0  0
  2 24  1  6  0  0  0
  3  4  2  0  0  0  0
  3 11  1  0  0  0  0
  4 21  1  0  0  0  0
  5 25  1  6  0  0  0
  6  5  1  0  0  0  0
  6 18  1  1  0  0  0
  7 24  1  6  0  0  0
  7 19  1  0  0  0  0
  8 17  1  0  0  0  0
  9 26  1  6  0  0  0
  9 15  1  0  0  0  0
 10 20  1  0  0  0  0
 11 13  2  0  0  0  0
 12 13  1  1  0  0  0
 12  8  1  0  0  0  0
 12  2  1  0  0  0  0
 13 22  1  0  0  0  0
 14 23  1  6  0  0  0
 14 27  1  0  0  0  0
 15 18  1  0  0  0  0
 16 19  1  6  0  0  0
 17 10  1  1  0  0  0
 17  7  1  0  0  0  0
 20 29  1  6  0  0  0
 20  1  1  0  0  0  0
 20 16  1  0  0  0  0
 21 22  2  0  0  0  0
 22 14  1  0  0  0  0
 23 28  1  0  0  0  0
 27  2  1  0  0  0  0
 27  5  1  0  0  0  0
 28  9  1  0  0  0  0
 28  6  1  0  0  0  0
 30 29  1  0  0  0  0
 31 30  1  0  0  0  0
 32 30  2  0  0  0  0
M  END
>  <MODEL>
8

>  <REMARK>
 VINA RESULT:      -7.4      2.097      2.701
  Name = 
  2 active torsions:
  status: ('A' for Active; 'I' for Inactive)
    1  A    between atoms: C_20  and  C_29
    2  A    between atoms: C_29  and  C_30
                            x       y       z     vdW  Elec       q    Type
                         _______ _______ _______ _____ _____    ______ ____

>  <TORSDO>
F 2

$$$$
=
 OpenBabel11112416443D

 32 38  0  0  1  0  0  0  0  0999 V2000
  193.8720  171.6770  141.6560 O   0  0  0  0  0  0  0  0  0  0  0  0
  190.5320  175.2130  143.4640 C   0  0  2  0  0  3  0  0  0  0  0  0
  192.2760  176.8890  147.7900 C   0  0  0  0  0  3  0  0  0  0  0  0
  190.9630  177.1660  148.1750 C   0  0  0  0  0  3  0  0  0  0  0  0
  188.2630  175.9160  142.7990 C   0  0  1  0  0  3  0  0  0  0  0  0
  187.2070  177.0150  142.9810 C   0  0  1  0  0  3  0  0  0  0  0  0
  192.1820  174.0080  141.9720 C   0  0  1  0  0  3  0  0  0  0  0  0
  192.7340  174.6130  144.2550 O   0  0  0  0  0  0  0  0  0  0  0  0
  186.0300  178.3030  144.5170 C   0  0  2  0  0  3  0  0  0  0  0  0
  194.4900  173.6510  142.9090 C   0  0  0  0  0  2  0  0  0  0  0  0
  192.5390  176.3860  146.5140 C   0  0  0  0  0  3  0  0  0  0  0  0
  191.7940  175.6630  144.2300 C   0  0  2  0  0  3  0  0  0  0  0  0
  191.4900  176.1490  145.6160 C   0  0  0  0  0  0  0  0  0  0  0  0
  189.0410  176.1600  145.0260 C   0  0  1  0  0  3  0  0  0  0  0  0
  185.0160  177.5570  143.6610 C   0  0  0  0  0  2  0  0  0  0  0  0
  192.8500  171.5780  142.6210 C   0  0  2  0  0  3  0  0  0  0  0  0
  193.2460  174.5250  142.9470 C   0  0  1  0  0  3  0  0  0  0  0  0
  185.7990  176.4820  142.9530 C   0  0  0  0  0  2  0  0  0  0  0  0
  191.7290  172.5940  142.3490 C   0  0  0  0  0  2  0  0  0  0  0  0
  194.1880  172.1490  142.9480 C   0  0  1  0  0  0  0  0  0  0  0  0
  189.9140  176.9530  147.2760 C   0  0  0  0  0  3  0  0  0  0  0  0
  190.1700  176.4740  145.9810 C   0  0  0  0  0  0  0  0  0  0  0  0
  187.7660  176.9710  145.3250 C   0  0  0  0  0  2  0  0  0  0  0  0
  190.9830  174.9600  142.0140 C   0  0  0  0  0  2  0  0  0  0  0  0
  188.5600  175.8680  141.4360 O   0  0  0  0  0  1  0  0  0  0  0  0
  185.9410  179.7910  144.2380 C   0  0  0  0  0  1  0  0  0  0  0  0
  189.4630  176.2280  143.6080 N   0  0  1  0  0  0  0  0  0  0  0  0
  187.3700  177.8160  144.1990 N   0  0  1  0  0  0  0  0  0  0  0  0
  195.1640  171.2190  143.6560 C   0  0  0  0  0  2  0  0  0  0  0  0
  195.3110  171.5540  145.1080 C   0  0  0  0  0  0  0  0  0  0  0  0
  196.6710  171.7020  145.6980 C   0  0  0  0  0  1  0  0  0  0  0  0
  194.3250  171.6810  145.8160 O   0  0  0  0  0  0  0  0  0  0  0  0
  1 16  1  0  0  0  0
  1 20  1  0  0  0  0
  2 24  1  6  0  0  0
  2 27  1  0  0  0  0
  2 12  1  0  0  0  0
  3  4  1  0  0  0  0
  5 25  1  6  0  0  0
  5  6  1  0  0  0  0
  5 27  1  0  0  0  0
  6 18  1  1  0  0  0
  6 28  1  0  0  0  0
  7 24  1  1  0  0  0
  7 19  1  0  0  0  0
  7 17  1  0  0  0  0
  9 26  1  6  0  0  0
 10 20  1  0  0  0  0
 11  3  2  0  0  0  0
 12  8  1  1  0  0  0
 12 13  1  0  0  0  0
 13 22  2  0  0  0  0
 13 11  1  0  0  0  0
 14 23  1  6  0  0  0
 14 22  1  0  0  0  0
 15  9  1  0  0  0  0
 16 19  1  6  0  0  0
 16 20  1  0  0  0  0
 17 10  1  1  0  0  0
 17  8  1  0  0  0  0
 18 15  1  0  0  0  0
 20 29  1  1  0  0  0
 21  4  2  0  0  0  0
 22 21  1  0  0  0  0
 27 14  1  0  0  0  0
 28  9  1  0  0  0  0
 28 23  1  0  0  0  0
 29 30  1  0  0  0  0
 30 31  1  0  0  0  0
 30 32  2  0  0  0  0
M  END
>  <MODEL>
9

>  <REMARK>
 VINA RESULT:      -7.3      2.756      8.417
  Name = 
  2 active torsions:
  status: ('A' for Active; 'I' for Inactive)
    1  A    between atoms: C_20  and  C_29
    2  A    between atoms: C_29  and  C_30
                            x       y       z     vdW  Elec       q    Type
                         _______ _______ _______ _____ _____    ______ ____

>  <TORSDO>
F 2

$$$$
