=
 OpenBabel11112416463D

 31 35  0  0  1  0  0  0  0  0999 V2000
  184.9180  178.3060  146.5710 C   0  0  0  0  0  0  0  0  0  0  0  0
  187.3370  175.9490  144.9590 C   0  0  2  0  0  3  0  0  0  0  0  0
  187.3640  176.4060  143.5160 C   0  0  0  0  0  0  0  0  0  0  0  0
  186.2640  177.4240  141.6760 C   0  0  0  0  0  0  0  0  0  0  0  0
  186.7760  177.0040  145.8840 C   0  0  0  0  0  0  0  0  0  0  0  0
  185.6920  178.9660  147.4710 N   0  0  0  0  0  0  0  0  0  0  0  0
  186.2950  177.0600  142.9840 N   0  0  0  0  0  0  0  0  0  0  0  0
  189.6350  176.5490  145.8850 C   0  0  2  0  0  3  0  0  0  0  0  0
  183.5400  178.6320  146.4440 N   0  0  0  0  0  1  0  0  0  0  0  0
  189.6430  175.3590  143.2100 C   0  0  0  0  0  2  0  0  0  0  0  0
  185.0890  178.1480  141.1290 C   0  0  0  0  0  1  0  0  0  0  0  0
  189.0150  177.2880  147.0660 C   0  0  0  0  0  2  0  0  0  0  0  0
  188.7040  175.4120  145.4340 C   0  0  2  0  0  3  0  0  0  0  0  0
  185.4600  177.3360  145.7900 N   0  0  0  0  0  0  0  0  0  0  0  0
  187.3420  177.1080  140.8500 C   0  0  0  0  0  3  0  0  0  0  0  0
  187.5910  177.6840  146.8110 C   0  0  0  0  0  0  0  0  0  0  0  0
  187.0090  178.6660  147.6100 C   0  0  0  0  0  3  0  0  0  0  0  0
  189.3180  174.5670  144.4000 N   0  0  0  0  0  2  0  0  0  0  0  0
  188.4340  176.0590  142.6710 C   0  0  0  0  0  0  0  0  0  0  0  0
  188.4040  176.4350  141.3660 N   0  0  0  0  0  0  0  0  0  0  0  0
  192.1320  177.2640  144.7130 O   0  0  0  0  0  0  0  0  0  0  0  0
  192.1480  176.4160  145.6470 C   0  0  0  0  0  0  0  0  0  0  0  0
  190.9300  176.0110  146.2740 N   0  0  0  0  0  2  0  0  0  0  0  0
  195.0750  176.2200  143.8210 C   0  0  0  0  0  0  0  0  0  0  0  0
  194.5740  176.8180  146.2250 C   0  0  0  0  0  2  0  0  0  0  0  0
  192.8780  173.6080  145.2660 C   0  0  0  0  0  1  0  0  0  0  0  0
  195.7330  176.4420  142.7730 O   0  0  0  0  0  0  0  0  0  0  0  0
  195.1530  177.1320  144.9190 N   0  0  0  0  0  2  0  0  0  0  0  0
  193.8920  174.6530  145.2660 N   0  0  0  0  0  0  0  0  0  0  0  0
  193.4460  175.7900  146.0960 C   0  0  2  0  0  3  0  0  0  0  0  0
  194.1310  175.0580  143.8780 C   0  0  0  0  0  2  0  0  0  0  0  0
  1  6  2  0  0  0  0
  2  3  1  6  0  0  0
  2 13  1  0  0  0  0
  2  5  1  0  0  0  0
  4  7  2  0  0  0  0
  5 16  1  0  0  0  0
  6 17  1  0  0  0  0
  7  3  1  0  0  0  0
  8 23  1  1  0  0  0
  8 12  1  0  0  0  0
  9  1  1  0  0  0  0
 10 18  1  0  0  0  0
 11  4  1  0  0  0  0
 13 18  1  6  0  0  0
 13  8  1  0  0  0  0
 14  5  2  0  0  0  0
 14  1  1  0  0  0  0
 15 20  2  0  0  0  0
 15  4  1  0  0  0  0
 16 12  1  0  0  0  0
 16 17  2  0  0  0  0
 19 10  1  0  0  0  0
 19  3  2  0  0  0  0
 20 19  1  0  0  0  0
 21 22  2  0  0  0  0
 22 23  1  0  0  0  0
 24 31  1  0  0  0  0
 24 28  1  0  0  0  0
 26 29  1  0  0  0  0
 27 24  2  0  0  0  0
 28 25  1  0  0  0  0
 29 30  1  0  0  0  0
 30 22  1  6  0  0  0
 30 25  1  0  0  0  0
 31 29  1  0  0  0  0
M  END
>  <MODEL>
1

>  <REMARK>
 VINA RESULT:      -7.8      0.000      0.000
  Name = 
  2 active torsions:
  status: ('A' for Active; 'I' for Inactive)
    1  A    between atoms: C_5  and  C_30
    2  A    between atoms: C_10  and  N_16
                            x       y       z     vdW  Elec       q    Type
                         _______ _______ _______ _____ _____    ______ ____

>  <TORSDO>
F 2

$$$$
=
 OpenBabel11112416463D

 31 35  0  0  1  0  0  0  0  0999 V2000
  186.3560  177.8780  141.1040 C   0  0  0  0  0  0  0  0  0  0  0  0
  188.6050  177.8550  144.0950 C   0  0  2  0  0  3  0  0  0  0  0  0
  187.6480  177.6680  145.2520 C   0  0  0  0  0  0  0  0  0  0  0  0
  185.4840  177.9660  146.1810 C   0  0  0  0  0  0  0  0  0  0  0  0
  187.9880  177.4630  142.7720 C   0  0  0  0  0  0  0  0  0  0  0  0
  186.7570  176.7790  140.4140 N   0  0  0  0  0  0  0  0  0  0  0  0
  186.3490  178.0610  145.1390 N   0  0  0  0  0  0  0  0  0  0  0  0
  189.9250  175.6790  143.9720 C   0  0  2  0  0  3  0  0  0  0  0  0
  185.2910  178.6790  140.6070 N   0  0  0  0  0  1  0  0  0  0  0  0
  189.5190  176.7370  146.6720 C   0  0  0  0  0  2  0  0  0  0  0  0
  184.0700  178.3910  146.0200 C   0  0  0  0  0  1  0  0  0  0  0  0
  189.6080  175.5180  142.4890 C   0  0  0  0  0  2  0  0  0  0  0  0
  189.9670  177.1700  144.3390 C   0  0  2  0  0  3  0  0  0  0  0  0
  186.9700  178.2120  142.2690 N   0  0  0  0  0  0  0  0  0  0  0  0
  185.9350  177.4710  147.4040 C   0  0  0  0  0  3  0  0  0  0  0  0
  188.4120  176.3180  142.0690 C   0  0  0  0  0  0  0  0  0  0  0  0
  187.7750  176.0040  140.8700 C   0  0  0  0  0  3  0  0  0  0  0  0
  190.4200  177.3920  145.7190 N   0  0  0  0  0  2  0  0  0  0  0  0
  188.1060  177.2010  146.4980 C   0  0  0  0  0  0  0  0  0  0  0  0
  187.2350  177.0980  147.5350 N   0  0  0  0  0  0  0  0  0  0  0  0
  190.2780  173.0420  144.9950 O   0  0  0  0  0  0  0  0  0  0  0  0
  191.3160  173.7250  144.7740 C   0  0  0  0  0  0  0  0  0  0  0  0
  191.2080  175.0550  144.2650 N   0  0  0  0  0  2  0  0  0  0  0  0
  194.1660  174.1370  142.8640 C   0  0  0  0  0  0  0  0  0  0  0  0
  193.7150  174.2650  145.3480 C   0  0  0  0  0  2  0  0  0  0  0  0
  192.2910  171.1100  143.8930 C   0  0  0  0  0  1  0  0  0  0  0  0
  194.7540  174.5990  141.8530 O   0  0  0  0  0  0  0  0  0  0  0  0
  194.2050  174.8520  144.1010 N   0  0  0  0  0  2  0  0  0  0  0  0
  193.2000  172.2360  144.0480 N   0  0  0  0  0  0  0  0  0  0  0  0
  192.6840  173.1650  145.0730 C   0  0  2  0  0  3  0  0  0  0  0  0
  193.3400  172.8920  142.7450 C   0  0  0  0  0  2  0  0  0  0  0  0
  1 14  1  0  0  0  0
  2  5  1  6  0  0  0
  2 13  1  0  0  0  0
  2  3  1  0  0  0  0
  3 19  1  0  0  0  0
  4 15  2  0  0  0  0
  6 17  1  0  0  0  0
  6  1  2  0  0  0  0
  7  3  2  0  0  0  0
  7  4  1  0  0  0  0
  8 23  1  6  0  0  0
  8 13  1  0  0  0  0
  9  1  1  0  0  0  0
 11  4  1  0  0  0  0
 12  8  1  0  0  0  0
 13 18  1  1  0  0  0
 14  5  2  0  0  0  0
 15 20  1  0  0  0  0
 16 12  1  0  0  0  0
 16  5  1  0  0  0  0
 17 16  2  0  0  0  0
 18 10  1  0  0  0  0
 19 10  1  0  0  0  0
 19 20  2  0  0  0  0
 22 21  2  0  0  0  0
 23 22  1  0  0  0  0
 24 28  1  0  0  0  0
 26 29  1  0  0  0  0
 27 24  2  0  0  0  0
 28 25  1  0  0  0  0
 29 30  1  0  0  0  0
 30 22  1  6  0  0  0
 30 25  1  0  0  0  0
 31 24  1  0  0  0  0
 31 29  1  0  0  0  0
M  END
>  <MODEL>
2

>  <REMARK>
 VINA RESULT:      -7.7      1.894      4.195
  Name = 
  2 active torsions:
  status: ('A' for Active; 'I' for Inactive)
    1  A    between atoms: C_5  and  C_30
    2  A    between atoms: C_10  and  N_16
                            x       y       z     vdW  Elec       q    Type
                         _______ _______ _______ _____ _____    ______ ____

>  <TORSDO>
F 2

$$$$
=
 OpenBabel11112416463D

 31 35  0  0  1  0  0  0  0  0999 V2000
  186.6660  177.5700  141.0220 C   0  0  0  0  0  0  0  0  0  0  0  0
  188.5710  177.8280  144.2330 C   0  0  2  0  0  3  0  0  0  0  0  0
  187.4870  177.7960  145.2890 C   0  0  0  0  0  0  0  0  0  0  0  0
  185.2470  178.2500  145.9290 C   0  0  0  0  0  0  0  0  0  0  0  0
  188.0890  177.3060  142.9000 C   0  0  0  0  0  0  0  0  0  0  0  0
  187.1000  176.3910  140.5070 N   0  0  0  0  0  0  0  0  0  0  0  0
  186.2240  178.2060  144.9870 N   0  0  0  0  0  0  0  0  0  0  0  0
  189.8160  175.6210  144.4980 C   0  0  2  0  0  3  0  0  0  0  0  0
  185.6920  178.3360  140.3250 N   0  0  0  0  0  1  0  0  0  0  0  0
  189.1560  176.9850  147.0030 C   0  0  0  0  0  2  0  0  0  0  0  0
  183.8760  178.6880  145.5640 C   0  0  0  0  0  1  0  0  0  0  0  0
  189.6580  175.3020  143.0150 C   0  0  0  0  0  2  0  0  0  0  0  0
  189.8720  177.1420  144.7030 C   0  0  2  0  0  3  0  0  0  0  0  0
  187.1610  178.0180  142.2060 N   0  0  0  0  0  0  0  0  0  0  0  0
  185.5420  177.8840  147.2420 C   0  0  0  0  0  3  0  0  0  0  0  0
  188.5450  176.0790  142.3780 C   0  0  0  0  0  0  0  0  0  0  0  0
  188.0320  175.6480  141.1560 C   0  0  0  0  0  3  0  0  0  0  0  0
  190.1790  177.5070  146.0930 N   0  0  0  0  0  2  0  0  0  0  0  0
  187.7890  177.4620  146.6220 C   0  0  0  0  0  0  0  0  0  0  0  0
  186.8060  177.4970  147.5580 N   0  0  0  0  0  0  0  0  0  0  0  0
  192.4640  176.3660  143.7560 O   0  0  0  0  0  0  0  0  0  0  0  0
  192.3360  175.4280  144.5900 C   0  0  0  0  0  0  0  0  0  0  0  0
  191.0350  175.0030  145.0010 N   0  0  0  0  0  2  0  0  0  0  0  0
  195.6420  176.1640  143.9050 C   0  0  0  0  0  0  0  0  0  0  0  0
  194.3970  175.6240  146.0370 C   0  0  0  0  0  2  0  0  0  0  0  0
  193.6230  173.1030  143.3640 C   0  0  0  0  0  1  0  0  0  0  0  0
  196.5150  176.8490  143.3150 O   0  0  0  0  0  0  0  0  0  0  0  0
  195.2510  176.5010  145.2380 N   0  0  0  0  0  2  0  0  0  0  0  0
  194.3970  174.0780  144.1180 N   0  0  0  0  0  0  0  0  0  0  0  0
  193.5460  174.7160  145.1420 C   0  0  2  0  0  3  0  0  0  0  0  0
  194.9370  175.0610  143.1750 C   0  0  0  0  0  2  0  0  0  0  0  0
  1 14  1  0  0  0  0
  2  5  1  6  0  0  0
  2 13  1  0  0  0  0
  2  3  1  0  0  0  0
  3 19  1  0  0  0  0
  4 15  2  0  0  0  0
  6  1  2  0  0  0  0
  6 17  1  0  0  0  0
  7  3  2  0  0  0  0
  7  4  1  0  0  0  0
  8 13  1  0  0  0  0
  8 23  1  6  0  0  0
  9  1  1  0  0  0  0
 11  4  1  0  0  0  0
 12  8  1  0  0  0  0
 13 18  1  1  0  0  0
 14  5  2  0  0  0  0
 15 20  1  0  0  0  0
 16  5  1  0  0  0  0
 16 12  1  0  0  0  0
 17 16  2  0  0  0  0
 18 10  1  0  0  0  0
 19 10  1  0  0  0  0
 19 20  2  0  0  0  0
 21 22  2  0  0  0  0
 22 23  1  0  0  0  0
 24 28  1  0  0  0  0
 26 29  1  0  0  0  0
 27 24  2  0  0  0  0
 28 25  1  0  0  0  0
 29 30  1  0  0  0  0
 30 22  1  6  0  0  0
 30 25  1  0  0  0  0
 31 24  1  0  0  0  0
 31 29  1  0  0  0  0
M  END
>  <MODEL>
3

>  <REMARK>
 VINA RESULT:      -7.7      1.376      3.915
  Name = 
  2 active torsions:
  status: ('A' for Active; 'I' for Inactive)
    1  A    between atoms: C_5  and  C_30
    2  A    between atoms: C_10  and  N_16
                            x       y       z     vdW  Elec       q    Type
                         _______ _______ _______ _____ _____    ______ ____

>  <TORSDO>
F 2

$$$$
=
 OpenBabel11112416463D

 31 35  0  0  1  0  0  0  0  0999 V2000
  185.1040  177.8400  146.6800 C   0  0  0  0  0  0  0  0  0  0  0  0
  187.2780  175.9360  144.3030 C   0  0  2  0  0  3  0  0  0  0  0  0
  186.9520  176.5510  142.9580 C   0  0  0  0  0  0  0  0  0  0  0  0
  185.4000  177.6510  141.5390 C   0  0  0  0  0  0  0  0  0  0  0  0
  186.8570  176.8190  145.4540 C   0  0  0  0  0  0  0  0  0  0  0  0
  186.0060  178.4710  147.4760 N   0  0  0  0  0  0  0  0  0  0  0  0
  185.7460  177.1490  142.7520 N   0  0  0  0  0  0  0  0  0  0  0  0
  189.6720  176.6580  144.7960 C   0  0  2  0  0  3  0  0  0  0  0  0
  183.7120  178.0370  146.8890 N   0  0  0  0  0  1  0  0  0  0  0  0
  189.1790  175.7810  142.0460 C   0  0  0  0  0  2  0  0  0  0  0  0
  184.0820  178.3100  141.3510 C   0  0  0  0  0  1  0  0  0  0  0  0
  189.2740  177.1940  146.1670 C   0  0  0  0  0  2  0  0  0  0  0  0
  188.7530  175.4900  144.4050 C   0  0  2  0  0  3  0  0  0  0  0  0
  185.5320  177.0230  145.6820 N   0  0  0  0  0  0  0  0  0  0  0  0
  186.2890  177.5410  140.4720 C   0  0  0  0  0  3  0  0  0  0  0  0
  187.8040  177.4690  146.2710 C   0  0  0  0  0  0  0  0  0  0  0  0
  187.3400  178.2920  147.2950 C   0  0  0  0  0  3  0  0  0  0  0  0
  189.1840  174.8330  143.1640 N   0  0  0  0  0  2  0  0  0  0  0  0
  187.8320  176.4110  141.8690 C   0  0  0  0  0  0  0  0  0  0  0  0
  187.4860  176.9250  140.6600 N   0  0  0  0  0  0  0  0  0  0  0  0
  191.8730  178.0470  143.6360 O   0  0  0  0  0  0  0  0  0  0  0  0
  192.1170  176.9620  144.2320 C   0  0  0  0  0  0  0  0  0  0  0  0
  191.0580  176.2140  144.8300 N   0  0  0  0  0  2  0  0  0  0  0  0
  193.0220  173.6730  144.7880 C   0  0  0  0  0  0  0  0  0  0  0  0
  193.8150  175.4320  143.1550 C   0  0  0  0  0  2  0  0  0  0  0  0
  193.7490  176.7910  146.6550 C   0  0  0  0  0  1  0  0  0  0  0  0
  192.7200  172.4730  145.0120 O   0  0  0  0  0  0  0  0  0  0  0  0
  193.2660  174.1090  143.4480 N   0  0  0  0  0  2  0  0  0  0  0  0
  193.8840  175.8080  145.5890 N   0  0  0  0  0  0  0  0  0  0  0  0
  193.5230  176.4160  144.2930 C   0  0  2  0  0  3  0  0  0  0  0  0
  193.0240  174.6660  145.9100 C   0  0  0  0  0  2  0  0  0  0  0  0
  1  9  1  0  0  0  0
  1  6  2  0  0  0  0
  2  3  1  6  0  0  0
  2 13  1  0  0  0  0
  2  5  1  0  0  0  0
  4  7  2  0  0  0  0
  5 14  2  0  0  0  0
  5 16  1  0  0  0  0
  7  3  1  0  0  0  0
  8 23  1  1  0  0  0
  8 12  1  0  0  0  0
 10 18  1  0  0  0  0
 11  4  1  0  0  0  0
 12 16  1  0  0  0  0
 13 18  1  6  0  0  0
 13  8  1  0  0  0  0
 14  1  1  0  0  0  0
 15 20  2  0  0  0  0
 15  4  1  0  0  0  0
 16 17  2  0  0  0  0
 17  6  1  0  0  0  0
 19 10  1  0  0  0  0
 19  3  2  0  0  0  0
 20 19  1  0  0  0  0
 21 22  2  0  0  0  0
 22 23  1  0  0  0  0
 24 27  2  0  0  0  0
 24 31  1  0  0  0  0
 25 28  1  0  0  0  0
 25 30  1  0  0  0  0
 28 24  1  0  0  0  0
 29 31  1  0  0  0  0
 29 26  1  0  0  0  0
 30 22  1  1  0  0  0
 30 29  1  0  0  0  0
M  END
>  <MODEL>
4

>  <REMARK>
 VINA RESULT:      -7.4      1.340      1.918
  Name = 
  2 active torsions:
  status: ('A' for Active; 'I' for Inactive)
    1  A    between atoms: C_5  and  C_30
    2  A    between atoms: C_10  and  N_16
                            x       y       z     vdW  Elec       q    Type
                         _______ _______ _______ _____ _____    ______ ____

>  <TORSDO>
F 2

$$$$
=
 OpenBabel11112416463D

 31 35  0  0  1  0  0  0  0  0999 V2000
  187.2350  176.4660  140.0900 C   0  0  0  0  0  0  0  0  0  0  0  0
  188.5430  177.5480  143.4250 C   0  0  2  0  0  3  0  0  0  0  0  0
  187.2860  177.7710  144.2390 C   0  0  0  0  0  0  0  0  0  0  0  0
  184.9850  178.3470  144.3260 C   0  0  0  0  0  0  0  0  0  0  0  0
  188.2890  176.7000  142.2000 C   0  0  0  0  0  0  0  0  0  0  0  0
  187.7120  175.1990  139.9740 N   0  0  0  0  0  0  0  0  0  0  0  0
  186.1130  178.0770  143.6200 N   0  0  0  0  0  0  0  0  0  0  0  0
  189.6410  175.4930  144.4570 C   0  0  2  0  0  3  0  0  0  0  0  0
  186.4300  177.0190  139.0570 N   0  0  0  0  0  1  0  0  0  0  0  0
  188.5910  177.4390  146.3770 C   0  0  0  0  0  2  0  0  0  0  0  0
  183.7180  178.6630  143.6190 C   0  0  0  0  0  1  0  0  0  0  0  0
  189.7400  174.8090  143.0980 C   0  0  0  0  0  2  0  0  0  0  0  0
  189.7130  177.0180  144.2800 C   0  0  2  0  0  3  0  0  0  0  0  0
  187.5250  177.2040  141.1930 N   0  0  0  0  0  0  0  0  0  0  0  0
  185.0270  178.3280  145.7200 C   0  0  0  0  0  3  0  0  0  0  0  0
  188.7880  175.3860  142.0950 C   0  0  0  0  0  0  0  0  0  0  0  0
  188.4870  174.6550  140.9470 C   0  0  0  0  0  3  0  0  0  0  0  0
  189.7790  177.7250  145.5670 N   0  0  0  0  0  2  0  0  0  0  0  0
  187.3320  177.7880  145.6450 C   0  0  0  0  0  0  0  0  0  0  0  0
  186.1990  178.0470  146.3480 N   0  0  0  0  0  0  0  0  0  0  0  0
  192.4110  175.9820  143.9990 O   0  0  0  0  0  0  0  0  0  0  0  0
  192.0980  175.3200  145.0260 C   0  0  0  0  0  0  0  0  0  0  0  0
  190.7280  175.0370  145.3110 N   0  0  0  0  0  2  0  0  0  0  0  0
  195.5170  175.5510  144.5750 C   0  0  0  0  0  0  0  0  0  0  0  0
  194.0090  175.9050  146.5720 C   0  0  0  0  0  2  0  0  0  0  0  0
  193.2520  172.6340  144.8920 C   0  0  0  0  0  1  0  0  0  0  0  0
  196.5140  175.9170  143.9020 O   0  0  0  0  0  0  0  0  0  0  0  0
  195.0290  176.3760  145.6350 N   0  0  0  0  0  2  0  0  0  0  0  0
  194.0430  173.7680  145.3470 N   0  0  0  0  0  0  0  0  0  0  0  0
  193.1640  174.7870  145.9530 C   0  0  2  0  0  3  0  0  0  0  0  0
  194.7780  174.3020  144.1970 C   0  0  0  0  0  2  0  0  0  0  0  0
  1 14  1  0  0  0  0
  2  5  1  6  0  0  0
  2  3  1  0  0  0  0
  2 13  1  0  0  0  0
  3 19  1  0  0  0  0
  4 15  2  0  0  0  0
  6  1  2  0  0  0  0
  6 17  1  0  0  0  0
  7  3  2  0  0  0  0
  7  4  1  0  0  0  0
  8 23  1  1  0  0  0
  9  1  1  0  0  0  0
 11  4  1  0  0  0  0
 12  8  1  0  0  0  0
 13  8  1  0  0  0  0
 13 18  1  1  0  0  0
 14  5  2  0  0  0  0
 15 20  1  0  0  0  0
 16  5  1  0  0  0  0
 16 12  1  0  0  0  0
 17 16  2  0  0  0  0
 18 10  1  0  0  0  0
 19 20  2  0  0  0  0
 19 10  1  0  0  0  0
 21 22  2  0  0  0  0
 22 23  1  0  0  0  0
 24 28  1  0  0  0  0
 26 29  1  0  0  0  0
 27 24  2  0  0  0  0
 28 25  1  0  0  0  0
 29 30  1  0  0  0  0
 30 22  1  6  0  0  0
 30 25  1  0  0  0  0
 31 24  1  0  0  0  0
 31 29  1  0  0  0  0
M  END
>  <MODEL>
5

>  <REMARK>
 VINA RESULT:      -7.1      1.509      4.020
  Name = 
  2 active torsions:
  status: ('A' for Active; 'I' for Inactive)
    1  A    between atoms: C_5  and  C_30
    2  A    between atoms: C_10  and  N_16
                            x       y       z     vdW  Elec       q    Type
                         _______ _______ _______ _____ _____    ______ ____

>  <TORSDO>
F 2

$$$$
=
 OpenBabel11112416463D

 31 35  0  0  1  0  0  0  0  0999 V2000
  194.2360  176.2800  144.5240 C   0  0  0  0  0  0  0  0  0  0  0  0
  190.7910  176.8110  143.1610 C   0  0  2  0  0  3  0  0  0  0  0  0
  190.5140  175.5330  142.3990 C   0  0  0  0  0  0  0  0  0  0  0  0
  191.3260  173.6770  141.1620 C   0  0  0  0  0  0  0  0  0  0  0  0
  191.9260  176.6560  144.1470 C   0  0  0  0  0  0  0  0  0  0  0  0
  194.0350  176.2860  145.8670 N   0  0  0  0  0  0  0  0  0  0  0  0
  191.5440  174.7920  141.9050 N   0  0  0  0  0  0  0  0  0  0  0  0
  189.2170  176.7380  145.1640 C   0  0  2  0  0  3  0  0  0  0  0  0
  195.5430  176.0770  144.0020 N   0  0  0  0  0  1  0  0  0  0  0  0
  188.0280  175.9220  142.6170 C   0  0  0  0  0  2  0  0  0  0  0  0
  192.4720  172.8830  140.6500 C   0  0  0  0  0  1  0  0  0  0  0  0
  190.3670  176.9940  146.1330 C   0  0  0  0  0  2  0  0  0  0  0  0
  189.5200  177.3980  143.8100 C   0  0  2  0  0  3  0  0  0  0  0  0
  193.1890  176.4650  143.6780 N   0  0  0  0  0  0  0  0  0  0  0  0
  190.0180  173.2860  140.8800 C   0  0  0  0  0  3  0  0  0  0  0  0
  191.7020  176.6610  145.5380 C   0  0  0  0  0  0  0  0  0  0  0  0
  192.7940  176.4820  146.3850 C   0  0  0  0  0  3  0  0  0  0  0  0
  188.3800  177.3180  142.8850 N   0  0  0  0  0  2  0  0  0  0  0  0
  189.1970  175.1540  142.0820 C   0  0  0  0  0  0  0  0  0  0  0  0
  188.9820  174.0310  141.3470 N   0  0  0  0  0  0  0  0  0  0  0  0
  187.7830  175.6350  147.3650 O   0  0  0  0  0  0  0  0  0  0  0  0
  187.3160  176.6770  146.8300 C   0  0  0  0  0  0  0  0  0  0  0  0
  187.9850  177.2780  145.7190 N   0  0  0  0  0  2  0  0  0  0  0  0
  185.3390  178.9560  145.1450 C   0  0  0  0  0  0  0  0  0  0  0  0
  184.8220  176.8730  146.4800 C   0  0  0  0  0  2  0  0  0  0  0  0
  187.1210  179.1460  148.3900 C   0  0  0  0  0  1  0  0  0  0  0  0
  185.1030  179.6750  144.1410 O   0  0  0  0  0  0  0  0  0  0  0  0
  184.7460  177.6600  145.2500 N   0  0  0  0  0  2  0  0  0  0  0  0
  186.0660  178.7580  147.4640 N   0  0  0  0  0  0  0  0  0  0  0  0
  186.0290  177.2880  147.3270 C   0  0  2  0  0  3  0  0  0  0  0  0
  186.3220  179.4150  146.1790 C   0  0  0  0  0  2  0  0  0  0  0  0
  1  6  2  0  0  0  0
  2  3  1  1  0  0  0
  2 13  1  0  0  0  0
  2  5  1  0  0  0  0
  4  7  1  0  0  0  0
  5 16  1  0  0  0  0
  6 17  1  0  0  0  0
  7  3  2  0  0  0  0
  8 23  1  1  0  0  0
  8 12  1  0  0  0  0
  9  1  1  0  0  0  0
 10 18  1  0  0  0  0
 11  4  1  0  0  0  0
 13 18  1  6  0  0  0
 13  8  1  0  0  0  0
 14  5  2  0  0  0  0
 14  1  1  0  0  0  0
 15  4  2  0  0  0  0
 15 20  1  0  0  0  0
 16 12  1  0  0  0  0
 16 17  2  0  0  0  0
 19  3  1  0  0  0  0
 19 10  1  0  0  0  0
 20 19  2  0  0  0  0
 22 21  2  0  0  0  0
 23 22  1  0  0  0  0
 24 28  1  0  0  0  0
 24 31  1  0  0  0  0
 25 30  1  0  0  0  0
 27 24  2  0  0  0  0
 28 25  1  0  0  0  0
 29 26  1  0  0  0  0
 30 22  1  6  0  0  0
 30 29  1  0  0  0  0
 31 29  1  0  0  0  0
M  END
>  <MODEL>
6

>  <REMARK>
 VINA RESULT:      -7.0      2.621      7.005
  Name = 
  2 active torsions:
  status: ('A' for Active; 'I' for Inactive)
    1  A    between atoms: C_5  and  C_30
    2  A    between atoms: C_10  and  N_16
                            x       y       z     vdW  Elec       q    Type
                         _______ _______ _______ _____ _____    ______ ____

>  <TORSDO>
F 2

$$$$
=
 OpenBabel11112416463D

 31 35  0  0  1  0  0  0  0  0999 V2000
  187.4350  177.5380  147.1440 C   0  0  0  0  0  0  0  0  0  0  0  0
  188.4540  175.2960  144.3270 C   0  0  2  0  0  3  0  0  0  0  0  0
  187.8870  175.9870  143.1050 C   0  0  0  0  0  0  0  0  0  0  0  0
  186.2370  177.3910  142.1350 C   0  0  0  0  0  0  0  0  0  0  0  0
  188.5480  176.2220  145.5170 C   0  0  0  0  0  0  0  0  0  0  0  0
  188.6260  177.9690  147.6350 N   0  0  0  0  0  0  0  0  0  0  0  0
  186.8070  176.8090  143.2210 N   0  0  0  0  0  0  0  0  0  0  0  0
  190.9810  175.5360  144.1070 C   0  0  2  0  0  3  0  0  0  0  0  0
  186.2200  177.9950  147.7250 N   0  0  0  0  0  1  0  0  0  0  0  0
  189.5810  174.8210  141.6380 C   0  0  0  0  0  2  0  0  0  0  0  0
  185.0690  178.2930  142.2970 C   0  0  0  0  0  1  0  0  0  0  0  0
  191.0930  176.1130  145.5150 C   0  0  0  0  0  2  0  0  0  0  0  0
  189.7860  174.5740  144.0310 C   0  0  2  0  0  3  0  0  0  0  0  0
  187.4030  176.6730  146.0970 N   0  0  0  0  0  0  0  0  0  0  0  0
  186.7540  177.1310  140.8670 C   0  0  0  0  0  3  0  0  0  0  0  0
  189.7910  176.6630  146.0140 C   0  0  0  0  0  0  0  0  0  0  0  0
  189.7970  177.5400  147.0960 C   0  0  0  0  0  3  0  0  0  0  0  0
  189.7200  173.8690  142.7430 N   0  0  0  0  0  2  0  0  0  0  0  0
  188.3830  175.7010  141.8200 C   0  0  0  0  0  0  0  0  0  0  0  0
  187.8160  176.2940  140.7370 N   0  0  0  0  0  0  0  0  0  0  0  0
  192.8490  176.3510  142.1160 O   0  0  0  0  0  0  0  0  0  0  0  0
  193.1090  175.2990  142.7620 C   0  0  0  0  0  0  0  0  0  0  0  0
  192.2110  174.8330  143.7710 N   0  0  0  0  0  2  0  0  0  0  0  0
  195.6240  174.4900  144.9900 C   0  0  0  0  0  0  0  0  0  0  0  0
  194.3850  173.1700  143.2270 C   0  0  0  0  0  2  0  0  0  0  0  0
  195.6460  176.4160  141.8220 C   0  0  0  0  0  1  0  0  0  0  0  0
  196.1310  174.5370  146.1390 O   0  0  0  0  0  0  0  0  0  0  0  0
  194.8240  173.3690  144.6070 N   0  0  0  0  0  2  0  0  0  0  0  0
  195.6150  175.2300  142.6660 N   0  0  0  0  0  0  0  0  0  0  0  0
  194.3500  174.4960  142.4610 C   0  0  2  0  0  3  0  0  0  0  0  0
  195.7730  175.6560  144.0590 C   0  0  0  0  0  2  0  0  0  0  0  0
  1  6  2  0  0  0  0
  1  9  1  0  0  0  0
  2  3  1  6  0  0  0
  2  5  1  0  0  0  0
  3  7  1  0  0  0  0
  4 11  1  0  0  0  0
  4  7  2  0  0  0  0
  5 16  1  0  0  0  0
  5 14  2  0  0  0  0
  8 23  1  1  0  0  0
  8 12  1  0  0  0  0
 10 19  1  0  0  0  0
 10 18  1  0  0  0  0
 12 16  1  0  0  0  0
 13 18  1  6  0  0  0
 13  8  1  0  0  0  0
 13  2  1  0  0  0  0
 14  1  1  0  0  0  0
 15  4  1  0  0  0  0
 16 17  2  0  0  0  0
 17  6  1  0  0  0  0
 19  3  2  0  0  0  0
 20 15  2  0  0  0  0
 20 19  1  0  0  0  0
 21 22  2  0  0  0  0
 22 23  1  0  0  0  0
 24 27  2  0  0  0  0
 25 28  1  0  0  0  0
 26 29  1  0  0  0  0
 28 24  1  0  0  0  0
 29 31  1  0  0  0  0
 30 29  1  0  0  0  0
 30 22  1  1  0  0  0
 30 25  1  0  0  0  0
 31 24  1  0  0  0  0
M  END
>  <MODEL>
7

>  <REMARK>
 VINA RESULT:      -7.0      1.804      2.673
  Name = 
  2 active torsions:
  status: ('A' for Active; 'I' for Inactive)
    1  A    between atoms: C_5  and  C_30
    2  A    between atoms: C_10  and  N_16
                            x       y       z     vdW  Elec       q    Type
                         _______ _______ _______ _____ _____    ______ ____

>  <TORSDO>
F 2

$$$$
=
 OpenBabel11112416463D

 31 35  0  0  1  0  0  0  0  0999 V2000
  185.9350  177.6450  141.4540 C   0  0  0  0  0  0  0  0  0  0  0  0
  188.3210  174.9410  142.4530 C   0  0  2  0  0  3  0  0  0  0  0  0
  188.8960  174.4750  141.1330 C   0  0  0  0  0  0  0  0  0  0  0  0
  188.6480  174.1660  138.7930 C   0  0  0  0  0  0  0  0  0  0  0  0
  187.6710  176.3010  142.3470 C   0  0  0  0  0  0  0  0  0  0  0  0
  186.4680  178.7500  142.0360 N   0  0  0  0  0  0  0  0  0  0  0  0
  188.1870  174.6320  139.9820 N   0  0  0  0  0  0  0  0  0  0  0  0
  190.2520  176.1030  143.6420 C   0  0  2  0  0  3  0  0  0  0  0  0
  184.7500  177.7530  140.6760 N   0  0  0  0  0  1  0  0  0  0  0  0
  190.9410  173.5830  142.3200 C   0  0  0  0  0  2  0  0  0  0  0  0
  187.8560  174.3660  137.5530 C   0  0  0  0  0  1  0  0  0  0  0  0
  189.4110  177.3520  143.8820 C   0  0  0  0  0  2  0  0  0  0  0  0
  189.3460  174.8620  143.6050 C   0  0  2  0  0  3  0  0  0  0  0  0
  186.5340  176.4360  141.6130 N   0  0  0  0  0  0  0  0  0  0  0  0
  189.8690  173.4940  138.7470 C   0  0  0  0  0  3  0  0  0  0  0  0
  188.2370  177.4400  142.9540 C   0  0  0  0  0  0  0  0  0  0  0  0
  187.5970  178.6660  142.7870 C   0  0  0  0  0  3  0  0  0  0  0  0
  190.1160  173.6130  143.5300 N   0  0  0  0  0  2  0  0  0  0  0  0
  190.1110  173.7660  141.0870 C   0  0  0  0  0  0  0  0  0  0  0  0
  190.5740  173.3110  139.8940 N   0  0  0  0  0  0  0  0  0  0  0  0
  193.0660  176.4160  143.3210 O   0  0  0  0  0  0  0  0  0  0  0  0
  192.6390  176.1440  144.4770 C   0  0  0  0  0  0  0  0  0  0  0  0
  191.2390  175.9700  144.7040 N   0  0  0  0  0  2  0  0  0  0  0  0
  196.0680  175.7740  144.2630 C   0  0  0  0  0  0  0  0  0  0  0  0
  194.5670  177.1400  145.7680 C   0  0  0  0  0  2  0  0  0  0  0  0
  193.4190  173.5680  145.6260 C   0  0  0  0  0  1  0  0  0  0  0  0
  197.1240  175.6920  143.5860 O   0  0  0  0  0  0  0  0  0  0  0  0
  195.6670  177.0320  144.8110 N   0  0  0  0  0  2  0  0  0  0  0  0
  194.3440  174.6920  145.6060 N   0  0  0  0  0  0  0  0  0  0  0  0
  193.5950  175.9640  145.6300 C   0  0  2  0  0  3  0  0  0  0  0  0
  195.1770  174.5770  144.4060 C   0  0  0  0  0  2  0  0  0  0  0  0
  1 14  1  0  0  0  0
  1  6  2  0  0  0  0
  2  3  1  6  0  0  0
  2 13  1  0  0  0  0
  4  7  1  0  0  0  0
  5  2  1  0  0  0  0
  5 16  1  0  0  0  0
  6 17  1  0  0  0  0
  7  3  2  0  0  0  0
  8 12  1  0  0  0  0
  8 23  1  1  0  0  0
  9  1  1  0  0  0  0
 10 18  1  0  0  0  0
 11  4  1  0  0  0  0
 13 18  1  6  0  0  0
 13  8  1  0  0  0  0
 14  5  2  0  0  0  0
 15  4  2  0  0  0  0
 15 20  1  0  0  0  0
 16 12  1  0  0  0  0
 17 16  2  0  0  0  0
 19  3  1  0  0  0  0
 19 10  1  0  0  0  0
 20 19  2  0  0  0  0
 21 22  2  0  0  0  0
 22 23  1  0  0  0  0
 24 31  1  0  0  0  0
 24 28  1  0  0  0  0
 27 24  2  0  0  0  0
 28 25  1  0  0  0  0
 29 26  1  0  0  0  0
 29 30  1  0  0  0  0
 30 22  1  6  0  0  0
 30 25  1  0  0  0  0
 31 29  1  0  0  0  0
M  END
>  <MODEL>
8

>  <REMARK>
 VINA RESULT:      -6.9      2.525      3.398
  Name = 
  2 active torsions:
  status: ('A' for Active; 'I' for Inactive)
    1  A    between atoms: C_5  and  C_30
    2  A    between atoms: C_10  and  N_16
                            x       y       z     vdW  Elec       q    Type
                         _______ _______ _______ _____ _____    ______ ____

>  <TORSDO>
F 2

$$$$
=
 OpenBabel11112416463D

 31 35  0  0  1  0  0  0  0  0999 V2000
  186.8740  177.7300  147.2050 C   0  0  0  0  0  0  0  0  0  0  0  0
  188.2640  175.5120  144.5300 C   0  0  2  0  0  3  0  0  0  0  0  0
  187.7360  176.1300  143.2530 C   0  0  0  0  0  0  0  0  0  0  0  0
  186.0590  177.3780  142.1290 C   0  0  0  0  0  0  0  0  0  0  0  0
  188.1990  176.4690  145.6980 C   0  0  0  0  0  0  0  0  0  0  0  0
  187.9900  178.2630  147.7660 N   0  0  0  0  0  0  0  0  0  0  0  0
  186.5920  176.8670  143.2690 N   0  0  0  0  0  0  0  0  0  0  0  0
  190.7750  175.9440  144.4840 C   0  0  2  0  0  3  0  0  0  0  0  0
  185.5890  178.1030  147.6850 N   0  0  0  0  0  1  0  0  0  0  0  0
  189.6170  175.0670  141.9430 C   0  0  0  0  0  2  0  0  0  0  0  0
  184.8170  178.1900  142.1830 C   0  0  0  0  0  1  0  0  0  0  0  0
  190.7390  176.5590  145.8790 C   0  0  0  0  0  2  0  0  0  0  0  0
  189.6650  174.8900  144.3500 C   0  0  2  0  0  3  0  0  0  0  0  0
  186.9840  176.8420  146.1830 N   0  0  0  0  0  0  0  0  0  0  0  0
  186.6860  177.1320  140.9080 C   0  0  0  0  0  3  0  0  0  0  0  0
  189.3660  177.0170  146.2690 C   0  0  0  0  0  0  0  0  0  0  0  0
  189.2260  177.9160  147.3240 C   0  0  0  0  0  3  0  0  0  0  0  0
  189.7470  174.1540  143.0810 N   0  0  0  0  0  2  0  0  0  0  0  0
  188.3460  175.8550  142.0150 C   0  0  0  0  0  0  0  0  0  0  0  0
  187.8160  176.3770  140.8780 N   0  0  0  0  0  0  0  0  0  0  0  0
  192.6770  176.8020  142.5450 O   0  0  0  0  0  0  0  0  0  0  0  0
  192.9870  175.8160  143.2680 C   0  0  0  0  0  0  0  0  0  0  0  0
  192.0760  175.3330  144.2560 N   0  0  0  0  0  2  0  0  0  0  0  0
  194.5850  175.2080  140.2640 C   0  0  0  0  0  0  0  0  0  0  0  0
  195.3880  176.0330  142.5140 C   0  0  0  0  0  2  0  0  0  0  0  0
  193.3070  172.9310  142.8950 C   0  0  0  0  0  1  0  0  0  0  0  0
  194.6340  175.2870  139.0100 O   0  0  0  0  0  0  0  0  0  0  0  0
  195.2440  176.1900  141.0680 N   0  0  0  0  0  2  0  0  0  0  0  0
  194.2260  173.8740  142.2730 N   0  0  0  0  0  0  0  0  0  0  0  0
  194.3060  175.1070  143.0800 C   0  0  2  0  0  3  0  0  0  0  0  0
  193.7500  174.1470  140.9140 C   0  0  0  0  0  2  0  0  0  0  0  0
  1  9  1  0  0  0  0
  1  6  2  0  0  0  0
  2  3  1  6  0  0  0
  2  5  1  0  0  0  0
  3  7  1  0  0  0  0
  4 11  1  0  0  0  0
  4  7  2  0  0  0  0
  5 14  2  0  0  0  0
  5 16  1  0  0  0  0
  8 23  1  1  0  0  0
  8 12  1  0  0  0  0
 10 19  1  0  0  0  0
 10 18  1  0  0  0  0
 12 16  1  0  0  0  0
 13 18  1  6  0  0  0
 13  8  1  0  0  0  0
 13  2  1  0  0  0  0
 14  1  1  0  0  0  0
 15  4  1  0  0  0  0
 16 17  2  0  0  0  0
 17  6  1  0  0  0  0
 19  3  2  0  0  0  0
 20 15  2  0  0  0  0
 20 19  1  0  0  0  0
 21 22  2  0  0  0  0
 22 23  1  0  0  0  0
 24 31  1  0  0  0  0
 24 28  1  0  0  0  0
 25 30  1  0  0  0  0
 27 24  2  0  0  0  0
 28 25  1  0  0  0  0
 29 26  1  0  0  0  0
 29 30  1  0  0  0  0
 30 22  1  6  0  0  0
 31 29  1  0  0  0  0
M  END
>  <MODEL>
9

>  <REMARK>
 VINA RESULT:      -6.8      1.907      2.310
  Name = 
  2 active torsions:
  status: ('A' for Active; 'I' for Inactive)
    1  A    between atoms: C_5  and  C_30
    2  A    between atoms: C_10  and  N_16
                            x       y       z     vdW  Elec       q    Type
                         _______ _______ _______ _____ _____    ______ ____

>  <TORSDO>
F 2

$$$$
