=
 OpenBabel11112416223D

 30 35  0  0  1  0  0  0  0  0999 V2000
  186.5900  176.9900  143.9450 C   0  0  0  0  0  0  0  0  0  0  0  0
  184.9880  178.3530  145.3290 C   0  0  0  0  0  0  0  0  0  0  0  0
  188.6710  175.7860  147.3840 N   0  0  0  0  0  2  0  0  0  0  0  0
  187.7340  176.1540  143.8910 C   0  0  0  0  0  0  0  0  0  0  0  0
  185.9440  177.3460  142.7160 N   0  0  0  0  0  2  0  0  0  0  0  0
  188.0490  175.7580  140.1730 O   0  0  0  0  0  1  0  0  0  0  0  0
  190.6380  176.0550  143.2920 C   0  0  1  0  0  3  0  0  0  0  0  0
  187.7670  176.4280  141.3660 C   0  0  1  0  0  3  0  0  0  0  0  0
  190.8090  175.5950  144.6820 N   0  0  2  0  0  0  0  0  0  0  0  0
  189.7040  174.9030  146.8540 C   0  0  2  0  0  3  0  0  0  0  0  0
  186.2720  176.7240  141.4390 C   0  0  2  0  0  3  0  0  0  0  0  0
  188.1750  175.5580  142.5610 C   0  0  1  0  0  3  0  0  0  0  0  0
  184.5810  178.7900  146.5930 C   0  0  0  0  0  3  0  0  0  0  0  0
  191.8690  174.5990  144.6000 C   0  0  0  0  0  2  0  0  0  0  0  0
  192.0120  176.0080  142.6500 C   0  0  0  0  0  2  0  0  0  0  0  0
  184.1760  178.8390  144.1750 C   0  0  0  0  0  1  0  0  0  0  0  0
  187.9150  176.2760  146.2950 C   0  0  0  0  0  0  0  0  0  0  0  0
  185.2640  178.3980  147.7410 C   0  0  0  0  0  3  0  0  0  0  0  0
  186.1170  177.4950  145.1980 C   0  0  0  0  0  0  0  0  0  0  0  0
  188.3810  175.8270  145.0940 C   0  0  0  0  0  0  0  0  0  0  0  0
  191.0510  175.2860  147.4530 C   0  0  0  0  0  1  0  0  0  0  0  0
  189.6080  174.9810  145.2940 C   0  0  1  0  0  3  0  0  0  0  0  0
  192.8100  175.0390  143.4960 C   0  0  0  0  0  2  0  0  0  0  0  0
  190.0040  174.2390  141.8820 O   0  0  0  0  0  0  0  0  0  0  0  0
  186.3690  177.5610  147.6390 C   0  0  0  0  0  3  0  0  0  0  0  0
  186.8020  177.1090  146.3880 C   0  0  0  0  0  0  0  0  0  0  0  0
  189.6410  175.2240  142.5090 C   0  0  0  0  0  0  0  0  0  0  0  0
  185.8520  177.6450  140.3050 C   0  0  0  0  0  2  0  0  0  0  0  0
  183.6120  178.2780  140.3620 C   0  0  0  0  0  1  0  0  0  0  0  0
  184.9410  178.6600  140.8020 N   0  0  0  0  0  2  0  0  0  0  0  0
  1 19  1  0  0  0  0
  2 13  1  0  0  0  0
  4  1  2  0  0  0  0
  4 20  1  0  0  0  0
  5  1  1  0  0  0  0
  7 15  1  6  0  0  0
  7  9  1  0  0  0  0
  8  6  1  6  0  0  0
  8 11  1  0  0  0  0
  8 12  1  0  0  0  0
  9 14  1  6  0  0  0
  9 22  1  0  0  0  0
 10  3  1  0  0  0  0
 10 21  1  6  0  0  0
 11 28  1  6  0  0  0
 11  5  1  0  0  0  0
 12 27  1  1  0  0  0
 12  4  1  0  0  0  0
 13 18  2  0  0  0  0
 15 23  1  0  0  0  0
 16  2  1  0  0  0  0
 17 26  1  0  0  0  0
 17  3  1  0  0  0  0
 19  2  2  0  0  0  0
 19 26  1  0  0  0  0
 20 17  2  0  0  0  0
 22 20  1  1  0  0  0
 22 10  1  0  0  0  0
 23 14  1  0  0  0  0
 24 27  2  0  0  0  0
 25 18  1  0  0  0  0
 26 25  2  0  0  0  0
 27  7  1  0  0  0  0
 28 30  1  0  0  0  0
 29 30  1  0  0  0  0
M  END
>  <MODEL>
1

>  <REMARK>
 VINA RESULT:      -9.0      0.000      0.000
  Name = 
  2 active torsions:
  status: ('A' for Active; 'I' for Inactive)
    1  A    between atoms: C_11  and  C_28
    2  A    between atoms: C_28  and  N_30
                            x       y       z     vdW  Elec       q    Type
                         _______ _______ _______ _____ _____    ______ ____

>  <TORSDO>
F 2

$$$$
=
 OpenBabel11112416223D

 30 35  0  0  1  0  0  0  0  0999 V2000
  187.6000  176.8110  144.8780 C   0  0  0  0  0  0  0  0  0  0  0  0
  185.8150  178.0730  146.1270 C   0  0  0  0  0  0  0  0  0  0  0  0
  185.9870  178.0040  141.1930 N   0  0  0  0  0  2  0  0  0  0  0  0
  188.1470  176.3990  143.6360 C   0  0  0  0  0  0  0  0  0  0  0  0
  188.2220  176.3530  146.0850 N   0  0  0  0  0  2  0  0  0  0  0  0
  190.9060  174.1740  144.8700 O   0  0  0  0  0  1  0  0  0  0  0  0
  188.3560  174.1570  141.7050 C   0  0  1  0  0  3  0  0  0  0  0  0
  189.6370  174.7610  144.8800 C   0  0  1  0  0  3  0  0  0  0  0  0
  187.7460  175.0730  140.7250 N   0  0  2  0  0  0  0  0  0  0  0  0
  186.8970  177.4060  140.2220 C   0  0  2  0  0  3  0  0  0  0  0  0
  189.5080  175.6650  146.1030 C   0  0  2  0  0  3  0  0  0  0  0  0
  189.4370  175.5920  143.6060 C   0  0  1  0  0  3  0  0  0  0  0  0
  184.6820  178.8920  146.0800 C   0  0  0  0  0  3  0  0  0  0  0  0
  188.4360  174.7730  139.4770 C   0  0  0  0  0  2  0  0  0  0  0  0
  188.6960  172.8840  140.9510 C   0  0  0  0  0  2  0  0  0  0  0  0
  186.3070  177.7110  147.4880 C   0  0  0  0  0  1  0  0  0  0  0  0
  186.4270  177.6410  142.4850 C   0  0  0  0  0  0  0  0  0  0  0  0
  184.1380  179.2930  144.8630 C   0  0  0  0  0  3  0  0  0  0  0  0
  186.4300  177.6350  144.9190 C   0  0  0  0  0  0  0  0  0  0  0  0
  187.5210  176.8270  142.4540 C   0  0  0  0  0  0  0  0  0  0  0  0
  186.0910  176.6880  139.1490 C   0  0  0  0  0  1  0  0  0  0  0  0
  187.8960  176.5140  141.0310 C   0  0  1  0  0  3  0  0  0  0  0  0
  188.7680  173.2940  139.4960 C   0  0  0  0  0  2  0  0  0  0  0  0
  190.6960  174.5750  141.8960 O   0  0  0  0  0  0  0  0  0  0  0  0
  184.7200  178.8790  143.6710 C   0  0  0  0  0  3  0  0  0  0  0  0
  185.8530  178.0580  143.6850 C   0  0  0  0  0  0  0  0  0  0  0  0
  189.5840  174.7370  142.3770 C   0  0  0  0  0  0  0  0  0  0  0  0
  189.6300  174.8550  147.3830 C   0  0  0  0  0  2  0  0  0  0  0  0
  191.1690  176.5680  147.7320 C   0  0  0  0  0  1  0  0  0  0  0  0
  190.8680  175.1870  148.0630 N   0  0  0  0  0  2  0  0  0  0  0  0
  1 19  1  0  0  0  0
  1  5  1  0  0  0  0
  2 16  1  0  0  0  0
  3 17  1  0  0  0  0
  4  1  2  0  0  0  0
  5 11  1  0  0  0  0
  7 15  1  6  0  0  0
  7 27  1  0  0  0  0
  8  6  1  6  0  0  0
  8 11  1  0  0  0  0
  9 14  1  6  0  0  0
  9 22  1  0  0  0  0
  9  7  1  0  0  0  0
 10 21  1  6  0  0  0
 10 22  1  0  0  0  0
 10  3  1  0  0  0  0
 11 28  1  1  0  0  0
 12 27  1  6  0  0  0
 12  4  1  0  0  0  0
 12  8  1  0  0  0  0
 13  2  1  0  0  0  0
 14 23  1  0  0  0  0
 17 26  1  0  0  0  0
 18 13  2  0  0  0  0
 19  2  2  0  0  0  0
 20 17  2  0  0  0  0
 20  4  1  0  0  0  0
 22 20  1  1  0  0  0
 23 15  1  0  0  0  0
 24 27  2  0  0  0  0
 25 26  2  0  0  0  0
 25 18  1  0  0  0  0
 26 19  1  0  0  0  0
 28 30  1  0  0  0  0
 29 30  1  0  0  0  0
M  END
>  <MODEL>
2

>  <REMARK>
 VINA RESULT:      -8.2      1.662      5.296
  Name = 
  2 active torsions:
  status: ('A' for Active; 'I' for Inactive)
    1  A    between atoms: C_11  and  C_28
    2  A    between atoms: C_28  and  N_30
                            x       y       z     vdW  Elec       q    Type
                         _______ _______ _______ _____ _____    ______ ____

>  <TORSDO>
F 2

$$$$
=
 OpenBabel11112416223D

 30 35  0  0  1  0  0  0  0  0999 V2000
  187.9910  175.9800  142.8040 C   0  0  0  0  0  0  0  0  0  0  0  0
  186.2520  177.7810  142.5380 C   0  0  0  0  0  0  0  0  0  0  0  0
  188.7160  177.1460  146.7690 N   0  0  0  0  0  2  0  0  0  0  0  0
  188.9650  175.3490  143.6190 C   0  0  0  0  0  0  0  0  0  0  0  0
  187.8140  175.5100  141.4620 N   0  0  0  0  0  2  0  0  0  0  0  0
  190.3530  172.8870  141.1510 O   0  0  0  0  0  1  0  0  0  0  0  0
  191.8660  175.1190  144.1920 C   0  0  1  0  0  3  0  0  0  0  0  0
  189.8140  174.1050  141.5740 C   0  0  1  0  0  3  0  0  0  0  0  0
  191.5330  175.5660  145.5560 N   0  0  2  0  0  0  0  0  0  0  0  0
  189.7250  176.1930  147.2160 C   0  0  2  0  0  3  0  0  0  0  0  0
  188.4270  174.2850  140.9630 C   0  0  2  0  0  3  0  0  0  0  0  0
  189.7050  174.1230  143.1040 C   0  0  1  0  0  3  0  0  0  0  0  0
  185.5410  178.8430  143.1060 C   0  0  0  0  0  3  0  0  0  0  0  0
  192.4140  174.7830  146.4130 C   0  0  0  0  0  2  0  0  0  0  0  0
  193.3500  174.8010  144.1930 C   0  0  0  0  0  2  0  0  0  0  0  0
  185.9130  177.4480  141.1230 C   0  0  0  0  0  1  0  0  0  0  0  0
  188.4110  176.8580  145.4190 C   0  0  0  0  0  0  0  0  0  0  0  0
  185.7730  179.2390  144.4200 C   0  0  0  0  0  3  0  0  0  0  0  0
  187.2320  177.0860  143.3030 C   0  0  0  0  0  0  0  0  0  0  0  0
  189.1550  175.8270  144.9260 C   0  0  0  0  0  0  0  0  0  0  0  0
  190.8610  176.9430  147.8970 C   0  0  0  0  0  1  0  0  0  0  0  0
  190.1280  175.3420  145.9660 C   0  0  1  0  0  3  0  0  0  0  0  0
  193.7020  174.5610  145.6450 C   0  0  0  0  0  2  0  0  0  0  0  0
  191.4470  172.7830  143.9510 O   0  0  0  0  0  0  0  0  0  0  0  0
  186.7250  178.5760  145.1870 C   0  0  0  0  0  3  0  0  0  0  0  0
  187.4540  177.5130  144.6460 C   0  0  0  0  0  0  0  0  0  0  0  0
  191.0520  173.9220  143.7420 C   0  0  0  0  0  0  0  0  0  0  0  0
  188.5140  174.3440  139.4470 C   0  0  0  0  0  2  0  0  0  0  0  0
  188.8490  172.9180  137.6360 C   0  0  0  0  0  1  0  0  0  0  0  0
  188.1140  173.0690  138.8780 N   0  0  0  0  0  2  0  0  0  0  0  0
  1 19  2  0  0  0  0
  1  4  1  0  0  0  0
  2 13  2  0  0  0  0
  2 19  1  0  0  0  0
  3 10  1  0  0  0  0
  4 20  2  0  0  0  0
  5  1  1  0  0  0  0
  7 15  1  1  0  0  0
  7  9  1  0  0  0  0
  8  6  1  1  0  0  0
  8 12  1  0  0  0  0
  9 22  1  0  0  0  0
  9 14  1  1  0  0  0
 10 21  1  6  0  0  0
 11 28  1  6  0  0  0
 11  5  1  0  0  0  0
 11  8  1  0  0  0  0
 12  4  1  6  0  0  0
 12 27  1  0  0  0  0
 13 18  1  0  0  0  0
 15 23  1  0  0  0  0
 16  2  1  0  0  0  0
 17  3  1  0  0  0  0
 18 25  2  0  0  0  0
 19 26  1  0  0  0  0
 20 17  1  0  0  0  0
 22 20  1  6  0  0  0
 22 10  1  0  0  0  0
 23 14  1  0  0  0  0
 26 25  1  0  0  0  0
 26 17  2  0  0  0  0
 27 24  2  0  0  0  0
 27  7  1  0  0  0  0
 29 30  1  0  0  0  0
 30 28  1  0  0  0  0
M  END
>  <MODEL>
3

>  <REMARK>
 VINA RESULT:      -8.1      2.137      3.108
  Name = 
  2 active torsions:
  status: ('A' for Active; 'I' for Inactive)
    1  A    between atoms: C_11  and  C_28
    2  A    between atoms: C_28  and  N_30
                            x       y       z     vdW  Elec       q    Type
                         _______ _______ _______ _____ _____    ______ ____

>  <TORSDO>
F 2

$$$$
=
 OpenBabel11112416223D

 30 35  0  0  1  0  0  0  0  0999 V2000
  188.3050  175.4990  141.7750 C   0  0  0  0  0  0  0  0  0  0  0  0
  189.3780  173.5070  140.6700 C   0  0  0  0  0  0  0  0  0  0  0  0
  189.9700  174.4500  145.4810 N   0  0  0  0  0  2  0  0  0  0  0  0
  188.0660  176.2450  142.9580 C   0  0  0  0  0  0  0  0  0  0  0  0
  187.6940  175.9370  140.5550 N   0  0  0  0  0  2  0  0  0  0  0  0
  185.7130  178.8360  141.6040 O   0  0  0  0  0  1  0  0  0  0  0  0
  186.1030  176.8130  145.1080 C   0  0  1  0  0  3  0  0  0  0  0  0
  186.2860  177.5660  141.7180 C   0  0  1  0  0  3  0  0  0  0  0  0
  187.1380  176.3390  146.0440 N   0  0  2  0  0  0  0  0  0  0  0  0
  189.5120  175.5160  146.3640 C   0  0  2  0  0  3  0  0  0  0  0  0
  187.0170  177.2220  140.4240 C   0  0  2  0  0  3  0  0  0  0  0  0
  187.2780  177.5450  142.8880 C   0  0  1  0  0  3  0  0  0  0  0  0
  190.1880  172.3740  140.7890 C   0  0  0  0  0  3  0  0  0  0  0  0
  187.0120  177.2240  147.1950 C   0  0  0  0  0  2  0  0  0  0  0  0
  184.9440  177.3010  145.9580 C   0  0  0  0  0  2  0  0  0  0  0  0
  188.8400  173.7900  139.3080 C   0  0  0  0  0  1  0  0  0  0  0  0
  189.4400  174.6920  144.1930 C   0  0  0  0  0  0  0  0  0  0  0  0
  190.7450  172.0150  142.0130 C   0  0  0  0  0  3  0  0  0  0  0  0
  189.1090  174.3150  141.8120 C   0  0  0  0  0  0  0  0  0  0  0  0
  188.6440  175.7990  144.1580 C   0  0  0  0  0  0  0  0  0  0  0  0
  188.9390  174.9070  147.6370 C   0  0  0  0  0  1  0  0  0  0  0  0
  188.5260  176.4010  145.5310 C   0  0  1  0  0  3  0  0  0  0  0  0
  185.5450  177.5890  147.3170 C   0  0  0  0  0  2  0  0  0  0  0  0
  186.5060  179.0830  144.4960 O   0  0  0  0  0  0  0  0  0  0  0  0
  190.4970  172.7880  143.1410 C   0  0  0  0  0  3  0  0  0  0  0  0
  189.6890  173.9260  143.0560 C   0  0  0  0  0  0  0  0  0  0  0  0
  186.5960  177.9050  144.1790 C   0  0  0  0  0  0  0  0  0  0  0  0
  186.0440  177.1650  139.2580 C   0  0  0  0  0  2  0  0  0  0  0  0
  185.7540  176.0410  137.2390 C   0  0  0  0  0  1  0  0  0  0  0  0
  186.7340  176.7290  138.0570 N   0  0  0  0  0  2  0  0  0  0  0  0
  1 19  2  0  0  0  0
  1  4  1  0  0  0  0
  2 13  2  0  0  0  0
  2 19  1  0  0  0  0
  3 10  1  0  0  0  0
  4 20  2  0  0  0  0
  5  1  1  0  0  0  0
  7 15  1  1  0  0  0
  7  9  1  0  0  0  0
  8  6  1  6  0  0  0
  8 12  1  0  0  0  0
  9 14  1  1  0  0  0
 10 21  1  1  0  0  0
 11 28  1  6  0  0  0
 11  5  1  0  0  0  0
 11  8  1  0  0  0  0
 12  4  1  1  0  0  0
 12 27  1  0  0  0  0
 13 18  1  0  0  0  0
 14 23  1  0  0  0  0
 15 23  1  0  0  0  0
 16  2  1  0  0  0  0
 17  3  1  0  0  0  0
 18 25  2  0  0  0  0
 19 26  1  0  0  0  0
 20 17  1  0  0  0  0
 22 20  1  6  0  0  0
 22  9  1  0  0  0  0
 22 10  1  0  0  0  0
 26 25  1  0  0  0  0
 26 17  2  0  0  0  0
 27 24  2  0  0  0  0
 27  7  1  0  0  0  0
 29 30  1  0  0  0  0
 30 28  1  0  0  0  0
M  END
>  <MODEL>
4

>  <REMARK>
 VINA RESULT:      -8.0      2.315      5.323
  Name = 
  2 active torsions:
  status: ('A' for Active; 'I' for Inactive)
    1  A    between atoms: C_11  and  C_28
    2  A    between atoms: C_28  and  N_30
                            x       y       z     vdW  Elec       q    Type
                         _______ _______ _______ _____ _____    ______ ____

>  <TORSDO>
F 2

$$$$
=
 OpenBabel11112416223D

 30 35  0  0  1  0  0  0  0  0999 V2000
  189.2620  175.3140  143.4220 C   0  0  0  0  0  0  0  0  0  0  0  0
  187.1850  176.4260  144.3100 C   0  0  0  0  0  0  0  0  0  0  0  0
  191.4190  176.4090  146.8500 N   0  0  0  0  0  2  0  0  0  0  0  0
  190.6360  175.0040  143.5910 C   0  0  0  0  0  0  0  0  0  0  0  0
  188.6100  174.8960  142.2160 N   0  0  0  0  0  2  0  0  0  0  0  0
  191.3110  173.3210  140.3050 O   0  0  0  0  0  1  0  0  0  0  0  0
  193.4010  175.7430  142.8120 C   0  0  1  0  0  3  0  0  0  0  0  0
  190.7240  174.2540  141.1660 C   0  0  1  0  0  3  0  0  0  0  0  0
  193.6420  175.9640  144.2490 N   0  0  2  0  0  0  0  0  0  0  0  0
  192.7370  175.8320  146.6120 C   0  0  2  0  0  3  0  0  0  0  0  0
  189.2250  173.9870  141.2560 C   0  0  2  0  0  3  0  0  0  0  0  0
  191.3500  174.1390  142.5620 C   0  0  1  0  0  3  0  0  0  0  0  0
  186.5660  177.1440  145.3380 C   0  0  0  0  0  3  0  0  0  0  0  0
  194.9990  175.4770  144.4630 C   0  0  0  0  0  2  0  0  0  0  0  0
  194.7330  175.9510  142.1150 C   0  0  0  0  0  2  0  0  0  0  0  0
  186.3260  176.0860  143.1390 C   0  0  0  0  0  1  0  0  0  0  0  0
  190.6070  176.1190  145.7310 C   0  0  0  0  0  0  0  0  0  0  0  0
  187.2720  177.5130  146.4800 C   0  0  0  0  0  3  0  0  0  0  0  0
  188.5580  176.0620  144.4190 C   0  0  0  0  0  0  0  0  0  0  0  0
  191.2800  175.4370  144.7610 C   0  0  0  0  0  0  0  0  0  0  0  0
  193.8060  176.8820  146.8880 C   0  0  0  0  0  1  0  0  0  0  0  0
  192.7190  175.2490  145.1600 C   0  0  1  0  0  3  0  0  0  0  0  0
  195.7780  175.7570  143.1920 C   0  0  0  0  0  2  0  0  0  0  0  0
  193.5760  173.4240  142.2820 O   0  0  0  0  0  0  0  0  0  0  0  0
  188.6130  177.1700  146.6090 C   0  0  0  0  0  3  0  0  0  0  0  0
  189.2600  176.4540  145.5970 C   0  0  0  0  0  0  0  0  0  0  0  0
  192.8350  174.3700  142.5080 C   0  0  0  0  0  0  0  0  0  0  0  0
  188.5670  174.1660  139.8980 C   0  0  0  0  0  2  0  0  0  0  0  0
  188.6960  172.8280  137.9960 C   0  0  0  0  0  1  0  0  0  0  0  0
  188.1910  172.8730  139.3550 N   0  0  0  0  0  2  0  0  0  0  0  0
  1  4  2  0  0  0  0
  1 19  1  0  0  0  0
  2 19  2  0  0  0  0
  2 13  1  0  0  0  0
  4 20  1  0  0  0  0
  5  1  1  0  0  0  0
  7 15  1  6  0  0  0
  7  9  1  0  0  0  0
  8  6  1  6  0  0  0
  8 11  1  0  0  0  0
  8 12  1  0  0  0  0
  9 14  1  1  0  0  0
  9 22  1  0  0  0  0
 10  3  1  0  0  0  0
 10 21  1  6  0  0  0
 11 28  1  6  0  0  0
 11  5  1  0  0  0  0
 12 27  1  6  0  0  0
 12  4  1  0  0  0  0
 13 18  2  0  0  0  0
 15 23  1  0  0  0  0
 16  2  1  0  0  0  0
 17  3  1  0  0  0  0
 18 25  1  0  0  0  0
 19 26  1  0  0  0  0
 20 17  2  0  0  0  0
 22 20  1  6  0  0  0
 22 10  1  0  0  0  0
 23 14  1  0  0  0  0
 24 27  2  0  0  0  0
 26 17  1  0  0  0  0
 26 25  2  0  0  0  0
 27  7  1  0  0  0  0
 29 30  1  0  0  0  0
 30 28  1  0  0  0  0
M  END
>  <MODEL>
5

>  <REMARK>
 VINA RESULT:      -7.6      2.427      3.659
  Name = 
  2 active torsions:
  status: ('A' for Active; 'I' for Inactive)
    1  A    between atoms: C_11  and  C_28
    2  A    between atoms: C_28  and  N_30
                            x       y       z     vdW  Elec       q    Type
                         _______ _______ _______ _____ _____    ______ ____

>  <TORSDO>
F 2

$$$$
=
 OpenBabel11112416223D

 30 35  0  0  1  0  0  0  0  0999 V2000
  187.7840  175.9680  143.9340 C   0  0  0  0  0  0  0  0  0  0  0  0
  185.8170  177.3490  144.6860 C   0  0  0  0  0  0  0  0  0  0  0  0
  189.4870  176.1490  147.7650 N   0  0  0  0  0  2  0  0  0  0  0  0
  189.0310  175.3680  144.2440 C   0  0  0  0  0  0  0  0  0  0  0  0
  187.2820  175.8510  142.5970 N   0  0  0  0  0  2  0  0  0  0  0  0
  189.9440  174.0280  140.8600 O   0  0  0  0  0  1  0  0  0  0  0  0
  191.9750  175.6310  143.9950 C   0  0  1  0  0  3  0  0  0  0  0  0
  189.3960  174.9390  141.7670 C   0  0  1  0  0  3  0  0  0  0  0  0
  192.0040  175.6090  145.4680 N   0  0  2  0  0  0  0  0  0  0  0  0
  190.7020  175.3550  147.6260 C   0  0  2  0  0  3  0  0  0  0  0  0
  187.8800  174.9700  141.6000 C   0  0  2  0  0  3  0  0  0  0  0  0
  189.7440  174.5190  143.2010 C   0  0  1  0  0  3  0  0  0  0  0  0
  185.1710  178.0360  145.7180 C   0  0  0  0  0  3  0  0  0  0  0  0
  193.1970  174.8360  145.7900 C   0  0  0  0  0  2  0  0  0  0  0  0
  193.4220  175.6570  143.5360 C   0  0  0  0  0  2  0  0  0  0  0  0
  185.1230  177.3440  143.3650 C   0  0  0  0  0  1  0  0  0  0  0  0
  188.8370  176.1770  146.5100 C   0  0  0  0  0  0  0  0  0  0  0  0
  185.7260  178.1030  146.9930 C   0  0  0  0  0  3  0  0  0  0  0  0
  187.0650  176.7050  144.9290 C   0  0  0  0  0  0  0  0  0  0  0  0
  189.5340  175.5060  145.5480 C   0  0  0  0  0  0  0  0  0  0  0  0
  191.8770  176.1230  148.2160 C   0  0  0  0  0  1  0  0  0  0  0  0
  190.8270  174.9820  146.1110 C   0  0  1  0  0  3  0  0  0  0  0  0
  194.2170  175.1170  144.7050 C   0  0  0  0  0  2  0  0  0  0  0  0
  191.8230  173.4140  143.1280 O   0  0  0  0  0  0  0  0  0  0  0  0
  186.9430  177.4830  147.2540 C   0  0  0  0  0  3  0  0  0  0  0  0
  187.6150  176.7910  146.2410 C   0  0  0  0  0  0  0  0  0  0  0  0
  191.2340  174.4520  143.3960 C   0  0  0  0  0  0  0  0  0  0  0  0
  187.5050  175.4530  140.2090 C   0  0  0  0  0  2  0  0  0  0  0  0
  186.3190  177.1120  139.0820 C   0  0  0  0  0  1  0  0  0  0  0  0
  187.1360  176.8570  140.2540 N   0  0  0  0  0  2  0  0  0  0  0  0
  1  4  2  0  0  0  0
  1 19  1  0  0  0  0
  2 19  2  0  0  0  0
  2 13  1  0  0  0  0
  4 20  1  0  0  0  0
  5  1  1  0  0  0  0
  7 15  1  6  0  0  0
  7  9  1  0  0  0  0
  8  6  1  6  0  0  0
  8 12  1  0  0  0  0
  9 14  1  6  0  0  0
  9 22  1  0  0  0  0
 10  3  1  0  0  0  0
 10 21  1  6  0  0  0
 11 28  1  6  0  0  0
 11  8  1  0  0  0  0
 11  5  1  0  0  0  0
 12 27  1  1  0  0  0
 12  4  1  0  0  0  0
 13 18  2  0  0  0  0
 15 23  1  0  0  0  0
 16  2  1  0  0  0  0
 17  3  1  0  0  0  0
 18 25  1  0  0  0  0
 19 26  1  0  0  0  0
 20 17  2  0  0  0  0
 22 20  1  6  0  0  0
 22 10  1  0  0  0  0
 23 14  1  0  0  0  0
 24 27  2  0  0  0  0
 26 17  1  0  0  0  0
 26 25  2  0  0  0  0
 27  7  1  0  0  0  0
 28 30  1  0  0  0  0
 29 30  1  0  0  0  0
M  END
>  <MODEL>
6

>  <REMARK>
 VINA RESULT:      -7.4      1.472      1.836
  Name = 
  2 active torsions:
  status: ('A' for Active; 'I' for Inactive)
    1  A    between atoms: C_11  and  C_28
    2  A    between atoms: C_28  and  N_30
                            x       y       z     vdW  Elec       q    Type
                         _______ _______ _______ _____ _____    ______ ____

>  <TORSDO>
F 2

$$$$
=
 OpenBabel11112416223D

 30 35  0  0  1  0  0  0  0  0999 V2000
  189.1140  176.3040  145.2020 C   0  0  0  0  0  0  0  0  0  0  0  0
  186.9120  177.4180  145.7000 C   0  0  0  0  0  0  0  0  0  0  0  0
  187.7570  175.1190  141.4130 N   0  0  0  0  0  2  0  0  0  0  0  0
  189.9110  175.5420  144.3110 C   0  0  0  0  0  0  0  0  0  0  0  0
  189.6660  176.6630  146.4750 N   0  0  0  0  0  2  0  0  0  0  0  0
  192.9600  175.0600  146.4440 O   0  0  0  0  0  1  0  0  0  0  0  0
  190.9510  172.8310  143.7020 C   0  0  1  0  0  3  0  0  0  0  0  0
  191.5930  175.1860  146.1800 C   0  0  1  0  0  3  0  0  0  0  0  0
  190.2620  172.9640  142.4060 N   0  0  2  0  0  0  0  0  0  0  0  0
  188.9130  174.4340  140.8460 C   0  0  2  0  0  3  0  0  0  0  0  0
  191.0710  176.4710  146.8130 C   0  0  2  0  0  3  0  0  0  0  0  0
  191.3580  175.2300  144.6650 C   0  0  1  0  0  3  0  0  0  0  0  0
  185.6220  177.7500  145.2720 C   0  0  0  0  0  3  0  0  0  0  0  0
  191.1680  172.3350  141.4540 C   0  0  0  0  0  2  0  0  0  0  0  0
  191.7070  171.5160  143.6550 C   0  0  0  0  0  2  0  0  0  0  0  0
  187.2930  177.8910  147.0630 C   0  0  0  0  0  1  0  0  0  0  0  0
  188.0980  175.5440  142.7160 C   0  0  0  0  0  0  0  0  0  0  0  0
  185.1610  177.3620  144.0180 C   0  0  0  0  0  3  0  0  0  0  0  0
  187.7760  176.6710  144.8490 C   0  0  0  0  0  0  0  0  0  0  0  0
  189.3600  175.1680  143.0740 C   0  0  0  0  0  0  0  0  0  0  0  0
  188.4720  173.1000  140.2590 C   0  0  0  0  0  1  0  0  0  0  0  0
  189.9910  174.3550  141.9770 C   0  0  1  0  0  3  0  0  0  0  0  0
  191.8660  171.2040  142.1830 C   0  0  0  0  0  2  0  0  0  0  0  0
  193.0560  173.9520  143.6480 O   0  0  0  0  0  0  0  0  0  0  0  0
  185.9860  176.6320  143.1700 C   0  0  0  0  0  3  0  0  0  0  0  0
  187.2800  176.2820  143.5700 C   0  0  0  0  0  0  0  0  0  0  0  0
  191.8850  173.9870  144.0010 C   0  0  0  0  0  0  0  0  0  0  0  0
  191.2260  176.4240  148.3250 C   0  0  0  0  0  2  0  0  0  0  0  0
  191.3410  178.2170  149.8070 C   0  0  0  0  0  1  0  0  0  0  0  0
  192.0740  177.5140  148.7700 N   0  0  0  0  0  2  0  0  0  0  0  0
  1  5  1  0  0  0  0
  2 16  1  0  0  0  0
  3 17  1  0  0  0  0
  4 12  1  0  0  0  0
  4  1  2  0  0  0  0
  5 11  1  0  0  0  0
  7 15  1  6  0  0  0
  7 27  1  0  0  0  0
  8  6  1  6  0  0  0
  8 11  1  0  0  0  0
  9 14  1  6  0  0  0
  9  7  1  0  0  0  0
 10 21  1  1  0  0  0
 10  3  1  0  0  0  0
 10 22  1  0  0  0  0
 11 28  1  1  0  0  0
 12 27  1  1  0  0  0
 12  8  1  0  0  0  0
 13  2  1  0  0  0  0
 14 23  1  0  0  0  0
 17 20  2  0  0  0  0
 17 26  1  0  0  0  0
 18 13  2  0  0  0  0
 19  1  1  0  0  0  0
 19  2  2  0  0  0  0
 20  4  1  0  0  0  0
 22  9  1  0  0  0  0
 22 20  1  1  0  0  0
 23 15  1  0  0  0  0
 24 27  2  0  0  0  0
 25 26  2  0  0  0  0
 25 18  1  0  0  0  0
 26 19  1  0  0  0  0
 28 30  1  0  0  0  0
 30 29  1  0  0  0  0
M  END
>  <MODEL>
7

>  <REMARK>
 VINA RESULT:      -7.3      2.418      5.517
  Name = 
  2 active torsions:
  status: ('A' for Active; 'I' for Inactive)
    1  A    between atoms: C_11  and  C_28
    2  A    between atoms: C_28  and  N_30
                            x       y       z     vdW  Elec       q    Type
                         _______ _______ _______ _____ _____    ______ ____

>  <TORSDO>
F 2

$$$$
=
 OpenBabel11112416223D

 30 35  0  0  1  0  0  0  0  0999 V2000
  188.2100  175.5540  141.8510 C   0  0  0  0  0  0  0  0  0  0  0  0
  186.6660  177.5430  141.8350 C   0  0  0  0  0  0  0  0  0  0  0  0
  189.0440  176.1260  145.9230 N   0  0  0  0  0  2  0  0  0  0  0  0
  189.1130  174.7280  142.5680 C   0  0  0  0  0  0  0  0  0  0  0  0
  187.9880  175.2800  140.4620 N   0  0  0  0  0  2  0  0  0  0  0  0
  190.2440  172.4710  139.7920 O   0  0  0  0  0  1  0  0  0  0  0  0
  191.9740  174.1320  143.0740 C   0  0  1  0  0  3  0  0  0  0  0  0
  189.8330  173.6750  140.3720 C   0  0  1  0  0  3  0  0  0  0  0  0
  191.6860  174.4330  144.4870 N   0  0  2  0  0  0  0  0  0  0  0  0
  189.9500  175.0260  146.2340 C   0  0  2  0  0  3  0  0  0  0  0  0
  188.4730  174.0720  139.8050 C   0  0  2  0  0  3  0  0  0  0  0  0
  189.7240  173.5090  141.8930 C   0  0  1  0  0  3  0  0  0  0  0  0
  186.0670  178.5900  142.5410 C   0  0  0  0  0  3  0  0  0  0  0  0
  192.4810  173.4620  145.2280 C   0  0  0  0  0  2  0  0  0  0  0  0
  193.4180  173.6670  143.0170 C   0  0  0  0  0  2  0  0  0  0  0  0
  186.2970  177.4290  140.3930 C   0  0  0  0  0  1  0  0  0  0  0  0
  188.7140  176.0450  144.5520 C   0  0  0  0  0  0  0  0  0  0  0  0
  186.3360  178.7900  143.8920 C   0  0  0  0  0  3  0  0  0  0  0  0
  187.5680  176.6600  142.4950 C   0  0  0  0  0  0  0  0  0  0  0  0
  189.3490  175.0150  143.9230 C   0  0  0  0  0  0  0  0  0  0  0  0
  191.1560  175.5630  146.9920 C   0  0  0  0  0  1  0  0  0  0  0  0
  190.2650  174.3040  144.8810 C   0  0  1  0  0  3  0  0  0  0  0  0
  193.7400  173.2100  144.4240 C   0  0  0  0  0  2  0  0  0  0  0  0
  191.3170  171.9010  142.5440 O   0  0  0  0  0  0  0  0  0  0  0  0
  187.2140  177.9420  144.5580 C   0  0  0  0  0  3  0  0  0  0  0  0
  187.8300  176.8870  143.8780 C   0  0  0  0  0  0  0  0  0  0  0  0
  191.0420  173.0910  142.4850 C   0  0  0  0  0  0  0  0  0  0  0  0
  188.5680  174.3130  138.3070 C   0  0  0  0  0  2  0  0  0  0  0  0
  187.6710  175.4070  136.4570 C   0  0  0  0  0  1  0  0  0  0  0  0
  187.4640  175.1480  137.8690 N   0  0  0  0  0  2  0  0  0  0  0  0
  1 19  2  0  0  0  0
  1  4  1  0  0  0  0
  2 19  1  0  0  0  0
  2 13  2  0  0  0  0
  3 10  1  0  0  0  0
  4 20  2  0  0  0  0
  5  1  1  0  0  0  0
  7 15  1  1  0  0  0
  7  9  1  0  0  0  0
  8  6  1  6  0  0  0
  8 12  1  0  0  0  0
  9 22  1  0  0  0  0
  9 14  1  1  0  0  0
 10 21  1  6  0  0  0
 11 28  1  6  0  0  0
 11  8  1  0  0  0  0
 11  5  1  0  0  0  0
 12 27  1  1  0  0  0
 12  4  1  0  0  0  0
 13 18  1  0  0  0  0
 15 23  1  0  0  0  0
 16  2  1  0  0  0  0
 17  3  1  0  0  0  0
 18 25  2  0  0  0  0
 19 26  1  0  0  0  0
 20 17  1  0  0  0  0
 22 20  1  6  0  0  0
 22 10  1  0  0  0  0
 23 14  1  0  0  0  0
 26 17  2  0  0  0  0
 26 25  1  0  0  0  0
 27 24  2  0  0  0  0
 27  7  1  0  0  0  0
 29 30  1  0  0  0  0
 30 28  1  0  0  0  0
M  END
>  <MODEL>
8

>  <REMARK>
 VINA RESULT:      -7.3      2.258      3.239
  Name = 
  2 active torsions:
  status: ('A' for Active; 'I' for Inactive)
    1  A    between atoms: C_11  and  C_28
    2  A    between atoms: C_28  and  N_30
                            x       y       z     vdW  Elec       q    Type
                         _______ _______ _______ _____ _____    ______ ____

>  <TORSDO>
F 2

$$$$
=
 OpenBabel11112416223D

 30 35  0  0  1  0  0  0  0  0999 V2000
  189.4840  175.0640  141.6730 C   0  0  0  0  0  0  0  0  0  0  0  0
  189.4540  173.5750  139.6430 C   0  0  0  0  0  0  0  0  0  0  0  0
  193.0530  173.3120  143.0140 N   0  0  0  0  0  2  0  0  0  0  0  0
  190.1110  175.4430  142.8880 C   0  0  0  0  0  0  0  0  0  0  0  0
  188.2670  175.7220  141.2980 N   0  0  0  0  0  2  0  0  0  0  0  0
  187.6320  177.9800  144.1120 O   0  0  0  0  0  1  0  0  0  0  0  0
  190.0260  175.1870  145.8420 C   0  0  1  0  0  3  0  0  0  0  0  0
  188.0510  176.8060  143.4810 C   0  0  1  0  0  3  0  0  0  0  0  0
  191.3820  174.6220  145.7340 N   0  0  2  0  0  0  0  0  0  0  0  0
  193.3450  174.0480  144.2390 C   0  0  2  0  0  3  0  0  0  0  0  0
  187.7590  176.9020  141.9860 C   0  0  2  0  0  3  0  0  0  0  0  0
  189.5570  176.6080  143.6960 C   0  0  1  0  0  3  0  0  0  0  0  0
  190.0680  172.5600  138.9030 C   0  0  0  0  0  3  0  0  0  0  0  0
  192.0850  175.1570  146.8930 C   0  0  0  0  0  2  0  0  0  0  0  0
  189.7180  175.2910  147.3240 C   0  0  0  0  0  2  0  0  0  0  0  0
  188.1920  174.1300  139.0740 C   0  0  0  0  0  1  0  0  0  0  0  0
  191.8410  173.8090  142.4840 C   0  0  0  0  0  0  0  0  0  0  0  0
  191.2520  171.9710  139.3380 C   0  0  0  0  0  3  0  0  0  0  0  0
  190.0380  174.0210  140.8640 C   0  0  0  0  0  0  0  0  0  0  0  0
  191.2890  174.7790  143.2670 C   0  0  0  0  0  0  0  0  0  0  0  0
  193.6760  173.0650  145.3530 C   0  0  0  0  0  1  0  0  0  0  0  0
  192.1210  174.9870  144.5040 C   0  0  1  0  0  3  0  0  0  0  0  0
  191.0680  175.2910  148.0090 C   0  0  0  0  0  2  0  0  0  0  0  0
  190.1060  177.5700  145.7740 O   0  0  0  0  0  0  0  0  0  0  0  0
  191.8400  172.3890  140.5260 C   0  0  0  0  0  3  0  0  0  0  0  0
  191.2490  173.4000  141.2900 C   0  0  0  0  0  0  0  0  0  0  0  0
  189.8870  176.5350  145.1610 C   0  0  0  0  0  0  0  0  0  0  0  0
  186.2640  177.0260  141.7410 C   0  0  0  0  0  2  0  0  0  0  0  0
  184.7430  178.2920  140.5130 C   0  0  0  0  0  1  0  0  0  0  0  0
  186.0230  177.6130  140.4350 N   0  0  0  0  0  2  0  0  0  0  0  0
  1  4  1  0  0  0  0
  2 19  1  0  0  0  0
  3 10  1  0  0  0  0
  4 20  2  0  0  0  0
  5  1  1  0  0  0  0
  5 11  1  0  0  0  0
  7 15  1  1  0  0  0
  8 12  1  0  0  0  0
  8  6  1  1  0  0  0
  9  7  1  0  0  0  0
  9 14  1  1  0  0  0
 10 22  1  0  0  0  0
 10 21  1  1  0  0  0
 11 28  1  1  0  0  0
 11  8  1  0  0  0  0
 12  4  1  6  0  0  0
 12 27  1  0  0  0  0
 13 18  1  0  0  0  0
 13  2  2  0  0  0  0
 14 23  1  0  0  0  0
 15 23  1  0  0  0  0
 16  2  1  0  0  0  0
 17  3  1  0  0  0  0
 17 20  1  0  0  0  0
 18 25  2  0  0  0  0
 19 26  1  0  0  0  0
 19  1  2  0  0  0  0
 22 20  1  6  0  0  0
 22  9  1  0  0  0  0
 25 26  1  0  0  0  0
 26 17  2  0  0  0  0
 27 24  2  0  0  0  0
 27  7  1  0  0  0  0
 30 29  1  0  0  0  0
 30 28  1  0  0  0  0
M  END
>  <MODEL>
9

>  <REMARK>
 VINA RESULT:      -7.3      2.627      5.599
  Name = 
  2 active torsions:
  status: ('A' for Active; 'I' for Inactive)
    1  A    between atoms: C_11  and  C_28
    2  A    between atoms: C_28  and  N_30
                            x       y       z     vdW  Elec       q    Type
                         _______ _______ _______ _____ _____    ______ ____

>  <TORSDO>
F 2

$$$$
