=
 OpenBabel11112417393D

 28 32  0  0  1  0  0  0  0  0999 V2000
  190.5970  175.7160  144.9620 C   0  0  0  0  0  0  0  0  0  0  0  0
  185.5540  176.5440  146.0300 C   0  0  0  0  0  1  0  0  0  0  0  0
  188.8880  175.0290  140.5250 O   0  0  0  0  0  0  0  0  0  0  0  0
  191.5350  178.0390  143.7080 C   0  0  0  0  0  3  0  0  0  0  0  0
  187.2770  176.5200  141.4840 C   0  0  0  0  0  0  0  0  0  0  0  0
  190.1150  174.4280  145.5580 C   0  0  0  0  0  2  0  0  0  0  0  0
  186.9880  178.1080  147.2710 C   0  0  0  0  0  1  0  0  0  0  0  0
  186.3290  177.8560  145.9290 C   0  0  0  0  0  0  0  0  0  0  0  0
  184.7190  178.8720  144.2900 C   0  0  1  0  0  3  0  0  0  0  0  0
  187.4370  177.8370  144.8380 C   0  0  2  0  0  3  0  0  0  0  0  0
  190.9110  174.0800  142.5130 F   0  0  0  0  0  0  0  0  0  0  0  0
  187.4510  175.6700  143.7060 C   0  0  1  0  0  3  0  0  0  0  0  0
  185.8000  179.0490  143.2370 C   0  0  0  0  0  2  0  0  0  0  0  0
  185.3390  178.9920  145.6770 C   0  0  0  0  0  2  0  0  0  0  0  0
  190.1080  173.2350  143.2610 C   0  0  2  0  0  3  0  0  0  0  0  0
  189.6780  176.6970  144.5360 C   0  0  0  0  0  0  0  0  0  0  0  0
  188.2500  175.4630  141.5210 C   0  0  0  0  0  0  0  0  0  0  0  0
  183.7480  179.8590  144.1290 O   0  0  0  0  0  1  0  0  0  0  0  0
  188.6190  173.5040  143.0490 C   0  0  0  0  0  2  0  0  0  0  0  0
  190.1640  177.8460  143.8890 C   0  0  0  0  0  3  0  0  0  0  0  0
  191.9730  175.9240  144.7920 C   0  0  0  0  0  3  0  0  0  0  0  0
  192.4400  177.0820  144.1690 C   0  0  0  0  0  3  0  0  0  0  0  0
  190.5300  173.2050  144.7340 C   0  0  0  0  0  2  0  0  0  0  0  0
  186.6550  176.6670  142.8280 C   0  0  1  0  0  3  0  0  0  0  0  0
  188.3500  174.9200  142.8250 N   0  0  0  0  0  0  0  0  0  0  0  0
  186.9390  178.0430  143.4030 C   0  0  2  0  0  3  0  0  0  0  0  0
  186.9670  177.1840  140.4600 O   0  0  0  0  0  0  0  0  0  0  0  0
  188.1900  176.5060  144.7760 C   0  0  1  0  0  3  0  0  0  0  0  0
  1  6  1  0  0  0  0
  3 17  2  0  0  0  0
  4 20  2  0  0  0  0
  4 22  1  0  0  0  0
  5 17  1  0  0  0  0
  8  2  1  0  0  0  0
  8  7  1  0  0  0  0
  9 18  1  6  0  0  0
  9 14  1  0  0  0  0
 10  8  1  1  0  0  0
 12 25  1  6  0  0  0
 12 28  1  0  0  0  0
 13  9  1  0  0  0  0
 14  8  1  0  0  0  0
 15 11  1  6  0  0  0
 15 23  1  0  0  0  0
 16  1  2  0  0  0  0
 17 25  1  0  0  0  0
 19 15  1  0  0  0  0
 20 16  1  0  0  0  0
 21  1  1  0  0  0  0
 22 21  2  0  0  0  0
 23  6  1  0  0  0  0
 24  5  1  6  0  0  0
 24 26  1  0  0  0  0
 24 12  1  0  0  0  0
 25 19  1  0  0  0  0
 26 13  1  1  0  0  0
 26 10  1  0  0  0  0
 27  5  2  0  0  0  0
 28 16  1  6  0  0  0
 28 10  1  0  0  0  0
M  END
>  <MODEL>
1

>  <REMARK>
 VINA RESULT:      -9.0      0.000      0.000
  Name = 
  0 active torsions:
  status: ('A' for Active; 'I' for Inactive)
                            x       y       z     vdW  Elec       q    Type
                         _______ _______ _______ _____ _____    ______ ____

>  <TORSDO>
F 0

$$$$
=
 OpenBabel11112417393D

 28 32  0  0  1  0  0  0  0  0999 V2000
  189.4600  176.8640  145.2470 C   0  0  0  0  0  0  0  0  0  0  0  0
  194.5430  176.2780  144.2120 C   0  0  0  0  0  1  0  0  0  0  0  0
  189.1200  172.8300  142.6610 O   0  0  0  0  0  0  0  0  0  0  0  0
  188.8450  175.0300  147.2740 C   0  0  0  0  0  3  0  0  0  0  0  0
  191.3310  172.6860  143.5700 C   0  0  0  0  0  0  0  0  0  0  0  0
  189.7290  177.8020  144.1100 C   0  0  0  0  0  2  0  0  0  0  0  0
  194.1970  177.0710  146.5130 C   0  0  0  0  0  1  0  0  0  0  0  0
  194.2060  175.8360  145.6340 C   0  0  0  0  0  0  0  0  0  0  0  0
  195.3140  173.5960  145.3770 C   0  0  1  0  0  3  0  0  0  0  0  0
  192.8190  175.1420  145.7520 C   0  0  2  0  0  3  0  0  0  0  0  0
  187.7970  175.4470  143.2460 F   0  0  0  0  0  0  0  0  0  0  0  0
  191.7540  175.0340  143.5550 C   0  0  1  0  0  3  0  0  0  0  0  0
  194.0220  172.8500  145.6640 C   0  0  0  0  0  2  0  0  0  0  0  0
  195.3160  174.9160  146.1380 C   0  0  0  0  0  2  0  0  0  0  0  0
  188.5360  176.2630  142.4060 C   0  0  2  0  0  3  0  0  0  0  0  0
  190.3980  175.8700  145.5950 C   0  0  0  0  0  0  0  0  0  0  0  0
  190.1790  173.3790  143.0650 C   0  0  0  0  0  0  0  0  0  0  0  0
  196.3980  172.8220  145.7860 O   0  0  0  0  0  1  0  0  0  0  0  0
  189.8480  175.6150  141.9680 C   0  0  0  0  0  2  0  0  0  0  0  0
  190.0650  174.9450  146.5990 C   0  0  0  0  0  3  0  0  0  0  0  0
  188.2440  176.9530  145.9400 C   0  0  0  0  0  3  0  0  0  0  0  0
  187.9390  176.0410  146.9510 C   0  0  0  0  0  3  0  0  0  0  0  0
  188.7020  177.6730  142.9820 C   0  0  0  0  0  2  0  0  0  0  0  0
  192.4210  173.6640  143.8350 C   0  0  1  0  0  3  0  0  0  0  0  0
  190.4160  174.7750  143.0170 N   0  0  0  0  0  0  0  0  0  0  0  0
  192.7850  173.6760  145.3090 C   0  0  2  0  0  3  0  0  0  0  0  0
  191.4190  171.4390  143.7190 O   0  0  0  0  0  0  0  0  0  0  0  0
  191.7440  175.8090  144.8920 C   0  0  1  0  0  3  0  0  0  0  0  0
  1 16  2  0  0  0  0
  1 21  1  0  0  0  0
  2  8  1  0  0  0  0
  3 17  2  0  0  0  0
  5 27  2  0  0  0  0
  6  1  1  0  0  0  0
  8 14  1  0  0  0  0
  8  7  1  0  0  0  0
  9 13  1  0  0  0  0
  9 18  1  1  0  0  0
  9 14  1  0  0  0  0
 10  8  1  6  0  0  0
 12 25  1  1  0  0  0
 12 24  1  0  0  0  0
 12 28  1  0  0  0  0
 15 23  1  0  0  0  0
 15 11  1  1  0  0  0
 16 20  1  0  0  0  0
 17  5  1  0  0  0  0
 19 15  1  0  0  0  0
 19 25  1  0  0  0  0
 20  4  2  0  0  0  0
 21 22  2  0  0  0  0
 22  4  1  0  0  0  0
 23  6  1  0  0  0  0
 24  5  1  1  0  0  0
 24 26  1  0  0  0  0
 25 17  1  0  0  0  0
 26 13  1  6  0  0  0
 26 10  1  0  0  0  0
 28 16  1  1  0  0  0
 28 10  1  0  0  0  0
M  END
>  <MODEL>
2

>  <REMARK>
 VINA RESULT:      -8.7      2.965      6.668
  Name = 
  0 active torsions:
  status: ('A' for Active; 'I' for Inactive)
                            x       y       z     vdW  Elec       q    Type
                         _______ _______ _______ _____ _____    ______ ____

>  <TORSDO>
F 0

$$$$
=
 OpenBabel11112417393D

 28 32  0  0  1  0  0  0  0  0999 V2000
  190.7440  173.9960  142.9020 C   0  0  0  0  0  0  0  0  0  0  0  0
  187.6840  178.1890  143.4630 C   0  0  0  0  0  1  0  0  0  0  0  0
  193.0380  175.9610  146.6370 O   0  0  0  0  0  0  0  0  0  0  0  0
  190.0130  172.2040  144.9280 C   0  0  0  0  0  3  0  0  0  0  0  0
  190.8000  176.7670  146.9130 C   0  0  0  0  0  0  0  0  0  0  0  0
  191.2160  174.9580  141.8560 C   0  0  0  0  0  2  0  0  0  0  0  0
  186.3570  176.1960  142.9100 C   0  0  0  0  0  1  0  0  0  0  0  0
  187.0320  176.9370  144.0460 C   0  0  0  0  0  0  0  0  0  0  0  0
  186.5600  178.0170  146.2650 C   0  0  1  0  0  3  0  0  0  0  0  0
  188.0460  175.9720  144.7250 C   0  0  2  0  0  3  0  0  0  0  0  0
  193.4220  174.4700  144.0740 F   0  0  0  0  0  0  0  0  0  0  0  0
  190.3010  176.9030  144.5840 C   0  0  1  0  0  3  0  0  0  0  0  0
  187.3960  176.9920  147.0150 C   0  0  0  0  0  2  0  0  0  0  0  0
  185.9470  177.3640  145.0330 C   0  0  0  0  0  2  0  0  0  0  0  0
  193.3600  175.5320  143.1870 C   0  0  2  0  0  3  0  0  0  0  0  0
  189.8950  174.4280  143.9430 C   0  0  0  0  0  0  0  0  0  0  0  0
  191.9360  176.3290  146.1510 C   0  0  0  0  0  0  0  0  0  0  0  0
  185.5450  178.4860  147.0960 O   0  0  0  0  0  1  0  0  0  0  0  0
  192.7240  176.7750  143.8080 C   0  0  0  0  0  2  0  0  0  0  0  0
  189.5560  173.5220  144.9630 C   0  0  0  0  0  3  0  0  0  0  0  0
  191.1840  172.6660  142.8660 C   0  0  0  0  0  3  0  0  0  0  0  0
  190.8190  171.7730  143.8740 C   0  0  0  0  0  3  0  0  0  0  0  0
  192.7390  175.1200  141.8470 C   0  0  0  0  0  2  0  0  0  0  0  0
  189.7320  177.2310  145.9870 C   0  0  1  0  0  3  0  0  0  0  0  0
  191.6760  176.4290  144.7620 N   0  0  0  0  0  0  0  0  0  0  0  0
  188.4850  176.3780  146.1350 C   0  0  2  0  0  3  0  0  0  0  0  0
  190.7390  176.7980  148.1710 O   0  0  0  0  0  0  0  0  0  0  0  0
  189.3620  175.8510  143.9530 C   0  0  1  0  0  3  0  0  0  0  0  0
  1 16  1  0  0  0  0
  2  8  1  0  0  0  0
  4 20  1  0  0  0  0
  5 27  2  0  0  0  0
  6  1  1  0  0  0  0
  7  8  1  0  0  0  0
  8 14  1  0  0  0  0
  9 13  1  0  0  0  0
  9 18  1  1  0  0  0
 10  8  1  6  0  0  0
 10 26  1  0  0  0  0
 12 25  1  1  0  0  0
 12 24  1  0  0  0  0
 14  9  1  0  0  0  0
 15 19  1  0  0  0  0
 15 11  1  1  0  0  0
 16 20  2  0  0  0  0
 17  3  2  0  0  0  0
 17  5  1  0  0  0  0
 19 25  1  0  0  0  0
 21  1  2  0  0  0  0
 21 22  1  0  0  0  0
 22  4  2  0  0  0  0
 23  6  1  0  0  0  0
 23 15  1  0  0  0  0
 24 26  1  0  0  0  0
 24  5  1  1  0  0  0
 25 17  1  0  0  0  0
 26 13  1  6  0  0  0
 28 16  1  1  0  0  0
 28 12  1  0  0  0  0
 28 10  1  0  0  0  0
M  END
>  <MODEL>
3

>  <REMARK>
 VINA RESULT:      -8.2      2.731      4.485
  Name = 
  0 active torsions:
  status: ('A' for Active; 'I' for Inactive)
                            x       y       z     vdW  Elec       q    Type
                         _______ _______ _______ _____ _____    ______ ____

>  <TORSDO>
F 0

$$$$
=
 OpenBabel11112417393D

 28 32  0  0  1  0  0  0  0  0999 V2000
  191.5310  173.9910  142.8580 C   0  0  0  0  0  0  0  0  0  0  0  0
  188.6930  178.2910  142.0130 C   0  0  0  0  0  1  0  0  0  0  0  0
  192.5170  176.2250  146.9950 O   0  0  0  0  0  0  0  0  0  0  0  0
  190.0590  172.4050  144.6380 C   0  0  0  0  0  3  0  0  0  0  0  0
  190.3660  177.1070  146.4220 C   0  0  0  0  0  0  0  0  0  0  0  0
  192.3830  174.8430  141.9690 C   0  0  0  0  0  2  0  0  0  0  0  0
  187.5290  176.2890  141.1900 C   0  0  0  0  0  1  0  0  0  0  0  0
  187.8150  177.1120  142.4290 C   0  0  0  0  0  0  0  0  0  0  0  0
  186.6740  178.3960  144.2620 C   0  0  1  0  0  3  0  0  0  0  0  0
  188.4840  176.1870  143.4860 C   0  0  2  0  0  3  0  0  0  0  0  0
  193.6720  174.5020  144.8410 F   0  0  0  0  0  0  0  0  0  0  0  0
  190.6980  177.0470  144.0610 C   0  0  1  0  0  3  0  0  0  0  0  0
  187.1470  177.4230  145.3290 C   0  0  0  0  0  2  0  0  0  0  0  0
  186.4830  177.6510  142.9470 C   0  0  0  0  0  2  0  0  0  0  0  0
  193.9720  175.4820  143.9090 C   0  0  2  0  0  3  0  0  0  0  0  0
  190.4030  174.5350  143.5080 C   0  0  0  0  0  0  0  0  0  0  0  0
  191.6680  176.5750  146.1330 C   0  0  0  0  0  0  0  0  0  0  0  0
  185.4620  178.9620  144.6550 O   0  0  0  0  0  1  0  0  0  0  0  0
  193.2300  176.7910  144.1780 C   0  0  0  0  0  2  0  0  0  0  0  0
  189.6890  173.7320  144.4130 C   0  0  0  0  0  3  0  0  0  0  0  0
  191.8860  172.6520  143.0760 C   0  0  0  0  0  3  0  0  0  0  0  0
  191.1520  171.8620  143.9610 C   0  0  0  0  0  3  0  0  0  0  0  0
  193.8240  174.9680  142.4730 C   0  0  0  0  0  2  0  0  0  0  0  0
  189.7030  177.5120  145.1530 C   0  0  1  0  0  3  0  0  0  0  0  0
  191.9030  176.5570  144.7360 N   0  0  0  0  0  0  0  0  0  0  0  0
  188.4370  176.7060  144.9270 C   0  0  2  0  0  3  0  0  0  0  0  0
  189.8810  177.2520  147.5760 O   0  0  0  0  0  0  0  0  0  0  0  0
  189.9750  175.9660  143.2260 C   0  0  1  0  0  3  0  0  0  0  0  0
  1 21  2  0  0  0  0
  1 16  1  0  0  0  0
  2  8  1  0  0  0  0
  5 27  2  0  0  0  0
  6 23  1  0  0  0  0
  6  1  1  0  0  0  0
  7  8  1  0  0  0  0
  8 14  1  0  0  0  0
  9 18  1  1  0  0  0
  9 13  1  0  0  0  0
 10  8  1  6  0  0  0
 10 26  1  0  0  0  0
 12 25  1  1  0  0  0
 12 24  1  0  0  0  0
 14  9  1  0  0  0  0
 15 19  1  0  0  0  0
 15 11  1  1  0  0  0
 16 20  2  0  0  0  0
 17  5  1  0  0  0  0
 17  3  2  0  0  0  0
 19 25  1  0  0  0  0
 20  4  1  0  0  0  0
 21 22  1  0  0  0  0
 22  4  2  0  0  0  0
 23 15  1  0  0  0  0
 24  5  1  1  0  0  0
 25 17  1  0  0  0  0
 26 24  1  0  0  0  0
 26 13  1  6  0  0  0
 28 10  1  0  0  0  0
 28 16  1  1  0  0  0
 28 12  1  0  0  0  0
M  END
>  <MODEL>
4

>  <REMARK>
 VINA RESULT:      -8.1      2.716      4.530
  Name = 
  0 active torsions:
  status: ('A' for Active; 'I' for Inactive)
                            x       y       z     vdW  Elec       q    Type
                         _______ _______ _______ _____ _____    ______ ____

>  <TORSDO>
F 0

$$$$
=
 OpenBabel11112417393D

 28 32  0  0  1  0  0  0  0  0999 V2000
  190.4230  176.5740  145.1120 C   0  0  0  0  0  0  0  0  0  0  0  0
  185.2890  176.9370  144.2330 C   0  0  0  0  0  1  0  0  0  0  0  0
  190.1920  173.5030  141.4250 O   0  0  0  0  0  0  0  0  0  0  0  0
  191.6780  178.0960  143.1240 C   0  0  0  0  0  3  0  0  0  0  0  0
  188.3450  174.9680  141.0040 C   0  0  0  0  0  0  0  0  0  0  0  0
  189.7940  175.6870  146.1430 C   0  0  0  0  0  2  0  0  0  0  0  0
  186.2460  179.1300  144.7950 C   0  0  0  0  0  1  0  0  0  0  0  0
  186.0410  178.1390  143.6670 C   0  0  0  0  0  0  0  0  0  0  0  0
  185.0110  177.9180  141.3860 C   0  0  1  0  0  3  0  0  0  0  0  0
  187.4350  177.7750  143.0790 C   0  0  2  0  0  3  0  0  0  0  0  0
  191.5040  174.0240  144.0610 F   0  0  0  0  0  0  0  0  0  0  0  0
  187.8270  175.3720  143.2970 C   0  0  1  0  0  3  0  0  0  0  0  0
  186.3650  177.7340  140.7200 C   0  0  0  0  0  2  0  0  0  0  0  0
  185.1670  178.8110  142.6100 C   0  0  0  0  0  2  0  0  0  0  0  0
  190.5180  173.5350  144.9010 C   0  0  2  0  0  3  0  0  0  0  0  0
  189.6720  177.0410  144.0140 C   0  0  0  0  0  0  0  0  0  0  0  0
  189.2700  174.2540  141.8400 C   0  0  0  0  0  0  0  0  0  0  0  0
  184.1280  178.5120  140.4860 O   0  0  0  0  0  1  0  0  0  0  0  0
  189.1660  173.4020  144.2010 C   0  0  0  0  0  2  0  0  0  0  0  0
  190.3220  177.7850  143.0140 C   0  0  0  0  0  3  0  0  0  0  0  0
  191.7810  176.9050  145.2230 C   0  0  0  0  0  3  0  0  0  0  0  0
  192.4050  177.6640  144.2340 C   0  0  0  0  0  3  0  0  0  0  0  0
  190.4590  174.3100  146.2230 C   0  0  0  0  0  2  0  0  0  0  0  0
  187.3330  175.6500  141.8560 C   0  0  1  0  0  3  0  0  0  0  0  0
  188.9640  174.4530  143.2080 N   0  0  0  0  0  0  0  0  0  0  0  0
  187.4080  177.1560  141.6780 C   0  0  2  0  0  3  0  0  0  0  0  0
  188.3620  174.9750  139.7450 O   0  0  0  0  0  0  0  0  0  0  0  0
  188.1850  176.7400  143.9200 C   0  0  1  0  0  3  0  0  0  0  0  0
  1 21  1  0  0  0  0
  1  6  1  0  0  0  0
  3 17  2  0  0  0  0
  4 22  1  0  0  0  0
  5 17  1  0  0  0  0
  6 23  1  0  0  0  0
  8  2  1  0  0  0  0
  8  7  1  0  0  0  0
  9 18  1  6  0  0  0
  9 14  1  0  0  0  0
 10  8  1  1  0  0  0
 10 28  1  0  0  0  0
 12 25  1  6  0  0  0
 12 28  1  0  0  0  0
 13  9  1  0  0  0  0
 14  8  1  0  0  0  0
 15 11  1  6  0  0  0
 15 23  1  0  0  0  0
 16  1  2  0  0  0  0
 17 25  1  0  0  0  0
 19 15  1  0  0  0  0
 20  4  2  0  0  0  0
 20 16  1  0  0  0  0
 22 21  2  0  0  0  0
 24  5  1  6  0  0  0
 24 12  1  0  0  0  0
 25 19  1  0  0  0  0
 26 13  1  6  0  0  0
 26 24  1  0  0  0  0
 26 10  1  0  0  0  0
 27  5  2  0  0  0  0
 28 16  1  6  0  0  0
M  END
>  <MODEL>
5

>  <REMARK>
 VINA RESULT:      -7.7      1.479      1.943
  Name = 
  0 active torsions:
  status: ('A' for Active; 'I' for Inactive)
                            x       y       z     vdW  Elec       q    Type
                         _______ _______ _______ _____ _____    ______ ____

>  <TORSDO>
F 0

$$$$
=
 OpenBabel11112417393D

 28 32  0  0  1  0  0  0  0  0999 V2000
  194.0570  174.0410  144.9450 C   0  0  0  0  0  0  0  0  0  0  0  0
  189.5160  174.9160  147.3700 C   0  0  0  0  0  1  0  0  0  0  0  0
  191.1560  172.9330  141.2790 O   0  0  0  0  0  0  0  0  0  0  0  0
  194.5050  176.2480  143.2780 C   0  0  0  0  0  3  0  0  0  0  0  0
  189.8410  174.4900  142.5370 C   0  0  0  0  0  0  0  0  0  0  0  0
  193.8160  172.8090  145.7630 C   0  0  0  0  0  2  0  0  0  0  0  0
  191.1910  176.6010  147.9980 C   0  0  0  0  0  1  0  0  0  0  0  0
  190.1800  176.2200  146.9350 C   0  0  0  0  0  0  0  0  0  0  0  0
  188.1270  177.0660  145.7600 C   0  0  1  0  0  3  0  0  0  0  0  0
  190.9220  176.1110  145.5720 C   0  0  2  0  0  3  0  0  0  0  0  0
  193.7030  172.1900  142.6600 F   0  0  0  0  0  0  0  0  0  0  0  0
  190.6850  173.8500  144.6750 C   0  0  1  0  0  3  0  0  0  0  0  0
  188.8480  177.1550  144.4240 C   0  0  0  0  0  2  0  0  0  0  0  0
  189.1200  177.3180  146.8880 C   0  0  0  0  0  2  0  0  0  0  0  0
  193.1840  171.4100  143.6790 C   0  0  2  0  0  3  0  0  0  0  0  0
  193.0190  174.9700  144.7250 C   0  0  0  0  0  0  0  0  0  0  0  0
  190.8200  173.4510  142.3770 C   0  0  0  0  0  0  0  0  0  0  0  0
  187.1170  178.0250  145.8070 O   0  0  0  0  0  1  0  0  0  0  0  0
  191.6880  171.6440  143.8910 C   0  0  0  0  0  2  0  0  0  0  0  0
  193.2540  176.0600  143.8690 C   0  0  0  0  0  3  0  0  0  0  0  0
  195.3150  174.2460  144.3620 C   0  0  0  0  0  3  0  0  0  0  0  0
  195.5380  175.3460  143.5330 C   0  0  0  0  0  3  0  0  0  0  0  0
  194.0170  171.5190  144.9610 C   0  0  0  0  0  2  0  0  0  0  0  0
  189.6320  174.7540  143.9870 C   0  0  1  0  0  3  0  0  0  0  0  0
  191.3150  173.0310  143.6360 N   0  0  0  0  0  0  0  0  0  0  0  0
  190.0220  176.1800  144.3350 C   0  0  2  0  0  3  0  0  0  0  0  0
  189.2230  175.0540  141.5970 O   0  0  0  0  0  0  0  0  0  0  0  0
  191.6720  174.7880  145.4060 C   0  0  1  0  0  3  0  0  0  0  0  0
  1  6  1  0  0  0  0
  3 17  2  0  0  0  0
  4 22  2  0  0  0  0
  4 20  1  0  0  0  0
  8  2  1  0  0  0  0
  8  7  1  0  0  0  0
  9 18  1  6  0  0  0
  9 14  1  0  0  0  0
 10  8  1  1  0  0  0
 12 25  1  6  0  0  0
 12 28  1  0  0  0  0
 13  9  1  0  0  0  0
 14  8  1  0  0  0  0
 15 11  1  6  0  0  0
 15 19  1  0  0  0  0
 15 23  1  0  0  0  0
 16  1  1  0  0  0  0
 17  5  1  0  0  0  0
 17 25  1  0  0  0  0
 20 16  2  0  0  0  0
 21  1  2  0  0  0  0
 22 21  1  0  0  0  0
 23  6  1  0  0  0  0
 24  5  1  6  0  0  0
 24 26  1  0  0  0  0
 24 12  1  0  0  0  0
 25 19  1  0  0  0  0
 26 13  1  1  0  0  0
 26 10  1  0  0  0  0
 27  5  2  0  0  0  0
 28 16  1  6  0  0  0
 28 10  1  0  0  0  0
M  END
>  <MODEL>
6

>  <REMARK>
 VINA RESULT:      -7.5      2.511      3.816
  Name = 
  0 active torsions:
  status: ('A' for Active; 'I' for Inactive)
                            x       y       z     vdW  Elec       q    Type
                         _______ _______ _______ _____ _____    ______ ____

>  <TORSDO>
F 0

$$$$
=
 OpenBabel11112417393D

 28 32  0  0  1  0  0  0  0  0999 V2000
  187.5600  176.6470  143.4250 C   0  0  0  0  0  0  0  0  0  0  0  0
  189.5550  171.9920  144.6950 C   0  0  0  0  0  1  0  0  0  0  0  0
  189.8220  178.0010  147.4410 O   0  0  0  0  0  0  0  0  0  0  0  0
  189.6620  178.1390  142.3270 C   0  0  0  0  0  3  0  0  0  0  0  0
  191.1250  176.1290  146.7090 C   0  0  0  0  0  0  0  0  0  0  0  0
  186.4300  175.9110  144.0770 C   0  0  0  0  0  2  0  0  0  0  0  0
  189.6530  172.3620  142.2670 C   0  0  0  0  0  1  0  0  0  0  0  0
  190.3540  172.6590  143.5770 C   0  0  0  0  0  0  0  0  0  0  0  0
  192.5540  172.3740  144.7560 C   0  0  1  0  0  3  0  0  0  0  0  0
  190.4640  174.2030  143.7330 C   0  0  2  0  0  3  0  0  0  0  0  0
  187.3510  178.4000  145.8040 F   0  0  0  0  0  0  0  0  0  0  0  0
  189.3020  174.9190  145.7600 C   0  0  1  0  0  3  0  0  0  0  0  0
  192.8100  173.8720  144.7810 C   0  0  0  0  0  2  0  0  0  0  0  0
  191.7400  172.0200  143.5180 C   0  0  0  0  0  2  0  0  0  0  0  0
  186.6150  177.3130  146.2440 C   0  0  2  0  0  3  0  0  0  0  0  0
  188.8830  176.1720  143.5340 C   0  0  0  0  0  0  0  0  0  0  0  0
  189.9130  176.8850  146.8630 C   0  0  0  0  0  0  0  0  0  0  0  0
  193.7710  171.6960  144.7220 O   0  0  0  0  0  1  0  0  0  0  0  0
  187.4810  176.2600  146.9330 C   0  0  0  0  0  2  0  0  0  0  0  0
  189.9280  176.9430  142.9970 C   0  0  0  0  0  3  0  0  0  0  0  0
  187.2990  177.8400  142.7360 C   0  0  0  0  0  3  0  0  0  0  0  0
  188.3460  178.5820  142.1880 C   0  0  0  0  0  3  0  0  0  0  0  0
  185.7140  176.7500  145.1400 C   0  0  0  0  0  2  0  0  0  0  0  0
  190.8130  174.8160  146.0830 C   0  0  1  0  0  3  0  0  0  0  0  0
  188.8090  176.1730  146.3340 N   0  0  0  0  0  0  0  0  0  0  0  0
  191.5120  174.6810  144.7420 C   0  0  2  0  0  3  0  0  0  0  0  0
  192.2660  176.5020  147.0910 O   0  0  0  0  0  0  0  0  0  0  0  0
  189.1650  174.8460  144.2230 C   0  0  1  0  0  3  0  0  0  0  0  0
  1 16  1  0  0  0  0
  1  6  1  0  0  0  0
  4 20  1  0  0  0  0
  5 17  1  0  0  0  0
  5 27  2  0  0  0  0
  6 23  1  0  0  0  0
  7  8  1  0  0  0  0
  8  2  1  0  0  0  0
  9 18  1  6  0  0  0
  9 13  1  0  0  0  0
 10  8  1  1  0  0  0
 10 28  1  0  0  0  0
 10 26  1  0  0  0  0
 12 24  1  0  0  0  0
 12 25  1  6  0  0  0
 14  8  1  0  0  0  0
 14  9  1  0  0  0  0
 15 11  1  6  0  0  0
 15 19  1  0  0  0  0
 17  3  2  0  0  0  0
 20 16  2  0  0  0  0
 21  1  2  0  0  0  0
 22  4  2  0  0  0  0
 22 21  1  0  0  0  0
 23 15  1  0  0  0  0
 24  5  1  6  0  0  0
 25 17  1  0  0  0  0
 25 19  1  0  0  0  0
 26 13  1  1  0  0  0
 26 24  1  0  0  0  0
 28 16  1  6  0  0  0
 28 12  1  0  0  0  0
M  END
>  <MODEL>
7

>  <REMARK>
 VINA RESULT:      -7.5      3.143      6.406
  Name = 
  0 active torsions:
  status: ('A' for Active; 'I' for Inactive)
                            x       y       z     vdW  Elec       q    Type
                         _______ _______ _______ _____ _____    ______ ____

>  <TORSDO>
F 0

$$$$
=
 OpenBabel11112417393D

 28 32  0  0  1  0  0  0  0  0999 V2000
  193.1470  173.9560  143.9720 C   0  0  0  0  0  0  0  0  0  0  0  0
  189.0110  174.8930  147.0180 C   0  0  0  0  0  1  0  0  0  0  0  0
  189.7500  173.3790  140.6250 O   0  0  0  0  0  0  0  0  0  0  0  0
  193.5550  176.2730  142.4520 C   0  0  0  0  0  3  0  0  0  0  0  0
  188.7170  174.8940  142.1650 C   0  0  0  0  0  0  0  0  0  0  0  0
  192.9150  172.6720  144.7080 C   0  0  0  0  0  2  0  0  0  0  0  0
  190.8720  176.4020  147.5670 C   0  0  0  0  0  1  0  0  0  0  0  0
  189.7150  176.1870  146.6130 C   0  0  0  0  0  0  0  0  0  0  0  0
  187.6040  177.2680  145.7830 C   0  0  1  0  0  3  0  0  0  0  0  0
  190.2760  176.1570  145.1630 C   0  0  2  0  0  3  0  0  0  0  0  0
  192.3810  172.3500  141.6040 F   0  0  0  0  0  0  0  0  0  0  0  0
  189.7630  174.0080  144.1170 C   0  0  1  0  0  3  0  0  0  0  0  0
  188.1620  177.4330  144.3790 C   0  0  0  0  0  2  0  0  0  0  0  0
  188.7410  177.3510  146.7930 C   0  0  0  0  0  2  0  0  0  0  0  0
  191.9320  171.5140  142.6130 C   0  0  2  0  0  3  0  0  0  0  0  0
  192.1630  174.9660  143.9640 C   0  0  0  0  0  0  0  0  0  0  0  0
  189.5880  173.8140  141.7960 C   0  0  0  0  0  0  0  0  0  0  0  0
  186.6820  178.2810  146.0380 O   0  0  0  0  0  1  0  0  0  0  0  0
  190.4950  171.8230  143.0310 C   0  0  0  0  0  2  0  0  0  0  0  0
  192.3740  176.1120  143.1790 C   0  0  0  0  0  3  0  0  0  0  0  0
  194.3370  174.1320  143.2530 C   0  0  0  0  0  3  0  0  0  0  0  0
  194.5410  175.2870  142.4980 C   0  0  0  0  0  3  0  0  0  0  0  0
  192.9190  171.4510  143.7830 C   0  0  0  0  0  2  0  0  0  0  0  0
  188.7050  175.0370  143.6470 C   0  0  1  0  0  3  0  0  0  0  0  0
  190.1990  173.2490  142.9430 N   0  0  0  0  0  0  0  0  0  0  0  0
  189.2410  176.3960  144.0600 C   0  0  2  0  0  3  0  0  0  0  0  0
  188.0340  175.5820  141.3610 O   0  0  0  0  0  0  0  0  0  0  0  0
  190.8990  174.8090  144.7930 C   0  0  1  0  0  3  0  0  0  0  0  0
  1  6  1  0  0  0  0
  3 17  2  0  0  0  0
  4 22  2  0  0  0  0
  4 20  1  0  0  0  0
  8 14  1  0  0  0  0
  8  2  1  0  0  0  0
  8  7  1  0  0  0  0
  9 18  1  1  0  0  0
  9 14  1  0  0  0  0
 10  8  1  1  0  0  0
 12 25  1  6  0  0  0
 12 28  1  0  0  0  0
 13  9  1  0  0  0  0
 15 11  1  6  0  0  0
 15 19  1  0  0  0  0
 15 23  1  0  0  0  0
 16  1  1  0  0  0  0
 17  5  1  0  0  0  0
 17 25  1  0  0  0  0
 20 16  2  0  0  0  0
 21  1  2  0  0  0  0
 22 21  1  0  0  0  0
 23  6  1  0  0  0  0
 24  5  1  6  0  0  0
 24 26  1  0  0  0  0
 24 12  1  0  0  0  0
 25 19  1  0  0  0  0
 26 13  1  1  0  0  0
 26 10  1  0  0  0  0
 27  5  2  0  0  0  0
 28 16  1  6  0  0  0
 28 10  1  0  0  0  0
M  END
>  <MODEL>
8

>  <REMARK>
 VINA RESULT:      -7.4      2.088      3.105
  Name = 
  0 active torsions:
  status: ('A' for Active; 'I' for Inactive)
                            x       y       z     vdW  Elec       q    Type
                         _______ _______ _______ _____ _____    ______ ____

>  <TORSDO>
F 0

$$$$
=
 OpenBabel11112417393D

 28 32  0  0  1  0  0  0  0  0999 V2000
  191.9110  173.5180  142.5180 C   0  0  0  0  0  0  0  0  0  0  0  0
  188.8460  177.7220  142.9570 C   0  0  0  0  0  1  0  0  0  0  0  0
  193.9590  175.3900  146.4400 O   0  0  0  0  0  0  0  0  0  0  0  0
  191.0330  171.6910  144.4520 C   0  0  0  0  0  3  0  0  0  0  0  0
  191.7130  176.2070  146.5800 C   0  0  0  0  0  0  0  0  0  0  0  0
  192.4590  174.4970  141.5260 C   0  0  0  0  0  2  0  0  0  0  0  0
  187.5470  175.7510  142.2750 C   0  0  0  0  0  1  0  0  0  0  0  0
  188.1490  176.4640  143.4690 C   0  0  0  0  0  0  0  0  0  0  0  0
  187.5340  177.5020  145.6730 C   0  0  1  0  0  3  0  0  0  0  0  0
  189.1080  175.4780  144.1940 C   0  0  2  0  0  3  0  0  0  0  0  0
  194.5070  173.9480  143.8780 F   0  0  0  0  0  0  0  0  0  0  0  0
  191.3740  176.3940  144.2260 C   0  0  1  0  0  3  0  0  0  0  0  0
  188.3110  176.4560  146.4570 C   0  0  0  0  0  2  0  0  0  0  0  0
  187.0020  176.8790  144.3890 C   0  0  0  0  0  2  0  0  0  0  0  0
  194.5110  175.0280  143.0110 C   0  0  2  0  0  3  0  0  0  0  0  0
  190.9960  173.9360  143.5080 C   0  0  0  0  0  0  0  0  0  0  0  0
  192.8950  175.7760  145.8880 C   0  0  0  0  0  0  0  0  0  0  0  0
  186.4680  177.9620  146.4430 O   0  0  0  0  0  1  0  0  0  0  0  0
  193.8430  176.2630  143.6130 C   0  0  0  0  0  2  0  0  0  0  0  0
  190.5830  173.0120  144.4830 C   0  0  0  0  0  3  0  0  0  0  0  0
  192.3440  172.1850  142.4840 C   0  0  0  0  0  3  0  0  0  0  0  0
  191.9060  171.2750  143.4460 C   0  0  0  0  0  3  0  0  0  0  0  0
  193.9800  174.6480  141.6240 C   0  0  0  0  0  2  0  0  0  0  0  0
  190.7120  176.6980  145.5940 C   0  0  1  0  0  3  0  0  0  0  0  0
  192.7300  175.9060  144.4870 N   0  0  0  0  0  0  0  0  0  0  0  0
  189.4530  175.8510  145.6390 C   0  0  2  0  0  3  0  0  0  0  0  0
  191.5670  176.2130  147.8310 O   0  0  0  0  0  0  0  0  0  0  0  0
  190.4720  175.3620  143.5110 C   0  0  1  0  0  3  0  0  0  0  0  0
  1 16  1  0  0  0  0
  2  8  1  0  0  0  0
  4 20  1  0  0  0  0
  5 27  2  0  0  0  0
  6 23  1  0  0  0  0
  6  1  1  0  0  0  0
  7  8  1  0  0  0  0
  8 14  1  0  0  0  0
  9 18  1  1  0  0  0
  9 13  1  0  0  0  0
 10  8  1  6  0  0  0
 10 26  1  0  0  0  0
 12 25  1  1  0  0  0
 12 24  1  0  0  0  0
 14  9  1  0  0  0  0
 15 19  1  0  0  0  0
 15 11  1  1  0  0  0
 16 20  2  0  0  0  0
 17  3  2  0  0  0  0
 17  5  1  0  0  0  0
 19 25  1  0  0  0  0
 21  1  2  0  0  0  0
 21 22  1  0  0  0  0
 22  4  2  0  0  0  0
 23 15  1  0  0  0  0
 24 26  1  0  0  0  0
 24  5  1  1  0  0  0
 25 17  1  0  0  0  0
 26 13  1  6  0  0  0
 28 16  1  1  0  0  0
 28 10  1  0  0  0  0
 28 12  1  0  0  0  0
M  END
>  <MODEL>
9

>  <REMARK>
 VINA RESULT:      -7.3      3.047      5.015
  Name = 
  0 active torsions:
  status: ('A' for Active; 'I' for Inactive)
                            x       y       z     vdW  Elec       q    Type
                         _______ _______ _______ _____ _____    ______ ____

>  <TORSDO>
F 0

$$$$
