=
 OpenBabel11112417183D

 37 43  0  0  1  0  0  0  0  0999 V2000
  194.9190  175.4560  142.9680 C   0  0  0  0  0  0  0  0  0  0  0  0
  191.4760  176.8390  144.9590 C   0  0  2  0  0  3  0  0  0  0  0  0
  188.0030  176.3900  143.2670 O   0  0  0  0  0  0  0  0  0  0  0  0
  193.9000  176.0490  145.0120 C   0  0  2  0  0  3  0  0  0  0  0  0
  190.4140  176.1370  144.1470 C   0  0  1  0  0  3  0  0  0  0  0  0
  192.7390  176.5270  144.1970 C   0  0  1  0  0  3  0  0  0  0  0  0
  189.0210  176.8750  144.1660 C   0  0  2  0  0  3  0  0  0  0  0  0
  193.9680  176.8350  146.1740 O   0  0  0  0  0  0  0  0  0  0  0  0
  192.4730  175.4950  143.2320 N   0  0  2  0  0  0  0  0  0  0  0  0
  195.1470  173.9720  143.2180 C   0  0  0  0  0  1  0  0  0  0  0  0
  190.4180  176.8810  147.2850 C   0  0  0  0  0  2  0  0  0  0  0  0
  192.9220  176.4140  147.0450 C   0  0  0  0  0  2  0  0  0  0  0  0
  193.5390  175.6650  142.2520 C   0  0  0  0  0  2  0  0  0  0  0  0
  187.8740  174.5730  141.6820 O   0  0  0  0  0  0  0  0  0  0  0  0
  188.3320  175.0830  142.9080 C   0  0  1  0  0  3  0  0  0  0  0  0
  191.5170  176.2950  146.3850 C   0  0  2  0  0  3  0  0  0  0  0  0
  191.1310  175.8440  142.8050 C   0  0  1  0  0  3  0  0  0  0  0  0
  195.0560  176.1890  144.2000 O   0  0  0  0  0  0  0  0  0  0  0  0
  188.4700  176.9150  145.6140 C   0  0  1  0  0  3  0  0  0  0  0  0
  195.9990  175.9260  142.0180 C   0  0  0  0  0  1  0  0  0  0  0  0
  189.0740  175.3040  141.6340 C   0  0  1  0  0  3  0  0  0  0  0  0
  190.4560  174.7340  141.9560 C   0  0  2  0  0  3  0  0  0  0  0  0
  189.3560  177.7310  146.5670 C   0  0  0  0  0  2  0  0  0  0  0  0
  186.1180  176.7870  146.4530 C   0  0  0  0  0  3  0  0  0  0  0  0
  187.0670  177.4460  145.6660 C   0  0  0  0  0  0  0  0  0  0  0  0
  186.6940  178.5860  144.9360 C   0  0  0  0  0  3  0  0  0  0  0  0
  185.0220  180.1570  144.2930 F   0  0  0  0  0  0  0  0  0  0  0  0
  184.4340  178.3940  145.7860 C   0  0  0  0  0  3  0  0  0  0  0  0
  185.3790  179.0580  144.9970 C   0  0  0  0  0  0  0  0  0  0  0  0
  184.8030  177.2590  146.5130 C   0  0  0  0  0  3  0  0  0  0  0  0
  190.4110  173.4940  142.6240 O   0  0  0  0  0  0  0  0  0  0  0  0
  191.0630  172.5770  141.7880 C   0  0  1  0  0  3  0  0  0  0  0  0
  192.0720  172.1680  143.9200 O   0  0  0  0  0  1  0  0  0  0  0  0
  192.1040  171.7950  142.5770 C   0  0  0  0  0  2  0  0  0  0  0  0
  190.0650  171.6270  141.1190 C   0  0  0  0  0  2  0  0  0  0  0  0
  189.9050  171.8800  139.6240 C   0  0  0  0  0  2  0  0  0  0  0  0
  188.6070  172.3040  139.3430 O   0  0  0  0  0  1  0  0  0  0  0  0
  1 10  1  0  0  0  0
  1 18  1  0  0  0  0
  2 16  1  0  0  0  0
  3  7  1  0  0  0  0
  4  8  1  0  0  0  0
  5  7  1  0  0  0  0
  5  2  1  0  0  0  0
  6  2  1  0  0  0  0
  6  4  1  0  0  0  0
  7 19  1  0  0  0  0
  8 12  1  0  0  0  0
  9  6  1  0  0  0  0
 13  1  1  0  0  0  0
 13  9  1  0  0  0  0
 14 15  1  0  0  0  0
 15  3  1  0  0  0  0
 16 12  1  0  0  0  0
 16 11  1  0  0  0  0
 17  9  1  0  0  0  0
 17  5  1  0  0  0  0
 18  4  1  0  0  0  0
 19 25  1  0  0  0  0
 19 23  1  0  0  0  0
 20  1  1  0  0  0  0
 21 14  1  0  0  0  0
 21 22  1  0  0  0  0
 21 15  1  0  0  0  0
 22 31  1  0  0  0  0
 22 17  1  0  0  0  0
 23 11  1  0  0  0  0
 24 30  1  0  0  0  0
 25 24  2  0  0  0  0
 26 29  2  0  0  0  0
 26 25  1  0  0  0  0
 27 29  1  0  0  0  0
 28 30  2  0  0  0  0
 29 28  1  0  0  0  0
 32 34  1  0  0  0  0
 32 31  1  0  0  0  0
 34 33  1  0  0  0  0
 35 32  1  0  0  0  0
 36 35  1  0  0  0  0
 37 36  1  0  0  0  0
M  END
>  <MODEL>
1

>  <REMARK>
 VINA RESULT:      -8.3      0.000      0.000
  Name = 
  6 active torsions:
  status: ('A' for Active; 'I' for Inactive)
    1  A    between atoms: O_1  and  C_4
    2  A    between atoms: O_1  and  C_27
    3  A    between atoms: C_4  and  C_12
    4  A    between atoms: C_4  and  C_37
    5  A    between atoms: C_8  and  C_12
    6  A    between atoms: C_23  and  C_30
                            x       y       z     vdW  Elec       q    Type
                         _______ _______ _______ _____ _____    ______ ____

>  <TORSDO>
F 6

$$$$
=
 OpenBabel11112417183D

 37 43  0  0  1  0  0  0  0  0999 V2000
  192.3580  171.0910  142.9720 C   0  0  0  0  0  0  0  0  0  0  0  0
  189.1780  173.8500  142.9730 C   0  0  2  0  0  3  0  0  0  0  0  0
  188.7780  176.2750  145.9870 O   0  0  0  0  0  0  0  0  0  0  0  0
  190.7780  172.3150  141.7170 C   0  0  2  0  0  3  0  0  0  0  0  0
  189.6390  174.7690  144.0790 C   0  0  1  0  0  3  0  0  0  0  0  0
  190.1860  172.7320  143.0270 C   0  0  1  0  0  3  0  0  0  0  0  0
  188.4580  175.5290  144.7960 C   0  0  2  0  0  3  0  0  0  0  0  0
  189.7450  172.2710  140.7660 O   0  0  0  0  0  0  0  0  0  0  0  0
  191.2900  173.1210  143.8600 N   0  0  2  0  0  0  0  0  0  0  0  0
  193.6410  171.7220  142.4510 C   0  0  0  0  0  1  0  0  0  0  0  0
  187.9650  175.4720  141.4150 C   0  0  0  0  0  2  0  0  0  0  0  0
  189.4150  173.6140  140.4220 C   0  0  0  0  0  2  0  0  0  0  0  0
  191.8790  171.8490  144.2590 C   0  0  0  0  0  2  0  0  0  0  0  0
  190.8160  176.7300  147.2010 O   0  0  0  0  0  0  0  0  0  0  0  0
  190.1500  176.5310  145.9810 C   0  0  1  0  0  3  0  0  0  0  0  0
  189.1920  174.5730  141.6280 C   0  0  2  0  0  3  0  0  0  0  0  0
  190.6120  173.8790  144.8950 C   0  0  1  0  0  3  0  0  0  0  0  0
  191.3730  171.0420  141.9210 O   0  0  0  0  0  0  0  0  0  0  0  0
  187.7320  176.4460  143.7790 C   0  0  1  0  0  3  0  0  0  0  0  0
  192.6840  169.6690  143.3770 C   0  0  0  0  0  1  0  0  0  0  0  0
  190.6670  175.3920  146.7920 C   0  0  1  0  0  3  0  0  0  0  0  0
  191.5850  174.6760  145.8030 C   0  0  2  0  0  3  0  0  0  0  0  0
  187.0580  175.6610  142.6430 C   0  0  0  0  0  2  0  0  0  0  0  0
  185.9420  176.8090  145.4870 C   0  0  0  0  0  3  0  0  0  0  0  0
  186.7150  177.3270  144.4430 C   0  0  0  0  0  0  0  0  0  0  0  0
  186.5250  178.6560  144.0310 C   0  0  0  0  0  3  0  0  0  0  0  0
  185.3870  180.7360  144.2640 F   0  0  0  0  0  0  0  0  0  0  0  0
  184.7980  178.9310  145.7050 C   0  0  0  0  0  3  0  0  0  0  0  0
  185.5670  179.4550  144.6630 C   0  0  0  0  0  0  0  0  0  0  0  0
  184.9850  177.6090  146.1170 C   0  0  0  0  0  3  0  0  0  0  0  0
  192.4160  175.5490  145.0720 O   0  0  0  0  0  0  0  0  0  0  0  0
  193.6980  174.9840  145.1020 C   0  0  1  0  0  3  0  0  0  0  0  0
  193.6810  176.0630  142.9650 O   0  0  0  0  0  1  0  0  0  0  0  0
  194.3700  175.1350  143.7450 C   0  0  0  0  0  2  0  0  0  0  0  0
  194.5570  175.6120  146.2040 C   0  0  0  0  0  2  0  0  0  0  0  0
  194.1730  177.0540  146.5140 C   0  0  0  0  0  2  0  0  0  0  0  0
  194.9410  177.9320  145.7500 O   0  0  0  0  0  1  0  0  0  0  0  0
  1 20  1  0  0  0  0
  1 13  1  0  0  0  0
  2  6  1  0  0  0  0
  2  5  1  0  0  0  0
  4 18  1  0  0  0  0
  4  6  1  0  0  0  0
  5  7  1  0  0  0  0
  5 17  1  0  0  0  0
  6  9  1  0  0  0  0
  7  3  1  0  0  0  0
  8  4  1  0  0  0  0
  9 13  1  0  0  0  0
  9 17  1  0  0  0  0
 10  1  1  0  0  0  0
 11 16  1  0  0  0  0
 11 23  1  0  0  0  0
 12  8  1  0  0  0  0
 12 16  1  0  0  0  0
 15  3  1  0  0  0  0
 15 21  1  0  0  0  0
 15 14  1  0  0  0  0
 16  2  1  0  0  0  0
 17 22  1  0  0  0  0
 18  1  1  0  0  0  0
 19 25  1  0  0  0  0
 19  7  1  0  0  0  0
 21 14  1  0  0  0  0
 22 21  1  0  0  0  0
 23 19  1  0  0  0  0
 24 30  1  0  0  0  0
 25 24  2  0  0  0  0
 26 25  1  0  0  0  0
 26 29  2  0  0  0  0
 27 29  1  0  0  0  0
 28 30  2  0  0  0  0
 29 28  1  0  0  0  0
 31 32  1  0  0  0  0
 31 22  1  0  0  0  0
 32 35  1  0  0  0  0
 33 34  1  0  0  0  0
 34 32  1  0  0  0  0
 35 36  1  0  0  0  0
 37 36  1  0  0  0  0
M  END
>  <MODEL>
2

>  <REMARK>
 VINA RESULT:      -8.1      1.660      5.043
  Name = 
  6 active torsions:
  status: ('A' for Active; 'I' for Inactive)
    1  A    between atoms: O_1  and  C_4
    2  A    between atoms: O_1  and  C_27
    3  A    between atoms: C_4  and  C_12
    4  A    between atoms: C_4  and  C_37
    5  A    between atoms: C_8  and  C_12
    6  A    between atoms: C_23  and  C_30
                            x       y       z     vdW  Elec       q    Type
                         _______ _______ _______ _____ _____    ______ ____

>  <TORSDO>
F 6

$$$$
=
 OpenBabel11112417183D

 37 43  0  0  1  0  0  0  0  0999 V2000
  192.4720  171.4630  142.8130 C   0  0  0  0  0  0  0  0  0  0  0  0
  189.1470  174.0470  142.8420 C   0  0  2  0  0  3  0  0  0  0  0  0
  188.8000  176.6510  145.7090 O   0  0  0  0  0  0  0  0  0  0  0  0
  190.7500  172.5130  141.5870 C   0  0  2  0  0  3  0  0  0  0  0  0
  189.6240  175.0620  143.8520 C   0  0  1  0  0  3  0  0  0  0  0  0
  190.2190  172.9880  142.9030 C   0  0  1  0  0  3  0  0  0  0  0  0
  188.4490  175.8080  144.5940 C   0  0  2  0  0  3  0  0  0  0  0  0
  189.6630  172.3490  140.7120 O   0  0  0  0  0  0  0  0  0  0  0  0
  191.3490  173.4920  143.6340 N   0  0  2  0  0  0  0  0  0  0  0  0
  193.6820  172.1230  142.1680 C   0  0  0  0  0  1  0  0  0  0  0  0
  187.7490  175.4910  141.2640 C   0  0  0  0  0  2  0  0  0  0  0  0
  189.2370  173.6460  140.3020 C   0  0  0  0  0  2  0  0  0  0  0  0
  192.0330  172.2830  144.0760 C   0  0  0  0  0  2  0  0  0  0  0  0
  190.8810  177.2940  146.7530 O   0  0  0  0  0  0  0  0  0  0  0  0
  190.1520  176.9770  145.5960 C   0  0  1  0  0  3  0  0  0  0  0  0
  189.0360  174.6730  141.4540 C   0  0  2  0  0  3  0  0  0  0  0  0
  190.6940  174.2840  144.6590 C   0  0  1  0  0  3  0  0  0  0  0  0
  191.4280  171.2900  141.8360 O   0  0  0  0  0  0  0  0  0  0  0  0
  187.6100  176.6130  143.5690 C   0  0  1  0  0  3  0  0  0  0  0  0
  192.9030  170.0920  143.2880 C   0  0  0  0  0  1  0  0  0  0  0  0
  190.7820  175.9260  146.4440 C   0  0  1  0  0  3  0  0  0  0  0  0
  191.6760  175.1910  145.4460 C   0  0  2  0  0  3  0  0  0  0  0  0
  186.9120  175.7170  142.5350 C   0  0  0  0  0  2  0  0  0  0  0  0
  186.4950  178.8300  143.8730 C   0  0  0  0  0  3  0  0  0  0  0  0
  186.5890  177.4840  144.2390 C   0  0  0  0  0  0  0  0  0  0  0  0
  185.7330  176.9710  145.2270 C   0  0  0  0  0  3  0  0  0  0  0  0
  183.9680  177.3080  146.7930 F   0  0  0  0  0  0  0  0  0  0  0  0
  184.7040  179.1500  145.4700 C   0  0  0  0  0  3  0  0  0  0  0  0
  184.7920  177.8050  145.8410 C   0  0  0  0  0  0  0  0  0  0  0  0
  185.5550  179.6620  144.4870 C   0  0  0  0  0  3  0  0  0  0  0  0
  192.4090  176.0540  144.6050 O   0  0  0  0  0  0  0  0  0  0  0  0
  193.7540  175.8990  144.9660 C   0  0  1  0  0  3  0  0  0  0  0  0
  194.2150  177.1240  146.9710 O   0  0  0  0  0  1  0  0  0  0  0  0
  194.2840  177.1880  145.5800 C   0  0  0  0  0  2  0  0  0  0  0  0
  193.9400  174.7240  145.9320 C   0  0  0  0  0  2  0  0  0  0  0  0
  195.1000  173.8120  145.5490 C   0  0  0  0  0  2  0  0  0  0  0  0
  195.5670  174.1350  144.2750 O   0  0  0  0  0  1  0  0  0  0  0  0
  1 20  1  0  0  0  0
  1 13  1  0  0  0  0
  2  6  1  0  0  0  0
  2  5  1  0  0  0  0
  4 18  1  0  0  0  0
  4  6  1  0  0  0  0
  5  7  1  0  0  0  0
  5 17  1  0  0  0  0
  6  9  1  0  0  0  0
  7  3  1  0  0  0  0
  8  4  1  0  0  0  0
  9 13  1  0  0  0  0
  9 17  1  0  0  0  0
 10  1  1  0  0  0  0
 11 16  1  0  0  0  0
 11 23  1  0  0  0  0
 12  8  1  0  0  0  0
 12 16  1  0  0  0  0
 15  3  1  0  0  0  0
 15 21  1  0  0  0  0
 15 14  1  0  0  0  0
 16  2  1  0  0  0  0
 17 22  1  0  0  0  0
 18  1  1  0  0  0  0
 19 25  1  0  0  0  0
 19  7  1  0  0  0  0
 21 14  1  0  0  0  0
 22 21  1  0  0  0  0
 23 19  1  0  0  0  0
 24 25  2  0  0  0  0
 24 30  1  0  0  0  0
 25 26  1  0  0  0  0
 26 29  2  0  0  0  0
 28 29  1  0  0  0  0
 29 27  1  0  0  0  0
 30 28  2  0  0  0  0
 31 32  1  0  0  0  0
 31 22  1  0  0  0  0
 32 34  1  0  0  0  0
 32 35  1  0  0  0  0
 34 33  1  0  0  0  0
 36 35  1  0  0  0  0
 37 36  1  0  0  0  0
M  END
>  <MODEL>
3

>  <REMARK>
 VINA RESULT:      -7.9      1.865      5.012
  Name = 
  6 active torsions:
  status: ('A' for Active; 'I' for Inactive)
    1  A    between atoms: O_1  and  C_4
    2  A    between atoms: O_1  and  C_27
    3  A    between atoms: C_4  and  C_12
    4  A    between atoms: C_4  and  C_37
    5  A    between atoms: C_8  and  C_12
    6  A    between atoms: C_23  and  C_30
                            x       y       z     vdW  Elec       q    Type
                         _______ _______ _______ _____ _____    ______ ____

>  <TORSDO>
F 6

$$$$
=
 OpenBabel11112417183D

 37 43  0  0  1  0  0  0  0  0999 V2000
  191.3040  172.1840  140.9130 C   0  0  0  0  0  0  0  0  0  0  0  0
  188.3590  174.7110  142.5440 C   0  0  2  0  0  3  0  0  0  0  0  0
  188.8390  176.0970  146.1460 O   0  0  0  0  0  0  0  0  0  0  0  0
  189.5200  173.6790  140.5240 C   0  0  2  0  0  3  0  0  0  0  0  0
  189.1240  175.2660  143.7220 C   0  0  1  0  0  3  0  0  0  0  0  0
  189.2950  173.6610  142.0030 C   0  0  1  0  0  3  0  0  0  0  0  0
  188.1960  175.7360  144.9070 C   0  0  2  0  0  3  0  0  0  0  0  0
  188.2820  173.8920  139.8970 O   0  0  0  0  0  0  0  0  0  0  0  0
  190.5890  173.8150  142.6090 N   0  0  2  0  0  0  0  0  0  0  0  0
  192.4460  172.9840  140.3000 C   0  0  0  0  0  1  0  0  0  0  0  0
  186.8720  176.6890  141.9040 C   0  0  0  0  0  2  0  0  0  0  0  0
  187.9400  175.2650  140.0670 C   0  0  0  0  0  2  0  0  0  0  0  0
  191.1990  172.5020  142.4440 C   0  0  0  0  0  2  0  0  0  0  0  0
  191.1330  176.2270  146.8860 O   0  0  0  0  0  0  0  0  0  0  0  0
  190.1750  176.3860  145.8720 C   0  0  1  0  0  3  0  0  0  0  0  0
  188.0700  175.8070  141.5210 C   0  0  2  0  0  3  0  0  0  0  0  0
  190.2270  174.2030  143.9590 C   0  0  1  0  0  3  0  0  0  0  0  0
  190.0880  172.4240  140.1800 O   0  0  0  0  0  0  0  0  0  0  0  0
  187.2830  176.8940  144.4300 C   0  0  1  0  0  3  0  0  0  0  0  0
  191.6550  170.7180  140.7750 C   0  0  0  0  0  1  0  0  0  0  0  0
  190.8240  175.0720  146.1460 C   0  0  1  0  0  3  0  0  0  0  0  0
  191.4320  174.7180  144.7890 C   0  0  2  0  0  3  0  0  0  0  0  0
  186.3110  176.4680  143.3190 C   0  0  0  0  0  2  0  0  0  0  0  0
  185.1100  177.4280  145.5460 C   0  0  0  0  0  3  0  0  0  0  0  0
  186.5070  177.5000  145.5620 C   0  0  0  0  0  0  0  0  0  0  0  0
  187.1580  178.1400  146.6290 C   0  0  0  0  0  3  0  0  0  0  0  0
  187.0420  179.3180  148.6970 F   0  0  0  0  0  0  0  0  0  0  0  0
  185.0160  178.6260  147.6480 C   0  0  0  0  0  3  0  0  0  0  0  0
  186.4110  178.7010  147.6690 C   0  0  0  0  0  0  0  0  0  0  0  0
  184.3650  177.9890  146.5870 C   0  0  0  0  0  3  0  0  0  0  0  0
  192.0940  175.7980  144.1700 O   0  0  0  0  0  0  0  0  0  0  0  0
  193.4630  175.5030  144.2330 C   0  0  1  0  0  3  0  0  0  0  0  0
  193.4400  176.3570  141.9960 O   0  0  0  0  0  1  0  0  0  0  0  0
  194.0470  175.4180  142.8290 C   0  0  0  0  0  2  0  0  0  0  0  0
  194.2170  176.5410  145.0700 C   0  0  0  0  0  2  0  0  0  0  0  0
  194.5880  176.0350  146.4590 C   0  0  0  0  0  2  0  0  0  0  0  0
  195.3910  174.9000  146.3600 O   0  0  0  0  0  1  0  0  0  0  0  0
  1 13  1  0  0  0  0
  2  5  1  0  0  0  0
  4  6  1  0  0  0  0
  5 17  1  0  0  0  0
  5  7  1  0  0  0  0
  6  2  1  0  0  0  0
  6  9  1  0  0  0  0
  7  3  1  0  0  0  0
  8 12  1  0  0  0  0
  8  4  1  0  0  0  0
  9 17  1  0  0  0  0
 10  1  1  0  0  0  0
 11 23  1  0  0  0  0
 12 16  1  0  0  0  0
 13  9  1  0  0  0  0
 15 21  1  0  0  0  0
 15  3  1  0  0  0  0
 15 14  1  0  0  0  0
 16 11  1  0  0  0  0
 16  2  1  0  0  0  0
 17 22  1  0  0  0  0
 18  4  1  0  0  0  0
 18  1  1  0  0  0  0
 19  7  1  0  0  0  0
 19 25  1  0  0  0  0
 20  1  1  0  0  0  0
 21 14  1  0  0  0  0
 22 21  1  0  0  0  0
 23 19  1  0  0  0  0
 24 25  2  0  0  0  0
 24 30  1  0  0  0  0
 25 26  1  0  0  0  0
 26 29  2  0  0  0  0
 28 29  1  0  0  0  0
 29 27  1  0  0  0  0
 30 28  2  0  0  0  0
 31 32  1  0  0  0  0
 31 22  1  0  0  0  0
 32 35  1  0  0  0  0
 33 34  1  0  0  0  0
 34 32  1  0  0  0  0
 35 36  1  0  0  0  0
 37 36  1  0  0  0  0
M  END
>  <MODEL>
4

>  <REMARK>
 VINA RESULT:      -7.5      1.964      5.149
  Name = 
  6 active torsions:
  status: ('A' for Active; 'I' for Inactive)
    1  A    between atoms: O_1  and  C_4
    2  A    between atoms: O_1  and  C_27
    3  A    between atoms: C_4  and  C_12
    4  A    between atoms: C_4  and  C_37
    5  A    between atoms: C_8  and  C_12
    6  A    between atoms: C_23  and  C_30
                            x       y       z     vdW  Elec       q    Type
                         _______ _______ _______ _____ _____    ______ ____

>  <TORSDO>
F 6

$$$$
=
 OpenBabel11112417183D

 37 43  0  0  1  0  0  0  0  0999 V2000
  194.8230  174.6380  141.5010 C   0  0  0  0  0  0  0  0  0  0  0  0
  191.7850  176.3480  143.8610 C   0  0  2  0  0  3  0  0  0  0  0  0
  188.0690  175.5790  143.0100 O   0  0  0  0  0  0  0  0  0  0  0  0
  194.2020  175.5940  143.5670 C   0  0  2  0  0  3  0  0  0  0  0  0
  190.6140  175.5040  143.4190 C   0  0  1  0  0  3  0  0  0  0  0  0
  192.8850  175.9070  142.9300 C   0  0  1  0  0  3  0  0  0  0  0  0
  189.2220  176.2260  143.5840 C   0  0  2  0  0  3  0  0  0  0  0  0
  194.4650  176.5800  144.5320 O   0  0  0  0  0  0  0  0  0  0  0  0
  192.4780  174.7140  142.2390 N   0  0  2  0  0  0  0  0  0  0  0  0
  195.1580  173.2270  141.9630 C   0  0  0  0  0  1  0  0  0  0  0  0
  191.2040  176.8140  146.3060 C   0  0  0  0  0  2  0  0  0  0  0  0
  193.6290  176.3220  145.6560 C   0  0  0  0  0  2  0  0  0  0  0  0
  193.3230  174.7060  141.0510 C   0  0  0  0  0  2  0  0  0  0  0  0
  187.7060  173.5000  141.8360 O   0  0  0  0  0  0  0  0  0  0  0  0
  188.3750  174.2300  142.8330 C   0  0  1  0  0  3  0  0  0  0  0  0
  192.1280  176.0760  145.3240 C   0  0  2  0  0  3  0  0  0  0  0  0
  191.0650  174.9720  142.0350 C   0  0  1  0  0  3  0  0  0  0  0  0
  195.1700  175.5870  142.5280 O   0  0  0  0  0  0  0  0  0  0  0  0
  188.9650  176.5300  145.0820 C   0  0  1  0  0  3  0  0  0  0  0  0
  195.6760  174.9300  140.2840 C   0  0  0  0  0  1  0  0  0  0  0  0
  188.8420  174.2160  141.4170 C   0  0  1  0  0  3  0  0  0  0  0  0
  190.2820  173.7220  141.5530 C   0  0  2  0  0  3  0  0  0  0  0  0
  189.9870  177.5120  145.6760 C   0  0  0  0  0  2  0  0  0  0  0  0
  186.7450  176.3920  146.2240 C   0  0  0  0  0  3  0  0  0  0  0  0
  187.5800  177.0550  145.3190 C   0  0  0  0  0  0  0  0  0  0  0  0
  187.1080  178.1920  144.6440 C   0  0  0  0  0  3  0  0  0  0  0  0
  185.3580  179.7560  144.2260 F   0  0  0  0  0  0  0  0  0  0  0  0
  184.9810  177.9910  145.7850 C   0  0  0  0  0  3  0  0  0  0  0  0
  185.8100  178.6580  144.8780 C   0  0  0  0  0  0  0  0  0  0  0  0
  185.4480  176.8590  146.4580 C   0  0  0  0  0  3  0  0  0  0  0  0
  190.4210  172.6250  142.4280 O   0  0  0  0  0  0  0  0  0  0  0  0
  191.2260  171.6920  141.7590 C   0  0  1  0  0  3  0  0  0  0  0  0
  191.9750  171.4690  144.0220 O   0  0  0  0  0  1  0  0  0  0  0  0
  192.2860  171.1420  142.7030 C   0  0  0  0  0  2  0  0  0  0  0  0
  190.3860  170.5560  141.1680 C   0  0  0  0  0  2  0  0  0  0  0  0
  190.9420  169.1720  141.4860 C   0  0  0  0  0  2  0  0  0  0  0  0
  191.3820  168.5500  140.3180 O   0  0  0  0  0  1  0  0  0  0  0  0
  1 10  1  0  0  0  0
  1 18  1  0  0  0  0
  2 16  1  0  0  0  0
  3  7  1  0  0  0  0
  4  8  1  0  0  0  0
  5  7  1  0  0  0  0
  5  2  1  0  0  0  0
  6  4  1  0  0  0  0
  6  2  1  0  0  0  0
  7 19  1  0  0  0  0
  8 12  1  0  0  0  0
  9  6  1  0  0  0  0
 13  1  1  0  0  0  0
 13  9  1  0  0  0  0
 14 15  1  0  0  0  0
 15  3  1  0  0  0  0
 16 12  1  0  0  0  0
 16 11  1  0  0  0  0
 17  9  1  0  0  0  0
 17  5  1  0  0  0  0
 18  4  1  0  0  0  0
 19 25  1  0  0  0  0
 19 23  1  0  0  0  0
 20  1  1  0  0  0  0
 21 22  1  0  0  0  0
 21 14  1  0  0  0  0
 21 15  1  0  0  0  0
 22 17  1  0  0  0  0
 22 31  1  0  0  0  0
 23 11  1  0  0  0  0
 24 30  1  0  0  0  0
 25 24  2  0  0  0  0
 26 29  2  0  0  0  0
 26 25  1  0  0  0  0
 27 29  1  0  0  0  0
 28 30  2  0  0  0  0
 29 28  1  0  0  0  0
 32 31  1  0  0  0  0
 32 34  1  0  0  0  0
 34 33  1  0  0  0  0
 35 36  1  0  0  0  0
 35 32  1  0  0  0  0
 37 36  1  0  0  0  0
M  END
>  <MODEL>
5

>  <REMARK>
 VINA RESULT:      -7.1      1.351      1.494
  Name = 
  6 active torsions:
  status: ('A' for Active; 'I' for Inactive)
    1  A    between atoms: O_1  and  C_4
    2  A    between atoms: O_1  and  C_27
    3  A    between atoms: C_4  and  C_12
    4  A    between atoms: C_4  and  C_37
    5  A    between atoms: C_8  and  C_12
    6  A    between atoms: C_23  and  C_30
                            x       y       z     vdW  Elec       q    Type
                         _______ _______ _______ _____ _____    ______ ____

>  <TORSDO>
F 6

$$$$
=
 OpenBabel11112417183D

 37 43  0  0  1  0  0  0  0  0999 V2000
  185.6250  178.1030  146.0580 C   0  0  0  0  0  0  0  0  0  0  0  0
  189.1560  175.8370  145.7110 C   0  0  2  0  0  3  0  0  0  0  0  0
  189.7330  173.7130  142.5050 O   0  0  0  0  0  0  0  0  0  0  0  0
  187.8640  177.7830  146.7310 C   0  0  2  0  0  3  0  0  0  0  0  0
  189.1110  175.5210  144.2350 C   0  0  1  0  0  3  0  0  0  0  0  0
  187.8280  176.5080  145.9490 C   0  0  1  0  0  3  0  0  0  0  0  0
  189.8840  174.2010  143.8530 C   0  0  2  0  0  3  0  0  0  0  0  0
  188.7560  177.6120  147.8030 O   0  0  0  0  0  0  0  0  0  0  0  0
  187.2190  176.8270  144.6870 N   0  0  2  0  0  0  0  0  0  0  0  0
  185.7580  179.4500  145.3620 C   0  0  0  0  0  1  0  0  0  0  0  0
  191.6710  176.0140  146.1340 C   0  0  0  0  0  2  0  0  0  0  0  0
  190.0790  177.6580  147.2780 C   0  0  0  0  0  2  0  0  0  0  0  0
  185.8040  176.9470  145.0140 C   0  0  0  0  0  2  0  0  0  0  0  0
  188.5650  174.4990  140.5430 O   0  0  0  0  0  0  0  0  0  0  0  0
  189.3000  174.7730  141.7080 C   0  0  1  0  0  3  0  0  0  0  0  0
  190.3310  176.7590  146.0320 C   0  0  2  0  0  3  0  0  0  0  0  0
  187.6100  175.6830  143.8850 C   0  0  1  0  0  3  0  0  0  0  0  0
  186.5370  178.0330  147.1710 O   0  0  0  0  0  0  0  0  0  0  0  0
  191.3880  174.3580  144.1920 C   0  0  1  0  0  3  0  0  0  0  0  0
  184.2140  178.0110  146.6010 C   0  0  0  0  0  1  0  0  0  0  0  0
  187.8220  174.5770  141.7340 C   0  0  1  0  0  3  0  0  0  0  0  0
  187.3310  175.8770  142.3710 C   0  0  2  0  0  3  0  0  0  0  0  0
  191.6450  174.5400  145.6950 C   0  0  0  0  0  2  0  0  0  0  0  0
  193.0960  173.4100  142.6310 C   0  0  0  0  0  3  0  0  0  0  0  0
  192.2020  173.2040  143.6860 C   0  0  0  0  0  0  0  0  0  0  0  0
  192.0750  171.9240  144.2490 C   0  0  0  0  0  3  0  0  0  0  0  0
  192.7170  169.6290  144.3020 F   0  0  0  0  0  0  0  0  0  0  0  0
  193.7330  171.0760  142.7020 C   0  0  0  0  0  3  0  0  0  0  0  0
  192.8410  170.8620  143.7570 C   0  0  0  0  0  0  0  0  0  0  0  0
  193.8610  172.3490  142.1390 C   0  0  0  0  0  3  0  0  0  0  0  0
  187.9540  177.0300  141.8500 O   0  0  0  0  0  0  0  0  0  0  0  0
  186.9590  177.7270  141.1500 C   0  0  1  0  0  3  0  0  0  0  0  0
  185.9140  176.9900  139.1260 O   0  0  0  0  0  1  0  0  0  0  0  0
  187.1050  177.4860  139.6530 C   0  0  0  0  0  2  0  0  0  0  0  0
  185.5600  177.3280  141.6270 C   0  0  0  0  0  2  0  0  0  0  0  0
  184.6280  178.5210  141.8120 C   0  0  0  0  0  2  0  0  0  0  0  0
  183.5810  178.1860  142.6690 O   0  0  0  0  0  1  0  0  0  0  0  0
  1 20  1  0  0  0  0
  1 18  1  0  0  0  0
  2  6  1  0  0  0  0
  2 16  1  0  0  0  0
  3  7  1  0  0  0  0
  4 18  1  0  0  0  0
  4  8  1  0  0  0  0
  5  2  1  0  0  0  0
  6  4  1  0  0  0  0
  7 19  1  0  0  0  0
  7  5  1  0  0  0  0
  9 13  1  0  0  0  0
  9  6  1  0  0  0  0
 10  1  1  0  0  0  0
 12  8  1  0  0  0  0
 13  1  1  0  0  0  0
 14 15  1  0  0  0  0
 14 21  1  0  0  0  0
 15 21  1  0  0  0  0
 15  3  1  0  0  0  0
 16 11  1  0  0  0  0
 16 12  1  0  0  0  0
 17  5  1  0  0  0  0
 17  9  1  0  0  0  0
 19 23  1  0  0  0  0
 21 22  1  0  0  0  0
 22 17  1  0  0  0  0
 23 11  1  0  0  0  0
 24 25  1  0  0  0  0
 25 19  1  0  0  0  0
 25 26  2  0  0  0  0
 28 29  2  0  0  0  0
 29 26  1  0  0  0  0
 29 27  1  0  0  0  0
 30 24  2  0  0  0  0
 30 28  1  0  0  0  0
 31 22  1  0  0  0  0
 32 35  1  0  0  0  0
 32 31  1  0  0  0  0
 33 34  1  0  0  0  0
 34 32  1  0  0  0  0
 35 36  1  0  0  0  0
 36 37  1  0  0  0  0
M  END
>  <MODEL>
6

>  <REMARK>
 VINA RESULT:      -7.0      3.260      7.283
  Name = 
  6 active torsions:
  status: ('A' for Active; 'I' for Inactive)
    1  A    between atoms: O_1  and  C_4
    2  A    between atoms: O_1  and  C_27
    3  A    between atoms: C_4  and  C_12
    4  A    between atoms: C_4  and  C_37
    5  A    between atoms: C_8  and  C_12
    6  A    between atoms: C_23  and  C_30
                            x       y       z     vdW  Elec       q    Type
                         _______ _______ _______ _____ _____    ______ ____

>  <TORSDO>
F 6

$$$$
=
 OpenBabel11112417183D

 37 43  0  0  1  0  0  0  0  0999 V2000
  192.0220  171.4880  141.5270 C   0  0  0  0  0  0  0  0  0  0  0  0
  188.9570  174.1890  142.5480 C   0  0  2  0  0  3  0  0  0  0  0  0
  189.3320  176.3480  145.7610 O   0  0  0  0  0  0  0  0  0  0  0  0
  190.1870  172.7880  140.8090 C   0  0  2  0  0  3  0  0  0  0  0  0
  189.6840  175.0190  143.5790 C   0  0  1  0  0  3  0  0  0  0  0  0
  189.9410  173.0850  142.2550 C   0  0  1  0  0  3  0  0  0  0  0  0
  188.7220  175.6990  144.6270 C   0  0  2  0  0  3  0  0  0  0  0  0
  188.9500  172.8080  140.1440 O   0  0  0  0  0  0  0  0  0  0  0  0
  191.2200  173.4210  142.8200 N   0  0  2  0  0  0  0  0  0  0  0  0
  193.1400  172.1800  140.7600 C   0  0  0  0  0  1  0  0  0  0  0  0
  187.4050  175.9160  141.4810 C   0  0  0  0  0  2  0  0  0  0  0  0
  188.5530  174.1690  140.0070 C   0  0  0  0  0  2  0  0  0  0  0  0
  191.8820  172.1290  142.9510 C   0  0  0  0  0  2  0  0  0  0  0  0
  191.6090  176.7310  146.4670 O   0  0  0  0  0  0  0  0  0  0  0  0
  190.6600  176.6240  145.4370 C   0  0  1  0  0  3  0  0  0  0  0  0
  188.6420  175.0210  141.3070 C   0  0  2  0  0  3  0  0  0  0  0  0
  190.8230  174.0800  144.0500 C   0  0  1  0  0  3  0  0  0  0  0  0
  190.8070  171.5110  140.7520 O   0  0  0  0  0  0  0  0  0  0  0  0
  187.7720  176.6860  143.9020 C   0  0  1  0  0  3  0  0  0  0  0  0
  192.4300  170.0430  141.7170 C   0  0  0  0  0  1  0  0  0  0  0  0
  191.3560  175.4300  145.9960 C   0  0  1  0  0  3  0  0  0  0  0  0
  191.9960  174.8120  144.7530 C   0  0  2  0  0  3  0  0  0  0  0  0
  186.8330  175.9880  142.9070 C   0  0  0  0  0  2  0  0  0  0  0  0
  186.3180  178.6530  144.4210 C   0  0  0  0  0  3  0  0  0  0  0  0
  186.9570  177.4930  144.8690 C   0  0  0  0  0  0  0  0  0  0  0  0
  186.8300  177.1060  146.2130 C   0  0  0  0  0  3  0  0  0  0  0  0
  185.9480  177.5020  148.3920 F   0  0  0  0  0  0  0  0  0  0  0  0
  185.4330  179.0370  146.6410 C   0  0  0  0  0  3  0  0  0  0  0  0
  186.0680  177.8780  147.0960 C   0  0  0  0  0  0  0  0  0  0  0  0
  185.5580  179.4250  145.3040 C   0  0  0  0  0  3  0  0  0  0  0  0
  192.6250  175.7560  143.9160 O   0  0  0  0  0  0  0  0  0  0  0  0
  194.0020  175.5170  144.0230 C   0  0  1  0  0  3  0  0  0  0  0  0
  195.0890  175.2930  146.1450 O   0  0  0  0  0  1  0  0  0  0  0  0
  194.2860  174.6230  145.2230 C   0  0  0  0  0  2  0  0  0  0  0  0
  194.5600  174.8930  142.7400 C   0  0  0  0  0  2  0  0  0  0  0  0
  196.0460  174.5640  142.8320 C   0  0  0  0  0  2  0  0  0  0  0  0
  196.4200  173.7290  141.7800 O   0  0  0  0  0  1  0  0  0  0  0  0
  1 20  1  0  0  0  0
  1 13  1  0  0  0  0
  2  5  1  0  0  0  0
  4  6  1  0  0  0  0
  5 17  1  0  0  0  0
  5  7  1  0  0  0  0
  6  2  1  0  0  0  0
  6  9  1  0  0  0  0
  7  3  1  0  0  0  0
  8  4  1  0  0  0  0
  9 13  1  0  0  0  0
  9 17  1  0  0  0  0
 10  1  1  0  0  0  0
 11 23  1  0  0  0  0
 12  8  1  0  0  0  0
 12 16  1  0  0  0  0
 15  3  1  0  0  0  0
 15 21  1  0  0  0  0
 15 14  1  0  0  0  0
 16 11  1  0  0  0  0
 16  2  1  0  0  0  0
 17 22  1  0  0  0  0
 18  4  1  0  0  0  0
 18  1  1  0  0  0  0
 19  7  1  0  0  0  0
 19 25  1  0  0  0  0
 21 14  1  0  0  0  0
 22 21  1  0  0  0  0
 23 19  1  0  0  0  0
 24 25  2  0  0  0  0
 24 30  1  0  0  0  0
 25 26  1  0  0  0  0
 26 29  2  0  0  0  0
 28 29  1  0  0  0  0
 29 27  1  0  0  0  0
 30 28  2  0  0  0  0
 31 32  1  0  0  0  0
 31 22  1  0  0  0  0
 32 34  1  0  0  0  0
 34 33  1  0  0  0  0
 35 36  1  0  0  0  0
 35 32  1  0  0  0  0
 37 36  1  0  0  0  0
M  END
>  <MODEL>
7

>  <REMARK>
 VINA RESULT:      -7.0      1.861      4.922
  Name = 
  6 active torsions:
  status: ('A' for Active; 'I' for Inactive)
    1  A    between atoms: O_1  and  C_4
    2  A    between atoms: O_1  and  C_27
    3  A    between atoms: C_4  and  C_12
    4  A    between atoms: C_4  and  C_37
    5  A    between atoms: C_8  and  C_12
    6  A    between atoms: C_23  and  C_30
                            x       y       z     vdW  Elec       q    Type
                         _______ _______ _______ _____ _____    ______ ____

>  <TORSDO>
F 6

$$$$
=
 OpenBabel11112417183D

 37 43  0  0  1  0  0  0  0  0999 V2000
  187.8090  176.4930  141.9170 C   0  0  0  0  0  0  0  0  0  0  0  0
  191.1250  173.9370  142.3580 C   0  0  2  0  0  3  0  0  0  0  0  0
  193.6560  174.6010  145.2360 O   0  0  0  0  0  0  0  0  0  0  0  0
  188.7660  174.3770  141.4990 C   0  0  2  0  0  3  0  0  0  0  0  0
  191.5680  174.3330  143.7470 C   0  0  1  0  0  3  0  0  0  0  0  0
  190.0370  174.9360  142.0580 C   0  0  1  0  0  3  0  0  0  0  0  0
  193.1010  174.0770  144.0130 C   0  0  2  0  0  3  0  0  0  0  0  0
  189.1010  173.4090  140.5390 O   0  0  0  0  0  0  0  0  0  0  0  0
  189.6750  175.6270  143.2650 N   0  0  2  0  0  0  0  0  0  0  0  0
  186.6630  176.0790  142.8290 C   0  0  0  0  0  1  0  0  0  0  0  0
  191.7330  171.4560  142.2990 C   0  0  0  0  0  2  0  0  0  0  0  0
  189.5470  172.2470  141.2320 C   0  0  0  0  0  2  0  0  0  0  0  0
  189.0660  176.8600  142.7800 C   0  0  0  0  0  2  0  0  0  0  0  0
  192.7500  175.7950  147.1290 O   0  0  0  0  0  0  0  0  0  0  0  0
  192.6060  174.8220  146.1270 C   0  0  1  0  0  3  0  0  0  0  0  0
  190.6080  172.5010  142.3420 C   0  0  2  0  0  3  0  0  0  0  0  0
  190.9640  175.7500  143.9200 C   0  0  1  0  0  3  0  0  0  0  0  0
  188.0510  175.4680  140.9350 O   0  0  0  0  0  0  0  0  0  0  0  0
  193.4060  172.5620  143.9010 C   0  0  1  0  0  3  0  0  0  0  0  0
  187.3770  177.7480  141.1890 C   0  0  0  0  0  1  0  0  0  0  0  0
  192.3050  176.2610  145.8790 C   0  0  1  0  0  3  0  0  0  0  0  0
  190.8550  176.2140  145.3970 C   0  0  2  0  0  3  0  0  0  0  0  0
  193.1570  172.0050  142.4920 C   0  0  0  0  0  2  0  0  0  0  0  0
  195.8780  172.7260  143.5580 C   0  0  0  0  0  3  0  0  0  0  0  0
  194.8100  172.2400  144.3200 C   0  0  0  0  0  0  0  0  0  0  0  0
  195.0680  171.4560  145.4560 C   0  0  0  0  0  3  0  0  0  0  0  0
  196.6320  170.4100  146.9190 F   0  0  0  0  0  0  0  0  0  0  0  0
  197.4490  171.6560  145.0570 C   0  0  0  0  0  3  0  0  0  0  0  0
  196.3870  171.1660  145.8230 C   0  0  0  0  0  0  0  0  0  0  0  0
  197.1940  172.4350  143.9250 C   0  0  0  0  0  3  0  0  0  0  0  0
  190.0320  175.3700  146.1700 O   0  0  0  0  0  0  0  0  0  0  0  0
  189.1360  176.2110  146.8440 C   0  0  1  0  0  3  0  0  0  0  0  0
  189.7860  178.2160  147.9790 O   0  0  0  0  0  1  0  0  0  0  0  0
  189.5810  177.6610  146.7170 C   0  0  0  0  0  2  0  0  0  0  0  0
  187.7070  176.0360  146.3210 C   0  0  0  0  0  2  0  0  0  0  0  0
  186.6740  176.8150  147.1270 C   0  0  0  0  0  2  0  0  0  0  0  0
  185.4470  176.8180  146.4640 O   0  0  0  0  0  1  0  0  0  0  0  0
  1 13  1  0  0  0  0
  1 10  1  0  0  0  0
  2  5  1  0  0  0  0
  3 15  1  0  0  0  0
  4  6  1  0  0  0  0
  5 17  1  0  0  0  0
  5  7  1  0  0  0  0
  6  2  1  0  0  0  0
  6  9  1  0  0  0  0
  7  3  1  0  0  0  0
  8 12  1  0  0  0  0
  8  4  1  0  0  0  0
  9 17  1  0  0  0  0
 11 16  1  0  0  0  0
 11 23  1  0  0  0  0
 12 16  1  0  0  0  0
 13  9  1  0  0  0  0
 15 14  1  0  0  0  0
 16  2  1  0  0  0  0
 17 22  1  0  0  0  0
 18  4  1  0  0  0  0
 18  1  1  0  0  0  0
 19  7  1  0  0  0  0
 19 25  1  0  0  0  0
 20  1  1  0  0  0  0
 21 15  1  0  0  0  0
 21 14  1  0  0  0  0
 22 21  1  0  0  0  0
 22 31  1  0  0  0  0
 23 19  1  0  0  0  0
 24 30  2  0  0  0  0
 24 25  1  0  0  0  0
 25 26  2  0  0  0  0
 26 29  1  0  0  0  0
 28 29  2  0  0  0  0
 29 27  1  0  0  0  0
 30 28  1  0  0  0  0
 31 32  1  0  0  0  0
 34 32  1  0  0  0  0
 34 33  1  0  0  0  0
 35 32  1  0  0  0  0
 35 36  1  0  0  0  0
 37 36  1  0  0  0  0
M  END
>  <MODEL>
8

>  <REMARK>
 VINA RESULT:      -6.9      3.338      8.124
  Name = 
  6 active torsions:
  status: ('A' for Active; 'I' for Inactive)
    1  A    between atoms: O_1  and  C_4
    2  A    between atoms: O_1  and  C_27
    3  A    between atoms: C_4  and  C_12
    4  A    between atoms: C_4  and  C_37
    5  A    between atoms: C_8  and  C_12
    6  A    between atoms: C_23  and  C_30
                            x       y       z     vdW  Elec       q    Type
                         _______ _______ _______ _____ _____    ______ ____

>  <TORSDO>
F 6

$$$$
=
 OpenBabel11112417183D

 37 43  0  0  1  0  0  0  0  0999 V2000
  190.5170  176.5440  144.5750 C   0  0  0  0  0  0  0  0  0  0  0  0
  193.9480  174.2570  145.4270 C   0  0  2  0  0  3  0  0  0  0  0  0
  193.8800  170.4260  144.7630 O   0  0  0  0  0  0  0  0  0  0  0  0
  192.8550  176.4970  144.8900 C   0  0  2  0  0  3  0  0  0  0  0  0
  193.5970  172.9880  144.6880 C   0  0  1  0  0  3  0  0  0  0  0  0
  192.6840  175.0710  145.3110 C   0  0  1  0  0  3  0  0  0  0  0  0
  194.3030  171.7060  145.2740 C   0  0  2  0  0  3  0  0  0  0  0  0
  193.9590  177.0260  145.5800 O   0  0  0  0  0  0  0  0  0  0  0  0
  191.8130  174.4670  144.3400 N   0  0  2  0  0  0  0  0  0  0  0  0
  190.4650  176.9440  143.1070 C   0  0  0  0  0  1  0  0  0  0  0  0
  196.4890  174.3300  145.1680 C   0  0  0  0  0  2  0  0  0  0  0  0
  195.1380  176.4950  144.9830 C   0  0  0  0  0  2  0  0  0  0  0  0
  190.4970  174.9810  144.7000 C   0  0  0  0  0  2  0  0  0  0  0  0
  192.3020  169.7150  143.0790 O   0  0  0  0  0  0  0  0  0  0  0  0
  193.2610  170.6370  143.5310 C   0  0  1  0  0  3  0  0  0  0  0  0
  195.1410  174.9520  144.7740 C   0  0  2  0  0  3  0  0  0  0  0  0
  192.0520  173.0560  144.5820 C   0  0  1  0  0  3  0  0  0  0  0  0
  191.6470  177.1690  145.2150 O   0  0  0  0  0  0  0  0  0  0  0  0
  195.8400  171.8470  145.1380 C   0  0  1  0  0  3  0  0  0  0  0  0
  189.2570  177.0680  145.2320 C   0  0  0  0  0  1  0  0  0  0  0  0
  191.8280  170.7280  143.9320 C   0  0  1  0  0  3  0  0  0  0  0  0
  191.4530  172.1410  143.4830 C   0  0  2  0  0  3  0  0  0  0  0  0
  196.4080  173.0140  145.9600 C   0  0  0  0  0  2  0  0  0  0  0  0
  197.2640  169.8820  144.5340 C   0  0  0  0  0  3  0  0  0  0  0  0
  196.5550  170.5830  145.5150 C   0  0  0  0  0  0  0  0  0  0  0  0
  196.5190  170.0920  146.8300 C   0  0  0  0  0  3  0  0  0  0  0  0
  197.1540  168.4380  148.4240 F   0  0  0  0  0  0  0  0  0  0  0  0
  197.8970  168.2130  146.1700 C   0  0  0  0  0  3  0  0  0  0  0  0
  197.1900  168.9080  147.1550 C   0  0  0  0  0  0  0  0  0  0  0  0
  197.9340  168.6990  144.8600 C   0  0  0  0  0  3  0  0  0  0  0  0
  191.9210  172.4650  142.1930 O   0  0  0  0  0  0  0  0  0  0  0  0
  190.7820  172.6080  141.3900 C   0  0  1  0  0  3  0  0  0  0  0  0
  190.2250  172.2800  139.0850 O   0  0  0  0  0  1  0  0  0  0  0  0
  190.8820  171.7030  140.1700 C   0  0  0  0  0  2  0  0  0  0  0  0
  189.5030  172.3120  142.1790 C   0  0  0  0  0  2  0  0  0  0  0  0
  188.4350  173.3870  142.0150 C   0  0  0  0  0  2  0  0  0  0  0  0
  188.9210  174.4330  141.2320 O   0  0  0  0  0  1  0  0  0  0  0  0
  1 13  1  0  0  0  0
  1 18  1  0  0  0  0
  1 20  1  0  0  0  0
  3  7  1  0  0  0  0
  4 18  1  0  0  0  0
  4  6  1  0  0  0  0
  4  8  1  0  0  0  0
  5  7  1  0  0  0  0
  5  2  1  0  0  0  0
  6  2  1  0  0  0  0
  9 17  1  0  0  0  0
  9 13  1  0  0  0  0
  9  6  1  0  0  0  0
 10  1  1  0  0  0  0
 11 23  1  0  0  0  0
 12  8  1  0  0  0  0
 14 15  1  0  0  0  0
 14 21  1  0  0  0  0
 15 21  1  0  0  0  0
 15  3  1  0  0  0  0
 16 12  1  0  0  0  0
 16 11  1  0  0  0  0
 16  2  1  0  0  0  0
 17  5  1  0  0  0  0
 19  7  1  0  0  0  0
 19 25  1  0  0  0  0
 19 23  1  0  0  0  0
 22 21  1  0  0  0  0
 22 17  1  0  0  0  0
 24 30  2  0  0  0  0
 24 25  1  0  0  0  0
 25 26  2  0  0  0  0
 26 29  1  0  0  0  0
 28 29  2  0  0  0  0
 29 27  1  0  0  0  0
 30 28  1  0  0  0  0
 31 22  1  0  0  0  0
 32 35  1  0  0  0  0
 32 31  1  0  0  0  0
 33 34  1  0  0  0  0
 34 32  1  0  0  0  0
 36 35  1  0  0  0  0
 37 36  1  0  0  0  0
M  END
>  <MODEL>
9

>  <REMARK>
 VINA RESULT:      -6.6      4.070      7.897
  Name = 
  6 active torsions:
  status: ('A' for Active; 'I' for Inactive)
    1  A    between atoms: O_1  and  C_4
    2  A    between atoms: O_1  and  C_27
    3  A    between atoms: C_4  and  C_12
    4  A    between atoms: C_4  and  C_37
    5  A    between atoms: C_8  and  C_12
    6  A    between atoms: C_23  and  C_30
                            x       y       z     vdW  Elec       q    Type
                         _______ _______ _______ _____ _____    ______ ____

>  <TORSDO>
F 6

$$$$
