=
 OpenBabel11112416363D

 32 37  0  0  1  0  0  0  0  0999 V2000
  191.7360  171.8160  141.6330 C   0  0  0  0  0  2  0  0  0  0  0  0
  189.7490  176.5310  142.8100 C   0  0  1  0  0  3  0  0  0  0  0  0
  192.2270  176.4150  147.0890 C   0  0  0  0  0  3  0  0  0  0  0  0
  191.0440  176.6990  147.7740 C   0  0  0  0  0  3  0  0  0  0  0  0
  187.5950  177.6200  142.7410 C   0  0  1  0  0  3  0  0  0  0  0  0
  186.6070  178.4720  143.5220 C   0  0  1  0  0  3  0  0  0  0  0  0
  190.1040  174.3360  141.7750 N   0  0  1  0  0  0  0  0  0  0  0  0
  191.9890  175.5030  142.8840 C   0  0  0  0  0  2  0  0  0  0  0  0
  185.3340  178.5610  145.5290 N   0  0  0  0  0  0  0  0  0  0  0  0
  192.3280  173.2090  141.8800 C   0  0  2  0  0  3  0  0  0  0  0  0
  192.2180  176.3080  145.6960 C   0  0  0  0  0  3  0  0  0  0  0  0
  191.0020  176.3480  143.5460 N   0  0  0  0  0  0  0  0  0  0  0  0
  191.0270  176.4900  144.9770 C   0  0  0  0  0  0  0  0  0  0  0  0
  188.5570  176.9400  144.8890 C   0  0  1  0  0  3  0  0  0  0  0  0
  184.1220  178.9630  144.2880 S   0  0  0  0  0  0  0  0  0  0  0  0
  190.0650  171.6040  142.3400 S   0  0  0  0  0  0  0  0  0  0  0  0
  191.3360  174.1510  142.5730 C   0  0  2  0  0  3  0  0  0  0  0  0
  185.2410  178.5550  142.9080 C   0  0  0  0  0  2  0  0  0  0  0  0
  189.4230  173.0720  141.4470 C   0  0  0  0  0  2  0  0  0  0  0  0
  189.8540  176.8840  147.0670 C   0  0  0  0  0  3  0  0  0  0  0  0
  189.8410  176.8030  145.6660 C   0  0  0  0  0  0  0  0  0  0  0  0
  187.6270  177.8320  145.5950 N   0  0  0  0  0  2  0  0  0  0  0  0
  189.1450  175.1450  142.5320 C   0  0  0  0  0  2  0  0  0  0  0  0
  187.8840  178.2510  141.5270 O   0  0  0  0  0  1  0  0  0  0  0  0
  184.6890  177.6460  146.4550 C   0  0  0  0  0  1  0  0  0  0  0  0
  188.8360  177.4480  143.5230 N   0  0  1  0  0  0  0  0  0  0  0  0
  186.3780  177.8160  144.8470 C   0  0  2  0  0  3  0  0  0  0  0  0
  192.7570  173.7510  140.6640 O   0  0  0  0  0  0  0  0  0  0  0  0
  194.1180  173.4440  140.5930 C   0  0  0  0  0  2  0  0  0  0  0  0
  194.9190  174.6520  140.9250 C   0  0  0  0  0  0  0  0  0  0  0  0
  194.8700  175.6640  140.1790 O   0  0  0  0  0  0  0  0  0  0  0  0
  195.7070  174.6800  142.1080 N   0  0  0  0  0  1  0  0  0  0  0  0
  1 10  1  0  0  0  0
  1 16  1  0  0  0  0
  2 23  1  1  0  0  0
  2 26  1  0  0  0  0
  2 12  1  0  0  0  0
  3  4  1  0  0  0  0
  5 24  1  6  0  0  0
  5  6  1  0  0  0  0
  5 26  1  0  0  0  0
  6 18  1  6  0  0  0
  6 27  1  0  0  0  0
  7 19  1  1  0  0  0
  7 23  1  0  0  0  0
  7 17  1  0  0  0  0
  8 12  1  0  0  0  0
  9 25  1  0  0  0  0
 10 28  1  6  0  0  0
 10 17  1  0  0  0  0
 11  3  2  0  0  0  0
 12 13  1  0  0  0  0
 13 21  2  0  0  0  0
 13 11  1  0  0  0  0
 14 22  1  1  0  0  0
 14 21  1  0  0  0  0
 15  9  1  0  0  0  0
 17  8  1  6  0  0  0
 18 15  1  0  0  0  0
 19 16  1  0  0  0  0
 20  4  2  0  0  0  0
 21 20  1  0  0  0  0
 26 14  1  0  0  0  0
 27  9  1  0  0  0  0
 27 22  1  0  0  0  0
 29 28  1  0  0  0  0
 29 30  1  0  0  0  0
 30 32  1  0  0  0  0
 31 30  2  0  0  0  0
M  END
>  <MODEL>
1

>  <REMARK>
 VINA RESULT:      -7.6      0.000      0.000
  Name = 
  3 active torsions:
  status: ('A' for Active; 'I' for Inactive)
    1  A    between atoms: C_10  and  O_20
    2  A    between atoms: O_20  and  C_29
    3  A    between atoms: C_29  and  C_30
                            x       y       z     vdW  Elec       q    Type
                         _______ _______ _______ _____ _____    ______ ____

>  <TORSDO>
F 3

$$$$
=
 OpenBabel11112416363D

 32 37  0  0  1  0  0  0  0  0999 V2000
  191.2940  171.9250  141.0910 C   0  0  0  0  0  2  0  0  0  0  0  0
  189.5830  176.5030  143.0120 C   0  0  1  0  0  3  0  0  0  0  0  0
  193.0660  176.2410  146.5130 C   0  0  0  0  0  3  0  0  0  0  0  0
  192.0910  176.4480  147.4900 C   0  0  0  0  0  3  0  0  0  0  0  0
  187.4620  177.5220  143.5530 C   0  0  1  0  0  3  0  0  0  0  0  0
  186.6890  178.2980  144.6080 C   0  0  1  0  0  3  0  0  0  0  0  0
  189.7050  174.3790  141.7900 N   0  0  1  0  0  0  0  0  0  0  0  0
  191.7870  175.5460  142.4570 C   0  0  0  0  0  2  0  0  0  0  0  0
  185.9640  178.2370  146.8720 N   0  0  0  0  0  0  0  0  0  0  0  0
  191.9030  173.3220  141.2640 C   0  0  2  0  0  3  0  0  0  0  0  0
  192.7070  176.2070  145.1630 C   0  0  0  0  0  3  0  0  0  0  0  0
  190.9840  176.3220  143.3950 N   0  0  0  0  0  0  0  0  0  0  0  0
  191.3690  176.3880  144.7800 C   0  0  0  0  0  0  0  0  0  0  0  0
  188.9490  176.7610  145.3440 C   0  0  1  0  0  3  0  0  0  0  0  0
  184.4710  178.6650  146.0030 S   0  0  0  0  0  0  0  0  0  0  0  0
  189.8610  171.6210  142.1820 S   0  0  0  0  0  0  0  0  0  0  0  0
  191.1010  174.1920  142.2400 C   0  0  2  0  0  3  0  0  0  0  0  0
  185.2100  178.3680  144.3640 C   0  0  0  0  0  2  0  0  0  0  0  0
  188.9860  173.1130  141.5690 C   0  0  0  0  0  2  0  0  0  0  0  0
  190.7570  176.6310  147.1180 C   0  0  0  0  0  3  0  0  0  0  0  0
  190.3910  176.6240  145.7630 C   0  0  0  0  0  0  0  0  0  0  0  0
  188.2120  177.5830  146.3140 N   0  0  0  0  0  2  0  0  0  0  0  0
  188.9540  175.1140  142.8120 C   0  0  0  0  0  2  0  0  0  0  0  0
  187.4220  178.2260  142.3460 O   0  0  0  0  0  1  0  0  0  0  0  0
  185.5920  177.2530  147.8740 C   0  0  0  0  0  1  0  0  0  0  0  0
  188.8640  177.3490  143.9850 N   0  0  1  0  0  0  0  0  0  0  0  0
  186.8150  177.5650  145.9060 C   0  0  2  0  0  3  0  0  0  0  0  0
  191.9990  173.9420  140.0140 O   0  0  0  0  0  0  0  0  0  0  0  0
  191.7470  172.9270  139.0880 C   0  0  0  0  0  2  0  0  0  0  0  0
  190.9970  173.4840  137.9310 C   0  0  0  0  0  0  0  0  0  0  0  0
  191.5770  173.6500  136.8260 O   0  0  0  0  0  0  0  0  0  0  0  0
  189.6150  173.7900  138.0600 N   0  0  0  0  0  1  0  0  0  0  0  0
  1 10  1  0  0  0  0
  1 16  1  0  0  0  0
  2 23  1  1  0  0  0
  2 12  1  0  0  0  0
  2 26  1  0  0  0  0
  3  4  1  0  0  0  0
  5 24  1  6  0  0  0
  5 26  1  0  0  0  0
  5  6  1  0  0  0  0
  6 18  1  6  0  0  0
  6 27  1  0  0  0  0
  7 19  1  1  0  0  0
  7 17  1  0  0  0  0
  7 23  1  0  0  0  0
  8 12  1  0  0  0  0
  9 25  1  0  0  0  0
 10 28  1  6  0  0  0
 10 17  1  0  0  0  0
 11  3  2  0  0  0  0
 12 13  1  0  0  0  0
 13 11  1  0  0  0  0
 13 21  2  0  0  0  0
 14 21  1  1  0  0  0
 14 22  1  0  0  0  0
 15  9  1  0  0  0  0
 17  8  1  6  0  0  0
 18 15  1  0  0  0  0
 19 16  1  0  0  0  0
 20  4  2  0  0  0  0
 21 20  1  0  0  0  0
 26 14  1  0  0  0  0
 27 22  1  0  0  0  0
 27  9  1  0  0  0  0
 29 28  1  0  0  0  0
 30 32  1  0  0  0  0
 30 29  1  0  0  0  0
 31 30  2  0  0  0  0
M  END
>  <MODEL>
2

>  <REMARK>
 VINA RESULT:      -7.5      1.534      2.077
  Name = 
  3 active torsions:
  status: ('A' for Active; 'I' for Inactive)
    1  A    between atoms: C_10  and  O_20
    2  A    between atoms: O_20  and  C_29
    3  A    between atoms: C_29  and  C_30
                            x       y       z     vdW  Elec       q    Type
                         _______ _______ _______ _____ _____    ______ ____

>  <TORSDO>
F 3

$$$$
=
 OpenBabel11112416363D

 32 37  0  0  1  0  0  0  0  0999 V2000
  195.1630  174.7840  144.8530 C   0  0  0  0  0  2  0  0  0  0  0  0
  189.9540  174.6580  145.5020 C   0  0  1  0  0  3  0  0  0  0  0  0
  189.4690  173.5040  140.7170 C   0  0  0  0  0  3  0  0  0  0  0  0
  188.5620  174.5540  140.5630 C   0  0  0  0  0  3  0  0  0  0  0  0
  188.2600  176.0230  146.5490 C   0  0  1  0  0  3  0  0  0  0  0  0
  186.8970  176.6710  146.3640 C   0  0  1  0  0  3  0  0  0  0  0  0
  192.3420  175.1030  145.8420 N   0  0  1  0  0  0  0  0  0  0  0  0
  191.6260  173.1920  144.4350 C   0  0  0  0  0  2  0  0  0  0  0  0
  185.6700  178.1770  144.9930 N   0  0  0  0  0  0  0  0  0  0  0  0
  194.0830  173.7020  144.7300 C   0  0  2  0  0  3  0  0  0  0  0  0
  190.0400  173.2530  141.9680 C   0  0  0  0  0  3  0  0  0  0  0  0
  190.3100  173.8160  144.3580 N   0  0  0  0  0  0  0  0  0  0  0  0
  189.7020  174.0460  143.0750 C   0  0  0  0  0  0  0  0  0  0  0  0
  188.4540  175.9670  144.1070 C   0  0  1  0  0  3  0  0  0  0  0  0
  185.3130  178.7740  146.6310 S   0  0  0  0  0  0  0  0  0  0  0  0
  194.5030  176.4830  144.7390 S   0  0  0  0  0  0  0  0  0  0  0  0
  192.6710  174.2940  144.6480 C   0  0  2  0  0  3  0  0  0  0  0  0
  186.5450  177.6830  147.4150 C   0  0  0  0  0  2  0  0  0  0  0  0
  193.3070  176.1860  146.0980 C   0  0  0  0  0  2  0  0  0  0  0  0
  188.2180  175.3470  141.6600 C   0  0  0  0  0  3  0  0  0  0  0  0
  188.7670  175.0860  142.9240 C   0  0  0  0  0  0  0  0  0  0  0  0
  187.1030  176.5290  143.9810 N   0  0  0  0  0  2  0  0  0  0  0  0
  191.0360  175.7400  145.6600 C   0  0  0  0  0  2  0  0  0  0  0  0
  188.2360  175.2230  147.6950 O   0  0  0  0  0  1  0  0  0  0  0  0
  185.9120  179.3490  144.1690 C   0  0  0  0  0  1  0  0  0  0  0  0
  188.5860  175.1960  145.3690 N   0  0  1  0  0  0  0  0  0  0  0  0
  186.9260  177.4550  145.0900 C   0  0  2  0  0  3  0  0  0  0  0  0
  194.1870  172.8200  145.8100 O   0  0  0  0  0  0  0  0  0  0  0  0
  195.1210  171.8630  145.4050 C   0  0  0  0  0  2  0  0  0  0  0  0
  194.5340  170.5040  145.5460 C   0  0  0  0  0  0  0  0  0  0  0  0
  194.8840  169.7630  146.5020 O   0  0  0  0  0  0  0  0  0  0  0  0
  193.5460  170.0570  144.6270 N   0  0  0  0  0  1  0  0  0  0  0  0
  2 23  1  6  0  0  0
  3 11  1  0  0  0  0
  4  3  2  0  0  0  0
  4 20  1  0  0  0  0
  5 24  1  1  0  0  0
  6  5  1  0  0  0  0
  6 18  1  1  0  0  0
  7 23  1  6  0  0  0
  7 19  1  0  0  0  0
  9 27  1  0  0  0  0
  9 15  1  0  0  0  0
 10  1  1  0  0  0  0
 10 28  1  1  0  0  0
 11 13  2  0  0  0  0
 12  8  1  0  0  0  0
 12  2  1  0  0  0  0
 13 12  1  0  0  0  0
 14 21  1  6  0  0  0
 14 26  1  0  0  0  0
 15 18  1  0  0  0  0
 16  1  1  0  0  0  0
 16 19  1  0  0  0  0
 17  8  1  1  0  0  0
 17 10  1  0  0  0  0
 17  7  1  0  0  0  0
 20 21  2  0  0  0  0
 21 13  1  0  0  0  0
 22 14  1  0  0  0  0
 22 27  1  0  0  0  0
 25  9  1  0  0  0  0
 26  2  1  0  0  0  0
 26  5  1  0  0  0  0
 27  6  1  0  0  0  0
 29 30  1  0  0  0  0
 29 28  1  0  0  0  0
 30 31  2  0  0  0  0
 32 30  1  0  0  0  0
M  END
>  <MODEL>
3

>  <REMARK>
 VINA RESULT:      -7.4      3.347      4.822
  Name = 
  3 active torsions:
  status: ('A' for Active; 'I' for Inactive)
    1  A    between atoms: C_10  and  O_20
    2  A    between atoms: O_20  and  C_29
    3  A    between atoms: C_29  and  C_30
                            x       y       z     vdW  Elec       q    Type
                         _______ _______ _______ _____ _____    ______ ____

>  <TORSDO>
F 3

$$$$
=
 OpenBabel11112416363D

 32 37  0  0  1  0  0  0  0  0999 V2000
  184.9750  177.5230  146.2300 C   0  0  0  0  0  2  0  0  0  0  0  0
  189.5860  176.8550  143.8080 C   0  0  1  0  0  3  0  0  0  0  0  0
  187.8100  172.7240  141.7470 C   0  0  0  0  0  3  0  0  0  0  0  0
  188.9260  172.0230  142.2080 C   0  0  0  0  0  3  0  0  0  0  0  0
  191.9280  176.9550  144.3850 C   0  0  1  0  0  3  0  0  0  0  0  0
  193.2660  176.2390  144.2800 C   0  0  1  0  0  3  0  0  0  0  0  0
  187.8530  177.6210  145.3660 N   0  0  1  0  0  0  0  0  0  0  0  0
  187.2170  176.7630  143.1290 C   0  0  0  0  0  2  0  0  0  0  0  0
  194.3830  174.1990  144.7770 N   0  0  0  0  0  0  0  0  0  0  0  0
  185.4340  177.4840  144.7680 C   0  0  2  0  0  3  0  0  0  0  0  0
  187.6860  174.0910  142.0130 C   0  0  0  0  0  3  0  0  0  0  0  0
  188.5450  176.1650  143.0440 N   0  0  0  0  0  0  0  0  0  0  0  0
  188.6800  174.7670  142.7360 C   0  0  0  0  0  0  0  0  0  0  0  0
  190.8510  174.7880  144.0010 C   0  0  1  0  0  3  0  0  0  0  0  0
  195.5120  175.4190  145.4140 S   0  0  0  0  0  0  0  0  0  0  0  0
  186.1440  176.7130  147.3770 S   0  0  0  0  0  0  0  0  0  0  0  0
  186.8290  176.8680  144.6080 C   0  0  2  0  0  3  0  0  0  0  0  0
  194.3340  176.7910  145.1780 C   0  0  0  0  0  2  0  0  0  0  0  0
  187.5420  177.7520  146.7990 C   0  0  0  0  0  2  0  0  0  0  0  0
  189.9220  172.6880  142.9270 C   0  0  0  0  0  3  0  0  0  0  0  0
  189.8170  174.0650  143.1770 C   0  0  0  0  0  0  0  0  0  0  0  0
  192.1670  174.1560  143.8380 N   0  0  0  0  0  2  0  0  0  0  0  0
  189.1390  176.9250  145.2780 C   0  0  0  0  0  2  0  0  0  0  0  0
  192.0610  178.2510  143.8800 O   0  0  0  0  0  1  0  0  0  0  0  0
  194.3260  173.1340  145.7630 C   0  0  0  0  0  1  0  0  0  0  0  0
  190.9050  176.2200  143.6150 N   0  0  1  0  0  0  0  0  0  0  0  0
  193.0760  174.8320  144.7520 C   0  0  2  0  0  3  0  0  0  0  0  0
  185.4030  178.7780  144.2390 O   0  0  0  0  0  0  0  0  0  0  0  0
  184.0660  178.9930  143.8910 C   0  0  0  0  0  2  0  0  0  0  0  0
  183.8660  178.6590  142.4560 C   0  0  0  0  0  0  0  0  0  0  0  0
  184.8450  178.6660  141.6650 O   0  0  0  0  0  0  0  0  0  0  0  0
  182.5760  178.2910  141.9860 N   0  0  0  0  0  1  0  0  0  0  0  0
  1 16  1  0  0  0  0
  2 23  1  1  0  0  0
  3 11  2  0  0  0  0
  3  4  1  0  0  0  0
  4 20  2  0  0  0  0
  5 24  1  6  0  0  0
  6  5  1  0  0  0  0
  6 27  1  0  0  0  0
  6 18  1  1  0  0  0
  7 23  1  1  0  0  0
  7 19  1  0  0  0  0
  9 15  1  0  0  0  0
  9 25  1  0  0  0  0
 10 28  1  1  0  0  0
 10  1  1  0  0  0  0
 11 13  1  0  0  0  0
 12  8  1  0  0  0  0
 12  2  1  0  0  0  0
 13 12  1  0  0  0  0
 13 21  2  0  0  0  0
 14 21  1  6  0  0  0
 17  8  1  6  0  0  0
 17 10  1  0  0  0  0
 17  7  1  0  0  0  0
 18 15  1  0  0  0  0
 19 16  1  0  0  0  0
 20 21  1  0  0  0  0
 22 14  1  0  0  0  0
 22 27  1  0  0  0  0
 26  2  1  0  0  0  0
 26 14  1  0  0  0  0
 26  5  1  0  0  0  0
 27  9  1  0  0  0  0
 29 28  1  0  0  0  0
 30 29  1  0  0  0  0
 31 30  2  0  0  0  0
 32 30  1  0  0  0  0
M  END
>  <MODEL>
4

>  <REMARK>
 VINA RESULT:      -7.3      2.849      7.791
  Name = 
  3 active torsions:
  status: ('A' for Active; 'I' for Inactive)
    1  A    between atoms: C_10  and  O_20
    2  A    between atoms: O_20  and  C_29
    3  A    between atoms: C_29  and  C_30
                            x       y       z     vdW  Elec       q    Type
                         _______ _______ _______ _____ _____    ______ ____

>  <TORSDO>
F 3

$$$$
=
 OpenBabel11112416363D

 32 37  0  0  1  0  0  0  0  0999 V2000
  186.9550  178.6180  142.6060 C   0  0  0  0  0  2  0  0  0  0  0  0
  189.3170  174.3390  144.5260 C   0  0  1  0  0  3  0  0  0  0  0  0
  191.4400  177.1650  147.9850 C   0  0  0  0  0  3  0  0  0  0  0  0
  192.6870  176.6460  147.6350 C   0  0  0  0  0  3  0  0  0  0  0  0
  190.5360  172.4430  143.6620 C   0  0  1  0  0  3  0  0  0  0  0  0
  191.7850  171.5910  143.8210 C   0  0  1  0  0  3  0  0  0  0  0  0
  188.1360  175.8870  143.0330 N   0  0  1  0  0  0  0  0  0  0  0  0
  188.0560  176.2290  145.4870 C   0  0  0  0  0  2  0  0  0  0  0  0
  194.1620  171.6780  143.8580 N   0  0  0  0  0  0  0  0  0  0  0  0
  186.9050  177.8600  143.9380 C   0  0  2  0  0  3  0  0  0  0  0  0
  190.2900  176.7310  147.3200 C   0  0  0  0  0  3  0  0  0  0  0  0
  189.2060  175.3380  145.5910 N   0  0  0  0  0  0  0  0  0  0  0  0
  190.3800  175.7670  146.3040 C   0  0  0  0  0  0  0  0  0  0  0  0
  191.7250  174.2320  144.8380 C   0  0  1  0  0  3  0  0  0  0  0  0
  193.8450  170.3340  142.7350 S   0  0  0  0  0  0  0  0  0  0  0  0
  188.4670  178.2810  141.6370 S   0  0  0  0  0  0  0  0  0  0  0  0
  188.0890  176.9010  144.1090 C   0  0  2  0  0  3  0  0  0  0  0  0
  192.0540  170.6660  142.6710 C   0  0  0  0  0  2  0  0  0  0  0  0
  188.1770  176.4690  141.6810 C   0  0  0  0  0  2  0  0  0  0  0  0
  192.7860  175.6850  146.6250 C   0  0  0  0  0  3  0  0  0  0  0  0
  191.6340  175.2240  145.9700 C   0  0  0  0  0  0  0  0  0  0  0  0
  192.8820  173.3470  145.0290 N   0  0  0  0  0  2  0  0  0  0  0  0
  189.3470  175.0740  143.1760 C   0  0  0  0  0  2  0  0  0  0  0  0
  189.4090  171.6170  143.7140 O   0  0  0  0  0  1  0  0  0  0  0  0
  195.2350  172.4620  143.2720 C   0  0  0  0  0  1  0  0  0  0  0  0
  190.4710  173.4450  144.7450 N   0  0  1  0  0  0  0  0  0  0  0  0
  192.9680  172.5070  143.8430 C   0  0  2  0  0  3  0  0  0  0  0  0
  185.6930  177.1690  144.0320 O   0  0  0  0  0  0  0  0  0  0  0  0
  184.8160  178.0630  144.6530 C   0  0  0  0  0  2  0  0  0  0  0  0
  184.9120  177.9090  146.1290 C   0  0  0  0  0  0  0  0  0  0  0  0
  184.7820  176.7720  146.6530 O   0  0  0  0  0  0  0  0  0  0  0  0
  185.1930  179.0390  146.9450 N   0  0  0  0  0  1  0  0  0  0  0  0
  1 10  1  0  0  0  0
  2 23  1  6  0  0  0
  2 26  1  0  0  0  0
  2 12  1  0  0  0  0
  4  3  1  0  0  0  0
  5 24  1  1  0  0  0
  5  6  1  0  0  0  0
  5 26  1  0  0  0  0
  6 18  1  6  0  0  0
  6 27  1  0  0  0  0
  7 19  1  6  0  0  0
  7 23  1  0  0  0  0
  7 17  1  0  0  0  0
  8 12  1  0  0  0  0
 10 28  1  6  0  0  0
 10 17  1  0  0  0  0
 11  3  2  0  0  0  0
 12 13  1  0  0  0  0
 13 11  1  0  0  0  0
 14 22  1  1  0  0  0
 14 21  1  0  0  0  0
 15  9  1  0  0  0  0
 16 19  1  0  0  0  0
 16  1  1  0  0  0  0
 17  8  1  1  0  0  0
 18 15  1  0  0  0  0
 20  4  2  0  0  0  0
 21 13  2  0  0  0  0
 21 20  1  0  0  0  0
 25  9  1  0  0  0  0
 26 14  1  0  0  0  0
 27  9  1  0  0  0  0
 27 22  1  0  0  0  0
 28 29  1  0  0  0  0
 29 30  1  0  0  0  0
 30 31  2  0  0  0  0
 30 32  1  0  0  0  0
M  END
>  <MODEL>
5

>  <REMARK>
 VINA RESULT:      -7.1      2.765      7.486
  Name = 
  3 active torsions:
  status: ('A' for Active; 'I' for Inactive)
    1  A    between atoms: C_10  and  O_20
    2  A    between atoms: O_20  and  C_29
    3  A    between atoms: C_29  and  C_30
                            x       y       z     vdW  Elec       q    Type
                         _______ _______ _______ _____ _____    ______ ____

>  <TORSDO>
F 3

$$$$
=
 OpenBabel11112416363D

 32 37  0  0  1  0  0  0  0  0999 V2000
  186.7640  178.4350  143.3680 C   0  0  0  0  0  2  0  0  0  0  0  0
  189.6910  174.1530  144.1840 C   0  0  1  0  0  3  0  0  0  0  0  0
  192.5590  176.7940  147.2270 C   0  0  0  0  0  3  0  0  0  0  0  0
  193.6850  176.3790  146.5160 C   0  0  0  0  0  3  0  0  0  0  0  0
  190.7010  172.4090  142.8530 C   0  0  1  0  0  3  0  0  0  0  0  0
  191.9760  171.6210  142.5980 C   0  0  1  0  0  3  0  0  0  0  0  0
  188.1070  175.7500  143.2070 N   0  0  1  0  0  0  0  0  0  0  0  0
  188.6680  175.8780  145.6180 C   0  0  0  0  0  2  0  0  0  0  0  0
  194.2730  171.8410  142.0230 N   0  0  0  0  0  0  0  0  0  0  0  0
  187.0940  177.5650  144.5870 C   0  0  2  0  0  3  0  0  0  0  0  0
  191.2890  176.3510  146.8460 C   0  0  0  0  0  3  0  0  0  0  0  0
  189.8330  175.0500  145.3320 N   0  0  0  0  0  0  0  0  0  0  0  0
  191.1390  175.4840  145.7530 C   0  0  0  0  0  0  0  0  0  0  0  0
  192.0990  174.1580  143.8460 C   0  0  1  0  0  3  0  0  0  0  0  0
  193.7150  170.5810  140.8960 S   0  0  0  0  0  0  0  0  0  0  0  0
  187.9760  178.2680  142.0110 S   0  0  0  0  0  0  0  0  0  0  0  0
  188.3130  176.6650  144.3510 C   0  0  2  0  0  3  0  0  0  0  0  0
  191.9610  170.8130  141.3340 C   0  0  0  0  0  2  0  0  0  0  0  0
  187.7690  176.4460  141.9540 C   0  0  0  0  0  2  0  0  0  0  0  0
  193.5460  175.5140  145.4270 C   0  0  0  0  0  3  0  0  0  0  0  0
  192.2770  175.0450  145.0530 C   0  0  0  0  0  0  0  0  0  0  0  0
  193.2930  173.3280  143.6420 N   0  0  0  0  0  2  0  0  0  0  0  0
  189.3390  175.0000  142.9500 C   0  0  0  0  0  2  0  0  0  0  0  0
  189.6560  171.5180  143.1160 O   0  0  0  0  0  1  0  0  0  0  0  0
  195.1270  172.7320  141.2570 C   0  0  0  0  0  1  0  0  0  0  0  0
  190.8920  173.3110  144.0070 N   0  0  1  0  0  0  0  0  0  0  0  0
  193.0910  172.5980  142.3990 C   0  0  2  0  0  3  0  0  0  0  0  0
  185.9740  176.8000  144.9260 O   0  0  0  0  0  0  0  0  0  0  0  0
  185.1470  177.6710  145.6420 C   0  0  0  0  0  2  0  0  0  0  0  0
  185.6580  177.8140  147.0310 C   0  0  0  0  0  0  0  0  0  0  0  0
  185.9420  176.7910  147.7060 O   0  0  0  0  0  0  0  0  0  0  0  0
  185.8660  179.1080  147.5810 N   0  0  0  0  0  1  0  0  0  0  0  0
  1 10  1  0  0  0  0
  2 23  1  6  0  0  0
  2 12  1  0  0  0  0
  4  3  2  0  0  0  0
  5 24  1  1  0  0  0
  5 26  1  0  0  0  0
  6 18  1  6  0  0  0
  6  5  1  0  0  0  0
  7 19  1  6  0  0  0
  7 17  1  0  0  0  0
  9 27  1  0  0  0  0
 10 28  1  6  0  0  0
 11  3  1  0  0  0  0
 12  8  1  0  0  0  0
 12 13  1  0  0  0  0
 13 11  2  0  0  0  0
 14 22  1  1  0  0  0
 14 26  1  0  0  0  0
 14 21  1  0  0  0  0
 15 18  1  0  0  0  0
 15  9  1  0  0  0  0
 16  1  1  0  0  0  0
 17 10  1  0  0  0  0
 17  8  1  1  0  0  0
 19 16  1  0  0  0  0
 20  4  1  0  0  0  0
 21 20  2  0  0  0  0
 21 13  1  0  0  0  0
 23  7  1  0  0  0  0
 25  9  1  0  0  0  0
 26  2  1  0  0  0  0
 27  6  1  0  0  0  0
 27 22  1  0  0  0  0
 28 29  1  0  0  0  0
 29 30  1  0  0  0  0
 30 32  1  0  0  0  0
 30 31  2  0  0  0  0
M  END
>  <MODEL>
6

>  <REMARK>
 VINA RESULT:      -6.9      2.520      7.548
  Name = 
  3 active torsions:
  status: ('A' for Active; 'I' for Inactive)
    1  A    between atoms: C_10  and  O_20
    2  A    between atoms: O_20  and  C_29
    3  A    between atoms: C_29  and  C_30
                            x       y       z     vdW  Elec       q    Type
                         _______ _______ _______ _____ _____    ______ ____

>  <TORSDO>
F 3

$$$$
=
 OpenBabel11112416363D

 32 37  0  0  1  0  0  0  0  0999 V2000
  185.9610  177.4490  145.9780 C   0  0  0  0  0  2  0  0  0  0  0  0
  190.6610  176.4520  143.8610 C   0  0  1  0  0  3  0  0  0  0  0  0
  188.6150  172.7830  141.2510 C   0  0  0  0  0  3  0  0  0  0  0  0
  189.5980  171.9090  141.7200 C   0  0  0  0  0  3  0  0  0  0  0  0
  192.9390  176.2090  144.6240 C   0  0  1  0  0  3  0  0  0  0  0  0
  194.1900  175.3480  144.5480 C   0  0  1  0  0  3  0  0  0  0  0  0
  188.8960  177.2740  145.3520 N   0  0  1  0  0  0  0  0  0  0  0  0
  188.3670  176.7150  142.9960 C   0  0  0  0  0  2  0  0  0  0  0  0
  195.0180  173.1480  144.9140 N   0  0  0  0  0  0  0  0  0  0  0  0
  186.5400  177.4920  144.5580 C   0  0  2  0  0  3  0  0  0  0  0  0
  188.6250  174.1230  141.6470 C   0  0  0  0  0  3  0  0  0  0  0  0
  189.6200  175.9700  142.9510 N   0  0  0  0  0  0  0  0  0  0  0  0
  189.6220  174.6000  142.5110 C   0  0  0  0  0  0  0  0  0  0  0  0
  191.6600  174.2360  143.9350 C   0  0  1  0  0  3  0  0  0  0  0  0
  196.2180  174.1550  145.7600 S   0  0  0  0  0  0  0  0  0  0  0  0
  186.9230  176.3970  147.1200 S   0  0  0  0  0  0  0  0  0  0  0  0
  187.8640  176.7270  144.4440 C   0  0  2  0  0  3  0  0  0  0  0  0
  195.2310  175.6770  145.5780 C   0  0  0  0  0  2  0  0  0  0  0  0
  188.4760  177.3060  146.7630 C   0  0  0  0  0  2  0  0  0  0  0  0
  190.5950  172.3760  142.5800 C   0  0  0  0  0  3  0  0  0  0  0  0
  190.6270  173.7260  142.9620 C   0  0  0  0  0  0  0  0  0  0  0  0
  192.9040  173.4660  143.8080 N   0  0  0  0  0  2  0  0  0  0  0  0
  190.0970  176.4370  145.2920 C   0  0  0  0  0  2  0  0  0  0  0  0
  193.2640  177.5210  144.2680 O   0  0  0  0  0  1  0  0  0  0  0  0
  194.7520  172.0100  145.7770 C   0  0  0  0  0  1  0  0  0  0  0  0
  191.9110  175.6810  143.7040 N   0  0  1  0  0  0  0  0  0  0  0  0
  193.7990  173.9370  144.8550 C   0  0  2  0  0  3  0  0  0  0  0  0
  186.7040  178.8240  144.1670 O   0  0  0  0  0  0  0  0  0  0  0  0
  185.4070  179.3010  143.9590 C   0  0  0  0  0  2  0  0  0  0  0  0
  184.8330  178.6690  142.7410 C   0  0  0  0  0  0  0  0  0  0  0  0
  183.6560  178.2260  142.7580 O   0  0  0  0  0  0  0  0  0  0  0  0
  185.6000  178.6040  141.5460 N   0  0  0  0  0  1  0  0  0  0  0  0
  1 16  1  0  0  0  0
  2 23  1  1  0  0  0
  3 11  2  0  0  0  0
  3  4  1  0  0  0  0
  4 20  2  0  0  0  0
  5 24  1  6  0  0  0
  6  5  1  0  0  0  0
  6 27  1  0  0  0  0
  6 18  1  1  0  0  0
  7 23  1  1  0  0  0
  7 19  1  0  0  0  0
  9 15  1  0  0  0  0
  9 25  1  0  0  0  0
 10 28  1  1  0  0  0
 10  1  1  0  0  0  0
 11 13  1  0  0  0  0
 12  8  1  0  0  0  0
 12  2  1  0  0  0  0
 13 12  1  0  0  0  0
 13 21  2  0  0  0  0
 14 21  1  6  0  0  0
 17  8  1  6  0  0  0
 17 10  1  0  0  0  0
 17  7  1  0  0  0  0
 18 15  1  0  0  0  0
 19 16  1  0  0  0  0
 20 21  1  0  0  0  0
 22 14  1  0  0  0  0
 22 27  1  0  0  0  0
 26  2  1  0  0  0  0
 26 14  1  0  0  0  0
 26  5  1  0  0  0  0
 27  9  1  0  0  0  0
 29 28  1  0  0  0  0
 30 31  2  0  0  0  0
 30 29  1  0  0  0  0
 32 30  1  0  0  0  0
M  END
>  <MODEL>
7

>  <REMARK>
 VINA RESULT:      -6.9      2.758      7.815
  Name = 
  3 active torsions:
  status: ('A' for Active; 'I' for Inactive)
    1  A    between atoms: C_10  and  O_20
    2  A    between atoms: O_20  and  C_29
    3  A    between atoms: C_29  and  C_30
                            x       y       z     vdW  Elec       q    Type
                         _______ _______ _______ _____ _____    ______ ____

>  <TORSDO>
F 3

$$$$
=
 OpenBabel11112416363D

 32 37  0  0  1  0  0  0  0  0999 V2000
  191.9510  171.3520  141.1320 C   0  0  0  0  0  2  0  0  0  0  0  0
  190.1810  176.0010  142.8120 C   0  0  1  0  0  3  0  0  0  0  0  0
  192.4320  175.1990  147.1420 C   0  0  0  0  0  3  0  0  0  0  0  0
  191.2350  175.4700  147.8080 C   0  0  0  0  0  3  0  0  0  0  0  0
  188.1000  177.2240  142.7900 C   0  0  1  0  0  3  0  0  0  0  0  0
  187.1250  178.0330  143.6310 C   0  0  1  0  0  3  0  0  0  0  0  0
  190.4610  173.9330  141.5220 N   0  0  1  0  0  0  0  0  0  0  0  0
  192.3520  174.8320  142.8500 C   0  0  0  0  0  2  0  0  0  0  0  0
  185.7600  177.9530  145.5770 N   0  0  0  0  0  0  0  0  0  0  0  0
  192.6080  172.6630  141.5780 C   0  0  2  0  0  3  0  0  0  0  0  0
  192.4870  175.2660  145.7480 C   0  0  0  0  0  3  0  0  0  0  0  0
  191.3830  175.6490  143.5700 N   0  0  0  0  0  0  0  0  0  0  0  0
  191.3450  175.6110  145.0080 C   0  0  0  0  0  0  0  0  0  0  0  0
  188.9120  176.2240  144.8730 C   0  0  1  0  0  3  0  0  0  0  0  0
  184.6370  178.5820  144.3470 S   0  0  0  0  0  0  0  0  0  0  0  0
  190.2370  171.1600  141.7350 S   0  0  0  0  0  0  0  0  0  0  0  0
  191.6390  173.5730  142.3420 C   0  0  2  0  0  3  0  0  0  0  0  0
  185.7980  178.2780  142.9750 C   0  0  0  0  0  2  0  0  0  0  0  0
  189.7260  172.7650  141.0090 C   0  0  0  0  0  2  0  0  0  0  0  0
  190.0940  175.8160  147.0800 C   0  0  0  0  0  3  0  0  0  0  0  0
  190.1470  175.9100  145.6810 C   0  0  0  0  0  0  0  0  0  0  0  0
  188.0010  177.0790  145.6470 N   0  0  0  0  0  2  0  0  0  0  0  0
  189.5130  174.7010  142.3350 C   0  0  0  0  0  2  0  0  0  0  0  0
  188.4850  177.9810  141.6800 O   0  0  0  0  0  1  0  0  0  0  0  0
  185.0180  176.9730  146.3510 C   0  0  0  0  0  1  0  0  0  0  0  0
  189.2880  176.8780  143.5960 N   0  0  1  0  0  0  0  0  0  0  0  0
  186.7920  177.2340  144.8510 C   0  0  2  0  0  3  0  0  0  0  0  0
  193.1280  173.3240  140.4600 O   0  0  0  0  0  0  0  0  0  0  0  0
  194.5010  173.0670  140.4960 C   0  0  0  0  0  2  0  0  0  0  0  0
  194.9030  172.3360  139.2640 C   0  0  0  0  0  0  0  0  0  0  0  0
  195.8620  171.5220  139.3000 O   0  0  0  0  0  0  0  0  0  0  0  0
  194.1760  172.5260  138.0570 N   0  0  0  0  0  1  0  0  0  0  0  0
  1 10  1  0  0  0  0
  1 16  1  0  0  0  0
  2 23  1  1  0  0  0
  2 12  1  0  0  0  0
  2 26  1  0  0  0  0
  3  4  1  0  0  0  0
  5 24  1  6  0  0  0
  5 26  1  0  0  0  0
  5  6  1  0  0  0  0
  6 18  1  6  0  0  0
  6 27  1  0  0  0  0
  7 19  1  1  0  0  0
  7 23  1  0  0  0  0
  7 17  1  0  0  0  0
  8 12  1  0  0  0  0
  9 25  1  0  0  0  0
 10 28  1  6  0  0  0
 10 17  1  0  0  0  0
 11  3  2  0  0  0  0
 12 13  1  0  0  0  0
 13 21  2  0  0  0  0
 13 11  1  0  0  0  0
 14 22  1  1  0  0  0
 14 21  1  0  0  0  0
 15  9  1  0  0  0  0
 17  8  1  6  0  0  0
 18 15  1  0  0  0  0
 19 16  1  0  0  0  0
 20  4  2  0  0  0  0
 21 20  1  0  0  0  0
 26 14  1  0  0  0  0
 27  9  1  0  0  0  0
 27 22  1  0  0  0  0
 28 29  1  0  0  0  0
 30 31  2  0  0  0  0
 30 29  1  0  0  0  0
 32 30  1  0  0  0  0
M  END
>  <MODEL>
8

>  <REMARK>
 VINA RESULT:      -6.7      1.390      1.466
  Name = 
  3 active torsions:
  status: ('A' for Active; 'I' for Inactive)
    1  A    between atoms: C_10  and  O_20
    2  A    between atoms: O_20  and  C_29
    3  A    between atoms: C_29  and  C_30
                            x       y       z     vdW  Elec       q    Type
                         _______ _______ _______ _____ _____    ______ ____

>  <TORSDO>
F 3

$$$$
=
 OpenBabel11112416363D

 32 37  0  0  1  0  0  0  0  0999 V2000
  195.7520  174.4640  142.5230 C   0  0  0  0  0  2  0  0  0  0  0  0
  190.7030  174.3480  143.9610 C   0  0  1  0  0  3  0  0  0  0  0  0
  189.5970  172.2730  139.6100 C   0  0  0  0  0  3  0  0  0  0  0  0
  188.6240  173.2520  139.3980 C   0  0  0  0  0  3  0  0  0  0  0  0
  189.1080  175.8520  144.9740 C   0  0  1  0  0  3  0  0  0  0  0  0
  187.7010  176.4200  144.8770 C   0  0  1  0  0  3  0  0  0  0  0  0
  193.0890  174.9050  143.8470 N   0  0  1  0  0  0  0  0  0  0  0  0
  192.2780  172.7410  142.9520 C   0  0  0  0  0  2  0  0  0  0  0  0
  186.2140  177.6020  143.4460 N   0  0  0  0  0  0  0  0  0  0  0  0
  194.7220  173.3550  142.7710 C   0  0  2  0  0  3  0  0  0  0  0  0
  190.3540  172.2830  140.7850 C   0  0  0  0  0  3  0  0  0  0  0  0
  190.9340  173.3080  142.9570 N   0  0  0  0  0  0  0  0  0  0  0  0
  190.1370  173.2690  141.7600 C   0  0  0  0  0  0  0  0  0  0  0  0
  188.9530  175.3250  142.5860 C   0  0  1  0  0  3  0  0  0  0  0  0
  186.0670  178.4980  144.9770 S   0  0  0  0  0  0  0  0  0  0  0  0
  194.9950  176.0920  142.1900 S   0  0  0  0  0  0  0  0  0  0  0  0
  193.2840  173.8860  142.7920 C   0  0  2  0  0  3  0  0  0  0  0  0
  187.4530  177.6090  145.7580 C   0  0  0  0  0  2  0  0  0  0  0  0
  194.0230  176.0390  143.7450 C   0  0  0  0  0  2  0  0  0  0  0  0
  188.4000  174.2360  140.3640 C   0  0  0  0  0  3  0  0  0  0  0  0
  189.1380  174.2380  141.5580 C   0  0  0  0  0  0  0  0  0  0  0  0
  187.5700  175.8220  142.5610 N   0  0  0  0  0  2  0  0  0  0  0  0
  191.7390  175.4650  143.7470 C   0  0  0  0  0  2  0  0  0  0  0  0
  189.2900  175.2900  146.2410 O   0  0  0  0  0  1  0  0  0  0  0  0
  186.2750  178.5970  142.3890 C   0  0  0  0  0  1  0  0  0  0  0  0
  189.3040  174.8190  143.9360 N   0  0  1  0  0  0  0  0  0  0  0  0
  187.5080  176.9410  143.4890 C   0  0  2  0  0  3  0  0  0  0  0  0
  195.0250  172.7020  143.9700 O   0  0  0  0  0  0  0  0  0  0  0  0
  196.3120  173.1340  144.3000 C   0  0  0  0  0  2  0  0  0  0  0  0
  196.7060  172.5650  145.6170 C   0  0  0  0  0  0  0  0  0  0  0  0
  197.1910  173.3110  146.5060 O   0  0  0  0  0  0  0  0  0  0  0  0
  196.4960  171.1840  145.8850 N   0  0  0  0  0  1  0  0  0  0  0  0
  1 10  1  0  0  0  0
  2 23  1  6  0  0  0
  3 11  1  0  0  0  0
  4  3  2  0  0  0  0
  4 20  1  0  0  0  0
  5 24  1  1  0  0  0
  6  5  1  0  0  0  0
  6 18  1  1  0  0  0
  7 19  1  6  0  0  0
  8 12  1  0  0  0  0
  9 27  1  0  0  0  0
  9 15  1  0  0  0  0
 10 17  1  0  0  0  0
 10 28  1  1  0  0  0
 11 13  2  0  0  0  0
 12  2  1  0  0  0  0
 13 12  1  0  0  0  0
 14 21  1  6  0  0  0
 14 26  1  0  0  0  0
 15 18  1  0  0  0  0
 16  1  1  0  0  0  0
 16 19  1  0  0  0  0
 17  8  1  1  0  0  0
 17  7  1  0  0  0  0
 20 21  2  0  0  0  0
 21 13  1  0  0  0  0
 22 14  1  0  0  0  0
 22 27  1  0  0  0  0
 23  7  1  0  0  0  0
 25  9  1  0  0  0  0
 26  2  1  0  0  0  0
 26  5  1  0  0  0  0
 27  6  1  0  0  0  0
 28 29  1  0  0  0  0
 29 30  1  0  0  0  0
 30 32  1  0  0  0  0
 30 31  2  0  0  0  0
M  END
>  <MODEL>
9

>  <REMARK>
 VINA RESULT:      -6.6      3.023      4.817
  Name = 
  3 active torsions:
  status: ('A' for Active; 'I' for Inactive)
    1  A    between atoms: C_10  and  O_20
    2  A    between atoms: O_20  and  C_29
    3  A    between atoms: C_29  and  C_30
                            x       y       z     vdW  Elec       q    Type
                         _______ _______ _______ _____ _____    ______ ____

>  <TORSDO>
F 3

$$$$
