=
 OpenBabel11112417553D

 34 40  0  0  1  0  0  0  0  0999 V2000
  189.7590  174.7790  142.6090 C   0  0  0  0  0  0  0  0  0  0  0  0
  191.7710  173.1840  142.6500 C   0  0  0  0  0  2  0  0  0  0  0  0
  185.2850  179.5850  145.0600 O   0  0  0  0  0  0  0  0  0  0  0  0
  187.6460  175.9890  142.8350 C   0  0  0  0  0  0  0  0  0  0  0  0
  187.2050  177.4070  144.9530 C   0  0  1  0  0  3  0  0  0  0  0  0
  185.9900  178.2940  146.9520 C   0  0  0  0  0  2  0  0  0  0  0  0
  184.8480  179.0410  146.2720 C   0  0  0  0  0  2  0  0  0  0  0  0
  184.4410  177.9210  143.5130 C   0  0  0  0  0  2  0  0  0  0  0  0
  191.0120  174.1850  144.6470 C   0  0  2  0  0  3  0  0  0  0  0  0
  193.0940  175.5390  146.5410 C   0  0  0  0  0  2  0  0  0  0  0  0
  188.6960  177.1830  145.2190 C   0  0  0  0  0  2  0  0  0  0  0  0
  185.8170  177.7410  142.8860 C   0  0  0  0  0  2  0  0  0  0  0  0
  190.5340  175.4580  145.3440 C   0  0  1  0  0  3  0  0  0  0  0  0
  192.7490  172.7860  143.7560 C   0  0  0  0  0  2  0  0  0  0  0  0
  186.6310  176.7280  143.6890 C   0  0  1  0  0  3  0  0  0  0  0  0
  184.2770  179.3100  144.1280 C   0  0  0  0  0  2  0  0  0  0  0  0
  193.4580  174.5730  145.3970 C   0  0  2  0  0  3  0  0  0  0  0  0
  188.8470  175.5170  143.4030 C   0  0  0  0  0  0  0  0  0  0  0  0
  186.3740  177.0420  146.1740 C   0  0  0  0  0  2  0  0  0  0  0  0
  189.0940  175.7550  144.8830 C   0  0  2  0  0  3  0  0  0  0  0  0
  188.2610  174.9670  140.7140 C   0  0  0  0  0  3  0  0  0  0  0  0
  191.9700  175.0200  147.4380 C   0  0  0  0  0  2  0  0  0  0  0  0
  187.3530  175.6820  141.4970 C   0  0  0  0  0  3  0  0  0  0  0  0
  190.5810  175.3380  146.8730 C   0  0  0  0  0  2  0  0  0  0  0  0
  192.3540  173.5590  145.0200 C   0  0  1  0  0  3  0  0  0  0  0  0
  189.4670  174.5330  141.2620 C   0  0  0  0  0  3  0  0  0  0  0  0
  191.1090  174.4370  143.1720 C   0  0  2  0  0  3  0  0  0  0  0  0
  194.7370  173.8330  145.7630 C   0  0  0  0  0  2  0  0  0  0  0  0
  195.9560  174.6510  145.3710 C   0  0  0  0  0  2  0  0  0  0  0  0
  197.1920  176.7960  142.9890 N   0  0  0  0  0  2  0  0  0  0  0  0
  196.9760  174.6090  143.1100 C   0  0  0  0  0  2  0  0  0  0  0  0
  195.8300  175.1280  143.9350 C   0  0  2  0  0  3  0  0  0  0  0  0
  197.9160  175.6420  142.9960 O   0  0  0  0  0  0  0  0  0  0  0  0
  196.0660  176.6020  143.8880 C   0  0  0  0  0  2  0  0  0  0  0  0
  1 27  1  0  0  0  0
  1 18  1  0  0  0  0
  2 27  1  0  0  0  0
  2 14  1  0  0  0  0
  3  7  1  0  0  0  0
  4 18  2  0  0  0  0
  4 15  1  0  0  0  0
  5 11  1  1  0  0  0
  5 19  1  0  0  0  0
  7  6  1  0  0  0  0
  8 16  1  0  0  0  0
  9 25  1  0  0  0  0
  9 13  1  0  0  0  0
 10 22  1  0  0  0  0
 12  8  1  0  0  0  0
 12 15  1  0  0  0  0
 13 24  1  0  0  0  0
 14 25  1  0  0  0  0
 15  5  1  0  0  0  0
 16  3  1  0  0  0  0
 17 28  1  0  0  0  0
 17 10  1  0  0  0  0
 18 20  1  0  0  0  0
 19  6  1  0  0  0  0
 20 11  1  0  0  0  0
 20 13  1  0  0  0  0
 21 26  1  0  0  0  0
 21 23  2  0  0  0  0
 23  4  1  0  0  0  0
 24 22  1  0  0  0  0
 25 17  1  0  0  0  0
 26  1  2  0  0  0  0
 27  9  1  0  0  0  0
 29 28  1  0  0  0  0
 30 33  1  0  0  0  0
 30 34  1  0  0  0  0
 31 32  1  0  0  0  0
 32 29  1  0  0  0  0
 33 31  1  0  0  0  0
 34 32  1  0  0  0  0
M  END
>  <MODEL>
1

>  <REMARK>
 VINA RESULT:      -9.3      0.000      0.000
  Name = 
  3 active torsions:
  status: ('A' for Active; 'I' for Inactive)
    1  A    between atoms: C_17  and  C_28
    2  A    between atoms: C_28  and  C_29
    3  A    between atoms: C_29  and  C_32
                            x       y       z     vdW  Elec       q    Type
                         _______ _______ _______ _____ _____    ______ ____

>  <TORSDO>
F 3

$$$$
=
 OpenBabel11112417553D

 34 40  0  0  1  0  0  0  0  0999 V2000
  190.1820  175.1460  142.8160 C   0  0  0  0  0  0  0  0  0  0  0  0
  192.3930  173.8910  142.4570 C   0  0  0  0  0  2  0  0  0  0  0  0
  185.6450  179.4450  145.9870 O   0  0  0  0  0  0  0  0  0  0  0  0
  188.0040  176.0360  143.4840 C   0  0  0  0  0  0  0  0  0  0  0  0
  187.8350  177.5870  145.5470 C   0  0  1  0  0  3  0  0  0  0  0  0
  186.9910  178.4860  147.7230 C   0  0  0  0  0  2  0  0  0  0  0  0
  185.6090  178.9720  147.3040 C   0  0  0  0  0  2  0  0  0  0  0  0
  184.7640  177.5160  144.8150 C   0  0  0  0  0  2  0  0  0  0  0  0
  191.9650  174.9720  144.5100 C   0  0  2  0  0  3  0  0  0  0  0  0
  194.1650  176.8220  145.7290 C   0  0  0  0  0  2  0  0  0  0  0  0
  189.3630  177.6240  145.4450 C   0  0  0  0  0  2  0  0  0  0  0  0
  185.9620  177.4820  143.8760 C   0  0  0  0  0  2  0  0  0  0  0  0
  191.4500  176.2240  145.2190 C   0  0  1  0  0  3  0  0  0  0  0  0
  193.6590  173.7680  143.3060 C   0  0  0  0  0  2  0  0  0  0  0  0
  187.1070  176.6970  144.5150 C   0  0  1  0  0  3  0  0  0  0  0  0
  184.5090  178.9210  145.3580 C   0  0  0  0  0  2  0  0  0  0  0  0
  194.4120  175.8070  144.5950 C   0  0  2  0  0  3  0  0  0  0  0  0
  189.3690  175.8160  143.7630 C   0  0  0  0  0  0  0  0  0  0  0  0
  187.3920  177.2310  146.9590 C   0  0  0  0  0  2  0  0  0  0  0  0
  189.9130  176.2460  145.1150 C   0  0  2  0  0  3  0  0  0  0  0  0
  188.2700  174.8990  141.3490 C   0  0  0  0  0  3  0  0  0  0  0  0
  193.3930  176.2360  146.9100 C   0  0  0  0  0  2  0  0  0  0  0  0
  187.4620  175.5460  142.2860 C   0  0  0  0  0  3  0  0  0  0  0  0
  191.8770  176.2760  146.6910 C   0  0  0  0  0  2  0  0  0  0  0  0
  193.4440  174.6020  144.5750 C   0  0  1  0  0  3  0  0  0  0  0  0
  189.6280  174.7160  141.6040 C   0  0  0  0  0  3  0  0  0  0  0  0
  191.6660  175.0770  143.0450 C   0  0  2  0  0  3  0  0  0  0  0  0
  195.8510  175.3140  144.6780 C   0  0  0  0  0  2  0  0  0  0  0  0
  196.0260  174.3860  145.8680 C   0  0  0  0  0  2  0  0  0  0  0  0
  197.0370  171.2910  144.7690 N   0  0  0  0  0  2  0  0  0  0  0  0
  197.5230  173.3560  144.1790 C   0  0  0  0  0  2  0  0  0  0  0  0
  197.2140  173.4660  145.6470 C   0  0  2  0  0  3  0  0  0  0  0  0
  196.9630  172.1560  143.7190 O   0  0  0  0  0  0  0  0  0  0  0  0
  196.8150  172.0650  145.9800 C   0  0  0  0  0  2  0  0  0  0  0  0
  1 27  1  0  0  0  0
  1 18  1  0  0  0  0
  2 27  1  0  0  0  0
  2 14  1  0  0  0  0
  3  7  1  0  0  0  0
  4 18  2  0  0  0  0
  4 15  1  0  0  0  0
  5 11  1  1  0  0  0
  5 19  1  0  0  0  0
  7  6  1  0  0  0  0
  8 16  1  0  0  0  0
  9 25  1  0  0  0  0
  9 13  1  0  0  0  0
 10 22  1  0  0  0  0
 12 15  1  0  0  0  0
 12  8  1  0  0  0  0
 13 24  1  0  0  0  0
 14 25  1  0  0  0  0
 15  5  1  0  0  0  0
 16  3  1  0  0  0  0
 17 28  1  0  0  0  0
 17 10  1  0  0  0  0
 18 20  1  0  0  0  0
 19  6  1  0  0  0  0
 20 13  1  0  0  0  0
 20 11  1  0  0  0  0
 21 26  1  0  0  0  0
 21 23  2  0  0  0  0
 23  4  1  0  0  0  0
 24 22  1  0  0  0  0
 25 17  1  0  0  0  0
 26  1  2  0  0  0  0
 27  9  1  0  0  0  0
 28 29  1  0  0  0  0
 30 34  1  0  0  0  0
 31 32  1  0  0  0  0
 32 29  1  0  0  0  0
 32 34  1  0  0  0  0
 33 31  1  0  0  0  0
 33 30  1  0  0  0  0
M  END
>  <MODEL>
2

>  <REMARK>
 VINA RESULT:      -9.2      1.651      1.932
  Name = 
  3 active torsions:
  status: ('A' for Active; 'I' for Inactive)
    1  A    between atoms: C_17  and  C_28
    2  A    between atoms: C_28  and  C_29
    3  A    between atoms: C_29  and  C_32
                            x       y       z     vdW  Elec       q    Type
                         _______ _______ _______ _____ _____    ______ ____

>  <TORSDO>
F 3

$$$$
=
 OpenBabel11112417553D

 34 40  0  0  1  0  0  0  0  0999 V2000
  189.7510  174.3400  144.5080 C   0  0  0  0  0  0  0  0  0  0  0  0
  191.5220  172.8790  143.3590 C   0  0  0  0  0  2  0  0  0  0  0  0
  183.9890  178.2990  145.0090 O   0  0  0  0  0  0  0  0  0  0  0  0
  188.2740  176.0750  145.3960 C   0  0  0  0  0  0  0  0  0  0  0  0
  186.3460  176.9860  143.9320 C   0  0  1  0  0  3  0  0  0  0  0  0
  184.8640  178.6590  142.8070 C   0  0  0  0  0  2  0  0  0  0  0  0
  184.1690  179.2700  144.0180 C   0  0  0  0  0  2  0  0  0  0  0  0
  185.8600  178.8150  146.4600 C   0  0  0  0  0  2  0  0  0  0  0  0
  189.9860  174.1160  142.0650 C   0  0  2  0  0  3  0  0  0  0  0  0
  188.4800  172.6840  139.7330 C   0  0  0  0  0  2  0  0  0  0  0  0
  186.6790  175.7920  143.0320 C   0  0  0  0  0  2  0  0  0  0  0  0
  186.3520  177.3750  146.4140 C   0  0  0  0  0  2  0  0  0  0  0  0
  188.5340  174.5470  141.8590 C   0  0  1  0  0  3  0  0  0  0  0  0
  191.7590  172.5040  141.8960 C   0  0  0  0  0  2  0  0  0  0  0  0
  187.2340  177.1610  145.1840 C   0  0  1  0  0  3  0  0  0  0  0  0
  184.3540  178.9080  146.2160 C   0  0  0  0  0  2  0  0  0  0  0  0
  189.7300  172.1200  140.4380 C   0  0  2  0  0  3  0  0  0  0  0  0
  188.7380  175.3110  144.3070 C   0  0  0  0  0  0  0  0  0  0  0  0
  186.3030  178.2770  143.1280 C   0  0  0  0  0  2  0  0  0  0  0  0
  188.1840  175.6040  142.9230 C   0  0  2  0  0  3  0  0  0  0  0  0
  189.8420  174.9240  146.8580 C   0  0  0  0  0  3  0  0  0  0  0  0
  188.6280  174.1470  139.3160 C   0  0  0  0  0  2  0  0  0  0  0  0
  188.8550  175.8920  146.6600 C   0  0  0  0  0  3  0  0  0  0  0  0
  188.2880  175.1140  140.4550 C   0  0  0  0  0  2  0  0  0  0  0  0
  190.6620  173.1830  141.0640 C   0  0  1  0  0  3  0  0  0  0  0  0
  190.2750  174.1390  145.7910 C   0  0  0  0  0  3  0  0  0  0  0  0
  190.1090  173.4120  143.3830 C   0  0  2  0  0  3  0  0  0  0  0  0
  190.5110  171.2640  139.4500 C   0  0  0  0  0  2  0  0  0  0  0  0
  189.6230  170.8510  138.2890 C   0  0  0  0  0  2  0  0  0  0  0  0
  190.0250  172.9500  135.5990 N   0  0  0  0  0  2  0  0  0  0  0  0
  191.3940  172.1350  137.1190 C   0  0  0  0  0  2  0  0  0  0  0  0
  190.3450  171.0660  136.9710 C   0  0  2  0  0  3  0  0  0  0  0  0
  190.8570  173.3260  136.6110 O   0  0  0  0  0  0  0  0  0  0  0  0
  189.4050  171.6970  135.9960 C   0  0  0  0  0  2  0  0  0  0  0  0
  1 26  1  0  0  0  0
  2 27  1  0  0  0  0
  3 16  1  0  0  0  0
  4 23  2  0  0  0  0
  5 11  1  6  0  0  0
  5 15  1  0  0  0  0
  6 19  1  0  0  0  0
  6  7  1  0  0  0  0
  7  3  1  0  0  0  0
  9 27  1  0  0  0  0
 10 17  1  0  0  0  0
 12  8  1  0  0  0  0
 13  9  1  0  0  0  0
 13 20  1  0  0  0  0
 14  2  1  0  0  0  0
 15  4  1  0  0  0  0
 15 12  1  0  0  0  0
 16  8  1  0  0  0  0
 17 25  1  0  0  0  0
 18  1  2  0  0  0  0
 18  4  1  0  0  0  0
 19  5  1  0  0  0  0
 20 11  1  0  0  0  0
 20 18  1  0  0  0  0
 22 10  1  0  0  0  0
 22 24  1  0  0  0  0
 23 21  1  0  0  0  0
 24 13  1  0  0  0  0
 25 14  1  0  0  0  0
 25  9  1  0  0  0  0
 26 21  2  0  0  0  0
 27  1  1  0  0  0  0
 28 17  1  0  0  0  0
 29 28  1  0  0  0  0
 30 34  1  0  0  0  0
 30 33  1  0  0  0  0
 32 31  1  0  0  0  0
 32 29  1  0  0  0  0
 33 31  1  0  0  0  0
 34 32  1  0  0  0  0
M  END
>  <MODEL>
3

>  <REMARK>
 VINA RESULT:      -8.9      3.450      5.865
  Name = 
  3 active torsions:
  status: ('A' for Active; 'I' for Inactive)
    1  A    between atoms: C_17  and  C_28
    2  A    between atoms: C_28  and  C_29
    3  A    between atoms: C_29  and  C_32
                            x       y       z     vdW  Elec       q    Type
                         _______ _______ _______ _____ _____    ______ ____

>  <TORSDO>
F 3

$$$$
=
 OpenBabel11112417553D

 34 40  0  0  1  0  0  0  0  0999 V2000
  189.9540  176.6600  146.3030 C   0  0  0  0  0  0  0  0  0  0  0  0
  187.4280  176.8060  146.7380 C   0  0  0  0  0  2  0  0  0  0  0  0
  195.8730  176.7820  142.5510 O   0  0  0  0  0  0  0  0  0  0  0  0
  192.2640  176.1170  145.7120 C   0  0  0  0  0  0  0  0  0  0  0  0
  193.0780  176.4680  143.2820 C   0  0  1  0  0  3  0  0  0  0  0  0
  194.1660  175.9450  141.0910 C   0  0  0  0  0  2  0  0  0  0  0  0
  195.6270  175.8700  141.5190 C   0  0  0  0  0  2  0  0  0  0  0  0
  195.7630  175.3010  144.4670 C   0  0  0  0  0  2  0  0  0  0  0  0
  188.2430  176.6670  144.5280 C   0  0  2  0  0  3  0  0  0  0  0  0
  187.1570  178.6670  142.3900 C   0  0  0  0  0  2  0  0  0  0  0  0
  191.7620  177.2330  143.1210 C   0  0  0  0  0  2  0  0  0  0  0  0
  194.7340  176.1880  145.1520 C   0  0  0  0  0  2  0  0  0  0  0  0
  189.2690  177.1530  143.5050 C   0  0  1  0  0  3  0  0  0  0  0  0
  186.2270  176.9500  145.8020 C   0  0  0  0  0  2  0  0  0  0  0  0
  193.3290  175.8310  144.6680 C   0  0  1  0  0  3  0  0  0  0  0  0
  196.6410  176.0940  143.4990 C   0  0  0  0  0  2  0  0  0  0  0  0
  186.4970  178.4140  143.7600 C   0  0  2  0  0  3  0  0  0  0  0  0
  190.9520  176.4530  145.3200 C   0  0  0  0  0  0  0  0  0  0  0  0
  193.2410  175.4270  142.1840 C   0  0  0  0  0  2  0  0  0  0  0  0
  190.6300  176.5120  143.8360 C   0  0  2  0  0  3  0  0  0  0  0  0
  191.5680  176.1700  148.0430 C   0  0  0  0  0  3  0  0  0  0  0  0
  187.5070  177.3820  141.6400 C   0  0  0  0  0  2  0  0  0  0  0  0
  192.5500  175.9510  147.0760 C   0  0  0  0  0  3  0  0  0  0  0  0
  188.8630  176.8100  142.0660 C   0  0  0  0  0  2  0  0  0  0  0  0
  186.7670  177.0190  144.3680 C   0  0  1  0  0  3  0  0  0  0  0  0
  190.2800  176.5420  147.6600 C   0  0  0  0  0  3  0  0  0  0  0  0
  188.6130  177.1910  145.8840 C   0  0  2  0  0  3  0  0  0  0  0  0
  184.9970  178.6430  143.6350 C   0  0  0  0  0  2  0  0  0  0  0  0
  184.4230  177.7980  142.5100 C   0  0  0  0  0  2  0  0  0  0  0  0
  181.9390  177.8220  140.1360 N   0  0  0  0  0  2  0  0  0  0  0  0
  182.2030  178.8200  142.0810 C   0  0  0  0  0  2  0  0  0  0  0  0
  183.6080  178.6630  141.5650 C   0  0  2  0  0  3  0  0  0  0  0  0
  181.3930  177.9150  141.3820 O   0  0  0  0  0  0  0  0  0  0  0  0
  183.3810  177.9150  140.2920 C   0  0  0  0  0  2  0  0  0  0  0  0
  1 26  1  0  0  0  0
  3 16  1  0  0  0  0
  4 23  2  0  0  0  0
  5 19  1  6  0  0  0
  5 15  1  0  0  0  0
  6  7  1  0  0  0  0
  6 19  1  0  0  0  0
  7  3  1  0  0  0  0
  8 12  1  0  0  0  0
  9 27  1  0  0  0  0
 10 17  1  0  0  0  0
 11  5  1  0  0  0  0
 11 20  1  0  0  0  0
 13 20  1  0  0  0  0
 13  9  1  0  0  0  0
 14  2  1  0  0  0  0
 15 12  1  0  0  0  0
 15  4  1  0  0  0  0
 16  8  1  0  0  0  0
 17 25  1  0  0  0  0
 18  4  1  0  0  0  0
 18  1  2  0  0  0  0
 20 18  1  0  0  0  0
 22 24  1  0  0  0  0
 22 10  1  0  0  0  0
 23 21  1  0  0  0  0
 24 13  1  0  0  0  0
 25  9  1  0  0  0  0
 25 14  1  0  0  0  0
 26 21  2  0  0  0  0
 27  1  1  0  0  0  0
 27  2  1  0  0  0  0
 28 17  1  0  0  0  0
 29 28  1  0  0  0  0
 30 34  1  0  0  0  0
 30 33  1  0  0  0  0
 32 31  1  0  0  0  0
 32 29  1  0  0  0  0
 33 31  1  0  0  0  0
 34 32  1  0  0  0  0
M  END
>  <MODEL>
4

>  <REMARK>
 VINA RESULT:      -8.9      3.354      9.320
  Name = 
  3 active torsions:
  status: ('A' for Active; 'I' for Inactive)
    1  A    between atoms: C_17  and  C_28
    2  A    between atoms: C_28  and  C_29
    3  A    between atoms: C_29  and  C_32
                            x       y       z     vdW  Elec       q    Type
                         _______ _______ _______ _____ _____    ______ ____

>  <TORSDO>
F 3

$$$$
=
 OpenBabel11112417553D

 34 40  0  0  1  0  0  0  0  0999 V2000
  188.5600  177.3640  146.6600 C   0  0  0  0  0  0  0  0  0  0  0  0
  190.8140  176.9260  147.8090 C   0  0  0  0  0  2  0  0  0  0  0  0
  183.9130  177.5060  141.4140 O   0  0  0  0  0  0  0  0  0  0  0  0
  186.6250  178.1340  145.3780 C   0  0  0  0  0  0  0  0  0  0  0  0
  186.4270  177.5250  142.8720 C   0  0  1  0  0  3  0  0  0  0  0  0
  186.0660  177.8470  140.4170 C   0  0  0  0  0  2  0  0  0  0  0  0
  184.5830  178.1990  140.4000 C   0  0  0  0  0  2  0  0  0  0  0  0
  183.7850  179.2400  143.1040 C   0  0  0  0  0  2  0  0  0  0  0  0
  190.6460  176.8310  145.4580 C   0  0  2  0  0  3  0  0  0  0  0  0
  191.8710  174.3830  143.9560 C   0  0  0  0  0  2  0  0  0  0  0  0
  187.5780  176.5630  143.1790 C   0  0  0  0  0  2  0  0  0  0  0  0
  184.4190  178.3320  144.1480 C   0  0  0  0  0  2  0  0  0  0  0  0
  189.8540  176.3420  144.2460 C   0  0  1  0  0  3  0  0  0  0  0  0
  192.1710  176.4650  147.2770 C   0  0  0  0  0  2  0  0  0  0  0  0
  185.9420  178.4020  144.0480 C   0  0  1  0  0  3  0  0  0  0  0  0
  183.0620  178.4390  142.0200 C   0  0  0  0  0  2  0  0  0  0  0  0
  192.1830  174.7510  145.4200 C   0  0  2  0  0  3  0  0  0  0  0  0
  187.9100  177.5550  145.4150 C   0  0  0  0  0  0  0  0  0  0  0  0
  186.7500  178.3930  141.6640 C   0  0  0  0  0  2  0  0  0  0  0  0
  188.5940  177.2170  144.1020 C   0  0  2  0  0  3  0  0  0  0  0  0
  186.6640  178.3500  147.8010 C   0  0  0  0  0  3  0  0  0  0  0  0
  191.9710  175.5700  142.9980 C   0  0  0  0  0  2  0  0  0  0  0  0
  186.0260  178.5530  146.5760 C   0  0  0  0  0  3  0  0  0  0  0  0
  190.6780  176.3920  142.9530 C   0  0  0  0  0  2  0  0  0  0  0  0
  192.0220  176.2490  145.7660 C   0  0  1  0  0  3  0  0  0  0  0  0
  187.9170  177.7410  147.8450 C   0  0  0  0  0  3  0  0  0  0  0  0
  189.8450  176.5860  146.7020 C   0  0  2  0  0  3  0  0  0  0  0  0
  193.5960  174.2920  145.7540 C   0  0  0  0  0  2  0  0  0  0  0  0
  193.9860  173.1040  144.8910 C   0  0  0  0  0  2  0  0  0  0  0  0
  197.1440  173.6870  146.1130 N   0  0  0  0  0  2  0  0  0  0  0  0
  196.1800  171.9700  145.1280 C   0  0  0  0  0  2  0  0  0  0  0  0
  195.4650  173.1620  144.5520 C   0  0  2  0  0  3  0  0  0  0  0  0
  196.8010  172.3840  146.3150 O   0  0  0  0  0  0  0  0  0  0  0  0
  196.0950  174.2870  145.3060 C   0  0  0  0  0  2  0  0  0  0  0  0
  1 27  1  0  0  0  0
  1 26  1  0  0  0  0
  3 16  1  0  0  0  0
  4 18  1  0  0  0  0
  4 23  2  0  0  0  0
  5 19  1  6  0  0  0
  5 11  1  0  0  0  0
  5 15  1  0  0  0  0
  6 19  1  0  0  0  0
  7  6  1  0  0  0  0
  7  3  1  0  0  0  0
  8 12  1  0  0  0  0
  9 25  1  0  0  0  0
  9 27  1  0  0  0  0
 10 17  1  0  0  0  0
 11 20  1  0  0  0  0
 13  9  1  0  0  0  0
 14  2  1  0  0  0  0
 15 12  1  0  0  0  0
 15  4  1  0  0  0  0
 16  8  1  0  0  0  0
 17 28  1  0  0  0  0
 17 25  1  0  0  0  0
 18  1  2  0  0  0  0
 20 13  1  0  0  0  0
 20 18  1  0  0  0  0
 21 26  2  0  0  0  0
 22 10  1  0  0  0  0
 23 21  1  0  0  0  0
 24 22  1  0  0  0  0
 24 13  1  0  0  0  0
 25 14  1  0  0  0  0
 27  2  1  0  0  0  0
 29 28  1  0  0  0  0
 30 33  1  0  0  0  0
 31 33  1  0  0  0  0
 32 29  1  0  0  0  0
 32 31  1  0  0  0  0
 32 34  1  0  0  0  0
 34 30  1  0  0  0  0
M  END
>  <MODEL>
5

>  <REMARK>
 VINA RESULT:      -8.8      1.991      4.123
  Name = 
  3 active torsions:
  status: ('A' for Active; 'I' for Inactive)
    1  A    between atoms: C_17  and  C_28
    2  A    between atoms: C_28  and  C_29
    3  A    between atoms: C_29  and  C_32
                            x       y       z     vdW  Elec       q    Type
                         _______ _______ _______ _____ _____    ______ ____

>  <TORSDO>
F 3

$$$$
=
 OpenBabel11112417553D

 34 40  0  0  1  0  0  0  0  0999 V2000
  191.8380  176.2560  146.1740 C   0  0  0  0  0  0  0  0  0  0  0  0
  194.3070  175.6300  146.4960 C   0  0  0  0  0  2  0  0  0  0  0  0
  185.7430  176.9310  142.7780 O   0  0  0  0  0  0  0  0  0  0  0  0
  189.6480  177.2000  145.6310 C   0  0  0  0  0  0  0  0  0  0  0  0
  188.5920  176.7310  143.3170 C   0  0  1  0  0  3  0  0  0  0  0  0
  187.4650  177.1960  141.1320 C   0  0  0  0  0  2  0  0  0  0  0  0
  186.0880  177.6340  141.6190 C   0  0  0  0  0  2  0  0  0  0  0  0
  186.3030  178.5810  144.4630 C   0  0  0  0  0  2  0  0  0  0  0  0
  193.3660  175.6640  144.3330 C   0  0  2  0  0  3  0  0  0  0  0  0
  193.8500  173.2270  142.4400 C   0  0  0  0  0  2  0  0  0  0  0  0
  189.7070  175.6890  143.1960 C   0  0  0  0  0  2  0  0  0  0  0  0
  187.1800  177.5870  145.2110 C   0  0  0  0  0  2  0  0  0  0  0  0
  192.1860  175.2830  143.4400 C   0  0  1  0  0  3  0  0  0  0  0  0
  195.3760  175.1190  145.5300 C   0  0  0  0  0  2  0  0  0  0  0  0
  188.5860  177.5740  144.6120 C   0  0  1  0  0  3  0  0  0  0  0  0
  185.2090  177.8790  143.6590 C   0  0  0  0  0  2  0  0  0  0  0  0
  194.6530  173.5030  143.7260 C   0  0  2  0  0  3  0  0  0  0  0  0
  190.8290  176.5470  145.2230 C   0  0  0  0  0  0  0  0  0  0  0  0
  188.5590  177.6380  142.0950 C   0  0  0  0  0  2  0  0  0  0  0  0
  191.0150  176.2350  143.7470 C   0  0  2  0  0  3  0  0  0  0  0  0
  190.5000  177.2910  147.9080 C   0  0  0  0  0  3  0  0  0  0  0  0
  193.7120  174.4540  141.5370 C   0  0  0  0  0  2  0  0  0  0  0  0
  189.5100  177.5920  146.9710 C   0  0  0  0  0  3  0  0  0  0  0  0
  192.5390  175.3500  141.9480 C   0  0  0  0  0  2  0  0  0  0  0  0
  194.7220  174.9880  144.1480 C   0  0  1  0  0  3  0  0  0  0  0  0
  191.6500  176.6090  147.5150 C   0  0  0  0  0  3  0  0  0  0  0  0
  193.0050  175.4030  145.7640 C   0  0  2  0  0  3  0  0  0  0  0  0
  196.0600  172.9460  143.5580 C   0  0  0  0  0  2  0  0  0  0  0  0
  196.1130  171.4940  144.0010 C   0  0  0  0  0  2  0  0  0  0  0  0
  195.0550  169.3810  146.4960 N   0  0  0  0  0  2  0  0  0  0  0  0
  196.8410  170.6370  146.2120 C   0  0  0  0  0  2  0  0  0  0  0  0
  195.7610  171.3790  145.4730 C   0  0  2  0  0  3  0  0  0  0  0  0
  196.4100  169.3130  146.3720 O   0  0  0  0  0  0  0  0  0  0  0  0
  194.5980  170.4530  145.6270 C   0  0  0  0  0  2  0  0  0  0  0  0
  1 26  1  0  0  0  0
  3 16  1  0  0  0  0
  4 23  2  0  0  0  0
  5 19  1  6  0  0  0
  5 15  1  0  0  0  0
  6  7  1  0  0  0  0
  6 19  1  0  0  0  0
  7  3  1  0  0  0  0
  8 12  1  0  0  0  0
  9 27  1  0  0  0  0
 10 17  1  0  0  0  0
 11  5  1  0  0  0  0
 11 20  1  0  0  0  0
 13 20  1  0  0  0  0
 13  9  1  0  0  0  0
 14  2  1  0  0  0  0
 15 12  1  0  0  0  0
 15  4  1  0  0  0  0
 16  8  1  0  0  0  0
 17 25  1  0  0  0  0
 18  4  1  0  0  0  0
 18  1  2  0  0  0  0
 20 18  1  0  0  0  0
 22 24  1  0  0  0  0
 22 10  1  0  0  0  0
 23 21  1  0  0  0  0
 24 13  1  0  0  0  0
 25  9  1  0  0  0  0
 25 14  1  0  0  0  0
 26 21  2  0  0  0  0
 27  1  1  0  0  0  0
 27  2  1  0  0  0  0
 28 17  1  0  0  0  0
 28 29  1  0  0  0  0
 29 32  1  0  0  0  0
 31 33  1  0  0  0  0
 32 34  1  0  0  0  0
 32 31  1  0  0  0  0
 33 30  1  0  0  0  0
 34 30  1  0  0  0  0
M  END
>  <MODEL>
6

>  <REMARK>
 VINA RESULT:      -8.7      2.689      4.617
  Name = 
  3 active torsions:
  status: ('A' for Active; 'I' for Inactive)
    1  A    between atoms: C_17  and  C_28
    2  A    between atoms: C_28  and  C_29
    3  A    between atoms: C_29  and  C_32
                            x       y       z     vdW  Elec       q    Type
                         _______ _______ _______ _____ _____    ______ ____

>  <TORSDO>
F 3

$$$$
=
 OpenBabel11112417553D

 34 40  0  0  1  0  0  0  0  0999 V2000
  192.1800  176.2610  145.7010 C   0  0  0  0  0  0  0  0  0  0  0  0
  189.9140  176.3430  146.9060 C   0  0  0  0  0  2  0  0  0  0  0  0
  196.5840  175.8830  140.2620 O   0  0  0  0  0  0  0  0  0  0  0  0
  194.2470  175.7430  144.5020 C   0  0  0  0  0  0  0  0  0  0  0  0
  194.2190  175.5710  141.9210 C   0  0  1  0  0  3  0  0  0  0  0  0
  194.6410  174.6230  139.6440 C   0  0  0  0  0  2  0  0  0  0  0  0
  196.1580  174.7420  139.5720 C   0  0  0  0  0  2  0  0  0  0  0  0
  197.2700  174.8840  142.3600 C   0  0  0  0  0  2  0  0  0  0  0  0
  190.0220  175.7460  144.6270 C   0  0  2  0  0  3  0  0  0  0  0  0
  188.0710  177.1220  142.6130 C   0  0  0  0  0  2  0  0  0  0  0  0
  192.8260  176.1920  142.0540 C   0  0  0  0  0  2  0  0  0  0  0  0
  196.3910  175.8390  143.1550 C   0  0  0  0  0  2  0  0  0  0  0  0
  190.6070  176.0460  143.2470 C   0  0  1  0  0  3  0  0  0  0  0  0
  188.4760  176.1890  146.4110 C   0  0  0  0  0  2  0  0  0  0  0  0
  194.9680  175.2910  143.2440 C   0  0  1  0  0  3  0  0  0  0  0  0
  197.6920  175.4840  141.0190 C   0  0  0  0  0  2  0  0  0  0  0  0
  187.9040  177.1530  144.1460 C   0  0  2  0  0  3  0  0  0  0  0  0
  192.8460  175.8950  144.5050 C   0  0  0  0  0  0  0  0  0  0  0  0
  194.1760  174.3160  141.0620 C   0  0  0  0  0  2  0  0  0  0  0  0
  192.0770  175.5870  143.2310 C   0  0  2  0  0  3  0  0  0  0  0  0
  194.3010  176.2920  146.8720 C   0  0  0  0  0  3  0  0  0  0  0  0
  188.3430  175.7230  142.0610 C   0  0  0  0  0  2  0  0  0  0  0  0
  194.9590  175.9170  145.6990 C   0  0  0  0  0  3  0  0  0  0  0  0
  189.8290  175.3530  142.1210 C   0  0  0  0  0  2  0  0  0  0  0  0
  188.5340  175.9570  144.8960 C   0  0  1  0  0  3  0  0  0  0  0  0
  192.9200  176.4820  146.8690 C   0  0  0  0  0  3  0  0  0  0  0  0
  190.7160  176.5930  145.6510 C   0  0  2  0  0  3  0  0  0  0  0  0
  186.4220  177.2500  144.4800 C   0  0  0  0  0  2  0  0  0  0  0  0
  186.0520  178.6790  144.8420 C   0  0  0  0  0  2  0  0  0  0  0  0
  185.5260  177.3380  147.9610 N   0  0  0  0  0  2  0  0  0  0  0  0
  185.8730  179.3800  147.2140 C   0  0  0  0  0  2  0  0  0  0  0  0
  185.1670  178.6970  146.0750 C   0  0  2  0  0  3  0  0  0  0  0  0
  186.3990  178.3800  148.0440 O   0  0  0  0  0  0  0  0  0  0  0  0
  185.0260  177.3040  146.5970 C   0  0  0  0  0  2  0  0  0  0  0  0
  1 26  1  0  0  0  0
  3 16  1  0  0  0  0
  4 18  1  0  0  0  0
  4 23  2  0  0  0  0
  5 19  1  1  0  0  0
  5 11  1  0  0  0  0
  5 15  1  0  0  0  0
  6 19  1  0  0  0  0
  7  6  1  0  0  0  0
  7  3  1  0  0  0  0
  8 12  1  0  0  0  0
  9 25  1  0  0  0  0
  9 27  1  0  0  0  0
 10 17  1  0  0  0  0
 11 20  1  0  0  0  0
 12 15  1  0  0  0  0
 13  9  1  0  0  0  0
 14  2  1  0  0  0  0
 15  4  1  0  0  0  0
 16  8  1  0  0  0  0
 17 28  1  0  0  0  0
 17 25  1  0  0  0  0
 18  1  2  0  0  0  0
 20 13  1  0  0  0  0
 20 18  1  0  0  0  0
 22 24  1  0  0  0  0
 22 10  1  0  0  0  0
 23 21  1  0  0  0  0
 24 13  1  0  0  0  0
 25 14  1  0  0  0  0
 26 21  2  0  0  0  0
 27  1  1  0  0  0  0
 27  2  1  0  0  0  0
 28 29  1  0  0  0  0
 29 32  1  0  0  0  0
 30 33  1  0  0  0  0
 31 33  1  0  0  0  0
 32 34  1  0  0  0  0
 32 31  1  0  0  0  0
 34 30  1  0  0  0  0
M  END
>  <MODEL>
7

>  <REMARK>
 VINA RESULT:      -8.6      2.881      8.983
  Name = 
  3 active torsions:
  status: ('A' for Active; 'I' for Inactive)
    1  A    between atoms: C_17  and  C_28
    2  A    between atoms: C_28  and  C_29
    3  A    between atoms: C_29  and  C_32
                            x       y       z     vdW  Elec       q    Type
                         _______ _______ _______ _____ _____    ______ ____

>  <TORSDO>
F 3

$$$$
=
 OpenBabel11112417553D

 34 40  0  0  1  0  0  0  0  0999 V2000
  190.4280  172.7650  142.7120 C   0  0  0  0  0  0  0  0  0  0  0  0
  188.2020  173.8470  142.0290 C   0  0  0  0  0  2  0  0  0  0  0  0
  196.4810  172.0990  146.1840 O   0  0  0  0  0  0  0  0  0  0  0  0
  192.7360  172.0610  143.1130 C   0  0  0  0  0  0  0  0  0  0  0  0
  194.1500  173.2740  144.9080 C   0  0  1  0  0  3  0  0  0  0  0  0
  196.1060  174.4520  145.9280 C   0  0  0  0  0  2  0  0  0  0  0  0
  197.1260  173.3200  145.9580 C   0  0  0  0  0  2  0  0  0  0  0  0
  196.3640  171.2520  143.9160 C   0  0  0  0  0  2  0  0  0  0  0  0
  189.7670  175.0640  143.3090 C   0  0  2  0  0  3  0  0  0  0  0  0
  188.7800  176.5850  145.8510 C   0  0  0  0  0  2  0  0  0  0  0  0
  192.8090  173.8880  145.3200 C   0  0  0  0  0  2  0  0  0  0  0  0
  194.8620  171.0310  144.0270 C   0  0  0  0  0  2  0  0  0  0  0  0
  190.7370  175.0650  144.4900 C   0  0  1  0  0  3  0  0  0  0  0  0
  187.5510  175.1820  142.3900 C   0  0  0  0  0  2  0  0  0  0  0  0
  194.1160  172.3210  143.6910 C   0  0  1  0  0  3  0  0  0  0  0  0
  197.0490  171.1910  145.2810 C   0  0  0  0  0  2  0  0  0  0  0  0
  187.8510  176.0370  144.7500 C   0  0  2  0  0  3  0  0  0  0  0  0
  191.6950  172.9920  143.3060 C   0  0  0  0  0  0  0  0  0  0  0  0
  195.2030  174.3530  144.7050 C   0  0  0  0  0  2  0  0  0  0  0  0
  191.9870  174.2570  144.0950 C   0  0  2  0  0  3  0  0  0  0  0  0
  191.2590  170.7150  141.7240 C   0  0  0  0  0  3  0  0  0  0  0  0
  189.9640  177.3830  145.3040 C   0  0  0  0  0  2  0  0  0  0  0  0
  192.5130  170.9420  142.2950 C   0  0  0  0  0  3  0  0  0  0  0  0
  191.1400  176.4840  144.9110 C   0  0  0  0  0  2  0  0  0  0  0  0
  188.4990  175.9110  143.3510 C   0  0  1  0  0  3  0  0  0  0  0  0
  190.2160  171.6130  141.9470 C   0  0  0  0  0  3  0  0  0  0  0  0
  189.2810  173.6660  143.0720 C   0  0  2  0  0  3  0  0  0  0  0  0
  186.6100  176.9140  144.6690 C   0  0  0  0  0  2  0  0  0  0  0  0
  186.0850  177.2230  146.0610 C   0  0  0  0  0  2  0  0  0  0  0  0
  184.6640  179.7820  144.2610 N   0  0  0  0  0  2  0  0  0  0  0  0
  184.0470  178.6370  146.0380 C   0  0  0  0  0  2  0  0  0  0  0  0
  185.5500  178.6420  146.1190 C   0  0  2  0  0  3  0  0  0  0  0  0
  183.6950  178.9380  144.7150 O   0  0  0  0  0  0  0  0  0  0  0  0
  185.9190  179.3560  144.8590 C   0  0  0  0  0  2  0  0  0  0  0  0
  1 27  1  0  0  0  0
  1 18  1  0  0  0  0
  2 14  1  0  0  0  0
  2 27  1  0  0  0  0
  4 18  2  0  0  0  0
  4 15  1  0  0  0  0
  5 19  1  6  0  0  0
  5 11  1  0  0  0  0
  6  7  1  0  0  0  0
  7  3  1  0  0  0  0
  8 12  1  0  0  0  0
  8 16  1  0  0  0  0
  9 25  1  0  0  0  0
  9 13  1  0  0  0  0
 13 24  1  0  0  0  0
 14 25  1  0  0  0  0
 15 12  1  0  0  0  0
 15  5  1  0  0  0  0
 16  3  1  0  0  0  0
 17 10  1  0  0  0  0
 18 20  1  0  0  0  0
 19  6  1  0  0  0  0
 20 13  1  0  0  0  0
 20 11  1  0  0  0  0
 21 26  1  0  0  0  0
 21 23  2  0  0  0  0
 22 10  1  0  0  0  0
 23  4  1  0  0  0  0
 24 22  1  0  0  0  0
 25 17  1  0  0  0  0
 26  1  2  0  0  0  0
 27  9  1  0  0  0  0
 28 17  1  0  0  0  0
 28 29  1  0  0  0  0
 29 32  1  0  0  0  0
 30 33  1  0  0  0  0
 30 34  1  0  0  0  0
 31 32  1  0  0  0  0
 33 31  1  0  0  0  0
 34 32  1  0  0  0  0
M  END
>  <MODEL>
8

>  <REMARK>
 VINA RESULT:      -8.5      2.857      8.728
  Name = 
  3 active torsions:
  status: ('A' for Active; 'I' for Inactive)
    1  A    between atoms: C_17  and  C_28
    2  A    between atoms: C_28  and  C_29
    3  A    between atoms: C_29  and  C_32
                            x       y       z     vdW  Elec       q    Type
                         _______ _______ _______ _____ _____    ______ ____

>  <TORSDO>
F 3

$$$$
=
 OpenBabel11112417553D

 34 40  0  0  1  0  0  0  0  0999 V2000
  192.4750  176.0650  145.0710 C   0  0  0  0  0  0  0  0  0  0  0  0
  190.3890  177.5560  144.9360 C   0  0  0  0  0  2  0  0  0  0  0  0
  196.4580  170.4210  143.8850 O   0  0  0  0  0  0  0  0  0  0  0  0
  194.2180  174.4030  145.4930 C   0  0  0  0  0  0  0  0  0  0  0  0
  194.1360  172.1250  144.2700 C   0  0  1  0  0  3  0  0  0  0  0  0
  194.1930  169.6430  143.9610 C   0  0  0  0  0  2  0  0  0  0  0  0
  195.6510  169.3560  144.2980 C   0  0  0  0  0  2  0  0  0  0  0  0
  196.7310  171.5920  145.9900 C   0  0  0  0  0  2  0  0  0  0  0  0
  190.2790  175.3020  144.2490 C   0  0  2  0  0  3  0  0  0  0  0  0
  188.9630  174.6250  141.4990 C   0  0  0  0  0  2  0  0  0  0  0  0
  193.0620  172.8030  143.4160 C   0  0  0  0  0  2  0  0  0  0  0  0
  196.2550  172.9010  145.3760 C   0  0  0  0  0  2  0  0  0  0  0  0
  190.9370  174.1630  143.4700 C   0  0  1  0  0  3  0  0  0  0  0  0
  188.9940  177.3280  144.3540 C   0  0  0  0  0  2  0  0  0  0  0  0
  194.7290  172.9750  145.4170 C   0  0  1  0  0  3  0  0  0  0  0  0
  197.3450  170.6640  144.9420 C   0  0  0  0  0  2  0  0  0  0  0  0
  188.8150  175.9760  142.2260 C   0  0  2  0  0  3  0  0  0  0  0  0
  192.9660  174.7420  144.9420 C   0  0  0  0  0  0  0  0  0  0  0  0
  193.6440  170.7870  144.8030 C   0  0  0  0  0  2  0  0  0  0  0  0
  192.1420  173.6500  144.2810 C   0  0  2  0  0  3  0  0  0  0  0  0
  194.4610  176.6800  146.3150 C   0  0  0  0  0  3  0  0  0  0  0  0
  188.7120  173.4190  142.4050 C   0  0  0  0  0  2  0  0  0  0  0  0
  194.9410  175.3740  146.2020 C   0  0  0  0  0  3  0  0  0  0  0  0
  189.9640  173.0110  143.1900 C   0  0  0  0  0  2  0  0  0  0  0  0
  188.9680  175.9130  143.7630 C   0  0  1  0  0  3  0  0  0  0  0  0
  193.2420  177.0290  145.7360 C   0  0  0  0  0  3  0  0  0  0  0  0
  191.2300  176.4590  144.3270 C   0  0  2  0  0  3  0  0  0  0  0  0
  187.4670  176.5860  141.8640 C   0  0  0  0  0  2  0  0  0  0  0  0
  186.4030  176.1460  142.8550 C   0  0  0  0  0  2  0  0  0  0  0  0
  185.4960  179.1470  144.2610 N   0  0  0  0  0  2  0  0  0  0  0  0
  185.7030  178.4310  142.1890 C   0  0  0  0  0  2  0  0  0  0  0  0
  185.3120  177.1970  142.9580 C   0  0  2  0  0  3  0  0  0  0  0  0
  186.1950  179.3640  143.1120 O   0  0  0  0  0  0  0  0  0  0  0  0
  185.2640  177.7160  144.3580 C   0  0  0  0  0  2  0  0  0  0  0  0
  1 26  1  0  0  0  0
  3  7  1  0  0  0  0
  3 16  1  0  0  0  0
  4 23  2  0  0  0  0
  5 11  1  1  0  0  0
  5 19  1  0  0  0  0
  5 15  1  0  0  0  0
  6  7  1  0  0  0  0
  6 19  1  0  0  0  0
  9 27  1  0  0  0  0
 10 17  1  0  0  0  0
 10 22  1  0  0  0  0
 11 20  1  0  0  0  0
 12 15  1  0  0  0  0
 12  8  1  0  0  0  0
 13  9  1  0  0  0  0
 13 20  1  0  0  0  0
 14  2  1  0  0  0  0
 15  4  1  0  0  0  0
 16  8  1  0  0  0  0
 17 25  1  0  0  0  0
 18  1  2  0  0  0  0
 18  4  1  0  0  0  0
 20 18  1  0  0  0  0
 22 24  1  0  0  0  0
 23 21  1  0  0  0  0
 24 13  1  0  0  0  0
 25  9  1  0  0  0  0
 25 14  1  0  0  0  0
 26 21  2  0  0  0  0
 27  2  1  0  0  0  0
 27  1  1  0  0  0  0
 28 17  1  0  0  0  0
 28 29  1  0  0  0  0
 29 32  1  0  0  0  0
 30 34  1  0  0  0  0
 31 32  1  0  0  0  0
 31 33  1  0  0  0  0
 32 34  1  0  0  0  0
 33 30  1  0  0  0  0
M  END
>  <MODEL>
9

>  <REMARK>
 VINA RESULT:      -8.4      2.895      9.110
  Name = 
  3 active torsions:
  status: ('A' for Active; 'I' for Inactive)
    1  A    between atoms: C_17  and  C_28
    2  A    between atoms: C_28  and  C_29
    3  A    between atoms: C_29  and  C_32
                            x       y       z     vdW  Elec       q    Type
                         _______ _______ _______ _____ _____    ______ ____

>  <TORSDO>
F 3

$$$$
