=
 OpenBabel11112416383D

 32 37  0  0  1  0  0  0  0  0999 V2000
  194.3270  175.6600  146.2010 C   0  0  0  0  0  2  0  0  0  0  0  0
  189.6240  173.7950  144.1360 C   0  0  1  0  0  3  0  0  0  0  0  0
  189.7110  171.5380  139.8000 C   0  0  0  0  0  3  0  0  0  0  0  0
  188.7350  172.4060  139.3070 C   0  0  0  0  0  3  0  0  0  0  0  0
  188.2750  175.9900  144.3560 C   0  0  0  0  0  0  0  0  0  0  0  0
  187.5010  176.9730  143.7410 C   0  0  0  0  0  0  0  0  0  0  0  0
  191.5160  175.0870  145.0850 N   0  0  2  0  0  0  0  0  0  0  0  0
  191.7790  174.0570  142.8570 C   0  0  0  0  0  2  0  0  0  0  0  0
  186.4410  177.9770  142.0780 N   0  0  0  0  0  0  0  0  0  0  0  0
  193.5770  175.4350  143.7640 C   0  0  0  0  0  2  0  0  0  0  0  0
  190.2890  171.7710  141.0500 C   0  0  0  0  0  3  0  0  0  0  0  0
  190.5770  173.1530  143.1150 C   0  0  2  0  0  3  0  0  0  0  0  0
  189.8820  172.8670  141.8200 C   0  0  0  0  0  0  0  0  0  0  0  0
  188.4550  174.8900  142.1630 C   0  0  0  0  0  0  0  0  0  0  0  0
  186.2350  178.6920  143.2060 C   0  0  0  0  0  3  0  0  0  0  0  0
  193.1070  176.3370  146.2870 O   0  0  0  0  0  0  0  0  0  0  0  0
  192.4750  174.4500  144.1590 C   0  0  1  0  0  3  0  0  0  0  0  0
  186.8890  178.0890  144.2830 C   0  0  0  0  0  3  0  0  0  0  0  0
  192.1570  175.3150  146.3790 C   0  0  0  0  0  2  0  0  0  0  0  0
  194.7520  175.4540  144.7450 C   0  0  1  0  0  3  0  0  0  0  0  0
  188.3320  173.5070  140.0680 C   0  0  0  0  0  3  0  0  0  0  0  0
  188.9010  173.7490  141.3280 C   0  0  0  0  0  0  0  0  0  0  0  0
  187.6550  175.9030  141.5910 C   0  0  0  0  0  3  0  0  0  0  0  0
  190.4370  174.1440  145.3860 C   0  0  0  0  0  2  0  0  0  0  0  0
  188.4860  176.0460  145.7300 O   0  0  0  0  0  1  0  0  0  0  0  0
  185.9080  178.2910  140.7630 C   0  0  0  0  0  1  0  0  0  0  0  0
  188.8100  174.9460  143.5490 C   0  0  0  0  0  0  0  0  0  0  0  0
  187.2110  176.9330  142.4120 C   0  0  0  0  0  0  0  0  0  0  0  0
  195.6910  176.4990  144.3660 N   0  0  0  0  0  2  0  0  0  0  0  0
  196.8030  176.2630  143.5010 C   0  0  0  0  0  0  0  0  0  0  0  0
  197.0310  175.1100  143.0470 O   0  0  0  0  0  0  0  0  0  0  0  0
  197.7050  177.3870  143.1380 C   0  0  0  0  0  1  0  0  0  0  0  0
  1 16  1  0  0  0  0
  2 24  1  1  0  0  0
  3 11  1  0  0  0  0
  4  3  2  0  0  0  0
  4 21  1  0  0  0  0
  5 25  1  0  0  0  0
  6 18  1  0  0  0  0
  6  5  1  0  0  0  0
  7 24  1  1  0  0  0
  7 19  1  0  0  0  0
  9 28  1  0  0  0  0
  9 15  1  0  0  0  0
 10 17  1  0  0  0  0
 10 20  1  0  0  0  0
 11 13  2  0  0  0  0
 12  8  1  6  0  0  0
 12  2  1  0  0  0  0
 13 12  1  0  0  0  0
 14 27  1  0  0  0  0
 15 18  2  0  0  0  0
 16 19  1  0  0  0  0
 17  8  1  6  0  0  0
 17  7  1  0  0  0  0
 20 29  1  6  0  0  0
 20  1  1  0  0  0  0
 21 22  2  0  0  0  0
 22 13  1  0  0  0  0
 22 14  1  0  0  0  0
 23 14  2  0  0  0  0
 23 28  1  0  0  0  0
 26  9  1  0  0  0  0
 27  2  1  0  0  0  0
 27  5  2  0  0  0  0
 28  6  2  0  0  0  0
 30 29  1  0  0  0  0
 31 30  2  0  0  0  0
 32 30  1  0  0  0  0
M  END
>  <MODEL>
1

>  <REMARK>
 VINA RESULT:      -7.8      0.000      0.000
  Name = 
  1 active torsions:
  status: ('A' for Active; 'I' for Inactive)
    1  A    between atoms: C_20  and  N_29
                            x       y       z     vdW  Elec       q    Type
                         _______ _______ _______ _____ _____    ______ ____

>  <TORSDO>
F 1

$$$$
=
 OpenBabel11112416383D

 32 37  0  0  1  0  0  0  0  0999 V2000
  192.0960  174.1500  143.2970 C   0  0  0  0  0  2  0  0  0  0  0  0
  188.5930  178.2150  144.3280 C   0  0  1  0  0  3  0  0  0  0  0  0
  185.8870  177.9890  148.3950 C   0  0  0  0  0  3  0  0  0  0  0  0
  184.7180  178.1520  147.6490 C   0  0  0  0  0  3  0  0  0  0  0  0
  187.3850  178.1960  142.0420 C   0  0  0  0  0  0  0  0  0  0  0  0
  186.1880  178.1010  141.3340 C   0  0  0  0  0  0  0  0  0  0  0  0
  189.9270  176.3320  143.4230 N   0  0  2  0  0  0  0  0  0  0  0  0
  188.6100  175.9740  145.4800 C   0  0  0  0  0  2  0  0  0  0  0  0
  184.0010  177.8960  141.0620 N   0  0  0  0  0  0  0  0  0  0  0  0
  189.8360  174.1070  144.4990 C   0  0  0  0  0  2  0  0  0  0  0  0
  187.1100  177.7970  147.7470 C   0  0  0  0  0  3  0  0  0  0  0  0
  188.4730  177.4820  145.6740 C   0  0  2  0  0  3  0  0  0  0  0  0
  187.1710  177.7810  146.3490 C   0  0  0  0  0  0  0  0  0  0  0  0
  186.0740  177.9530  144.1090 C   0  0  0  0  0  0  0  0  0  0  0  0
  184.5690  178.0320  139.8430 C   0  0  0  0  0  3  0  0  0  0  0  0
  191.3200  174.7860  142.3230 O   0  0  0  0  0  0  0  0  0  0  0  0
  189.8860  175.6200  144.7170 C   0  0  1  0  0  3  0  0  0  0  0  0
  185.9540  178.1660  139.9720 C   0  0  0  0  0  3  0  0  0  0  0  0
  191.2190  176.1050  142.7780 C   0  0  0  0  0  2  0  0  0  0  0  0
  191.2210  173.4700  144.3530 C   0  0  1  0  0  3  0  0  0  0  0  0
  184.7720  178.1280  146.2530 C   0  0  0  0  0  3  0  0  0  0  0  0
  185.9960  177.9410  145.5900 C   0  0  0  0  0  0  0  0  0  0  0  0
  184.8880  177.8750  143.3480 C   0  0  0  0  0  3  0  0  0  0  0  0
  189.9010  177.7750  143.6650 C   0  0  0  0  0  2  0  0  0  0  0  0
  188.5700  178.4250  141.3520 O   0  0  0  0  0  1  0  0  0  0  0  0
  182.5800  177.7450  141.3250 C   0  0  0  0  0  1  0  0  0  0  0  0
  187.3440  178.0720  143.4600 C   0  0  0  0  0  0  0  0  0  0  0  0
  184.9910  177.9390  141.9630 C   0  0  0  0  0  0  0  0  0  0  0  0
  191.0810  172.0590  144.0260 N   0  0  0  0  0  2  0  0  0  0  0  0
  192.1690  171.1360  144.1030 C   0  0  0  0  0  0  0  0  0  0  0  0
  193.3190  171.5250  144.4390 O   0  0  0  0  0  0  0  0  0  0  0  0
  191.9420  169.7040  143.7770 C   0  0  0  0  0  1  0  0  0  0  0  0
  1 20  1  0  0  0  0
  2 24  1  6  0  0  0
  2 12  1  0  0  0  0
  4  3  2  0  0  0  0
  5 27  1  0  0  0  0
  6 28  1  0  0  0  0
  6  5  2  0  0  0  0
  7 19  1  1  0  0  0
  7 24  1  0  0  0  0
  7 17  1  0  0  0  0
  9 26  1  0  0  0  0
  9 28  1  0  0  0  0
 11  3  1  0  0  0  0
 12  8  1  6  0  0  0
 12 13  1  0  0  0  0
 13 11  2  0  0  0  0
 14 22  1  0  0  0  0
 15 18  2  0  0  0  0
 15  9  1  0  0  0  0
 16 19  1  0  0  0  0
 16  1  1  0  0  0  0
 17 10  1  6  0  0  0
 17  8  1  0  0  0  0
 18  6  1  0  0  0  0
 20 29  1  6  0  0  0
 20 10  1  0  0  0  0
 21  4  1  0  0  0  0
 22 21  2  0  0  0  0
 22 13  1  0  0  0  0
 23 14  1  0  0  0  0
 25  5  1  0  0  0  0
 27 14  2  0  0  0  0
 27  2  1  0  0  0  0
 28 23  2  0  0  0  0
 29 30  1  0  0  0  0
 30 31  2  0  0  0  0
 32 30  1  0  0  0  0
M  END
>  <MODEL>
2

>  <REMARK>
 VINA RESULT:      -7.7      3.372      5.741
  Name = 
  1 active torsions:
  status: ('A' for Active; 'I' for Inactive)
    1  A    between atoms: C_20  and  N_29
                            x       y       z     vdW  Elec       q    Type
                         _______ _______ _______ _____ _____    ______ ____

>  <TORSDO>
F 1

$$$$
=
 OpenBabel11112416383D

 32 37  0  0  1  0  0  0  0  0999 V2000
  190.6520  170.5470  139.0480 C   0  0  0  0  0  2  0  0  0  0  0  0
  189.6930  173.1870  143.7350 C   0  0  1  0  0  3  0  0  0  0  0  0
  187.0780  177.3160  143.5960 C   0  0  0  0  0  3  0  0  0  0  0  0
  188.0920  178.0020  144.2670 C   0  0  0  0  0  3  0  0  0  0  0  0
  192.1440  173.3070  144.5520 C   0  0  0  0  0  0  0  0  0  0  0  0
  193.2120  174.0910  144.9860 C   0  0  0  0  0  0  0  0  0  0  0  0
  190.6160  172.0410  141.7400 N   0  0  2  0  0  0  0  0  0  0  0  0
  189.3500  174.1370  141.4270 C   0  0  0  0  0  2  0  0  0  0  0  0
  194.2660  175.9530  145.5490 N   0  0  0  0  0  0  0  0  0  0  0  0
  190.3720  173.0520  139.4960 C   0  0  0  0  0  2  0  0  0  0  0  0
  187.2930  176.0080  143.1530 C   0  0  0  0  0  3  0  0  0  0  0  0
  188.7630  174.0110  142.8310 C   0  0  2  0  0  3  0  0  0  0  0  0
  188.5190  175.3770  143.3920 C   0  0  0  0  0  0  0  0  0  0  0  0
  190.8320  175.3770  144.3410 C   0  0  0  0  0  0  0  0  0  0  0  0
  195.1120  174.9150  145.7320 C   0  0  0  0  0  3  0  0  0  0  0  0
  191.5880  170.6890  140.0770 O   0  0  0  0  0  0  0  0  0  0  0  0
  189.6980  172.7700  140.8400 C   0  0  1  0  0  3  0  0  0  0  0  0
  194.4820  173.7170  145.3880 C   0  0  0  0  0  3  0  0  0  0  0  0
  190.8150  170.6800  141.2430 C   0  0  0  0  0  2  0  0  0  0  0  0
  190.2210  171.9060  138.4910 C   0  0  1  0  0  3  0  0  0  0  0  0
  189.3200  177.3800  144.5010 C   0  0  0  0  0  3  0  0  0  0  0  0
  189.5470  176.0640  144.0660 C   0  0  0  0  0  0  0  0  0  0  0  0
  191.9380  176.1240  144.7980 C   0  0  0  0  0  3  0  0  0  0  0  0
  189.9680  171.8510  143.0390 C   0  0  0  0  0  2  0  0  0  0  0  0
  192.2800  171.9230  144.5200 O   0  0  0  0  0  1  0  0  0  0  0  0
  194.5660  177.3510  145.8120 C   0  0  0  0  0  1  0  0  0  0  0  0
  190.9360  173.9600  144.1730 C   0  0  0  0  0  0  0  0  0  0  0  0
  193.1130  175.4440  145.0960 C   0  0  0  0  0  0  0  0  0  0  0  0
  190.9920  172.2000  137.2920 N   0  0  0  0  0  2  0  0  0  0  0  0
  190.4740  172.0080  135.9750 C   0  0  0  0  0  0  0  0  0  0  0  0
  189.3160  171.5440  135.8000 O   0  0  0  0  0  0  0  0  0  0  0  0
  191.3120  172.3560  134.7980 C   0  0  0  0  0  1  0  0  0  0  0  0
  1 16  1  0  0  0  0
  2 24  1  6  0  0  0
  2 27  1  0  0  0  0
  3  4  1  0  0  0  0
  4 21  2  0  0  0  0
  5  6  1  0  0  0  0
  6 28  2  0  0  0  0
  6 18  1  0  0  0  0
  7 19  1  6  0  0  0
  7 24  1  0  0  0  0
  9 15  1  0  0  0  0
  9 26  1  0  0  0  0
 11 13  1  0  0  0  0
 11  3  2  0  0  0  0
 12  8  1  6  0  0  0
 12 13  1  0  0  0  0
 12  2  1  0  0  0  0
 13 22  2  0  0  0  0
 14 23  2  0  0  0  0
 16 19  1  0  0  0  0
 17 10  1  6  0  0  0
 17  8  1  0  0  0  0
 17  7  1  0  0  0  0
 18 15  2  0  0  0  0
 20 29  1  6  0  0  0
 20  1  1  0  0  0  0
 20 10  1  0  0  0  0
 22 14  1  0  0  0  0
 22 21  1  0  0  0  0
 23 28  1  0  0  0  0
 25  5  1  0  0  0  0
 27 14  1  0  0  0  0
 27  5  2  0  0  0  0
 28  9  1  0  0  0  0
 30 29  1  0  0  0  0
 31 30  2  0  0  0  0
 32 30  1  0  0  0  0
M  END
>  <MODEL>
3

>  <REMARK>
 VINA RESULT:      -7.4      3.443      7.064
  Name = 
  1 active torsions:
  status: ('A' for Active; 'I' for Inactive)
    1  A    between atoms: C_20  and  N_29
                            x       y       z     vdW  Elec       q    Type
                         _______ _______ _______ _____ _____    ______ ____

>  <TORSDO>
F 1

$$$$
=
 OpenBabel11112416383D

 32 37  0  0  1  0  0  0  0  0999 V2000
  189.3110  177.8040  144.5700 C   0  0  0  0  0  2  0  0  0  0  0  0
  192.6100  174.1970  142.1290 C   0  0  1  0  0  3  0  0  0  0  0  0
  190.8160  169.7940  140.9860 C   0  0  0  0  0  3  0  0  0  0  0  0
  191.8560  169.1700  141.6790 C   0  0  0  0  0  3  0  0  0  0  0  0
  194.5570  174.3320  143.8250 C   0  0  0  0  0  0  0  0  0  0  0  0
  195.4140  173.6690  144.7020 C   0  0  0  0  0  0  0  0  0  0  0  0
  191.4720  175.8400  143.5960 N   0  0  2  0  0  0  0  0  0  0  0  0
  190.3860  173.6600  143.1850 C   0  0  0  0  0  2  0  0  0  0  0  0
  196.2880  171.9350  145.7630 N   0  0  0  0  0  0  0  0  0  0  0  0
  189.3490  175.2480  144.7190 C   0  0  0  0  0  2  0  0  0  0  0  0
  190.6530  171.1790  141.0680 C   0  0  0  0  0  3  0  0  0  0  0  0
  191.2930  173.4180  141.9810 C   0  0  2  0  0  3  0  0  0  0  0  0
  191.5380  171.9480  141.8320 C   0  0  0  0  0  0  0  0  0  0  0  0
  193.5380  172.1520  143.3190 C   0  0  0  0  0  0  0  0  0  0  0  0
  196.9620  173.0450  146.1380 C   0  0  0  0  0  3  0  0  0  0  0  0
  190.6590  177.6260  144.8950 O   0  0  0  0  0  0  0  0  0  0  0  0
  190.1730  175.1530  143.4340 C   0  0  1  0  0  3  0  0  0  0  0  0
  196.4400  174.1660  145.4870 C   0  0  0  0  0  3  0  0  0  0  0  0
  191.2580  177.2830  143.6780 C   0  0  0  0  0  2  0  0  0  0  0  0
  188.5050  176.5240  144.8040 C   0  0  1  0  0  3  0  0  0  0  0  0
  192.7370  169.9320  142.4500 C   0  0  0  0  0  3  0  0  0  0  0  0
  192.5870  171.3260  142.5360 C   0  0  0  0  0  0  0  0  0  0  0  0
  194.4370  171.5250  144.2080 C   0  0  0  0  0  3  0  0  0  0  0  0
  192.2630  175.6680  142.3770 C   0  0  0  0  0  2  0  0  0  0  0  0
  194.7110  175.7000  143.6230 O   0  0  0  0  0  1  0  0  0  0  0  0
  196.5550  170.5820  146.2240 C   0  0  0  0  0  1  0  0  0  0  0  0
  193.5600  173.5720  143.1490 C   0  0  0  0  0  0  0  0  0  0  0  0
  195.3490  172.3220  144.8900 C   0  0  0  0  0  0  0  0  0  0  0  0
  187.8530  176.5960  146.1030 N   0  0  0  0  0  2  0  0  0  0  0  0
  186.5490  177.1500  146.2840 C   0  0  0  0  0  0  0  0  0  0  0  0
  185.9140  177.6310  145.3080 O   0  0  0  0  0  0  0  0  0  0  0  0
  185.9380  177.1660  147.6380 C   0  0  0  0  0  1  0  0  0  0  0  0
  1 20  1  0  0  0  0
  1 16  1  0  0  0  0
  2 24  1  1  0  0  0
  2 27  1  0  0  0  0
  3 11  2  0  0  0  0
  3  4  1  0  0  0  0
  4 21  2  0  0  0  0
  5  6  1  0  0  0  0
  6 28  2  0  0  0  0
  6 18  1  0  0  0  0
  7 24  1  6  0  0  0
  7 19  1  0  0  0  0
  9 15  1  0  0  0  0
  9 26  1  0  0  0  0
 10 20  1  0  0  0  0
 11 13  1  0  0  0  0
 12  2  1  0  0  0  0
 12  8  1  1  0  0  0
 13 12  1  0  0  0  0
 13 22  2  0  0  0  0
 14 23  2  0  0  0  0
 17  8  1  1  0  0  0
 17  7  1  0  0  0  0
 17 10  1  0  0  0  0
 18 15  2  0  0  0  0
 19 16  1  0  0  0  0
 20 29  1  1  0  0  0
 21 22  1  0  0  0  0
 22 14  1  0  0  0  0
 23 28  1  0  0  0  0
 25  5  1  0  0  0  0
 27 14  1  0  0  0  0
 27  5  2  0  0  0  0
 28  9  1  0  0  0  0
 29 30  1  0  0  0  0
 30 32  1  0  0  0  0
 31 30  2  0  0  0  0
M  END
>  <MODEL>
4

>  <REMARK>
 VINA RESULT:      -7.1      2.669      7.329
  Name = 
  1 active torsions:
  status: ('A' for Active; 'I' for Inactive)
    1  A    between atoms: C_20  and  N_29
                            x       y       z     vdW  Elec       q    Type
                         _______ _______ _______ _____ _____    ______ ____

>  <TORSDO>
F 1

$$$$
=
 OpenBabel11112416383D

 32 37  0  0  1  0  0  0  0  0999 V2000
  189.7200  177.8670  145.1230 C   0  0  0  0  0  2  0  0  0  0  0  0
  192.4370  174.2440  142.0650 C   0  0  1  0  0  3  0  0  0  0  0  0
  189.9310  171.5940  138.8080 C   0  0  0  0  0  3  0  0  0  0  0  0
  190.4370  170.4120  139.3530 C   0  0  0  0  0  3  0  0  0  0  0  0
  193.6310  173.0110  144.0000 C   0  0  0  0  0  0  0  0  0  0  0  0
  193.8980  171.8100  144.6540 C   0  0  0  0  0  0  0  0  0  0  0  0
  191.4020  175.6290  143.8430 N   0  0  2  0  0  0  0  0  0  0  0  0
  189.9330  174.3480  142.3270 C   0  0  0  0  0  2  0  0  0  0  0  0
  193.8020  169.6280  145.0130 N   0  0  0  0  0  0  0  0  0  0  0  0
  188.9500  175.6240  144.1590 C   0  0  0  0  0  2  0  0  0  0  0  0
  190.1660  172.8150  139.4450 C   0  0  0  0  0  3  0  0  0  0  0  0
  191.0830  174.1640  141.3410 C   0  0  2  0  0  3  0  0  0  0  0  0
  190.9200  172.8600  140.6240 C   0  0  0  0  0  0  0  0  0  0  0  0
  192.2520  171.7330  142.4140 C   0  0  0  0  0  0  0  0  0  0  0  0
  194.6010  170.1780  145.9530 C   0  0  0  0  0  3  0  0  0  0  0  0
  190.7590  177.0600  145.5970 O   0  0  0  0  0  0  0  0  0  0  0  0
  190.0980  175.6260  143.1490 C   0  0  1  0  0  3  0  0  0  0  0  0
  194.6900  171.5590  145.7610 C   0  0  0  0  0  3  0  0  0  0  0  0
  191.6100  176.9210  144.4950 C   0  0  0  0  0  2  0  0  0  0  0  0
  188.5440  177.0280  144.6180 C   0  0  1  0  0  3  0  0  0  0  0  0
  191.1820  170.4510  140.5340 C   0  0  0  0  0  3  0  0  0  0  0  0
  191.4300  171.6720  141.1820 C   0  0  0  0  0  0  0  0  0  0  0  0
  192.5640  170.5420  143.1030 C   0  0  0  0  0  3  0  0  0  0  0  0
  192.4760  175.5580  142.8500 C   0  0  0  0  0  2  0  0  0  0  0  0
  194.2400  174.1810  144.4420 O   0  0  0  0  0  1  0  0  0  0  0  0
  193.4830  168.2160  144.8880 C   0  0  0  0  0  1  0  0  0  0  0  0
  192.7500  172.9910  142.8810 C   0  0  0  0  0  0  0  0  0  0  0  0
  193.3780  170.6270  144.2260 C   0  0  0  0  0  0  0  0  0  0  0  0
  187.5380  176.9300  145.6660 N   0  0  0  0  0  2  0  0  0  0  0  0
  186.1360  176.9190  145.3920 C   0  0  0  0  0  0  0  0  0  0  0  0
  185.7110  177.0210  144.2100 O   0  0  0  0  0  0  0  0  0  0  0  0
  185.1690  176.7910  146.5130 C   0  0  0  0  0  1  0  0  0  0  0  0
  1 16  1  0  0  0  0
  2 24  1  1  0  0  0
  2 27  1  0  0  0  0
  3  4  2  0  0  0  0
  3 11  1  0  0  0  0
  4 21  1  0  0  0  0
  5 25  1  0  0  0  0
  5  6  1  0  0  0  0
  6 18  1  0  0  0  0
  7 24  1  6  0  0  0
  7 19  1  0  0  0  0
  9 15  1  0  0  0  0
 10 20  1  0  0  0  0
 11 13  2  0  0  0  0
 12  2  1  0  0  0  0
 12  8  1  1  0  0  0
 13 22  1  0  0  0  0
 13 12  1  0  0  0  0
 14 27  1  0  0  0  0
 14 23  2  0  0  0  0
 17  8  1  1  0  0  0
 17  7  1  0  0  0  0
 17 10  1  0  0  0  0
 18 15  2  0  0  0  0
 19 16  1  0  0  0  0
 20  1  1  0  0  0  0
 20 29  1  1  0  0  0
 21 22  2  0  0  0  0
 22 14  1  0  0  0  0
 23 28  1  0  0  0  0
 26  9  1  0  0  0  0
 27  5  2  0  0  0  0
 28  6  2  0  0  0  0
 28  9  1  0  0  0  0
 30 29  1  0  0  0  0
 30 32  1  0  0  0  0
 31 30  2  0  0  0  0
M  END
>  <MODEL>
5

>  <REMARK>
 VINA RESULT:      -7.0      2.803      6.994
  Name = 
  1 active torsions:
  status: ('A' for Active; 'I' for Inactive)
    1  A    between atoms: C_20  and  N_29
                            x       y       z     vdW  Elec       q    Type
                         _______ _______ _______ _____ _____    ______ ____

>  <TORSDO>
F 1

$$$$
=
 OpenBabel11112416383D

 32 37  0  0  1  0  0  0  0  0999 V2000
  191.3380  177.1900  144.5170 C   0  0  0  0  0  2  0  0  0  0  0  0
  196.4070  175.6390  143.1930 C   0  0  1  0  0  3  0  0  0  0  0  0
  197.4710  174.9210  138.4750 C   0  0  0  0  0  3  0  0  0  0  0  0
  197.9390  173.6350  138.7570 C   0  0  0  0  0  3  0  0  0  0  0  0
  196.5700  173.6300  144.8130 C   0  0  0  0  0  0  0  0  0  0  0  0
  196.8080  172.2680  144.9930 C   0  0  0  0  0  0  0  0  0  0  0  0
  194.1130  175.9280  144.0870 N   0  0  2  0  0  0  0  0  0  0  0  0
  194.4060  175.5460  141.6650 C   0  0  0  0  0  2  0  0  0  0  0  0
  197.3090  170.1980  144.3920 N   0  0  0  0  0  0  0  0  0  0  0  0
  192.1550  175.7130  142.5920 C   0  0  0  0  0  2  0  0  0  0  0  0
  196.8270  175.6640  139.4670 C   0  0  0  0  0  3  0  0  0  0  0  0
  195.8860  175.9040  141.7720 C   0  0  2  0  0  3  0  0  0  0  0  0
  196.6590  175.1300  140.7490 C   0  0  0  0  0  0  0  0  0  0  0  0
  196.9690  173.2870  142.4100 C   0  0  0  0  0  0  0  0  0  0  0  0
  197.1340  170.2200  145.7320 C   0  0  0  0  0  3  0  0  0  0  0  0
  192.0980  176.2760  145.2530 O   0  0  0  0  0  0  0  0  0  0  0  0
  193.5810  176.2450  142.7450 C   0  0  1  0  0  3  0  0  0  0  0  0
  196.8160  171.5140  146.1530 C   0  0  0  0  0  3  0  0  0  0  0  0
  193.4140  176.7240  145.0940 C   0  0  0  0  0  2  0  0  0  0  0  0
  191.0870  176.6910  143.0920 C   0  0  1  0  0  3  0  0  0  0  0  0
  197.7660  173.0940  140.0330 C   0  0  0  0  0  3  0  0  0  0  0  0
  197.1250  173.8330  141.0400 C   0  0  0  0  0  0  0  0  0  0  0  0
  197.2140  171.9180  142.6470 C   0  0  0  0  0  3  0  0  0  0  0  0
  195.5000  176.3850  144.1750 C   0  0  0  0  0  2  0  0  0  0  0  0
  196.3300  174.4340  145.9220 O   0  0  0  0  0  1  0  0  0  0  0  0
  197.6590  169.0310  143.6000 C   0  0  0  0  0  1  0  0  0  0  0  0
  196.6020  174.1530  143.4880 C   0  0  0  0  0  0  0  0  0  0  0  0
  197.1090  171.4470  143.9500 C   0  0  0  0  0  0  0  0  0  0  0  0
  189.7760  176.0610  143.0260 N   0  0  0  0  0  2  0  0  0  0  0  0
  188.6360  176.7100  142.4620 C   0  0  0  0  0  0  0  0  0  0  0  0
  188.7190  177.8850  142.0150 O   0  0  0  0  0  0  0  0  0  0  0  0
  187.3350  175.9930  142.4070 C   0  0  0  0  0  1  0  0  0  0  0  0
  1 16  1  0  0  0  0
  2 27  1  0  0  0  0
  2 24  1  1  0  0  0
  3  4  2  0  0  0  0
  3 11  1  0  0  0  0
  4 21  1  0  0  0  0
  5  6  1  0  0  0  0
  5 25  1  0  0  0  0
  6 18  1  0  0  0  0
  7 24  1  6  0  0  0
  7 19  1  0  0  0  0
  9 15  1  0  0  0  0
 10 17  1  0  0  0  0
 10 20  1  0  0  0  0
 11 13  2  0  0  0  0
 12  8  1  1  0  0  0
 12  2  1  0  0  0  0
 13 22  1  0  0  0  0
 13 12  1  0  0  0  0
 14 23  2  0  0  0  0
 14 27  1  0  0  0  0
 15 18  2  0  0  0  0
 17  8  1  6  0  0  0
 17  7  1  0  0  0  0
 19 16  1  0  0  0  0
 20 29  1  1  0  0  0
 20  1  1  0  0  0  0
 21 22  2  0  0  0  0
 22 14  1  0  0  0  0
 23 28  1  0  0  0  0
 26  9  1  0  0  0  0
 27  5  2  0  0  0  0
 28  9  1  0  0  0  0
 28  6  2  0  0  0  0
 30 29  1  0  0  0  0
 31 30  2  0  0  0  0
 32 30  1  0  0  0  0
M  END
>  <MODEL>
6

>  <REMARK>
 VINA RESULT:      -6.9      3.634      8.464
  Name = 
  1 active torsions:
  status: ('A' for Active; 'I' for Inactive)
    1  A    between atoms: C_20  and  N_29
                            x       y       z     vdW  Elec       q    Type
                         _______ _______ _______ _____ _____    ______ ____

>  <TORSDO>
F 1

$$$$
=
 OpenBabel11112416383D

 32 37  0  0  1  0  0  0  0  0999 V2000
  189.8450  172.6810  140.1610 C   0  0  0  0  0  2  0  0  0  0  0  0
  190.1610  176.9980  143.4960 C   0  0  1  0  0  3  0  0  0  0  0  0
  193.2780  176.8180  147.2590 C   0  0  0  0  0  3  0  0  0  0  0  0
  192.2490  177.1290  148.1500 C   0  0  0  0  0  3  0  0  0  0  0  0
  187.6330  177.2100  143.9990 C   0  0  0  0  0  0  0  0  0  0  0  0
  186.6130  177.2650  144.9480 C   0  0  0  0  0  0  0  0  0  0  0  0
  189.5240  175.0470  142.1050 N   0  0  2  0  0  0  0  0  0  0  0  0
  191.0980  174.7090  143.9780 C   0  0  0  0  0  2  0  0  0  0  0  0
  185.7250  177.2800  146.9740 N   0  0  0  0  0  0  0  0  0  0  0  0
  190.3600  172.7880  142.6670 C   0  0  0  0  0  2  0  0  0  0  0  0
  192.9850  176.5460  145.9200 C   0  0  0  0  0  3  0  0  0  0  0  0
  191.3590  176.2110  144.0500 C   0  0  2  0  0  3  0  0  0  0  0  0
  191.6630  176.5960  145.4640 C   0  0  0  0  0  0  0  0  0  0  0  0
  189.2260  176.9850  145.8600 C   0  0  0  0  0  0  0  0  0  0  0  0
  184.7280  177.4250  146.0740 C   0  0  0  0  0  3  0  0  0  0  0  0
  188.7440  173.4360  140.5760 O   0  0  0  0  0  0  0  0  0  0  0  0
  190.6980  174.2770  142.5670 C   0  0  1  0  0  3  0  0  0  0  0  0
  185.2490  177.4220  144.7770 C   0  0  0  0  0  3  0  0  0  0  0  0
  189.2510  174.7340  140.7030 C   0  0  0  0  0  2  0  0  0  0  0  0
  190.5600  172.0330  141.3500 C   0  0  1  0  0  3  0  0  0  0  0  0
  190.9260  177.1720  147.7020 C   0  0  0  0  0  3  0  0  0  0  0  0
  190.6200  176.9050  146.3580 C   0  0  0  0  0  0  0  0  0  0  0  0
  188.1590  177.0590  146.7810 C   0  0  0  0  0  3  0  0  0  0  0  0
  189.8590  176.4720  142.0900 C   0  0  0  0  0  2  0  0  0  0  0  0
  187.3220  177.3630  142.6520 O   0  0  0  0  0  1  0  0  0  0  0  0
  185.5670  177.2500  148.4190 C   0  0  0  0  0  1  0  0  0  0  0  0
  188.9690  177.0180  144.4520 C   0  0  0  0  0  0  0  0  0  0  0  0
  186.8680  177.1840  146.2820 C   0  0  0  0  0  0  0  0  0  0  0  0
  190.1000  170.6600  141.4970 N   0  0  0  0  0  2  0  0  0  0  0  0
  190.9830  169.5390  141.4370 C   0  0  0  0  0  0  0  0  0  0  0  0
  192.2140  169.7000  141.2230 O   0  0  0  0  0  0  0  0  0  0  0  0
  190.4430  168.1670  141.6220 C   0  0  0  0  0  1  0  0  0  0  0  0
  1 16  1  0  0  0  0
  1 20  1  0  0  0  0
  2 24  1  6  0  0  0
  2 12  1  0  0  0  0
  2 27  1  0  0  0  0
  3  4  1  0  0  0  0
  5 27  2  0  0  0  0
  5  6  1  0  0  0  0
  6 28  2  0  0  0  0
  7 19  1  6  0  0  0
  7 17  1  0  0  0  0
  9 26  1  0  0  0  0
 11  3  2  0  0  0  0
 12  8  1  1  0  0  0
 12 13  1  0  0  0  0
 13 11  1  0  0  0  0
 13 22  2  0  0  0  0
 14 22  1  0  0  0  0
 14 23  2  0  0  0  0
 15  9  1  0  0  0  0
 16 19  1  0  0  0  0
 17 10  1  1  0  0  0
 17  8  1  0  0  0  0
 18  6  1  0  0  0  0
 18 15  2  0  0  0  0
 20 29  1  1  0  0  0
 20 10  1  0  0  0  0
 21  4  2  0  0  0  0
 22 21  1  0  0  0  0
 24  7  1  0  0  0  0
 25  5  1  0  0  0  0
 27 14  1  0  0  0  0
 28 23  1  0  0  0  0
 28  9  1  0  0  0  0
 30 29  1  0  0  0  0
 30 32  1  0  0  0  0
 31 30  2  0  0  0  0
M  END
>  <MODEL>
7

>  <REMARK>
 VINA RESULT:      -6.9      3.141      6.206
  Name = 
  1 active torsions:
  status: ('A' for Active; 'I' for Inactive)
    1  A    between atoms: C_20  and  N_29
                            x       y       z     vdW  Elec       q    Type
                         _______ _______ _______ _____ _____    ______ ____

>  <TORSDO>
F 1

$$$$
=
 OpenBabel11112416383D

 32 37  0  0  1  0  0  0  0  0999 V2000
  187.2670  175.5170  143.2770 C   0  0  0  0  0  2  0  0  0  0  0  0
  192.3200  173.8070  142.0940 C   0  0  1  0  0  3  0  0  0  0  0  0
  196.1130  176.4150  143.7430 C   0  0  0  0  0  3  0  0  0  0  0  0
  196.6330  176.5120  142.4500 C   0  0  0  0  0  3  0  0  0  0  0  0
  192.0000  173.5770  139.5380 C   0  0  0  0  0  0  0  0  0  0  0  0
  192.4240  173.9180  138.2550 C   0  0  0  0  0  0  0  0  0  0  0  0
  189.9640  174.5790  142.1270 N   0  0  2  0  0  0  0  0  0  0  0  0
  191.7210  176.0860  142.9870 C   0  0  0  0  0  2  0  0  0  0  0  0
  193.6940  174.8970  136.7300 N   0  0  0  0  0  0  0  0  0  0  0  0
  189.4110  176.8640  142.8950 C   0  0  0  0  0  2  0  0  0  0  0  0
  194.8430  175.8720  143.9480 C   0  0  0  0  0  3  0  0  0  0  0  0
  192.6970  174.9160  143.0900 C   0  0  2  0  0  3  0  0  0  0  0  0
  194.0920  175.4100  142.8610 C   0  0  0  0  0  0  0  0  0  0  0  0
  193.8170  174.9870  140.4120 C   0  0  0  0  0  0  0  0  0  0  0  0
  192.7600  174.1560  136.0930 C   0  0  0  0  0  3  0  0  0  0  0  0
  187.6460  174.9760  142.0450 O   0  0  0  0  0  0  0  0  0  0  0  0
  190.2720  175.6210  143.1280 C   0  0  1  0  0  3  0  0  0  0  0  0
  191.9360  173.5180  137.0230 C   0  0  0  0  0  3  0  0  0  0  0  0
  188.6300  174.0370  142.3750 C   0  0  0  0  0  2  0  0  0  0  0  0
  188.0490  176.7950  143.5910 C   0  0  1  0  0  3  0  0  0  0  0  0
  195.8830  176.0600  141.3610 C   0  0  0  0  0  3  0  0  0  0  0  0
  194.6070  175.5070  141.5540 C   0  0  0  0  0  0  0  0  0  0  0  0
  194.2150  175.2910  139.0930 C   0  0  0  0  0  3  0  0  0  0  0  0
  190.8540  173.4350  142.3330 C   0  0  0  0  0  2  0  0  0  0  0  0
  190.9530  172.6750  139.6960 O   0  0  0  0  0  1  0  0  0  0  0  0
  194.7300  175.6910  136.0910 C   0  0  0  0  0  1  0  0  0  0  0  0
  192.6750  174.1580  140.6500 C   0  0  0  0  0  0  0  0  0  0  0  0
  193.4830  174.7470  138.0440 C   0  0  0  0  0  0  0  0  0  0  0  0
  187.2480  177.9520  143.2180 N   0  0  0  0  0  2  0  0  0  0  0  0
  186.3540  178.5980  144.1260 C   0  0  0  0  0  0  0  0  0  0  0  0
  186.2030  178.1630  145.2990 O   0  0  0  0  0  0  0  0  0  0  0  0
  185.5880  179.7910  143.6800 C   0  0  0  0  0  1  0  0  0  0  0  0
  1 20  1  0  0  0  0
  2 24  1  6  0  0  0
  2 12  1  0  0  0  0
  3 11  1  0  0  0  0
  4  3  2  0  0  0  0
  5 25  1  0  0  0  0
  5 27  1  0  0  0  0
  6  5  2  0  0  0  0
  7 24  1  1  0  0  0
  7 19  1  0  0  0  0
  7 17  1  0  0  0  0
  8 17  1  0  0  0  0
  9 28  1  0  0  0  0
 10 20  1  0  0  0  0
 12  8  1  6  0  0  0
 13 12  1  0  0  0  0
 13 11  2  0  0  0  0
 14 27  2  0  0  0  0
 14 22  1  0  0  0  0
 15  9  1  0  0  0  0
 15 18  2  0  0  0  0
 16 19  1  0  0  0  0
 16  1  1  0  0  0  0
 17 10  1  6  0  0  0
 18  6  1  0  0  0  0
 20 29  1  6  0  0  0
 21 22  2  0  0  0  0
 21  4  1  0  0  0  0
 22 13  1  0  0  0  0
 23 14  1  0  0  0  0
 26  9  1  0  0  0  0
 27  2  1  0  0  0  0
 28  6  1  0  0  0  0
 28 23  2  0  0  0  0
 29 30  1  0  0  0  0
 30 31  2  0  0  0  0
 32 30  1  0  0  0  0
M  END
>  <MODEL>
8

>  <REMARK>
 VINA RESULT:      -6.6      3.463      7.527
  Name = 
  1 active torsions:
  status: ('A' for Active; 'I' for Inactive)
    1  A    between atoms: C_20  and  N_29
                            x       y       z     vdW  Elec       q    Type
                         _______ _______ _______ _____ _____    ______ ____

>  <TORSDO>
F 1

$$$$
=
 OpenBabel11112416383D

 32 37  0  0  1  0  0  0  0  0999 V2000
  186.5980  175.7360  143.1880 C   0  0  0  0  0  2  0  0  0  0  0  0
  191.4370  173.2040  143.0120 C   0  0  1  0  0  3  0  0  0  0  0  0
  194.9970  174.7660  145.9770 C   0  0  0  0  0  3  0  0  0  0  0  0
  195.8610  174.9170  144.8910 C   0  0  0  0  0  3  0  0  0  0  0  0
  191.8000  173.3670  140.4570 C   0  0  0  0  0  0  0  0  0  0  0  0
  192.6110  173.7740  139.3990 C   0  0  0  0  0  0  0  0  0  0  0  0
  189.3200  174.4250  142.5950 N   0  0  2  0  0  0  0  0  0  0  0  0
  190.9900  175.4260  144.1130 C   0  0  0  0  0  2  0  0  0  0  0  0
  194.3920  174.6600  138.4300 N   0  0  0  0  0  0  0  0  0  0  0  0
  188.9520  176.6600  143.5890 C   0  0  0  0  0  2  0  0  0  0  0  0
  193.6490  174.4680  145.7630 C   0  0  0  0  0  3  0  0  0  0  0  0
  191.6980  174.0800  144.2480 C   0  0  2  0  0  3  0  0  0  0  0  0
  193.1620  174.3070  144.4610 C   0  0  0  0  0  0  0  0  0  0  0  0
  193.5080  174.2600  141.9860 C   0  0  0  0  0  0  0  0  0  0  0  0
  193.5640  174.2080  137.4620 C   0  0  0  0  0  3  0  0  0  0  0  0
  187.2090  175.2890  142.0130 O   0  0  0  0  0  0  0  0  0  0  0  0
  189.5030  175.2500  143.8080 C   0  0  1  0  0  3  0  0  0  0  0  0
  192.4240  173.6380  138.0340 C   0  0  0  0  0  3  0  0  0  0  0  0
  187.8990  174.1370  142.4070 C   0  0  0  0  0  2  0  0  0  0  0  0
  187.4580  176.7810  143.9040 C   0  0  1  0  0  3  0  0  0  0  0  0
  195.3780  174.7660  143.5890 C   0  0  0  0  0  3  0  0  0  0  0  0
  194.0270  174.4620  143.3600 C   0  0  0  0  0  0  0  0  0  0  0  0
  194.2980  174.6400  140.8800 C   0  0  0  0  0  3  0  0  0  0  0  0
  189.9220  173.1090  142.8120 C   0  0  0  0  0  2  0  0  0  0  0  0
  190.6190  172.6820  140.1900 O   0  0  0  0  0  1  0  0  0  0  0  0
  195.6790  175.3020  138.2160 C   0  0  0  0  0  1  0  0  0  0  0  0
  192.2270  173.6550  141.7850 C   0  0  0  0  0  0  0  0  0  0  0  0
  193.8060  174.3910  139.6040 C   0  0  0  0  0  0  0  0  0  0  0  0
  186.9880  178.1130  143.5520 N   0  0  0  0  0  2  0  0  0  0  0  0
  185.9750  178.7960  144.2930 C   0  0  0  0  0  0  0  0  0  0  0  0
  185.4220  178.2460  145.2820 O   0  0  0  0  0  0  0  0  0  0  0  0
  185.5660  180.1660  143.8880 C   0  0  0  0  0  1  0  0  0  0  0  0
  1 20  1  0  0  0  0
  2 24  1  6  0  0  0
  2 12  1  0  0  0  0
  4  3  2  0  0  0  0
  5 27  1  0  0  0  0
  6 28  1  0  0  0  0
  6  5  2  0  0  0  0
  7 19  1  1  0  0  0
  7 24  1  0  0  0  0
  7 17  1  0  0  0  0
  9 28  1  0  0  0  0
 10 20  1  0  0  0  0
 11  3  1  0  0  0  0
 12  8  1  6  0  0  0
 12 13  1  0  0  0  0
 13 11  2  0  0  0  0
 14 22  1  0  0  0  0
 15 18  2  0  0  0  0
 15  9  1  0  0  0  0
 16 19  1  0  0  0  0
 16  1  1  0  0  0  0
 17 10  1  6  0  0  0
 17  8  1  0  0  0  0
 18  6  1  0  0  0  0
 20 29  1  6  0  0  0
 21  4  1  0  0  0  0
 22 21  2  0  0  0  0
 22 13  1  0  0  0  0
 23 14  1  0  0  0  0
 25  5  1  0  0  0  0
 26  9  1  0  0  0  0
 27 14  2  0  0  0  0
 27  2  1  0  0  0  0
 28 23  2  0  0  0  0
 29 30  1  0  0  0  0
 30 31  2  0  0  0  0
 32 30  1  0  0  0  0
M  END
>  <MODEL>
9

>  <REMARK>
 VINA RESULT:      -6.5      2.930      7.467
  Name = 
  1 active torsions:
  status: ('A' for Active; 'I' for Inactive)
    1  A    between atoms: C_20  and  N_29
                            x       y       z     vdW  Elec       q    Type
                         _______ _______ _______ _____ _____    ______ ____

>  <TORSDO>
F 1

$$$$
