=
 OpenBabel11112417503D

 34 42  0  0  1  0  0  0  0  0999 V2000
  189.7130  173.9530  143.7900 C   0  0  0  0  0  0  0  0  0  0  0  0
  191.5460  172.2550  143.9400 C   0  0  0  0  0  2  0  0  0  0  0  0
  186.0360  177.9270  145.7840 C   0  0  2  0  0  0  0  0  0  0  0  0
  188.3970  175.8730  143.1710 C   0  0  0  0  0  0  0  0  0  0  0  0
  188.4190  177.9530  144.6670 C   0  0  1  0  0  3  0  0  0  0  0  0
  186.4980  176.4820  145.6190 C   0  0  2  0  0  3  0  0  0  0  0  0
  185.1910  176.7910  146.3210 C   0  0  0  0  0  2  0  0  0  0  0  0
  185.5880  177.6340  143.2270 C   0  0  0  0  0  2  0  0  0  0  0  0
  191.6090  174.1480  145.4770 N   0  0  2  0  0  0  0  0  0  0  0  0
  194.4000  175.7950  145.1840 C   0  0  0  0  0  2  0  0  0  0  0  0
  189.8600  177.5660  144.9990 C   0  0  0  0  0  2  0  0  0  0  0  0
  186.9060  177.8950  142.5260 C   0  0  0  0  0  2  0  0  0  0  0  0
  191.4730  175.6100  145.2490 C   0  0  1  0  0  3  0  0  0  0  0  0
  192.8780  172.2590  144.6370 C   0  0  0  0  0  2  0  0  0  0  0  0
  188.1110  177.3450  143.2870 C   0  0  2  0  0  3  0  0  0  0  0  0
  185.4830  178.5140  144.4680 C   0  0  0  0  0  2  0  0  0  0  0  0
  193.9180  174.5470  144.4210 C   0  0  1  0  0  3  0  0  0  0  0  0
  189.3740  175.2910  143.9990 C   0  0  0  0  0  0  0  0  0  0  0  0
  187.5190  177.5790  145.8760 C   0  0  2  0  0  3  0  0  0  0  0  0
  190.0090  176.0370  145.1440 C   0  0  2  0  0  3  0  0  0  0  0  0
  188.1490  173.8270  142.0130 C   0  0  0  0  0  3  0  0  0  0  0  0
  193.6760  176.0370  146.5130 C   0  0  0  0  0  2  0  0  0  0  0  0
  187.8230  175.1330  142.1860 N   0  0  0  0  0  0  0  0  0  0  0  0
  192.2030  176.4160  146.3360 C   0  0  0  0  0  2  0  0  0  0  0  0
  192.9820  173.6340  145.2580 C   0  0  1  0  0  3  0  0  0  0  0  0
  189.0800  173.2460  142.8140 N   0  0  0  0  0  0  0  0  0  0  0  0
  190.7050  173.2650  144.6970 C   0  0  1  0  0  3  0  0  0  0  0  0
  193.3160  174.9310  143.2170 O   0  0  0  0  0  0  0  0  0  0  0  0
  193.9770  176.0950  142.8190 C   0  0  0  0  0  2  0  0  0  0  0  0
  196.5220  175.6660  140.1380 C   0  0  0  0  0  3  0  0  0  0  0  0
  194.2690  175.2900  140.5360 N   0  0  0  0  0  0  0  0  0  0  0  0
  194.7770  175.8110  141.5960 C   0  0  0  0  0  0  0  0  0  0  0  0
  195.2770  175.1620  139.5790 N   0  0  0  0  0  2  0  0  0  0  0  0
  196.1670  176.0870  141.4870 N   0  0  0  0  0  0  0  0  0  0  0  0
  1 18  1  0  0  0  0
  1 27  1  0  0  0  0
  2 14  1  0  0  0  0
  2 27  1  0  0  0  0
  3 16  1  6  0  0  0
  3 19  1  0  0  0  0
  3  7  1  0  0  0  0
  4 15  1  0  0  0  0
  4 18  2  0  0  0  0
  5 11  1  1  0  0  0
  5 19  1  0  0  0  0
  6  3  1  0  0  0  0
  6 19  1  0  0  0  0
  6  7  1  1  0  0  0
  8 16  1  0  0  0  0
 10 22  1  0  0  0  0
 11 20  1  0  0  0  0
 12  8  1  0  0  0  0
 12 15  1  0  0  0  0
 13  9  1  0  0  0  0
 13 24  1  0  0  0  0
 14 25  1  0  0  0  0
 15  5  1  0  0  0  0
 17 10  1  0  0  0  0
 17 25  1  0  0  0  0
 18 20  1  0  0  0  0
 20 13  1  0  0  0  0
 21 23  2  0  0  0  0
 21 26  1  0  0  0  0
 23  4  1  0  0  0  0
 24 22  1  0  0  0  0
 25  9  1  0  0  0  0
 26  1  2  0  0  0  0
 27  9  1  0  0  0  0
 28 17  1  0  0  0  0
 29 28  1  0  0  0  0
 30 34  2  0  0  0  0
 31 32  2  0  0  0  0
 32 29  1  0  0  0  0
 33 30  1  0  0  0  0
 33 31  1  0  0  0  0
 34 32  1  0  0  0  0
M  END
>  <MODEL>
1

>  <REMARK>
 VINA RESULT:      -8.9      0.000      0.000
  Name = 
  3 active torsions:
  status: ('A' for Active; 'I' for Inactive)
    1  A    between atoms: C_17  and  O_28
    2  A    between atoms: O_28  and  C_29
    3  A    between atoms: C_29  and  C_32
                            x       y       z     vdW  Elec       q    Type
                         _______ _______ _______ _____ _____    ______ ____

>  <TORSDO>
F 3

$$$$
=
 OpenBabel11112417503D

 34 42  0  0  1  0  0  0  0  0999 V2000
  189.8580  173.8860  143.8220 C   0  0  0  0  0  0  0  0  0  0  0  0
  191.6190  172.1080  143.9010 C   0  0  0  0  0  2  0  0  0  0  0  0
  186.4270  178.0000  145.9630 C   0  0  2  0  0  0  0  0  0  0  0  0
  188.6070  175.8660  143.2600 C   0  0  0  0  0  0  0  0  0  0  0  0
  188.7710  177.9310  144.7680 C   0  0  1  0  0  3  0  0  0  0  0  0
  186.8190  176.5380  145.7740 C   0  0  2  0  0  3  0  0  0  0  0  0
  185.5510  176.8980  146.5210 C   0  0  0  0  0  2  0  0  0  0  0  0
  185.8820  177.7470  143.4210 C   0  0  0  0  0  2  0  0  0  0  0  0
  191.8150  173.9840  145.4470 N   0  0  2  0  0  0  0  0  0  0  0  0
  194.6650  175.5090  145.0710 C   0  0  0  0  0  2  0  0  0  0  0  0
  190.2030  177.4790  145.0490 C   0  0  0  0  0  2  0  0  0  0  0  0
  187.1860  177.9560  142.6780 C   0  0  0  0  0  2  0  0  0  0  0  0
  191.7360  175.4520  145.2330 C   0  0  1  0  0  3  0  0  0  0  0  0
  192.9720  172.0480  144.5520 C   0  0  0  0  0  2  0  0  0  0  0  0
  188.3900  177.3480  143.3950 C   0  0  2  0  0  3  0  0  0  0  0  0
  185.8570  178.6210  144.6710 C   0  0  0  0  0  2  0  0  0  0  0  0
  194.1030  174.2900  144.3170 C   0  0  1  0  0  3  0  0  0  0  0  0
  189.5860  175.2350  144.0510 C   0  0  0  0  0  0  0  0  0  0  0  0
  187.8960  177.5870  146.0040 C   0  0  2  0  0  3  0  0  0  0  0  0
  190.2890  175.9430  145.1790 C   0  0  2  0  0  3  0  0  0  0  0  0
  188.2330  173.8410  142.0970 C   0  0  0  0  0  3  0  0  0  0  0  0
  193.9960  175.7720  146.4250 C   0  0  0  0  0  2  0  0  0  0  0  0
  187.9700  175.1600  142.2890 N   0  0  0  0  0  0  0  0  0  0  0  0
  192.5360  176.2160  146.2990 C   0  0  0  0  0  2  0  0  0  0  0  0
  193.1560  173.4120  145.1780 C   0  0  1  0  0  3  0  0  0  0  0  0
  189.1620  173.2140  142.8630 N   0  0  0  0  0  0  0  0  0  0  0  0
  190.8480  173.1480  144.6920 C   0  0  1  0  0  3  0  0  0  0  0  0
  193.4790  174.7090  143.1360 O   0  0  0  0  0  0  0  0  0  0  0  0
  194.2350  174.1630  142.0960 C   0  0  0  0  0  2  0  0  0  0  0  0
  192.5360  172.7420  139.1050 C   0  0  0  0  0  3  0  0  0  0  0  0
  192.0950  174.1020  140.9310 N   0  0  0  0  0  0  0  0  0  0  0  0
  193.3240  173.7350  140.9990 C   0  0  0  0  0  0  0  0  0  0  0  0
  191.5260  173.5350  139.7900 N   0  0  0  0  0  2  0  0  0  0  0  0
  193.7260  172.8840  139.9340 N   0  0  0  0  0  0  0  0  0  0  0  0
  1 18  1  0  0  0  0
  1 27  1  0  0  0  0
  2 14  1  0  0  0  0
  2 27  1  0  0  0  0
  3 16  1  6  0  0  0
  3 19  1  0  0  0  0
  3  7  1  0  0  0  0
  4 15  1  0  0  0  0
  4 18  2  0  0  0  0
  5 11  1  1  0  0  0
  5 19  1  0  0  0  0
  6  3  1  0  0  0  0
  6 19  1  0  0  0  0
  6  7  1  1  0  0  0
  8 16  1  0  0  0  0
 10 22  1  0  0  0  0
 11 20  1  0  0  0  0
 12 15  1  0  0  0  0
 12  8  1  0  0  0  0
 13  9  1  0  0  0  0
 13 24  1  0  0  0  0
 14 25  1  0  0  0  0
 15  5  1  0  0  0  0
 17 10  1  0  0  0  0
 17 25  1  0  0  0  0
 18 20  1  0  0  0  0
 20 13  1  0  0  0  0
 21 23  2  0  0  0  0
 21 26  1  0  0  0  0
 23  4  1  0  0  0  0
 24 22  1  0  0  0  0
 25  9  1  0  0  0  0
 26  1  2  0  0  0  0
 27  9  1  0  0  0  0
 28 17  1  0  0  0  0
 29 28  1  0  0  0  0
 30 33  1  0  0  0  0
 30 34  2  0  0  0  0
 31 32  2  0  0  0  0
 32 29  1  0  0  0  0
 33 31  1  0  0  0  0
 34 32  1  0  0  0  0
M  END
>  <MODEL>
2

>  <REMARK>
 VINA RESULT:      -8.6      1.299      1.544
  Name = 
  3 active torsions:
  status: ('A' for Active; 'I' for Inactive)
    1  A    between atoms: C_17  and  O_28
    2  A    between atoms: O_28  and  C_29
    3  A    between atoms: C_29  and  C_32
                            x       y       z     vdW  Elec       q    Type
                         _______ _______ _______ _____ _____    ______ ____

>  <TORSDO>
F 3

$$$$
=
 OpenBabel11112417503D

 34 42  0  0  1  0  0  0  0  0999 V2000
  191.2650  173.3330  143.0820 C   0  0  0  0  0  0  0  0  0  0  0  0
  188.8820  173.0860  142.3530 C   0  0  0  0  0  2  0  0  0  0  0  0
  196.6120  175.4960  142.9650 C   0  0  2  0  0  0  0  0  0  0  0  0
  193.2420  173.7100  144.4040 C   0  0  0  0  0  0  0  0  0  0  0  0
  194.4050  175.9920  144.3110 C   0  0  1  0  0  3  0  0  0  0  0  0
  195.5020  174.6180  142.3950 C   0  0  2  0  0  3  0  0  0  0  0  0
  196.8770  174.6200  141.7590 C   0  0  0  0  0  2  0  0  0  0  0  0
  196.5310  173.6660  144.8270 C   0  0  0  0  0  2  0  0  0  0  0  0
  189.9270  175.2790  142.1320 N   0  0  2  0  0  0  0  0  0  0  0  0
  188.2420  177.5410  143.7530 C   0  0  0  0  0  2  0  0  0  0  0  0
  193.0110  176.5720  144.0780 C   0  0  0  0  0  2  0  0  0  0  0  0
  195.4160  174.0640  145.7740 C   0  0  0  0  0  2  0  0  0  0  0  0
  190.7100  176.1010  143.0900 C   0  0  1  0  0  3  0  0  0  0  0  0
  187.8160  174.0900  142.0150 C   0  0  0  0  0  2  0  0  0  0  0  0
  194.2050  174.6620  145.0590 C   0  0  2  0  0  3  0  0  0  0  0  0
  197.2010  174.9170  144.2680 C   0  0  0  0  0  2  0  0  0  0  0  0
  187.9700  176.0320  143.6170 C   0  0  1  0  0  3  0  0  0  0  0  0
  192.2220  174.2180  143.5780 C   0  0  0  0  0  0  0  0  0  0  0  0
  195.1680  175.9900  142.9580 C   0  0  2  0  0  3  0  0  0  0  0  0
  192.1730  175.6630  143.1540 C   0  0  2  0  0  3  0  0  0  0  0  0
  192.3340  171.5370  144.1990 C   0  0  0  0  0  3  0  0  0  0  0  0
  189.1600  178.1130  142.6680 C   0  0  0  0  0  2  0  0  0  0  0  0
  193.2620  172.3870  144.7110 N   0  0  0  0  0  0  0  0  0  0  0  0
  190.5990  177.5990  142.7630 C   0  0  0  0  0  2  0  0  0  0  0  0
  188.4600  175.4340  142.2710 C   0  0  1  0  0  3  0  0  0  0  0  0
  191.3530  172.0090  143.3880 N   0  0  0  0  0  0  0  0  0  0  0  0
  190.1930  173.8180  142.1350 C   0  0  1  0  0  3  0  0  0  0  0  0
  188.5190  175.3510  144.7100 O   0  0  0  0  0  0  0  0  0  0  0  0
  188.3960  176.2190  145.7960 C   0  0  0  0  0  2  0  0  0  0  0  0
  191.5300  175.3930  147.6260 C   0  0  0  0  0  3  0  0  0  0  0  0
  190.0880  177.1740  147.2690 N   0  0  0  0  0  0  0  0  0  0  0  0
  189.6390  176.1640  146.6130 C   0  0  0  0  0  0  0  0  0  0  0  0
  191.2570  176.7900  147.9280 N   0  0  0  0  0  0  0  0  0  0  0  0
  190.4420  174.9980  146.7420 N   0  0  0  0  0  2  0  0  0  0  0  0
  1 26  2  0  0  0  0
  1 18  1  0  0  0  0
  3  7  1  6  0  0  0
  3 16  1  0  0  0  0
  4 23  1  0  0  0  0
  4 15  1  0  0  0  0
  5 11  1  6  0  0  0
  5 15  1  0  0  0  0
  6  7  1  6  0  0  0
  6 19  1  0  0  0  0
  6  3  1  0  0  0  0
  8 12  1  0  0  0  0
  9 27  1  0  0  0  0
  9 25  1  0  0  0  0
  9 13  1  0  0  0  0
 13 20  1  0  0  0  0
 14 25  1  0  0  0  0
 14  2  1  0  0  0  0
 15 12  1  0  0  0  0
 16  8  1  0  0  0  0
 17 10  1  0  0  0  0
 17 28  1  0  0  0  0
 18  4  2  0  0  0  0
 19  3  1  0  0  0  0
 19  5  1  0  0  0  0
 20 18  1  0  0  0  0
 20 11  1  0  0  0  0
 21 23  2  0  0  0  0
 22 24  1  0  0  0  0
 22 10  1  0  0  0  0
 24 13  1  0  0  0  0
 25 17  1  0  0  0  0
 26 21  1  0  0  0  0
 27  2  1  0  0  0  0
 27  1  1  0  0  0  0
 28 29  1  0  0  0  0
 29 32  1  0  0  0  0
 30 33  2  0  0  0  0
 31 33  1  0  0  0  0
 32 34  1  0  0  0  0
 32 31  2  0  0  0  0
 34 30  1  0  0  0  0
M  END
>  <MODEL>
3

>  <REMARK>
 VINA RESULT:      -7.8      2.510      7.124
  Name = 
  3 active torsions:
  status: ('A' for Active; 'I' for Inactive)
    1  A    between atoms: C_17  and  O_28
    2  A    between atoms: O_28  and  C_29
    3  A    between atoms: C_29  and  C_32
                            x       y       z     vdW  Elec       q    Type
                         _______ _______ _______ _____ _____    ______ ____

>  <TORSDO>
F 3

$$$$
=
 OpenBabel11112417503D

 34 42  0  0  1  0  0  0  0  0999 V2000
  192.9600  173.6570  142.8990 C   0  0  0  0  0  0  0  0  0  0  0  0
  194.6160  172.1420  141.7900 C   0  0  0  0  0  2  0  0  0  0  0  0
  189.9670  175.8610  147.3110 C   0  0  2  0  0  0  0  0  0  0  0  0
  191.7810  175.6110  143.6690 C   0  0  0  0  0  0  0  0  0  0  0  0
  192.1920  176.4750  146.0460 C   0  0  1  0  0  3  0  0  0  0  0  0
  190.2570  174.7570  146.2990 C   0  0  2  0  0  3  0  0  0  0  0  0
  189.0810  174.6350  147.2460 C   0  0  0  0  0  2  0  0  0  0  0  0
  189.1920  177.0760  145.1330 C   0  0  0  0  0  2  0  0  0  0  0  0
  195.0520  172.8280  144.0890 N   0  0  2  0  0  0  0  0  0  0  0  0
  197.9410  174.3040  144.3370 C   0  0  0  0  0  2  0  0  0  0  0  0
  193.6140  175.9440  145.8780 C   0  0  0  0  0  2  0  0  0  0  0  0
  190.4370  177.6670  144.5030 C   0  0  0  0  0  2  0  0  0  0  0  0
  195.0390  174.1640  144.7400 C   0  0  1  0  0  3  0  0  0  0  0  0
  196.0140  171.7280  142.1540 C   0  0  0  0  0  2  0  0  0  0  0  0
  191.6620  176.7620  144.6300 C   0  0  2  0  0  3  0  0  0  0  0  0
  189.3240  177.1000  146.6520 C   0  0  0  0  0  2  0  0  0  0  0  0
  197.2480  173.7170  143.0940 C   0  0  1  0  0  3  0  0  0  0  0  0
  192.7860  174.6450  143.8680 C   0  0  0  0  0  0  0  0  0  0  0  0
  191.4080  175.4970  146.9630 C   0  0  2  0  0  3  0  0  0  0  0  0
  193.6230  174.6000  145.1190 C   0  0  2  0  0  3  0  0  0  0  0  0
  191.1920  174.5860  141.6220 C   0  0  0  0  0  3  0  0  0  0  0  0
  197.4070  173.7620  145.6670 C   0  0  0  0  0  2  0  0  0  0  0  0
  191.0230  175.5700  142.5420 N   0  0  0  0  0  0  0  0  0  0  0  0
  195.9700  174.2000  145.9630 C   0  0  0  0  0  2  0  0  0  0  0  0
  196.3300  172.5070  143.4110 C   0  0  1  0  0  3  0  0  0  0  0  0
  192.1470  173.6380  141.8070 N   0  0  0  0  0  0  0  0  0  0  0  0
  193.9770  172.5590  143.1010 C   0  0  1  0  0  3  0  0  0  0  0  0
  196.5500  174.7260  142.4190 O   0  0  0  0  0  0  0  0  0  0  0  0
  197.4220  175.1930  141.4330 C   0  0  0  0  0  2  0  0  0  0  0  0
  196.3490  175.1520  137.8700 C   0  0  0  0  0  3  0  0  0  0  0  0
  195.4470  175.2150  140.0050 N   0  0  0  0  0  0  0  0  0  0  0  0
  196.7270  175.1830  140.1170 C   0  0  0  0  0  0  0  0  0  0  0  0
  195.1210  175.1990  138.6480 N   0  0  0  0  0  2  0  0  0  0  0  0
  197.4080  175.1350  138.8710 N   0  0  0  0  0  0  0  0  0  0  0  0
  1 27  1  0  0  0  0
  1 18  1  0  0  0  0
  2 14  1  0  0  0  0
  2 27  1  0  0  0  0
  3 16  1  6  0  0  0
  4 18  2  0  0  0  0
  4 15  1  0  0  0  0
  5 11  1  6  0  0  0
  5 19  1  0  0  0  0
  6 19  1  0  0  0  0
  6  7  1  1  0  0  0
  6  3  1  0  0  0  0
  7  3  1  0  0  0  0
  8 16  1  0  0  0  0
  9 13  1  0  0  0  0
 10 22  1  0  0  0  0
 12 15  1  0  0  0  0
 12  8  1  0  0  0  0
 13 20  1  0  0  0  0
 13 24  1  0  0  0  0
 14 25  1  0  0  0  0
 15  5  1  0  0  0  0
 17 25  1  0  0  0  0
 17 10  1  0  0  0  0
 18 20  1  0  0  0  0
 19  3  1  0  0  0  0
 20 11  1  0  0  0  0
 21 26  1  0  0  0  0
 21 23  2  0  0  0  0
 22 24  1  0  0  0  0
 23  4  1  0  0  0  0
 25  9  1  0  0  0  0
 26  1  2  0  0  0  0
 27  9  1  0  0  0  0
 28 17  1  0  0  0  0
 29 28  1  0  0  0  0
 30 33  1  0  0  0  0
 30 34  2  0  0  0  0
 31 32  2  0  0  0  0
 32 29  1  0  0  0  0
 33 31  1  0  0  0  0
 34 32  1  0  0  0  0
M  END
>  <MODEL>
4

>  <REMARK>
 VINA RESULT:      -7.7      2.421      3.741
  Name = 
  3 active torsions:
  status: ('A' for Active; 'I' for Inactive)
    1  A    between atoms: C_17  and  O_28
    2  A    between atoms: O_28  and  C_29
    3  A    between atoms: C_29  and  C_32
                            x       y       z     vdW  Elec       q    Type
                         _______ _______ _______ _____ _____    ______ ____

>  <TORSDO>
F 3

$$$$
=
 OpenBabel11112417503D

 34 42  0  0  1  0  0  0  0  0999 V2000
  192.9620  175.7580  145.8960 C   0  0  0  0  0  0  0  0  0  0  0  0
  190.8320  175.7690  147.2120 C   0  0  0  0  0  2  0  0  0  0  0  0
  197.2110  173.4220  142.7700 C   0  0  2  0  0  0  0  0  0  0  0  0
  194.6550  176.2310  144.2500 C   0  0  0  0  0  0  0  0  0  0  0  0
  194.9450  174.6560  142.2500 C   0  0  1  0  0  3  0  0  0  0  0  0
  196.4910  173.6680  144.0920 C   0  0  2  0  0  3  0  0  0  0  0  0
  197.7900  172.8880  144.0640 C   0  0  0  0  0  2  0  0  0  0  0  0
  197.7410  175.9620  143.0680 C   0  0  0  0  0  2  0  0  0  0  0  0
  191.0450  174.1620  145.3890 N   0  0  2  0  0  0  0  0  0  0  0  0
  188.6420  174.5300  143.2260 C   0  0  0  0  0  2  0  0  0  0  0  0
  193.4410  174.4130  142.3610 C   0  0  0  0  0  2  0  0  0  0  0  0
  196.5400  176.7180  142.5360 C   0  0  0  0  0  2  0  0  0  0  0  0
  191.4710  174.3240  143.9750 C   0  0  1  0  0  3  0  0  0  0  0  0
  189.4880  175.1410  146.9710 C   0  0  0  0  0  2  0  0  0  0  0  0
  195.2110  176.0410  142.8650 C   0  0  2  0  0  3  0  0  0  0  0  0
  197.9410  174.6820  142.2620 C   0  0  0  0  0  2  0  0  0  0  0  0
  188.9200  175.3170  144.5200 C   0  0  1  0  0  3  0  0  0  0  0  0
  193.5380  175.4780  144.6570 C   0  0  0  0  0  0  0  0  0  0  0  0
  195.6860  173.4180  142.8270 C   0  0  2  0  0  3  0  0  0  0  0  0
  192.9940  174.3380  143.8360 C   0  0  2  0  0  3  0  0  0  0  0  0
  194.5720  177.4570  146.2700 C   0  0  0  0  0  3  0  0  0  0  0  0
  189.3220  173.1580  143.1680 C   0  0  0  0  0  2  0  0  0  0  0  0
  195.1320  177.2150  145.0570 N   0  0  0  0  0  0  0  0  0  0  0  0
  190.8480  173.2440  143.0760 C   0  0  0  0  0  2  0  0  0  0  0  0
  189.6140  174.4720  145.6210 C   0  0  1  0  0  3  0  0  0  0  0  0
  193.5040  176.7280  146.6830 N   0  0  0  0  0  0  0  0  0  0  0  0
  191.8060  174.9300  146.4060 C   0  0  1  0  0  3  0  0  0  0  0  0
  189.6520  176.4730  144.2240 O   0  0  0  0  0  0  0  0  0  0  0  0
  188.8500  177.5420  144.6290 C   0  0  0  0  0  2  0  0  0  0  0  0
  186.0580  178.5510  142.3850 C   0  0  0  0  0  3  0  0  0  0  0  0
  188.2850  177.9130  142.2870 N   0  0  0  0  0  0  0  0  0  0  0  0
  187.9270  177.9110  143.5210 C   0  0  0  0  0  0  0  0  0  0  0  0
  187.1920  178.2980  141.5100 N   0  0  0  0  0  2  0  0  0  0  0  0
  186.5730  178.2940  143.7240 N   0  0  0  0  0  0  0  0  0  0  0  0
  1 27  1  0  0  0  0
  1 26  1  0  0  0  0
  3 16  1  6  0  0  0
  3 19  1  0  0  0  0
  3  7  1  0  0  0  0
  3  6  1  0  0  0  0
  4 18  1  0  0  0  0
  4 23  2  0  0  0  0
  5 11  1  1  0  0  0
  5 19  1  0  0  0  0
  5 15  1  0  0  0  0
  6  7  1  1  0  0  0
  9 25  1  0  0  0  0
  9 27  1  0  0  0  0
 10 17  1  0  0  0  0
 11 20  1  0  0  0  0
 12 15  1  0  0  0  0
 12  8  1  0  0  0  0
 13  9  1  0  0  0  0
 14  2  1  0  0  0  0
 15  4  1  0  0  0  0
 16  8  1  0  0  0  0
 17 25  1  0  0  0  0
 18  1  2  0  0  0  0
 19  6  1  0  0  0  0
 20 13  1  0  0  0  0
 20 18  1  0  0  0  0
 21 26  2  0  0  0  0
 22 10  1  0  0  0  0
 23 21  1  0  0  0  0
 24 22  1  0  0  0  0
 24 13  1  0  0  0  0
 25 14  1  0  0  0  0
 27  2  1  0  0  0  0
 28 17  1  0  0  0  0
 28 29  1  0  0  0  0
 30 34  2  0  0  0  0
 31 32  2  0  0  0  0
 32 34  1  0  0  0  0
 32 29  1  0  0  0  0
 33 31  1  0  0  0  0
 33 30  1  0  0  0  0
M  END
>  <MODEL>
5

>  <REMARK>
 VINA RESULT:      -7.7      2.380      7.712
  Name = 
  3 active torsions:
  status: ('A' for Active; 'I' for Inactive)
    1  A    between atoms: C_17  and  O_28
    2  A    between atoms: O_28  and  C_29
    3  A    between atoms: C_29  and  C_32
                            x       y       z     vdW  Elec       q    Type
                         _______ _______ _______ _____ _____    ______ ____

>  <TORSDO>
F 3

$$$$
=
 OpenBabel11112417503D

 34 42  0  0  1  0  0  0  0  0999 V2000
  192.9850  174.7770  143.5180 C   0  0  0  0  0  0  0  0  0  0  0  0
  193.7570  176.1960  145.4300 C   0  0  0  0  0  2  0  0  0  0  0  0
  190.8160  170.0630  140.9960 C   0  0  2  0  0  0  0  0  0  0  0  0
  191.8200  173.9720  141.5700 C   0  0  0  0  0  0  0  0  0  0  0  0
  189.8520  172.3570  141.8560 C   0  0  1  0  0  3  0  0  0  0  0  0
  191.9430  170.8190  141.6930 C   0  0  2  0  0  3  0  0  0  0  0  0
  192.1740  169.4160  141.1710 C   0  0  0  0  0  2  0  0  0  0  0  0
  191.3880  171.7830  139.1170 C   0  0  0  0  0  2  0  0  0  0  0  0
  191.9400  174.6200  145.8340 N   0  0  2  0  0  0  0  0  0  0  0  0
  189.2960  176.1520  146.9530 C   0  0  0  0  0  2  0  0  0  0  0  0
  189.5870  173.0820  143.1740 C   0  0  0  0  0  2  0  0  0  0  0  0
  190.6360  173.0550  139.4520 C   0  0  0  0  0  2  0  0  0  0  0  0
  190.6800  174.3550  145.0920 C   0  0  1  0  0  3  0  0  0  0  0  0
  193.1660  176.4870  146.7810 C   0  0  0  0  0  2  0  0  0  0  0  0
  190.5970  173.3530  140.9500 C   0  0  2  0  0  3  0  0  0  0  0  0
  190.5750  170.5720  139.5600 C   0  0  0  0  0  2  0  0  0  0  0  0
  190.6660  176.7320  146.5550 C   0  0  1  0  0  3  0  0  0  0  0  0
  191.9030  174.0880  142.9700 C   0  0  0  0  0  0  0  0  0  0  0  0
  190.5100  170.9850  142.1730 C   0  0  2  0  0  3  0  0  0  0  0  0
  190.9070  173.4340  143.8930 C   0  0  2  0  0  3  0  0  0  0  0  0
  193.8350  175.1870  141.3440 C   0  0  0  0  0  3  0  0  0  0  0  0
  189.3160  174.6490  147.2560 C   0  0  0  0  0  2  0  0  0  0  0  0
  192.7770  174.5410  140.7910 N   0  0  0  0  0  0  0  0  0  0  0  0
  189.5940  173.7890  146.0200 C   0  0  0  0  0  2  0  0  0  0  0  0
  191.8450  175.7500  146.7880 C   0  0  1  0  0  3  0  0  0  0  0  0
  193.9370  175.2940  142.6940 N   0  0  0  0  0  0  0  0  0  0  0  0
  193.1550  174.8670  145.0160 C   0  0  1  0  0  3  0  0  0  0  0  0
  190.6250  177.1770  145.2290 O   0  0  0  0  0  0  0  0  0  0  0  0
  189.3290  177.6610  145.0330 C   0  0  0  0  0  2  0  0  0  0  0  0
  187.2830  175.9780  142.4200 C   0  0  0  0  0  3  0  0  0  0  0  0
  189.3930  176.8930  142.7200 N   0  0  0  0  0  0  0  0  0  0  0  0
  188.7440  177.0240  143.8220 C   0  0  0  0  0  0  0  0  0  0  0  0
  188.5670  176.2550  141.7940 N   0  0  0  0  0  2  0  0  0  0  0  0
  187.4210  176.5060  143.7710 N   0  0  0  0  0  0  0  0  0  0  0  0
  1 27  1  0  0  0  0
  2 14  1  0  0  0  0
  3 16  1  6  0  0  0
  3  7  1  0  0  0  0
  3  6  1  0  0  0  0
  3 19  1  0  0  0  0
  4 18  2  0  0  0  0
  5 19  1  0  0  0  0
  5 11  1  1  0  0  0
  6  7  1  1  0  0  0
  6 19  1  0  0  0  0
  8 12  1  0  0  0  0
  8 16  1  0  0  0  0
  9 25  1  0  0  0  0
 10 22  1  0  0  0  0
 11 20  1  0  0  0  0
 12 15  1  0  0  0  0
 13  9  1  0  0  0  0
 13 24  1  0  0  0  0
 14 25  1  0  0  0  0
 15  4  1  0  0  0  0
 15  5  1  0  0  0  0
 17 25  1  0  0  0  0
 17 10  1  0  0  0  0
 18  1  1  0  0  0  0
 18 20  1  0  0  0  0
 20 13  1  0  0  0  0
 21 26  1  0  0  0  0
 23 21  2  0  0  0  0
 23  4  1  0  0  0  0
 24 22  1  0  0  0  0
 26  1  2  0  0  0  0
 27  2  1  0  0  0  0
 27  9  1  0  0  0  0
 28 17  1  0  0  0  0
 29 28  1  0  0  0  0
 30 34  2  0  0  0  0
 31 32  2  0  0  0  0
 32 29  1  0  0  0  0
 33 30  1  0  0  0  0
 33 31  1  0  0  0  0
 34 32  1  0  0  0  0
M  END
>  <MODEL>
6

>  <REMARK>
 VINA RESULT:      -7.6      2.382      6.293
  Name = 
  3 active torsions:
  status: ('A' for Active; 'I' for Inactive)
    1  A    between atoms: C_17  and  O_28
    2  A    between atoms: O_28  and  C_29
    3  A    between atoms: C_29  and  C_32
                            x       y       z     vdW  Elec       q    Type
                         _______ _______ _______ _____ _____    ______ ____

>  <TORSDO>
F 3

$$$$
=
 OpenBabel11112417503D

 34 42  0  0  1  0  0  0  0  0999 V2000
  193.6750  176.0020  144.9970 C   0  0  0  0  0  0  0  0  0  0  0  0
  196.0600  175.8600  144.2510 C   0  0  0  0  0  2  0  0  0  0  0  0
  187.9610  176.4370  144.3250 C   0  0  2  0  0  0  0  0  0  0  0  0
  191.5500  175.5230  146.0270 C   0  0  0  0  0  0  0  0  0  0  0  0
  189.6810  174.4670  144.6290 C   0  0  1  0  0  3  0  0  0  0  0  0
  189.3670  177.0290  144.3150 C   0  0  2  0  0  3  0  0  0  0  0  0
  188.1620  177.9150  144.0670 C   0  0  0  0  0  2  0  0  0  0  0  0
  188.4610  176.3660  146.8870 C   0  0  0  0  0  2  0  0  0  0  0  0
  194.3460  174.9090  142.7990 N   0  0  2  0  0  0  0  0  0  0  0  0
  194.9290  171.7620  142.2150 C   0  0  0  0  0  2  0  0  0  0  0  0
  190.8000  173.7750  143.8530 C   0  0  0  0  0  2  0  0  0  0  0  0
  189.2470  175.0950  147.1390 C   0  0  0  0  0  2  0  0  0  0  0  0
  193.2180  173.9830  143.0780 C   0  0  1  0  0  3  0  0  0  0  0  0
  196.7380  175.0680  143.1690 C   0  0  0  0  0  2  0  0  0  0  0  0
  190.2450  174.7760  146.0270 C   0  0  2  0  0  3  0  0  0  0  0  0
  187.4640  176.1400  145.7560 C   0  0  0  0  0  2  0  0  0  0  0  0
  195.7270  172.7590  143.0740 C   0  0  1  0  0  3  0  0  0  0  0  0
  192.4160  175.4030  144.9240 C   0  0  0  0  0  0  0  0  0  0  0  0
  189.1300  175.6330  143.7620 C   0  0  2  0  0  3  0  0  0  0  0  0
  192.0050  174.7180  143.6480 C   0  0  2  0  0  3  0  0  0  0  0  0
  193.1800  176.7940  147.1760 C   0  0  0  0  0  3  0  0  0  0  0  0
  194.0020  172.4200  141.1880 C   0  0  0  0  0  2  0  0  0  0  0  0
  191.9610  176.1980  147.1330 N   0  0  0  0  0  0  0  0  0  0  0  0
  192.8340  173.1770  141.8270 C   0  0  0  0  0  2  0  0  0  0  0  0
  195.6390  174.2230  142.5650 C   0  0  1  0  0  3  0  0  0  0  0  0
  194.0210  176.7000  146.1140 N   0  0  0  0  0  0  0  0  0  0  0  0
  194.6110  175.9610  143.8130 C   0  0  1  0  0  3  0  0  0  0  0  0
  195.3280  172.6580  144.4120 O   0  0  0  0  0  0  0  0  0  0  0  0
  196.3960  172.0540  145.0800 C   0  0  0  0  0  2  0  0  0  0  0  0
  195.8890  168.8770  146.9500 C   0  0  0  0  0  3  0  0  0  0  0  0
  194.6780  170.4740  145.7840 N   0  0  0  0  0  0  0  0  0  0  0  0
  195.9150  170.8230  145.7640 C   0  0  0  0  0  0  0  0  0  0  0  0
  194.5660  169.2800  146.4970 N   0  0  0  0  0  0  0  0  0  0  0  0
  196.7720  169.9250  146.4560 N   0  0  0  0  0  2  0  0  0  0  0  0
  1 26  1  0  0  0  0
  3  7  1  6  0  0  0
  3 16  1  0  0  0  0
  4 23  2  0  0  0  0
  5 11  1  6  0  0  0
  5 15  1  0  0  0  0
  6  7  1  6  0  0  0
  6  3  1  0  0  0  0
  8 12  1  0  0  0  0
  9 13  1  0  0  0  0
  9 27  1  0  0  0  0
 10 17  1  0  0  0  0
 13 20  1  0  0  0  0
 14  2  1  0  0  0  0
 15  4  1  0  0  0  0
 15 12  1  0  0  0  0
 16  8  1  0  0  0  0
 17 28  1  0  0  0  0
 18  1  2  0  0  0  0
 18  4  1  0  0  0  0
 19  6  1  0  0  0  0
 19  3  1  0  0  0  0
 19  5  1  0  0  0  0
 20 11  1  0  0  0  0
 20 18  1  0  0  0  0
 22 24  1  0  0  0  0
 22 10  1  0  0  0  0
 23 21  1  0  0  0  0
 24 13  1  0  0  0  0
 25  9  1  0  0  0  0
 25 17  1  0  0  0  0
 25 14  1  0  0  0  0
 26 21  2  0  0  0  0
 27  2  1  0  0  0  0
 27  1  1  0  0  0  0
 28 29  1  0  0  0  0
 29 32  1  0  0  0  0
 31 33  1  0  0  0  0
 32 31  2  0  0  0  0
 32 34  1  0  0  0  0
 33 30  2  0  0  0  0
 34 30  1  0  0  0  0
M  END
>  <MODEL>
7

>  <REMARK>
 VINA RESULT:      -7.4      2.819      5.342
  Name = 
  3 active torsions:
  status: ('A' for Active; 'I' for Inactive)
    1  A    between atoms: C_17  and  O_28
    2  A    between atoms: O_28  and  C_29
    3  A    between atoms: C_29  and  C_32
                            x       y       z     vdW  Elec       q    Type
                         _______ _______ _______ _____ _____    ______ ____

>  <TORSDO>
F 3

$$$$
=
 OpenBabel11112417503D

 34 42  0  0  1  0  0  0  0  0999 V2000
  190.1680  173.5460  142.6690 C   0  0  0  0  0  0  0  0  0  0  0  0
  191.9810  171.9240  142.0780 C   0  0  0  0  0  2  0  0  0  0  0  0
  187.5810  177.6460  145.7970 C   0  0  2  0  0  0  0  0  0  0  0  0
  188.5660  175.3430  142.5810 C   0  0  0  0  0  0  0  0  0  0  0  0
  189.1320  177.5910  143.6720 C   0  0  1  0  0  3  0  0  0  0  0  0
  188.0230  176.2040  145.5700 C   0  0  2  0  0  3  0  0  0  0  0  0
  187.1890  176.5650  146.7830 C   0  0  0  0  0  2  0  0  0  0  0  0
  185.9930  177.0300  143.8170 C   0  0  0  0  0  2  0  0  0  0  0  0
  192.6160  173.9930  143.2030 N   0  0  2  0  0  0  0  0  0  0  0  0
  194.7870  175.6570  141.4410 C   0  0  0  0  0  2  0  0  0  0  0  0
  190.5820  177.2830  143.3020 C   0  0  0  0  0  2  0  0  0  0  0  0
  186.7910  177.2330  142.5450 C   0  0  0  0  0  2  0  0  0  0  0  0
  192.2710  175.4120  142.9300 C   0  0  1  0  0  3  0  0  0  0  0  0
  193.4780  172.0460  142.0410 C   0  0  0  0  0  2  0  0  0  0  0  0
  188.2530  176.8110  142.6790 C   0  0  2  0  0  3  0  0  0  0  0  0
  186.4220  178.0530  144.8630 C   0  0  0  0  0  2  0  0  0  0  0  0
  194.1020  174.3140  141.1310 C   0  0  1  0  0  3  0  0  0  0  0  0
  189.8640  174.8910  142.8860 C   0  0  0  0  0  0  0  0  0  0  0  0
  188.9510  177.3480  145.1950 C   0  0  2  0  0  3  0  0  0  0  0  0
  190.9050  175.7870  143.5040 C   0  0  2  0  0  3  0  0  0  0  0  0
  187.9620  173.1640  141.8900 C   0  0  0  0  0  3  0  0  0  0  0  0
  194.7670  176.0440  142.9240 C   0  0  0  0  0  2  0  0  0  0  0  0
  187.6540  174.4740  142.0720 N   0  0  0  0  0  0  0  0  0  0  0  0
  193.3630  176.3630  143.4450 C   0  0  0  0  0  2  0  0  0  0  0  0
  193.7550  173.4890  142.3990 C   0  0  1  0  0  3  0  0  0  0  0  0
  189.2050  172.7090  142.1940 N   0  0  0  0  0  0  0  0  0  0  0  0
  191.5240  172.9990  143.0460 C   0  0  1  0  0  3  0  0  0  0  0  0
  192.9700  174.5320  140.3360 O   0  0  0  0  0  0  0  0  0  0  0  0
  193.2900  174.0250  139.0750 C   0  0  0  0  0  2  0  0  0  0  0  0
  189.8790  173.1110  137.9010 C   0  0  0  0  0  3  0  0  0  0  0  0
  191.9560  173.7060  137.0600 N   0  0  0  0  0  0  0  0  0  0  0  0
  192.0360  173.6990  138.3430 C   0  0  0  0  0  0  0  0  0  0  0  0
  190.6560  173.3540  136.6950 N   0  0  0  0  0  2  0  0  0  0  0  0
  190.8180  173.3540  138.9880 N   0  0  0  0  0  0  0  0  0  0  0  0
  1 18  1  0  0  0  0
  1 27  1  0  0  0  0
  2 27  1  0  0  0  0
  3 16  1  6  0  0  0
  3  7  1  0  0  0  0
  4 15  1  0  0  0  0
  4 18  2  0  0  0  0
  5 11  1  6  0  0  0
  5 19  1  0  0  0  0
  6  3  1  0  0  0  0
  6  7  1  1  0  0  0
  8 16  1  0  0  0  0
 10 22  1  0  0  0  0
 11 20  1  0  0  0  0
 12 15  1  0  0  0  0
 12  8  1  0  0  0  0
 13  9  1  0  0  0  0
 13 24  1  0  0  0  0
 13 20  1  0  0  0  0
 14  2  1  0  0  0  0
 14 25  1  0  0  0  0
 15  5  1  0  0  0  0
 17 10  1  0  0  0  0
 17 25  1  0  0  0  0
 18 20  1  0  0  0  0
 19  6  1  0  0  0  0
 19  3  1  0  0  0  0
 21 23  2  0  0  0  0
 21 26  1  0  0  0  0
 22 24  1  0  0  0  0
 23  4  1  0  0  0  0
 25  9  1  0  0  0  0
 26  1  2  0  0  0  0
 27  9  1  0  0  0  0
 28 17  1  0  0  0  0
 29 28  1  0  0  0  0
 30 34  2  0  0  0  0
 31 32  2  0  0  0  0
 32 34  1  0  0  0  0
 32 29  1  0  0  0  0
 33 31  1  0  0  0  0
 33 30  1  0  0  0  0
M  END
>  <MODEL>
8

>  <REMARK>
 VINA RESULT:      -7.4      2.331      3.040
  Name = 
  3 active torsions:
  status: ('A' for Active; 'I' for Inactive)
    1  A    between atoms: C_17  and  O_28
    2  A    between atoms: O_28  and  C_29
    3  A    between atoms: C_29  and  C_32
                            x       y       z     vdW  Elec       q    Type
                         _______ _______ _______ _____ _____    ______ ____

>  <TORSDO>
F 3

$$$$
=
 OpenBabel11112417503D

 34 42  0  0  1  0  0  0  0  0999 V2000
  193.2400  176.0430  143.7640 C   0  0  0  0  0  0  0  0  0  0  0  0
  195.3380  175.9330  142.4020 C   0  0  0  0  0  2  0  0  0  0  0  0
  187.5640  176.5520  144.6650 C   0  0  2  0  0  0  0  0  0  0  0  0
  191.4560  175.5130  145.2920 C   0  0  0  0  0  0  0  0  0  0  0  0
  189.2590  174.5580  144.3830 C   0  0  1  0  0  3  0  0  0  0  0  0
  188.9300  177.1360  144.3160 C   0  0  2  0  0  3  0  0  0  0  0  0
  187.7240  178.0430  144.4500 C   0  0  0  0  0  2  0  0  0  0  0  0
  188.7250  176.3180  146.9930 C   0  0  0  0  0  2  0  0  0  0  0  0
  193.2790  175.0860  141.4060 N   0  0  2  0  0  0  0  0  0  0  0  0
  193.6160  171.9780  140.5030 C   0  0  0  0  0  2  0  0  0  0  0  0
  190.1150  173.9090  143.2970 C   0  0  0  0  0  2  0  0  0  0  0  0
  189.5210  175.0290  146.9500 C   0  0  0  0  0  2  0  0  0  0  0  0
  192.2450  174.1510  141.9200 C   0  0  1  0  0  3  0  0  0  0  0  0
  195.6860  175.2070  141.1330 C   0  0  0  0  0  2  0  0  0  0  0  0
  190.1810  174.7750  145.5960 C   0  0  2  0  0  3  0  0  0  0  0  0
  187.4590  176.1690  146.1560 C   0  0  0  0  0  2  0  0  0  0  0  0
  194.6350  172.9150  141.1760 C   0  0  1  0  0  3  0  0  0  0  0  0
  191.9950  175.4570  143.9930 C   0  0  0  0  0  0  0  0  0  0  0  0
  188.5240  175.7790  143.7650 C   0  0  2  0  0  3  0  0  0  0  0  0
  191.2430  174.8550  142.8350 C   0  0  2  0  0  3  0  0  0  0  0  0
  193.3600  176.6990  146.0390 C   0  0  0  0  0  3  0  0  0  0  0  0
  192.4640  172.7050  139.8000 C   0  0  0  0  0  2  0  0  0  0  0  0
  192.1600  176.1140  146.2870 N   0  0  0  0  0  0  0  0  0  0  0  0
  191.5250  173.4270  140.7710 C   0  0  0  0  0  2  0  0  0  0  0  0
  194.4480  174.4080  140.7960 C   0  0  1  0  0  3  0  0  0  0  0  0
  193.8860  176.6670  144.7870 N   0  0  0  0  0  0  0  0  0  0  0  0
  193.8270  176.0700  142.3720 C   0  0  1  0  0  3  0  0  0  0  0  0
  194.6030  172.7320  142.5630 O   0  0  0  0  0  0  0  0  0  0  0  0
  195.7890  172.0670  142.8830 C   0  0  0  0  0  2  0  0  0  0  0  0
  196.9210  173.5540  146.1020 C   0  0  0  0  0  3  0  0  0  0  0  0
  197.5270  173.4650  143.8660 N   0  0  0  0  0  0  0  0  0  0  0  0
  196.4570  172.7690  144.0130 C   0  0  0  0  0  0  0  0  0  0  0  0
  197.8890  173.9900  145.1070 N   0  0  0  0  0  2  0  0  0  0  0  0
  195.9780  172.7340  145.3510 N   0  0  0  0  0  0  0  0  0  0  0  0
  1 18  2  0  0  0  0
  1 26  1  0  0  0  0
  3  7  1  6  0  0  0
  3 16  1  0  0  0  0
  4 15  1  0  0  0  0
  4 23  2  0  0  0  0
  5 11  1  6  0  0  0
  5 15  1  0  0  0  0
  6  7  1  6  0  0  0
  6  3  1  0  0  0  0
  9 13  1  0  0  0  0
  9 27  1  0  0  0  0
 10 17  1  0  0  0  0
 12  8  1  0  0  0  0
 13 20  1  0  0  0  0
 14  2  1  0  0  0  0
 15 12  1  0  0  0  0
 16  8  1  0  0  0  0
 17 28  1  0  0  0  0
 18  4  1  0  0  0  0
 19  6  1  0  0  0  0
 19  5  1  0  0  0  0
 19  3  1  0  0  0  0
 20 11  1  0  0  0  0
 20 18  1  0  0  0  0
 21 23  1  0  0  0  0
 22 10  1  0  0  0  0
 22 24  1  0  0  0  0
 24 13  1  0  0  0  0
 25 14  1  0  0  0  0
 25 17  1  0  0  0  0
 25  9  1  0  0  0  0
 26 21  2  0  0  0  0
 27  2  1  0  0  0  0
 27  1  1  0  0  0  0
 28 29  1  0  0  0  0
 29 32  1  0  0  0  0
 31 32  2  0  0  0  0
 31 33  1  0  0  0  0
 32 34  1  0  0  0  0
 33 30  1  0  0  0  0
 34 30  2  0  0  0  0
M  END
>  <MODEL>
9

>  <REMARK>
 VINA RESULT:      -7.2      2.471      4.809
  Name = 
  3 active torsions:
  status: ('A' for Active; 'I' for Inactive)
    1  A    between atoms: C_17  and  O_28
    2  A    between atoms: O_28  and  C_29
    3  A    between atoms: C_29  and  C_32
                            x       y       z     vdW  Elec       q    Type
                         _______ _______ _______ _____ _____    ______ ____

>  <TORSDO>
F 3

$$$$
