=
 OpenBabel11112416433D

 32 37  0  0  1  0  0  0  0  0999 V2000
  188.5670  176.1620  144.7160 C   0  0  1  0  0  3  0  0  0  0  0  0
  189.2520  174.0480  140.1880 C   0  0  0  0  0  2  0  0  0  0  0  0
  190.1430  172.9840  140.8240 C   0  0  0  0  0  2  0  0  0  0  0  0
  190.0780  175.4860  146.6430 C   0  0  2  0  0  3  0  0  0  0  0  0
  191.6140  175.4670  146.6300 C   0  0  2  0  0  3  0  0  0  0  0  0
  186.8340  177.5990  145.0640 C   0  0  2  0  0  3  0  0  0  0  0  0
  187.1710  176.7180  142.8390 O   0  0  0  0  0  0  0  0  0  0  0  0
  193.4120  174.9460  145.0630 C   0  0  2  0  0  3  0  0  0  0  0  0
  188.2170  174.5430  141.1950 C   0  0  0  0  0  2  0  0  0  0  0  0
  187.8850  175.6550  143.4250 C   0  0  1  0  0  3  0  0  0  0  0  0
  188.9170  175.1150  142.4280 C   0  0  1  0  0  3  0  0  0  0  0  0
  190.4850  174.6050  144.3090 C   0  0  2  0  0  3  0  0  0  0  0  0
  193.0800  176.4150  144.9090 C   0  0  0  0  0  2  0  0  0  0  0  0
  186.1730  177.1210  143.7500 C   0  0  2  0  0  3  0  0  0  0  0  0
  192.1690  176.7700  146.0720 C   0  0  0  0  0  2  0  0  0  0  0  0
  190.8380  173.5490  142.0600 C   0  0  0  0  0  2  0  0  0  0  0  0
  189.8000  174.0320  143.0720 C   0  0  2  0  0  3  0  0  0  0  0  0
  191.3230  173.6560  144.9210 O   0  0  0  0  0  0  0  0  0  0  0  0
  187.5720  176.5430  145.6360 O   0  0  0  0  0  0  0  0  0  0  0  0
  189.6120  174.6630  147.6680 O   0  0  0  0  0  1  0  0  0  0  0  0
  193.6250  174.3590  143.8140 O   0  0  0  0  0  1  0  0  0  0  0  0
  189.4320  175.0560  145.3180 C   0  0  2  0  0  3  0  0  0  0  0  0
  192.2270  174.3230  145.7930 C   0  0  2  0  0  3  0  0  0  0  0  0
  185.6160  178.2840  141.6200 C   0  0  0  0  0  2  0  0  0  0  0  0
  185.3520  178.2360  143.1120 C   0  0  1  0  0  3  0  0  0  0  0  0
  184.3560  177.6290  142.1420 C   0  0  1  0  0  3  0  0  0  0  0  0
  183.2360  178.5400  141.9780 N   0  0  0  0  0  2  0  0  0  0  0  0
  182.3620  178.4560  140.8550 C   0  0  0  0  0  0  0  0  0  0  0  0
  181.3970  179.2580  140.7540 O   0  0  0  0  0  1  0  0  0  0  0  0
  182.5650  177.4970  139.8710 O   0  0  0  0  0  0  0  0  0  0  0  0
  185.0060  176.9860  146.4720 O   0  0  0  0  0  1  0  0  0  0  0  0
  185.7890  178.0660  146.0680 C   0  0  0  0  0  2  0  0  0  0  0  0
  1 22  1  0  0  0  0
  1 19  1  1  0  0  0
  2  3  1  0  0  0  0
  2  9  1  0  0  0  0
  3 16  1  0  0  0  0
  4 20  1  1  0  0  0
  5 15  1  6  0  0  0
  5  4  1  0  0  0  0
  6 19  1  0  0  0  0
  6 32  1  1  0  0  0
  8 21  1  6  0  0  0
  8 23  1  0  0  0  0
 10  7  1  6  0  0  0
 10  1  1  0  0  0  0
 11  9  1  6  0  0  0
 11 17  1  0  0  0  0
 11 10  1  0  0  0  0
 12 18  1  1  0  0  0
 12 22  1  0  0  0  0
 13  8  1  0  0  0  0
 13 15  1  0  0  0  0
 14  7  1  6  0  0  0
 14  6  1  0  0  0  0
 17 16  1  6  0  0  0
 17 12  1  0  0  0  0
 18 23  1  0  0  0  0
 22  4  1  0  0  0  0
 23  5  1  0  0  0  0
 24 26  1  0  0  0  0
 24 25  1  0  0  0  0
 25 14  1  0  0  0  0
 26 25  1  0  0  0  0
 27 26  1  0  0  0  0
 28 27  1  0  0  0  0
 29 28  1  0  0  0  0
 30 28  2  0  0  0  0
 32 31  1  0  0  0  0
M  END
>  <MODEL>
1

>  <REMARK>
 VINA RESULT:      -7.7      0.000      0.000
  Name = 
  3 active torsions:
  status: ('A' for Active; 'I' for Inactive)
    1  A    between atoms: C_7  and  C_19
    2  A    between atoms: C_10  and  C_17
    3  A    between atoms: C_20  and  N_29
                            x       y       z     vdW  Elec       q    Type
                         _______ _______ _______ _____ _____    ______ ____

>  <TORSDO>
F 3

$$$$
=
 OpenBabel11112416433D

 32 37  0  0  1  0  0  0  0  0999 V2000
  189.7550  176.1340  143.8560 C   0  0  1  0  0  3  0  0  0  0  0  0
  188.6320  178.6060  148.1070 C   0  0  0  0  0  2  0  0  0  0  0  0
  187.1590  178.2500  147.9200 C   0  0  0  0  0  2  0  0  0  0  0  0
  187.8810  175.4690  142.2750 C   0  0  2  0  0  3  0  0  0  0  0  0
  186.7900  176.3960  141.7180 C   0  0  2  0  0  3  0  0  0  0  0  0
  191.9000  175.4960  143.4290 C   0  0  2  0  0  3  0  0  0  0  0  0
  191.4560  176.7810  145.4260 O   0  0  0  0  0  0  0  0  0  0  0  0
  185.4480  178.2870  142.4820 C   0  0  2  0  0  3  0  0  0  0  0  0
  189.5200  177.5350  147.4780 C   0  0  0  0  0  2  0  0  0  0  0  0
  190.1180  176.3520  145.3430 C   0  0  1  0  0  3  0  0  0  0  0  0
  189.1990  177.3950  145.9900 C   0  0  1  0  0  3  0  0  0  0  0  0
  187.4080  176.8690  144.3260 C   0  0  2  0  0  3  0  0  0  0  0  0
  186.7190  178.8410  141.8750 C   0  0  0  0  0  2  0  0  0  0  0  0
  192.2720  175.7550  144.9080 C   0  0  2  0  0  3  0  0  0  0  0  0
  187.3960  177.6790  141.1670 C   0  0  0  0  0  2  0  0  0  0  0  0
  186.8370  178.1030  146.4350 C   0  0  0  0  0  2  0  0  0  0  0  0
  187.7170  177.0200  145.8120 C   0  0  2  0  0  3  0  0  0  0  0  0
  186.0560  176.5470  144.1100 O   0  0  0  0  0  0  0  0  0  0  0  0
  190.5520  175.0930  143.3420 O   0  0  0  0  0  0  0  0  0  0  0  0
  187.4590  174.1430  142.1760 O   0  0  0  0  0  1  0  0  0  0  0  0
  185.1190  178.9820  143.6470 O   0  0  0  0  0  1  0  0  0  0  0  0
  188.2770  175.7660  143.7280 C   0  0  2  0  0  3  0  0  0  0  0  0
  185.7220  176.8120  142.7530 C   0  0  2  0  0  3  0  0  0  0  0  0
  194.0540  176.4730  146.4910 C   0  0  0  0  0  2  0  0  0  0  0  0
  193.7300  176.1770  145.0400 C   0  0  1  0  0  3  0  0  0  0  0  0
  194.4720  175.1540  145.8800 C   0  0  1  0  0  3  0  0  0  0  0  0
  195.8850  175.2020  145.5500 N   0  0  0  0  0  2  0  0  0  0  0  0
  196.6970  174.0300  145.5660 C   0  0  0  0  0  0  0  0  0  0  0  0
  197.9170  174.1120  145.2650 O   0  0  0  0  0  0  0  0  0  0  0  0
  196.1550  172.7990  145.9130 O   0  0  0  0  0  1  0  0  0  0  0  0
  193.2950  174.8420  141.6050 O   0  0  0  0  0  1  0  0  0  0  0  0
  192.7750  174.4080  142.8230 C   0  0  0  0  0  2  0  0  0  0  0  0
  1 19  1  1  0  0  0
  1 10  1  0  0  0  0
  3  2  1  0  0  0  0
  4 20  1  1  0  0  0
  4 22  1  0  0  0  0
  5 15  1  1  0  0  0
  5  4  1  0  0  0  0
  5 23  1  0  0  0  0
  6 32  1  1  0  0  0
  6 14  1  0  0  0  0
  8 23  1  0  0  0  0
  8 21  1  1  0  0  0
  9  2  1  0  0  0  0
 10  7  1  6  0  0  0
 10 11  1  0  0  0  0
 11  9  1  1  0  0  0
 12 18  1  1  0  0  0
 12 17  1  0  0  0  0
 13  8  1  0  0  0  0
 14 25  1  0  0  0  0
 14  7  1  6  0  0  0
 15 13  1  0  0  0  0
 16  3  1  0  0  0  0
 17 11  1  0  0  0  0
 17 16  1  6  0  0  0
 19  6  1  0  0  0  0
 22  1  1  0  0  0  0
 22 12  1  0  0  0  0
 23 18  1  0  0  0  0
 25 26  1  0  0  0  0
 25 24  1  0  0  0  0
 26 24  1  0  0  0  0
 27 28  1  0  0  0  0
 27 26  1  0  0  0  0
 28 30  1  0  0  0  0
 29 28  2  0  0  0  0
 31 32  1  0  0  0  0
M  END
>  <MODEL>
2

>  <REMARK>
 VINA RESULT:      -7.6      3.262      8.666
  Name = 
  3 active torsions:
  status: ('A' for Active; 'I' for Inactive)
    1  A    between atoms: C_7  and  C_19
    2  A    between atoms: C_10  and  C_17
    3  A    between atoms: C_20  and  N_29
                            x       y       z     vdW  Elec       q    Type
                         _______ _______ _______ _____ _____    ______ ____

>  <TORSDO>
F 3

$$$$
=
 OpenBabel11112416433D

 32 37  0  0  1  0  0  0  0  0999 V2000
  190.7850  175.9450  144.5990 C   0  0  1  0  0  3  0  0  0  0  0  0
  191.5620  173.4430  140.2890 C   0  0  0  0  0  2  0  0  0  0  0  0
  192.5990  172.5680  140.9890 C   0  0  0  0  0  2  0  0  0  0  0  0
  192.4360  175.6670  146.5110 C   0  0  2  0  0  3  0  0  0  0  0  0
  193.9620  175.8280  146.4250 C   0  0  2  0  0  3  0  0  0  0  0  0
  188.9030  177.1960  144.8790 C   0  0  2  0  0  3  0  0  0  0  0  0
  189.2660  176.1230  142.7460 O   0  0  0  0  0  0  0  0  0  0  0  0
  195.7530  175.3550  144.8350 C   0  0  2  0  0  3  0  0  0  0  0  0
  190.5110  173.9200  141.2890 C   0  0  0  0  0  2  0  0  0  0  0  0
  190.1250  175.2220  143.4040 C   0  0  1  0  0  3  0  0  0  0  0  0
  191.1790  174.7020  142.4190 C   0  0  1  0  0  3  0  0  0  0  0  0
  192.8640  174.5900  144.2650 C   0  0  2  0  0  3  0  0  0  0  0  0
  195.2380  176.7480  144.5450 C   0  0  0  0  0  2  0  0  0  0  0  0
  188.2590  176.5030  143.6560 C   0  0  2  0  0  3  0  0  0  0  0  0
  194.3320  177.1190  145.7080 C   0  0  0  0  0  2  0  0  0  0  0  0
  193.2640  173.3430  142.1230 C   0  0  0  0  0  2  0  0  0  0  0  0
  192.2110  173.8080  143.1290 C   0  0  2  0  0  3  0  0  0  0  0  0
  193.8340  173.8190  144.9310 O   0  0  0  0  0  0  0  0  0  0  0  0
  189.7840  176.3040  145.5220 O   0  0  0  0  0  0  0  0  0  0  0  0
  192.1120  174.9130  147.6380 O   0  0  0  0  0  1  0  0  0  0  0  0
  195.9910  174.6640  143.6460 O   0  0  0  0  0  1  0  0  0  0  0  0
  191.8010  175.0210  145.2710 C   0  0  2  0  0  3  0  0  0  0  0  0
  194.6800  174.6800  145.6830 C   0  0  2  0  0  3  0  0  0  0  0  0
  186.7750  176.7830  141.6770 C   0  0  0  0  0  2  0  0  0  0  0  0
  187.2850  177.4360  142.9470 C   0  0  1  0  0  3  0  0  0  0  0  0
  185.9100  176.7950  142.9180 C   0  0  1  0  0  3  0  0  0  0  0  0
  184.9040  177.8350  142.7940 N   0  0  0  0  0  2  0  0  0  0  0  0
  184.2310  178.3640  143.9350 C   0  0  0  0  0  0  0  0  0  0  0  0
  183.3710  179.2700  143.7870 O   0  0  0  0  0  0  0  0  0  0  0  0
  184.5160  177.8850  145.2080 O   0  0  0  0  0  1  0  0  0  0  0  0
  187.2910  176.5320  146.5100 O   0  0  0  0  0  1  0  0  0  0  0  0
  187.8460  177.6440  145.8790 C   0  0  0  0  0  2  0  0  0  0  0  0
  1 22  1  0  0  0  0
  1 19  1  1  0  0  0
  2  3  1  0  0  0  0
  2  9  1  0  0  0  0
  3 16  1  0  0  0  0
  4 20  1  1  0  0  0
  5 15  1  6  0  0  0
  5  4  1  0  0  0  0
  6 19  1  0  0  0  0
  6 32  1  1  0  0  0
  8 21  1  6  0  0  0
  8 23  1  0  0  0  0
 10  7  1  6  0  0  0
 10  1  1  0  0  0  0
 11  9  1  6  0  0  0
 11 17  1  0  0  0  0
 11 10  1  0  0  0  0
 12 18  1  1  0  0  0
 12 22  1  0  0  0  0
 13  8  1  0  0  0  0
 13 15  1  0  0  0  0
 14  7  1  6  0  0  0
 14  6  1  0  0  0  0
 17 16  1  6  0  0  0
 17 12  1  0  0  0  0
 18 23  1  0  0  0  0
 22  4  1  0  0  0  0
 23  5  1  0  0  0  0
 24 26  1  0  0  0  0
 24 25  1  0  0  0  0
 25 14  1  0  0  0  0
 26 25  1  0  0  0  0
 27 26  1  0  0  0  0
 27 28  1  0  0  0  0
 28 30  1  0  0  0  0
 29 28  2  0  0  0  0
 32 31  1  0  0  0  0
M  END
>  <MODEL>
3

>  <REMARK>
 VINA RESULT:      -7.5      1.944      2.565
  Name = 
  3 active torsions:
  status: ('A' for Active; 'I' for Inactive)
    1  A    between atoms: C_7  and  C_19
    2  A    between atoms: C_10  and  C_17
    3  A    between atoms: C_20  and  N_29
                            x       y       z     vdW  Elec       q    Type
                         _______ _______ _______ _____ _____    ______ ____

>  <TORSDO>
F 3

$$$$
=
 OpenBabel11112416433D

 32 37  0  0  1  0  0  0  0  0999 V2000
  188.2930  175.8680  143.8570 C   0  0  1  0  0  3  0  0  0  0  0  0
  185.3910  177.5100  140.0720 C   0  0  0  0  0  2  0  0  0  0  0  0
  185.2050  178.8400  140.7970 C   0  0  0  0  0  2  0  0  0  0  0  0
  188.3140  177.1500  146.0500 C   0  0  2  0  0  3  0  0  0  0  0  0
  187.0840  177.5690  146.8710 C   0  0  2  0  0  3  0  0  0  0  0  0
  189.6740  174.0820  143.5560 C   0  0  2  0  0  3  0  0  0  0  0  0
  188.2260  174.7370  141.7370 O   0  0  0  0  0  0  0  0  0  0  0  0
  184.8060  178.3440  146.4630 C   0  0  2  0  0  3  0  0  0  0  0  0
  186.7370  176.8890  140.4410 C   0  0  0  0  0  2  0  0  0  0  0  0
  188.1510  176.0150  142.3260 C   0  0  1  0  0  3  0  0  0  0  0  0
  186.8200  176.6780  141.9520 C   0  0  1  0  0  3  0  0  0  0  0  0
  186.7460  177.8100  144.1820 C   0  0  2  0  0  3  0  0  0  0  0  0
  184.7720  176.8330  146.5300 C   0  0  0  0  0  2  0  0  0  0  0  0
  189.4980  174.2030  142.0250 C   0  0  2  0  0  3  0  0  0  0  0  0
  186.1300  176.3980  147.0550 C   0  0  0  0  0  2  0  0  0  0  0  0
  185.2950  178.6340  142.3070 C   0  0  0  0  0  2  0  0  0  0  0  0
  186.6480  178.0260  142.6750 C   0  0  2  0  0  3  0  0  0  0  0  0
  186.5720  179.0140  144.8880 O   0  0  0  0  0  0  0  0  0  0  0  0
  189.5720  175.3570  144.1490 O   0  0  0  0  0  0  0  0  0  0  0  0
  189.4040  177.9420  146.4100 O   0  0  0  0  0  1  0  0  0  0  0  0
  183.9870  178.8070  145.4310 O   0  0  0  0  0  1  0  0  0  0  0  0
  188.1130  177.2280  144.5310 C   0  0  2  0  0  3  0  0  0  0  0  0
  186.2670  178.7200  146.2460 C   0  0  2  0  0  3  0  0  0  0  0  0
  188.9910  172.8900  139.9710 C   0  0  0  0  0  2  0  0  0  0  0  0
  189.6200  172.8430  141.3490 C   0  0  1  0  0  3  0  0  0  0  0  0
  190.4940  172.9740  140.1160 C   0  0  1  0  0  3  0  0  0  0  0  0
  191.0800  171.6810  139.8090 N   0  0  0  0  0  2  0  0  0  0  0  0
  191.5220  171.3540  138.4930 C   0  0  0  0  0  0  0  0  0  0  0  0
  192.0330  170.2250  138.2690 O   0  0  0  0  0  1  0  0  0  0  0  0
  191.3910  172.2690  137.4560 O   0  0  0  0  0  0  0  0  0  0  0  0
  190.8550  172.3210  144.6550 O   0  0  0  0  0  1  0  0  0  0  0  0
  191.0290  173.4860  143.9100 C   0  0  0  0  0  2  0  0  0  0  0  0
  1 19  1  6  0  0  0
  1 22  1  0  0  0  0
  2  9  1  0  0  0  0
  2  3  1  0  0  0  0
  3 16  1  0  0  0  0
  4 20  1  1  0  0  0
  4  5  1  0  0  0  0
  5 15  1  6  0  0  0
  6 32  1  6  0  0  0
  6 19  1  0  0  0  0
  8 21  1  6  0  0  0
  8 13  1  0  0  0  0
 10  7  1  6  0  0  0
 10  1  1  0  0  0  0
 11  9  1  6  0  0  0
 11 10  1  0  0  0  0
 11 17  1  0  0  0  0
 12 22  1  0  0  0  0
 12 18  1  1  0  0  0
 13 15  1  0  0  0  0
 14  7  1  1  0  0  0
 14  6  1  0  0  0  0
 17 16  1  1  0  0  0
 17 12  1  0  0  0  0
 18 23  1  0  0  0  0
 22  4  1  0  0  0  0
 23  8  1  0  0  0  0
 23  5  1  0  0  0  0
 24 26  1  0  0  0  0
 24 25  1  0  0  0  0
 25 14  1  0  0  0  0
 26 25  1  0  0  0  0
 27 26  1  0  0  0  0
 28 27  1  0  0  0  0
 29 28  1  0  0  0  0
 30 28  2  0  0  0  0
 32 31  1  0  0  0  0
M  END
>  <MODEL>
4

>  <REMARK>
 VINA RESULT:      -7.5      3.123      7.012
  Name = 
  3 active torsions:
  status: ('A' for Active; 'I' for Inactive)
    1  A    between atoms: C_7  and  C_19
    2  A    between atoms: C_10  and  C_17
    3  A    between atoms: C_20  and  N_29
                            x       y       z     vdW  Elec       q    Type
                         _______ _______ _______ _____ _____    ______ ____

>  <TORSDO>
F 3

$$$$
=
 OpenBabel11112416433D

 32 37  0  0  1  0  0  0  0  0999 V2000
  190.2040  174.9310  142.9650 C   0  0  1  0  0  3  0  0  0  0  0  0
  190.8240  176.5300  147.7090 C   0  0  0  0  0  2  0  0  0  0  0  0
  192.3370  176.4030  147.5490 C   0  0  0  0  0  2  0  0  0  0  0  0
  192.1620  173.8620  141.7500 C   0  0  2  0  0  3  0  0  0  0  0  0
  193.0320  172.7060  142.2690 C   0  0  2  0  0  3  0  0  0  0  0  0
  188.2350  175.2920  141.8780 C   0  0  2  0  0  3  0  0  0  0  0  0
  188.4180  175.9790  144.1870 O   0  0  0  0  0  0  0  0  0  0  0  0
  193.9580  171.9400  144.3940 C   0  0  2  0  0  3  0  0  0  0  0  0
  190.1730  176.8300  146.3610 C   0  0  0  0  0  2  0  0  0  0  0  0
  189.8160  175.9950  144.0170 C   0  0  1  0  0  3  0  0  0  0  0  0
  190.5030  175.7230  145.3610 C   0  0  1  0  0  3  0  0  0  0  0  0
  192.3510  174.5150  144.1850 C   0  0  2  0  0  3  0  0  0  0  0  0
  192.5940  171.3040  144.2300 C   0  0  0  0  0  2  0  0  0  0  0  0
  187.8290  176.3260  142.9540 C   0  0  2  0  0  3  0  0  0  0  0  0
  192.1680  171.5700  142.7960 C   0  0  0  0  0  2  0  0  0  0  0  0
  192.6700  175.3020  146.5460 C   0  0  0  0  0  2  0  0  0  0  0  0
  192.0290  175.6120  145.1940 C   0  0  2  0  0  3  0  0  0  0  0  0
  193.7380  174.3610  144.0150 O   0  0  0  0  0  0  0  0  0  0  0  0
  189.6370  175.2880  141.7270 O   0  0  0  0  0  0  0  0  0  0  0  0
  192.8500  174.5480  140.7500 O   0  0  0  0  0  1  0  0  0  0  0  0
  194.1450  172.3650  145.7100 O   0  0  0  0  0  1  0  0  0  0  0  0
  191.7250  174.8560  142.8350 C   0  0  2  0  0  3  0  0  0  0  0  0
  193.9980  173.1010  143.4060 C   0  0  2  0  0  3  0  0  0  0  0  0
  185.9630  177.1450  144.3830 C   0  0  0  0  0  2  0  0  0  0  0  0
  186.3160  176.3690  143.1310 C   0  0  1  0  0  3  0  0  0  0  0  0
  185.8420  177.8060  143.0280 C   0  0  1  0  0  3  0  0  0  0  0  0
  184.4480  177.8180  142.6210 N   0  0  0  0  0  2  0  0  0  0  0  0
  184.0600  178.1590  141.2920 C   0  0  0  0  0  0  0  0  0  0  0  0
  182.8420  178.1500  140.9750 O   0  0  0  0  0  1  0  0  0  0  0  0
  185.0150  178.5030  140.3430 O   0  0  0  0  0  0  0  0  0  0  0  0
  188.1560  174.8150  139.5400 O   0  0  0  0  0  1  0  0  0  0  0  0
  187.6000  175.6190  140.5330 C   0  0  0  0  0  2  0  0  0  0  0  0
  1 19  1  6  0  0  0
  1 10  1  0  0  0  0
  3  2  1  0  0  0  0
  4 20  1  6  0  0  0
  4  5  1  0  0  0  0
  4 22  1  0  0  0  0
  5 15  1  1  0  0  0
  5 23  1  0  0  0  0
  6 32  1  6  0  0  0
  6 14  1  0  0  0  0
  8 21  1  1  0  0  0
  9  2  1  0  0  0  0
 10  7  1  1  0  0  0
 10 11  1  0  0  0  0
 11  9  1  1  0  0  0
 12 18  1  6  0  0  0
 12 17  1  0  0  0  0
 13  8  1  0  0  0  0
 14 25  1  0  0  0  0
 14  7  1  1  0  0  0
 15 13  1  0  0  0  0
 16  3  1  0  0  0  0
 17 11  1  0  0  0  0
 17 16  1  1  0  0  0
 19  6  1  0  0  0  0
 22  1  1  0  0  0  0
 22 12  1  0  0  0  0
 23 18  1  0  0  0  0
 23  8  1  0  0  0  0
 25 24  1  0  0  0  0
 26 25  1  0  0  0  0
 26 24  1  0  0  0  0
 27 26  1  0  0  0  0
 28 27  1  0  0  0  0
 29 28  1  0  0  0  0
 30 28  2  0  0  0  0
 31 32  1  0  0  0  0
M  END
>  <MODEL>
5

>  <REMARK>
 VINA RESULT:      -7.4      1.977      4.467
  Name = 
  3 active torsions:
  status: ('A' for Active; 'I' for Inactive)
    1  A    between atoms: C_7  and  C_19
    2  A    between atoms: C_10  and  C_17
    3  A    between atoms: C_20  and  N_29
                            x       y       z     vdW  Elec       q    Type
                         _______ _______ _______ _____ _____    ______ ____

>  <TORSDO>
F 3

$$$$
=
 OpenBabel11112416433D

 32 37  0  0  1  0  0  0  0  0999 V2000
  189.9660  174.9710  142.7570 C   0  0  1  0  0  3  0  0  0  0  0  0
  185.8700  177.6120  141.4540 C   0  0  0  0  0  2  0  0  0  0  0  0
  186.3020  178.7360  142.3940 C   0  0  0  0  0  2  0  0  0  0  0  0
  191.3050  175.6840  144.7950 C   0  0  2  0  0  3  0  0  0  0  0  0
  190.7480  175.9500  146.2020 C   0  0  2  0  0  3  0  0  0  0  0  0
  190.6860  173.2470  141.4540 C   0  0  2  0  0  3  0  0  0  0  0  0
  188.6500  174.3900  140.8320 O   0  0  0  0  0  0  0  0  0  0  0  0
  188.7420  176.9070  147.2110 C   0  0  2  0  0  3  0  0  0  0  0  0
  187.0930  176.8580  140.9350 C   0  0  0  0  0  2  0  0  0  0  0  0
  189.0970  175.4890  141.5890 C   0  0  1  0  0  3  0  0  0  0  0  0
  187.8920  176.2850  142.1050 C   0  0  1  0  0  3  0  0  0  0  0  0
  189.1440  176.8490  144.1960 C   0  0  2  0  0  3  0  0  0  0  0  0
  188.4950  175.4270  147.0120 C   0  0  0  0  0  2  0  0  0  0  0  0
  189.7840  173.7430  140.2990 C   0  0  2  0  0  3  0  0  0  0  0  0
  189.8370  174.8150  146.6490 C   0  0  0  0  0  2  0  0  0  0  0  0
  187.1060  178.1680  143.5600 C   0  0  0  0  0  2  0  0  0  0  0  0
  188.3360  177.4260  143.0380 C   0  0  2  0  0  3  0  0  0  0  0  0
  189.5540  177.8530  145.0910 O   0  0  0  0  0  0  0  0  0  0  0  0
  191.1110  174.3450  142.2290 O   0  0  0  0  0  0  0  0  0  0  0  0
  192.5420  176.3140  144.6590 O   0  0  0  0  0  1  0  0  0  0  0  0
  187.6040  177.6430  146.8730 O   0  0  0  0  0  1  0  0  0  0  0  0
  190.3800  176.1360  143.6560 C   0  0  2  0  0  3  0  0  0  0  0  0
  189.9330  177.2550  146.3250 C   0  0  2  0  0  3  0  0  0  0  0  0
  188.2490  173.0520  138.4650 C   0  0  0  0  0  2  0  0  0  0  0  0
  189.3190  172.5810  139.4300 C   0  0  1  0  0  3  0  0  0  0  0  0
  189.6710  172.8690  137.9820 C   0  0  1  0  0  3  0  0  0  0  0  0
  189.7760  171.6130  137.2600 N   0  0  0  0  0  2  0  0  0  0  0  0
  190.4160  171.5350  135.9880 C   0  0  0  0  0  0  0  0  0  0  0  0
  190.4950  170.4260  135.3970 O   0  0  0  0  0  1  0  0  0  0  0  0
  190.9510  172.6710  135.3940 O   0  0  0  0  0  0  0  0  0  0  0  0
  192.7190  173.4100  140.2140 O   0  0  0  0  0  1  0  0  0  0  0  0
  191.9130  172.5210  140.9220 C   0  0  0  0  0  2  0  0  0  0  0  0
  1 19  1  6  0  0  0
  1 22  1  0  0  0  0
  2  3  1  0  0  0  0
  3 16  1  0  0  0  0
  4 20  1  1  0  0  0
  4  5  1  0  0  0  0
  5 23  1  0  0  0  0
  5 15  1  6  0  0  0
  6 32  1  6  0  0  0
  6 19  1  0  0  0  0
  8 21  1  6  0  0  0
  9  2  1  0  0  0  0
 10  7  1  1  0  0  0
 10 11  1  0  0  0  0
 10  1  1  0  0  0  0
 11  9  1  6  0  0  0
 11 17  1  0  0  0  0
 12 18  1  1  0  0  0
 13  8  1  0  0  0  0
 14  7  1  1  0  0  0
 14  6  1  0  0  0  0
 15 13  1  0  0  0  0
 17 16  1  1  0  0  0
 17 12  1  0  0  0  0
 18 23  1  0  0  0  0
 22 12  1  0  0  0  0
 22  4  1  0  0  0  0
 23  8  1  0  0  0  0
 24 25  1  0  0  0  0
 25 14  1  0  0  0  0
 26 24  1  0  0  0  0
 26 25  1  0  0  0  0
 27 26  1  0  0  0  0
 28 27  1  0  0  0  0
 29 28  1  0  0  0  0
 30 28  2  0  0  0  0
 31 32  1  0  0  0  0
M  END
>  <MODEL>
6

>  <REMARK>
 VINA RESULT:      -7.3      3.603      6.616
  Name = 
  3 active torsions:
  status: ('A' for Active; 'I' for Inactive)
    1  A    between atoms: C_7  and  C_19
    2  A    between atoms: C_10  and  C_17
    3  A    between atoms: C_20  and  N_29
                            x       y       z     vdW  Elec       q    Type
                         _______ _______ _______ _____ _____    ______ ____

>  <TORSDO>
F 3

$$$$
=
 OpenBabel11112416433D

 32 37  0  0  1  0  0  0  0  0999 V2000
  190.9960  175.5310  144.0460 C   0  0  1  0  0  3  0  0  0  0  0  0
  190.1940  173.4150  139.5380 C   0  0  0  0  0  2  0  0  0  0  0  0
  191.3180  172.4180  139.8110 C   0  0  0  0  0  2  0  0  0  0  0  0
  193.1250  174.9760  145.3170 C   0  0  2  0  0  3  0  0  0  0  0  0
  194.5590  175.0570  144.7680 C   0  0  2  0  0  3  0  0  0  0  0  0
  189.4050  176.8570  144.9940 C   0  0  2  0  0  3  0  0  0  0  0  0
  189.0010  175.9740  142.7810 O   0  0  0  0  0  0  0  0  0  0  0  0
  195.7270  174.6360  142.6660 C   0  0  2  0  0  3  0  0  0  0  0  0
  189.5460  173.8540  140.8500 C   0  0  0  0  0  2  0  0  0  0  0  0
  189.9410  174.9660  143.0680 C   0  0  1  0  0  3  0  0  0  0  0  0
  190.5940  174.4840  141.7670 C   0  0  1  0  0  3  0  0  0  0  0  0
  192.7490  174.0970  142.9770 C   0  0  2  0  0  3  0  0  0  0  0  0
  195.2670  176.0780  142.6560 C   0  0  0  0  0  2  0  0  0  0  0  0
  188.3590  176.3220  143.9880 C   0  0  2  0  0  3  0  0  0  0  0  0
  194.7980  176.3870  144.0680 C   0  0  0  0  0  2  0  0  0  0  0  0
  192.3630  173.0410  140.7330 C   0  0  0  0  0  2  0  0  0  0  0  0
  191.7140  173.4670  142.0500 C   0  0  2  0  0  3  0  0  0  0  0  0
  193.8070  173.2110  143.2470 O   0  0  0  0  0  0  0  0  0  0  0  0
  190.3620  175.8570  145.2600 O   0  0  0  0  0  0  0  0  0  0  0  0
  193.1010  174.1370  146.4300 O   0  0  0  0  0  1  0  0  0  0  0  0
  195.5280  174.0500  141.4150 O   0  0  0  0  0  1  0  0  0  0  0  0
  192.0880  174.4910  144.2950 C   0  0  2  0  0  3  0  0  0  0  0  0
  194.9140  173.9460  143.7570 C   0  0  2  0  0  3  0  0  0  0  0  0
  186.4250  176.9170  142.5380 C   0  0  0  0  0  2  0  0  0  0  0  0
  187.2970  177.3730  143.6900 C   0  0  1  0  0  3  0  0  0  0  0  0
  185.9240  176.7870  143.9590 C   0  0  1  0  0  3  0  0  0  0  0  0
  184.9940  177.8650  144.2430 N   0  0  0  0  0  2  0  0  0  0  0  0
  184.4880  178.0900  145.5570 C   0  0  0  0  0  0  0  0  0  0  0  0
  183.6890  179.0400  145.7640 O   0  0  0  0  0  0  0  0  0  0  0  0
  184.8660  177.2670  146.6100 O   0  0  0  0  0  1  0  0  0  0  0  0
  188.1280  176.1620  146.8880 O   0  0  0  0  0  1  0  0  0  0  0  0
  188.7480  177.2650  146.3050 C   0  0  0  0  0  2  0  0  0  0  0  0
  1 22  1  0  0  0  0
  1 19  1  1  0  0  0
  2  3  1  0  0  0  0
  2  9  1  0  0  0  0
  3 16  1  0  0  0  0
  4 20  1  1  0  0  0
  5 15  1  6  0  0  0
  5  4  1  0  0  0  0
  6 19  1  0  0  0  0
  6 32  1  1  0  0  0
  8 21  1  6  0  0  0
  8 23  1  0  0  0  0
 10  7  1  6  0  0  0
 10  1  1  0  0  0  0
 11  9  1  6  0  0  0
 11 17  1  0  0  0  0
 11 10  1  0  0  0  0
 12 18  1  1  0  0  0
 12 22  1  0  0  0  0
 13  8  1  0  0  0  0
 13 15  1  0  0  0  0
 14  7  1  6  0  0  0
 14  6  1  0  0  0  0
 17 16  1  6  0  0  0
 17 12  1  0  0  0  0
 18 23  1  0  0  0  0
 22  4  1  0  0  0  0
 23  5  1  0  0  0  0
 24 25  1  0  0  0  0
 24 26  1  0  0  0  0
 25 26  1  0  0  0  0
 25 14  1  0  0  0  0
 26 27  1  0  0  0  0
 27 28  1  0  0  0  0
 28 29  2  0  0  0  0
 28 30  1  0  0  0  0
 32 31  1  0  0  0  0
M  END
>  <MODEL>
7

>  <REMARK>
 VINA RESULT:      -7.2      2.268      3.178
  Name = 
  3 active torsions:
  status: ('A' for Active; 'I' for Inactive)
    1  A    between atoms: C_7  and  C_19
    2  A    between atoms: C_10  and  C_17
    3  A    between atoms: C_20  and  N_29
                            x       y       z     vdW  Elec       q    Type
                         _______ _______ _______ _____ _____    ______ ____

>  <TORSDO>
F 3

$$$$
=
 OpenBabel11112416433D

 32 37  0  0  1  0  0  0  0  0999 V2000
  191.4530  175.3940  144.3860 C   0  0  1  0  0  3  0  0  0  0  0  0
  189.6730  171.9170  141.1940 C   0  0  0  0  0  2  0  0  0  0  0  0
  188.9010  173.0030  140.4490 C   0  0  0  0  0  2  0  0  0  0  0  0
  190.3850  177.6990  144.4330 C   0  0  2  0  0  3  0  0  0  0  0  0
  188.8850  178.0030  144.5770 C   0  0  2  0  0  3  0  0  0  0  0  0
  193.2830  174.9500  145.6670 C   0  0  2  0  0  3  0  0  0  0  0  0
  192.4150  173.1960  144.2500 O   0  0  0  0  0  0  0  0  0  0  0  0
  186.7600  177.0540  143.8420 C   0  0  2  0  0  3  0  0  0  0  0  0
  190.9290  172.5060  141.8330 C   0  0  0  0  0  2  0  0  0  0  0  0
  191.8040  174.1980  143.4730 C   0  0  1  0  0  3  0  0  0  0  0  0
  190.5510  173.6320  142.7940 C   0  0  1  0  0  3  0  0  0  0  0  0
  189.4240  175.8570  142.9930 C   0  0  2  0  0  3  0  0  0  0  0  0
  187.1150  176.4140  145.1670 C   0  0  0  0  0  2  0  0  0  0  0  0
  193.6100  173.7270  144.7780 C   0  0  2  0  0  3  0  0  0  0  0  0
  188.2790  177.2130  145.7280 C   0  0  0  0  0  2  0  0  0  0  0  0
  188.5270  174.1340  141.4040 C   0  0  0  0  0  2  0  0  0  0  0  0
  189.7870  174.7290  142.0310 C   0  0  2  0  0  3  0  0  0  0  0  0
  188.7030  176.8760  142.3450 O   0  0  0  0  0  0  0  0  0  0  0  0
  192.6460  175.9420  144.8950 O   0  0  0  0  0  0  0  0  0  0  0  0
  191.0310  178.8030  143.8780 O   0  0  0  0  0  1  0  0  0  0  0  0
  186.2450  176.1010  142.9600 O   0  0  0  0  0  1  0  0  0  0  0  0
  190.6960  176.4550  143.5880 C   0  0  2  0  0  3  0  0  0  0  0  0
  188.0490  177.6790  143.3200 C   0  0  2  0  0  3  0  0  0  0  0  0
  193.9420  171.2740  145.0390 C   0  0  0  0  0  2  0  0  0  0  0  0
  194.3160  172.6400  145.5790 C   0  0  1  0  0  3  0  0  0  0  0  0
  195.2730  171.8920  144.6690 C   0  0  1  0  0  3  0  0  0  0  0  0
  196.3220  171.2920  145.4740 N   0  0  0  0  0  2  0  0  0  0  0  0
  197.0170  170.1230  145.0450 C   0  0  0  0  0  0  0  0  0  0  0  0
  197.9270  169.6380  145.7670 O   0  0  0  0  0  1  0  0  0  0  0  0
  196.6970  169.5130  143.8380 O   0  0  0  0  0  0  0  0  0  0  0  0
  194.3030  176.8480  146.6960 O   0  0  0  0  0  1  0  0  0  0  0  0
  194.5460  175.5410  146.2760 C   0  0  0  0  0  2  0  0  0  0  0  0
  1 19  1  6  0  0  0
  2  9  1  0  0  0  0
  3  2  1  0  0  0  0
  3 16  1  0  0  0  0
  4 20  1  6  0  0  0
  4  5  1  0  0  0  0
  5 15  1  1  0  0  0
  6 32  1  6  0  0  0
  8 21  1  6  0  0  0
  8 13  1  0  0  0  0
 10  7  1  1  0  0  0
 10  1  1  0  0  0  0
 11  9  1  6  0  0  0
 11 10  1  0  0  0  0
 12 18  1  6  0  0  0
 12 22  1  0  0  0  0
 13 15  1  0  0  0  0
 14  7  1  1  0  0  0
 14 25  1  0  0  0  0
 14  6  1  0  0  0  0
 17 16  1  1  0  0  0
 17 11  1  0  0  0  0
 17 12  1  0  0  0  0
 18 23  1  0  0  0  0
 19  6  1  0  0  0  0
 22  1  1  0  0  0  0
 22  4  1  0  0  0  0
 23  8  1  0  0  0  0
 23  5  1  0  0  0  0
 24 25  1  0  0  0  0
 26 24  1  0  0  0  0
 26 27  1  0  0  0  0
 26 25  1  0  0  0  0
 28 27  1  0  0  0  0
 28 29  1  0  0  0  0
 30 28  2  0  0  0  0
 32 31  1  0  0  0  0
M  END
>  <MODEL>
8

>  <REMARK>
 VINA RESULT:      -7.2      3.812      8.512
  Name = 
  3 active torsions:
  status: ('A' for Active; 'I' for Inactive)
    1  A    between atoms: C_7  and  C_19
    2  A    between atoms: C_10  and  C_17
    3  A    between atoms: C_20  and  N_29
                            x       y       z     vdW  Elec       q    Type
                         _______ _______ _______ _____ _____    ______ ____

>  <TORSDO>
F 3

$$$$
=
 OpenBabel11112416433D

 32 37  0  0  1  0  0  0  0  0999 V2000
  188.5520  176.1810  144.7570 C   0  0  1  0  0  3  0  0  0  0  0  0
  186.0390  177.3330  140.5380 C   0  0  0  0  0  2  0  0  0  0  0  0
  185.6110  178.6600  141.1610 C   0  0  0  0  0  2  0  0  0  0  0  0
  188.1310  177.5380  146.8630 C   0  0  2  0  0  3  0  0  0  0  0  0
  186.7610  177.8430  147.4890 C   0  0  2  0  0  3  0  0  0  0  0  0
  190.1490  174.5560  144.7380 C   0  0  2  0  0  3  0  0  0  0  0  0
  188.9030  174.9710  142.7100 O   0  0  0  0  0  0  0  0  0  0  0  0
  184.4890  178.3340  146.7410 C   0  0  2  0  0  3  0  0  0  0  0  0
  187.3810  176.8870  141.1150 C   0  0  0  0  0  2  0  0  0  0  0  0
  188.6090  176.2530  143.2150 C   0  0  1  0  0  3  0  0  0  0  0  0
  187.2770  176.7430  142.6330 C   0  0  1  0  0  3  0  0  0  0  0  0
  186.7730  177.9430  144.7700 C   0  0  2  0  0  3  0  0  0  0  0  0
  184.6120  176.8320  146.8840 C   0  0  0  0  0  2  0  0  0  0  0  0
  190.1740  174.5990  143.1920 C   0  0  2  0  0  3  0  0  0  0  0  0
  185.9230  176.5770  147.6070 C   0  0  0  0  0  2  0  0  0  0  0  0
  185.5130  178.5230  142.6780 C   0  0  0  0  0  2  0  0  0  0  0  0
  186.8610  178.0890  143.2540 C   0  0  2  0  0  3  0  0  0  0  0  0
  186.3720  179.1440  145.3820 O   0  0  0  0  0  0  0  0  0  0  0  0
  189.8270  175.8320  145.2430 O   0  0  0  0  0  0  0  0  0  0  0  0
  189.0670  178.4650  147.3220 O   0  0  0  0  0  1  0  0  0  0  0  0
  183.7750  178.6610  145.5870 O   0  0  0  0  0  1  0  0  0  0  0  0
  188.1340  177.5360  145.3280 C   0  0  2  0  0  3  0  0  0  0  0  0
  185.9170  178.8680  146.7010 C   0  0  2  0  0  3  0  0  0  0  0  0
  190.1660  173.1850  141.1430 C   0  0  0  0  0  2  0  0  0  0  0  0
  190.5360  173.2370  142.6120 C   0  0  1  0  0  3  0  0  0  0  0  0
  191.6050  173.4150  141.5500 C   0  0  1  0  0  3  0  0  0  0  0  0
  192.3480  172.1750  141.4120 N   0  0  0  0  0  2  0  0  0  0  0  0
  193.7570  172.1200  141.6270 C   0  0  0  0  0  0  0  0  0  0  0  0
  194.3640  171.0240  141.5060 O   0  0  0  0  0  0  0  0  0  0  0  0
  194.4650  173.2660  141.9670 O   0  0  0  0  0  1  0  0  0  0  0  0
  191.8540  174.9700  146.3580 O   0  0  0  0  0  1  0  0  0  0  0  0
  191.4990  174.1350  145.3000 C   0  0  0  0  0  2  0  0  0  0  0  0
  1 19  1  1  0  0  0
  1 22  1  0  0  0  0
  2  9  1  0  0  0  0
  2  3  1  0  0  0  0
  3 16  1  0  0  0  0
  4 20  1  6  0  0  0
  4  5  1  0  0  0  0
  5 15  1  6  0  0  0
  6 19  1  0  0  0  0
  6 32  1  1  0  0  0
  8 21  1  6  0  0  0
  8 13  1  0  0  0  0
 10  7  1  6  0  0  0
 10  1  1  0  0  0  0
 11  9  1  6  0  0  0
 11 10  1  0  0  0  0
 11 17  1  0  0  0  0
 12 22  1  0  0  0  0
 12 18  1  1  0  0  0
 13 15  1  0  0  0  0
 14  7  1  6  0  0  0
 14  6  1  0  0  0  0
 17 16  1  6  0  0  0
 17 12  1  0  0  0  0
 18 23  1  0  0  0  0
 22  4  1  0  0  0  0
 23  8  1  0  0  0  0
 23  5  1  0  0  0  0
 24 26  1  0  0  0  0
 24 25  1  0  0  0  0
 25 14  1  0  0  0  0
 26 25  1  0  0  0  0
 27 26  1  0  0  0  0
 27 28  1  0  0  0  0
 28 30  1  0  0  0  0
 29 28  2  0  0  0  0
 32 31  1  0  0  0  0
M  END
>  <MODEL>
9

>  <REMARK>
 VINA RESULT:      -7.1      2.964      7.323
  Name = 
  3 active torsions:
  status: ('A' for Active; 'I' for Inactive)
    1  A    between atoms: C_7  and  C_19
    2  A    between atoms: C_10  and  C_17
    3  A    between atoms: C_20  and  N_29
                            x       y       z     vdW  Elec       q    Type
                         _______ _______ _______ _____ _____    ______ ____

>  <TORSDO>
F 3

$$$$
