=
 OpenBabel11112416313D

 32 37  0  0  1  0  0  0  0  0999 V2000
  192.4500  171.7330  142.0910 C   0  0  0  0  0  2  0  0  0  0  0  0
  189.7810  176.7100  142.8250 C   0  0  1  0  0  3  0  0  0  0  0  0
  191.9360  175.5770  146.9730 C   0  0  0  0  0  2  0  0  0  0  0  0
  190.8630  176.2630  147.8140 C   0  0  0  0  0  2  0  0  0  0  0  0
  187.4580  177.7400  142.8100 C   0  0  0  0  0  0  0  0  0  0  0  0
  186.3960  178.2670  143.5420 C   0  0  0  0  0  0  0  0  0  0  0  0
  190.6550  174.5990  141.8180 C   0  0  1  0  0  3  0  0  0  0  0  0
  192.1450  176.2770  142.8920 C   0  0  0  0  0  2  0  0  0  0  0  0
  185.2320  178.9980  145.4420 C   0  0  1  0  0  3  0  0  0  0  0  0
  193.1410  174.1580  142.0030 C   0  0  0  0  0  2  0  0  0  0  0  0
  192.1020  176.3230  145.6520 C   0  0  0  0  0  2  0  0  0  0  0  0
  191.0160  176.8940  143.6220 N   0  0  2  0  0  0  0  0  0  0  0  0
  190.8350  176.2990  144.9050 N   0  0  2  0  0  0  0  0  0  0  0  0
  188.6350  177.4570  144.9300 C   0  0  0  0  0  0  0  0  0  0  0  0
  184.3830  179.2350  144.1720 C   0  0  0  0  0  3  0  0  0  0  0  0
  190.7690  171.9560  142.7630 S   0  0  0  0  0  0  0  0  0  0  0  0
  191.9210  174.7850  142.6560 C   0  0  2  0  0  3  0  0  0  0  0  0
  185.1710  178.7550  143.0340 N   0  0  0  0  0  0  0  0  0  0  0  0
  190.3410  173.1460  141.4480 C   0  0  0  0  0  2  0  0  0  0  0  0
  193.4120  172.7940  142.6240 C   0  0  2  0  0  3  0  0  0  0  0  0
  189.5770  176.4300  147.0100 C   0  0  0  0  0  2  0  0  0  0  0  0
  189.8950  177.1310  145.6870 C   0  0  1  0  0  3  0  0  0  0  0  0
  187.5690  178.0060  145.5870 N   0  0  0  0  0  0  0  0  0  0  0  0
  189.4810  175.2290  142.5470 C   0  0  0  0  0  2  0  0  0  0  0  0
  187.3690  177.6270  141.3230 C   0  0  0  0  0  1  0  0  0  0  0  0
  184.5200  178.0140  146.3500 C   0  0  0  0  0  1  0  0  0  0  0  0
  188.6080  177.3310  143.5210 C   0  0  0  0  0  0  0  0  0  0  0  0
  186.4660  178.3840  144.8950 C   0  0  0  0  0  0  0  0  0  0  0  0
  194.7810  172.4020  142.3260 N   0  0  0  0  0  2  0  0  0  0  0  0
  195.8650  172.6440  143.2240 C   0  0  0  0  0  0  0  0  0  0  0  0
  195.6730  173.2390  144.3180 O   0  0  0  0  0  0  0  0  0  0  0  0
  197.2340  172.1940  142.8630 C   0  0  0  0  0  1  0  0  0  0  0  0
  1 20  1  0  0  0  0
  1 16  1  0  0  0  0
  2 24  1  1  0  0  0
  2 27  1  0  0  0  0
  2 12  1  0  0  0  0
  3  4  1  0  0  0  0
  5 27  2  0  0  0  0
  5  6  1  0  0  0  0
  6 28  2  0  0  0  0
  7 19  1  1  0  0  0
  7 24  1  0  0  0  0
  7 17  1  0  0  0  0
  9 26  1  1  0  0  0
 10 20  1  0  0  0  0
 11  3  1  0  0  0  0
 12  8  1  6  0  0  0
 12 13  1  0  0  0  0
 13 11  1  1  0  0  0
 13 22  1  0  0  0  0
 14 23  2  0  0  0  0
 14 22  1  0  0  0  0
 15  9  1  0  0  0  0
 17 10  1  6  0  0  0
 17  8  1  0  0  0  0
 18  6  1  0  0  0  0
 18 15  2  0  0  0  0
 19 16  1  0  0  0  0
 20 29  1  6  0  0  0
 21  4  1  0  0  0  0
 22 21  1  1  0  0  0
 25  5  1  0  0  0  0
 27 14  1  0  0  0  0
 28  9  1  0  0  0  0
 28 23  1  0  0  0  0
 29 30  1  0  0  0  0
 30 31  2  0  0  0  0
 32 30  1  0  0  0  0
M  END
>  <MODEL>
1

>  <REMARK>
 VINA RESULT:      -8.7      0.000      0.000
  Name = 
  1 active torsions:
  status: ('A' for Active; 'I' for Inactive)
    1  A    between atoms: C_20  and  N_29
                            x       y       z     vdW  Elec       q    Type
                         _______ _______ _______ _____ _____    ______ ____

>  <TORSDO>
F 1

$$$$
=
 OpenBabel11112416313D

 32 37  0  0  1  0  0  0  0  0999 V2000
  186.7640  177.2420  146.2330 C   0  0  0  0  0  2  0  0  0  0  0  0
  191.9970  175.8640  144.4590 C   0  0  1  0  0  3  0  0  0  0  0  0
  188.9250  172.6720  142.5840 C   0  0  0  0  0  2  0  0  0  0  0  0
  189.9540  171.5450  142.6070 C   0  0  0  0  0  2  0  0  0  0  0  0
  194.2620  175.1210  145.3400 C   0  0  0  0  0  0  0  0  0  0  0  0
  195.1890  174.0910  145.4930 C   0  0  0  0  0  0  0  0  0  0  0  0
  190.0860  177.0100  145.5850 C   0  0  1  0  0  3  0  0  0  0  0  0
  190.1330  176.6000  143.1310 C   0  0  0  0  0  2  0  0  0  0  0  0
  196.0940  171.9430  145.2440 C   0  0  1  0  0  3  0  0  0  0  0  0
  188.1130  177.6790  144.1470 C   0  0  0  0  0  2  0  0  0  0  0  0
  189.6340  174.0030  142.3430 C   0  0  0  0  0  2  0  0  0  0  0  0
  191.1690  175.5540  143.2700 N   0  0  2  0  0  0  0  0  0  0  0  0
  190.5900  174.2610  143.4300 N   0  0  2  0  0  0  0  0  0  0  0  0
  192.8610  173.5300  144.1300 C   0  0  0  0  0  0  0  0  0  0  0  0
  197.0760  172.8490  146.0210 C   0  0  0  0  0  3  0  0  0  0  0  0
  187.8810  176.0410  147.0300 S   0  0  0  0  0  0  0  0  0  0  0  0
  189.2310  176.6730  144.3620 C   0  0  2  0  0  3  0  0  0  0  0  0
  196.4440  174.1660  146.1380 N   0  0  0  0  0  0  0  0  0  0  0  0
  189.2990  177.1790  146.8880 C   0  0  0  0  0  2  0  0  0  0  0  0
  186.8100  177.1270  144.7100 C   0  0  2  0  0  3  0  0  0  0  0  0
  191.0740  171.8600  143.5940 C   0  0  0  0  0  2  0  0  0  0  0  0
  191.6510  173.2420  143.2800 C   0  0  1  0  0  3  0  0  0  0  0  0
  193.8210  172.5710  144.2920 N   0  0  0  0  0  0  0  0  0  0  0  0
  191.1620  175.9510  145.7450 C   0  0  0  0  0  2  0  0  0  0  0  0
  194.5390  176.4770  145.9000 C   0  0  0  0  0  1  0  0  0  0  0  0
  195.6500  170.7990  146.1360 C   0  0  0  0  0  1  0  0  0  0  0  0
  193.0720  174.8340  144.6350 C   0  0  0  0  0  0  0  0  0  0  0  0
  194.9540  172.8550  144.9810 C   0  0  0  0  0  0  0  0  0  0  0  0
  185.6950  177.8620  144.1330 N   0  0  0  0  0  2  0  0  0  0  0  0
  185.2300  177.6360  142.8020 C   0  0  0  0  0  0  0  0  0  0  0  0
  185.7940  176.7910  142.0580 O   0  0  0  0  0  0  0  0  0  0  0  0
  184.0690  178.4080  142.2880 C   0  0  0  0  0  1  0  0  0  0  0  0
  1 16  1  0  0  0  0
  2 27  1  0  0  0  0
  2 24  1  1  0  0  0
  3  4  1  0  0  0  0
  4 21  1  0  0  0  0
  5  6  1  0  0  0  0
  5 25  1  0  0  0  0
  6 18  1  0  0  0  0
  7 24  1  1  0  0  0
  7 19  1  0  0  0  0
  9 15  1  0  0  0  0
  9 26  1  1  0  0  0
 10 17  1  0  0  0  0
 10 20  1  0  0  0  0
 11  3  1  0  0  0  0
 12  8  1  1  0  0  0
 12 13  1  0  0  0  0
 12  2  1  0  0  0  0
 13 11  1  6  0  0  0
 14 23  2  0  0  0  0
 14 27  1  0  0  0  0
 15 18  2  0  0  0  0
 17  8  1  6  0  0  0
 17  7  1  0  0  0  0
 19 16  1  0  0  0  0
 20 29  1  6  0  0  0
 20  1  1  0  0  0  0
 22 13  1  0  0  0  0
 22 21  1  1  0  0  0
 22 14  1  0  0  0  0
 23 28  1  0  0  0  0
 27  5  2  0  0  0  0
 28  9  1  0  0  0  0
 28  6  2  0  0  0  0
 30 29  1  0  0  0  0
 31 30  2  0  0  0  0
 32 30  1  0  0  0  0
M  END
>  <MODEL>
2

>  <REMARK>
 VINA RESULT:      -8.5      2.984      8.422
  Name = 
  1 active torsions:
  status: ('A' for Active; 'I' for Inactive)
    1  A    between atoms: C_20  and  N_29
                            x       y       z     vdW  Elec       q    Type
                         _______ _______ _______ _____ _____    ______ ____

>  <TORSDO>
F 1

$$$$
=
 OpenBabel11112416313D

 32 37  0  0  1  0  0  0  0  0999 V2000
  195.0830  175.3880  144.9250 C   0  0  0  0  0  2  0  0  0  0  0  0
  189.3890  175.3930  145.0670 C   0  0  1  0  0  3  0  0  0  0  0  0
  190.7580  172.8710  141.2060 C   0  0  0  0  0  2  0  0  0  0  0  0
  189.5260  173.2780  140.4010 C   0  0  0  0  0  2  0  0  0  0  0  0
  187.4000  176.9700  144.9480 C   0  0  0  0  0  0  0  0  0  0  0  0
  186.3290  177.4640  144.2060 C   0  0  0  0  0  0  0  0  0  0  0  0
  191.7890  175.8050  145.6220 C   0  0  1  0  0  3  0  0  0  0  0  0
  190.8720  173.5140  145.3000 C   0  0  0  0  0  2  0  0  0  0  0  0
  184.8540  177.6390  142.3920 C   0  0  1  0  0  3  0  0  0  0  0  0
  193.3180  173.7920  145.7630 C   0  0  0  0  0  2  0  0  0  0  0  0
  190.3900  172.7750  142.6850 C   0  0  0  0  0  2  0  0  0  0  0  0
  189.6920  174.0290  144.5720 N   0  0  2  0  0  0  0  0  0  0  0  0
  189.9260  174.0850  143.1670 N   0  0  2  0  0  0  0  0  0  0  0  0
  187.8780  175.4910  143.0650 C   0  0  0  0  0  0  0  0  0  0  0  0
  184.4410  178.6220  143.5120 C   0  0  0  0  0  3  0  0  0  0  0  0
  193.9930  176.5620  144.0530 S   0  0  0  0  0  0  0  0  0  0  0  0
  192.0970  174.4030  145.0950 C   0  0  2  0  0  3  0  0  0  0  0  0
  185.4050  178.4560  144.6030 N   0  0  0  0  0  0  0  0  0  0  0  0
  192.9580  176.7910  145.5380 C   0  0  0  0  0  2  0  0  0  0  0  0
  194.5350  173.9630  144.8630 C   0  0  2  0  0  3  0  0  0  0  0  0
  188.8960  174.5400  140.9850 C   0  0  0  0  0  2  0  0  0  0  0  0
  188.6410  174.3310  142.4800 C   0  0  1  0  0  3  0  0  0  0  0  0
  186.7980  175.9990  142.4000 N   0  0  0  0  0  0  0  0  0  0  0  0
  190.5760  176.3530  144.8920 C   0  0  0  0  0  2  0  0  0  0  0  0
  187.6830  177.5020  146.3140 C   0  0  0  0  0  1  0  0  0  0  0  0
  185.2330  178.4220  141.1490 C   0  0  0  0  0  1  0  0  0  0  0  0
  188.1900  175.9530  144.3650 C   0  0  0  0  0  0  0  0  0  0  0  0
  186.0540  176.9830  142.9650 C   0  0  0  0  0  0  0  0  0  0  0  0
  195.5680  173.0280  145.2810 N   0  0  0  0  0  2  0  0  0  0  0  0
  196.4810  172.4260  144.3610 C   0  0  0  0  0  0  0  0  0  0  0  0
  196.4070  172.6720  143.1280 O   0  0  0  0  0  0  0  0  0  0  0  0
  197.5250  171.4970  144.8640 C   0  0  0  0  0  1  0  0  0  0  0  0
  2 24  1  6  0  0  0
  3 11  1  0  0  0  0
  4 21  1  0  0  0  0
  4  3  1  0  0  0  0
  5 25  1  0  0  0  0
  6 18  1  0  0  0  0
  6  5  2  0  0  0  0
  7 24  1  6  0  0  0
  9 26  1  6  0  0  0
  9 28  1  0  0  0  0
  9 15  1  0  0  0  0
 12  2  1  0  0  0  0
 12  8  1  1  0  0  0
 13 11  1  6  0  0  0
 13 12  1  0  0  0  0
 14 27  2  0  0  0  0
 15 18  2  0  0  0  0
 16  1  1  0  0  0  0
 16 19  1  0  0  0  0
 17  8  1  1  0  0  0
 17  7  1  0  0  0  0
 17 10  1  0  0  0  0
 19  7  1  0  0  0  0
 20  1  1  0  0  0  0
 20 29  1  1  0  0  0
 20 10  1  0  0  0  0
 22 21  1  6  0  0  0
 22 14  1  0  0  0  0
 22 13  1  0  0  0  0
 23 28  2  0  0  0  0
 23 14  1  0  0  0  0
 27  5  1  0  0  0  0
 27  2  1  0  0  0  0
 28  6  1  0  0  0  0
 30 32  1  0  0  0  0
 30 29  1  0  0  0  0
 31 30  2  0  0  0  0
M  END
>  <MODEL>
3

>  <REMARK>
 VINA RESULT:      -8.1      2.237      3.987
  Name = 
  1 active torsions:
  status: ('A' for Active; 'I' for Inactive)
    1  A    between atoms: C_20  and  N_29
                            x       y       z     vdW  Elec       q    Type
                         _______ _______ _______ _____ _____    ______ ____

>  <TORSDO>
F 1

$$$$
=
 OpenBabel11112416313D

 32 37  0  0  1  0  0  0  0  0999 V2000
  195.2900  174.7780  142.1000 C   0  0  0  0  0  2  0  0  0  0  0  0
  190.1340  174.9430  144.5130 C   0  0  1  0  0  3  0  0  0  0  0  0
  189.5480  173.7910  139.8790 C   0  0  0  0  0  2  0  0  0  0  0  0
  188.1920  174.4860  139.7930 C   0  0  0  0  0  2  0  0  0  0  0  0
  188.5290  176.5420  145.6640 C   0  0  0  0  0  0  0  0  0  0  0  0
  187.3570  177.2920  145.5930 C   0  0  0  0  0  0  0  0  0  0  0  0
  192.6020  175.0600  144.1500 C   0  0  1  0  0  3  0  0  0  0  0  0
  191.2680  173.0400  143.5760 C   0  0  0  0  0  2  0  0  0  0  0  0
  185.3680  178.1110  144.6600 C   0  0  1  0  0  3  0  0  0  0  0  0
  193.7210  173.0600  143.0760 C   0  0  0  0  0  2  0  0  0  0  0  0
  189.7410  173.2250  141.2840 C   0  0  0  0  0  2  0  0  0  0  0  0
  190.0040  173.8100  143.5680 N   0  0  2  0  0  0  0  0  0  0  0  0
  189.7090  174.3180  142.2690 N   0  0  2  0  0  0  0  0  0  0  0  0
  188.0290  175.7520  143.4090 C   0  0  0  0  0  0  0  0  0  0  0  0
  185.5650  178.6820  146.0830 C   0  0  0  0  0  3  0  0  0  0  0  0
  194.1650  176.2130  142.1200 S   0  0  0  0  0  0  0  0  0  0  0  0
  192.4590  173.9010  143.1620 C   0  0  2  0  0  3  0  0  0  0  0  0
  186.8210  178.1300  146.5970 N   0  0  0  0  0  0  0  0  0  0  0  0
  193.8030  175.9750  143.8920 C   0  0  0  0  0  2  0  0  0  0  0  0
  194.5320  173.4750  141.8550 C   0  0  2  0  0  3  0  0  0  0  0  0
  188.0380  175.5060  140.9170 C   0  0  0  0  0  2  0  0  0  0  0  0
  188.3210  174.8240  142.2590 C   0  0  1  0  0  3  0  0  0  0  0  0
  186.8800  176.4910  143.4120 N   0  0  0  0  0  0  0  0  0  0  0  0
  191.3130  175.8630  144.1610 C   0  0  0  0  0  2  0  0  0  0  0  0
  189.3790  176.5820  146.8920 C   0  0  0  0  0  1  0  0  0  0  0  0
  185.3860  179.2460  143.6540 C   0  0  0  0  0  1  0  0  0  0  0  0
  188.8700  175.7470  144.5460 C   0  0  0  0  0  0  0  0  0  0  0  0
  186.5690  177.2590  144.4860 C   0  0  0  0  0  0  0  0  0  0  0  0
  195.4770  172.4160  141.5320 N   0  0  0  0  0  2  0  0  0  0  0  0
  195.5740  171.8410  140.2280 C   0  0  0  0  0  0  0  0  0  0  0  0
  194.8130  172.2210  139.2990 O   0  0  0  0  0  0  0  0  0  0  0  0
  196.5790  170.7790  139.9660 C   0  0  0  0  0  1  0  0  0  0  0  0
  1 16  1  0  0  0  0
  2 24  1  6  0  0  0
  2 27  1  0  0  0  0
  3 11  1  0  0  0  0
  4  3  1  0  0  0  0
  4 21  1  0  0  0  0
  5 25  1  0  0  0  0
  6  5  1  0  0  0  0
  6 18  1  0  0  0  0
  7 19  1  6  0  0  0
  7 24  1  0  0  0  0
  9 26  1  6  0  0  0
  9 15  1  0  0  0  0
 12  8  1  6  0  0  0
 12  2  1  0  0  0  0
 13 11  1  6  0  0  0
 13 12  1  0  0  0  0
 14 23  2  0  0  0  0
 14 27  1  0  0  0  0
 15 18  2  0  0  0  0
 16 19  1  0  0  0  0
 17 10  1  1  0  0  0
 17  8  1  0  0  0  0
 17  7  1  0  0  0  0
 20 29  1  1  0  0  0
 20  1  1  0  0  0  0
 20 10  1  0  0  0  0
 22 21  1  6  0  0  0
 22 13  1  0  0  0  0
 22 14  1  0  0  0  0
 23 28  1  0  0  0  0
 27  5  2  0  0  0  0
 28  9  1  0  0  0  0
 28  6  2  0  0  0  0
 30 29  1  0  0  0  0
 31 30  2  0  0  0  0
 32 30  1  0  0  0  0
M  END
>  <MODEL>
4

>  <REMARK>
 VINA RESULT:      -7.3      2.285      4.015
  Name = 
  1 active torsions:
  status: ('A' for Active; 'I' for Inactive)
    1  A    between atoms: C_20  and  N_29
                            x       y       z     vdW  Elec       q    Type
                         _______ _______ _______ _____ _____    ______ ____

>  <TORSDO>
F 1

$$$$
=
 OpenBabel11112416313D

 32 37  0  0  1  0  0  0  0  0999 V2000
  187.5640  177.9160  143.2310 C   0  0  0  0  0  2  0  0  0  0  0  0
  191.3360  173.6570  143.4900 C   0  0  1  0  0  3  0  0  0  0  0  0
  192.4250  176.7930  146.9700 C   0  0  0  0  0  2  0  0  0  0  0  0
  193.9190  176.4920  146.8880 C   0  0  0  0  0  2  0  0  0  0  0  0
  193.1690  172.5420  142.1290 C   0  0  0  0  0  0  0  0  0  0  0  0
  194.5330  172.3300  141.9360 C   0  0  0  0  0  0  0  0  0  0  0  0
  189.4270  175.1140  142.8030 C   0  0  1  0  0  3  0  0  0  0  0  0
  189.6910  174.2770  145.1310 C   0  0  0  0  0  2  0  0  0  0  0  0
  196.8290  172.4800  142.3880 C   0  0  1  0  0  3  0  0  0  0  0  0
  187.7820  175.8060  144.5970 C   0  0  0  0  0  2  0  0  0  0  0  0
  191.6320  175.5310  146.6410 C   0  0  0  0  0  2  0  0  0  0  0  0
  191.1250  173.9790  144.9200 N   0  0  2  0  0  0  0  0  0  0  0  0
  191.9480  175.0890  145.2730 N   0  0  2  0  0  0  0  0  0  0  0  0
  193.7660  173.8910  144.0740 C   0  0  0  0  0  0  0  0  0  0  0  0
  196.5870  171.6000  141.1410 C   0  0  0  0  0  3  0  0  0  0  0  0
  189.2020  177.8890  142.4300 S   0  0  0  0  0  0  0  0  0  0  0  0
  189.2250  175.4560  144.2800 C   0  0  2  0  0  3  0  0  0  0  0  0
  195.1390  171.5550  140.9220 N   0  0  0  0  0  0  0  0  0  0  0  0
  188.9400  176.1880  141.8260 C   0  0  0  0  0  2  0  0  0  0  0  0
  187.6170  177.3200  144.6370 C   0  0  2  0  0  3  0  0  0  0  0  0
  194.2650  175.8540  145.5450 C   0  0  0  0  0  2  0  0  0  0  0  0
  193.3570  174.6440  145.3120 C   0  0  1  0  0  3  0  0  0  0  0  0
  195.0870  173.6250  143.8450 N   0  0  0  0  0  0  0  0  0  0  0  0
  190.8940  174.8000  142.5630 C   0  0  0  0  0  2  0  0  0  0  0  0
  192.1710  171.9330  141.1990 C   0  0  0  0  0  1  0  0  0  0  0  0
  197.6260  173.7080  141.9930 C   0  0  0  0  0  1  0  0  0  0  0  0
  192.7760  173.3370  143.2290 C   0  0  0  0  0  0  0  0  0  0  0  0
  195.4530  172.8700  142.7790 C   0  0  0  0  0  0  0  0  0  0  0  0
  186.3910  177.6450  145.3490 N   0  0  0  0  0  2  0  0  0  0  0  0
  186.3670  177.9450  146.7460 C   0  0  0  0  0  0  0  0  0  0  0  0
  187.4250  177.9160  147.4280 O   0  0  0  0  0  0  0  0  0  0  0  0
  185.0790  178.2910  147.4010 C   0  0  0  0  0  1  0  0  0  0  0  0
  1 20  1  0  0  0  0
  2 24  1  6  0  0  0
  2 12  1  0  0  0  0
  4  3  1  0  0  0  0
  5 27  1  0  0  0  0
  6  5  2  0  0  0  0
  6 28  1  0  0  0  0
  7 19  1  6  0  0  0
  7 17  1  0  0  0  0
  9 26  1  6  0  0  0
  9 28  1  0  0  0  0
 10 20  1  0  0  0  0
 11  3  1  0  0  0  0
 12  8  1  6  0  0  0
 12 13  1  0  0  0  0
 13 22  1  0  0  0  0
 13 11  1  1  0  0  0
 14 22  1  0  0  0  0
 15  9  1  0  0  0  0
 16  1  1  0  0  0  0
 17 10  1  6  0  0  0
 17  8  1  0  0  0  0
 18 15  2  0  0  0  0
 18  6  1  0  0  0  0
 19 16  1  0  0  0  0
 20 29  1  6  0  0  0
 21  4  1  0  0  0  0
 22 21  1  6  0  0  0
 23 14  1  0  0  0  0
 24  7  1  0  0  0  0
 25  5  1  0  0  0  0
 27  2  1  0  0  0  0
 27 14  2  0  0  0  0
 28 23  2  0  0  0  0
 29 30  1  0  0  0  0
 30 32  1  0  0  0  0
 30 31  2  0  0  0  0
M  END
>  <MODEL>
5

>  <REMARK>
 VINA RESULT:      -6.9      2.616      8.137
  Name = 
  1 active torsions:
  status: ('A' for Active; 'I' for Inactive)
    1  A    between atoms: C_20  and  N_29
                            x       y       z     vdW  Elec       q    Type
                         _______ _______ _______ _____ _____    ______ ____

>  <TORSDO>
F 1

$$$$
=
 OpenBabel11112416313D

 32 37  0  0  1  0  0  0  0  0999 V2000
  186.3280  178.5760  143.1330 C   0  0  0  0  0  2  0  0  0  0  0  0
  189.4000  173.9820  141.7580 C   0  0  1  0  0  3  0  0  0  0  0  0
  192.1730  176.8500  144.4460 C   0  0  0  0  0  2  0  0  0  0  0  0
  193.4530  176.4170  143.7350 C   0  0  0  0  0  2  0  0  0  0  0  0
  190.3610  172.7640  139.7460 C   0  0  0  0  0  0  0  0  0  0  0  0
  191.4870  172.4370  138.9900 C   0  0  0  0  0  0  0  0  0  0  0  0
  187.5400  175.6360  141.9510 C   0  0  1  0  0  3  0  0  0  0  0  0
  188.6780  174.6770  143.9440 C   0  0  0  0  0  2  0  0  0  0  0  0
  193.7590  172.3560  138.4220 C   0  0  1  0  0  3  0  0  0  0  0  0
  186.8880  176.3970  144.2750 C   0  0  0  0  0  2  0  0  0  0  0  0
  191.1920  175.6810  144.4840 C   0  0  0  0  0  2  0  0  0  0  0  0
  189.8500  174.2590  143.1420 N   0  0  2  0  0  0  0  0  0  0  0  0
  190.8520  175.2720  143.1130 N   0  0  2  0  0  0  0  0  0  0  0  0
  191.8590  173.9670  141.2520 C   0  0  0  0  0  0  0  0  0  0  0  0
  192.9240  171.5570  137.3960 C   0  0  0  0  0  3  0  0  0  0  0  0
  187.4610  178.4340  141.7110 S   0  0  0  0  0  0  0  0  0  0  0  0
  188.0180  175.9300  143.3730 C   0  0  2  0  0  3  0  0  0  0  0  0
  191.5240  171.6550  137.8140 N   0  0  0  0  0  0  0  0  0  0  0  0
  186.7960  176.7920  141.2740 C   0  0  0  0  0  2  0  0  0  0  0  0
  186.9110  177.9160  144.3820 C   0  0  2  0  0  3  0  0  0  0  0  0
  193.1310  175.8090  142.3730 C   0  0  0  0  0  2  0  0  0  0  0  0
  192.0920  174.6990  142.5480 C   0  0  1  0  0  3  0  0  0  0  0  0
  192.9250  173.5910  140.4830 N   0  0  0  0  0  0  0  0  0  0  0  0
  188.7260  175.2000  141.1090 C   0  0  0  0  0  2  0  0  0  0  0  0
  189.0080  172.2910  139.3290 C   0  0  0  0  0  1  0  0  0  0  0  0
  194.4340  173.5230  137.7260 C   0  0  0  0  0  1  0  0  0  0  0  0
  190.5540  173.5430  140.9090 C   0  0  0  0  0  0  0  0  0  0  0  0
  192.7260  172.8530  139.3620 C   0  0  0  0  0  0  0  0  0  0  0  0
  186.1410  178.3200  145.5490 N   0  0  0  0  0  2  0  0  0  0  0  0
  186.6460  178.2110  146.8810 C   0  0  0  0  0  0  0  0  0  0  0  0
  187.7900  177.7300  147.0980 O   0  0  0  0  0  0  0  0  0  0  0  0
  185.8120  178.6660  148.0230 C   0  0  0  0  0  1  0  0  0  0  0  0
  1 20  1  0  0  0  0
  2 24  1  6  0  0  0
  2 12  1  0  0  0  0
  3 11  1  0  0  0  0
  4  3  1  0  0  0  0
  5 27  1  0  0  0  0
  6 28  1  0  0  0  0
  6  5  2  0  0  0  0
  7 24  1  6  0  0  0
  7 17  1  0  0  0  0
  9 26  1  6  0  0  0
  9 28  1  0  0  0  0
 10 20  1  0  0  0  0
 12  8  1  1  0  0  0
 13 12  1  0  0  0  0
 13 11  1  1  0  0  0
 14 22  1  0  0  0  0
 15 18  2  0  0  0  0
 15  9  1  0  0  0  0
 16  1  1  0  0  0  0
 17  8  1  1  0  0  0
 17 10  1  0  0  0  0
 18  6  1  0  0  0  0
 19 16  1  0  0  0  0
 19  7  1  0  0  0  0
 20 29  1  1  0  0  0
 21  4  1  0  0  0  0
 22 21  1  6  0  0  0
 22 13  1  0  0  0  0
 23 14  1  0  0  0  0
 25  5  1  0  0  0  0
 27 14  2  0  0  0  0
 27  2  1  0  0  0  0
 28 23  2  0  0  0  0
 29 30  1  0  0  0  0
 30 31  2  0  0  0  0
 30 32  1  0  0  0  0
M  END
>  <MODEL>
6

>  <REMARK>
 VINA RESULT:      -6.5      3.172      7.965
  Name = 
  1 active torsions:
  status: ('A' for Active; 'I' for Inactive)
    1  A    between atoms: C_20  and  N_29
                            x       y       z     vdW  Elec       q    Type
                         _______ _______ _______ _____ _____    ______ ____

>  <TORSDO>
F 1

$$$$
=
 OpenBabel11112416313D

 32 37  0  0  1  0  0  0  0  0999 V2000
  190.5700  171.7150  140.6990 C   0  0  0  0  0  2  0  0  0  0  0  0
  188.9080  176.5750  143.1600 C   0  0  1  0  0  3  0  0  0  0  0  0
  192.3580  174.6470  145.9020 C   0  0  0  0  0  2  0  0  0  0  0  0
  191.7640  175.2110  147.1900 C   0  0  0  0  0  2  0  0  0  0  0  0
  186.8740  177.6720  144.2160 C   0  0  0  0  0  0  0  0  0  0  0  0
  186.2320  178.0990  145.3780 C   0  0  0  0  0  0  0  0  0  0  0  0
  189.1100  174.6450  141.5870 C   0  0  1  0  0  3  0  0  0  0  0  0
  191.0600  176.0530  142.2240 C   0  0  0  0  0  2  0  0  0  0  0  0
  185.9650  178.5220  147.6680 C   0  0  1  0  0  3  0  0  0  0  0  0
  191.4180  174.0910  140.7090 C   0  0  0  0  0  2  0  0  0  0  0  0
  192.0810  175.6100  144.7500 C   0  0  0  0  0  2  0  0  0  0  0  0
  190.3650  176.5700  143.4230 N   0  0  2  0  0  0  0  0  0  0  0  0
  190.6290  175.7640  144.5690 N   0  0  2  0  0  0  0  0  0  0  0  0
  188.7360  176.9760  145.6320 C   0  0  0  0  0  0  0  0  0  0  0  0
  184.7240  179.0100  146.8870 C   0  0  0  0  0  3  0  0  0  0  0  0
  189.3060  171.8750  142.0030 S   0  0  0  0  0  0  0  0  0  0  0  0
  190.6120  174.6350  141.8750 C   0  0  2  0  0  3  0  0  0  0  0  0
  184.9630  178.7120  145.4730 N   0  0  0  0  0  0  0  0  0  0  0  0
  188.5320  173.2930  141.1580 C   0  0  0  0  0  2  0  0  0  0  0  0
  191.7650  172.6300  140.9610 C   0  0  2  0  0  3  0  0  0  0  0  0
  190.2920  175.5640  146.9930 C   0  0  0  0  0  2  0  0  0  0  0  0
  190.1500  176.4770  145.7730 C   0  0  1  0  0  3  0  0  0  0  0  0
  188.0660  177.4370  146.7300 N   0  0  0  0  0  0  0  0  0  0  0  0
  188.3750  175.1780  142.8050 C   0  0  0  0  0  2  0  0  0  0  0  0
  186.2120  177.8290  142.8860 C   0  0  0  0  0  1  0  0  0  0  0  0
  185.5570  177.4180  148.6250 C   0  0  0  0  0  1  0  0  0  0  0  0
  188.1600  177.1030  144.3470 C   0  0  0  0  0  0  0  0  0  0  0  0
  186.8260  177.9710  146.5930 C   0  0  0  0  0  0  0  0  0  0  0  0
  192.8690  172.2480  140.0930 N   0  0  0  0  0  2  0  0  0  0  0  0
  192.8220  172.4050  138.6730 C   0  0  0  0  0  0  0  0  0  0  0  0
  191.7950  172.8670  138.1100 O   0  0  0  0  0  0  0  0  0  0  0  0
  193.9970  172.0150  137.8520 C   0  0  0  0  0  1  0  0  0  0  0  0
  1 20  1  0  0  0  0
  1 16  1  0  0  0  0
  2 24  1  1  0  0  0
  2 12  1  0  0  0  0
  2 27  1  0  0  0  0
  3  4  1  0  0  0  0
  5 27  2  0  0  0  0
  5  6  1  0  0  0  0
  6 18  1  0  0  0  0
  6 28  2  0  0  0  0
  7 19  1  1  0  0  0
  7 17  1  0  0  0  0
  7 24  1  0  0  0  0
  9 26  1  1  0  0  0
 10 20  1  0  0  0  0
 11  3  1  0  0  0  0
 12  8  1  6  0  0  0
 12 13  1  0  0  0  0
 13 11  1  1  0  0  0
 13 22  1  0  0  0  0
 14 22  1  0  0  0  0
 14 23  2  0  0  0  0
 15  9  1  0  0  0  0
 17 10  1  6  0  0  0
 17  8  1  0  0  0  0
 18 15  2  0  0  0  0
 19 16  1  0  0  0  0
 20 29  1  6  0  0  0
 21  4  1  0  0  0  0
 22 21  1  1  0  0  0
 25  5  1  0  0  0  0
 27 14  1  0  0  0  0
 28 23  1  0  0  0  0
 28  9  1  0  0  0  0
 30 29  1  0  0  0  0
 31 30  2  0  0  0  0
 32 30  1  0  0  0  0
M  END
>  <MODEL>
7

>  <REMARK>
 VINA RESULT:      -6.3      2.325      2.556
  Name = 
  1 active torsions:
  status: ('A' for Active; 'I' for Inactive)
    1  A    between atoms: C_20  and  N_29
                            x       y       z     vdW  Elec       q    Type
                         _______ _______ _______ _____ _____    ______ ____

>  <TORSDO>
F 1

$$$$
=
 OpenBabel11112416313D

 32 37  0  0  1  0  0  0  0  0999 V2000
  192.7100  169.4730  140.6400 C   0  0  0  0  0  2  0  0  0  0  0  0
  190.6240  174.6570  141.7390 C   0  0  1  0  0  3  0  0  0  0  0  0
  194.2610  173.8640  144.7860 C   0  0  0  0  0  2  0  0  0  0  0  0
  193.6270  174.7050  145.8910 C   0  0  0  0  0  2  0  0  0  0  0  0
  188.5060  175.8210  142.5230 C   0  0  0  0  0  0  0  0  0  0  0  0
  187.8370  176.4920  143.5460 C   0  0  0  0  0  0  0  0  0  0  0  0
  190.9920  172.3960  140.7450 C   0  0  1  0  0  3  0  0  0  0  0  0
  192.8080  174.0880  140.9090 C   0  0  0  0  0  2  0  0  0  0  0  0
  187.5510  177.5020  145.6420 C   0  0  1  0  0  3  0  0  0  0  0  0
  193.3340  171.8250  139.9740 C   0  0  0  0  0  2  0  0  0  0  0  0
  193.8860  174.4450  143.4250 C   0  0  0  0  0  2  0  0  0  0  0  0
  192.0780  174.8520  141.9450 N   0  0  2  0  0  0  0  0  0  0  0  0
  192.4250  174.4180  143.2580 N   0  0  2  0  0  0  0  0  0  0  0  0
  190.4370  175.7050  144.0130 C   0  0  0  0  0  0  0  0  0  0  0  0
  186.2630  177.6480  144.7990 C   0  0  0  0  0  3  0  0  0  0  0  0
  191.4480  169.8740  141.8940 S   0  0  0  0  0  0  0  0  0  0  0  0
  192.4900  172.5960  140.9750 C   0  0  2  0  0  3  0  0  0  0  0  0
  186.5170  176.9950  143.5120 N   0  0  0  0  0  0  0  0  0  0  0  0
  190.5380  170.9330  140.7200 C   0  0  0  0  0  2  0  0  0  0  0  0
  193.8180  170.5250  140.6030 C   0  0  2  0  0  3  0  0  0  0  0  0
  192.1280  174.8610  145.6550 C   0  0  0  0  0  2  0  0  0  0  0  0
  191.8920  175.3880  144.2370 C   0  0  1  0  0  3  0  0  0  0  0  0
  189.7350  176.3890  144.9650 N   0  0  0  0  0  0  0  0  0  0  0  0
  190.2200  173.1760  141.7950 C   0  0  0  0  0  2  0  0  0  0  0  0
  187.8220  175.5490  141.2240 C   0  0  0  0  0  1  0  0  0  0  0  0
  187.2550  176.6720  146.8760 C   0  0  0  0  0  1  0  0  0  0  0  0
  189.8410  175.4240  142.7610 C   0  0  0  0  0  0  0  0  0  0  0  0
  188.4500  176.7550  144.7300 C   0  0  0  0  0  0  0  0  0  0  0  0
  194.9440  170.0180  139.8360 N   0  0  0  0  0  2  0  0  0  0  0  0
  196.3020  170.2410  140.2200 C   0  0  0  0  0  0  0  0  0  0  0  0
  196.5770  170.9180  141.2460 O   0  0  0  0  0  0  0  0  0  0  0  0
  197.4020  169.6710  139.3990 C   0  0  0  0  0  1  0  0  0  0  0  0
  1 16  1  0  0  0  0
  2 24  1  1  0  0  0
  2 12  1  0  0  0  0
  2 27  1  0  0  0  0
  3  4  1  0  0  0  0
  5 27  2  0  0  0  0
  5  6  1  0  0  0  0
  6 28  2  0  0  0  0
  7 19  1  1  0  0  0
  7 17  1  0  0  0  0
  7 24  1  0  0  0  0
  8 17  1  0  0  0  0
  9 26  1  1  0  0  0
 10 20  1  0  0  0  0
 11  3  1  0  0  0  0
 12  8  1  6  0  0  0
 12 13  1  0  0  0  0
 13 11  1  6  0  0  0
 13 22  1  0  0  0  0
 14 22  1  0  0  0  0
 14 23  2  0  0  0  0
 15  9  1  0  0  0  0
 17 10  1  6  0  0  0
 18  6  1  0  0  0  0
 18 15  2  0  0  0  0
 19 16  1  0  0  0  0
 20 29  1  6  0  0  0
 20  1  1  0  0  0  0
 21  4  1  0  0  0  0
 22 21  1  1  0  0  0
 25  5  1  0  0  0  0
 27 14  1  0  0  0  0
 28 23  1  0  0  0  0
 28  9  1  0  0  0  0
 29 30  1  0  0  0  0
 30 31  2  0  0  0  0
 32 30  1  0  0  0  0
M  END
>  <MODEL>
8

>  <REMARK>
 VINA RESULT:      -6.2      2.177      2.952
  Name = 
  1 active torsions:
  status: ('A' for Active; 'I' for Inactive)
    1  A    between atoms: C_20  and  N_29
                            x       y       z     vdW  Elec       q    Type
                         _______ _______ _______ _____ _____    ______ ____

>  <TORSDO>
F 1

$$$$
=
 OpenBabel11112416313D

 32 37  0  0  1  0  0  0  0  0999 V2000
  187.7070  177.9160  143.5810 C   0  0  0  0  0  2  0  0  0  0  0  0
  188.5420  173.2920  140.3630 C   0  0  1  0  0  3  0  0  0  0  0  0
  190.5990  172.4950  144.6380 C   0  0  0  0  0  2  0  0  0  0  0  0
  191.6960  171.6180  144.0390 C   0  0  0  0  0  2  0  0  0  0  0  0
  189.6790  172.5440  138.2180 C   0  0  0  0  0  0  0  0  0  0  0  0
  190.7320  171.8540  137.6180 C   0  0  0  0  0  0  0  0  0  0  0  0
  187.8310  175.5520  141.1510 C   0  0  1  0  0  3  0  0  0  0  0  0
  187.2570  173.4710  142.3880 C   0  0  0  0  0  2  0  0  0  0  0  0
  192.6560  170.5200  137.5060 C   0  0  1  0  0  3  0  0  0  0  0  0
  186.5600  175.6820  143.3360 C   0  0  0  0  0  2  0  0  0  0  0  0
  189.3160  172.3290  143.8280 C   0  0  0  0  0  2  0  0  0  0  0  0
  188.3250  172.7060  141.7070 N   0  0  2  0  0  0  0  0  0  0  0  0
  189.5480  172.7500  142.4370 N   0  0  2  0  0  0  0  0  0  0  0  0
  190.6040  171.8600  140.3710 C   0  0  0  0  0  0  0  0  0  0  0  0
  192.1730  170.8800  136.0830 C   0  0  0  0  0  3  0  0  0  0  0  0
  189.1770  177.5790  142.5560 S   0  0  0  0  0  0  0  0  0  0  0  0
  187.6240  174.9460  142.5390 C   0  0  2  0  0  3  0  0  0  0  0  0
  190.9760  171.7110  136.2340 N   0  0  0  0  0  0  0  0  0  0  0  0
  188.1430  177.0520  141.1480 C   0  0  0  0  0  2  0  0  0  0  0  0
  187.2230  176.6580  144.3000 C   0  0  2  0  0  3  0  0  0  0  0  0
  191.8450  171.8900  142.5450 C   0  0  0  0  0  2  0  0  0  0  0  0
  190.4790  171.7540  141.8680 C   0  0  1  0  0  3  0  0  0  0  0  0
  191.5970  171.1810  139.7220 N   0  0  0  0  0  0  0  0  0  0  0  0
  188.9210  174.7790  140.4300 C   0  0  0  0  0  2  0  0  0  0  0  0
  188.6630  173.2480  137.3800 C   0  0  0  0  0  1  0  0  0  0  0  0
  194.0340  171.1130  137.7360 C   0  0  0  0  0  1  0  0  0  0  0  0
  189.6110  172.5410  139.6290 C   0  0  0  0  0  0  0  0  0  0  0  0
  191.6590  171.2010  138.3670 C   0  0  0  0  0  0  0  0  0  0  0  0
  186.2680  177.0250  145.3340 N   0  0  0  0  0  2  0  0  0  0  0  0
  186.6680  177.4440  146.6390 C   0  0  0  0  0  0  0  0  0  0  0  0
  187.8870  177.4890  146.9550 O   0  0  0  0  0  0  0  0  0  0  0  0
  185.6360  177.8280  147.6370 C   0  0  0  0  0  1  0  0  0  0  0  0
  1 20  1  0  0  0  0
  2 24  1  1  0  0  0
  2 12  1  0  0  0  0
  4  3  1  0  0  0  0
  5 27  1  0  0  0  0
  6  5  2  0  0  0  0
  6 28  1  0  0  0  0
  7 24  1  1  0  0  0
  7 17  1  0  0  0  0
  9 26  1  1  0  0  0
  9 28  1  0  0  0  0
 10 20  1  0  0  0  0
 11  3  1  0  0  0  0
 12  8  1  1  0  0  0
 12 13  1  0  0  0  0
 13 11  1  1  0  0  0
 14 22  1  0  0  0  0
 15 18  2  0  0  0  0
 15  9  1  0  0  0  0
 16  1  1  0  0  0  0
 17  8  1  6  0  0  0
 17 10  1  0  0  0  0
 18  6  1  0  0  0  0
 19  7  1  0  0  0  0
 19 16  1  0  0  0  0
 20 29  1  1  0  0  0
 21  4  1  0  0  0  0
 22 13  1  0  0  0  0
 22 21  1  1  0  0  0
 23 14  1  0  0  0  0
 25  5  1  0  0  0  0
 27  2  1  0  0  0  0
 27 14  2  0  0  0  0
 28 23  2  0  0  0  0
 29 30  1  0  0  0  0
 30 31  2  0  0  0  0
 30 32  1  0  0  0  0
M  END
>  <MODEL>
9

>  <REMARK>
 VINA RESULT:      -6.0      3.789      8.378
  Name = 
  1 active torsions:
  status: ('A' for Active; 'I' for Inactive)
    1  A    between atoms: C_20  and  N_29
                            x       y       z     vdW  Elec       q    Type
                         _______ _______ _______ _____ _____    ______ ____

>  <TORSDO>
F 1

$$$$
