=
 OpenBabel11112416433D

 32 37  0  0  1  0  0  0  0  0999 V2000
  185.2370  178.5910  145.0530 C   0  0  0  0  0  2  0  0  0  0  0  0
  189.4950  175.3390  144.2070 C   0  0  2  0  0  3  0  0  0  0  0  0
  189.6070  173.1680  139.6780 C   0  0  0  0  0  3  0  0  0  0  0  0
  190.9810  173.4000  139.6060 C   0  0  0  0  0  3  0  0  0  0  0  0
  191.6970  175.4150  145.5130 C   0  0  2  0  0  3  0  0  0  0  0  0
  193.1420  174.9660  145.3870 C   0  0  2  0  0  3  0  0  0  0  0  0
  187.9640  177.3570  144.1700 C   0  0  1  0  0  3  0  0  0  0  0  0
  187.4490  175.4040  142.6420 C   0  0  0  0  0  2  0  0  0  0  0  0
  195.1650  175.3330  144.2480 C   0  0  2  0  0  3  0  0  0  0  0  0
  185.5670  176.9080  143.3540 C   0  0  0  0  0  2  0  0  0  0  0  0
  188.8900  173.5710  140.8050 C   0  0  0  0  0  3  0  0  0  0  0  0
  188.7040  174.6230  143.0790 C   0  0  1  0  0  3  0  0  0  0  0  0
  189.5310  174.2180  141.8730 C   0  0  0  0  0  0  0  0  0  0  0  0
  191.6640  175.0940  142.9470 C   0  0  2  0  0  3  0  0  0  0  0  0
  195.3060  175.6450  145.7090 C   0  0  0  0  0  2  0  0  0  0  0  0
  186.2280  177.8940  145.9990 C   0  0  0  0  0  2  0  0  0  0  0  0
  186.9170  176.2930  143.7590 C   0  0  2  0  0  3  0  0  0  0  0  0
  194.1490  175.4750  146.3530 C   0  0  0  0  0  2  0  0  0  0  0  0
  187.6920  177.9760  145.5500 C   0  0  0  0  0  2  0  0  0  0  0  0
  185.5080  178.3450  143.6320 N   0  0  0  0  0  0  0  0  0  0  0  0
  191.6390  174.0200  140.6680 C   0  0  0  0  0  3  0  0  0  0  0  0
  190.9360  174.4080  141.8190 C   0  0  0  0  0  0  0  0  0  0  0  0
  193.0810  174.6890  143.0040 N   0  0  0  0  0  2  0  0  0  0  0  0
  189.4120  176.8650  144.0810 C   0  0  0  0  0  2  0  0  0  0  0  0
  191.1020  174.8690  146.8010 C   0  0  0  0  0  1  0  0  0  0  0  0
  195.8860  176.3790  143.4220 C   0  0  0  0  0  1  0  0  0  0  0  0
  190.9360  174.8370  144.2950 C   0  0  2  0  0  3  0  0  0  0  0  0
  193.6710  175.4730  144.0780 C   0  0  1  0  0  3  0  0  0  0  0  0
  184.3760  178.8690  142.8860 C   0  0  0  0  0  2  0  0  0  0  0  0
  184.0760  177.9750  141.6950 C   0  0  2  0  0  3  0  0  0  0  0  0
  184.8510  178.4670  140.4910 C   0  0  0  0  0  1  0  0  0  0  0  0
  182.7110  178.0080  141.4100 O   0  0  0  0  0  1  0  0  0  0  0  0
  1 16  1  0  0  0  0
  2 24  1  6  0  0  0
  2 27  1  0  0  0  0
  3 11  1  0  0  0  0
  4  3  2  0  0  0  0
  4 21  1  0  0  0  0
  5 25  1  1  0  0  0
  6  5  1  0  0  0  0
  6 18  1  1  0  0  0
  7 24  1  1  0  0  0
  7 19  1  0  0  0  0
  9 26  1  6  0  0  0
  9 15  1  0  0  0  0
 10 20  1  0  0  0  0
 10 17  1  0  0  0  0
 11 13  2  0  0  0  0
 12  8  1  6  0  0  0
 12  2  1  0  0  0  0
 13 12  1  0  0  0  0
 14 22  1  6  0  0  0
 14 23  1  0  0  0  0
 14 27  1  0  0  0  0
 15 18  1  0  0  0  0
 17  8  1  6  0  0  0
 17  7  1  0  0  0  0
 19 16  1  0  0  0  0
 20  1  1  0  0  0  0
 21 22  2  0  0  0  0
 22 13  1  0  0  0  0
 23 28  1  0  0  0  0
 27  5  1  0  0  0  0
 28  9  1  0  0  0  0
 28  6  1  0  0  0  0
 29 20  1  0  0  0  0
 30 29  1  0  0  0  0
 31 30  1  0  0  0  0
 32 30  1  0  0  0  0
M  END
>  <MODEL>
1

>  <REMARK>
 VINA RESULT:      -8.3      0.000      0.000
  Name = 
  2 active torsions:
  status: ('A' for Active; 'I' for Inactive)
    1  A    between atoms: N_20  and  C_29
    2  A    between atoms: C_29  and  C_30
                            x       y       z     vdW  Elec       q    Type
                         _______ _______ _______ _____ _____    ______ ____

>  <TORSDO>
F 2

$$$$
=
 OpenBabel11112416433D

 32 37  0  0  1  0  0  0  0  0999 V2000
  185.7390  178.2730  144.6400 C   0  0  0  0  0  2  0  0  0  0  0  0
  190.1510  175.3130  143.5470 C   0  0  2  0  0  3  0  0  0  0  0  0
  189.7400  172.3480  139.5120 C   0  0  0  0  0  3  0  0  0  0  0  0
  191.0410  172.6850  139.1380 C   0  0  0  0  0  3  0  0  0  0  0  0
  192.5200  175.8290  144.3710 C   0  0  2  0  0  3  0  0  0  0  0  0
  193.9650  175.4950  144.0460 C   0  0  2  0  0  3  0  0  0  0  0  0
  188.4020  177.1440  143.4670 C   0  0  1  0  0  3  0  0  0  0  0  0
  187.8720  174.9000  142.4180 C   0  0  0  0  0  2  0  0  0  0  0  0
  195.7000  175.8210  142.4930 C   0  0  2  0  0  3  0  0  0  0  0  0
  185.9720  176.3370  143.2160 C   0  0  0  0  0  2  0  0  0  0  0  0
  189.1860  172.8910  140.6720 C   0  0  0  0  0  3  0  0  0  0  0  0
  189.2700  174.3310  142.7300 C   0  0  1  0  0  3  0  0  0  0  0  0
  189.9180  173.7810  141.4720 C   0  0  0  0  0  0  0  0  0  0  0  0
  192.0820  175.0300  141.9510 C   0  0  2  0  0  3  0  0  0  0  0  0
  196.0530  176.4130  143.8260 C   0  0  0  0  0  2  0  0  0  0  0  0
  186.9570  177.8580  145.4810 C   0  0  0  0  0  2  0  0  0  0  0  0
  187.4380  175.9330  143.4510 C   0  0  2  0  0  3  0  0  0  0  0  0
  195.0550  176.2650  144.7000 C   0  0  0  0  0  2  0  0  0  0  0  0
  188.3000  177.9840  144.7490 C   0  0  0  0  0  2  0  0  0  0  0  0
  185.7870  177.7900  143.2550 N   0  0  0  0  0  0  0  0  0  0  0  0
  191.7930  173.5490  139.9340 C   0  0  0  0  0  3  0  0  0  0  0  0
  191.2580  174.0820  141.1170 C   0  0  0  0  0  0  0  0  0  0  0  0
  193.5260  174.7720  141.8010 N   0  0  0  0  0  2  0  0  0  0  0  0
  189.8610  176.7750  143.1850 C   0  0  0  0  0  2  0  0  0  0  0  0
  192.2300  175.4840  145.8230 C   0  0  0  0  0  1  0  0  0  0  0  0
  196.1320  176.7530  141.3800 C   0  0  0  0  0  1  0  0  0  0  0  0
  191.6360  174.9670  143.4380 C   0  0  2  0  0  3  0  0  0  0  0  0
  194.1930  175.7920  142.5930 C   0  0  1  0  0  3  0  0  0  0  0  0
  184.4870  178.0610  142.6650 C   0  0  0  0  0  2  0  0  0  0  0  0
  184.5230  177.7850  141.1710 C   0  0  2  0  0  3  0  0  0  0  0  0
  185.8440  178.2620  140.6050 C   0  0  0  0  0  1  0  0  0  0  0  0
  183.4800  178.4610  140.5390 O   0  0  0  0  0  1  0  0  0  0  0  0
  1 16  1  0  0  0  0
  2 24  1  6  0  0  0
  3 11  1  0  0  0  0
  4  3  2  0  0  0  0
  4 21  1  0  0  0  0
  5 25  1  1  0  0  0
  6  5  1  0  0  0  0
  6 18  1  1  0  0  0
  7 24  1  1  0  0  0
  7 19  1  0  0  0  0
  9 26  1  6  0  0  0
  9 28  1  0  0  0  0
  9 15  1  0  0  0  0
 10 20  1  0  0  0  0
 10 17  1  0  0  0  0
 11 13  2  0  0  0  0
 12  8  1  6  0  0  0
 12  2  1  0  0  0  0
 13 12  1  0  0  0  0
 14 22  1  6  0  0  0
 14 27  1  0  0  0  0
 15 18  1  0  0  0  0
 17  8  1  6  0  0  0
 17  7  1  0  0  0  0
 19 16  1  0  0  0  0
 20  1  1  0  0  0  0
 21 22  2  0  0  0  0
 22 13  1  0  0  0  0
 23 14  1  0  0  0  0
 23 28  1  0  0  0  0
 27  2  1  0  0  0  0
 27  5  1  0  0  0  0
 28  6  1  0  0  0  0
 29 20  1  0  0  0  0
 30 29  1  0  0  0  0
 31 30  1  0  0  0  0
 32 30  1  0  0  0  0
M  END
>  <MODEL>
2

>  <REMARK>
 VINA RESULT:      -8.1      0.953      1.203
  Name = 
  2 active torsions:
  status: ('A' for Active; 'I' for Inactive)
    1  A    between atoms: N_20  and  C_29
    2  A    between atoms: C_29  and  C_30
                            x       y       z     vdW  Elec       q    Type
                         _______ _______ _______ _____ _____    ______ ____

>  <TORSDO>
F 2

$$$$
=
 OpenBabel11112416433D

 32 37  0  0  1  0  0  0  0  0999 V2000
  185.7150  177.5940  143.3410 C   0  0  0  0  0  2  0  0  0  0  0  0
  190.5150  175.1210  142.8260 C   0  0  2  0  0  3  0  0  0  0  0  0
  194.0940  176.8280  145.9120 C   0  0  0  0  0  3  0  0  0  0  0  0
  194.5170  175.5180  146.1380 C   0  0  0  0  0  3  0  0  0  0  0  0
  190.8850  172.8110  141.7860 C   0  0  2  0  0  3  0  0  0  0  0  0
  191.9160  171.6960  141.7590 C   0  0  2  0  0  3  0  0  0  0  0  0
  188.2270  175.7770  143.6960 C   0  0  1  0  0  3  0  0  0  0  0  0
  190.1970  177.2970  144.1690 C   0  0  0  0  0  2  0  0  0  0  0  0
  192.9190  169.9890  143.0260 C   0  0  2  0  0  3  0  0  0  0  0  0
  187.8900  178.2910  144.1240 C   0  0  0  0  0  2  0  0  0  0  0  0
  193.0220  177.0760  145.0540 C   0  0  0  0  0  3  0  0  0  0  0  0
  191.2000  176.3500  143.4820 C   0  0  1  0  0  3  0  0  0  0  0  0
  192.3520  176.0210  144.4140 C   0  0  0  0  0  0  0  0  0  0  0  0
  192.1280  173.5330  143.9350 C   0  0  2  0  0  3  0  0  0  0  0  0
  192.1580  169.4200  141.8650 C   0  0  0  0  0  2  0  0  0  0  0  0
  186.3390  176.7390  142.2260 C   0  0  0  0  0  2  0  0  0  0  0  0
  188.8100  177.2030  143.5440 C   0  0  2  0  0  3  0  0  0  0  0  0
  191.5540  170.3830  141.1650 C   0  0  0  0  0  2  0  0  0  0  0  0
  187.0710  175.4880  142.7270 C   0  0  0  0  0  2  0  0  0  0  0  0
  186.5820  177.7580  144.5130 N   0  0  0  0  0  0  0  0  0  0  0  0
  193.8790  174.4580  145.4920 C   0  0  0  0  0  3  0  0  0  0  0  0
  192.8150  174.6940  144.6070 C   0  0  0  0  0  0  0  0  0  0  0  0
  193.0400  172.3870  143.7630 N   0  0  0  0  0  2  0  0  0  0  0  0
  189.2810  174.6680  143.6160 C   0  0  0  0  0  2  0  0  0  0  0  0
  190.5780  173.2570  140.3660 C   0  0  0  0  0  1  0  0  0  0  0  0
  192.6910  169.1420  144.2620 C   0  0  0  0  0  1  0  0  0  0  0  0
  191.5050  173.9820  142.5850 C   0  0  2  0  0  3  0  0  0  0  0  0
  192.2350  171.3270  143.1780 C   0  0  1  0  0  3  0  0  0  0  0  0
  185.9610  178.7570  145.3660 C   0  0  0  0  0  2  0  0  0  0  0  0
  185.4360  178.1080  146.6350 C   0  0  2  0  0  3  0  0  0  0  0  0
  186.1520  176.7930  146.8600 C   0  0  0  0  0  1  0  0  0  0  0  0
  184.0660  177.8720  146.5150 O   0  0  0  0  0  1  0  0  0  0  0  0
  1 20  1  0  0  0  0
  2 12  1  0  0  0  0
  2 24  1  1  0  0  0
  3  4  1  0  0  0  0
  5 25  1  6  0  0  0
  5 27  1  0  0  0  0
  6 18  1  6  0  0  0
  6  5  1  0  0  0  0
  6 28  1  0  0  0  0
  7 19  1  6  0  0  0
  9 28  1  0  0  0  0
  9 26  1  1  0  0  0
 10 20  1  0  0  0  0
 11  3  2  0  0  0  0
 12  8  1  1  0  0  0
 12 13  1  0  0  0  0
 13 22  2  0  0  0  0
 13 11  1  0  0  0  0
 14 23  1  6  0  0  0
 14 22  1  0  0  0  0
 15  9  1  0  0  0  0
 16 19  1  0  0  0  0
 16  1  1  0  0  0  0
 17  7  1  0  0  0  0
 17 10  1  1  0  0  0
 17  8  1  0  0  0  0
 18 15  1  0  0  0  0
 20 29  1  0  0  0  0
 21  4  2  0  0  0  0
 22 21  1  0  0  0  0
 24  7  1  0  0  0  0
 27  2  1  0  0  0  0
 27 14  1  0  0  0  0
 28 23  1  0  0  0  0
 29 30  1  0  0  0  0
 30 31  1  0  0  0  0
 32 30  1  0  0  0  0
M  END
>  <MODEL>
3

>  <REMARK>
 VINA RESULT:      -7.9      2.377      4.916
  Name = 
  2 active torsions:
  status: ('A' for Active; 'I' for Inactive)
    1  A    between atoms: N_20  and  C_29
    2  A    between atoms: C_29  and  C_30
                            x       y       z     vdW  Elec       q    Type
                         _______ _______ _______ _____ _____    ______ ____

>  <TORSDO>
F 2

$$$$
=
 OpenBabel11112416433D

 32 37  0  0  1  0  0  0  0  0999 V2000
  186.6420  178.0850  146.2310 C   0  0  0  0  0  2  0  0  0  0  0  0
  190.6210  175.0520  144.1350 C   0  0  2  0  0  3  0  0  0  0  0  0
  189.5090  172.8770  139.7450 C   0  0  0  0  0  3  0  0  0  0  0  0
  190.7870  173.1790  139.2770 C   0  0  0  0  0  3  0  0  0  0  0  0
  193.1020  175.2440  144.7390 C   0  0  2  0  0  3  0  0  0  0  0  0
  194.4680  174.8700  144.1900 C   0  0  2  0  0  3  0  0  0  0  0  0
  189.0490  176.9900  144.5720 C   0  0  1  0  0  3  0  0  0  0  0  0
  188.2060  175.0090  143.2390 C   0  0  0  0  0  2  0  0  0  0  0  0
  196.0480  175.3370  142.5130 C   0  0  2  0  0  3  0  0  0  0  0  0
  186.5430  176.4160  144.4890 C   0  0  0  0  0  2  0  0  0  0  0  0
  189.1350  173.2460  141.0380 C   0  0  0  0  0  3  0  0  0  0  0  0
  189.5710  174.2940  143.2800 C   0  0  1  0  0  3  0  0  0  0  0  0
  190.0270  173.9280  141.8790 C   0  0  0  0  0  0  0  0  0  0  0  0
  192.3350  174.9150  142.2920 C   0  0  2  0  0  3  0  0  0  0  0  0
  196.5950  175.6600  143.8720 C   0  0  0  0  0  2  0  0  0  0  0  0
  187.9010  177.4430  146.8370 C   0  0  0  0  0  2  0  0  0  0  0  0
  187.9820  175.8730  144.4730 C   0  0  2  0  0  3  0  0  0  0  0  0
  195.6880  175.4330  144.8250 C   0  0  0  0  0  2  0  0  0  0  0  0
  189.1630  177.5980  145.9790 C   0  0  0  0  0  2  0  0  0  0  0  0
  186.4970  177.8490  144.7900 N   0  0  0  0  0  0  0  0  0  0  0  0
  191.6970  173.8350  140.1070 C   0  0  0  0  0  3  0  0  0  0  0  0
  191.3430  174.1890  141.4190 C   0  0  0  0  0  0  0  0  0  0  0  0
  193.7250  174.5840  141.9260 N   0  0  0  0  0  2  0  0  0  0  0  0
  190.4290  176.5720  144.0580 C   0  0  0  0  0  2  0  0  0  0  0  0
  192.9400  174.6730  146.1380 C   0  0  0  0  0  1  0  0  0  0  0  0
  196.4410  176.4160  141.5250 C   0  0  0  0  0  1  0  0  0  0  0  0
  192.0480  174.6250  143.7910 C   0  0  2  0  0  3  0  0  0  0  0  0
  194.5640  175.3990  142.7890 C   0  0  1  0  0  3  0  0  0  0  0  0
  185.1710  178.3120  144.4160 C   0  0  0  0  0  2  0  0  0  0  0  0
  185.2240  179.0140  143.0690 C   0  0  2  0  0  3  0  0  0  0  0  0
  184.3540  178.2690  142.0800 C   0  0  0  0  0  1  0  0  0  0  0  0
  186.5380  179.0410  142.6000 O   0  0  0  0  0  1  0  0  0  0  0  0
  1 16  1  0  0  0  0
  2 24  1  6  0  0  0
  3 11  1  0  0  0  0
  4  3  2  0  0  0  0
  4 21  1  0  0  0  0
  5 25  1  1  0  0  0
  6  5  1  0  0  0  0
  6 18  1  1  0  0  0
  7 24  1  1  0  0  0
  7 19  1  0  0  0  0
  9 26  1  6  0  0  0
  9 28  1  0  0  0  0
  9 15  1  0  0  0  0
 10 20  1  0  0  0  0
 11 13  2  0  0  0  0
 12  8  1  6  0  0  0
 12  2  1  0  0  0  0
 13 12  1  0  0  0  0
 14 22  1  6  0  0  0
 14 27  1  0  0  0  0
 15 18  1  0  0  0  0
 17  8  1  6  0  0  0
 17 10  1  0  0  0  0
 17  7  1  0  0  0  0
 19 16  1  0  0  0  0
 20  1  1  0  0  0  0
 21 22  2  0  0  0  0
 22 13  1  0  0  0  0
 23 14  1  0  0  0  0
 23 28  1  0  0  0  0
 27  2  1  0  0  0  0
 27  5  1  0  0  0  0
 28  6  1  0  0  0  0
 29 20  1  0  0  0  0
 30 29  1  0  0  0  0
 31 30  1  0  0  0  0
 32 30  1  0  0  0  0
M  END
>  <MODEL>
4

>  <REMARK>
 VINA RESULT:      -7.8      1.258      1.633
  Name = 
  2 active torsions:
  status: ('A' for Active; 'I' for Inactive)
    1  A    between atoms: N_20  and  C_29
    2  A    between atoms: C_29  and  C_30
                            x       y       z     vdW  Elec       q    Type
                         _______ _______ _______ _____ _____    ______ ____

>  <TORSDO>
F 2

$$$$
=
 OpenBabel11112416433D

 32 37  0  0  1  0  0  0  0  0999 V2000
  186.1550  178.0070  143.2160 C   0  0  0  0  0  2  0  0  0  0  0  0
  190.2790  174.6530  142.1370 C   0  0  2  0  0  3  0  0  0  0  0  0
  193.7400  174.3510  145.7670 C   0  0  0  0  0  3  0  0  0  0  0  0
  193.8170  172.9720  145.5720 C   0  0  0  0  0  3  0  0  0  0  0  0
  190.2330  172.7560  140.4180 C   0  0  2  0  0  3  0  0  0  0  0  0
  190.9740  171.4760  140.0750 C   0  0  2  0  0  3  0  0  0  0  0  0
  188.1150  175.5830  143.0700 C   0  0  1  0  0  3  0  0  0  0  0  0
  190.3070  176.3220  144.1000 C   0  0  0  0  0  2  0  0  0  0  0  0
  191.3880  169.2660  140.7590 C   0  0  2  0  0  3  0  0  0  0  0  0
  188.3170  177.8440  144.2790 C   0  0  0  0  0  2  0  0  0  0  0  0
  192.8700  175.1170  144.9900 C   0  0  0  0  0  3  0  0  0  0  0  0
  191.1420  175.4020  143.1880 C   0  0  1  0  0  3  0  0  0  0  0  0
  192.0600  174.5190  144.0120 C   0  0  0  0  0  0  0  0  0  0  0  0
  191.3300  172.4420  142.7380 C   0  0  2  0  0  3  0  0  0  0  0  0
  190.6670  169.2950  139.4430 C   0  0  0  0  0  2  0  0  0  0  0  0
  186.7000  177.4010  141.9120 C   0  0  0  0  0  2  0  0  0  0  0  0
  189.0260  176.7850  143.4180 C   0  0  2  0  0  3  0  0  0  0  0  0
  190.3950  170.5470  139.0690 C   0  0  0  0  0  2  0  0  0  0  0  0
  187.0530  175.9120  142.0090 C   0  0  0  0  0  2  0  0  0  0  0  0
  186.8830  177.5760  144.4150 N   0  0  0  0  0  0  0  0  0  0  0  0
  193.0370  172.3630  144.5880 C   0  0  0  0  0  3  0  0  0  0  0  0
  192.1770  173.1240  143.7820 C   0  0  0  0  0  0  0  0  0  0  0  0
  191.9660  171.2080  142.2430 N   0  0  0  0  0  2  0  0  0  0  0  0
  188.8850  174.3180  142.6800 C   0  0  0  0  0  2  0  0  0  0  0  0
  190.2180  173.6770  139.2090 C   0  0  0  0  0  1  0  0  0  0  0  0
  190.8180  168.1720  141.6400 C   0  0  0  0  0  1  0  0  0  0  0  0
  191.0010  173.4260  141.5810 C   0  0  2  0  0  3  0  0  0  0  0  0
  191.0180  170.6230  141.3080 C   0  0  1  0  0  3  0  0  0  0  0  0
  186.4070  178.3930  145.5180 C   0  0  0  0  0  2  0  0  0  0  0  0
  185.5940  177.5470  146.4830 C   0  0  2  0  0  3  0  0  0  0  0  0
  184.3300  178.2900  146.8600 C   0  0  0  0  0  1  0  0  0  0  0  0
  186.3400  177.2920  147.6340 O   0  0  0  0  0  1  0  0  0  0  0  0
  1 20  1  0  0  0  0
  2 24  1  1  0  0  0
  2 12  1  0  0  0  0
  4  3  1  0  0  0  0
  5 25  1  6  0  0  0
  5 27  1  0  0  0  0
  6 18  1  6  0  0  0
  6  5  1  0  0  0  0
  6 28  1  0  0  0  0
  7 19  1  6  0  0  0
  7 17  1  0  0  0  0
  9 28  1  0  0  0  0
  9 26  1  1  0  0  0
 10 20  1  0  0  0  0
 11  3  2  0  0  0  0
 12 13  1  0  0  0  0
 12  8  1  1  0  0  0
 13 11  1  0  0  0  0
 14 23  1  6  0  0  0
 14 22  1  0  0  0  0
 15  9  1  0  0  0  0
 16 19  1  0  0  0  0
 16  1  1  0  0  0  0
 17  8  1  1  0  0  0
 17 10  1  0  0  0  0
 18 15  1  0  0  0  0
 20 29  1  0  0  0  0
 21  4  2  0  0  0  0
 22 13  2  0  0  0  0
 22 21  1  0  0  0  0
 24  7  1  0  0  0  0
 27  2  1  0  0  0  0
 27 14  1  0  0  0  0
 28 23  1  0  0  0  0
 29 30  1  0  0  0  0
 30 31  1  0  0  0  0
 30 32  1  0  0  0  0
M  END
>  <MODEL>
5

>  <REMARK>
 VINA RESULT:      -7.5      2.496      5.467
  Name = 
  2 active torsions:
  status: ('A' for Active; 'I' for Inactive)
    1  A    between atoms: N_20  and  C_29
    2  A    between atoms: C_29  and  C_30
                            x       y       z     vdW  Elec       q    Type
                         _______ _______ _______ _____ _____    ______ ____

>  <TORSDO>
F 2

$$$$
=
 OpenBabel11112416433D

 32 37  0  0  1  0  0  0  0  0999 V2000
  188.1900  177.7480  146.9040 C   0  0  0  0  0  2  0  0  0  0  0  0
  192.1130  174.6670  144.7760 C   0  0  2  0  0  3  0  0  0  0  0  0
  190.4780  170.8130  141.9980 C   0  0  0  0  0  3  0  0  0  0  0  0
  191.4830  171.0650  141.0650 C   0  0  0  0  0  3  0  0  0  0  0  0
  194.5440  175.3950  144.4330 C   0  0  2  0  0  3  0  0  0  0  0  0
  195.7730  175.0100  143.6280 C   0  0  2  0  0  3  0  0  0  0  0  0
  190.2850  176.4030  145.0230 C   0  0  1  0  0  3  0  0  0  0  0  0
  189.6340  173.9670  144.7890 C   0  0  0  0  0  2  0  0  0  0  0  0
  196.7130  174.9740  141.4740 C   0  0  2  0  0  3  0  0  0  0  0  0
  188.0550  175.5290  145.9620 C   0  0  0  0  0  2  0  0  0  0  0  0
  190.3680  171.6120  143.1370 C   0  0  0  0  0  3  0  0  0  0  0  0
  191.0950  173.5060  144.6200 C   0  0  1  0  0  3  0  0  0  0  0  0
  191.2540  172.6780  143.3580 C   0  0  0  0  0  0  0  0  0  0  0  0
  193.2820  174.0310  142.6350 C   0  0  2  0  0  3  0  0  0  0  0  0
  197.4940  175.8740  142.3860 C   0  0  0  0  0  2  0  0  0  0  0  0
  189.6770  177.5630  147.2440 C   0  0  0  0  0  2  0  0  0  0  0  0
  189.5290  175.2120  145.6610 C   0  0  2  0  0  3  0  0  0  0  0  0
  196.9420  175.9280  143.6000 C   0  0  0  0  0  2  0  0  0  0  0  0
  190.6030  177.5260  146.0220 C   0  0  0  0  0  2  0  0  0  0  0  0
  187.7430  176.9470  145.7590 N   0  0  0  0  0  0  0  0  0  0  0  0
  192.3880  172.1050  141.2790 C   0  0  0  0  0  3  0  0  0  0  0  0
  192.3050  172.9010  142.4330 C   0  0  0  0  0  0  0  0  0  0  0  0
  194.5700  173.7630  141.9700 N   0  0  0  0  0  2  0  0  0  0  0  0
  191.5470  175.9940  144.2580 C   0  0  0  0  0  2  0  0  0  0  0  0
  194.8860  175.4060  145.9140 C   0  0  0  0  0  1  0  0  0  0  0  0
  196.5700  175.6160  140.1090 C   0  0  0  0  0  1  0  0  0  0  0  0
  193.4650  174.3230  144.1500 C   0  0  2  0  0  3  0  0  0  0  0  0
  195.3790  174.9520  142.1820 C   0  0  1  0  0  3  0  0  0  0  0  0
  186.2950  177.0520  145.7060 C   0  0  0  0  0  2  0  0  0  0  0  0
  185.8770  178.5130  145.6850 C   0  0  2  0  0  3  0  0  0  0  0  0
  184.4020  178.6180  146.0070 C   0  0  0  0  0  1  0  0  0  0  0  0
  186.1130  179.0550  144.4210 O   0  0  0  0  0  1  0  0  0  0  0  0
  1 16  1  0  0  0  0
  2 24  1  6  0  0  0
  3 11  1  0  0  0  0
  4 21  1  0  0  0  0
  4  3  2  0  0  0  0
  5 25  1  1  0  0  0
  6 18  1  6  0  0  0
  6  5  1  0  0  0  0
  7 24  1  1  0  0  0
  7 17  1  0  0  0  0
  7 19  1  0  0  0  0
  9 26  1  6  0  0  0
  9 28  1  0  0  0  0
  9 15  1  0  0  0  0
 11 13  2  0  0  0  0
 12  2  1  0  0  0  0
 12  8  1  6  0  0  0
 13 12  1  0  0  0  0
 14 23  1  1  0  0  0
 14 27  1  0  0  0  0
 15 18  1  0  0  0  0
 17  8  1  6  0  0  0
 17 10  1  0  0  0  0
 19 16  1  0  0  0  0
 20 10  1  0  0  0  0
 20  1  1  0  0  0  0
 21 22  2  0  0  0  0
 22 14  1  0  0  0  0
 22 13  1  0  0  0  0
 23 28  1  0  0  0  0
 27  5  1  0  0  0  0
 27  2  1  0  0  0  0
 28  6  1  0  0  0  0
 29 20  1  0  0  0  0
 30 29  1  0  0  0  0
 30 31  1  0  0  0  0
 32 30  1  0  0  0  0
M  END
>  <MODEL>
6

>  <REMARK>
 VINA RESULT:      -7.2      2.453      3.346
  Name = 
  2 active torsions:
  status: ('A' for Active; 'I' for Inactive)
    1  A    between atoms: N_20  and  C_29
    2  A    between atoms: C_29  and  C_30
                            x       y       z     vdW  Elec       q    Type
                         _______ _______ _______ _____ _____    ______ ____

>  <TORSDO>
F 2

$$$$
=
 OpenBabel11112416433D

 32 37  0  0  1  0  0  0  0  0999 V2000
  184.3200  178.5870  144.5310 C   0  0  0  0  0  2  0  0  0  0  0  0
  188.6300  176.2780  142.1840 C   0  0  2  0  0  3  0  0  0  0  0  0
  192.9350  176.8120  144.7190 C   0  0  0  0  0  3  0  0  0  0  0  0
  193.2640  175.4880  144.4300 C   0  0  0  0  0  3  0  0  0  0  0  0
  188.5380  174.4110  140.4340 C   0  0  2  0  0  3  0  0  0  0  0  0
  189.4240  173.3360  139.8300 C   0  0  2  0  0  3  0  0  0  0  0  0
  186.6570  176.6840  143.7200 C   0  0  1  0  0  3  0  0  0  0  0  0
  188.8230  177.9200  144.1600 C   0  0  0  0  0  2  0  0  0  0  0  0
  190.4980  171.2870  140.2460 C   0  0  2  0  0  3  0  0  0  0  0  0
  186.6700  178.9380  144.9590 C   0  0  0  0  0  2  0  0  0  0  0  0
  191.7350  177.3500  144.2520 C   0  0  0  0  0  3  0  0  0  0  0  0
  189.5580  177.2140  143.0040 C   0  0  1  0  0  3  0  0  0  0  0  0
  190.8430  176.5730  143.4960 C   0  0  0  0  0  0  0  0  0  0  0  0
  190.2760  174.3760  142.3490 C   0  0  2  0  0  3  0  0  0  0  0  0
  189.4550  171.1390  139.1780 C   0  0  0  0  0  2  0  0  0  0  0  0
  184.6050  178.1160  143.0960 C   0  0  0  0  0  2  0  0  0  0  0  0
  187.3330  178.0680  143.8780 C   0  0  2  0  0  3  0  0  0  0  0  0
  188.8150  172.2910  138.9650 C   0  0  0  0  0  2  0  0  0  0  0  0
  185.2970  176.7510  143.0070 C   0  0  0  0  0  2  0  0  0  0  0  0
  185.4280  178.3450  145.4610 N   0  0  0  0  0  0  0  0  0  0  0  0
  192.4010  174.7080  143.6600 C   0  0  0  0  0  3  0  0  0  0  0  0
  191.2020  175.2430  143.1620 C   0  0  0  0  0  0  0  0  0  0  0  0
  191.0110  173.3200  141.6290 N   0  0  0  0  0  2  0  0  0  0  0  0
  187.5530  175.6310  143.0640 C   0  0  0  0  0  2  0  0  0  0  0  0
  187.9830  175.2950  139.3300 C   0  0  0  0  0  1  0  0  0  0  0  0
  190.4550  170.0970  141.1830 C   0  0  0  0  0  1  0  0  0  0  0  0
  189.4270  175.2490  141.3830 C   0  0  2  0  0  3  0  0  0  0  0  0
  189.9990  172.5250  140.9530 C   0  0  1  0  0  3  0  0  0  0  0  0
  185.1050  179.0370  146.6980 C   0  0  0  0  0  2  0  0  0  0  0  0
  185.6330  178.2540  147.8880 C   0  0  2  0  0  3  0  0  0  0  0  0
  186.8620  178.9460  148.4380 C   0  0  0  0  0  1  0  0  0  0  0  0
  185.9710  176.9600  147.4920 O   0  0  0  0  0  1  0  0  0  0  0  0
  1 20  1  0  0  0  0
  2 12  1  0  0  0  0
  2 24  1  1  0  0  0
  4  3  1  0  0  0  0
  5 25  1  6  0  0  0
  5 27  1  0  0  0  0
  6 18  1  6  0  0  0
  6  5  1  0  0  0  0
  6 28  1  0  0  0  0
  7 19  1  6  0  0  0
  7 17  1  0  0  0  0
  9 28  1  0  0  0  0
  9 26  1  1  0  0  0
 10 20  1  0  0  0  0
 11  3  2  0  0  0  0
 12 13  1  0  0  0  0
 12  8  1  1  0  0  0
 13 11  1  0  0  0  0
 14 23  1  6  0  0  0
 14 22  1  0  0  0  0
 15  9  1  0  0  0  0
 16  1  1  0  0  0  0
 17  8  1  1  0  0  0
 17 10  1  0  0  0  0
 18 15  1  0  0  0  0
 19 16  1  0  0  0  0
 20 29  1  0  0  0  0
 21  4  2  0  0  0  0
 22 13  2  0  0  0  0
 22 21  1  0  0  0  0
 24  7  1  0  0  0  0
 27  2  1  0  0  0  0
 27 14  1  0  0  0  0
 28 23  1  0  0  0  0
 29 30  1  0  0  0  0
 30 31  1  0  0  0  0
 32 30  1  0  0  0  0
M  END
>  <MODEL>
7

>  <REMARK>
 VINA RESULT:      -7.0      2.055      5.321
  Name = 
  2 active torsions:
  status: ('A' for Active; 'I' for Inactive)
    1  A    between atoms: N_20  and  C_29
    2  A    between atoms: C_29  and  C_30
                            x       y       z     vdW  Elec       q    Type
                         _______ _______ _______ _____ _____    ______ ____

>  <TORSDO>
F 2

$$$$
=
 OpenBabel11112416433D

 32 37  0  0  1  0  0  0  0  0999 V2000
  189.8260  177.7370  144.6660 C   0  0  0  0  0  2  0  0  0  0  0  0
  194.3940  174.9990  143.6390 C   0  0  2  0  0  3  0  0  0  0  0  0
  194.5840  170.4040  145.6610 C   0  0  0  0  0  3  0  0  0  0  0  0
  195.1550  169.9160  144.4870 C   0  0  0  0  0  3  0  0  0  0  0  0
  196.0100  175.4870  141.7120 C   0  0  2  0  0  3  0  0  0  0  0  0
  197.1180  174.8140  140.9230 C   0  0  2  0  0  3  0  0  0  0  0  0
  191.9940  175.8050  143.5250 C   0  0  1  0  0  3  0  0  0  0  0  0
  192.6720  174.2410  145.3990 C   0  0  0  0  0  2  0  0  0  0  0  0
  197.5950  173.1400  139.3430 C   0  0  2  0  0  3  0  0  0  0  0  0
  190.7160  175.7760  145.7570 C   0  0  0  0  0  2  0  0  0  0  0  0
  194.2540  171.7560  145.7660 C   0  0  0  0  0  3  0  0  0  0  0  0
  194.1140  174.1010  144.8730 C   0  0  1  0  0  3  0  0  0  0  0  0
  194.4820  172.6390  144.6990 C   0  0  0  0  0  0  0  0  0  0  0  0
  195.3750  173.0640  142.3560 C   0  0  2  0  0  3  0  0  0  0  0  0
  197.9270  174.5000  138.8030 C   0  0  0  0  0  2  0  0  0  0  0  0
  191.2260  178.1710  144.2030 C   0  0  0  0  0  2  0  0  0  0  0  0
  192.0740  175.6010  145.0580 C   0  0  2  0  0  3  0  0  0  0  0  0
  197.6220  175.4570  139.6810 C   0  0  0  0  0  2  0  0  0  0  0  0
  191.8350  177.2770  143.1160 C   0  0  0  0  0  2  0  0  0  0  0  0
  189.6880  176.2880  144.8460 N   0  0  0  0  0  0  0  0  0  0  0  0
  195.4110  170.7830  143.4230 C   0  0  0  0  0  3  0  0  0  0  0  0
  195.1080  172.1500  143.5240 C   0  0  0  0  0  0  0  0  0  0  0  0
  196.4960  172.5780  141.5300 N   0  0  0  0  0  2  0  0  0  0  0  0
  193.1500  175.1580  142.7560 C   0  0  0  0  0  2  0  0  0  0  0  0
  196.5200  176.7930  142.2990 C   0  0  0  0  0  1  0  0  0  0  0  0
  196.9310  172.3020  138.2690 C   0  0  0  0  0  1  0  0  0  0  0  0
  195.6120  174.5180  142.8510 C   0  0  2  0  0  3  0  0  0  0  0  0
  196.5940  173.5040  140.4130 C   0  0  1  0  0  3  0  0  0  0  0  0
  188.4060  176.0590  145.4920 C   0  0  0  0  0  2  0  0  0  0  0  0
  187.3960  177.0960  145.0300 C   0  0  2  0  0  3  0  0  0  0  0  0
  186.5020  177.4770  146.1910 C   0  0  0  0  0  1  0  0  0  0  0  0
  186.6170  176.5720  143.9990 O   0  0  0  0  0  1  0  0  0  0  0  0
  1 20  1  0  0  0  0
  2 24  1  6  0  0  0
  2 12  1  0  0  0  0
  3 11  1  0  0  0  0
  4  3  2  0  0  0  0
  5 25  1  1  0  0  0
  5 27  1  0  0  0  0
  6 18  1  6  0  0  0
  6  5  1  0  0  0  0
  7 24  1  6  0  0  0
  7 17  1  0  0  0  0
  9 26  1  6  0  0  0
  9 28  1  0  0  0  0
 12  8  1  6  0  0  0
 13 12  1  0  0  0  0
 13 11  2  0  0  0  0
 14 23  1  1  0  0  0
 14 27  1  0  0  0  0
 14 22  1  0  0  0  0
 15  9  1  0  0  0  0
 15 18  1  0  0  0  0
 16  1  1  0  0  0  0
 17  8  1  6  0  0  0
 17 10  1  0  0  0  0
 19  7  1  0  0  0  0
 19 16  1  0  0  0  0
 20 29  1  0  0  0  0
 20 10  1  0  0  0  0
 21 22  2  0  0  0  0
 21  4  1  0  0  0  0
 22 13  1  0  0  0  0
 27  2  1  0  0  0  0
 28  6  1  0  0  0  0
 28 23  1  0  0  0  0
 30 29  1  0  0  0  0
 30 31  1  0  0  0  0
 32 30  1  0  0  0  0
M  END
>  <MODEL>
8

>  <REMARK>
 VINA RESULT:      -6.6      3.291      5.798
  Name = 
  2 active torsions:
  status: ('A' for Active; 'I' for Inactive)
    1  A    between atoms: N_20  and  C_29
    2  A    between atoms: C_29  and  C_30
                            x       y       z     vdW  Elec       q    Type
                         _______ _______ _______ _____ _____    ______ ____

>  <TORSDO>
F 2

$$$$
=
 OpenBabel11112416433D

 32 37  0  0  1  0  0  0  0  0999 V2000
  190.3340  177.7490  144.7670 C   0  0  0  0  0  2  0  0  0  0  0  0
  195.0640  175.5900  143.2230 C   0  0  2  0  0  3  0  0  0  0  0  0
  196.8160  171.9920  146.2600 C   0  0  0  0  0  3  0  0  0  0  0  0
  197.2020  171.2460  145.1470 C   0  0  0  0  0  3  0  0  0  0  0  0
  196.0260  175.6760  140.8510 C   0  0  2  0  0  3  0  0  0  0  0  0
  197.0520  174.9690  139.9840 C   0  0  2  0  0  3  0  0  0  0  0  0
  192.5820  175.9220  143.6050 C   0  0  1  0  0  3  0  0  0  0  0  0
  194.0290  175.1800  145.5470 C   0  0  0  0  0  2  0  0  0  0  0  0
  197.5410  172.9720  138.8450 C   0  0  2  0  0  3  0  0  0  0  0  0
  191.8970  176.4160  146.0350 C   0  0  0  0  0  2  0  0  0  0  0  0
  196.2040  173.2340  146.0890 C   0  0  0  0  0  3  0  0  0  0  0  0
  195.3010  175.1080  144.6790 C   0  0  1  0  0  3  0  0  0  0  0  0
  195.9600  173.7460  144.8060 C   0  0  0  0  0  0  0  0  0  0  0  0
  196.1600  173.5250  142.2800 C   0  0  2  0  0  3  0  0  0  0  0  0
  197.4020  174.1170  137.8860 C   0  0  0  0  0  2  0  0  0  0  0  0
  191.4430  178.2260  143.8150 C   0  0  0  0  0  2  0  0  0  0  0  0
  193.0590  176.2420  145.0430 C   0  0  2  0  0  3  0  0  0  0  0  0
  197.0860  175.2460  138.5240 C   0  0  0  0  0  2  0  0  0  0  0  0
  191.9820  177.1370  142.8800 C   0  0  0  0  0  2  0  0  0  0  0  0
  190.5950  176.4340  145.3630 N   0  0  0  0  0  0  0  0  0  0  0  0
  196.9900  171.7500  143.8630 C   0  0  0  0  0  3  0  0  0  0  0  0
  196.3980  173.0090  143.6760 C   0  0  0  0  0  0  0  0  0  0  0  0
  197.1440  172.9820  141.3250 N   0  0  0  0  0  2  0  0  0  0  0  0
  193.6500  175.2530  142.7350 C   0  0  0  0  0  2  0  0  0  0  0  0
  196.3280  177.1660  140.8880 C   0  0  0  0  0  1  0  0  0  0  0  0
  196.8700  171.7360  138.2800 C   0  0  0  0  0  1  0  0  0  0  0  0
  196.1470  175.0790  142.2730 C   0  0  2  0  0  3  0  0  0  0  0  0
  196.7560  173.4990  140.0220 C   0  0  1  0  0  3  0  0  0  0  0  0
  189.5900  176.2270  146.3920 C   0  0  0  0  0  2  0  0  0  0  0  0
  189.6730  174.8060  146.9240 C   0  0  2  0  0  3  0  0  0  0  0  0
  189.6920  173.8360  145.7620 C   0  0  0  0  0  1  0  0  0  0  0  0
  188.5670  174.5380  147.7310 O   0  0  0  0  0  1  0  0  0  0  0  0
  1 20  1  0  0  0  0
  2 24  1  6  0  0  0
  2 12  1  0  0  0  0
  4  3  2  0  0  0  0
  5 25  1  1  0  0  0
  5 27  1  0  0  0  0
  6 18  1  6  0  0  0
  6 28  1  0  0  0  0
  6  5  1  0  0  0  0
  7 24  1  6  0  0  0
  7 17  1  0  0  0  0
  9 26  1  6  0  0  0
  9 28  1  0  0  0  0
 11  3  1  0  0  0  0
 12 13  1  0  0  0  0
 12  8  1  1  0  0  0
 13 11  2  0  0  0  0
 14 23  1  6  0  0  0
 14 22  1  0  0  0  0
 15 18  1  0  0  0  0
 15  9  1  0  0  0  0
 16  1  1  0  0  0  0
 17  8  1  1  0  0  0
 17 10  1  0  0  0  0
 19  7  1  0  0  0  0
 19 16  1  0  0  0  0
 20 10  1  0  0  0  0
 20 29  1  0  0  0  0
 21  4  1  0  0  0  0
 22 21  2  0  0  0  0
 22 13  1  0  0  0  0
 27 14  1  0  0  0  0
 27  2  1  0  0  0  0
 28 23  1  0  0  0  0
 29 30  1  0  0  0  0
 30 32  1  0  0  0  0
 31 30  1  0  0  0  0
M  END
>  <MODEL>
9

>  <REMARK>
 VINA RESULT:      -6.5      4.041      6.898
  Name = 
  2 active torsions:
  status: ('A' for Active; 'I' for Inactive)
    1  A    between atoms: N_20  and  C_29
    2  A    between atoms: C_29  and  C_30
                            x       y       z     vdW  Elec       q    Type
                         _______ _______ _______ _____ _____    ______ ____

>  <TORSDO>
F 2

$$$$
