=
 OpenBabel11112416153D

 30 35  0  0  1  0  0  0  0  0999 V2000
  187.2270  176.9050  143.6910 C   0  0  1  0  0  3  0  0  0  0  0  0
  185.1020  177.9310  144.6530 C   0  0  0  0  0  0  0  0  0  0  0  0
  188.7010  176.4360  147.4950 C   0  0  0  0  0  2  0  0  0  0  0  0
  188.4400  176.0730  144.1420 C   0  0  1  0  0  3  0  0  0  0  0  0
  186.4000  176.1190  142.8570 O   0  0  0  0  0  0  0  0  0  0  0  0
  189.0110  174.9280  140.6030 O   0  0  0  0  0  1  0  0  0  0  0  0
  191.6630  175.5370  143.6840 C   0  0  1  0  0  3  0  0  0  0  0  0
  188.3320  175.0740  141.8160 C   0  0  2  0  0  3  0  0  0  0  0  0
  191.6450  175.8290  145.1870 C   0  0  2  0  0  3  0  0  0  0  0  0
  189.9270  175.7280  147.0920 C   0  0  0  0  0  0  0  0  0  0  0  0
  187.0550  175.9030  141.6220 C   0  0  2  0  0  3  0  0  0  0  0  0
  189.2440  175.6960  142.8770 C   0  0  2  0  0  3  0  0  0  0  0  0
  184.4000  178.5250  145.7040 C   0  0  0  0  0  3  0  0  0  0  0  0
  192.4560  174.7120  145.8120 C   0  0  0  0  0  2  0  0  0  0  0  0
  192.9280  174.7290  143.4310 C   0  0  0  0  0  2  0  0  0  0  0  0
  184.4640  177.8020  143.4240 O   0  0  0  0  0  1  0  0  0  0  0  0
  188.5040  177.4020  146.3320 C   0  0  1  0  0  3  0  0  0  0  0  0
  185.0130  178.7230  146.9380 C   0  0  0  0  0  3  0  0  0  0  0  0
  186.4340  177.4890  144.8410 C   0  0  0  0  0  0  0  0  0  0  0  0
  189.3110  176.8510  145.1360 C   0  0  1  0  0  3  0  0  0  0  0  0
  190.5840  174.9960  147.8780 O   0  0  0  0  0  0  0  0  0  0  0  0
  190.2860  175.9460  145.7310 N   0  0  0  0  0  0  0  0  0  0  0  0
  193.5190  174.3830  144.7880 C   0  0  0  0  0  2  0  0  0  0  0  0
  190.0860  173.5010  143.9040 C   0  0  0  0  0  1  0  0  0  0  0  0
  186.3390  178.3370  147.1210 C   0  0  0  0  0  3  0  0  0  0  0  0
  187.0570  177.7270  146.0860 C   0  0  0  0  0  0  0  0  0  0  0  0
  190.4430  174.7750  143.1390 C   0  0  2  0  0  3  0  0  0  0  0  0
  187.2780  177.1960  140.8300 C   0  0  0  0  0  2  0  0  0  0  0  0
  185.4410  178.6660  140.5740 F   0  0  0  0  0  0  0  0  0  0  0  0
  186.0360  177.5420  140.0330 C   0  0  0  0  0  2  0  0  0  0  0  0
  1  5  1  1  0  0  0
  1  4  1  0  0  0  0
  1 19  1  0  0  0  0
  2 19  2  0  0  0  0
  2 13  1  0  0  0  0
  4 20  1  0  0  0  0
  6  8  1  0  0  0  0
  7  9  1  0  0  0  0
  8 12  1  0  0  0  0
  9 22  1  0  0  0  0
  9 14  1  0  0  0  0
 10  3  1  0  0  0  0
 10 21  2  0  0  0  0
 11  8  1  0  0  0  0
 11  5  1  0  0  0  0
 12 27  1  0  0  0  0
 12  4  1  0  0  0  0
 13 18  2  0  0  0  0
 15  7  1  0  0  0  0
 15 23  1  0  0  0  0
 16  2  1  0  0  0  0
 17  3  1  0  0  0  0
 18 25  1  0  0  0  0
 19 26  1  0  0  0  0
 20 22  1  0  0  0  0
 20 17  1  0  0  0  0
 22 10  1  0  0  0  0
 23 14  1  0  0  0  0
 26 17  1  0  0  0  0
 26 25  2  0  0  0  0
 27  7  1  0  0  0  0
 27 24  1  0  0  0  0
 28 11  1  0  0  0  0
 30 29  1  0  0  0  0
 30 28  1  0  0  0  0
M  END
>  <MODEL>
1

>  <REMARK>
 VINA RESULT:      -8.6      0.000      0.000
  Name = 
  2 active torsions:
  status: ('A' for Active; 'I' for Inactive)
    1  A    between atoms: C_11  and  C_28
    2  A    between atoms: C_28  and  C_30
                            x       y       z     vdW  Elec       q    Type
                         _______ _______ _______ _____ _____    ______ ____

>  <TORSDO>
F 2

$$$$
=
 OpenBabel11112416153D

 30 35  0  0  1  0  0  0  0  0999 V2000
  189.9230  175.0340  143.8370 C   0  0  1  0  0  3  0  0  0  0  0  0
  192.3260  174.1950  143.7170 C   0  0  0  0  0  0  0  0  0  0  0  0
  190.7830  176.9380  147.3730 C   0  0  0  0  0  2  0  0  0  0  0  0
  189.0800  176.0890  144.5760 C   0  0  1  0  0  3  0  0  0  0  0  0
  190.0420  175.3940  142.4760 O   0  0  0  0  0  0  0  0  0  0  0  0
  186.4980  175.9880  141.8410 O   0  0  0  0  0  1  0  0  0  0  0  0
  186.1150  176.7560  145.8610 C   0  0  1  0  0  3  0  0  0  0  0  0
  187.7500  176.2030  142.4220 C   0  0  2  0  0  3  0  0  0  0  0  0
  187.0060  177.0010  147.0820 C   0  0  2  0  0  3  0  0  0  0  0  0
  189.4680  177.5820  147.5170 C   0  0  0  0  0  0  0  0  0  0  0  0
  188.7890  175.2340  141.8410 C   0  0  2  0  0  3  0  0  0  0  0  0
  187.6690  176.0830  143.9470 C   0  0  2  0  0  3  0  0  0  0  0  0
  193.5600  173.9340  144.3160 C   0  0  0  0  0  3  0  0  0  0  0  0
  186.5570  178.3420  147.6290 C   0  0  0  0  0  2  0  0  0  0  0  0
  184.8400  177.5490  146.1060 C   0  0  0  0  0  2  0  0  0  0  0  0
  192.1470  173.8240  142.3890 O   0  0  0  0  0  1  0  0  0  0  0  0
  190.4100  175.6140  146.7150 C   0  0  1  0  0  3  0  0  0  0  0  0
  193.7700  174.2390  145.6580 C   0  0  0  0  0  3  0  0  0  0  0  0
  191.2850  174.8070  144.4570 C   0  0  0  0  0  0  0  0  0  0  0  0
  189.0130  175.7940  146.0790 C   0  0  1  0  0  3  0  0  0  0  0  0
  189.2810  178.6040  148.2290 O   0  0  0  0  0  0  0  0  0  0  0  0
  188.4380  176.9440  146.7680 N   0  0  0  0  0  0  0  0  0  0  0  0
  185.0730  178.4020  147.3420 C   0  0  0  0  0  2  0  0  0  0  0  0
  187.2920  178.5710  144.4450 C   0  0  0  0  0  1  0  0  0  0  0  0
  192.7390  174.7970  146.4100 C   0  0  0  0  0  3  0  0  0  0  0  0
  191.4980  175.0790  145.8260 C   0  0  0  0  0  0  0  0  0  0  0  0
  186.7220  177.1540  144.5050 C   0  0  2  0  0  3  0  0  0  0  0  0
  188.3170  173.7760  141.8100 C   0  0  0  0  0  2  0  0  0  0  0  0
  188.4030  174.2630  139.4960 F   0  0  0  0  0  0  0  0  0  0  0  0
  188.4220  173.2210  140.4040 C   0  0  0  0  0  2  0  0  0  0  0  0
  1  5  1  6  0  0  0
  1 19  1  0  0  0  0
  1  4  1  0  0  0  0
  2 13  2  0  0  0  0
  2 19  1  0  0  0  0
  3 10  1  0  0  0  0
  4 20  1  0  0  0  0
  6  8  1  0  0  0  0
  7 15  1  0  0  0  0
  7  9  1  0  0  0  0
  8 12  1  0  0  0  0
  9 14  1  0  0  0  0
 10 21  2  0  0  0  0
 11  8  1  0  0  0  0
 11  5  1  0  0  0  0
 12 27  1  0  0  0  0
 12  4  1  0  0  0  0
 13 18  1  0  0  0  0
 15 23  1  0  0  0  0
 16  2  1  0  0  0  0
 17  3  1  0  0  0  0
 18 25  2  0  0  0  0
 19 26  2  0  0  0  0
 20 17  1  0  0  0  0
 20 22  1  0  0  0  0
 22  9  1  0  0  0  0
 22 10  1  0  0  0  0
 23 14  1  0  0  0  0
 24 27  1  0  0  0  0
 26 25  1  0  0  0  0
 26 17  1  0  0  0  0
 27  7  1  0  0  0  0
 28 11  1  0  0  0  0
 29 30  1  0  0  0  0
 30 28  1  0  0  0  0
M  END
>  <MODEL>
2

>  <REMARK>
 VINA RESULT:      -8.1      1.851      5.637
  Name = 
  2 active torsions:
  status: ('A' for Active; 'I' for Inactive)
    1  A    between atoms: C_11  and  C_28
    2  A    between atoms: C_28  and  C_30
                            x       y       z     vdW  Elec       q    Type
                         _______ _______ _______ _____ _____    ______ ____

>  <TORSDO>
F 2

$$$$
=
 OpenBabel11112416153D

 30 35  0  0  1  0  0  0  0  0999 V2000
  187.3200  176.3810  141.4960 C   0  0  1  0  0  3  0  0  0  0  0  0
  187.1090  175.9330  138.9960 C   0  0  0  0  0  0  0  0  0  0  0  0
  190.7540  174.1310  141.5930 C   0  0  0  0  0  2  0  0  0  0  0  0
  188.3620  176.2900  142.6240 C   0  0  1  0  0  3  0  0  0  0  0  0
  187.0450  177.7390  141.2160 O   0  0  0  0  0  0  0  0  0  0  0  0
  186.4350  178.8060  144.6520 O   0  0  0  0  0  1  0  0  0  0  0  0
  188.8160  175.6700  145.8330 C   0  0  1  0  0  3  0  0  0  0  0  0
  187.1780  178.3180  143.5740 C   0  0  2  0  0  3  0  0  0  0  0  0
  189.7870  174.6590  145.2180 C   0  0  2  0  0  3  0  0  0  0  0  0
  191.0630  174.3960  143.0070 C   0  0  0  0  0  0  0  0  0  0  0  0
  186.3260  178.3010  142.2970 C   0  0  2  0  0  3  0  0  0  0  0  0
  187.7410  176.9290  143.8870 C   0  0  2  0  0  3  0  0  0  0  0  0
  187.4450  175.2040  137.8540 C   0  0  0  0  0  3  0  0  0  0  0  0
  191.0820  174.8460  145.9830 C   0  0  0  0  0  2  0  0  0  0  0  0
  189.3090  175.9150  147.2520 C   0  0  0  0  0  2  0  0  0  0  0  0
  186.1500  176.9340  138.8810 O   0  0  0  0  0  1  0  0  0  0  0  0
  189.2290  174.1020  141.6090 C   0  0  1  0  0  3  0  0  0  0  0  0
  188.3610  174.1590  137.9290 C   0  0  0  0  0  3  0  0  0  0  0  0
  187.7240  175.6420  140.2380 C   0  0  0  0  0  0  0  0  0  0  0  0
  188.7700  174.8350  142.8890 C   0  0  1  0  0  3  0  0  0  0  0  0
  192.2200  174.2690  143.4890 O   0  0  0  0  0  0  0  0  0  0  0  0
  189.9340  174.8150  143.7660 N   0  0  0  0  0  0  0  0  0  0  0  0
  190.6550  175.2210  147.3850 C   0  0  0  0  0  2  0  0  0  0  0  0
  190.0190  177.7000  144.7780 C   0  0  0  0  0  1  0  0  0  0  0  0
  188.9370  173.8310  139.1540 C   0  0  0  0  0  3  0  0  0  0  0  0
  188.6250  174.5570  140.3100 C   0  0  0  0  0  0  0  0  0  0  0  0
  188.6920  177.0100  145.0890 C   0  0  2  0  0  3  0  0  0  0  0  0
  184.9450  177.6640  142.4900 C   0  0  0  0  0  2  0  0  0  0  0  0
  182.7410  178.4160  142.0730 F   0  0  0  0  0  0  0  0  0  0  0  0
  183.9680  178.2140  141.4710 C   0  0  0  0  0  2  0  0  0  0  0  0
  1 19  1  6  0  0  0
  1  4  1  0  0  0  0
  2 19  1  0  0  0  0
  3 17  1  0  0  0  0
  3 10  1  0  0  0  0
  4 20  1  0  0  0  0
  4 12  1  0  0  0  0
  5  1  1  0  0  0  0
  5 11  1  0  0  0  0
  7 15  1  0  0  0  0
  8 12  1  0  0  0  0
  8  6  1  0  0  0  0
  9  7  1  0  0  0  0
  9 14  1  0  0  0  0
 10 21  2  0  0  0  0
 10 22  1  0  0  0  0
 11 28  1  0  0  0  0
 11  8  1  0  0  0  0
 12 27  1  0  0  0  0
 13 18  1  0  0  0  0
 13  2  2  0  0  0  0
 14 23  1  0  0  0  0
 15 23  1  0  0  0  0
 16  2  1  0  0  0  0
 17 20  1  0  0  0  0
 18 25  2  0  0  0  0
 19 26  2  0  0  0  0
 20 22  1  0  0  0  0
 22  9  1  0  0  0  0
 24 27  1  0  0  0  0
 25 26  1  0  0  0  0
 26 17  1  0  0  0  0
 27  7  1  0  0  0  0
 30 29  1  0  0  0  0
 30 28  1  0  0  0  0
M  END
>  <MODEL>
3

>  <REMARK>
 VINA RESULT:      -7.6      2.208      5.014
  Name = 
  2 active torsions:
  status: ('A' for Active; 'I' for Inactive)
    1  A    between atoms: C_11  and  C_28
    2  A    between atoms: C_28  and  C_30
                            x       y       z     vdW  Elec       q    Type
                         _______ _______ _______ _____ _____    ______ ____

>  <TORSDO>
F 2

$$$$
=
 OpenBabel11112416153D

 30 35  0  0  1  0  0  0  0  0999 V2000
  188.7650  175.7640  143.4760 C   0  0  1  0  0  3  0  0  0  0  0  0
  186.3940  176.6040  143.8900 C   0  0  0  0  0  0  0  0  0  0  0  0
  189.9020  177.2180  147.1440 C   0  0  0  0  0  2  0  0  0  0  0  0
  190.0620  175.4740  144.2500 C   0  0  1  0  0  3  0  0  0  0  0  0
  188.1940  174.5480  143.0380 O   0  0  0  0  0  0  0  0  0  0  0  0
  191.2040  173.1420  141.5270 O   0  0  0  0  0  1  0  0  0  0  0  0
  193.3580  175.5140  144.1020 C   0  0  1  0  0  3  0  0  0  0  0  0
  190.3880  173.6180  142.5570 C   0  0  2  0  0  3  0  0  0  0  0  0
  193.1280  176.3810  145.3430 C   0  0  2  0  0  3  0  0  0  0  0  0
  191.2750  176.6930  147.0910 C   0  0  0  0  0  0  0  0  0  0  0  0
  189.0020  173.9960  142.0170 C   0  0  2  0  0  3  0  0  0  0  0  0
  191.0500  174.8000  143.2710 C   0  0  2  0  0  3  0  0  0  0  0  0
  185.4870  177.4060  144.5850 C   0  0  0  0  0  3  0  0  0  0  0  0
  194.0700  175.8210  146.3900 C   0  0  0  0  0  2  0  0  0  0  0  0
  194.7730  174.9690  144.2280 C   0  0  0  0  0  2  0  0  0  0  0  0
  185.9230  175.8510  142.8200 O   0  0  0  0  0  1  0  0  0  0  0  0
  189.6430  177.5590  145.6810 C   0  0  1  0  0  3  0  0  0  0  0  0
  185.9200  178.2170  145.6300 C   0  0  0  0  0  3  0  0  0  0  0  0
  187.7600  176.5780  144.2630 C   0  0  0  0  0  0  0  0  0  0  0  0
  190.6600  176.7590  144.8360 C   0  0  1  0  0  3  0  0  0  0  0  0
  191.9760  176.5070  148.1210 O   0  0  0  0  0  0  0  0  0  0  0  0
  191.7240  176.4100  145.7700 N   0  0  0  0  0  0  0  0  0  0  0  0
  195.2760  175.3430  145.6130 C   0  0  0  0  0  2  0  0  0  0  0  0
  192.1870  173.4540  145.1350 C   0  0  0  0  0  1  0  0  0  0  0  0
  187.2690  178.2380  145.9760 C   0  0  0  0  0  3  0  0  0  0  0  0
  188.1940  177.4320  145.3020 C   0  0  0  0  0  0  0  0  0  0  0  0
  192.3700  174.3510  143.9120 C   0  0  2  0  0  3  0  0  0  0  0  0
  189.0530  174.8690  140.7580 C   0  0  0  0  0  2  0  0  0  0  0  0
  188.0160  172.8840  139.9960 F   0  0  0  0  0  0  0  0  0  0  0  0
  188.4810  174.1150  139.5750 C   0  0  0  0  0  2  0  0  0  0  0  0
  1  5  1  1  0  0  0
  1  4  1  0  0  0  0
  1 19  1  0  0  0  0
  2 19  2  0  0  0  0
  2 13  1  0  0  0  0
  4 20  1  0  0  0  0
  6  8  1  0  0  0  0
  7 15  1  0  0  0  0
  7  9  1  0  0  0  0
  8 12  1  0  0  0  0
  9 22  1  0  0  0  0
  9 14  1  0  0  0  0
 10  3  1  0  0  0  0
 10 21  2  0  0  0  0
 11  8  1  0  0  0  0
 11  5  1  0  0  0  0
 12 27  1  0  0  0  0
 12  4  1  0  0  0  0
 13 18  2  0  0  0  0
 15 23  1  0  0  0  0
 16  2  1  0  0  0  0
 17  3  1  0  0  0  0
 18 25  1  0  0  0  0
 19 26  1  0  0  0  0
 20 17  1  0  0  0  0
 20 22  1  0  0  0  0
 22 10  1  0  0  0  0
 23 14  1  0  0  0  0
 26 17  1  0  0  0  0
 26 25  2  0  0  0  0
 27  7  1  0  0  0  0
 27 24  1  0  0  0  0
 28 11  1  0  0  0  0
 30 29  1  0  0  0  0
 30 28  1  0  0  0  0
M  END
>  <MODEL>
4

>  <REMARK>
 VINA RESULT:      -7.4      1.997      2.415
  Name = 
  2 active torsions:
  status: ('A' for Active; 'I' for Inactive)
    1  A    between atoms: C_11  and  C_28
    2  A    between atoms: C_28  and  C_30
                            x       y       z     vdW  Elec       q    Type
                         _______ _______ _______ _____ _____    ______ ____

>  <TORSDO>
F 2

$$$$
=
 OpenBabel11112416153D

 30 35  0  0  1  0  0  0  0  0999 V2000
  190.4460  176.0530  145.4290 C   0  0  1  0  0  3  0  0  0  0  0  0
  192.4910  174.5940  145.8610 C   0  0  0  0  0  0  0  0  0  0  0  0
  190.1930  174.5410  141.6190 C   0  0  0  0  0  2  0  0  0  0  0  0
  189.2790  176.1780  144.4340 C   0  0  1  0  0  3  0  0  0  0  0  0
  189.9540  175.6330  146.6850 O   0  0  0  0  0  0  0  0  0  0  0  0
  187.2750  178.0930  146.9790 O   0  0  0  0  0  1  0  0  0  0  0  0
  187.2800  178.2880  142.8730 C   0  0  1  0  0  3  0  0  0  0  0  0
  187.9630  177.0050  146.4350 C   0  0  2  0  0  3  0  0  0  0  0  0
  187.8630  177.5280  141.6790 C   0  0  2  0  0  3  0  0  0  0  0  0
  188.9460  175.2380  141.2660 C   0  0  0  0  0  0  0  0  0  0  0  0
  189.2110  176.6850  147.2690 C   0  0  2  0  0  3  0  0  0  0  0  0
  188.3240  177.2690  144.9700 C   0  0  2  0  0  3  0  0  0  0  0  0
  193.5440  173.8010  145.4010 C   0  0  0  0  0  3  0  0  0  0  0  0
  186.6640  177.1520  140.8320 C   0  0  0  0  0  2  0  0  0  0  0  0
  185.9600  178.8740  142.3920 C   0  0  0  0  0  2  0  0  0  0  0  0
  192.4010  174.8440  147.2260 O   0  0  0  0  0  1  0  0  0  0  0  0
  190.8740  175.5610  142.5250 C   0  0  1  0  0  3  0  0  0  0  0  0
  193.7060  173.5650  144.0390 C   0  0  0  0  0  3  0  0  0  0  0  0
  191.5530  175.1380  144.9500 C   0  0  0  0  0  0  0  0  0  0  0  0
  189.7800  176.5290  143.0280 C   0  0  1  0  0  3  0  0  0  0  0  0
  188.1840  174.8510  140.3420 O   0  0  0  0  0  0  0  0  0  0  0  0
  188.6850  176.3790  142.0770 N   0  0  0  0  0  0  0  0  0  0  0  0
  185.6850  178.2910  141.0160 C   0  0  0  0  0  2  0  0  0  0  0  0
  186.2590  176.1600  143.9270 C   0  0  0  0  0  1  0  0  0  0  0  0
  192.8190  174.1340  143.1280 C   0  0  0  0  0  3  0  0  0  0  0  0
  191.7480  174.9210  143.5680 C   0  0  0  0  0  0  0  0  0  0  0  0
  187.0440  177.4530  144.1430 C   0  0  2  0  0  3  0  0  0  0  0  0
  190.0670  177.9160  147.5870 C   0  0  0  0  0  2  0  0  0  0  0  0
  191.1900  178.6650  149.5310 F   0  0  0  0  0  0  0  0  0  0  0  0
  191.0720  177.5870  148.6730 C   0  0  0  0  0  2  0  0  0  0  0  0
  1 19  1  6  0  0  0
  1  5  1  0  0  0  0
  2 16  1  0  0  0  0
  3 17  1  0  0  0  0
  4 12  1  0  0  0  0
  4  1  1  0  0  0  0
  5 11  1  0  0  0  0
  7 27  1  0  0  0  0
  8  6  1  0  0  0  0
  8 11  1  0  0  0  0
  9 22  1  0  0  0  0
  9  7  1  0  0  0  0
 10  3  1  0  0  0  0
 10 22  1  0  0  0  0
 11 28  1  0  0  0  0
 12  8  1  0  0  0  0
 13  2  1  0  0  0  0
 14 23  1  0  0  0  0
 14  9  1  0  0  0  0
 15  7  1  0  0  0  0
 17 20  1  0  0  0  0
 17 26  1  0  0  0  0
 18 13  2  0  0  0  0
 19  2  2  0  0  0  0
 20  4  1  0  0  0  0
 21 10  2  0  0  0  0
 22 20  1  0  0  0  0
 23 15  1  0  0  0  0
 24 27  1  0  0  0  0
 25 26  2  0  0  0  0
 25 18  1  0  0  0  0
 26 19  1  0  0  0  0
 27 12  1  0  0  0  0
 28 30  1  0  0  0  0
 30 29  1  0  0  0  0
M  END
>  <MODEL>
5

>  <REMARK>
 VINA RESULT:      -7.4      2.686      6.951
  Name = 
  2 active torsions:
  status: ('A' for Active; 'I' for Inactive)
    1  A    between atoms: C_11  and  C_28
    2  A    between atoms: C_28  and  C_30
                            x       y       z     vdW  Elec       q    Type
                         _______ _______ _______ _____ _____    ______ ____

>  <TORSDO>
F 2

$$$$
=
 OpenBabel11112416153D

 30 35  0  0  1  0  0  0  0  0999 V2000
  188.1790  176.7110  145.6240 C   0  0  1  0  0  3  0  0  0  0  0  0
  186.6080  178.2580  146.9030 C   0  0  0  0  0  0  0  0  0  0  0  0
  185.9590  177.2980  142.2200 C   0  0  0  0  0  2  0  0  0  0  0  0
  188.5490  176.3440  144.1760 C   0  0  1  0  0  3  0  0  0  0  0  0
  189.2550  177.4040  146.2240 O   0  0  0  0  0  0  0  0  0  0  0  0
  191.8880  175.0430  145.3240 O   0  0  0  0  0  1  0  0  0  0  0  0
  189.5060  173.9040  142.1730 C   0  0  1  0  0  3  0  0  0  0  0  0
  190.8790  175.9850  145.1030 C   0  0  2  0  0  3  0  0  0  0  0  0
  188.2430  174.3740  141.4470 C   0  0  2  0  0  3  0  0  0  0  0  0
  186.8410  176.5210  141.3330 C   0  0  0  0  0  0  0  0  0  0  0  0
  190.3270  176.5060  146.4370 C   0  0  2  0  0  3  0  0  0  0  0  0
  189.7670  175.3950  144.2310 C   0  0  2  0  0  3  0  0  0  0  0  0
  185.3940  178.9370  147.0230 C   0  0  0  0  0  3  0  0  0  0  0  0
  188.6600  174.5280  139.9990 C   0  0  0  0  0  2  0  0  0  0  0  0
  190.3570  173.2050  141.1230 C   0  0  0  0  0  2  0  0  0  0  0  0
  187.5110  178.3300  147.9580 O   0  0  0  0  0  1  0  0  0  0  0  0
  186.0750  176.5240  143.5280 C   0  0  1  0  0  3  0  0  0  0  0  0
  184.4370  178.8540  146.0150 C   0  0  0  0  0  3  0  0  0  0  0  0
  186.8960  177.5060  145.7380 C   0  0  0  0  0  0  0  0  0  0  0  0
  187.3700  175.6840  143.4520 C   0  0  1  0  0  3  0  0  0  0  0  0
  186.8600  176.6740  140.0840 O   0  0  0  0  0  0  0  0  0  0  0  0
  187.6710  175.5950  142.0280 N   0  0  0  0  0  0  0  0  0  0  0  0
  189.6970  173.4500  139.7760 C   0  0  0  0  0  2  0  0  0  0  0  0
  190.6680  176.2040  141.9700 C   0  0  0  0  0  1  0  0  0  0  0  0
  184.6880  178.0780  144.8860 C   0  0  0  0  0  3  0  0  0  0  0  0
  185.9030  177.3990  144.7380 C   0  0  0  0  0  0  0  0  0  0  0  0
  190.3310  175.0070  142.8580 C   0  0  2  0  0  3  0  0  0  0  0  0
  189.9850  175.3940  147.4350 C   0  0  0  0  0  2  0  0  0  0  0  0
  191.4430  176.5580  148.8900 F   0  0  0  0  0  0  0  0  0  0  0  0
  191.0640  175.2900  148.4930 C   0  0  0  0  0  2  0  0  0  0  0  0
  1 19  1  6  0  0  0
  1  5  1  0  0  0  0
  2 13  1  0  0  0  0
  2 16  1  0  0  0  0
  3 17  1  0  0  0  0
  4 12  1  0  0  0  0
  4  1  1  0  0  0  0
  5 11  1  0  0  0  0
  7 27  1  0  0  0  0
  8  6  1  0  0  0  0
  8 11  1  0  0  0  0
  9 22  1  0  0  0  0
  9  7  1  0  0  0  0
 10 22  1  0  0  0  0
 10  3  1  0  0  0  0
 11 28  1  0  0  0  0
 12  8  1  0  0  0  0
 14  9  1  0  0  0  0
 15  7  1  0  0  0  0
 17 26  1  0  0  0  0
 18 13  2  0  0  0  0
 19  2  2  0  0  0  0
 20 17  1  0  0  0  0
 20  4  1  0  0  0  0
 21 10  2  0  0  0  0
 22 20  1  0  0  0  0
 23 14  1  0  0  0  0
 23 15  1  0  0  0  0
 24 27  1  0  0  0  0
 25 18  1  0  0  0  0
 26 25  2  0  0  0  0
 26 19  1  0  0  0  0
 27 12  1  0  0  0  0
 28 30  1  0  0  0  0
 30 29  1  0  0  0  0
M  END
>  <MODEL>
6

>  <REMARK>
 VINA RESULT:      -7.4      2.706      5.107
  Name = 
  2 active torsions:
  status: ('A' for Active; 'I' for Inactive)
    1  A    between atoms: C_11  and  C_28
    2  A    between atoms: C_28  and  C_30
                            x       y       z     vdW  Elec       q    Type
                         _______ _______ _______ _____ _____    ______ ____

>  <TORSDO>
F 2

$$$$
=
 OpenBabel11112416153D

 30 35  0  0  1  0  0  0  0  0999 V2000
  189.1410  175.7070  143.9720 C   0  0  1  0  0  3  0  0  0  0  0  0
  191.1930  174.9350  145.2700 C   0  0  0  0  0  0  0  0  0  0  0  0
  187.8700  177.8080  147.2640 C   0  0  0  0  0  2  0  0  0  0  0  0
  188.0320  176.7720  144.0480 C   0  0  1  0  0  3  0  0  0  0  0  0
  190.0060  176.0030  142.8950 O   0  0  0  0  0  0  0  0  0  0  0  0
  187.4350  176.4600  140.3460 O   0  0  0  0  0  1  0  0  0  0  0  0
  184.8600  177.4140  143.4050 C   0  0  1  0  0  3  0  0  0  0  0  0
  188.1440  176.7410  141.5170 C   0  0  2  0  0  3  0  0  0  0  0  0
  184.9100  177.7450  144.8990 C   0  0  2  0  0  3  0  0  0  0  0  0
  186.7030  178.4190  146.6070 C   0  0  0  0  0  0  0  0  0  0  0  0
  189.3270  175.7750  141.6750 C   0  0  2  0  0  3  0  0  0  0  0  0
  187.2190  176.6930  142.7360 C   0  0  2  0  0  3  0  0  0  0  0  0
  191.8750  174.7400  146.4730 C   0  0  0  0  0  3  0  0  0  0  0  0
  184.2360  179.0970  145.0200 C   0  0  0  0  0  2  0  0  0  0  0  0
  183.6710  178.1800  142.8450 C   0  0  0  0  0  2  0  0  0  0  0  0
  191.7910  174.4950  144.0950 O   0  0  0  0  0  1  0  0  0  0  0  0
  187.9270  176.4430  146.5870 C   0  0  1  0  0  3  0  0  0  0  0  0
  191.2950  175.1180  147.6810 C   0  0  0  0  0  3  0  0  0  0  0  0
  189.9180  175.5520  145.2610 C   0  0  0  0  0  0  0  0  0  0  0  0
  187.1300  176.5500  145.2680 C   0  0  1  0  0  3  0  0  0  0  0  0
  186.1520  179.4690  147.0310 O   0  0  0  0  0  0  0  0  0  0  0  0
  186.2710  177.7150  145.4470 N   0  0  0  0  0  0  0  0  0  0  0  0
  183.1700  179.0990  143.9470 C   0  0  0  0  0  2  0  0  0  0  0  0
  186.6350  179.1910  142.7930 C   0  0  0  0  0  1  0  0  0  0  0  0
  190.0210  175.6810  147.6910 C   0  0  0  0  0  3  0  0  0  0  0  0
  189.3250  175.8980  146.4960 C   0  0  0  0  0  0  0  0  0  0  0  0
  186.1260  177.7620  142.6030 C   0  0  2  0  0  3  0  0  0  0  0  0
  188.9490  174.3040  141.4690 C   0  0  0  0  0  2  0  0  0  0  0  0
  190.7080  172.7430  141.7290 F   0  0  0  0  0  0  0  0  0  0  0  0
  190.0880  173.5600  140.8020 C   0  0  0  0  0  2  0  0  0  0  0  0
  1  5  1  6  0  0  0
  1  4  1  0  0  0  0
  1 19  1  0  0  0  0
  2 13  1  0  0  0  0
  4 20  1  0  0  0  0
  6  8  1  0  0  0  0
  7  9  1  0  0  0  0
  8 11  1  0  0  0  0
  8 12  1  0  0  0  0
  9 14  1  0  0  0  0
  9 22  1  0  0  0  0
 10 21  2  0  0  0  0
 10  3  1  0  0  0  0
 11  5  1  0  0  0  0
 12  4  1  0  0  0  0
 13 18  2  0  0  0  0
 15  7  1  0  0  0  0
 15 23  1  0  0  0  0
 16  2  1  0  0  0  0
 17  3  1  0  0  0  0
 18 25  1  0  0  0  0
 19  2  2  0  0  0  0
 19 26  1  0  0  0  0
 20 22  1  0  0  0  0
 20 17  1  0  0  0  0
 22 10  1  0  0  0  0
 23 14  1  0  0  0  0
 26 17  1  0  0  0  0
 26 25  2  0  0  0  0
 27 12  1  0  0  0  0
 27 24  1  0  0  0  0
 27  7  1  0  0  0  0
 28 11  1  0  0  0  0
 30 28  1  0  0  0  0
 30 29  1  0  0  0  0
M  END
>  <MODEL>
7

>  <REMARK>
 VINA RESULT:      -7.4      2.461      5.775
  Name = 
  2 active torsions:
  status: ('A' for Active; 'I' for Inactive)
    1  A    between atoms: C_11  and  C_28
    2  A    between atoms: C_28  and  C_30
                            x       y       z     vdW  Elec       q    Type
                         _______ _______ _______ _____ _____    ______ ____

>  <TORSDO>
F 2

$$$$
=
 OpenBabel11112416153D

 30 35  0  0  1  0  0  0  0  0999 V2000
  186.6630  177.4480  144.0720 C   0  0  1  0  0  3  0  0  0  0  0  0
  185.4990  178.0580  141.8880 C   0  0  0  0  0  0  0  0  0  0  0  0
  189.9590  176.2190  141.9520 C   0  0  0  0  0  2  0  0  0  0  0  0
  188.0710  177.1320  144.6070 C   0  0  1  0  0  3  0  0  0  0  0  0
  186.2340  178.6950  144.5810 O   0  0  0  0  0  0  0  0  0  0  0  0
  186.9870  178.0470  148.0920 O   0  0  0  0  0  1  0  0  0  0  0  0
  189.7920  175.3430  146.7810 C   0  0  1  0  0  3  0  0  0  0  0  0
  187.2630  178.2420  146.7360 C   0  0  2  0  0  3  0  0  0  0  0  0
  190.4870  174.9360  145.4790 C   0  0  2  0  0  3  0  0  0  0  0  0
  190.7910  175.9280  143.1310 C   0  0  0  0  0  0  0  0  0  0  0  0
  185.9760  178.5690  145.9660 C   0  0  2  0  0  3  0  0  0  0  0  0
  187.9720  177.0200  146.1450 C   0  0  2  0  0  3  0  0  0  0  0  0
  185.3890  177.9750  140.4990 C   0  0  0  0  0  3  0  0  0  0  0  0
  191.9680  175.0760  145.7670 C   0  0  0  0  0  2  0  0  0  0  0  0
  190.7950  175.0750  147.8930 C   0  0  0  0  0  2  0  0  0  0  0  0
  184.5250  178.7640  142.5860 O   0  0  0  0  0  1  0  0  0  0  0  0
  188.5700  175.8370  142.4520 C   0  0  1  0  0  3  0  0  0  0  0  0
  186.3100  177.2360  139.7620 C   0  0  0  0  0  3  0  0  0  0  0  0
  186.5700  177.4210  142.5610 C   0  0  0  0  0  0  0  0  0  0  0  0
  188.6210  175.8380  143.9960 C   0  0  1  0  0  3  0  0  0  0  0  0
  192.0480  175.8800  143.0840 O   0  0  0  0  0  0  0  0  0  0  0  0
  190.0370  175.7180  144.3200 N   0  0  0  0  0  0  0  0  0  0  0  0
  192.1150  174.7180  147.2290 C   0  0  0  0  0  2  0  0  0  0  0  0
  190.3760  177.8450  146.4920 C   0  0  0  0  0  1  0  0  0  0  0  0
  187.3400  176.5640  140.4160 C   0  0  0  0  0  3  0  0  0  0  0  0
  187.4780  176.6450  141.8070 C   0  0  0  0  0  0  0  0  0  0  0  0
  189.3160  176.8040  146.8530 C   0  0  2  0  0  3  0  0  0  0  0  0
  184.8190  177.6120  146.2730 C   0  0  0  0  0  2  0  0  0  0  0  0
  183.1730  179.1000  145.4510 F   0  0  0  0  0  0  0  0  0  0  0  0
  183.5580  178.3960  146.5760 C   0  0  0  0  0  2  0  0  0  0  0  0
  1 19  1  6  0  0  0
  1  5  1  0  0  0  0
  1  4  1  0  0  0  0
  2 19  1  0  0  0  0
  2 16  1  0  0  0  0
  3 17  1  0  0  0  0
  3 10  1  0  0  0  0
  4 12  1  0  0  0  0
  5 11  1  0  0  0  0
  7 27  1  0  0  0  0
  7 15  1  0  0  0  0
  8  6  1  0  0  0  0
  9 14  1  0  0  0  0
  9  7  1  0  0  0  0
 10 22  1  0  0  0  0
 11 28  1  0  0  0  0
 11  8  1  0  0  0  0
 12  8  1  0  0  0  0
 12 27  1  0  0  0  0
 13  2  2  0  0  0  0
 14 23  1  0  0  0  0
 17 20  1  0  0  0  0
 18 25  2  0  0  0  0
 18 13  1  0  0  0  0
 20 22  1  0  0  0  0
 20  4  1  0  0  0  0
 21 10  2  0  0  0  0
 22  9  1  0  0  0  0
 23 15  1  0  0  0  0
 24 27  1  0  0  0  0
 25 26  1  0  0  0  0
 26 17  1  0  0  0  0
 26 19  2  0  0  0  0
 28 30  1  0  0  0  0
 29 30  1  0  0  0  0
M  END
>  <MODEL>
8

>  <REMARK>
 VINA RESULT:      -7.3      1.964      4.584
  Name = 
  2 active torsions:
  status: ('A' for Active; 'I' for Inactive)
    1  A    between atoms: C_11  and  C_28
    2  A    between atoms: C_28  and  C_30
                            x       y       z     vdW  Elec       q    Type
                         _______ _______ _______ _____ _____    ______ ____

>  <TORSDO>
F 2

$$$$
=
 OpenBabel11112416153D

 30 35  0  0  1  0  0  0  0  0999 V2000
  189.5410  175.0790  142.9900 C   0  0  1  0  0  3  0  0  0  0  0  0
  187.1690  175.9890  143.1880 C   0  0  0  0  0  0  0  0  0  0  0  0
  190.5420  176.9740  146.4930 C   0  0  0  0  0  2  0  0  0  0  0  0
  190.7990  174.8750  143.8520 C   0  0  1  0  0  3  0  0  0  0  0  0
  188.9710  173.8230  142.6840 O   0  0  0  0  0  0  0  0  0  0  0  0
  192.0200  172.2060  141.4980 O   0  0  0  0  0  1  0  0  0  0  0  0
  194.0990  174.8610  143.8480 C   0  0  1  0  0  3  0  0  0  0  0  0
  191.1680  172.8160  142.4230 C   0  0  2  0  0  3  0  0  0  0  0  0
  193.8300  175.8820  144.9580 C   0  0  2  0  0  3  0  0  0  0  0  0
  191.9090  176.4320  146.5680 C   0  0  0  0  0  0  0  0  0  0  0  0
  189.8130  173.1370  141.7770 C   0  0  2  0  0  3  0  0  0  0  0  0
  191.8170  174.0730  143.0110 C   0  0  2  0  0  3  0  0  0  0  0  0
  186.2460  176.8830  143.7350 C   0  0  0  0  0  3  0  0  0  0  0  0
  194.7170  175.4490  146.1080 C   0  0  0  0  0  2  0  0  0  0  0  0
  195.4980  174.3230  144.1040 C   0  0  0  0  0  2  0  0  0  0  0  0
  186.7320  175.1120  142.2020 O   0  0  0  0  0  1  0  0  0  0  0  0
  190.3530  177.1290  144.9880 C   0  0  1  0  0  3  0  0  0  0  0  0
  186.6460  177.8150  144.6870 C   0  0  0  0  0  3  0  0  0  0  0  0
  188.5170  175.9970  143.6230 C   0  0  0  0  0  0  0  0  0  0  0  0
  191.3920  176.2180  144.2980 C   0  0  1  0  0  3  0  0  0  0  0  0
  192.5610  176.3700  147.6430 O   0  0  0  0  0  0  0  0  0  0  0  0
  192.4090  175.9790  145.3140 N   0  0  0  0  0  0  0  0  0  0  0  0
  195.9470  174.8630  145.4520 C   0  0  0  0  0  2  0  0  0  0  0  0
  192.8510  172.9620  145.0790 C   0  0  0  0  0  1  0  0  0  0  0  0
  187.9800  177.8650  145.0880 C   0  0  0  0  0  3  0  0  0  0  0  0
  188.9190  176.9700  144.5630 C   0  0  0  0  0  0  0  0  0  0  0  0
  193.1010  173.6940  143.7610 C   0  0  2  0  0  3  0  0  0  0  0  0
  189.9320  173.8440  140.4220 C   0  0  0  0  0  2  0  0  0  0  0  0
  188.0730  174.8810  139.3900 F   0  0  0  0  0  0  0  0  0  0  0  0
  188.6620  173.6520  139.6190 C   0  0  0  0  0  2  0  0  0  0  0  0
  1  5  1  1  0  0  0
  1 19  1  0  0  0  0
  1  4  1  0  0  0  0
  2 19  2  0  0  0  0
  2 13  1  0  0  0  0
  3 10  1  0  0  0  0
  4 20  1  0  0  0  0
  6  8  1  0  0  0  0
  7 15  1  0  0  0  0
  7  9  1  0  0  0  0
  8 12  1  0  0  0  0
  9 22  1  0  0  0  0
  9 14  1  0  0  0  0
 10 21  2  0  0  0  0
 11  8  1  0  0  0  0
 11  5  1  0  0  0  0
 12 27  1  0  0  0  0
 12  4  1  0  0  0  0
 13 18  2  0  0  0  0
 15 23  1  0  0  0  0
 16  2  1  0  0  0  0
 17  3  1  0  0  0  0
 18 25  1  0  0  0  0
 19 26  1  0  0  0  0
 20 17  1  0  0  0  0
 20 22  1  0  0  0  0
 22 10  1  0  0  0  0
 23 14  1  0  0  0  0
 26 17  1  0  0  0  0
 26 25  2  0  0  0  0
 27  7  1  0  0  0  0
 27 24  1  0  0  0  0
 28 11  1  0  0  0  0
 29 30  1  0  0  0  0
 30 28  1  0  0  0  0
M  END
>  <MODEL>
9

>  <REMARK>
 VINA RESULT:      -7.2      2.071      3.110
  Name = 
  2 active torsions:
  status: ('A' for Active; 'I' for Inactive)
    1  A    between atoms: C_11  and  C_28
    2  A    between atoms: C_28  and  C_30
                            x       y       z     vdW  Elec       q    Type
                         _______ _______ _______ _____ _____    ______ ____

>  <TORSDO>
F 2

$$$$
