=
 OpenBabel11112416503D

 31 35  0  0  1  0  0  0  0  0999 V2000
  194.5400  176.0810  144.6240 C   0  0  0  0  0  0  0  0  0  0  0  0
  190.9770  176.9730  143.6280 C   0  0  2  0  0  3  0  0  0  0  0  0
  190.4640  175.8200  142.7870 C   0  0  0  0  0  0  0  0  0  0  0  0
  190.8010  173.7950  141.3460 C   0  0  1  0  0  3  0  0  0  0  0  0
  192.1770  176.6330  144.4840 C   0  0  0  0  0  0  0  0  0  0  0  0
  194.4250  175.9260  146.0070 C   0  0  0  0  0  3  0  0  0  0  0  0
  191.2740  174.8570  142.3050 C   0  0  0  0  0  3  0  0  0  0  0  0
  189.5710  176.8120  145.7220 C   0  0  2  0  0  3  0  0  0  0  0  0
  195.7640  175.8800  144.0020 O   0  0  0  0  0  1  0  0  0  0  0  0
  188.5990  177.1910  142.3070 O   0  0  0  0  0  0  0  0  0  0  0  0
  191.5200  172.2270  141.7770 Cl  0  0  0  0  0  0  0  0  0  0  0  0
  190.8070  176.8300  146.6140 C   0  0  0  0  0  2  0  0  0  0  0  0
  189.8230  177.6200  144.4360 C   0  0  2  0  0  3  0  0  0  0  0  0
  193.4210  176.4370  143.8670 C   0  0  0  0  0  3  0  0  0  0  0  0
  189.2790  173.6770  141.2950 C   0  0  0  0  0  2  0  0  0  0  0  0
  192.0680  176.4820  145.8820 C   0  0  0  0  0  0  0  0  0  0  0  0
  193.1940  176.1370  146.6330 C   0  0  0  0  0  3  0  0  0  0  0  0
  188.5150  177.7360  143.6070 C   0  0  0  0  0  2  0  0  0  0  0  0
  188.9910  175.8520  142.4480 C   0  0  1  0  0  3  0  0  0  0  0  0
  188.6630  175.0650  141.1830 C   0  0  0  0  0  2  0  0  0  0  0  0
  188.4480  177.3510  146.4850 N   0  0  0  0  0  2  0  0  0  0  0  0
  188.0820  175.2370  147.6390 C   0  0  0  0  0  1  0  0  0  0  0  0
  187.4820  176.2800  146.7040 C   0  0  1  0  0  3  0  0  0  0  0  0
  184.9400  178.7710  145.4450 C   0  0  1  0  0  3  0  0  0  0  0  0
  185.0460  176.5920  146.5100 O   0  0  0  0  0  0  0  0  0  0  0  0
  187.6360  178.8880  148.2810 O   0  0  0  0  0  0  0  0  0  0  0  0
  184.8590  179.4160  144.0780 C   0  0  0  0  0  1  0  0  0  0  0  0
  185.1980  177.2740  145.2830 C   0  0  0  0  0  2  0  0  0  0  0  0
  186.2170  178.5840  147.8240 S   0  0  2  0  0  0  0  0  0  0  0  0
  186.1800  176.8310  147.3250 C   0  0  2  0  0  3  0  0  0  0  0  0
  186.0710  179.4110  146.2330 C   0  0  0  0  0  2  0  0  0  0  0  0
  1  6  1  0  0  0  0
  2  3  1  1  0  0  0
  2 13  1  0  0  0  0
  2  5  1  0  0  0  0
  4 11  1  1  0  0  0
  4  7  1  0  0  0  0
  5 16  2  0  0  0  0
  6 17  2  0  0  0  0
  7  3  2  0  0  0  0
  8 21  1  1  0  0  0
  8 12  1  0  0  0  0
  9  1  1  0  0  0  0
 10 19  1  0  0  0  0
 10 18  1  0  0  0  0
 13 18  1  6  0  0  0
 13  8  1  0  0  0  0
 14  5  1  0  0  0  0
 14  1  2  0  0  0  0
 15  4  1  0  0  0  0
 16 12  1  0  0  0  0
 16 17  1  0  0  0  0
 19 20  1  6  0  0  0
 19  3  1  0  0  0  0
 20 15  1  0  0  0  0
 21 23  1  0  0  0  0
 23 22  1  1  0  0  0
 24 27  1  6  0  0  0
 24 31  1  0  0  0  0
 25 30  1  0  0  0  0
 28 24  1  0  0  0  0
 28 25  1  0  0  0  0
 29 26  2  6  0  0  0
 30 23  1  6  0  0  0
 30 29  1  0  0  0  0
 31 29  1  0  0  0  0
M  END
>  <MODEL>
1

>  <REMARK>
 VINA RESULT:      -8.1      0.000      0.000
  Name = 
  3 active torsions:
  status: ('A' for Active; 'I' for Inactive)
    1  A    between atoms: C_5  and  N_16
    2  A    between atoms: C_5  and  C_30
    3  A    between atoms: C_10  and  N_16
                            x       y       z     vdW  Elec       q    Type
                         _______ _______ _______ _____ _____    ______ ____

>  <TORSDO>
F 3

$$$$
=
 OpenBabel11112416503D

 31 35  0  0  1  0  0  0  0  0999 V2000
  186.3500  177.8990  147.1710 C   0  0  0  0  0  0  0  0  0  0  0  0
  189.1160  177.7680  144.5610 C   0  0  2  0  0  3  0  0  0  0  0  0
  190.3120  177.1210  145.2330 C   0  0  0  0  0  0  0  0  0  0  0  0
  191.6220  176.4320  147.2580 C   0  0  1  0  0  3  0  0  0  0  0  0
  187.7980  177.5130  145.2580 C   0  0  0  0  0  0  0  0  0  0  0  0
  185.4040  177.0230  146.6360 C   0  0  0  0  0  3  0  0  0  0  0  0
  190.3800  176.9320  146.5650 C   0  0  0  0  0  3  0  0  0  0  0  0
  188.4270  176.0370  142.8530 C   0  0  2  0  0  3  0  0  0  0  0  0
  186.1090  178.5230  148.3870 O   0  0  0  0  0  1  0  0  0  0  0  0
  191.5390  177.7290  143.3060 O   0  0  0  0  0  0  0  0  0  0  0  0
  191.1800  175.2710  148.5290 Cl  0  0  0  0  0  0  0  0  0  0  0  0
  186.9840  176.0530  143.3450 C   0  0  0  0  0  2  0  0  0  0  0  0
  189.0780  177.4180  143.0510 C   0  0  2  0  0  3  0  0  0  0  0  0
  187.5400  178.1460  146.4820 C   0  0  0  0  0  3  0  0  0  0  0  0
  192.6240  175.7980  146.2940 C   0  0  0  0  0  2  0  0  0  0  0  0
  186.8360  176.6340  144.7180 C   0  0  0  0  0  0  0  0  0  0  0  0
  185.6430  176.4010  145.4080 C   0  0  0  0  0  3  0  0  0  0  0  0
  190.4900  177.4460  142.4040 C   0  0  0  0  0  2  0  0  0  0  0  0
  191.4710  176.7710  144.3280 C   0  0  1  0  0  3  0  0  0  0  0  0
  192.7980  176.6950  145.0760 C   0  0  0  0  0  2  0  0  0  0  0  0
  188.4280  175.6380  141.4480 N   0  0  0  0  0  2  0  0  0  0  0  0
  189.6910  173.9500  142.6680 C   0  0  0  0  0  1  0  0  0  0  0  0
  189.3150  174.4900  141.2940 C   0  0  1  0  0  3  0  0  0  0  0  0
  190.5100  172.3860  138.3960 C   0  0  1  0  0  3  0  0  0  0  0  0
  189.3510  172.1530  140.5170 O   0  0  0  0  0  0  0  0  0  0  0  0
  187.8790  175.2680  138.7160 O   0  0  0  0  0  0  0  0  0  0  0  0
  191.8960  172.3250  137.7930 C   0  0  0  0  0  1  0  0  0  0  0  0
  190.6170  172.3360  139.9180 C   0  0  0  0  0  2  0  0  0  0  0  0
  188.2200  173.7860  138.7500 S   0  0  2  0  0  0  0  0  0  0  0  0
  188.6310  173.3720  140.4770 C   0  0  2  0  0  3  0  0  0  0  0  0
  189.8350  173.6780  137.9640 C   0  0  0  0  0  2  0  0  0  0  0  0
  1  9  1  0  0  0  0
  2  3  1  1  0  0  0
  2  5  1  0  0  0  0
  3  7  2  0  0  0  0
  4 11  1  1  0  0  0
  5 14  1  0  0  0  0
  6  1  1  0  0  0  0
  7  4  1  0  0  0  0
  8 21  1  6  0  0  0
  8 13  1  0  0  0  0
  8 12  1  0  0  0  0
 10 19  1  0  0  0  0
 12 16  1  0  0  0  0
 13 18  1  1  0  0  0
 13  2  1  0  0  0  0
 14  1  2  0  0  0  0
 15  4  1  0  0  0  0
 16  5  2  0  0  0  0
 16 17  1  0  0  0  0
 17  6  2  0  0  0  0
 18 10  1  0  0  0  0
 19 20  1  1  0  0  0
 19  3  1  0  0  0  0
 20 15  1  0  0  0  0
 23 21  1  0  0  0  0
 23 22  1  1  0  0  0
 24 27  1  6  0  0  0
 24 28  1  0  0  0  0
 28 25  1  0  0  0  0
 29 26  2  1  0  0  0
 29 30  1  0  0  0  0
 30 25  1  0  0  0  0
 30 23  1  6  0  0  0
 31 24  1  0  0  0  0
 31 29  1  0  0  0  0
M  END
>  <MODEL>
2

>  <REMARK>
 VINA RESULT:      -7.9      3.233      7.206
  Name = 
  3 active torsions:
  status: ('A' for Active; 'I' for Inactive)
    1  A    between atoms: C_5  and  N_16
    2  A    between atoms: C_5  and  C_30
    3  A    between atoms: C_10  and  N_16
                            x       y       z     vdW  Elec       q    Type
                         _______ _______ _______ _____ _____    ______ ____

>  <TORSDO>
F 3

$$$$
=
 OpenBabel11112416503D

 31 35  0  0  1  0  0  0  0  0999 V2000
  196.8250  170.8420  145.4420 C   0  0  0  0  0  0  0  0  0  0  0  0
  196.0050  174.5390  145.0710 C   0  0  2  0  0  3  0  0  0  0  0  0
  196.2800  174.8980  143.6230 C   0  0  0  0  0  0  0  0  0  0  0  0
  197.3610  174.4890  141.3970 C   0  0  1  0  0  3  0  0  0  0  0  0
  195.8340  173.0570  145.3230 C   0  0  0  0  0  0  0  0  0  0  0  0
  195.5700  170.2900  145.7050 C   0  0  0  0  0  3  0  0  0  0  0  0
  196.9510  174.0800  142.7880 C   0  0  0  0  0  3  0  0  0  0  0  0
  193.4920  174.7490  145.2350 C   0  0  2  0  0  3  0  0  0  0  0  0
  197.9410  170.0200  145.3630 O   0  0  0  0  0  1  0  0  0  0  0  0
  195.9560  177.1480  144.2720 O   0  0  0  0  0  0  0  0  0  0  0  0
  197.1170  173.1350  140.2710 Cl  0  0  0  0  0  0  0  0  0  0  0  0
  193.3640  173.3540  145.8350 C   0  0  0  0  0  2  0  0  0  0  0  0
  194.8350  175.3860  145.6340 C   0  0  2  0  0  3  0  0  0  0  0  0
  196.9570  172.2200  145.2550 C   0  0  0  0  0  3  0  0  0  0  0  0
  196.6150  175.7260  140.8980 C   0  0  0  0  0  2  0  0  0  0  0  0
  194.5690  172.4960  145.5960 C   0  0  0  0  0  0  0  0  0  0  0  0
  194.4480  171.1180  145.7920 C   0  0  0  0  0  3  0  0  0  0  0  0
  194.8950  176.8630  145.1590 C   0  0  0  0  0  2  0  0  0  0  0  0
  195.8280  176.2720  143.1840 C   0  0  1  0  0  3  0  0  0  0  0  0
  196.6130  176.7930  141.9850 C   0  0  0  0  0  2  0  0  0  0  0  0
  192.3590  175.5510  145.6920 N   0  0  0  0  0  2  0  0  0  0  0  0
  192.0750  175.2520  143.2910 C   0  0  0  0  0  1  0  0  0  0  0  0
  191.4060  175.6730  144.5940 C   0  0  1  0  0  3  0  0  0  0  0  0
  187.7460  176.5010  145.0030 C   0  0  1  0  0  3  0  0  0  0  0  0
  189.1830  174.9350  143.8310 O   0  0  0  0  0  0  0  0  0  0  0  0
  190.5040  175.2320  147.4760 O   0  0  0  0  0  0  0  0  0  0  0  0
  187.0640  177.8400  144.8270 C   0  0  0  0  0  1  0  0  0  0  0  0
  188.7030  176.2630  143.8380 C   0  0  0  0  0  2  0  0  0  0  0  0
  189.3900  174.9390  146.4810 S   0  0  2  0  0  0  0  0  0  0  0  0
  190.1670  174.7850  144.8390 C   0  0  2  0  0  3  0  0  0  0  0  0
  188.5140  176.5020  146.3150 C   0  0  0  0  0  2  0  0  0  0  0  0
  1  6  1  0  0  0  0
  2  3  1  6  0  0  0
  2  5  1  0  0  0  0
  2 13  1  0  0  0  0
  4 11  1  6  0  0  0
  4  7  1  0  0  0  0
  5 16  2  0  0  0  0
  6 17  2  0  0  0  0
  7  3  2  0  0  0  0
  8 13  1  0  0  0  0
  8 21  1  1  0  0  0
  8 12  1  0  0  0  0
  9  1  1  0  0  0  0
 10 18  1  0  0  0  0
 13 18  1  6  0  0  0
 14  5  1  0  0  0  0
 14  1  2  0  0  0  0
 15  4  1  0  0  0  0
 15 20  1  0  0  0  0
 16 17  1  0  0  0  0
 16 12  1  0  0  0  0
 19 20  1  6  0  0  0
 19  3  1  0  0  0  0
 19 10  1  0  0  0  0
 23 22  1  6  0  0  0
 23 21  1  0  0  0  0
 24 27  1  6  0  0  0
 24 31  1  0  0  0  0
 25 28  1  0  0  0  0
 25 30  1  0  0  0  0
 28 24  1  0  0  0  0
 29 26  2  1  0  0  0
 30 23  1  6  0  0  0
 30 29  1  0  0  0  0
 31 29  1  0  0  0  0
M  END
>  <MODEL>
3

>  <REMARK>
 VINA RESULT:      -7.9      3.556      5.584
  Name = 
  3 active torsions:
  status: ('A' for Active; 'I' for Inactive)
    1  A    between atoms: C_5  and  N_16
    2  A    between atoms: C_5  and  C_30
    3  A    between atoms: C_10  and  N_16
                            x       y       z     vdW  Elec       q    Type
                         _______ _______ _______ _____ _____    ______ ____

>  <TORSDO>
F 3

$$$$
=
 OpenBabel11112416503D

 31 35  0  0  1  0  0  0  0  0999 V2000
  185.4610  178.0140  147.0520 C   0  0  0  0  0  0  0  0  0  0  0  0
  187.8280  175.6710  145.2110 C   0  0  2  0  0  3  0  0  0  0  0  0
  187.6920  175.9940  143.7360 C   0  0  0  0  0  0  0  0  0  0  0  0
  186.4680  176.9670  141.7750 C   0  0  1  0  0  3  0  0  0  0  0  0
  187.3300  176.7610  146.1350 C   0  0  0  0  0  0  0  0  0  0  0  0
  186.3470  178.8160  147.7730 C   0  0  0  0  0  3  0  0  0  0  0  0
  186.7000  176.7660  143.2510 C   0  0  0  0  0  3  0  0  0  0  0  0
  190.1760  176.4410  145.7430 C   0  0  2  0  0  3  0  0  0  0  0  0
  184.0930  178.2370  147.1400 O   0  0  0  0  0  1  0  0  0  0  0  0
  189.0060  174.0690  143.3440 O   0  0  0  0  0  0  0  0  0  0  0  0
  186.0450  178.6650  141.4560 Cl  0  0  0  0  0  0  0  0  0  0  0  0
  189.6900  177.2750  146.9220 C   0  0  0  0  0  2  0  0  0  0  0  0
  189.2710  175.2120  145.5430 C   0  0  2  0  0  3  0  0  0  0  0  0
  185.9500  176.9890  146.2400 C   0  0  0  0  0  3  0  0  0  0  0  0
  187.6690  176.5580  140.9240 C   0  0  0  0  0  2  0  0  0  0  0  0
  188.2210  177.5690  146.8710 C   0  0  0  0  0  0  0  0  0  0  0  0
  187.7220  178.5870  147.6890 C   0  0  0  0  0  3  0  0  0  0  0  0
  189.8590  174.2800  144.4480 C   0  0  0  0  0  2  0  0  0  0  0  0
  188.6940  175.3310  142.8180 C   0  0  1  0  0  3  0  0  0  0  0  0
  188.1830  175.2010  141.3870 C   0  0  0  0  0  2  0  0  0  0  0  0
  191.5610  176.0540  145.9950 N   0  0  0  0  0  2  0  0  0  0  0  0
  191.9750  177.5400  144.1100 C   0  0  0  0  0  1  0  0  0  0  0  0
  192.3160  176.2030  144.7560 C   0  0  1  0  0  3  0  0  0  0  0  0
  195.1760  174.7270  142.7820 C   0  0  1  0  0  3  0  0  0  0  0  0
  194.5950  176.7480  143.9960 O   0  0  0  0  0  0  0  0  0  0  0  0
  193.4300  173.7200  146.1380 O   0  0  0  0  0  0  0  0  0  0  0  0
  195.1450  174.1340  141.3900 C   0  0  0  0  0  1  0  0  0  0  0  0
  194.3980  176.0410  142.7890 C   0  0  0  0  0  2  0  0  0  0  0  0
  194.5120  174.4890  145.3950 S   0  0  2  0  0  0  0  0  0  0  0  0
  193.8350  176.1410  145.0260 C   0  0  2  0  0  3  0  0  0  0  0  0
  194.5480  173.7450  143.7570 C   0  0  0  0  0  2  0  0  0  0  0  0
  1  9  1  0  0  0  0
  1  6  1  0  0  0  0
  2  3  1  6  0  0  0
  2 13  1  0  0  0  0
  2  5  1  0  0  0  0
  4 11  1  1  0  0  0
  4  7  1  0  0  0  0
  5 14  1  0  0  0  0
  5 16  2  0  0  0  0
  7  3  2  0  0  0  0
  8 21  1  1  0  0  0
  8 12  1  0  0  0  0
 10 18  1  0  0  0  0
 13 18  1  6  0  0  0
 13  8  1  0  0  0  0
 14  1  2  0  0  0  0
 15 20  1  0  0  0  0
 15  4  1  0  0  0  0
 16 12  1  0  0  0  0
 16 17  1  0  0  0  0
 17  6  2  0  0  0  0
 19 20  1  6  0  0  0
 19 10  1  0  0  0  0
 19  3  1  0  0  0  0
 23 22  1  1  0  0  0
 23 21  1  0  0  0  0
 24 27  1  6  0  0  0
 24 28  1  0  0  0  0
 24 31  1  0  0  0  0
 25 30  1  0  0  0  0
 28 25  1  0  0  0  0
 29 26  2  1  0  0  0
 30 23  1  6  0  0  0
 30 29  1  0  0  0  0
 31 29  1  0  0  0  0
M  END
>  <MODEL>
4

>  <REMARK>
 VINA RESULT:      -7.8      3.027      7.001
  Name = 
  3 active torsions:
  status: ('A' for Active; 'I' for Inactive)
    1  A    between atoms: C_5  and  N_16
    2  A    between atoms: C_5  and  C_30
    3  A    between atoms: C_10  and  N_16
                            x       y       z     vdW  Elec       q    Type
                         _______ _______ _______ _____ _____    ______ ____

>  <TORSDO>
F 3

$$$$
=
 OpenBabel11112416503D

 31 35  0  0  1  0  0  0  0  0999 V2000
  191.1670  171.5850  143.1540 C   0  0  0  0  0  0  0  0  0  0  0  0
  191.3050  174.2960  145.8210 C   0  0  2  0  0  3  0  0  0  0  0  0
  192.5670  175.0950  145.5580 C   0  0  0  0  0  0  0  0  0  0  0  0
  194.8500  175.3820  144.5590 C   0  0  1  0  0  3  0  0  0  0  0  0
  190.8300  173.4780  144.6400 C   0  0  0  0  0  0  0  0  0  0  0  0
  190.0440  171.9600  142.4150 C   0  0  0  0  0  3  0  0  0  0  0  0
  193.5270  174.6750  144.7110 C   0  0  0  0  0  3  0  0  0  0  0  0
  189.4710  175.9480  145.2770 C   0  0  2  0  0  3  0  0  0  0  0  0
  191.8980  170.4650  142.7840 O   0  0  0  0  0  1  0  0  0  0  0  0
  192.1500  176.1570  147.6280 O   0  0  0  0  0  0  0  0  0  0  0  0
  195.3180  175.4260  142.8450 Cl  0  0  0  0  0  0  0  0  0  0  0  0
  188.7890  174.9600  144.3390 C   0  0  0  0  0  2  0  0  0  0  0  0
  190.1940  175.2020  146.4120 C   0  0  2  0  0  3  0  0  0  0  0  0
  191.5560  172.3380  144.2640 C   0  0  0  0  0  3  0  0  0  0  0  0
  194.8350  176.7980  145.1340 C   0  0  0  0  0  2  0  0  0  0  0  0
  189.6910  173.8490  143.8950 C   0  0  0  0  0  0  0  0  0  0  0  0
  189.3030  173.0830  142.7920 C   0  0  0  0  0  3  0  0  0  0  0  0
  190.7510  176.2120  147.4530 C   0  0  0  0  0  2  0  0  0  0  0  0
  192.7300  176.3610  146.3680 C   0  0  1  0  0  3  0  0  0  0  0  0
  194.1890  176.7810  146.5130 C   0  0  0  0  0  2  0  0  0  0  0  0
  188.4570  176.8630  145.7950 N   0  0  0  0  0  2  0  0  0  0  0  0
  186.0340  176.7900  145.5520 C   0  0  0  0  0  1  0  0  0  0  0  0
  187.3670  176.9400  144.8290 C   0  0  1  0  0  3  0  0  0  0  0  0
  184.9400  178.5340  142.4150 C   0  0  1  0  0  3  0  0  0  0  0  0
  186.2610  179.0940  144.3730 O   0  0  0  0  0  0  0  0  0  0  0  0
  188.5170  176.9940  142.0020 O   0  0  0  0  0  0  0  0  0  0  0  0
  183.5630  178.0500  142.0160 C   0  0  0  0  0  1  0  0  0  0  0  0
  185.0910  178.4380  143.9310 C   0  0  0  0  0  2  0  0  0  0  0  0
  187.6220  178.1950  142.2740 S   0  0  2  0  0  0  0  0  0  0  0  0
  187.3900  178.2910  144.0790 C   0  0  2  0  0  3  0  0  0  0  0  0
  185.9890  177.6700  141.7320 C   0  0  0  0  0  2  0  0  0  0  0  0
  1 14  1  0  0  0  0
  2  5  1  6  0  0  0
  2 13  1  0  0  0  0
  3  2  1  0  0  0  0
  3 19  1  0  0  0  0
  4 11  1  6  0  0  0
  4  7  1  0  0  0  0
  4 15  1  0  0  0  0
  6 17  1  0  0  0  0
  6  1  2  0  0  0  0
  7  3  2  0  0  0  0
  8 21  1  1  0  0  0
  8 13  1  0  0  0  0
  9  1  1  0  0  0  0
 12  8  1  0  0  0  0
 13 18  1  1  0  0  0
 14  5  2  0  0  0  0
 15 20  1  0  0  0  0
 16 12  1  0  0  0  0
 16  5  1  0  0  0  0
 17 16  2  0  0  0  0
 18 10  1  0  0  0  0
 19 20  1  1  0  0  0
 19 10  1  0  0  0  0
 23 22  1  1  0  0  0
 23 21  1  0  0  0  0
 24 27  1  1  0  0  0
 24 28  1  0  0  0  0
 28 25  1  0  0  0  0
 29 26  2  1  0  0  0
 29 30  1  0  0  0  0
 30 25  1  0  0  0  0
 30 23  1  6  0  0  0
 31 29  1  0  0  0  0
 31 24  1  0  0  0  0
M  END
>  <MODEL>
5

>  <REMARK>
 VINA RESULT:      -7.6      2.751      4.761
  Name = 
  3 active torsions:
  status: ('A' for Active; 'I' for Inactive)
    1  A    between atoms: C_5  and  N_16
    2  A    between atoms: C_5  and  C_30
    3  A    between atoms: C_10  and  N_16
                            x       y       z     vdW  Elec       q    Type
                         _______ _______ _______ _____ _____    ______ ____

>  <TORSDO>
F 3

$$$$
=
 OpenBabel11112416503D

 31 35  0  0  1  0  0  0  0  0999 V2000
  187.5590  177.2780  141.1850 C   0  0  0  0  0  0  0  0  0  0  0  0
  188.8880  173.9890  142.5610 C   0  0  2  0  0  3  0  0  0  0  0  0
  189.5410  173.2670  141.3980 C   0  0  0  0  0  0  0  0  0  0  0  0
  189.8940  172.8630  138.9480 C   0  0  1  0  0  3  0  0  0  0  0  0
  188.7010  175.4740  142.3460 C   0  0  0  0  0  0  0  0  0  0  0  0
  188.3560  178.2140  141.8470 C   0  0  0  0  0  3  0  0  0  0  0  0
  189.3770  173.6590  140.1190 C   0  0  0  0  0  3  0  0  0  0  0  0
  190.8540  174.5590  144.0430 C   0  0  2  0  0  3  0  0  0  0  0  0
  186.6000  177.7020  140.2760 O   0  0  0  0  0  1  0  0  0  0  0  0
  189.7060  171.4000  142.8380 O   0  0  0  0  0  0  0  0  0  0  0  0
  190.5720  173.9590  137.7240 Cl  0  0  0  0  0  0  0  0  0  0  0  0
  190.4430  176.0250  144.1110 C   0  0  0  0  0  2  0  0  0  0  0  0
  189.6150  173.6590  143.8900 C   0  0  2  0  0  3  0  0  0  0  0  0
  187.7280  175.9140  141.4370 C   0  0  0  0  0  3  0  0  0  0  0  0
  190.9360  171.8210  139.3520 C   0  0  0  0  0  2  0  0  0  0  0  0
  189.4990  176.4240  143.0180 C   0  0  0  0  0  0  0  0  0  0  0  0
  189.3160  177.7870  142.7670 C   0  0  0  0  0  3  0  0  0  0  0  0
  190.0210  172.1620  143.9840 C   0  0  0  0  0  2  0  0  0  0  0  0
  190.3270  172.0240  141.7460 C   0  0  1  0  0  3  0  0  0  0  0  0
  190.4440  171.0560  140.5740 C   0  0  0  0  0  2  0  0  0  0  0  0
  191.6070  174.2380  145.2540 N   0  0  0  0  0  2  0  0  0  0  0  0
  192.6680  176.0450  146.4960 C   0  0  0  0  0  1  0  0  0  0  0  0
  192.7840  175.0980  145.3080 C   0  0  1  0  0  3  0  0  0  0  0  0
  196.2740  175.5770  143.9510 C   0  0  1  0  0  3  0  0  0  0  0  0
  195.1400  174.9960  146.0180 O   0  0  0  0  0  0  0  0  0  0  0  0
  193.4040  173.0410  143.1400 O   0  0  0  0  0  0  0  0  0  0  0  0
  196.8320  176.7690  143.2030 C   0  0  0  0  0  1  0  0  0  0  0  0
  195.4800  176.0660  145.1600 C   0  0  0  0  0  2  0  0  0  0  0  0
  194.6440  173.4160  143.9380 S   0  0  2  0  0  0  0  0  0  0  0  0
  194.0720  174.2590  145.4500 C   0  0  2  0  0  3  0  0  0  0  0  0
  195.3700  174.7840  143.0210 C   0  0  0  0  0  2  0  0  0  0  0  0
  1 14  2  0  0  0  0
  1  6  1  0  0  0  0
  2  3  1  6  0  0  0
  2 13  1  0  0  0  0
  3 19  1  0  0  0  0
  4 11  1  6  0  0  0
  4 15  1  0  0  0  0
  4  7  1  0  0  0  0
  5  2  1  0  0  0  0
  5 16  2  0  0  0  0
  6 17  2  0  0  0  0
  7  3  2  0  0  0  0
  8 12  1  0  0  0  0
  8 21  1  1  0  0  0
  9  1  1  0  0  0  0
 10 18  1  0  0  0  0
 13 18  1  6  0  0  0
 13  8  1  0  0  0  0
 14  5  1  0  0  0  0
 15 20  1  0  0  0  0
 16 12  1  0  0  0  0
 17 16  1  0  0  0  0
 19 20  1  6  0  0  0
 19 10  1  0  0  0  0
 21 23  1  0  0  0  0
 23 22  1  1  0  0  0
 24 27  1  6  0  0  0
 24 28  1  0  0  0  0
 28 25  1  0  0  0  0
 29 26  2  6  0  0  0
 29 30  1  0  0  0  0
 30 23  1  6  0  0  0
 30 25  1  0  0  0  0
 31 29  1  0  0  0  0
 31 24  1  0  0  0  0
M  END
>  <MODEL>
6

>  <REMARK>
 VINA RESULT:      -7.3      3.876      6.985
  Name = 
  3 active torsions:
  status: ('A' for Active; 'I' for Inactive)
    1  A    between atoms: C_5  and  N_16
    2  A    between atoms: C_5  and  C_30
    3  A    between atoms: C_10  and  N_16
                            x       y       z     vdW  Elec       q    Type
                         _______ _______ _______ _____ _____    ______ ____

>  <TORSDO>
F 3

$$$$
=
 OpenBabel11112416503D

 31 35  0  0  1  0  0  0  0  0999 V2000
  191.7600  170.8740  143.2450 C   0  0  0  0  0  0  0  0  0  0  0  0
  192.6600  173.9110  145.3550 C   0  0  2  0  0  3  0  0  0  0  0  0
  193.6590  174.7160  144.5460 C   0  0  0  0  0  0  0  0  0  0  0  0
  195.3670  174.9580  142.7260 C   0  0  1  0  0  3  0  0  0  0  0  0
  191.8470  172.9290  144.5390 C   0  0  0  0  0  0  0  0  0  0  0  0
  190.4150  171.1080  142.9570 C   0  0  0  0  0  3  0  0  0  0  0  0
  194.2630  174.2270  143.4460 C   0  0  0  0  0  3  0  0  0  0  0  0
  190.6240  175.4080  145.3840 C   0  0  2  0  0  3  0  0  0  0  0  0
  192.3920  169.7440  142.7430 O   0  0  0  0  0  1  0  0  0  0  0  0
  193.9610  176.0210  146.4940 O   0  0  0  0  0  0  0  0  0  0  0  0
  195.1520  174.7980  140.9680 Cl  0  0  0  0  0  0  0  0  0  0  0  0
  189.7250  174.2810  144.8880 C   0  0  0  0  0  2  0  0  0  0  0  0
  191.7800  174.8430  146.2270 C   0  0  2  0  0  3  0  0  0  0  0  0
  192.4730  171.7790  144.0360 C   0  0  0  0  0  3  0  0  0  0  0  0
  195.4490  176.4350  143.1100 C   0  0  0  0  0  2  0  0  0  0  0  0
  190.4850  173.1570  144.2520 C   0  0  0  0  0  0  0  0  0  0  0  0
  189.7780  172.2410  143.4680 C   0  0  0  0  0  3  0  0  0  0  0  0
  192.5990  175.9990  146.8640 C   0  0  0  0  0  2  0  0  0  0  0  0
  194.0060  176.0820  145.0940 C   0  0  1  0  0  3  0  0  0  0  0  0
  195.3720  176.5720  144.6250 C   0  0  0  0  0  2  0  0  0  0  0  0
  189.8050  176.3430  146.1510 N   0  0  0  0  0  2  0  0  0  0  0  0
  189.9840  177.4780  144.0030 C   0  0  0  0  0  1  0  0  0  0  0  0
  189.1010  177.2160  145.2170 C   0  0  1  0  0  3  0  0  0  0  0  0
  185.7540  178.7010  144.2990 C   0  0  1  0  0  3  0  0  0  0  0  0
  187.3480  177.0570  143.4940 O   0  0  0  0  0  0  0  0  0  0  0  0
  187.0020  176.5670  147.3360 O   0  0  0  0  0  0  0  0  0  0  0  0
  185.3870  180.1620  144.1540 C   0  0  0  0  0  1  0  0  0  0  0  0
  187.0810  178.4400  143.5910 C   0  0  0  0  0  2  0  0  0  0  0  0
  186.3960  176.6480  145.9420 S   0  0  2  0  0  0  0  0  0  0  0  0
  187.7760  176.5710  144.7540 C   0  0  2  0  0  3  0  0  0  0  0  0
  185.8780  178.3630  145.7760 C   0  0  0  0  0  2  0  0  0  0  0  0
  1 14  1  0  0  0  0
  2  5  1  6  0  0  0
  2 13  1  0  0  0  0
  3 19  1  0  0  0  0
  3  2  1  0  0  0  0
  4 11  1  6  0  0  0
  4 15  1  0  0  0  0
  4  7  1  0  0  0  0
  6  1  2  0  0  0  0
  6 17  1  0  0  0  0
  7  3  2  0  0  0  0
  8 21  1  1  0  0  0
  8 13  1  0  0  0  0
  9  1  1  0  0  0  0
 10 18  1  0  0  0  0
 12  8  1  0  0  0  0
 13 18  1  6  0  0  0
 14  5  2  0  0  0  0
 15 20  1  0  0  0  0
 16  5  1  0  0  0  0
 16 12  1  0  0  0  0
 17 16  2  0  0  0  0
 19 20  1  1  0  0  0
 19 10  1  0  0  0  0
 23 22  1  6  0  0  0
 23 21  1  0  0  0  0
 24 27  1  1  0  0  0
 24 31  1  0  0  0  0
 25 28  1  0  0  0  0
 25 30  1  0  0  0  0
 28 24  1  0  0  0  0
 29 26  2  1  0  0  0
 30 23  1  1  0  0  0
 30 29  1  0  0  0  0
 31 29  1  0  0  0  0
M  END
>  <MODEL>
7

>  <REMARK>
 VINA RESULT:      -7.3      2.584      4.535
  Name = 
  3 active torsions:
  status: ('A' for Active; 'I' for Inactive)
    1  A    between atoms: C_5  and  N_16
    2  A    between atoms: C_5  and  C_30
    3  A    between atoms: C_10  and  N_16
                            x       y       z     vdW  Elec       q    Type
                         _______ _______ _______ _____ _____    ______ ____

>  <TORSDO>
F 3

$$$$
=
 OpenBabel11112416503D

 31 35  0  0  1  0  0  0  0  0999 V2000
  186.8680  177.3000  141.2700 C   0  0  0  0  0  0  0  0  0  0  0  0
  188.6970  174.1150  142.2650 C   0  0  2  0  0  3  0  0  0  0  0  0
  189.1040  173.4310  140.9740 C   0  0  0  0  0  0  0  0  0  0  0  0
  188.8980  173.0350  138.5060 C   0  0  1  0  0  3  0  0  0  0  0  0
  188.3670  175.5840  142.1140 C   0  0  0  0  0  0  0  0  0  0  0  0
  187.7340  178.2910  141.7350 C   0  0  0  0  0  3  0  0  0  0  0  0
  188.6190  173.8030  139.7730 C   0  0  0  0  0  3  0  0  0  0  0  0
  190.9140  174.8240  143.2500 C   0  0  2  0  0  3  0  0  0  0  0  0
  185.6960  177.6540  140.6160 O   0  0  0  0  0  1  0  0  0  0  0  0
  189.7260  171.5890  142.3180 O   0  0  0  0  0  0  0  0  0  0  0  0
  189.1960  174.1660  137.1670 Cl  0  0  0  0  0  0  0  0  0  0  0  0
  190.4340  176.2600  143.4260 C   0  0  0  0  0  2  0  0  0  0  0  0
  189.7360  173.8420  143.3830 C   0  0  2  0  0  3  0  0  0  0  0  0
  187.1810  175.9520  141.4630 C   0  0  0  0  0  3  0  0  0  0  0  0
  190.0720  172.0670  138.6450 C   0  0  0  0  0  2  0  0  0  0  0  0
  189.2360  176.5880  142.5880 C   0  0  0  0  0  0  0  0  0  0  0  0
  188.9090  177.9340  142.4010 C   0  0  0  0  0  3  0  0  0  0  0  0
  190.2500  172.3770  143.3650 C   0  0  0  0  0  2  0  0  0  0  0  0
  190.0310  172.2450  141.1170 C   0  0  1  0  0  3  0  0  0  0  0  0
  189.9320  171.2790  139.9410 C   0  0  0  0  0  2  0  0  0  0  0  0
  191.9490  174.5610  144.2460 N   0  0  0  0  0  2  0  0  0  0  0  0
  193.0150  174.4630  142.0580 C   0  0  0  0  0  1  0  0  0  0  0  0
  193.2370  174.4820  143.5650 C   0  0  1  0  0  3  0  0  0  0  0  0
  196.8640  174.7230  144.5870 C   0  0  1  0  0  3  0  0  0  0  0  0
  195.2700  175.7920  143.1000 O   0  0  0  0  0  0  0  0  0  0  0  0
  193.4930  175.2330  146.5130 O   0  0  0  0  0  0  0  0  0  0  0  0
  197.9030  173.6240  144.6120 C   0  0  0  0  0  1  0  0  0  0  0  0
  196.0850  174.6520  143.2750 C   0  0  0  0  0  2  0  0  0  0  0  0
  194.6340  175.8000  145.6810 S   0  0  2  0  0  0  0  0  0  0  0  0
  194.1300  175.6870  143.9330 C   0  0  2  0  0  3  0  0  0  0  0  0
  195.9170  174.5410  145.7630 C   0  0  0  0  0  2  0  0  0  0  0  0
  1 14  2  0  0  0  0
  1  6  1  0  0  0  0
  2  3  1  6  0  0  0
  2 13  1  0  0  0  0
  3 19  1  0  0  0  0
  4 11  1  6  0  0  0
  4 15  1  0  0  0  0
  4  7  1  0  0  0  0
  5  2  1  0  0  0  0
  5 16  2  0  0  0  0
  6 17  2  0  0  0  0
  7  3  2  0  0  0  0
  8 13  1  0  0  0  0
  8 12  1  0  0  0  0
  8 21  1  1  0  0  0
  9  1  1  0  0  0  0
 10 18  1  0  0  0  0
 13 18  1  6  0  0  0
 14  5  1  0  0  0  0
 15 20  1  0  0  0  0
 16 12  1  0  0  0  0
 17 16  1  0  0  0  0
 19 20  1  6  0  0  0
 19 10  1  0  0  0  0
 23 22  1  6  0  0  0
 23 21  1  0  0  0  0
 24 27  1  6  0  0  0
 24 31  1  0  0  0  0
 25 28  1  0  0  0  0
 25 30  1  0  0  0  0
 28 24  1  0  0  0  0
 29 31  1  0  0  0  0
 29 26  2  1  0  0  0
 30 23  1  1  0  0  0
 30 29  1  0  0  0  0
M  END
>  <MODEL>
8

>  <REMARK>
 VINA RESULT:      -7.2      3.806      7.357
  Name = 
  3 active torsions:
  status: ('A' for Active; 'I' for Inactive)
    1  A    between atoms: C_5  and  N_16
    2  A    between atoms: C_5  and  C_30
    3  A    between atoms: C_10  and  N_16
                            x       y       z     vdW  Elec       q    Type
                         _______ _______ _______ _____ _____    ______ ____

>  <TORSDO>
F 3

$$$$
=
 OpenBabel11112416503D

 31 35  0  0  1  0  0  0  0  0999 V2000
  186.1700  177.9470  140.8150 C   0  0  0  0  0  0  0  0  0  0  0  0
  188.9850  177.7330  143.3660 C   0  0  2  0  0  3  0  0  0  0  0  0
  188.3260  177.5350  144.7180 C   0  0  0  0  0  0  0  0  0  0  0  0
  186.3650  177.6620  146.2770 C   0  0  1  0  0  3  0  0  0  0  0  0
  188.0980  177.3970  142.1870 C   0  0  0  0  0  0  0  0  0  0  0  0
  186.3720  176.7910  140.0600 C   0  0  0  0  0  3  0  0  0  0  0  0
  187.0040  177.7060  144.9120 C   0  0  0  0  0  3  0  0  0  0  0  0
  190.1520  175.5240  142.9810 C   0  0  2  0  0  3  0  0  0  0  0  0
  185.1120  178.7950  140.5160 O   0  0  0  0  0  1  0  0  0  0  0  0
  190.4720  177.8750  145.6490 O   0  0  0  0  0  0  0  0  0  0  0  0
  184.8170  176.7930  146.1920 Cl  0  0  0  0  0  0  0  0  0  0  0  0
  189.5110  175.3670  141.6070 C   0  0  0  0  0  2  0  0  0  0  0  0
  190.3570  177.0130  143.3130 C   0  0  2  0  0  3  0  0  0  0  0  0
  187.0310  178.2510  141.8710 C   0  0  0  0  0  3  0  0  0  0  0  0
  187.2660  177.0240  147.3330 C   0  0  0  0  0  2  0  0  0  0  0  0
  188.3020  176.2330  141.4180 C   0  0  0  0  0  0  0  0  0  0  0  0
  187.4410  175.9420  140.3560 C   0  0  0  0  0  3  0  0  0  0  0  0
  191.1540  177.1660  144.6370 C   0  0  0  0  0  2  0  0  0  0  0  0
  189.2550  177.2130  145.8660 C   0  0  1  0  0  3  0  0  0  0  0  0
  188.6710  177.6010  147.2210 C   0  0  0  0  0  2  0  0  0  0  0  0
  191.4160  174.7930  142.9840 N   0  0  0  0  0  2  0  0  0  0  0  0
  190.4900  172.7000  143.8190 C   0  0  0  0  0  1  0  0  0  0  0  0
  191.4160  173.8730  144.1160 C   0  0  1  0  0  3  0  0  0  0  0  0
  194.4600  175.4830  145.6640 C   0  0  1  0  0  3  0  0  0  0  0  0
  193.1900  173.4160  145.7630 O   0  0  0  0  0  0  0  0  0  0  0  0
  193.5720  174.3770  142.0150 O   0  0  0  0  0  0  0  0  0  0  0  0
  194.5660  176.8380  146.3280 C   0  0  0  0  0  1  0  0  0  0  0  0
  193.2080  174.7680  146.1690 C   0  0  0  0  0  2  0  0  0  0  0  0
  194.1700  174.0630  143.3780 S   0  0  2  0  0  0  0  0  0  0  0  0
  192.8390  173.3410  144.3930 C   0  0  2  0  0  3  0  0  0  0  0  0
  194.3800  175.6700  144.1580 C   0  0  0  0  0  2  0  0  0  0  0  0
  1 14  1  0  0  0  0
  2  5  1  6  0  0  0
  2  3  1  0  0  0  0
  3  7  2  0  0  0  0
  3 19  1  0  0  0  0
  4 11  1  6  0  0  0
  4 15  1  0  0  0  0
  6 17  1  0  0  0  0
  6  1  2  0  0  0  0
  7  4  1  0  0  0  0
  8 21  1  6  0  0  0
  8 13  1  0  0  0  0
  9  1  1  0  0  0  0
 10 19  1  0  0  0  0
 12  8  1  0  0  0  0
 13  2  1  0  0  0  0
 13 18  1  1  0  0  0
 14  5  2  0  0  0  0
 16 12  1  0  0  0  0
 16  5  1  0  0  0  0
 17 16  2  0  0  0  0
 18 10  1  0  0  0  0
 19 20  1  1  0  0  0
 20 15  1  0  0  0  0
 21 23  1  0  0  0  0
 23 22  1  6  0  0  0
 24 28  1  0  0  0  0
 24 27  1  1  0  0  0
 25 28  1  0  0  0  0
 29 26  2  6  0  0  0
 29 31  1  0  0  0  0
 29 30  1  0  0  0  0
 30 23  1  1  0  0  0
 30 25  1  0  0  0  0
 31 24  1  0  0  0  0
M  END
>  <MODEL>
9

>  <REMARK>
 VINA RESULT:      -7.1      3.362      7.306
  Name = 
  3 active torsions:
  status: ('A' for Active; 'I' for Inactive)
    1  A    between atoms: C_5  and  N_16
    2  A    between atoms: C_5  and  C_30
    3  A    between atoms: C_10  and  N_16
                            x       y       z     vdW  Elec       q    Type
                         _______ _______ _______ _____ _____    ______ ____

>  <TORSDO>
F 3

$$$$
