=
 OpenBabel11112416153D

 30 35  0  0  1  0  0  0  0  0999 V2000
  186.3020  177.5650  143.7510 C   0  0  0  0  0  0  0  0  0  0  0  0
  184.4850  178.5660  145.0810 C   0  0  0  0  0  0  0  0  0  0  0  0
  188.2540  176.2420  147.2140 N   0  0  0  0  0  2  0  0  0  0  0  0
  187.4890  176.7820  143.7300 C   0  0  0  0  0  0  0  0  0  0  0  0
  185.8370  178.1900  142.4560 C   0  0  0  0  0  2  0  0  0  0  0  0
  187.6810  176.1580  140.0820 O   0  0  0  0  0  0  0  0  0  0  0  0
  190.3990  176.6530  143.0100 C   0  0  1  0  0  3  0  0  0  0  0  0
  187.2680  176.5560  141.2060 C   0  0  0  0  0  0  0  0  0  0  0  0
  190.5380  176.4040  144.5060 C   0  0  2  0  0  3  0  0  0  0  0  0
  189.4240  175.5940  146.6120 C   0  0  1  0  0  3  0  0  0  0  0  0
  186.0840  177.3530  141.2870 N   0  0  0  0  0  0  0  0  0  0  0  0
  187.9360  176.0850  142.4610 C   0  0  1  0  0  3  0  0  0  0  0  0
  183.7810  178.7750  146.3950 C   0  0  0  0  0  2  0  0  0  0  0  0
  191.7090  175.4810  144.5840 C   0  0  0  0  0  2  0  0  0  0  0  0
  191.6730  176.5160  142.4240 O   0  0  0  0  0  0  0  0  0  0  0  0
  183.8300  179.0440  143.9530 O   0  0  0  0  0  1  0  0  0  0  0  0
  187.4740  176.7240  146.1330 C   0  0  0  0  0  0  0  0  0  0  0  0
  184.6150  178.5040  147.5180 O   0  0  0  0  0  0  0  0  0  0  0  0
  185.6640  177.8820  145.0040 C   0  0  0  0  0  0  0  0  0  0  0  0
  188.0720  176.4440  144.9520 C   0  0  0  0  0  0  0  0  0  0  0  0
  189.3630  174.1000  146.8710 C   0  0  0  0  0  1  0  0  0  0  0  0
  189.3500  175.8510  145.1650 N   0  0  0  0  0  0  0  0  0  0  0  0
  192.5080  175.8730  143.3640 C   0  0  0  0  0  2  0  0  0  0  0  0
  189.6330  174.3860  142.5990 O   0  0  0  0  0  1  0  0  0  0  0  0
  185.7830  177.7520  147.4080 C   0  0  0  0  0  3  0  0  0  0  0  0
  186.2820  177.4380  146.2110 C   0  0  0  0  0  0  0  0  0  0  0  0
  189.4150  175.7290  142.2850 C   0  0  2  0  0  3  0  0  0  0  0  0
  185.3400  177.5640  140.1720 O   0  0  0  0  0  0  0  0  0  0  0  0
  182.9900  177.9060  140.3030 C   0  0  0  0  0  1  0  0  0  0  0  0
  184.3640  178.4920  140.5490 C   0  0  0  0  0  2  0  0  0  0  0  0
  1 19  1  0  0  0  0
  2 13  1  0  0  0  0
  4  1  2  0  0  0  0
  4 20  1  0  0  0  0
  5  1  1  0  0  0  0
  6  8  2  0  0  0  0
  7 15  1  6  0  0  0
  7  9  1  0  0  0  0
  8 11  1  0  0  0  0
  9 14  1  6  0  0  0
  9 22  1  0  0  0  0
 10 21  1  6  0  0  0
 10  3  1  0  0  0  0
 11  5  1  0  0  0  0
 12  8  1  6  0  0  0
 12  4  1  0  0  0  0
 13 18  1  0  0  0  0
 15 23  1  0  0  0  0
 16  2  1  0  0  0  0
 17 26  1  0  0  0  0
 17  3  1  0  0  0  0
 19  2  2  0  0  0  0
 19 26  1  0  0  0  0
 20 22  1  0  0  0  0
 20 17  2  0  0  0  0
 22 10  1  0  0  0  0
 23 14  1  0  0  0  0
 25 18  1  0  0  0  0
 26 25  2  0  0  0  0
 27 12  1  0  0  0  0
 27 24  1  1  0  0  0
 27  7  1  0  0  0  0
 28 30  1  0  0  0  0
 28 11  1  0  0  0  0
 29 30  1  0  0  0  0
M  END
>  <MODEL>
1

>  <REMARK>
 VINA RESULT:      -8.7      0.000      0.000
  Name = 
  2 active torsions:
  status: ('A' for Active; 'I' for Inactive)
    1  A    between atoms: N_11  and  O_28
    2  A    between atoms: O_28  and  C_30
                            x       y       z     vdW  Elec       q    Type
                         _______ _______ _______ _____ _____    ______ ____

>  <TORSDO>
F 2

$$$$
=
 OpenBabel11112416153D

 30 35  0  0  1  0  0  0  0  0999 V2000
  187.3690  176.4470  142.4930 C   0  0  0  0  0  0  0  0  0  0  0  0
  185.2770  177.7380  142.6540 C   0  0  0  0  0  0  0  0  0  0  0  0
  187.9110  176.6060  146.6440 N   0  0  0  0  0  2  0  0  0  0  0  0
  188.4350  175.7920  143.1690 C   0  0  0  0  0  0  0  0  0  0  0  0
  187.4240  176.5260  140.9850 C   0  0  0  0  0  2  0  0  0  0  0  0
  189.8330  173.9010  140.3060 O   0  0  0  0  0  0  0  0  0  0  0  0
  191.3990  175.6060  143.5990 C   0  0  1  0  0  3  0  0  0  0  0  0
  189.0850  174.6500  140.9910 C   0  0  0  0  0  0  0  0  0  0  0  0
  190.9950  175.9260  145.0320 C   0  0  2  0  0  3  0  0  0  0  0  0
  189.1700  175.8640  146.7640 C   0  0  1  0  0  3  0  0  0  0  0  0
  188.0020  175.3410  140.3630 N   0  0  0  0  0  0  0  0  0  0  0  0
  189.2450  174.7130  142.4790 C   0  0  1  0  0  3  0  0  0  0  0  0
  184.1770  178.3630  143.4710 C   0  0  0  0  0  2  0  0  0  0  0  0
  192.0020  175.1760  145.8390 C   0  0  0  0  0  2  0  0  0  0  0  0
  192.7840  175.3510  143.5820 O   0  0  0  0  0  0  0  0  0  0  0  0
  185.0850  177.7300  141.2780 O   0  0  0  0  0  1  0  0  0  0  0  0
  187.5870  176.6090  145.2650 C   0  0  0  0  0  0  0  0  0  0  0  0
  184.5530  178.5740  144.8300 O   0  0  0  0  0  0  0  0  0  0  0  0
  186.3600  177.1540  143.2420 C   0  0  0  0  0  0  0  0  0  0  0  0
  188.5360  175.9600  144.5520 C   0  0  0  0  0  0  0  0  0  0  0  0
  188.9240  174.5650  147.5090 C   0  0  0  0  0  1  0  0  0  0  0  0
  189.6190  175.5730  145.3920 N   0  0  0  0  0  0  0  0  0  0  0  0
  193.1980  175.1510  144.9170 C   0  0  0  0  0  2  0  0  0  0  0  0
  190.6710  173.2980  143.8010 O   0  0  0  0  0  1  0  0  0  0  0  0
  185.6330  177.9140  145.4110 C   0  0  0  0  0  3  0  0  0  0  0  0
  186.4930  177.2210  144.6620 C   0  0  0  0  0  0  0  0  0  0  0  0
  190.6660  174.4170  142.9670 C   0  0  2  0  0  3  0  0  0  0  0  0
  187.7050  175.0820  139.0640 O   0  0  0  0  0  0  0  0  0  0  0  0
  186.5860  175.9950  137.1740 C   0  0  0  0  0  1  0  0  0  0  0  0
  186.9610  176.1830  138.6290 C   0  0  0  0  0  2  0  0  0  0  0  0
  1  4  2  0  0  0  0
  1 19  1  0  0  0  0
  2 19  2  0  0  0  0
  2 13  1  0  0  0  0
  3 10  1  0  0  0  0
  4 20  1  0  0  0  0
  5  1  1  0  0  0  0
  6  8  2  0  0  0  0
  7 15  1  1  0  0  0
  7  9  1  0  0  0  0
  9 22  1  0  0  0  0
  9 14  1  1  0  0  0
 10 21  1  1  0  0  0
 11  5  1  0  0  0  0
 11  8  1  0  0  0  0
 12  8  1  6  0  0  0
 12 27  1  0  0  0  0
 12  4  1  0  0  0  0
 13 18  1  0  0  0  0
 15 23  1  0  0  0  0
 16  2  1  0  0  0  0
 17  3  1  0  0  0  0
 18 25  1  0  0  0  0
 19 26  1  0  0  0  0
 20 17  2  0  0  0  0
 20 22  1  0  0  0  0
 22 10  1  0  0  0  0
 23 14  1  0  0  0  0
 26 17  1  0  0  0  0
 26 25  2  0  0  0  0
 27  7  1  0  0  0  0
 27 24  1  1  0  0  0
 28 11  1  0  0  0  0
 29 30  1  0  0  0  0
 30 28  1  0  0  0  0
M  END
>  <MODEL>
2

>  <REMARK>
 VINA RESULT:      -7.9      1.564      2.345
  Name = 
  2 active torsions:
  status: ('A' for Active; 'I' for Inactive)
    1  A    between atoms: N_11  and  O_28
    2  A    between atoms: O_28  and  C_30
                            x       y       z     vdW  Elec       q    Type
                         _______ _______ _______ _____ _____    ______ ____

>  <TORSDO>
F 2

$$$$
=
 OpenBabel11112416153D

 30 35  0  0  1  0  0  0  0  0999 V2000
  187.7240  176.4730  145.7860 C   0  0  0  0  0  0  0  0  0  0  0  0
  185.9790  177.6600  147.0570 C   0  0  0  0  0  0  0  0  0  0  0  0
  185.7670  177.2540  142.1650 N   0  0  0  0  0  2  0  0  0  0  0  0
  188.2490  176.1050  144.5170 C   0  0  0  0  0  0  0  0  0  0  0  0
  188.3920  175.9180  147.0220 C   0  0  0  0  0  2  0  0  0  0  0  0
  191.5850  174.9220  145.6160 O   0  0  0  0  0  0  0  0  0  0  0  0
  189.0410  173.8690  142.6790 C   0  0  1  0  0  3  0  0  0  0  0  0
  190.4220  175.4110  145.6430 C   0  0  0  0  0  0  0  0  0  0  0  0
  187.9770  174.5060  141.7940 C   0  0  2  0  0  3  0  0  0  0  0  0
  186.6850  176.5910  141.2330 C   0  0  1  0  0  3  0  0  0  0  0  0
  189.8390  175.7910  146.8910 N   0  0  0  0  0  0  0  0  0  0  0  0
  189.7060  175.7160  144.3640 C   0  0  1  0  0  3  0  0  0  0  0  0
  184.7570  178.5390  147.1070 C   0  0  0  0  0  2  0  0  0  0  0  0
  188.5020  174.2720  140.4170 C   0  0  0  0  0  2  0  0  0  0  0  0
  189.6550  172.8340  141.9470 O   0  0  0  0  0  0  0  0  0  0  0  0
  186.5880  177.3910  148.2770 O   0  0  0  0  0  1  0  0  0  0  0  0
  186.3300  177.0880  143.4550 C   0  0  0  0  0  0  0  0  0  0  0  0
  184.0410  178.5570  145.8750 O   0  0  0  0  0  0  0  0  0  0  0  0
  186.4930  177.2170  145.8730 C   0  0  0  0  0  0  0  0  0  0  0  0
  187.4800  176.3780  143.3840 C   0  0  0  0  0  0  0  0  0  0  0  0
  187.3410  177.6310  140.3430 C   0  0  0  0  0  1  0  0  0  0  0  0
  187.7090  175.9240  142.0540 N   0  0  0  0  0  0  0  0  0  0  0  0
  189.3020  173.0020  140.5900 C   0  0  0  0  0  2  0  0  0  0  0  0
  190.6580  175.6040  142.1570 O   0  0  0  0  0  1  0  0  0  0  0  0
  184.6200  178.1500  144.6750 C   0  0  0  0  0  3  0  0  0  0  0  0
  185.7970  177.5220  144.6650 C   0  0  0  0  0  0  0  0  0  0  0  0
  190.1230  174.8280  143.1870 C   0  0  2  0  0  3  0  0  0  0  0  0
  190.5890  175.7500  148.0220 O   0  0  0  0  0  0  0  0  0  0  0  0
  191.3550  177.6580  149.2170 C   0  0  0  0  0  1  0  0  0  0  0  0
  191.4450  176.8530  147.9390 C   0  0  0  0  0  2  0  0  0  0  0  0
  1 19  1  0  0  0  0
  1  5  1  0  0  0  0
  2 13  1  0  0  0  0
  2 16  1  0  0  0  0
  3 17  1  0  0  0  0
  4  1  2  0  0  0  0
  6  8  2  0  0  0  0
  7 15  1  6  0  0  0
  7 27  1  0  0  0  0
  8 11  1  0  0  0  0
  9 14  1  6  0  0  0
  9 22  1  0  0  0  0
  9  7  1  0  0  0  0
 10 21  1  6  0  0  0
 10 22  1  0  0  0  0
 10  3  1  0  0  0  0
 11  5  1  0  0  0  0
 11 28  1  0  0  0  0
 12  4  1  1  0  0  0
 12  8  1  0  0  0  0
 14 23  1  0  0  0  0
 17 26  1  0  0  0  0
 18 13  1  0  0  0  0
 19  2  2  0  0  0  0
 20 17  2  0  0  0  0
 20  4  1  0  0  0  0
 22 20  1  0  0  0  0
 23 15  1  0  0  0  0
 25 18  1  0  0  0  0
 26 25  2  0  0  0  0
 26 19  1  0  0  0  0
 27 24  1  6  0  0  0
 27 12  1  0  0  0  0
 30 28  1  0  0  0  0
 30 29  1  0  0  0  0
M  END
>  <MODEL>
3

>  <REMARK>
 VINA RESULT:      -7.8      2.046      5.281
  Name = 
  2 active torsions:
  status: ('A' for Active; 'I' for Inactive)
    1  A    between atoms: N_11  and  O_28
    2  A    between atoms: O_28  and  C_30
                            x       y       z     vdW  Elec       q    Type
                         _______ _______ _______ _____ _____    ______ ____

>  <TORSDO>
F 2

$$$$
=
 OpenBabel11112416153D

 30 35  0  0  1  0  0  0  0  0999 V2000
  188.4050  175.8630  143.5860 C   0  0  0  0  0  0  0  0  0  0  0  0
  186.2000  176.8860  143.9900 C   0  0  0  0  0  0  0  0  0  0  0  0
  189.8190  177.1880  147.3000 N   0  0  0  0  0  2  0  0  0  0  0  0
  189.6960  175.5470  144.0900 C   0  0  0  0  0  0  0  0  0  0  0  0
  188.1070  175.5440  142.1390 C   0  0  0  0  0  2  0  0  0  0  0  0
  190.7440  173.1450  141.4700 O   0  0  0  0  0  0  0  0  0  0  0  0
  192.6630  175.8440  143.7580 C   0  0  1  0  0  3  0  0  0  0  0  0
  190.0430  173.9540  142.1380 C   0  0  0  0  0  0  0  0  0  0  0  0
  192.5380  176.4830  145.1350 C   0  0  2  0  0  3  0  0  0  0  0  0
  191.1870  176.6640  147.2510 C   0  0  1  0  0  3  0  0  0  0  0  0
  188.7400  174.3150  141.6750 N   0  0  0  0  0  0  0  0  0  0  0  0
  190.5160  174.4300  143.4760 C   0  0  1  0  0  3  0  0  0  0  0  0
  185.2140  177.5680  144.9020 C   0  0  0  0  0  2  0  0  0  0  0  0
  193.8190  176.1040  145.7990 C   0  0  0  0  0  2  0  0  0  0  0  0
  194.0330  175.7640  143.4370 O   0  0  0  0  0  0  0  0  0  0  0  0
  185.7120  176.4870  142.7520 O   0  0  0  0  0  1  0  0  0  0  0  0
  189.2010  176.7840  146.0910 C   0  0  0  0  0  0  0  0  0  0  0  0
  185.8380  178.1770  146.0300 O   0  0  0  0  0  0  0  0  0  0  0  0
  187.4760  176.6160  144.3910 C   0  0  0  0  0  0  0  0  0  0  0  0
  190.0700  176.0880  145.3210 C   0  0  0  0  0  0  0  0  0  0  0  0
  191.3560  175.5900  148.3110 C   0  0  0  0  0  1  0  0  0  0  0  0
  191.3650  176.0740  145.9140 N   0  0  0  0  0  0  0  0  0  0  0  0
  194.7640  175.9790  144.6260 C   0  0  0  0  0  2  0  0  0  0  0  0
  192.4370  173.6030  144.6650 O   0  0  0  0  0  1  0  0  0  0  0  0
  187.1220  177.8320  146.4420 C   0  0  0  0  0  3  0  0  0  0  0  0
  187.9060  177.0750  145.6720 C   0  0  0  0  0  0  0  0  0  0  0  0
  192.0400  174.4500  143.6290 C   0  0  2  0  0  3  0  0  0  0  0  0
  188.2130  173.6850  140.5940 O   0  0  0  0  0  0  0  0  0  0  0  0
  188.2850  173.9240  138.2290 C   0  0  0  0  0  1  0  0  0  0  0  0
  188.2360  174.6320  139.5660 C   0  0  0  0  0  2  0  0  0  0  0  0
  1  4  2  0  0  0  0
  1 19  1  0  0  0  0
  2 19  2  0  0  0  0
  2 13  1  0  0  0  0
  4 20  1  0  0  0  0
  5  1  1  0  0  0  0
  6  8  2  0  0  0  0
  7 15  1  1  0  0  0
  7  9  1  0  0  0  0
  9 14  1  1  0  0  0
  9 22  1  0  0  0  0
 10  3  1  0  0  0  0
 10 21  1  1  0  0  0
 11  8  1  0  0  0  0
 11  5  1  0  0  0  0
 12  8  1  6  0  0  0
 12 27  1  0  0  0  0
 12  4  1  0  0  0  0
 13 18  1  0  0  0  0
 15 23  1  0  0  0  0
 16  2  1  0  0  0  0
 17  3  1  0  0  0  0
 18 25  1  0  0  0  0
 19 26  1  0  0  0  0
 20 22  1  0  0  0  0
 20 17  2  0  0  0  0
 22 10  1  0  0  0  0
 23 14  1  0  0  0  0
 26 17  1  0  0  0  0
 26 25  2  0  0  0  0
 27  7  1  0  0  0  0
 27 24  1  1  0  0  0
 28 11  1  0  0  0  0
 29 30  1  0  0  0  0
 30 28  1  0  0  0  0
M  END
>  <MODEL>
4

>  <REMARK>
 VINA RESULT:      -7.7      2.181      3.228
  Name = 
  2 active torsions:
  status: ('A' for Active; 'I' for Inactive)
    1  A    between atoms: N_11  and  O_28
    2  A    between atoms: O_28  and  C_30
                            x       y       z     vdW  Elec       q    Type
                         _______ _______ _______ _____ _____    ______ ____

>  <TORSDO>
F 2

$$$$
=
 OpenBabel11112416153D

 30 35  0  0  1  0  0  0  0  0999 V2000
  188.0530  176.1980  142.4010 C   0  0  0  0  0  0  0  0  0  0  0  0
  186.4610  177.1660  140.7890 C   0  0  0  0  0  0  0  0  0  0  0  0
  186.2980  178.3090  145.5660 N   0  0  0  0  0  2  0  0  0  0  0  0
  188.4570  176.0550  143.7570 C   0  0  0  0  0  0  0  0  0  0  0  0
  188.9220  175.5810  141.3300 C   0  0  0  0  0  2  0  0  0  0  0  0
  190.8260  173.2360  143.3400 O   0  0  0  0  0  0  0  0  0  0  0  0
  190.6420  176.4320  145.7790 C   0  0  1  0  0  3  0  0  0  0  0  0
  189.9680  174.1240  143.0800 C   0  0  0  0  0  0  0  0  0  0  0  0
  189.5940  177.3270  146.4280 C   0  0  2  0  0  3  0  0  0  0  0  0
  187.1460  177.8560  146.6730 C   0  0  1  0  0  3  0  0  0  0  0  0
  189.5300  174.3180  141.7330 N   0  0  0  0  0  0  0  0  0  0  0  0
  189.3120  174.8820  144.1920 C   0  0  1  0  0  3  0  0  0  0  0  0
  185.2210  177.9640  140.4850 C   0  0  0  0  0  2  0  0  0  0  0  0
  189.8630  177.1540  147.8860 C   0  0  0  0  0  2  0  0  0  0  0  0
  191.7510  176.3610  146.6440 O   0  0  0  0  0  0  0  0  0  0  0  0
  187.0400  176.5030  139.7150 O   0  0  0  0  0  1  0  0  0  0  0  0
  186.7720  177.6400  144.4100 C   0  0  0  0  0  0  0  0  0  0  0  0
  184.8370  178.8180  141.5600 O   0  0  0  0  0  0  0  0  0  0  0  0
  186.9390  177.0470  142.0620 C   0  0  0  0  0  0  0  0  0  0  0  0
  187.8270  176.8500  144.7160 C   0  0  0  0  0  0  0  0  0  0  0  0
  186.3190  177.0260  147.6380 C   0  0  0  0  0  1  0  0  0  0  0  0
  188.2030  177.0210  146.0790 N   0  0  0  0  0  0  0  0  0  0  0  0
  191.3420  176.8460  147.9060 C   0  0  0  0  0  2  0  0  0  0  0  0
  189.5360  174.4090  146.5410 O   0  0  0  0  0  1  0  0  0  0  0  0
  185.3030  178.6290  142.8580 C   0  0  0  0  0  3  0  0  0  0  0  0
  186.2970  177.7750  143.1090 C   0  0  0  0  0  0  0  0  0  0  0  0
  190.1730  175.0100  145.4530 C   0  0  2  0  0  3  0  0  0  0  0  0
  189.9380  173.4590  140.7650 O   0  0  0  0  0  0  0  0  0  0  0  0
  188.1920  172.6660  139.3590 C   0  0  0  0  0  1  0  0  0  0  0  0
  189.1750  173.7820  139.6380 C   0  0  0  0  0  2  0  0  0  0  0  0
  1  4  2  0  0  0  0
  2 19  2  0  0  0  0
  3 10  1  0  0  0  0
  4 12  1  0  0  0  0
  4 20  1  0  0  0  0
  5 11  1  0  0  0  0
  5  1  1  0  0  0  0
  7  9  1  0  0  0  0
  7 15  1  1  0  0  0
  8  6  2  0  0  0  0
  9 14  1  1  0  0  0
 10 21  1  1  0  0  0
 11  8  1  0  0  0  0
 12  8  1  6  0  0  0
 12 27  1  0  0  0  0
 13  2  1  0  0  0  0
 13 18  1  0  0  0  0
 14 23  1  0  0  0  0
 15 23  1  0  0  0  0
 16  2  1  0  0  0  0
 17 20  2  0  0  0  0
 17  3  1  0  0  0  0
 18 25  1  0  0  0  0
 19  1  1  0  0  0  0
 19 26  1  0  0  0  0
 20 22  1  0  0  0  0
 22  9  1  0  0  0  0
 22 10  1  0  0  0  0
 25 26  2  0  0  0  0
 26 17  1  0  0  0  0
 27  7  1  0  0  0  0
 27 24  1  1  0  0  0
 28 11  1  0  0  0  0
 29 30  1  0  0  0  0
 30 28  1  0  0  0  0
M  END
>  <MODEL>
5

>  <REMARK>
 VINA RESULT:      -7.6      2.198      4.318
  Name = 
  2 active torsions:
  status: ('A' for Active; 'I' for Inactive)
    1  A    between atoms: N_11  and  O_28
    2  A    between atoms: O_28  and  C_30
                            x       y       z     vdW  Elec       q    Type
                         _______ _______ _______ _____ _____    ______ ____

>  <TORSDO>
F 2

$$$$
=
 OpenBabel11112416153D

 30 35  0  0  1  0  0  0  0  0999 V2000
  188.2400  175.7100  142.2150 C   0  0  0  0  0  0  0  0  0  0  0  0
  189.9080  174.0610  141.4600 C   0  0  0  0  0  0  0  0  0  0  0  0
  189.6970  175.5460  146.1400 N   0  0  0  0  0  2  0  0  0  0  0  0
  187.7480  176.5290  143.2680 C   0  0  0  0  0  0  0  0  0  0  0  0
  187.4700  175.6800  140.9160 C   0  0  0  0  0  2  0  0  0  0  0  0
  185.5110  178.7120  141.2770 O   0  0  0  0  0  0  0  0  0  0  0  0
  185.4150  177.2330  145.0190 C   0  0  1  0  0  3  0  0  0  0  0  0
  186.3540  177.8230  141.5790 C   0  0  0  0  0  0  0  0  0  0  0  0
  186.3840  176.8100  146.1150 C   0  0  2  0  0  3  0  0  0  0  0  0
  188.7900  176.4990  146.7860 C   0  0  1  0  0  3  0  0  0  0  0  0
  186.8780  176.9660  140.5630 N   0  0  0  0  0  0  0  0  0  0  0  0
  186.9050  177.7530  142.9700 C   0  0  1  0  0  3  0  0  0  0  0  0
  191.1380  173.2280  141.7070 C   0  0  0  0  0  2  0  0  0  0  0  0
  186.0200  177.7080  147.2500 C   0  0  0  0  0  2  0  0  0  0  0  0
  184.2510  177.7330  145.6360 O   0  0  0  0  0  0  0  0  0  0  0  0
  189.4270  174.0700  140.1570 O   0  0  0  0  0  1  0  0  0  0  0  0
  189.3290  175.5200  144.7720 C   0  0  0  0  0  0  0  0  0  0  0  0
  191.4170  173.0530  143.0940 O   0  0  0  0  0  0  0  0  0  0  0  0
  189.3460  174.8150  142.4490 C   0  0  0  0  0  0  0  0  0  0  0  0
  188.2820  176.3470  144.5450 C   0  0  0  0  0  0  0  0  0  0  0  0
  189.5750  177.7140  147.2470 C   0  0  0  0  0  1  0  0  0  0  0  0
  187.8060  176.9010  145.7680 N   0  0  0  0  0  0  0  0  0  0  0  0
  184.5550  177.9710  146.9940 C   0  0  0  0  0  2  0  0  0  0  0  0
  186.5330  179.3670  144.7140 O   0  0  0  0  0  1  0  0  0  0  0  0
  190.8670  173.8820  144.0700 C   0  0  0  0  0  3  0  0  0  0  0  0
  189.8880  174.7370  143.7670 C   0  0  0  0  0  0  0  0  0  0  0  0
  185.9540  178.2870  144.0450 C   0  0  2  0  0  3  0  0  0  0  0  0
  186.5690  177.2000  139.2620 O   0  0  0  0  0  0  0  0  0  0  0  0
  186.4970  176.1270  137.1400 C   0  0  0  0  0  1  0  0  0  0  0  0
  186.9840  176.0570  138.5720 C   0  0  0  0  0  2  0  0  0  0  0  0
  1 19  1  0  0  0  0
  1  4  2  0  0  0  0
  2 13  1  0  0  0  0
  2 19  2  0  0  0  0
  3 10  1  0  0  0  0
  4 20  1  0  0  0  0
  5  1  1  0  0  0  0
  6  8  2  0  0  0  0
  7 15  1  1  0  0  0
  7  9  1  0  0  0  0
  9 14  1  1  0  0  0
 10 21  1  6  0  0  0
 11  5  1  0  0  0  0
 11  8  1  0  0  0  0
 12  8  1  6  0  0  0
 12  4  1  0  0  0  0
 12 27  1  0  0  0  0
 13 18  1  0  0  0  0
 15 23  1  0  0  0  0
 16  2  1  0  0  0  0
 17  3  1  0  0  0  0
 18 25  1  0  0  0  0
 19 26  1  0  0  0  0
 20 17  2  0  0  0  0
 20 22  1  0  0  0  0
 22  9  1  0  0  0  0
 22 10  1  0  0  0  0
 23 14  1  0  0  0  0
 26 25  2  0  0  0  0
 26 17  1  0  0  0  0
 27 24  1  1  0  0  0
 27  7  1  0  0  0  0
 28 11  1  0  0  0  0
 29 30  1  0  0  0  0
 30 28  1  0  0  0  0
M  END
>  <MODEL>
6

>  <REMARK>
 VINA RESULT:      -7.6      1.781      5.357
  Name = 
  2 active torsions:
  status: ('A' for Active; 'I' for Inactive)
    1  A    between atoms: N_11  and  O_28
    2  A    between atoms: O_28  and  C_30
                            x       y       z     vdW  Elec       q    Type
                         _______ _______ _______ _____ _____    ______ ____

>  <TORSDO>
F 2

$$$$
=
 OpenBabel11112416153D

 30 35  0  0  1  0  0  0  0  0999 V2000
  188.0920  175.6900  142.1470 C   0  0  0  0  0  0  0  0  0  0  0  0
  186.3750  177.4350  141.8670 C   0  0  0  0  0  0  0  0  0  0  0  0
  188.6780  176.7590  146.1550 N   0  0  0  0  0  2  0  0  0  0  0  0
  188.9710  174.9950  143.0220 C   0  0  0  0  0  0  0  0  0  0  0  0
  188.1570  175.3710  140.6710 C   0  0  0  0  0  2  0  0  0  0  0  0
  189.8560  172.1690  140.7950 O   0  0  0  0  0  0  0  0  0  0  0  0
  191.8050  174.2320  143.6500 C   0  0  1  0  0  3  0  0  0  0  0  0
  189.3150  173.2210  141.2320 C   0  0  0  0  0  0  0  0  0  0  0  0
  191.4980  174.9890  144.9350 C   0  0  2  0  0  3  0  0  0  0  0  0
  189.7210  175.7960  146.5240 C   0  0  1  0  0  3  0  0  0  0  0  0
  188.4280  173.9660  140.3930 N   0  0  0  0  0  0  0  0  0  0  0  0
  189.4930  173.6180  142.6640 C   0  0  1  0  0  3  0  0  0  0  0  0
  185.4630  178.4860  142.4430 C   0  0  0  0  0  2  0  0  0  0  0  0
  192.2970  174.2510  145.9570 C   0  0  0  0  0  2  0  0  0  0  0  0
  193.0870  173.6620  143.7740 O   0  0  0  0  0  0  0  0  0  0  0  0
  186.1800  177.1240  140.5270 O   0  0  0  0  0  1  0  0  0  0  0  0
  188.3570  176.4900  144.8010 C   0  0  0  0  0  0  0  0  0  0  0  0
  185.8850  178.9380  143.7270 O   0  0  0  0  0  0  0  0  0  0  0  0
  187.2880  176.7800  142.6410 C   0  0  0  0  0  0  0  0  0  0  0  0
  189.1170  175.4770  144.3240 C   0  0  0  0  0  0  0  0  0  0  0  0
  189.1710  174.8230  147.5500 C   0  0  0  0  0  1  0  0  0  0  0  0
  190.0790  175.0710  145.2930 N   0  0  0  0  0  0  0  0  0  0  0  0
  193.4480  173.7140  145.1380 C   0  0  0  0  0  2  0  0  0  0  0  0
  190.5420  172.2870  144.3720 O   0  0  0  0  0  1  0  0  0  0  0  0
  186.7770  178.2110  144.5120 C   0  0  0  0  0  3  0  0  0  0  0  0
  187.4400  177.1700  144.0060 C   0  0  0  0  0  0  0  0  0  0  0  0
  190.8030  173.1290  143.2890 C   0  0  2  0  0  3  0  0  0  0  0  0
  188.0700  173.4650  139.1830 O   0  0  0  0  0  0  0  0  0  0  0  0
  188.8190  174.1860  137.0440 C   0  0  0  0  0  1  0  0  0  0  0  0
  188.0820  174.5590  138.3120 C   0  0  0  0  0  2  0  0  0  0  0  0
  1 19  1  0  0  0  0
  1  4  2  0  0  0  0
  2 13  1  0  0  0  0
  2 19  2  0  0  0  0
  3 10  1  0  0  0  0
  4 20  1  0  0  0  0
  5  1  1  0  0  0  0
  6  8  2  0  0  0  0
  7 15  1  1  0  0  0
  7  9  1  0  0  0  0
  9 22  1  0  0  0  0
  9 14  1  1  0  0  0
 10 21  1  1  0  0  0
 11  5  1  0  0  0  0
 11  8  1  0  0  0  0
 12  8  1  6  0  0  0
 12  4  1  0  0  0  0
 12 27  1  0  0  0  0
 13 18  1  0  0  0  0
 15 23  1  0  0  0  0
 16  2  1  0  0  0  0
 17  3  1  0  0  0  0
 18 25  1  0  0  0  0
 19 26  1  0  0  0  0
 20 17  2  0  0  0  0
 20 22  1  0  0  0  0
 22 10  1  0  0  0  0
 23 14  1  0  0  0  0
 26 25  2  0  0  0  0
 26 17  1  0  0  0  0
 27  7  1  0  0  0  0
 27 24  1  1  0  0  0
 28 11  1  0  0  0  0
 29 30  1  0  0  0  0
 30 28  1  0  0  0  0
M  END
>  <MODEL>
7

>  <REMARK>
 VINA RESULT:      -7.5      2.203      3.518
  Name = 
  2 active torsions:
  status: ('A' for Active; 'I' for Inactive)
    1  A    between atoms: N_11  and  O_28
    2  A    between atoms: O_28  and  C_30
                            x       y       z     vdW  Elec       q    Type
                         _______ _______ _______ _____ _____    ______ ____

>  <TORSDO>
F 2

$$$$
=
 OpenBabel11112416153D

 30 35  0  0  1  0  0  0  0  0999 V2000
  188.7040  174.3930  142.1540 C   0  0  0  0  0  0  0  0  0  0  0  0
  190.1410  172.3920  142.1790 C   0  0  0  0  0  0  0  0  0  0  0  0
  189.5070  175.1510  146.1960 N   0  0  0  0  0  2  0  0  0  0  0  0
  188.2150  175.5330  142.8490 C   0  0  0  0  0  0  0  0  0  0  0  0
  188.1420  174.1000  140.7830 C   0  0  0  0  0  2  0  0  0  0  0  0
  186.7290  177.3420  139.9770 O   0  0  0  0  0  0  0  0  0  0  0  0
  185.8120  177.0050  143.8820 C   0  0  1  0  0  3  0  0  0  0  0  0
  187.3440  176.4710  140.6520 C   0  0  0  0  0  0  0  0  0  0  0  0
  186.5160  176.7830  145.2150 C   0  0  2  0  0  3  0  0  0  0  0  0
  188.6990  176.3590  146.3920 C   0  0  1  0  0  3  0  0  0  0  0  0
  187.8500  175.3000  140.0070 N   0  0  0  0  0  0  0  0  0  0  0  0
  187.6600  176.7230  142.0930 C   0  0  1  0  0  3  0  0  0  0  0  0
  191.1510  171.5070  142.8610 C   0  0  0  0  0  2  0  0  0  0  0  0
  186.1540  178.0050  145.9920 C   0  0  0  0  0  2  0  0  0  0  0  0
  184.6790  177.8080  144.1150 O   0  0  0  0  0  0  0  0  0  0  0  0
  189.8690  172.0960  140.8490 O   0  0  0  0  0  1  0  0  0  0  0  0
  189.3470  174.7890  144.8350 C   0  0  0  0  0  0  0  0  0  0  0  0
  191.1840  171.6950  144.2740 O   0  0  0  0  0  0  0  0  0  0  0  0
  189.5830  173.4620  142.8160 C   0  0  0  0  0  0  0  0  0  0  0  0
  188.5110  175.6490  144.2090 C   0  0  0  0  0  0  0  0  0  0  0  0
  189.6130  177.5390  146.6700 C   0  0  0  0  0  1  0  0  0  0  0  0
  187.9660  176.5840  145.1350 N   0  0  0  0  0  0  0  0  0  0  0  0
  184.8150  178.3760  145.4010 C   0  0  0  0  0  2  0  0  0  0  0  0
  187.3280  178.7980  143.2640 O   0  0  0  0  0  1  0  0  0  0  0  0
  190.6540  172.8310  144.8820 C   0  0  0  0  0  3  0  0  0  0  0  0
  189.9000  173.6870  144.1890 C   0  0  0  0  0  0  0  0  0  0  0  0
  186.6710  177.6600  142.7940 C   0  0  2  0  0  3  0  0  0  0  0  0
  187.7850  175.1960  138.6550 O   0  0  0  0  0  0  0  0  0  0  0  0
  189.0040  173.8890  137.0860 C   0  0  0  0  0  1  0  0  0  0  0  0
  188.1930  173.8910  138.3640 C   0  0  0  0  0  2  0  0  0  0  0  0
  1 19  1  0  0  0  0
  1  4  2  0  0  0  0
  2 19  2  0  0  0  0
  2 13  1  0  0  0  0
  3 10  1  0  0  0  0
  4 20  1  0  0  0  0
  5  1  1  0  0  0  0
  6  8  2  0  0  0  0
  7 15  1  1  0  0  0
  7  9  1  0  0  0  0
  9 14  1  1  0  0  0
 10 21  1  6  0  0  0
 11  8  1  0  0  0  0
 11  5  1  0  0  0  0
 12  8  1  6  0  0  0
 12 27  1  0  0  0  0
 12  4  1  0  0  0  0
 13 18  1  0  0  0  0
 15 23  1  0  0  0  0
 16  2  1  0  0  0  0
 17  3  1  0  0  0  0
 18 25  1  0  0  0  0
 19 26  1  0  0  0  0
 20 17  2  0  0  0  0
 20 22  1  0  0  0  0
 22  9  1  0  0  0  0
 22 10  1  0  0  0  0
 23 14  1  0  0  0  0
 26 17  1  0  0  0  0
 26 25  2  0  0  0  0
 27 24  1  1  0  0  0
 27  7  1  0  0  0  0
 28 11  1  0  0  0  0
 29 30  1  0  0  0  0
 30 28  1  0  0  0  0
M  END
>  <MODEL>
8

>  <REMARK>
 VINA RESULT:      -7.3      2.389      5.659
  Name = 
  2 active torsions:
  status: ('A' for Active; 'I' for Inactive)
    1  A    between atoms: N_11  and  O_28
    2  A    between atoms: O_28  and  C_30
                            x       y       z     vdW  Elec       q    Type
                         _______ _______ _______ _____ _____    ______ ____

>  <TORSDO>
F 2

$$$$
=
 OpenBabel11112416153D

 30 35  0  0  1  0  0  0  0  0999 V2000
  190.9980  175.9590  144.9630 C   0  0  0  0  0  0  0  0  0  0  0  0
  193.2570  175.0150  145.2360 C   0  0  0  0  0  0  0  0  0  0  0  0
  190.4840  173.9550  141.3200 N   0  0  0  0  0  2  0  0  0  0  0  0
  189.7910  175.9960  144.2130 C   0  0  0  0  0  0  0  0  0  0  0  0
  191.1460  176.9180  146.1210 C   0  0  0  0  0  2  0  0  0  0  0  0
  187.6680  177.7950  146.6600 O   0  0  0  0  0  0  0  0  0  0  0  0
  187.8600  177.6710  142.6410 C   0  0  1  0  0  3  0  0  0  0  0  0
  188.6580  177.2140  146.1370 C   0  0  0  0  0  0  0  0  0  0  0  0
  188.2440  176.6960  141.5360 C   0  0  2  0  0  3  0  0  0  0  0  0
  189.1360  174.4120  140.9680 C   0  0  1  0  0  3  0  0  0  0  0  0
  189.9010  177.1540  146.8420 N   0  0  0  0  0  0  0  0  0  0  0  0
  188.4990  176.4760  144.8440 C   0  0  1  0  0  3  0  0  0  0  0  0
  194.3440  174.0630  144.8100 C   0  0  0  0  0  2  0  0  0  0  0  0
  186.9850  176.5730  140.7450 C   0  0  0  0  0  2  0  0  0  0  0  0
  186.8390  178.5080  142.1490 O   0  0  0  0  0  0  0  0  0  0  0  0
  193.4700  175.6900  146.4310 O   0  0  0  0  0  1  0  0  0  0  0  0
  190.7840  174.5480  142.5710 C   0  0  0  0  0  0  0  0  0  0  0  0
  194.1870  173.6120  143.4670 O   0  0  0  0  0  0  0  0  0  0  0  0
  192.1030  175.1460  144.5200 C   0  0  0  0  0  0  0  0  0  0  0  0
  189.7580  175.3250  142.9890 C   0  0  0  0  0  0  0  0  0  0  0  0
  188.1790  173.2340  140.9950 C   0  0  0  0  0  1  0  0  0  0  0  0
  188.7430  175.3940  141.9920 N   0  0  0  0  0  0  0  0  0  0  0  0
  186.3310  177.9160  140.9730 C   0  0  0  0  0  2  0  0  0  0  0  0
  186.4170  176.0420  143.7190 O   0  0  0  0  0  1  0  0  0  0  0  0
  192.9740  173.7110  142.7900 C   0  0  0  0  0  3  0  0  0  0  0  0
  191.9690  174.4310  143.2920 C   0  0  0  0  0  0  0  0  0  0  0  0
  187.3850  177.0220  143.9460 C   0  0  2  0  0  3  0  0  0  0  0  0
  189.9690  177.6020  148.1210 O   0  0  0  0  0  0  0  0  0  0  0  0
  191.5650  178.1370  149.8010 C   0  0  0  0  0  1  0  0  0  0  0  0
  191.2890  177.3760  148.5230 C   0  0  0  0  0  2  0  0  0  0  0  0
  1  5  1  0  0  0  0
  2 16  1  0  0  0  0
  3 17  1  0  0  0  0
  4  1  2  0  0  0  0
  5 11  1  0  0  0  0
  7 15  1  6  0  0  0
  7 27  1  0  0  0  0
  8  6  2  0  0  0  0
  8 11  1  0  0  0  0
  9 14  1  6  0  0  0
  9 22  1  0  0  0  0
  9  7  1  0  0  0  0
 10 21  1  1  0  0  0
 10  3  1  0  0  0  0
 10 22  1  0  0  0  0
 11 28  1  0  0  0  0
 12  4  1  6  0  0  0
 12  8  1  0  0  0  0
 13  2  1  0  0  0  0
 14 23  1  0  0  0  0
 17 20  2  0  0  0  0
 17 26  1  0  0  0  0
 18 13  1  0  0  0  0
 19  1  1  0  0  0  0
 19  2  2  0  0  0  0
 20  4  1  0  0  0  0
 22 20  1  0  0  0  0
 23 15  1  0  0  0  0
 25 26  2  0  0  0  0
 25 18  1  0  0  0  0
 26 19  1  0  0  0  0
 27 24  1  6  0  0  0
 27 12  1  0  0  0  0
 28 30  1  0  0  0  0
 30 29  1  0  0  0  0
M  END
>  <MODEL>
9

>  <REMARK>
 VINA RESULT:      -7.0      2.661      7.160
  Name = 
  2 active torsions:
  status: ('A' for Active; 'I' for Inactive)
    1  A    between atoms: N_11  and  O_28
    2  A    between atoms: O_28  and  C_30
                            x       y       z     vdW  Elec       q    Type
                         _______ _______ _______ _____ _____    ______ ____

>  <TORSDO>
F 2

$$$$
