=
 OpenBabel11112417393D

 28 32  0  0  1  0  0  0  0  0999 V2000
  186.1940  178.4560  144.2520 C   0  0  0  0  0  0  0  0  0  0  0  0
  190.1120  178.3890  144.3690 O   0  0  0  0  0  0  0  0  0  0  0  0
  188.3000  174.9510  139.4130 O   0  0  0  0  0  0  0  0  0  0  0  0
  185.2990  177.0030  146.4770 C   0  0  0  0  0  3  0  0  0  0  0  0
  188.4840  173.9110  141.5170 N   0  0  0  0  0  0  0  0  0  0  0  0
  186.5770  179.2290  143.0330 C   0  0  0  0  0  2  0  0  0  0  0  0
  190.2150  177.1910  146.5130 O   0  0  0  0  0  0  0  0  0  0  0  0
  190.2580  177.0410  145.0190 S   0  0  0  0  0  0  0  0  0  0  0  0
  191.8300  175.4820  143.5740 C   0  0  0  0  0  0  0  0  0  0  0  0
  188.9440  175.9360  144.5070 C   0  0  2  0  0  3  0  0  0  0  0  0
  185.0970  177.5560  140.1350 O   0  0  0  0  0  0  0  0  0  0  0  0
  187.3000  175.5860  142.7420 C   0  0  2  0  0  3  0  0  0  0  0  0
  190.6160  175.1300  142.7700 C   0  0  0  0  0  2  0  0  0  0  0  0
  191.7640  176.3310  144.5520 N   0  0  0  0  0  0  0  0  0  0  0  0
  185.9870  177.9220  140.9450 C   0  0  0  0  0  0  0  0  0  0  0  0
  186.7850  177.2120  144.5590 C   0  0  0  0  0  0  0  0  0  0  0  0
  188.0670  174.9410  140.6510 C   0  0  0  0  0  0  0  0  0  0  0  0
  193.0900  174.9320  143.2080 N   0  0  0  0  0  1  0  0  0  0  0  0
  187.3630  177.3530  140.8310 C   0  0  0  0  0  2  0  0  0  0  0  0
  186.3160  176.4890  145.6690 C   0  0  0  0  0  3  0  0  0  0  0  0
  185.1730  178.9610  145.0650 C   0  0  0  0  0  3  0  0  0  0  0  0
  184.7310  178.2420  146.1770 C   0  0  0  0  0  3  0  0  0  0  0  0
  185.6720  178.8950  141.9430 N   0  0  0  0  0  2  0  0  0  0  0  0
  188.1790  174.3200  142.8850 C   0  0  2  0  0  3  0  0  0  0  0  0
  187.4000  175.9840  141.3320 N   0  0  0  0  0  0  0  0  0  0  0  0
  189.4280  174.7500  143.6750 C   0  0  2  0  0  3  0  0  0  0  0  0
  189.1800  172.6950  141.1280 C   0  0  0  0  0  1  0  0  0  0  0  0
  187.8710  176.6380  143.6860 C   0  0  1  0  0  3  0  0  0  0  0  0
  1 16  2  0  0  0  0
  1 21  1  0  0  0  0
  2  8  2  0  0  0  0
  3 17  2  0  0  0  0
  6  1  1  0  0  0  0
  8  7  2  0  0  0  0
  9 14  2  0  0  0  0
 10  8  1  6  0  0  0
 11 15  2  0  0  0  0
 12 25  1  6  0  0  0
 12 24  1  0  0  0  0
 12 28  1  0  0  0  0
 13  9  1  0  0  0  0
 14  8  1  0  0  0  0
 15 23  1  0  0  0  0
 16 20  1  0  0  0  0
 17 25  1  0  0  0  0
 17  5  1  0  0  0  0
 18  9  1  0  0  0  0
 19 15  1  0  0  0  0
 19 25  1  0  0  0  0
 20  4  2  0  0  0  0
 21 22  2  0  0  0  0
 22  4  1  0  0  0  0
 23  6  1  0  0  0  0
 24  5  1  6  0  0  0
 24 26  1  0  0  0  0
 26 13  1  6  0  0  0
 26 10  1  0  0  0  0
 27  5  1  0  0  0  0
 28 10  1  0  0  0  0
 28 16  1  1  0  0  0
M  END
>  <MODEL>
1

>  <REMARK>
 VINA RESULT:      -8.7      0.000      0.000
  Name = 
  0 active torsions:
  status: ('A' for Active; 'I' for Inactive)
                            x       y       z     vdW  Elec       q    Type
                         _______ _______ _______ _____ _____    ______ ____

>  <TORSDO>
F 0

$$$$
=
 OpenBabel11112417393D

 28 32  0  0  1  0  0  0  0  0999 V2000
  192.9460  174.4590  145.1640 C   0  0  0  0  0  0  0  0  0  0  0  0
  189.6960  175.2760  147.1980 O   0  0  0  0  0  0  0  0  0  0  0  0
  188.1190  175.0520  141.1050 O   0  0  0  0  0  0  0  0  0  0  0  0
  194.6110  176.7050  145.3740 C   0  0  0  0  0  3  0  0  0  0  0  0
  188.8800  177.0870  142.0120 N   0  0  0  0  0  0  0  0  0  0  0  0
  192.1200  173.2280  144.9820 C   0  0  0  0  0  2  0  0  0  0  0  0
  190.5200  177.4480  148.0030 O   0  0  0  0  0  0  0  0  0  0  0  0
  189.6910  176.7600  146.9560 S   0  0  0  0  0  0  0  0  0  0  0  0
  187.3730  177.5250  145.9410 C   0  0  0  0  0  0  0  0  0  0  0  0
  190.3560  177.1490  145.3390 C   0  0  2  0  0  3  0  0  0  0  0  0
  191.6070  172.7460  141.3910 O   0  0  0  0  0  0  0  0  0  0  0  0
  190.7770  176.1770  143.1440 C   0  0  2  0  0  3  0  0  0  0  0  0
  187.9250  177.1560  144.5980 C   0  0  0  0  0  2  0  0  0  0  0  0
  188.0680  177.3540  147.0210 N   0  0  0  0  0  0  0  0  0  0  0  0
  191.3330  173.0480  142.5810 C   0  0  0  0  0  0  0  0  0  0  0  0
  192.4060  175.7500  144.9800 C   0  0  0  0  0  0  0  0  0  0  0  0
  188.9500  175.6960  141.7980 C   0  0  0  0  0  0  0  0  0  0  0  0
  186.0350  177.9990  146.0360 N   0  0  0  0  0  1  0  0  0  0  0  0
  190.0240  173.6970  142.8910 C   0  0  0  0  0  2  0  0  0  0  0  0
  193.2570  176.8650  145.0740 C   0  0  0  0  0  3  0  0  0  0  0  0
  194.3060  174.3090  145.4600 C   0  0  0  0  0  3  0  0  0  0  0  0
  195.1350  175.4270  145.5720 C   0  0  0  0  0  3  0  0  0  0  0  0
  192.2680  172.7420  143.6170 N   0  0  0  0  0  2  0  0  0  0  0  0
  189.9060  177.4460  142.9860 C   0  0  2  0  0  3  0  0  0  0  0  0
  190.0300  175.0980  142.4840 N   0  0  0  0  0  0  0  0  0  0  0  0
  189.3300  177.7500  144.3810 C   0  0  2  0  0  3  0  0  0  0  0  0
  187.8980  177.9920  141.4380 C   0  0  0  0  0  1  0  0  0  0  0  0
  190.9500  175.9350  144.6390 C   0  0  1  0  0  3  0  0  0  0  0  0
  1 21  1  0  0  0  0
  3 17  2  0  0  0  0
  4 22  1  0  0  0  0
  6  1  1  0  0  0  0
  8 14  1  0  0  0  0
  8  2  2  0  0  0  0
  8  7  2  0  0  0  0
  9 18  1  0  0  0  0
  9 14  2  0  0  0  0
 10  8  1  1  0  0  0
 11 15  2  0  0  0  0
 12 25  1  1  0  0  0
 12 28  1  0  0  0  0
 13  9  1  0  0  0  0
 15 19  1  0  0  0  0
 15 23  1  0  0  0  0
 16 20  1  0  0  0  0
 16  1  2  0  0  0  0
 17  5  1  0  0  0  0
 17 25  1  0  0  0  0
 20  4  2  0  0  0  0
 21 22  2  0  0  0  0
 23  6  1  0  0  0  0
 24  5  1  6  0  0  0
 24 12  1  0  0  0  0
 24 26  1  0  0  0  0
 25 19  1  0  0  0  0
 26 13  1  6  0  0  0
 26 10  1  0  0  0  0
 27  5  1  0  0  0  0
 28 16  1  6  0  0  0
 28 10  1  0  0  0  0
M  END
>  <MODEL>
2

>  <REMARK>
 VINA RESULT:      -8.2      2.504      6.029
  Name = 
  0 active torsions:
  status: ('A' for Active; 'I' for Inactive)
                            x       y       z     vdW  Elec       q    Type
                         _______ _______ _______ _____ _____    ______ ____

>  <TORSDO>
F 0

$$$$
=
 OpenBabel11112417393D

 28 32  0  0  1  0  0  0  0  0999 V2000
  190.8300  175.0290  142.2800 C   0  0  0  0  0  0  0  0  0  0  0  0
  188.6460  178.1880  141.4950 O   0  0  0  0  0  0  0  0  0  0  0  0
  189.4600  177.9440  147.7350 O   0  0  0  0  0  0  0  0  0  0  0  0
  189.2460  172.7910  141.6930 C   0  0  0  0  0  3  0  0  0  0  0  0
  187.6510  176.7830  146.7750 N   0  0  0  0  0  0  0  0  0  0  0  0
  191.7390  176.1590  142.6370 C   0  0  0  0  0  2  0  0  0  0  0  0
  186.7500  176.8920  140.6190 O   0  0  0  0  0  0  0  0  0  0  0  0
  187.3110  177.5820  141.8290 S   0  0  0  0  0  0  0  0  0  0  0  0
  186.0370  179.0710  143.6030 C   0  0  0  0  0  0  0  0  0  0  0  0
  187.4620  176.3920  143.1600 C   0  0  2  0  0  3  0  0  0  0  0  0
  192.6780  175.7750  146.1530 O   0  0  0  0  0  0  0  0  0  0  0  0
  188.9030  175.7530  145.0190 C   0  0  2  0  0  3  0  0  0  0  0  0
  186.8040  178.3360  144.6590 C   0  0  0  0  0  2  0  0  0  0  0  0
  186.2230  178.8220  142.3450 N   0  0  0  0  0  0  0  0  0  0  0  0
  192.0900  176.2440  145.1440 C   0  0  0  0  0  0  0  0  0  0  0  0
  189.4910  174.9840  142.7230 C   0  0  0  0  0  0  0  0  0  0  0  0
  189.0040  177.1670  146.8540 C   0  0  0  0  0  0  0  0  0  0  0  0
  185.1460  180.1110  143.9890 N   0  0  0  0  0  1  0  0  0  0  0  0
  191.0070  177.2550  145.3290 C   0  0  0  0  0  2  0  0  0  0  0  0
  188.7140  173.8490  142.4330 C   0  0  0  0  0  3  0  0  0  0  0  0
  191.3550  173.9620  141.5430 C   0  0  0  0  0  3  0  0  0  0  0  0
  190.5660  172.8500  141.2430 C   0  0  0  0  0  3  0  0  0  0  0  0
  192.4870  175.8190  143.8390 N   0  0  0  0  0  2  0  0  0  0  0  0
  187.4710  176.0170  145.5450 C   0  0  2  0  0  3  0  0  0  0  0  0
  189.7840  176.6230  145.8100 N   0  0  0  0  0  0  0  0  0  0  0  0
  186.7470  176.8110  144.4430 C   0  0  2  0  0  3  0  0  0  0  0  0
  186.5980  177.1600  147.7030 C   0  0  0  0  0  1  0  0  0  0  0  0
  188.9100  176.1110  143.5370 C   0  0  1  0  0  3  0  0  0  0  0  0
  1  6  1  0  0  0  0
  1 16  1  0  0  0  0
  2  8  2  0  0  0  0
  4 20  1  0  0  0  0
  5 17  1  0  0  0  0
  5 27  1  0  0  0  0
  6 23  1  0  0  0  0
  7  8  2  0  0  0  0
  8 14  1  0  0  0  0
  9 18  1  0  0  0  0
  9 13  1  0  0  0  0
 10  8  1  6  0  0  0
 10 28  1  0  0  0  0
 10 26  1  0  0  0  0
 12 24  1  0  0  0  0
 12 25  1  1  0  0  0
 14  9  2  0  0  0  0
 15 19  1  0  0  0  0
 15 11  2  0  0  0  0
 17  3  2  0  0  0  0
 19 25  1  0  0  0  0
 20 16  2  0  0  0  0
 21  1  2  0  0  0  0
 22 21  1  0  0  0  0
 22  4  2  0  0  0  0
 23 15  1  0  0  0  0
 24  5  1  1  0  0  0
 25 17  1  0  0  0  0
 26 13  1  1  0  0  0
 26 24  1  0  0  0  0
 28 16  1  6  0  0  0
 28 12  1  0  0  0  0
M  END
>  <MODEL>
3

>  <REMARK>
 VINA RESULT:      -8.0      2.092      6.422
  Name = 
  0 active torsions:
  status: ('A' for Active; 'I' for Inactive)
                            x       y       z     vdW  Elec       q    Type
                         _______ _______ _______ _____ _____    ______ ____

>  <TORSDO>
F 0

$$$$
=
 OpenBabel11112417393D

 28 32  0  0  1  0  0  0  0  0999 V2000
  188.5660  175.7600  145.9840 C   0  0  0  0  0  0  0  0  0  0  0  0
  189.3150  172.4740  143.9810 O   0  0  0  0  0  0  0  0  0  0  0  0
  194.7830  175.4930  144.7920 O   0  0  0  0  0  0  0  0  0  0  0  0
  187.0950  177.4250  144.2750 C   0  0  0  0  0  3  0  0  0  0  0  0
  193.4570  176.0180  142.9190 N   0  0  0  0  0  0  0  0  0  0  0  0
  189.3610  174.9510  146.9560 C   0  0  0  0  0  2  0  0  0  0  0  0
  188.0090  173.1530  142.0130 O   0  0  0  0  0  0  0  0  0  0  0  0
  189.3840  173.0990  142.6150 S   0  0  0  0  0  0  0  0  0  0  0  0
  191.6660  172.4850  141.4300 C   0  0  0  0  0  0  0  0  0  0  0  0
  190.0480  174.7600  142.7000 C   0  0  2  0  0  3  0  0  0  0  0  0
  192.3200  176.8970  147.8790 O   0  0  0  0  0  0  0  0  0  0  0  0
  191.3950  176.2260  144.1060 C   0  0  2  0  0  3  0  0  0  0  0  0
  192.2680  173.6490  142.1560 C   0  0  0  0  0  2  0  0  0  0  0  0
  190.4230  172.1610  141.5990 N   0  0  0  0  0  0  0  0  0  0  0  0
  191.6380  176.0010  147.3170 C   0  0  0  0  0  0  0  0  0  0  0  0
  188.9800  175.9290  144.6450 C   0  0  0  0  0  0  0  0  0  0  0  0
  193.6620  175.7760  144.2910 C   0  0  0  0  0  0  0  0  0  0  0  0
  192.4950  171.6800  140.6000 N   0  0  0  0  0  1  0  0  0  0  0  0
  192.2790  175.1230  146.2930 C   0  0  0  0  0  2  0  0  0  0  0  0
  188.2400  176.7780  143.8050 C   0  0  0  0  0  3  0  0  0  0  0  0
  187.4200  176.4160  146.4460 C   0  0  0  0  0  3  0  0  0  0  0  0
  186.6820  177.2400  145.5950 C   0  0  0  0  0  3  0  0  0  0  0  0
  190.2690  175.8240  147.6860 N   0  0  0  0  0  2  0  0  0  0  0  0
  192.0210  176.1500  142.6930 C   0  0  2  0  0  3  0  0  0  0  0  0
  192.4640  175.8410  145.0370 N   0  0  0  0  0  0  0  0  0  0  0  0
  191.4030  174.9160  142.0130 C   0  0  2  0  0  3  0  0  0  0  0  0
  194.4850  176.0380  141.8900 C   0  0  0  0  0  1  0  0  0  0  0  0
  190.2230  175.2500  144.1310 C   0  0  1  0  0  3  0  0  0  0  0  0
  1 21  1  0  0  0  0
  1  6  1  0  0  0  0
  4 22  1  0  0  0  0
  5 17  1  0  0  0  0
  6 23  1  0  0  0  0
  7  8  2  0  0  0  0
  8  2  2  0  0  0  0
  9 14  2  0  0  0  0
  9 13  1  0  0  0  0
 10  8  1  1  0  0  0
 10 28  1  0  0  0  0
 12 28  1  0  0  0  0
 12 25  1  1  0  0  0
 14  8  1  0  0  0  0
 15 23  1  0  0  0  0
 15 11  2  0  0  0  0
 16  1  2  0  0  0  0
 17  3  2  0  0  0  0
 17 25  1  0  0  0  0
 18  9  1  0  0  0  0
 19 15  1  0  0  0  0
 20  4  2  0  0  0  0
 20 16  1  0  0  0  0
 22 21  2  0  0  0  0
 24  5  1  1  0  0  0
 24 12  1  0  0  0  0
 25 19  1  0  0  0  0
 26 13  1  1  0  0  0
 26 24  1  0  0  0  0
 26 10  1  0  0  0  0
 27  5  1  0  0  0  0
 28 16  1  6  0  0  0
M  END
>  <MODEL>
4

>  <REMARK>
 VINA RESULT:      -7.6      3.013      5.534
  Name = 
  0 active torsions:
  status: ('A' for Active; 'I' for Inactive)
                            x       y       z     vdW  Elec       q    Type
                         _______ _______ _______ _____ _____    ______ ____

>  <TORSDO>
F 0

$$$$
=
 OpenBabel11112417393D

 28 32  0  0  1  0  0  0  0  0999 V2000
  188.8440  176.6110  145.3600 C   0  0  0  0  0  0  0  0  0  0  0  0
  192.3420  176.8150  143.6010 O   0  0  0  0  0  0  0  0  0  0  0  0
  188.1920  174.7360  139.3440 O   0  0  0  0  0  0  0  0  0  0  0  0
  189.0110  174.5410  147.2440 C   0  0  0  0  0  3  0  0  0  0  0  0
  189.2780  173.1770  140.7340 N   0  0  0  0  0  0  0  0  0  0  0  0
  188.6560  177.7150  144.3720 C   0  0  0  0  0  2  0  0  0  0  0  0
  193.3650  175.0870  145.0190 O   0  0  0  0  0  0  0  0  0  0  0  0
  192.6890  175.3560  143.7050 S   0  0  0  0  0  0  0  0  0  0  0  0
  193.2920  174.3770  141.3240 C   0  0  0  0  0  0  0  0  0  0  0  0
  191.2210  174.3360  143.5860 C   0  0  2  0  0  3  0  0  0  0  0  0
  185.8810  176.7910  142.1730 O   0  0  0  0  0  0  0  0  0  0  0  0
  188.9210  174.3570  142.7810 C   0  0  2  0  0  3  0  0  0  0  0  0
  191.8230  174.1660  141.1220 C   0  0  0  0  0  2  0  0  0  0  0  0
  193.7480  174.9180  142.4100 N   0  0  0  0  0  0  0  0  0  0  0  0
  187.0690  176.9890  142.5360 C   0  0  0  0  0  0  0  0  0  0  0  0
  189.4290  175.3800  144.9960 C   0  0  0  0  0  0  0  0  0  0  0  0
  188.5690  174.3700  140.4890 C   0  0  0  0  0  0  0  0  0  0  0  0
  194.1920  174.0450  140.2730 N   0  0  0  0  0  1  0  0  0  0  0  0
  188.1900  176.5780  141.6380 C   0  0  0  0  0  2  0  0  0  0  0  0
  189.4930  174.3470  145.9470 C   0  0  0  0  0  3  0  0  0  0  0  0
  188.3610  176.7940  146.6610 C   0  0  0  0  0  3  0  0  0  0  0  0
  188.4500  175.7670  147.6020 C   0  0  0  0  0  3  0  0  0  0  0  0
  187.3250  177.6240  143.7900 N   0  0  0  0  0  2  0  0  0  0  0  0
  189.6810  173.1720  142.1370 C   0  0  2  0  0  3  0  0  0  0  0  0
  188.3700  175.1320  141.6620 N   0  0  0  0  0  0  0  0  0  0  0  0
  191.1790  173.4630  142.3330 C   0  0  2  0  0  3  0  0  0  0  0  0
  189.6290  172.1710  139.7450 C   0  0  0  0  0  1  0  0  0  0  0  0
  189.9360  175.1520  143.5950 C   0  0  1  0  0  3  0  0  0  0  0  0
  1 21  1  0  0  0  0
  2  8  2  0  0  0  0
  3 17  2  0  0  0  0
  4 22  1  0  0  0  0
  6  1  1  0  0  0  0
  8  7  2  0  0  0  0
  9 14  2  0  0  0  0
 10 28  1  0  0  0  0
 10  8  1  6  0  0  0
 11 15  2  0  0  0  0
 12 25  1  6  0  0  0
 12 28  1  0  0  0  0
 13  9  1  0  0  0  0
 14  8  1  0  0  0  0
 15 23  1  0  0  0  0
 16  1  2  0  0  0  0
 16 20  1  0  0  0  0
 17  5  1  0  0  0  0
 17 25  1  0  0  0  0
 18  9  1  0  0  0  0
 19 25  1  0  0  0  0
 19 15  1  0  0  0  0
 20  4  2  0  0  0  0
 21 22  2  0  0  0  0
 23  6  1  0  0  0  0
 24  5  1  6  0  0  0
 24 26  1  0  0  0  0
 24 12  1  0  0  0  0
 26 13  1  6  0  0  0
 26 10  1  0  0  0  0
 27  5  1  0  0  0  0
 28 16  1  1  0  0  0
M  END
>  <MODEL>
5

>  <REMARK>
 VINA RESULT:      -7.4      2.207      2.873
  Name = 
  0 active torsions:
  status: ('A' for Active; 'I' for Inactive)
                            x       y       z     vdW  Elec       q    Type
                         _______ _______ _______ _____ _____    ______ ____

>  <TORSDO>
F 0

$$$$
=
 OpenBabel11112417393D

 28 32  0  0  1  0  0  0  0  0999 V2000
  187.6990  177.1170  144.4980 C   0  0  0  0  0  0  0  0  0  0  0  0
  188.9410  173.5300  143.5180 O   0  0  0  0  0  0  0  0  0  0  0  0
  193.5040  176.2670  146.8880 O   0  0  0  0  0  0  0  0  0  0  0  0
  187.5910  178.6060  142.1250 C   0  0  0  0  0  3  0  0  0  0  0  0
  193.4530  176.5980  144.5570 N   0  0  0  0  0  0  0  0  0  0  0  0
  187.7420  176.4080  145.8120 C   0  0  0  0  0  2  0  0  0  0  0  0
  188.9770  173.9980  141.1050 O   0  0  0  0  0  0  0  0  0  0  0  0
  189.8040  173.9410  142.3570 S   0  0  0  0  0  0  0  0  0  0  0  0
  192.2610  173.0110  142.6550 C   0  0  0  0  0  0  0  0  0  0  0  0
  190.5400  175.5500  142.6410 C   0  0  2  0  0  3  0  0  0  0  0  0
  189.9980  178.2690  148.0130 O   0  0  0  0  0  0  0  0  0  0  0  0
  191.1240  177.1140  144.4170 C   0  0  2  0  0  3  0  0  0  0  0  0
  192.5390  174.2270  143.4850 C   0  0  0  0  0  2  0  0  0  0  0  0
  191.0860  172.7980  142.1520 N   0  0  0  0  0  0  0  0  0  0  0  0
  189.6020  177.3470  147.2530 C   0  0  0  0  0  0  0  0  0  0  0  0
  188.7750  177.0600  143.5870 C   0  0  0  0  0  0  0  0  0  0  0  0
  192.8670  176.5470  145.8380 C   0  0  0  0  0  0  0  0  0  0  0  0
  193.2860  172.0400  142.4800 N   0  0  0  0  0  1  0  0  0  0  0  0
  190.5630  176.2880  146.8210 C   0  0  0  0  0  2  0  0  0  0  0  0
  188.7120  177.8230  142.4090 C   0  0  0  0  0  3  0  0  0  0  0  0
  186.5810  177.9070  144.2070 C   0  0  0  0  0  3  0  0  0  0  0  0
  186.5230  178.6440  143.0220 C   0  0  0  0  0  3  0  0  0  0  0  0
  188.2360  177.3170  146.8370 N   0  0  0  0  0  2  0  0  0  0  0  0
  192.3850  176.7910  143.5800 C   0  0  2  0  0  3  0  0  0  0  0  0
  191.4770  176.8000  145.8070 N   0  0  0  0  0  0  0  0  0  0  0  0
  192.0600  175.5130  142.7850 C   0  0  2  0  0  3  0  0  0  0  0  0
  194.8600  176.3990  144.2510 C   0  0  0  0  0  1  0  0  0  0  0  0
  189.9970  176.2320  143.8890 C   0  0  1  0  0  3  0  0  0  0  0  0
  1  6  1  0  0  0  0
  4 20  2  0  0  0  0
  4 22  1  0  0  0  0
  5 17  1  0  0  0  0
  6 23  1  0  0  0  0
  7  8  2  0  0  0  0
  8  2  2  0  0  0  0
  9 13  1  0  0  0  0
 10  8  1  1  0  0  0
 10 26  1  0  0  0  0
 10 28  1  0  0  0  0
 12 25  1  1  0  0  0
 14  8  1  0  0  0  0
 14  9  2  0  0  0  0
 15 11  2  0  0  0  0
 16  1  2  0  0  0  0
 17  3  2  0  0  0  0
 18  9  1  0  0  0  0
 19 15  1  0  0  0  0
 20 16  1  0  0  0  0
 21  1  1  0  0  0  0
 22 21  2  0  0  0  0
 23 15  1  0  0  0  0
 24 12  1  0  0  0  0
 24  5  1  1  0  0  0
 25 17  1  0  0  0  0
 25 19  1  0  0  0  0
 26 13  1  1  0  0  0
 26 24  1  0  0  0  0
 27  5  1  0  0  0  0
 28 16  1  6  0  0  0
 28 12  1  0  0  0  0
M  END
>  <MODEL>
6

>  <REMARK>
 VINA RESULT:      -7.4      2.731      5.231
  Name = 
  0 active torsions:
  status: ('A' for Active; 'I' for Inactive)
                            x       y       z     vdW  Elec       q    Type
                         _______ _______ _______ _____ _____    ______ ____

>  <TORSDO>
F 0

$$$$
=
 OpenBabel11112417393D

 28 32  0  0  1  0  0  0  0  0999 V2000
  188.5890  176.1920  145.3970 C   0  0  0  0  0  0  0  0  0  0  0  0
  189.8040  172.8690  143.7090 O   0  0  0  0  0  0  0  0  0  0  0  0
  194.8380  175.6420  146.2860 O   0  0  0  0  0  0  0  0  0  0  0  0
  187.8270  177.9160  143.3220 C   0  0  0  0  0  3  0  0  0  0  0  0
  194.2170  176.2200  144.0900 N   0  0  0  0  0  0  0  0  0  0  0  0
  188.9890  175.3510  146.5660 C   0  0  0  0  0  2  0  0  0  0  0  0
  189.2390  173.6000  141.4310 O   0  0  0  0  0  0  0  0  0  0  0  0
  190.3400  173.4850  142.4460 S   0  0  0  0  0  0  0  0  0  0  0  0
  192.8540  172.7660  142.0600 C   0  0  0  0  0  0  0  0  0  0  0  0
  191.0120  175.1150  142.7620 C   0  0  2  0  0  3  0  0  0  0  0  0
  191.5690  177.1660  148.4210 O   0  0  0  0  0  0  0  0  0  0  0  0
  191.8910  176.5240  144.5460 C   0  0  2  0  0  3  0  0  0  0  0  0
  193.2380  173.9040  142.9560 C   0  0  0  0  0  2  0  0  0  0  0  0
  191.6110  172.4980  141.8130 N   0  0  0  0  0  0  0  0  0  0  0  0
  191.0680  176.3000  147.6580 C   0  0  0  0  0  0  0  0  0  0  0  0
  189.4220  176.3380  144.2680 C   0  0  0  0  0  0  0  0  0  0  0  0
  193.9540  175.9740  145.4520 C   0  0  0  0  0  0  0  0  0  0  0  0
  193.8720  171.9210  141.5360 N   0  0  0  0  0  1  0  0  0  0  0  0
  191.9690  175.3910  146.8880 C   0  0  0  0  0  2  0  0  0  0  0  0
  189.0330  177.2160  143.2420 C   0  0  0  0  0  3  0  0  0  0  0  0
  187.3840  176.9000  145.4700 C   0  0  0  0  0  3  0  0  0  0  0  0
  187.0000  177.7540  144.4340 C   0  0  0  0  0  3  0  0  0  0  0  0
  189.6470  176.1850  147.5610 N   0  0  0  0  0  2  0  0  0  0  0  0
  192.9390  176.4160  143.4120 C   0  0  2  0  0  3  0  0  0  0  0  0
  192.5820  176.0950  145.7690 N   0  0  0  0  0  0  0  0  0  0  0  0
  192.5220  175.2080  142.5540 C   0  0  2  0  0  3  0  0  0  0  0  0
  195.5230  176.1900  143.4510 C   0  0  0  0  0  1  0  0  0  0  0  0
  190.7340  175.6020  144.1770 C   0  0  1  0  0  3  0  0  0  0  0  0
  1 21  1  0  0  0  0
  1  6  1  0  0  0  0
  4 22  1  0  0  0  0
  5 17  1  0  0  0  0
  6 23  1  0  0  0  0
  7  8  2  0  0  0  0
  8  2  2  0  0  0  0
  9 13  1  0  0  0  0
 10  8  1  1  0  0  0
 10 28  1  0  0  0  0
 12 25  1  1  0  0  0
 14  9  2  0  0  0  0
 14  8  1  0  0  0  0
 15 11  2  0  0  0  0
 16  1  2  0  0  0  0
 17 25  1  0  0  0  0
 17  3  2  0  0  0  0
 18  9  1  0  0  0  0
 19 15  1  0  0  0  0
 20  4  2  0  0  0  0
 20 16  1  0  0  0  0
 22 21  2  0  0  0  0
 23 15  1  0  0  0  0
 24  5  1  1  0  0  0
 24 12  1  0  0  0  0
 25 19  1  0  0  0  0
 26 10  1  0  0  0  0
 26 13  1  1  0  0  0
 26 24  1  0  0  0  0
 27  5  1  0  0  0  0
 28 16  1  6  0  0  0
 28 12  1  0  0  0  0
M  END
>  <MODEL>
7

>  <REMARK>
 VINA RESULT:      -7.4      3.130      5.751
  Name = 
  0 active torsions:
  status: ('A' for Active; 'I' for Inactive)
                            x       y       z     vdW  Elec       q    Type
                         _______ _______ _______ _____ _____    ______ ____

>  <TORSDO>
F 0

$$$$
=
 OpenBabel11112417393D

 28 32  0  0  1  0  0  0  0  0999 V2000
  189.1700  176.1380  144.6600 C   0  0  0  0  0  0  0  0  0  0  0  0
  192.9540  177.1660  144.6610 O   0  0  0  0  0  0  0  0  0  0  0  0
  192.3970  171.9690  141.1460 O   0  0  0  0  0  0  0  0  0  0  0  0
  188.5670  175.2910  147.2630 C   0  0  0  0  0  3  0  0  0  0  0  0
  192.7300  171.7470  143.4670 N   0  0  0  0  0  0  0  0  0  0  0  0
  189.4030  176.5530  143.2430 C   0  0  0  0  0  2  0  0  0  0  0  0
  193.2480  176.7910  147.0720 O   0  0  0  0  0  0  0  0  0  0  0  0
  193.4130  176.1880  145.7070 S   0  0  0  0  0  0  0  0  0  0  0  0
  195.4210  174.7310  144.7920 C   0  0  0  0  0  0  0  0  0  0  0  0
  192.4690  174.6680  145.6230 C   0  0  2  0  0  3  0  0  0  0  0  0
  188.5840  173.7080  141.0930 O   0  0  0  0  0  0  0  0  0  0  0  0
  191.0780  173.3430  144.1230 C   0  0  2  0  0  3  0  0  0  0  0  0
  194.3900  173.8280  144.1870 C   0  0  0  0  0  2  0  0  0  0  0  0
  195.0770  175.7970  145.4440 N   0  0  0  0  0  0  0  0  0  0  0  0
  189.2980  174.5390  141.7110 C   0  0  0  0  0  0  0  0  0  0  0  0
  190.0510  175.2650  145.3320 C   0  0  0  0  0  0  0  0  0  0  0  0
  192.1050  172.2940  142.3280 C   0  0  0  0  0  0  0  0  0  0  0  0
  196.7990  174.4500  144.5820 N   0  0  0  0  0  1  0  0  0  0  0  0
  190.7800  174.3540  141.7420 C   0  0  0  0  0  2  0  0  0  0  0  0
  189.7270  174.8380  146.6320 C   0  0  0  0  0  3  0  0  0  0  0  0
  188.0080  176.5840  145.2990 C   0  0  0  0  0  3  0  0  0  0  0  0
  187.7090  176.1680  146.5980 C   0  0  0  0  0  3  0  0  0  0  0  0
  188.6810  175.6580  142.3500 N   0  0  0  0  0  2  0  0  0  0  0  0
  192.2510  172.4750  144.6380 C   0  0  2  0  0  3  0  0  0  0  0  0
  191.1490  173.2800  142.6580 N   0  0  0  0  0  0  0  0  0  0  0  0
  193.2960  173.4530  145.2050 C   0  0  2  0  0  3  0  0  0  0  0  0
  193.7430  170.7040  143.4690 C   0  0  0  0  0  1  0  0  0  0  0  0
  191.2970  174.7550  144.6560 C   0  0  1  0  0  3  0  0  0  0  0  0
  1 21  2  0  0  0  0
  1 16  1  0  0  0  0
  2  8  2  0  0  0  0
  3 17  2  0  0  0  0
  5 27  1  0  0  0  0
  6  1  1  0  0  0  0
  8  7  2  0  0  0  0
  9 14  2  0  0  0  0
 10  8  1  6  0  0  0
 11 15  2  0  0  0  0
 12 25  1  6  0  0  0
 12 24  1  0  0  0  0
 12 28  1  0  0  0  0
 13  9  1  0  0  0  0
 14  8  1  0  0  0  0
 15 19  1  0  0  0  0
 15 23  1  0  0  0  0
 16 20  2  0  0  0  0
 17 25  1  0  0  0  0
 17  5  1  0  0  0  0
 18  9  1  0  0  0  0
 19 25  1  0  0  0  0
 20  4  1  0  0  0  0
 21 22  1  0  0  0  0
 22  4  2  0  0  0  0
 23  6  1  0  0  0  0
 24  5  1  6  0  0  0
 24 26  1  0  0  0  0
 26 13  1  6  0  0  0
 26 10  1  0  0  0  0
 28 16  1  1  0  0  0
 28 10  1  0  0  0  0
M  END
>  <MODEL>
8

>  <REMARK>
 VINA RESULT:      -7.3      2.867      4.285
  Name = 
  0 active torsions:
  status: ('A' for Active; 'I' for Inactive)
                            x       y       z     vdW  Elec       q    Type
                         _______ _______ _______ _____ _____    ______ ____

>  <TORSDO>
F 0

$$$$
=
 OpenBabel11112417393D

 28 32  0  0  1  0  0  0  0  0999 V2000
  185.9490  176.9050  143.5950 C   0  0  0  0  0  0  0  0  0  0  0  0
  187.8800  173.6500  142.5710 O   0  0  0  0  0  0  0  0  0  0  0  0
  191.1770  176.4560  147.1460 O   0  0  0  0  0  0  0  0  0  0  0  0
  186.1320  178.6660  141.4210 C   0  0  0  0  0  3  0  0  0  0  0  0
  191.5730  177.0760  144.9090 N   0  0  0  0  0  0  0  0  0  0  0  0
  185.8160  176.0430  144.8080 C   0  0  0  0  0  2  0  0  0  0  0  0
  188.3570  174.4270  140.2880 O   0  0  0  0  0  0  0  0  0  0  0  0
  188.9000  174.3090  141.6840 S   0  0  0  0  0  0  0  0  0  0  0  0
  191.3460  173.6490  142.4380 C   0  0  0  0  0  0  0  0  0  0  0  0
  189.3160  175.9430  142.2870 C   0  0  2  0  0  3  0  0  0  0  0  0
  187.2590  177.8600  147.6380 O   0  0  0  0  0  0  0  0  0  0  0  0
  189.2770  177.3230  144.2950 C   0  0  2  0  0  3  0  0  0  0  0  0
  191.2620  174.7710  143.4270 C   0  0  0  0  0  2  0  0  0  0  0  0
  190.3470  173.3630  141.6630 N   0  0  0  0  0  0  0  0  0  0  0  0
  187.1720  177.0040  146.7200 C   0  0  0  0  0  0  0  0  0  0  0  0
  187.1910  177.0960  142.9520 C   0  0  0  0  0  0  0  0  0  0  0  0
  190.7430  176.7910  146.0110 C   0  0  0  0  0  0  0  0  0  0  0  0
  192.5140  172.8380  142.4050 N   0  0  0  0  0  1  0  0  0  0  0  0
  188.3460  176.1330  146.4150 C   0  0  0  0  0  2  0  0  0  0  0  0
  187.2690  177.9920  141.8720 C   0  0  0  0  0  3  0  0  0  0  0  0
  184.8160  177.5880  143.1380 C   0  0  0  0  0  3  0  0  0  0  0  0
  184.9040  178.4590  142.0510 C   0  0  0  0  0  3  0  0  0  0  0  0
  185.9440  176.8650  146.0040 N   0  0  0  0  0  2  0  0  0  0  0  0
  190.7210  177.2640  143.7390 C   0  0  2  0  0  3  0  0  0  0  0  0
  189.3700  176.8770  145.6910 N   0  0  0  0  0  0  0  0  0  0  0  0
  190.7600  176.0710  142.7680 C   0  0  2  0  0  3  0  0  0  0  0  0
  193.0270  177.0880  144.9130 C   0  0  0  0  0  1  0  0  0  0  0  0
  188.4280  176.3890  143.4400 C   0  0  1  0  0  3  0  0  0  0  0  0
  1  6  1  0  0  0  0
  4 20  2  0  0  0  0
  4 22  1  0  0  0  0
  5 27  1  0  0  0  0
  5 17  1  0  0  0  0
  6 23  1  0  0  0  0
  7  8  2  0  0  0  0
  8  2  2  0  0  0  0
  9 13  1  0  0  0  0
 10  8  1  1  0  0  0
 10 26  1  0  0  0  0
 10 28  1  0  0  0  0
 12 25  1  1  0  0  0
 14  8  1  0  0  0  0
 14  9  2  0  0  0  0
 15 11  2  0  0  0  0
 16  1  2  0  0  0  0
 17  3  2  0  0  0  0
 18  9  1  0  0  0  0
 19 15  1  0  0  0  0
 20 16  1  0  0  0  0
 21  1  1  0  0  0  0
 22 21  2  0  0  0  0
 23 15  1  0  0  0  0
 24 12  1  0  0  0  0
 24  5  1  1  0  0  0
 25 17  1  0  0  0  0
 25 19  1  0  0  0  0
 26 13  1  1  0  0  0
 26 24  1  0  0  0  0
 28 16  1  6  0  0  0
 28 12  1  0  0  0  0
M  END
>  <MODEL>
9

>  <REMARK>
 VINA RESULT:      -7.3      2.370      4.702
  Name = 
  0 active torsions:
  status: ('A' for Active; 'I' for Inactive)
                            x       y       z     vdW  Elec       q    Type
                         _______ _______ _______ _____ _____    ______ ____

>  <TORSDO>
F 0

$$$$
