=
 OpenBabel11112417173D

 37 44  0  0  1  0  0  0  0  0999 V2000
  191.0340  173.5320  141.4400 C   0  0  0  0  0  2  0  0  0  0  0  0
  195.0920  174.0320  143.2310 C   0  0  0  0  0  0  0  0  0  0  0  0
  191.9890  175.8880  145.3280 C   0  0  0  0  0  0  0  0  0  0  0  0
  190.6980  173.3970  140.0220 N   0  0  0  0  0  0  0  0  0  0  0  0
  188.4560  175.5460  143.8580 O   0  0  0  0  0  0  0  0  0  0  0  0
  194.3700  175.3970  145.2620 C   0  0  0  0  0  0  0  0  0  0  0  0
  190.9340  175.7400  144.4200 C   0  0  0  0  0  0  0  0  0  0  0  0
  188.3280  173.6460  140.6160 C   0  0  0  0  0  0  0  0  0  0  0  0
  193.1060  175.4170  144.7060 C   0  0  0  0  0  0  0  0  0  0  0  0
  189.4650  176.0560  144.7020 C   0  0  0  0  0  0  0  0  0  0  0  0
  194.5120  175.9200  146.5530 C   0  0  0  0  0  3  0  0  0  0  0  0
  189.3480  173.6370  139.5140 C   0  0  0  0  0  2  0  0  0  0  0  0
  192.7870  175.0140  143.4630 C   0  0  0  0  0  0  0  0  0  0  0  0
  194.8140  172.6270  143.7380 C   0  0  0  0  0  1  0  0  0  0  0  0
  191.0280  177.1160  147.3060 C   0  0  0  0  0  3  0  0  0  0  0  0
  193.3790  176.4360  147.2210 C   0  0  0  0  0  3  0  0  0  0  0  0
  193.8410  174.5680  142.4880 C   0  0  0  0  0  2  0  0  0  0  0  0
  188.1380  174.8620  141.4760 C   0  0  1  0  0  3  0  0  0  0  0  0
  188.7650  174.6520  142.8280 C   0  0  1  0  0  3  0  0  0  0  0  0
  192.1030  176.4340  146.6080 C   0  0  0  0  0  0  0  0  0  0  0  0
  191.4670  175.2110  143.2420 N   0  0  0  0  0  0  0  0  0  0  0  0
  195.5310  174.9310  144.4190 C   0  0  0  0  0  2  0  0  0  0  0  0
  189.0100  176.7930  145.7510 C   0  0  0  0  0  0  0  0  0  0  0  0
  196.2360  173.9550  142.2430 C   0  0  0  0  0  1  0  0  0  0  0  0
  189.4610  175.5490  141.8300 C   0  0  1  0  0  3  0  0  0  0  0  0
  187.6500  172.6520  140.8150 O   0  0  0  0  0  0  0  0  0  0  0  0
  190.8720  174.9890  141.9040 C   0  0  2  0  0  3  0  0  0  0  0  0
  189.7680  177.2670  146.9280 C   0  0  0  0  0  3  0  0  0  0  0  0
  192.9240  172.9720  139.4330 O   0  0  0  0  0  0  0  0  0  0  0  0
  191.7310  173.1420  139.0680 C   0  0  0  0  0  3  0  0  0  0  0  0
  186.7030  176.4990  146.6960 C   0  0  0  0  0  3  0  0  0  0  0  0
  187.5710  177.1590  145.8130 C   0  0  0  0  0  0  0  0  0  0  0  0
  187.0560  178.1980  145.0250 C   0  0  0  0  0  3  0  0  0  0  0  0
  185.0600  179.8320  144.1220 Cl  0  0  0  0  0  0  0  0  0  0  0  0
  184.8800  177.8510  145.9990 C   0  0  0  0  0  3  0  0  0  0  0  0
  185.7070  178.5430  145.1130 C   0  0  0  0  0  0  0  0  0  0  0  0
  185.3920  176.8530  146.7670 N   0  0  0  0  0  0  0  0  0  0  0  0
  1 27  1  0  0  0  0
  2 14  1  0  0  0  0
  2 22  1  0  0  0  0
  3 20  1  0  0  0  0
  4  1  1  0  0  0  0
  5 10  1  0  0  0  0
  6 11  2  0  0  0  0
  7 10  1  0  0  0  0
  7  3  2  0  0  0  0
  8 26  2  0  0  0  0
  9  6  1  0  0  0  0
  9  3  1  0  0  0  0
 10 23  2  0  0  0  0
 11 16  1  0  0  0  0
 12  4  1  0  0  0  0
 12  8  1  0  0  0  0
 13  9  2  0  0  0  0
 17  2  1  0  0  0  0
 17 13  1  0  0  0  0
 18  8  1  6  0  0  0
 18 25  1  0  0  0  0
 18 19  1  0  0  0  0
 19  5  1  1  0  0  0
 20 16  2  0  0  0  0
 20 15  1  0  0  0  0
 21 13  1  0  0  0  0
 21  7  1  0  0  0  0
 22  6  1  0  0  0  0
 23 32  1  0  0  0  0
 23 28  1  0  0  0  0
 24  2  1  0  0  0  0
 25 27  1  0  0  0  0
 25 19  1  0  0  0  0
 27 21  1  0  0  0  0
 28 15  2  0  0  0  0
 30 29  2  0  0  0  0
 30  4  1  0  0  0  0
 31 37  1  0  0  0  0
 32 31  2  0  0  0  0
 33 36  2  0  0  0  0
 33 32  1  0  0  0  0
 34 36  1  0  0  0  0
 35 37  2  0  0  0  0
 36 35  1  0  0  0  0
M  END
>  <MODEL>
1

>  <REMARK>
 VINA RESULT:      -9.5      0.000      0.000
  Name = 
  1 active torsions:
  status: ('A' for Active; 'I' for Inactive)
    1  A    between atoms: C_23  and  C_30
                            x       y       z     vdW  Elec       q    Type
                         _______ _______ _______ _____ _____    ______ ____

>  <TORSDO>
F 1

$$$$
=
 OpenBabel11112417173D

 37 44  0  0  1  0  0  0  0  0999 V2000
  189.7540  174.7640  143.2200 C   0  0  0  0  0  2  0  0  0  0  0  0
  190.9420  176.4170  147.1920 C   0  0  0  0  0  0  0  0  0  0  0  0
  187.3080  177.8410  145.6950 C   0  0  0  0  0  0  0  0  0  0  0  0
  190.6370  174.3410  142.1320 N   0  0  0  0  0  0  0  0  0  0  0  0
  186.2030  176.5050  142.2670 O   0  0  0  0  0  0  0  0  0  0  0  0
  188.8840  177.8840  147.5460 C   0  0  0  0  0  0  0  0  0  0  0  0
  187.3420  177.3260  144.3940 C   0  0  0  0  0  0  0  0  0  0  0  0
  188.6670  174.1490  140.6790 C   0  0  0  0  0  0  0  0  0  0  0  0
  188.5090  177.5380  146.2630 C   0  0  0  0  0  0  0  0  0  0  0  0
  186.1820  177.3480  143.3970 C   0  0  0  0  0  0  0  0  0  0  0  0
  187.9660  178.6170  148.3080 C   0  0  0  0  0  3  0  0  0  0  0  0
  190.1650  174.1960  140.7550 C   0  0  0  0  0  2  0  0  0  0  0  0
  189.2740  176.8900  145.3680 C   0  0  0  0  0  0  0  0  0  0  0  0
  190.4060  175.0810  147.6770 C   0  0  0  0  0  1  0  0  0  0  0  0
  185.1430  179.1140  145.8770 C   0  0  0  0  0  3  0  0  0  0  0  0
  186.7190  178.9660  147.7440 C   0  0  0  0  0  3  0  0  0  0  0  0
  190.7070  176.5430  145.6650 C   0  0  0  0  0  2  0  0  0  0  0  0
  187.8540  175.4090  140.7440 C   0  0  1  0  0  3  0  0  0  0  0  0
  187.2150  175.5540  142.0990 C   0  0  1  0  0  3  0  0  0  0  0  0
  186.3800  178.5880  146.4230 C   0  0  0  0  0  0  0  0  0  0  0  0
  188.6010  176.7530  144.2030 N   0  0  0  0  0  0  0  0  0  0  0  0
  190.2830  177.5630  148.0090 C   0  0  0  0  0  2  0  0  0  0  0  0
  185.0670  178.1190  143.5100 C   0  0  0  0  0  0  0  0  0  0  0  0
  192.4330  176.4450  147.4490 C   0  0  0  0  0  1  0  0  0  0  0  0
  188.4070  176.4190  141.7560 C   0  0  1  0  0  3  0  0  0  0  0  0
  188.1050  173.0720  140.5670 O   0  0  0  0  0  0  0  0  0  0  0  0
  189.2600  176.2020  142.9960 C   0  0  2  0  0  3  0  0  0  0  0  0
  184.6290  178.9230  144.6700 C   0  0  0  0  0  3  0  0  0  0  0  0
  192.5170  174.3340  143.5280 O   0  0  0  0  0  0  0  0  0  0  0  0
  192.0360  174.1780  142.3750 C   0  0  0  0  0  3  0  0  0  0  0  0
  184.5230  177.9810  141.0630 C   0  0  0  0  0  3  0  0  0  0  0  0
  184.0950  178.1630  142.3860 C   0  0  0  0  0  0  0  0  0  0  0  0
  182.7250  178.3440  142.6250 C   0  0  0  0  0  3  0  0  0  0  0  0
  180.1150  178.5970  141.8540 Cl  0  0  0  0  0  0  0  0  0  0  0  0
  182.2990  178.1850  140.2590 C   0  0  0  0  0  3  0  0  0  0  0  0
  181.8240  178.3600  141.5600 C   0  0  0  0  0  0  0  0  0  0  0  0
  183.6270  177.9990  140.0400 N   0  0  0  0  0  0  0  0  0  0  0  0
  2 24  1  0  0  0  0
  2 14  1  0  0  0  0
  2 22  1  0  0  0  0
  3  9  1  0  0  0  0
  3 20  1  0  0  0  0
  4 30  1  0  0  0  0
  4  1  1  0  0  0  0
  5 10  1  0  0  0  0
  6 22  1  0  0  0  0
  6 11  2  0  0  0  0
  7  3  2  0  0  0  0
  8 12  1  0  0  0  0
  9  6  1  0  0  0  0
 10 23  2  0  0  0  0
 10  7  1  0  0  0  0
 12  4  1  0  0  0  0
 13 17  1  0  0  0  0
 13  9  2  0  0  0  0
 15 20  1  0  0  0  0
 16 11  1  0  0  0  0
 17  2  1  0  0  0  0
 18  8  1  1  0  0  0
 18 25  1  0  0  0  0
 18 19  1  0  0  0  0
 19  5  1  6  0  0  0
 20 16  2  0  0  0  0
 21  7  1  0  0  0  0
 21 13  1  0  0  0  0
 23 28  1  0  0  0  0
 25 19  1  0  0  0  0
 25 27  1  0  0  0  0
 26  8  2  0  0  0  0
 27  1  1  0  0  0  0
 27 21  1  0  0  0  0
 28 15  2  0  0  0  0
 30 29  2  0  0  0  0
 31 32  1  0  0  0  0
 32 33  2  0  0  0  0
 32 23  1  0  0  0  0
 35 36  2  0  0  0  0
 36 34  1  0  0  0  0
 36 33  1  0  0  0  0
 37 35  1  0  0  0  0
 37 31  2  0  0  0  0
M  END
>  <MODEL>
2

>  <REMARK>
 VINA RESULT:      -9.0      2.754      4.921
  Name = 
  1 active torsions:
  status: ('A' for Active; 'I' for Inactive)
    1  A    between atoms: C_23  and  C_30
                            x       y       z     vdW  Elec       q    Type
                         _______ _______ _______ _____ _____    ______ ____

>  <TORSDO>
F 1

$$$$
=
 OpenBabel11112417173D

 37 44  0  0  1  0  0  0  0  0999 V2000
  190.4020  174.1170  140.4600 C   0  0  0  0  0  2  0  0  0  0  0  0
  187.6200  176.9190  142.5420 C   0  0  0  0  0  0  0  0  0  0  0  0
  190.8030  175.5270  144.8670 C   0  0  0  0  0  0  0  0  0  0  0  0
  190.0740  173.1630  139.3980 N   0  0  0  0  0  0  0  0  0  0  0  0
  193.2430  173.0850  143.1820 O   0  0  0  0  0  0  0  0  0  0  0  0
  188.8460  176.9680  144.7800 C   0  0  0  0  0  0  0  0  0  0  0  0
  191.3280  174.5390  144.0270 C   0  0  0  0  0  0  0  0  0  0  0  0
  192.3190  172.2000  139.6460 C   0  0  0  0  0  0  0  0  0  0  0  0
  189.6720  175.9890  144.2640 C   0  0  0  0  0  0  0  0  0  0  0  0
  192.6430  173.7900  144.2460 C   0  0  0  0  0  0  0  0  0  0  0  0
  189.1910  177.5100  146.0240 C   0  0  0  0  0  3  0  0  0  0  0  0
  190.9440  172.0350  139.0680 C   0  0  0  0  0  2  0  0  0  0  0  0
  189.4720  175.3160  143.1170 C   0  0  0  0  0  0  0  0  0  0  0  0
  188.4210  177.9560  141.7740 C   0  0  0  0  0  1  0  0  0  0  0  0
  192.2420  175.5110  146.9340 C   0  0  0  0  0  3  0  0  0  0  0  0
  190.3470  177.0410  146.6880 C   0  0  0  0  0  3  0  0  0  0  0  0
  188.2280  175.5140  142.2970 C   0  0  0  0  0  2  0  0  0  0  0  0
  192.5890  171.8870  141.0890 C   0  0  1  0  0  3  0  0  0  0  0  0
  192.7180  173.1560  141.8870 C   0  0  1  0  0  3  0  0  0  0  0  0
  191.1610  176.0340  146.1180 C   0  0  0  0  0  0  0  0  0  0  0  0
  190.4580  174.4050  142.9430 N   0  0  0  0  0  0  0  0  0  0  0  0
  187.5750  177.3130  144.0440 C   0  0  0  0  0  2  0  0  0  0  0  0
  193.3390  173.7550  145.4150 C   0  0  0  0  0  0  0  0  0  0  0  0
  186.2050  176.9260  142.0040 C   0  0  0  0  0  1  0  0  0  0  0  0
  191.4540  172.3370  142.0150 C   0  0  1  0  0  3  0  0  0  0  0  0
  193.2260  172.5980  138.9330 O   0  0  0  0  0  0  0  0  0  0  0  0
  190.4090  173.4250  141.8330 C   0  0  2  0  0  3  0  0  0  0  0  0
  193.1150  174.5610  146.6330 C   0  0  0  0  0  3  0  0  0  0  0  0
  187.9950  174.1660  139.0030 O   0  0  0  0  0  0  0  0  0  0  0  0
  188.8120  173.2460  138.7330 C   0  0  0  0  0  3  0  0  0  0  0  0
  195.8180  173.3780  145.5370 C   0  0  0  0  0  3  0  0  0  0  0  0
  194.5160  172.8550  145.5340 C   0  0  0  0  0  0  0  0  0  0  0  0
  194.3530  171.4710  145.6900 C   0  0  0  0  0  3  0  0  0  0  0  0
  195.2680  168.9160  146.0060 Cl  0  0  0  0  0  0  0  0  0  0  0  0
  196.7450  171.2090  145.8090 C   0  0  0  0  0  3  0  0  0  0  0  0
  195.4680  170.6440  145.8230 C   0  0  0  0  0  0  0  0  0  0  0  0
  196.8910  172.5530  145.6690 N   0  0  0  0  0  0  0  0  0  0  0  0
  1 27  1  0  0  0  0
  2 22  1  0  0  0  0
  3 20  1  0  0  0  0
  4  1  1  0  0  0  0
  5 10  1  0  0  0  0
  6 11  2  0  0  0  0
  7 10  1  0  0  0  0
  7  3  2  0  0  0  0
  9  6  1  0  0  0  0
  9  3  1  0  0  0  0
 10 23  2  0  0  0  0
 11 16  1  0  0  0  0
 12  4  1  0  0  0  0
 12  8  1  0  0  0  0
 13  9  2  0  0  0  0
 14  2  1  0  0  0  0
 17  2  1  0  0  0  0
 17 13  1  0  0  0  0
 18  8  1  6  0  0  0
 18 19  1  0  0  0  0
 18 25  1  0  0  0  0
 19 25  1  0  0  0  0
 19  5  1  1  0  0  0
 20 16  2  0  0  0  0
 20 15  1  0  0  0  0
 21 13  1  0  0  0  0
 21  7  1  0  0  0  0
 22  6  1  0  0  0  0
 23 32  1  0  0  0  0
 23 28  1  0  0  0  0
 24  2  1  0  0  0  0
 26  8  2  0  0  0  0
 27 25  1  0  0  0  0
 27 21  1  0  0  0  0
 28 15  2  0  0  0  0
 30 29  2  0  0  0  0
 30  4  1  0  0  0  0
 31 37  1  0  0  0  0
 32 31  2  0  0  0  0
 32 33  1  0  0  0  0
 33 36  2  0  0  0  0
 35 36  1  0  0  0  0
 36 34  1  0  0  0  0
 37 35  2  0  0  0  0
M  END
>  <MODEL>
3

>  <REMARK>
 VINA RESULT:      -8.7      3.285      6.761
  Name = 
  1 active torsions:
  status: ('A' for Active; 'I' for Inactive)
    1  A    between atoms: C_23  and  C_30
                            x       y       z     vdW  Elec       q    Type
                         _______ _______ _______ _____ _____    ______ ____

>  <TORSDO>
F 1

$$$$
=
 OpenBabel11112417173D

 37 44  0  0  1  0  0  0  0  0999 V2000
  189.4010  175.3030  145.0260 C   0  0  0  0  0  2  0  0  0  0  0  0
  186.6160  178.0910  147.1220 C   0  0  0  0  0  0  0  0  0  0  0  0
  186.0100  177.7470  143.0010 C   0  0  0  0  0  0  0  0  0  0  0  0
  190.7900  175.0030  145.3770 N   0  0  0  0  0  0  0  0  0  0  0  0
  188.3720  175.3950  141.0920 O   0  0  0  0  0  0  0  0  0  0  0  0
  185.2440  178.7560  145.0760 C   0  0  0  0  0  0  0  0  0  0  0  0
  187.1410  177.0110  142.6310 C   0  0  0  0  0  0  0  0  0  0  0  0
  191.0120  173.8030  143.2460 C   0  0  0  0  0  0  0  0  0  0  0  0
  186.1480  178.0290  144.3270 C   0  0  0  0  0  0  0  0  0  0  0  0
  187.3930  176.3970  141.2530 C   0  0  0  0  0  0  0  0  0  0  0  0
  184.1150  179.2550  144.4150 C   0  0  0  0  0  3  0  0  0  0  0  0
  191.7230  174.4030  144.4240 C   0  0  0  0  0  2  0  0  0  0  0  0
  187.3110  177.5230  144.7720 C   0  0  0  0  0  0  0  0  0  0  0  0
  185.9270  176.7910  147.4970 C   0  0  0  0  0  1  0  0  0  0  0  0
  184.7300  178.1610  140.8720 C   0  0  0  0  0  3  0  0  0  0  0  0
  183.9500  178.9990  143.0360 C   0  0  0  0  0  3  0  0  0  0  0  0
  187.8000  177.7900  146.1680 C   0  0  0  0  0  2  0  0  0  0  0  0
  190.5320  174.6670  142.1160 C   0  0  1  0  0  3  0  0  0  0  0  0
  189.0430  174.8610  142.1980 C   0  0  1  0  0  3  0  0  0  0  0  0
  184.9050  178.2480  142.3100 C   0  0  0  0  0  0  0  0  0  0  0  0
  187.9590  176.9040  143.7580 N   0  0  0  0  0  0  0  0  0  0  0  0
  185.5740  179.0700  146.5140 C   0  0  0  0  0  2  0  0  0  0  0  0
  186.7160  176.7180  140.1170 C   0  0  0  0  0  0  0  0  0  0  0  0
  187.1700  178.7100  148.3880 C   0  0  0  0  0  1  0  0  0  0  0  0
  189.9510  176.0010  142.5970 C   0  0  1  0  0  3  0  0  0  0  0  0
  190.8180  172.5990  143.2110 O   0  0  0  0  0  0  0  0  0  0  0  0
  189.3340  176.3810  143.9320 C   0  0  2  0  0  3  0  0  0  0  0  0
  185.4960  177.5410  139.9860 C   0  0  0  0  0  3  0  0  0  0  0  0
  190.5700  175.9770  147.4950 O   0  0  0  0  0  0  0  0  0  0  0  0
  191.3070  175.4120  146.6440 C   0  0  0  0  0  3  0  0  0  0  0  0
  187.8160  174.9180  138.7560 C   0  0  0  0  0  3  0  0  0  0  0  0
  187.1730  176.1630  138.8160 C   0  0  0  0  0  0  0  0  0  0  0  0
  186.9360  176.8500  137.6160 C   0  0  0  0  0  3  0  0  0  0  0  0
  187.0670  177.1640  134.9050 Cl  0  0  0  0  0  0  0  0  0  0  0  0
  187.9970  175.0670  136.3930 C   0  0  0  0  0  3  0  0  0  0  0  0
  187.3520  176.3040  136.4020 C   0  0  0  0  0  0  0  0  0  0  0  0
  188.2120  174.4050  137.5600 N   0  0  0  0  0  0  0  0  0  0  0  0
  1  4  1  0  0  0  0
  2 14  1  0  0  0  0
  2 24  1  0  0  0  0
  3  9  1  0  0  0  0
  4 30  1  0  0  0  0
  5 10  1  0  0  0  0
  6 22  1  0  0  0  0
  7  3  2  0  0  0  0
  7 21  1  0  0  0  0
  8 12  1  0  0  0  0
  9 13  2  0  0  0  0
  9  6  1  0  0  0  0
 10  7  1  0  0  0  0
 11  6  2  0  0  0  0
 12  4  1  0  0  0  0
 13 17  1  0  0  0  0
 15 20  1  0  0  0  0
 16 11  1  0  0  0  0
 17  2  1  0  0  0  0
 18 19  1  0  0  0  0
 18 25  1  0  0  0  0
 18  8  1  1  0  0  0
 19  5  1  6  0  0  0
 19 25  1  0  0  0  0
 20  3  1  0  0  0  0
 20 16  2  0  0  0  0
 21 27  1  0  0  0  0
 21 13  1  0  0  0  0
 22  2  1  0  0  0  0
 23 10  2  0  0  0  0
 25 27  1  0  0  0  0
 26  8  2  0  0  0  0
 27  1  1  0  0  0  0
 28 23  1  0  0  0  0
 28 15  2  0  0  0  0
 30 29  2  0  0  0  0
 31 32  1  0  0  0  0
 32 23  1  0  0  0  0
 33 32  2  0  0  0  0
 34 36  1  0  0  0  0
 35 36  2  0  0  0  0
 35 37  1  0  0  0  0
 36 33  1  0  0  0  0
 37 31  2  0  0  0  0
M  END
>  <MODEL>
4

>  <REMARK>
 VINA RESULT:      -8.5      3.046      7.632
  Name = 
  1 active torsions:
  status: ('A' for Active; 'I' for Inactive)
    1  A    between atoms: C_23  and  C_30
                            x       y       z     vdW  Elec       q    Type
                         _______ _______ _______ _____ _____    ______ ____

>  <TORSDO>
F 1

$$$$
=
 OpenBabel11112417173D

 37 44  0  0  1  0  0  0  0  0999 V2000
  194.3170  175.0270  143.7360 C   0  0  0  0  0  2  0  0  0  0  0  0
  193.7930  172.7810  139.9150 C   0  0  0  0  0  0  0  0  0  0  0  0
  190.2740  174.3240  141.5610 C   0  0  0  0  0  0  0  0  0  0  0  0
  195.3210  174.7920  144.7760 N   0  0  0  0  0  0  0  0  0  0  0  0
  190.6060  176.2510  144.8670 O   0  0  0  0  0  0  0  0  0  0  0  0
  191.2700  173.1040  139.7080 C   0  0  0  0  0  0  0  0  0  0  0  0
  190.7360  174.7510  142.8110 C   0  0  0  0  0  0  0  0  0  0  0  0
  194.1130  176.3670  146.2220 C   0  0  0  0  0  0  0  0  0  0  0  0
  191.3180  173.6870  140.9590 C   0  0  0  0  0  0  0  0  0  0  0  0
  189.9410  175.5870  143.8150 C   0  0  0  0  0  0  0  0  0  0  0  0
  190.0520  173.1560  139.0200 C   0  0  0  0  0  3  0  0  0  0  0  0
  195.1670  175.3020  146.1380 C   0  0  0  0  0  2  0  0  0  0  0  0
  192.3760  173.6870  141.7870 C   0  0  0  0  0  0  0  0  0  0  0  0
  194.2820  174.0900  139.3190 C   0  0  0  0  0  1  0  0  0  0  0  0
  187.8160  174.8720  141.5090 C   0  0  0  0  0  3  0  0  0  0  0  0
  188.9420  173.7910  139.6230 C   0  0  0  0  0  3  0  0  0  0  0  0
  193.6370  172.9400  141.4490 C   0  0  0  0  0  2  0  0  0  0  0  0
  192.6570  176.0050  146.2740 C   0  0  1  0  0  3  0  0  0  0  0  0
  192.0030  176.2580  144.9430 C   0  0  1  0  0  3  0  0  0  0  0  0
  189.0400  174.3740  140.9080 C   0  0  0  0  0  0  0  0  0  0  0  0
  192.0560  174.3160  142.9410 N   0  0  0  0  0  0  0  0  0  0  0  0
  192.4780  172.3520  139.2070 C   0  0  0  0  0  2  0  0  0  0  0  0
  188.5960  175.7850  143.7790 C   0  0  0  0  0  0  0  0  0  0  0  0
  194.8440  171.7240  139.6500 C   0  0  0  0  0  1  0  0  0  0  0  0
  192.3050  174.8340  145.3500 C   0  0  1  0  0  3  0  0  0  0  0  0
  194.4450  177.5410  146.2430 O   0  0  0  0  0  0  0  0  0  0  0  0
  192.9910  174.3350  144.0900 C   0  0  2  0  0  3  0  0  0  0  0  0
  187.6520  175.4330  142.6980 C   0  0  0  0  0  3  0  0  0  0  0  0
  196.6030  173.4280  143.3690 O   0  0  0  0  0  0  0  0  0  0  0  0
  196.4350  173.9390  144.5080 C   0  0  0  0  0  3  0  0  0  0  0  0
  188.1100  176.0410  146.2290 C   0  0  0  0  0  3  0  0  0  0  0  0
  187.9320  176.4850  144.9100 C   0  0  0  0  0  0  0  0  0  0  0  0
  187.1500  177.6280  144.6920 C   0  0  0  0  0  3  0  0  0  0  0  0
  185.5660  179.7050  145.4950 Cl  0  0  0  0  0  0  0  0  0  0  0  0
  186.7500  177.8000  147.0610 C   0  0  0  0  0  3  0  0  0  0  0  0
  186.5530  178.2860  145.7670 C   0  0  0  0  0  0  0  0  0  0  0  0
  187.5190  176.6980  147.2630 N   0  0  0  0  0  0  0  0  0  0  0  0
  1 27  1  0  0  0  0
  1  4  1  0  0  0  0
  2 17  1  0  0  0  0
  3  7  2  0  0  0  0
  4 12  1  0  0  0  0
  6  9  1  0  0  0  0
  7 21  1  0  0  0  0
  7 10  1  0  0  0  0
  8 26  2  0  0  0  0
  9  3  1  0  0  0  0
  9 13  2  0  0  0  0
 10  5  1  0  0  0  0
 11 16  1  0  0  0  0
 11  6  2  0  0  0  0
 12  8  1  0  0  0  0
 13 21  1  0  0  0  0
 14  2  1  0  0  0  0
 15 28  2  0  0  0  0
 16 20  2  0  0  0  0
 17 13  1  0  0  0  0
 18  8  1  6  0  0  0
 19  5  1  1  0  0  0
 19 25  1  0  0  0  0
 19 18  1  0  0  0  0
 20 15  1  0  0  0  0
 20  3  1  0  0  0  0
 21 27  1  0  0  0  0
 22  6  1  0  0  0  0
 22  2  1  0  0  0  0
 23 10  2  0  0  0  0
 23 32  1  0  0  0  0
 24  2  1  0  0  0  0
 25 18  1  0  0  0  0
 27 25  1  0  0  0  0
 28 23  1  0  0  0  0
 29 30  2  0  0  0  0
 30  4  1  0  0  0  0
 31 37  1  0  0  0  0
 32 31  2  0  0  0  0
 33 32  1  0  0  0  0
 33 36  2  0  0  0  0
 34 36  1  0  0  0  0
 35 37  2  0  0  0  0
 36 35  1  0  0  0  0
M  END
>  <MODEL>
5

>  <REMARK>
 VINA RESULT:      -8.4      2.093      5.204
  Name = 
  1 active torsions:
  status: ('A' for Active; 'I' for Inactive)
    1  A    between atoms: C_23  and  C_30
                            x       y       z     vdW  Elec       q    Type
                         _______ _______ _______ _____ _____    ______ ____

>  <TORSDO>
F 1

$$$$
=
 OpenBabel11112417173D

 37 44  0  0  1  0  0  0  0  0999 V2000
  192.9270  172.1940  141.6360 C   0  0  0  0  0  2  0  0  0  0  0  0
  195.9570  173.3980  144.6850 C   0  0  0  0  0  0  0  0  0  0  0  0
  192.3650  175.5320  144.8170 C   0  0  0  0  0  0  0  0  0  0  0  0
  193.1770  171.6740  140.2900 N   0  0  0  0  0  0  0  0  0  0  0  0
  189.6960  174.5960  142.2170 O   0  0  0  0  0  0  0  0  0  0  0  0
  194.5500  175.1940  145.8280 C   0  0  0  0  0  0  0  0  0  0  0  0
  191.7530  175.0870  143.6390 C   0  0  0  0  0  0  0  0  0  0  0  0
  190.7810  171.9170  139.8110 C   0  0  0  0  0  0  0  0  0  0  0  0
  193.6140  174.9880  144.8340 C   0  0  0  0  0  0  0  0  0  0  0  0
  190.3090  175.3700  143.2240 C   0  0  0  0  0  0  0  0  0  0  0  0
  194.1910  176.0410  146.8840 C   0  0  0  0  0  3  0  0  0  0  0  0
  192.1530  171.6880  139.2470 C   0  0  0  0  0  2  0  0  0  0  0  0
  193.7980  174.2580  143.7200 C   0  0  0  0  0  0  0  0  0  0  0  0
  195.4360  172.1580  145.3900 C   0  0  0  0  0  1  0  0  0  0  0  0
  190.7550  177.1660  145.8560 C   0  0  0  0  0  3  0  0  0  0  0  0
  192.9110  176.6390  146.8880 C   0  0  0  0  0  3  0  0  0  0  0  0
  195.1310  173.6420  143.3960 C   0  0  0  0  0  2  0  0  0  0  0  0
  190.3200  173.2990  140.1740 C   0  0  1  0  0  3  0  0  0  0  0  0
  190.3480  173.4870  141.6670 C   0  0  1  0  0  3  0  0  0  0  0  0
  191.9860  176.3970  145.8450 C   0  0  0  0  0  0  0  0  0  0  0  0
  192.6850  174.3050  142.9520 N   0  0  0  0  0  0  0  0  0  0  0  0
  195.9280  174.6010  145.6680 C   0  0  0  0  0  2  0  0  0  0  0  0
  189.5090  176.3230  143.7740 C   0  0  0  0  0  0  0  0  0  0  0  0
  197.3950  173.1420  144.2870 C   0  0  0  0  0  1  0  0  0  0  0  0
  191.4240  174.1380  140.8270 C   0  0  1  0  0  3  0  0  0  0  0  0
  190.0350  170.9670  139.9800 O   0  0  0  0  0  0  0  0  0  0  0  0
  192.6610  173.7070  141.5970 C   0  0  2  0  0  3  0  0  0  0  0  0
  189.7560  177.1330  144.9850 C   0  0  0  0  0  3  0  0  0  0  0  0
  195.4320  171.2550  140.7630 O   0  0  0  0  0  0  0  0  0  0  0  0
  194.4910  171.2480  139.9260 C   0  0  0  0  0  3  0  0  0  0  0  0
  187.0210  176.6090  143.9520 C   0  0  0  0  0  3  0  0  0  0  0  0
  188.1810  176.6000  143.1640 C   0  0  0  0  0  0  0  0  0  0  0  0
  188.0630  176.8990  141.7990 C   0  0  0  0  0  3  0  0  0  0  0  0
  186.6620  177.5410  139.5430 Cl  0  0  0  0  0  0  0  0  0  0  0  0
  185.6850  177.1660  142.0700 C   0  0  0  0  0  3  0  0  0  0  0  0
  186.8130  177.1790  141.2480 C   0  0  0  0  0  0  0  0  0  0  0  0
  185.8120  176.8860  143.3940 N   0  0  0  0  0  0  0  0  0  0  0  0
  2 14  1  0  0  0  0
  2 22  1  0  0  0  0
  3  9  1  0  0  0  0
  3 20  1  0  0  0  0
  4  1  1  0  0  0  0
  5 10  1  0  0  0  0
  6 11  2  0  0  0  0
  7  3  2  0  0  0  0
  8 26  2  0  0  0  0
  9  6  1  0  0  0  0
 10  7  1  0  0  0  0
 10 23  2  0  0  0  0
 11 16  1  0  0  0  0
 12  8  1  0  0  0  0
 12  4  1  0  0  0  0
 13  9  2  0  0  0  0
 17 13  1  0  0  0  0
 17  2  1  0  0  0  0
 18  8  1  1  0  0  0
 18 25  1  0  0  0  0
 18 19  1  0  0  0  0
 19  5  1  6  0  0  0
 20 15  1  0  0  0  0
 20 16  2  0  0  0  0
 21  7  1  0  0  0  0
 21 13  1  0  0  0  0
 22  6  1  0  0  0  0
 23 28  1  0  0  0  0
 24  2  1  0  0  0  0
 25 27  1  0  0  0  0
 25 19  1  0  0  0  0
 27  1  1  0  0  0  0
 27 21  1  0  0  0  0
 28 15  2  0  0  0  0
 30  4  1  0  0  0  0
 30 29  2  0  0  0  0
 32 23  1  0  0  0  0
 32 31  2  0  0  0  0
 33 32  1  0  0  0  0
 34 36  1  0  0  0  0
 35 37  2  0  0  0  0
 36 33  2  0  0  0  0
 36 35  1  0  0  0  0
 37 31  1  0  0  0  0
M  END
>  <MODEL>
6

>  <REMARK>
 VINA RESULT:      -7.9      2.087      2.560
  Name = 
  1 active torsions:
  status: ('A' for Active; 'I' for Inactive)
    1  A    between atoms: C_23  and  C_30
                            x       y       z     vdW  Elec       q    Type
                         _______ _______ _______ _____ _____    ______ ____

>  <TORSDO>
F 1

$$$$
=
 OpenBabel11112417173D

 37 44  0  0  1  0  0  0  0  0999 V2000
  193.1210  174.5660  144.8150 C   0  0  0  0  0  2  0  0  0  0  0  0
  189.6520  176.8040  146.5130 C   0  0  0  0  0  0  0  0  0  0  0  0
  189.0550  175.2530  142.6770 C   0  0  0  0  0  0  0  0  0  0  0  0
  194.5440  174.8050  145.0660 N   0  0  0  0  0  0  0  0  0  0  0  0
  191.9880  173.3330  141.1080 O   0  0  0  0  0  0  0  0  0  0  0  0
  188.0720  176.4720  144.5380 C   0  0  0  0  0  0  0  0  0  0  0  0
  190.3510  174.8300  142.3620 C   0  0  0  0  0  0  0  0  0  0  0  0
  195.0720  173.2300  143.2580 C   0  0  0  0  0  0  0  0  0  0  0  0
  189.1370  175.8920  143.8790 C   0  0  0  0  0  0  0  0  0  0  0  0
  190.7430  173.9930  141.1430 C   0  0  0  0  0  0  0  0  0  0  0  0
  186.8210  176.4160  143.9120 C   0  0  0  0  0  3  0  0  0  0  0  0
  195.5880  174.2980  144.1770 C   0  0  0  0  0  2  0  0  0  0  0  0
  190.4160  175.8970  144.2930 C   0  0  0  0  0  0  0  0  0  0  0  0
  189.4360  175.4950  147.2530 C   0  0  0  0  0  1  0  0  0  0  0  0
  187.6400  174.6980  140.6700 C   0  0  0  0  0  3  0  0  0  0  0  0
  186.7020  175.7790  142.6560 C   0  0  0  0  0  3  0  0  0  0  0  0
  190.8380  176.6470  145.5260 C   0  0  0  0  0  2  0  0  0  0  0  0
  194.3010  173.5880  142.0210 C   0  0  1  0  0  3  0  0  0  0  0  0
  192.8320  173.3300  142.2240 C   0  0  1  0  0  3  0  0  0  0  0  0
  187.8240  175.1980  142.0200 C   0  0  0  0  0  0  0  0  0  0  0  0
  191.1960  175.2690  143.3830 N   0  0  0  0  0  0  0  0  0  0  0  0
  188.3290  177.2270  145.8180 C   0  0  0  0  0  2  0  0  0  0  0  0
  189.9610  173.7910  140.0480 C   0  0  0  0  0  0  0  0  0  0  0  0
  190.0170  177.8630  147.5310 C   0  0  0  0  0  1  0  0  0  0  0  0
  193.3340  174.7560  142.2440 C   0  0  1  0  0  3  0  0  0  0  0  0
  195.2790  172.0570  143.5240 O   0  0  0  0  0  0  0  0  0  0  0  0
  192.6710  175.2550  143.5170 C   0  0  2  0  0  3  0  0  0  0  0  0
  188.5360  174.1380  139.8700 C   0  0  0  0  0  3  0  0  0  0  0  0
  194.0890  176.1710  146.9130 O   0  0  0  0  0  0  0  0  0  0  0  0
  194.9410  175.6620  146.1380 C   0  0  0  0  0  3  0  0  0  0  0  0
  191.3760  173.7670  137.9740 C   0  0  0  0  0  3  0  0  0  0  0  0
  190.5300  173.0910  138.8670 C   0  0  0  0  0  0  0  0  0  0  0  0
  190.2710  171.7320  138.6400 C   0  0  0  0  0  3  0  0  0  0  0  0
  190.4990  169.3920  137.2460 Cl  0  0  0  0  0  0  0  0  0  0  0  0
  191.6580  171.8020  136.6720 C   0  0  0  0  0  3  0  0  0  0  0  0
  190.8310  171.0850  137.5380 C   0  0  0  0  0  0  0  0  0  0  0  0
  191.9120  173.1160  136.9070 N   0  0  0  0  0  0  0  0  0  0  0  0
  1  4  1  0  0  0  0
  2 14  1  0  0  0  0
  2 24  1  0  0  0  0
  3  9  1  0  0  0  0
  4 30  1  0  0  0  0
  5 10  1  0  0  0  0
  6 22  1  0  0  0  0
  7  3  2  0  0  0  0
  7 21  1  0  0  0  0
  8 26  2  0  0  0  0
  8 12  1  0  0  0  0
  9 13  2  0  0  0  0
  9  6  1  0  0  0  0
 10  7  1  0  0  0  0
 11  6  2  0  0  0  0
 12  4  1  0  0  0  0
 13 17  1  0  0  0  0
 15 20  1  0  0  0  0
 16 11  1  0  0  0  0
 17  2  1  0  0  0  0
 18 19  1  0  0  0  0
 18 25  1  0  0  0  0
 18  8  1  1  0  0  0
 19  5  1  6  0  0  0
 19 25  1  0  0  0  0
 20 16  2  0  0  0  0
 20  3  1  0  0  0  0
 21 27  1  0  0  0  0
 21 13  1  0  0  0  0
 22  2  1  0  0  0  0
 23 10  2  0  0  0  0
 25 27  1  0  0  0  0
 27  1  1  0  0  0  0
 28 23  1  0  0  0  0
 28 15  2  0  0  0  0
 30 29  2  0  0  0  0
 31 32  1  0  0  0  0
 32 23  1  0  0  0  0
 33 32  2  0  0  0  0
 34 36  1  0  0  0  0
 35 37  1  0  0  0  0
 35 36  2  0  0  0  0
 36 33  1  0  0  0  0
 37 31  2  0  0  0  0
M  END
>  <MODEL>
7

>  <REMARK>
 VINA RESULT:      -7.9      3.050      7.538
  Name = 
  1 active torsions:
  status: ('A' for Active; 'I' for Inactive)
    1  A    between atoms: C_23  and  C_30
                            x       y       z     vdW  Elec       q    Type
                         _______ _______ _______ _____ _____    ______ ____

>  <TORSDO>
F 1

$$$$
=
 OpenBabel11112417173D

 37 44  0  0  1  0  0  0  0  0999 V2000
  189.1040  175.0230  144.6730 C   0  0  0  0  0  2  0  0  0  0  0  0
  186.1290  178.3430  144.4430 C   0  0  0  0  0  0  0  0  0  0  0  0
  187.0360  176.5190  140.7930 C   0  0  0  0  0  0  0  0  0  0  0  0
  190.2170  174.8900  145.6150 N   0  0  0  0  0  0  0  0  0  0  0  0
  189.6090  173.6670  140.8720 O   0  0  0  0  0  0  0  0  0  0  0  0
  185.7000  178.2010  141.9320 C   0  0  0  0  0  0  0  0  0  0  0  0
  188.1190  175.7140  141.1650 C   0  0  0  0  0  0  0  0  0  0  0  0
  191.0470  173.0020  144.2820 C   0  0  0  0  0  0  0  0  0  0  0  0
  186.7130  177.2650  141.8870 C   0  0  0  0  0  0  0  0  0  0  0  0
  188.7760  174.6460  140.2900 C   0  0  0  0  0  0  0  0  0  0  0  0
  184.9650  178.4110  140.7580 C   0  0  0  0  0  3  0  0  0  0  0  0
  191.3490  173.9980  145.3640 C   0  0  0  0  0  2  0  0  0  0  0  0
  187.5570  176.9700  142.8910 C   0  0  0  0  0  0  0  0  0  0  0  0
  185.1890  177.2570  144.9380 C   0  0  0  0  0  1  0  0  0  0  0  0
  186.6890  176.1140  138.3320 C   0  0  0  0  0  3  0  0  0  0  0  0
  185.2860  177.6690  139.5990 C   0  0  0  0  0  3  0  0  0  0  0  0
  187.5310  177.7320  144.1870 C   0  0  0  0  0  2  0  0  0  0  0  0
  191.1310  173.3900  142.8340 C   0  0  1  0  0  3  0  0  0  0  0  0
  189.7530  173.5800  142.2610 C   0  0  1  0  0  3  0  0  0  0  0  0
  186.3350  176.7200  139.6020 C   0  0  0  0  0  0  0  0  0  0  0  0
  188.4460  176.0350  142.4840 N   0  0  0  0  0  0  0  0  0  0  0  0
  185.5170  179.0190  143.1850 C   0  0  0  0  0  2  0  0  0  0  0  0
  188.6100  174.5240  138.9450 C   0  0  0  0  0  0  0  0  0  0  0  0
  186.2560  179.3860  145.5330 C   0  0  0  0  0  1  0  0  0  0  0  0
  190.5910  174.8000  142.5680 C   0  0  1  0  0  3  0  0  0  0  0  0
  190.7260  171.8640  144.5860 O   0  0  0  0  0  0  0  0  0  0  0  0
  189.5820  175.6300  143.3440 C   0  0  2  0  0  3  0  0  0  0  0  0
  187.6390  175.2260  138.0800 C   0  0  0  0  0  3  0  0  0  0  0  0
  189.3640  176.5630  147.0140 O   0  0  0  0  0  0  0  0  0  0  0  0
  190.2820  175.7380  146.7630 C   0  0  0  0  0  3  0  0  0  0  0  0
  190.5350  173.9660  137.4330 C   0  0  0  0  0  3  0  0  0  0  0  0
  189.4370  173.5410  138.1950 C   0  0  0  0  0  0  0  0  0  0  0  0
  189.1650  172.1680  138.2660 C   0  0  0  0  0  3  0  0  0  0  0  0
  189.6200  169.5440  137.6510 Cl  0  0  0  0  0  0  0  0  0  0  0  0
  191.0400  171.7290  136.8200 C   0  0  0  0  0  3  0  0  0  0  0  0
  189.9640  171.2580  137.5740 C   0  0  0  0  0  0  0  0  0  0  0  0
  191.3020  173.0610  136.7680 N   0  0  0  0  0  0  0  0  0  0  0  0
  1  4  1  0  0  0  0
  2 14  1  0  0  0  0
  2 24  1  0  0  0  0
  3  7  2  0  0  0  0
  3  9  1  0  0  0  0
  4 30  1  0  0  0  0
  6 22  1  0  0  0  0
  7 21  1  0  0  0  0
  8 26  2  0  0  0  0
  8 12  1  0  0  0  0
  9  6  1  0  0  0  0
  9 13  2  0  0  0  0
 10  5  1  0  0  0  0
 10  7  1  0  0  0  0
 11  6  2  0  0  0  0
 12  4  1  0  0  0  0
 13 17  1  0  0  0  0
 15 20  1  0  0  0  0
 16 20  2  0  0  0  0
 16 11  1  0  0  0  0
 17  2  1  0  0  0  0
 18  8  1  1  0  0  0
 19  5  1  6  0  0  0
 19 25  1  0  0  0  0
 19 18  1  0  0  0  0
 20  3  1  0  0  0  0
 21 13  1  0  0  0  0
 21 27  1  0  0  0  0
 22  2  1  0  0  0  0
 23 10  2  0  0  0  0
 25 18  1  0  0  0  0
 25 27  1  0  0  0  0
 27  1  1  0  0  0  0
 28 15  2  0  0  0  0
 28 23  1  0  0  0  0
 30 29  2  0  0  0  0
 31 32  1  0  0  0  0
 32 33  2  0  0  0  0
 32 23  1  0  0  0  0
 35 36  2  0  0  0  0
 36 34  1  0  0  0  0
 36 33  1  0  0  0  0
 37 35  1  0  0  0  0
 37 31  2  0  0  0  0
M  END
>  <MODEL>
8

>  <REMARK>
 VINA RESULT:      -7.9      3.399      8.339
  Name = 
  1 active torsions:
  status: ('A' for Active; 'I' for Inactive)
    1  A    between atoms: C_23  and  C_30
                            x       y       z     vdW  Elec       q    Type
                         _______ _______ _______ _____ _____    ______ ____

>  <TORSDO>
F 1

$$$$
=
 OpenBabel11112417173D

 37 44  0  0  1  0  0  0  0  0999 V2000
  194.1760  174.6170  144.2100 C   0  0  0  0  0  2  0  0  0  0  0  0
  193.9710  171.2700  141.2630 C   0  0  0  0  0  0  0  0  0  0  0  0
  190.3980  173.3690  141.8130 C   0  0  0  0  0  0  0  0  0  0  0  0
  195.0210  174.7010  145.4020 N   0  0  0  0  0  0  0  0  0  0  0  0
  190.4550  176.2530  144.3500 O   0  0  0  0  0  0  0  0  0  0  0  0
  191.5260  171.5850  140.6050 C   0  0  0  0  0  0  0  0  0  0  0  0
  190.7290  174.1640  142.9160 C   0  0  0  0  0  0  0  0  0  0  0  0
  193.7610  176.6950  146.0860 C   0  0  0  0  0  0  0  0  0  0  0  0
  191.4590  172.5400  141.5990 C   0  0  0  0  0  0  0  0  0  0  0  0
  189.8800  175.3040  143.4790 C   0  0  0  0  0  0  0  0  0  0  0  0
  190.4110  171.4480  139.7690 C   0  0  0  0  0  3  0  0  0  0  0  0
  194.7350  175.6290  146.4960 C   0  0  0  0  0  2  0  0  0  0  0  0
  192.4020  172.7760  142.5280 C   0  0  0  0  0  0  0  0  0  0  0  0
  194.6270  172.3000  140.3600 C   0  0  0  0  0  1  0  0  0  0  0  0
  188.0150  173.9450  141.2390 C   0  0  0  0  0  3  0  0  0  0  0  0
  189.2850  172.2770  139.9740 C   0  0  0  0  0  3  0  0  0  0  0  0
  193.6350  171.9220  142.6290 C   0  0  0  0  0  2  0  0  0  0  0  0
  192.2870  176.4140  146.0420 C   0  0  1  0  0  3  0  0  0  0  0  0
  191.8280  176.2420  144.6190 C   0  0  1  0  0  3  0  0  0  0  0  0
  189.2640  173.2420  141.0080 C   0  0  0  0  0  0  0  0  0  0  0  0
  191.9870  173.7550  143.3650 N   0  0  0  0  0  0  0  0  0  0  0  0
  192.7270  170.6750  140.5470 C   0  0  0  0  0  2  0  0  0  0  0  0
  188.5680  175.5200  143.1900 C   0  0  0  0  0  0  0  0  0  0  0  0
  194.9650  170.1530  141.5000 C   0  0  0  0  0  1  0  0  0  0  0  0
  191.9680  175.0180  145.4950 C   0  0  1  0  0  3  0  0  0  0  0  0
  194.1760  177.8020  145.7820 O   0  0  0  0  0  0  0  0  0  0  0  0
  192.7680  174.1160  144.5700 C   0  0  2  0  0  3  0  0  0  0  0  0
  187.7440  174.8660  142.1520 C   0  0  0  0  0  3  0  0  0  0  0  0
  196.3640  172.9160  144.6990 O   0  0  0  0  0  0  0  0  0  0  0  0
  196.0930  173.7740  145.5810 C   0  0  0  0  0  3  0  0  0  0  0  0
  187.4110  177.7460  143.2910 C   0  0  0  0  0  3  0  0  0  0  0  0
  187.8210  176.5690  143.9330 C   0  0  0  0  0  0  0  0  0  0  0  0
  187.4730  176.3880  145.2800 C   0  0  0  0  0  3  0  0  0  0  0  0
  186.3270  177.1540  147.6390 Cl  0  0  0  0  0  0  0  0  0  0  0  0
  186.3760  178.5320  145.2770 C   0  0  0  0  0  3  0  0  0  0  0  0
  186.7530  177.3720  145.9560 C   0  0  0  0  0  0  0  0  0  0  0  0
  186.7090  178.6920  143.9690 N   0  0  0  0  0  0  0  0  0  0  0  0
  1 27  1  0  0  0  0
  1  4  1  0  0  0  0
  2 24  1  0  0  0  0
  2 17  1  0  0  0  0
  3  7  2  0  0  0  0
  4 30  1  0  0  0  0
  4 12  1  0  0  0  0
  6  9  1  0  0  0  0
  7 21  1  0  0  0  0
  7 10  1  0  0  0  0
  8 12  1  0  0  0  0
  9  3  1  0  0  0  0
  9 13  2  0  0  0  0
 10  5  1  0  0  0  0
 11 16  1  0  0  0  0
 11  6  2  0  0  0  0
 13 17  1  0  0  0  0
 13 21  1  0  0  0  0
 14  2  1  0  0  0  0
 15 28  2  0  0  0  0
 16 20  2  0  0  0  0
 18  8  1  6  0  0  0
 19  5  1  1  0  0  0
 19 25  1  0  0  0  0
 19 18  1  0  0  0  0
 20 15  1  0  0  0  0
 20  3  1  0  0  0  0
 21 27  1  0  0  0  0
 22  6  1  0  0  0  0
 22  2  1  0  0  0  0
 23 10  2  0  0  0  0
 23 32  1  0  0  0  0
 25 18  1  0  0  0  0
 26  8  2  0  0  0  0
 27 25  1  0  0  0  0
 28 23  1  0  0  0  0
 29 30  2  0  0  0  0
 31 32  2  0  0  0  0
 31 37  1  0  0  0  0
 32 33  1  0  0  0  0
 33 36  2  0  0  0  0
 35 36  1  0  0  0  0
 36 34  1  0  0  0  0
 37 35  2  0  0  0  0
M  END
>  <MODEL>
9

>  <REMARK>
 VINA RESULT:      -7.8      2.462      5.387
  Name = 
  1 active torsions:
  status: ('A' for Active; 'I' for Inactive)
    1  A    between atoms: C_23  and  C_30
                            x       y       z     vdW  Elec       q    Type
                         _______ _______ _______ _____ _____    ______ ____

>  <TORSDO>
F 1

$$$$
