=
 OpenBabel11112417433D

 28 32  0  0  1  0  0  0  0  0999 V2000
  189.9370  174.5980  141.8330 C   0  0  2  0  0  3  0  0  0  0  0  0
  187.4310  178.8380  142.2420 O   0  0  0  0  0  1  0  0  0  0  0  0
  188.7410  174.8210  147.4950 O   0  0  0  0  0  0  0  0  0  0  0  0
  187.9570  172.6620  142.4050 C   0  0  0  0  0  2  0  0  0  0  0  0
  187.4050  176.4050  146.3870 N   0  0  0  0  0  0  0  0  0  0  0  0
  191.2010  175.3380  142.2820 C   0  0  0  0  0  2  0  0  0  0  0  0
  187.1820  177.2840  140.4700 C   0  0  0  0  0  1  0  0  0  0  0  0
  186.7070  177.7100  141.8470 C   0  0  1  0  0  0  0  0  0  0  0  0
  184.4040  177.8530  143.0130 C   0  0  2  0  0  3  0  0  0  0  0  0
  186.9210  176.5570  142.8520 C   0  0  2  0  0  3  0  0  0  0  0  0
  192.8840  176.9000  145.1120 C   0  0  0  0  0  1  0  0  0  0  0  0
  188.7710  176.7510  144.4650 C   0  0  1  0  0  3  0  0  0  0  0  0
  185.2740  177.9390  144.2590 C   0  0  0  0  0  2  0  0  0  0  0  0
  185.2210  178.0880  141.7360 C   0  0  0  0  0  2  0  0  0  0  0  0
  191.5730  176.2780  144.6850 C   0  0  2  0  0  3  0  0  0  0  0  0
  188.7500  174.7450  142.8120 C   0  0  2  0  0  3  0  0  0  0  0  0
  188.5450  175.5830  146.5110 C   0  0  0  0  0  0  0  0  0  0  0  0
  183.3770  178.7930  143.0900 O   0  0  0  0  0  1  0  0  0  0  0  0
  190.7340  176.1300  145.8070 O   0  0  0  0  0  0  0  0  0  0  0  0
  187.6350  174.0270  142.3280 O   0  0  0  0  0  0  0  0  0  0  0  0
  190.2510  173.1190  141.5880 C   0  0  0  0  0  2  0  0  0  0  0  0
  188.9790  172.3220  141.3260 C   0  0  0  0  0  2  0  0  0  0  0  0
  191.8940  174.6920  143.8430 S   0  0  0  0  0  0  0  0  0  0  0  0
  187.4750  177.1850  145.1670 C   0  0  1  0  0  3  0  0  0  0  0  0
  189.4680  175.7010  145.3650 C   0  0  2  0  0  3  0  0  0  0  0  0
  186.3260  176.8290  144.2430 C   0  0  2  0  0  3  0  0  0  0  0  0
  186.4090  176.5990  147.4270 C   0  0  0  0  0  1  0  0  0  0  0  0
  188.4010  176.2330  143.0630 C   0  0  1  0  0  3  0  0  0  0  0  0
  1 21  1  1  0  0  0
  1  6  1  0  0  0  0
  1 16  1  0  0  0  0
  5 17  1  0  0  0  0
  5 27  1  0  0  0  0
  6 23  1  0  0  0  0
  8  7  1  6  0  0  0
  8  2  1  0  0  0  0
  8 10  1  0  0  0  0
  9 18  1  1  0  0  0
  9 13  1  0  0  0  0
 10 28  1  0  0  0  0
 10 26  1  0  0  0  0
 12 24  1  0  0  0  0
 12 25  1  0  0  0  0
 14  8  1  0  0  0  0
 14  9  1  0  0  0  0
 15 11  1  0  0  0  0
 15 19  1  0  0  0  0
 16 28  1  0  0  0  0
 17  3  2  0  0  0  0
 20  4  1  0  0  0  0
 20 16  1  0  0  0  0
 22 21  1  0  0  0  0
 22  4  1  0  0  0  0
 23 15  1  0  0  0  0
 24  5  1  0  0  0  0
 25 19  1  0  0  0  0
 25 17  1  0  0  0  0
 26 13  1  0  0  0  0
 26 24  1  0  0  0  0
 28 12  1  0  0  0  0
M  END
>  <MODEL>
1

>  <REMARK>
 VINA RESULT:      -8.5      0.000      0.000
  Name = 
  0 active torsions:
  status: ('A' for Active; 'I' for Inactive)
                            x       y       z     vdW  Elec       q    Type
                         _______ _______ _______ _____ _____    ______ ____

>  <TORSDO>
F 0

$$$$
=
 OpenBabel11112417433D

 28 32  0  0  1  0  0  0  0  0999 V2000
  186.1600  176.5290  142.6530 C   0  0  2  0  0  3  0  0  0  0  0  0
  189.0070  172.5530  143.3680 O   0  0  0  0  0  1  0  0  0  0  0  0
  191.3550  178.8640  143.7020 O   0  0  0  0  0  0  0  0  0  0  0  0
  187.1740  177.5780  140.2310 C   0  0  0  0  0  2  0  0  0  0  0  0
  191.6410  176.5730  143.2650 N   0  0  0  0  0  0  0  0  0  0  0  0
  186.0220  176.6650  144.1720 C   0  0  0  0  0  2  0  0  0  0  0  0
  187.3210  172.7310  141.7120 C   0  0  0  0  0  1  0  0  0  0  0  0
  188.7860  172.9450  142.0450 C   0  0  1  0  0  0  0  0  0  0  0  0
  191.0110  172.5860  140.7770 C   0  0  2  0  0  3  0  0  0  0  0  0
  189.1510  174.4340  141.8590 C   0  0  2  0  0  3  0  0  0  0  0  0
  187.7600  177.5670  147.2460 C   0  0  0  0  0  1  0  0  0  0  0  0
  189.4650  175.8140  143.8730 C   0  0  1  0  0  3  0  0  0  0  0  0
  191.5420  173.4930  141.8780 C   0  0  0  0  0  2  0  0  0  0  0  0
  189.6160  172.0430  141.1160 C   0  0  0  0  0  2  0  0  0  0  0  0
  187.9730  177.3340  145.7660 C   0  0  2  0  0  3  0  0  0  0  0  0
  187.6250  176.4850  142.1630 C   0  0  2  0  0  3  0  0  0  0  0  0
  190.8900  177.6940  143.6820 C   0  0  0  0  0  0  0  0  0  0  0  0
  191.8890  171.5220  140.5780 O   0  0  0  0  0  1  0  0  0  0  0  0
  189.2800  177.7210  145.4120 O   0  0  0  0  0  0  0  0  0  0  0  0
  187.6600  176.3700  140.7560 O   0  0  0  0  0  0  0  0  0  0  0  0
  185.3920  177.6540  141.9520 C   0  0  0  0  0  2  0  0  0  0  0  0
  185.6680  177.6560  140.4520 C   0  0  0  0  0  2  0  0  0  0  0  0
  186.7010  178.2330  144.8170 S   0  0  0  0  0  0  0  0  0  0  0  0
  190.8480  175.3640  143.3790 C   0  0  1  0  0  3  0  0  0  0  0  0
  189.5090  177.3490  144.0730 C   0  0  2  0  0  3  0  0  0  0  0  0
  190.6510  174.7280  142.0160 C   0  0  2  0  0  3  0  0  0  0  0  0
  193.0620  176.5950  142.9650 C   0  0  0  0  0  1  0  0  0  0  0  0
  188.4190  175.3430  142.8460 C   0  0  1  0  0  3  0  0  0  0  0  0
  1 21  1  6  0  0  0
  1  6  1  0  0  0  0
  4 22  1  0  0  0  0
  4 20  1  0  0  0  0
  5 24  1  0  0  0  0
  5 17  1  0  0  0  0
  6 23  1  0  0  0  0
  8  7  1  6  0  0  0
  8  2  1  0  0  0  0
  9 18  1  1  0  0  0
  9 14  1  0  0  0  0
  9 13  1  0  0  0  0
 10 26  1  0  0  0  0
 10  8  1  0  0  0  0
 10 28  1  0  0  0  0
 12 25  1  0  0  0  0
 13 26  1  0  0  0  0
 14  8  1  0  0  0  0
 15 11  1  0  0  0  0
 16  1  1  0  0  0  0
 16 28  1  0  0  0  0
 17  3  2  0  0  0  0
 17 25  1  0  0  0  0
 19 15  1  0  0  0  0
 20 16  1  0  0  0  0
 22 21  1  0  0  0  0
 23 15  1  0  0  0  0
 24 12  1  0  0  0  0
 25 19  1  0  0  0  0
 26 24  1  0  0  0  0
 27  5  1  0  0  0  0
 28 12  1  0  0  0  0
M  END
>  <MODEL>
2

>  <REMARK>
 VINA RESULT:      -7.7      2.393      5.675
  Name = 
  0 active torsions:
  status: ('A' for Active; 'I' for Inactive)
                            x       y       z     vdW  Elec       q    Type
                         _______ _______ _______ _____ _____    ______ ____

>  <TORSDO>
F 0

$$$$
=
 OpenBabel11112417433D

 28 32  0  0  1  0  0  0  0  0999 V2000
  190.3130  175.7390  144.0470 C   0  0  2  0  0  3  0  0  0  0  0  0
  185.6520  175.7230  145.6900 O   0  0  0  0  0  1  0  0  0  0  0  0
  187.3250  177.4560  139.3930 O   0  0  0  0  0  0  0  0  0  0  0  0
  190.8050  178.4930  143.6350 C   0  0  0  0  0  2  0  0  0  0  0  0
  185.9250  177.6050  141.2750 N   0  0  0  0  0  0  0  0  0  0  0  0
  190.0700  174.3560  143.4360 C   0  0  0  0  0  2  0  0  0  0  0  0
  187.5230  176.4790  146.9330 C   0  0  0  0  0  1  0  0  0  0  0  0
  186.4170  176.8590  145.9660 C   0  0  1  0  0  0  0  0  0  0  0  0
  184.8480  178.8980  145.7080 C   0  0  2  0  0  3  0  0  0  0  0  0
  187.0320  177.4200  144.6650 C   0  0  2  0  0  3  0  0  0  0  0  0
  188.3730  172.5400  140.7710 C   0  0  0  0  0  1  0  0  0  0  0  0
  187.0070  175.9940  142.6590 C   0  0  1  0  0  3  0  0  0  0  0  0
  184.6430  178.3010  144.3230 C   0  0  0  0  0  2  0  0  0  0  0  0
  185.5240  177.9010  146.6590 C   0  0  0  0  0  2  0  0  0  0  0  0
  188.4910  173.9060  141.4110 C   0  0  2  0  0  3  0  0  0  0  0  0
  189.2930  176.8070  143.5940 C   0  0  2  0  0  3  0  0  0  0  0  0
  187.0250  177.0850  140.5590 C   0  0  0  0  0  0  0  0  0  0  0  0
  183.6210  179.2900  146.2390 O   0  0  0  0  0  1  0  0  0  0  0  0
  187.7990  174.8530  140.6310 O   0  0  0  0  0  0  0  0  0  0  0  0
  189.5950  178.0490  144.1930 O   0  0  0  0  0  0  0  0  0  0  0  0
  191.7430  176.2020  143.7500 C   0  0  0  0  0  2  0  0  0  0  0  0
  191.9520  177.6500  144.1790 C   0  0  0  0  0  2  0  0  0  0  0  0
  190.2530  174.3310  141.6190 S   0  0  0  0  0  0  0  0  0  0  0  0
  185.8200  176.9650  142.5720 C   0  0  1  0  0  3  0  0  0  0  0  0
  187.7880  176.0790  141.3240 C   0  0  2  0  0  3  0  0  0  0  0  0
  185.9950  177.9840  143.6820 C   0  0  2  0  0  3  0  0  0  0  0  0
  184.9220  178.4960  140.7180 C   0  0  0  0  0  1  0  0  0  0  0  0
  187.8380  176.3700  143.8990 C   0  0  1  0  0  3  0  0  0  0  0  0
  1  6  1  6  0  0  0
  2  8  1  0  0  0  0
  3 17  2  0  0  0  0
  4 22  1  0  0  0  0
  4 20  1  0  0  0  0
  5 24  1  0  0  0  0
  8 14  1  0  0  0  0
  8  7  1  1  0  0  0
  9 18  1  1  0  0  0
  9 14  1  0  0  0  0
 10  8  1  0  0  0  0
 11 15  1  0  0  0  0
 12 28  1  0  0  0  0
 13  9  1  0  0  0  0
 15 23  1  0  0  0  0
 16 28  1  0  0  0  0
 16  1  1  0  0  0  0
 16 20  1  0  0  0  0
 17  5  1  0  0  0  0
 17 25  1  0  0  0  0
 19 25  1  0  0  0  0
 19 15  1  0  0  0  0
 21  1  1  0  0  0  0
 21 22  1  0  0  0  0
 23  6  1  0  0  0  0
 24 12  1  0  0  0  0
 24 26  1  0  0  0  0
 25 12  1  0  0  0  0
 26 13  1  0  0  0  0
 26 10  1  0  0  0  0
 27  5  1  0  0  0  0
 28 10  1  0  0  0  0
M  END
>  <MODEL>
3

>  <REMARK>
 VINA RESULT:      -7.6      2.068      4.778
  Name = 
  0 active torsions:
  status: ('A' for Active; 'I' for Inactive)
                            x       y       z     vdW  Elec       q    Type
                         _______ _______ _______ _____ _____    ______ ____

>  <TORSDO>
F 0

$$$$
=
 OpenBabel11112417433D

 28 32  0  0  1  0  0  0  0  0999 V2000
  190.9530  173.6320  141.6740 C   0  0  2  0  0  3  0  0  0  0  0  0
  188.7520  178.0520  141.8960 O   0  0  0  0  0  1  0  0  0  0  0  0
  192.2560  175.4280  147.0240 O   0  0  0  0  0  0  0  0  0  0  0  0
  189.4480  172.1080  143.5200 C   0  0  0  0  0  2  0  0  0  0  0  0
  190.5380  176.7900  146.1770 N   0  0  0  0  0  0  0  0  0  0  0  0
  192.2700  174.3400  141.3400 C   0  0  0  0  0  2  0  0  0  0  0  0
  187.8160  176.1220  140.8880 C   0  0  0  0  0  1  0  0  0  0  0  0
  187.9570  176.9340  142.1620 C   0  0  1  0  0  0  0  0  0  0  0  0
  186.3600  177.5930  144.0850 C   0  0  2  0  0  3  0  0  0  0  0  0
  188.6040  176.0660  143.2640 C   0  0  2  0  0  3  0  0  0  0  0  0
  194.9530  176.4140  142.6740 C   0  0  0  0  0  1  0  0  0  0  0  0
  190.9560  176.4940  143.8490 C   0  0  1  0  0  3  0  0  0  0  0  0
  187.6720  177.9160  144.7850 C   0  0  0  0  0  2  0  0  0  0  0  0
  186.5550  177.4100  142.5740 C   0  0  0  0  0  2  0  0  0  0  0  0
  193.5990  175.8310  143.0150 C   0  0  2  0  0  3  0  0  0  0  0  0
  190.2880  174.1400  142.9730 C   0  0  2  0  0  3  0  0  0  0  0  0
  191.6440  175.9240  146.0410 C   0  0  0  0  0  0  0  0  0  0  0  0
  185.4390  178.6140  144.3160 O   0  0  0  0  0  1  0  0  0  0  0  0
  193.3170  176.0580  144.3760 O   0  0  0  0  0  0  0  0  0  0  0  0
  189.0900  173.4300  143.2110 O   0  0  0  0  0  0  0  0  0  0  0  0
  191.1710  172.1170  141.7380 C   0  0  0  0  0  2  0  0  0  0  0  0
  189.9260  171.4050  142.2550 C   0  0  0  0  0  2  0  0  0  0  0  0
  193.5730  174.0570  142.5870 S   0  0  0  0  0  0  0  0  0  0  0  0
  190.0680  177.2170  144.8740 C   0  0  1  0  0  3  0  0  0  0  0  0
  191.9930  175.6520  144.6320 C   0  0  2  0  0  3  0  0  0  0  0  0
  188.6450  176.7440  144.6420 C   0  0  2  0  0  3  0  0  0  0  0  0
  190.0700  177.3410  147.4370 C   0  0  0  0  0  1  0  0  0  0  0  0
  190.0410  175.6690  142.9260 C   0  0  1  0  0  3  0  0  0  0  0  0
  1  6  1  1  0  0  0
  1 21  1  0  0  0  0
  1 16  1  0  0  0  0
  2  8  1  0  0  0  0
  5 27  1  0  0  0  0
  6 23  1  0  0  0  0
  8  7  1  6  0  0  0
  8 14  1  0  0  0  0
  8 10  1  0  0  0  0
  9 18  1  6  0  0  0
  9 13  1  0  0  0  0
 10 26  1  0  0  0  0
 11 15  1  0  0  0  0
 12 25  1  0  0  0  0
 12 24  1  0  0  0  0
 14  9  1  0  0  0  0
 15 19  1  0  0  0  0
 16 20  1  0  0  0  0
 17  5  1  0  0  0  0
 17  3  2  0  0  0  0
 19 25  1  0  0  0  0
 20  4  1  0  0  0  0
 21 22  1  0  0  0  0
 22  4  1  0  0  0  0
 23 15  1  0  0  0  0
 24  5  1  0  0  0  0
 25 17  1  0  0  0  0
 26 13  1  0  0  0  0
 26 24  1  0  0  0  0
 28 16  1  0  0  0  0
 28 10  1  0  0  0  0
 28 12  1  0  0  0  0
M  END
>  <MODEL>
4

>  <REMARK>
 VINA RESULT:      -7.4      1.803      2.348
  Name = 
  0 active torsions:
  status: ('A' for Active; 'I' for Inactive)
                            x       y       z     vdW  Elec       q    Type
                         _______ _______ _______ _____ _____    ______ ____

>  <TORSDO>
F 0

$$$$
=
 OpenBabel11112417433D

 28 32  0  0  1  0  0  0  0  0999 V2000
  188.7180  177.3620  144.7510 C   0  0  2  0  0  3  0  0  0  0  0  0
  192.9360  176.3260  142.3930 O   0  0  0  0  0  1  0  0  0  0  0  0
  187.4730  172.3900  142.0540 O   0  0  0  0  0  0  0  0  0  0  0  0
  188.5800  175.3050  146.6870 C   0  0  0  0  0  2  0  0  0  0  0  0
  189.8020  172.7020  142.0070 N   0  0  0  0  0  0  0  0  0  0  0  0
  188.1750  177.9620  143.4510 C   0  0  0  0  0  2  0  0  0  0  0  0
  192.7930  177.1960  144.5930 C   0  0  0  0  0  1  0  0  0  0  0  0
  192.8510  175.9460  143.7350 C   0  0  1  0  0  0  0  0  0  0  0  0
  194.0270  173.6530  143.9390 C   0  0  2  0  0  3  0  0  0  0  0  0
  191.5840  175.0940  143.9710 C   0  0  2  0  0  3  0  0  0  0  0  0
  186.9590  177.1950  140.1020 C   0  0  0  0  0  1  0  0  0  0  0  0
  189.8540  175.0760  142.2200 C   0  0  1  0  0  3  0  0  0  0  0  0
  193.0220  173.2760  142.8600 C   0  0  0  0  0  2  0  0  0  0  0  0
  194.1250  175.1740  144.1140 C   0  0  0  0  0  2  0  0  0  0  0  0
  187.6010  176.5710  141.3220 C   0  0  2  0  0  3  0  0  0  0  0  0
  189.2250  175.9100  144.6010 C   0  0  2  0  0  3  0  0  0  0  0  0
  188.4700  173.1600  142.0910 C   0  0  0  0  0  0  0  0  0  0  0  0
  195.2810  173.1380  143.6140 O   0  0  0  0  0  1  0  0  0  0  0  0
  187.6320  175.1710  141.1740 O   0  0  0  0  0  0  0  0  0  0  0  0
  189.6960  175.4320  145.8430 O   0  0  0  0  0  0  0  0  0  0  0  0
  187.6590  177.4500  145.8540 C   0  0  0  0  0  2  0  0  0  0  0  0
  188.0990  176.6910  147.1010 C   0  0  0  0  0  2  0  0  0  0  0  0
  186.6990  177.0920  142.8200 S   0  0  0  0  0  0  0  0  0  0  0  0
  190.7230  173.8210  142.0470 C   0  0  1  0  0  3  0  0  0  0  0  0
  188.3720  174.6260  142.2400 C   0  0  2  0  0  3  0  0  0  0  0  0
  191.6180  173.7270  143.2690 C   0  0  2  0  0  3  0  0  0  0  0  0
  190.1890  171.3330  141.7110 C   0  0  0  0  0  1  0  0  0  0  0  0
  190.3100  175.7970  143.5010 C   0  0  1  0  0  3  0  0  0  0  0  0
  1  6  1  6  0  0  0
  1 21  1  0  0  0  0
  2  8  1  0  0  0  0
  3 17  2  0  0  0  0
  4 22  1  0  0  0  0
  5 24  1  0  0  0  0
  5 17  1  0  0  0  0
  8 10  1  0  0  0  0
  8 14  1  0  0  0  0
  8  7  1  1  0  0  0
  9 18  1  6  0  0  0
  9 14  1  0  0  0  0
 11 15  1  0  0  0  0
 12 25  1  0  0  0  0
 12 28  1  0  0  0  0
 13 26  1  0  0  0  0
 13  9  1  0  0  0  0
 15 23  1  0  0  0  0
 16  1  1  0  0  0  0
 16 20  1  0  0  0  0
 17 25  1  0  0  0  0
 19 15  1  0  0  0  0
 19 25  1  0  0  0  0
 20  4  1  0  0  0  0
 21 22  1  0  0  0  0
 23  6  1  0  0  0  0
 24 12  1  0  0  0  0
 24 26  1  0  0  0  0
 26 10  1  0  0  0  0
 27  5  1  0  0  0  0
 28 10  1  0  0  0  0
 28 16  1  0  0  0  0
M  END
>  <MODEL>
5

>  <REMARK>
 VINA RESULT:      -7.2      2.576      6.607
  Name = 
  0 active torsions:
  status: ('A' for Active; 'I' for Inactive)
                            x       y       z     vdW  Elec       q    Type
                         _______ _______ _______ _____ _____    ______ ____

>  <TORSDO>
F 0

$$$$
=
 OpenBabel11112417433D

 28 32  0  0  1  0  0  0  0  0999 V2000
  194.0210  173.9250  145.5100 C   0  0  2  0  0  3  0  0  0  0  0  0
  189.2800  174.2350  146.8710 O   0  0  0  0  0  1  0  0  0  0  0  0
  191.2270  173.5940  140.4480 O   0  0  0  0  0  0  0  0  0  0  0  0
  194.4140  176.3510  144.1120 C   0  0  0  0  0  2  0  0  0  0  0  0
  189.7190  174.3470  142.0860 N   0  0  0  0  0  0  0  0  0  0  0  0
  193.8730  172.4020  145.4550 C   0  0  0  0  0  2  0  0  0  0  0  0
  191.0430  175.5140  147.8050 C   0  0  0  0  0  1  0  0  0  0  0  0
  189.9780  175.4370  146.7270 C   0  0  1  0  0  0  0  0  0  0  0  0
  188.3380  177.1310  145.6670 C   0  0  2  0  0  3  0  0  0  0  0  0
  190.6400  175.5090  145.3340 C   0  0  2  0  0  3  0  0  0  0  0  0
  192.4110  169.6210  143.6080 C   0  0  0  0  0  1  0  0  0  0  0  0
  190.7910  173.4390  144.0110 C   0  0  1  0  0  3  0  0  0  0  0  0
  188.2370  176.0490  144.6010 C   0  0  0  0  0  2  0  0  0  0  0  0
  189.0030  176.6050  146.9460 C   0  0  0  0  0  2  0  0  0  0  0  0
  192.4330  171.1320  143.6920 C   0  0  2  0  0  3  0  0  0  0  0  0
  192.9820  174.6820  144.6530 C   0  0  2  0  0  3  0  0  0  0  0  0
  190.8790  173.6670  141.6570 C   0  0  0  0  0  0  0  0  0  0  0  0
  187.0660  177.6170  145.9670 O   0  0  0  0  0  1  0  0  0  0  0  0
  191.7450  171.6760  142.5900 O   0  0  0  0  0  0  0  0  0  0  0  0
  193.1960  176.0740  144.7520 O   0  0  0  0  0  0  0  0  0  0  0  0
  195.4430  174.3310  145.1120 C   0  0  0  0  0  2  0  0  0  0  0  0
  195.5650  175.8440  144.9730 C   0  0  0  0  0  2  0  0  0  0  0  0
  194.1600  171.7130  143.7880 S   0  0  0  0  0  0  0  0  0  0  0  0
  189.5690  174.2320  143.5230 C   0  0  1  0  0  3  0  0  0  0  0  0
  191.6400  173.0680  142.7710 C   0  0  2  0  0  3  0  0  0  0  0  0
  189.6360  175.6000  144.1750 C   0  0  2  0  0  3  0  0  0  0  0  0
  188.7110  174.9020  141.1990 C   0  0  0  0  0  1  0  0  0  0  0  0
  191.5330  174.3010  145.0480 C   0  0  1  0  0  3  0  0  0  0  0  0
  1 21  1  6  0  0  0
  3 17  2  0  0  0  0
  4 20  1  0  0  0  0
  4 22  1  0  0  0  0
  5 24  1  0  0  0  0
  6  1  1  0  0  0  0
  8  2  1  0  0  0  0
  8 14  1  0  0  0  0
  8  7  1  1  0  0  0
  9 18  1  1  0  0  0
  9 14  1  0  0  0  0
 10  8  1  0  0  0  0
 11 15  1  0  0  0  0
 12 28  1  0  0  0  0
 13  9  1  0  0  0  0
 15 23  1  0  0  0  0
 16 20  1  0  0  0  0
 16 28  1  0  0  0  0
 16  1  1  0  0  0  0
 17  5  1  0  0  0  0
 17 25  1  0  0  0  0
 19 25  1  0  0  0  0
 19 15  1  0  0  0  0
 22 21  1  0  0  0  0
 23  6  1  0  0  0  0
 24 12  1  0  0  0  0
 24 26  1  0  0  0  0
 25 12  1  0  0  0  0
 26 13  1  0  0  0  0
 26 10  1  0  0  0  0
 27  5  1  0  0  0  0
 28 10  1  0  0  0  0
M  END
>  <MODEL>
6

>  <REMARK>
 VINA RESULT:      -7.2      2.874      5.798
  Name = 
  0 active torsions:
  status: ('A' for Active; 'I' for Inactive)
                            x       y       z     vdW  Elec       q    Type
                         _______ _______ _______ _____ _____    ______ ____

>  <TORSDO>
F 0

$$$$
=
 OpenBabel11112417433D

 28 32  0  0  1  0  0  0  0  0999 V2000
  188.1750  176.3210  144.2700 C   0  0  2  0  0  3  0  0  0  0  0  0
  189.7270  171.8570  142.8250 O   0  0  0  0  0  1  0  0  0  0  0  0
  193.9270  176.9750  144.0970 O   0  0  0  0  0  0  0  0  0  0  0  0
  188.8240  177.9420  142.0450 C   0  0  0  0  0  2  0  0  0  0  0  0
  193.3670  174.9940  142.9640 N   0  0  0  0  0  0  0  0  0  0  0  0
  188.4720  175.9210  145.7180 C   0  0  0  0  0  2  0  0  0  0  0  0
  187.8220  172.9720  141.9630 C   0  0  0  0  0  1  0  0  0  0  0  0
  189.3150  172.7390  141.8230 C   0  0  1  0  0  0  0  0  0  0  0  0
  190.9250  172.4090  139.8270 C   0  0  2  0  0  3  0  0  0  0  0  0
  190.0660  174.0820  141.9500 C   0  0  2  0  0  3  0  0  0  0  0  0
  191.1170  175.2600  148.1380 C   0  0  0  0  0  1  0  0  0  0  0  0
  191.2880  174.5380  144.0380 C   0  0  1  0  0  3  0  0  0  0  0  0
  191.9700  172.7220  140.8880 C   0  0  0  0  0  2  0  0  0  0  0  0
  189.5620  172.0850  140.4540 C   0  0  0  0  0  2  0  0  0  0  0  0
  190.8690  175.5420  146.6720 C   0  0  2  0  0  3  0  0  0  0  0  0
  189.3820  176.1530  143.3190 C   0  0  2  0  0  3  0  0  0  0  0  0
  193.1320  176.0170  143.9080 C   0  0  0  0  0  0  0  0  0  0  0  0
  191.3490  171.3320  139.0510 O   0  0  0  0  0  1  0  0  0  0  0  0
  192.0980  175.7490  146.0170 O   0  0  0  0  0  0  0  0  0  0  0  0
  189.0250  176.5520  142.0120 O   0  0  0  0  0  0  0  0  0  0  0  0
  187.6460  177.7580  144.2180 C   0  0  0  0  0  2  0  0  0  0  0  0
  187.5240  178.2470  142.7790 C   0  0  0  0  0  2  0  0  0  0  0  0
  189.7440  176.9690  146.5050 S   0  0  0  0  0  0  0  0  0  0  0  0
  192.2930  174.0200  142.9970 C   0  0  1  0  0  3  0  0  0  0  0  0
  191.8570  175.8490  144.6330 C   0  0  2  0  0  3  0  0  0  0  0  0
  191.5730  173.9790  141.6630 C   0  0  2  0  0  3  0  0  0  0  0  0
  194.6010  174.8260  142.2170 C   0  0  0  0  0  1  0  0  0  0  0  0
  189.9250  174.7030  143.3400 C   0  0  1  0  0  3  0  0  0  0  0  0
  1 21  1  1  0  0  0
  1  6  1  0  0  0  0
  4 22  1  0  0  0  0
  5 24  1  0  0  0  0
  5 17  1  0  0  0  0
  6 23  1  0  0  0  0
  8 10  1  0  0  0  0
  8  7  1  1  0  0  0
  8  2  1  0  0  0  0
  9 18  1  1  0  0  0
  9 14  1  0  0  0  0
  9 13  1  0  0  0  0
 10 28  1  0  0  0  0
 12 25  1  0  0  0  0
 13 26  1  0  0  0  0
 14  8  1  0  0  0  0
 15 11  1  0  0  0  0
 16 28  1  0  0  0  0
 16  1  1  0  0  0  0
 17  3  2  0  0  0  0
 17 25  1  0  0  0  0
 19 15  1  0  0  0  0
 20  4  1  0  0  0  0
 20 16  1  0  0  0  0
 22 21  1  0  0  0  0
 23 15  1  0  0  0  0
 24 12  1  0  0  0  0
 25 19  1  0  0  0  0
 26 10  1  0  0  0  0
 26 24  1  0  0  0  0
 27  5  1  0  0  0  0
 28 12  1  0  0  0  0
M  END
>  <MODEL>
7

>  <REMARK>
 VINA RESULT:      -6.9      2.628      5.937
  Name = 
  0 active torsions:
  status: ('A' for Active; 'I' for Inactive)
                            x       y       z     vdW  Elec       q    Type
                         _______ _______ _______ _____ _____    ______ ____

>  <TORSDO>
F 0

$$$$
=
 OpenBabel11112417433D

 28 32  0  0  1  0  0  0  0  0999 V2000
  196.1610  174.9150  144.8640 C   0  0  2  0  0  3  0  0  0  0  0  0
  191.9550  174.8670  147.4590 O   0  0  0  0  0  1  0  0  0  0  0  0
  193.0390  170.8670  142.1420 O   0  0  0  0  0  0  0  0  0  0  0  0
  195.3270  175.9560  142.3710 C   0  0  0  0  0  2  0  0  0  0  0  0
  191.6110  172.0880  143.5530 N   0  0  0  0  0  0  0  0  0  0  0  0
  196.6380  173.7070  145.6750 C   0  0  0  0  0  2  0  0  0  0  0  0
  193.1620  176.8210  146.8730 C   0  0  0  0  0  1  0  0  0  0  0  0
  192.0750  175.8430  146.4660 C   0  0  1  0  0  0  0  0  0  0  0  0
  189.7540  176.0640  145.3500 C   0  0  2  0  0  3  0  0  0  0  0  0
  192.4420  175.1900  145.1150 C   0  0  2  0  0  3  0  0  0  0  0  0
  196.1790  170.1350  146.2370 C   0  0  0  0  0  1  0  0  0  0  0  0
  193.2260  172.8560  145.1280 C   0  0  1  0  0  3  0  0  0  0  0  0
  189.9480  174.5700  145.1330 C   0  0  0  0  0  2  0  0  0  0  0  0
  190.7530  176.6210  146.3730 C   0  0  0  0  0  2  0  0  0  0  0  0
  195.5980  171.3220  145.5010 C   0  0  2  0  0  3  0  0  0  0  0  0
  194.7910  174.7030  144.1800 C   0  0  2  0  0  3  0  0  0  0  0  0
  192.8710  171.5880  143.1610 C   0  0  0  0  0  0  0  0  0  0  0  0
  188.4530  176.3120  145.7850 O   0  0  0  0  0  1  0  0  0  0  0  0
  194.5970  170.8830  144.6130 O   0  0  0  0  0  0  0  0  0  0  0  0
  194.4330  175.8570  143.4490 O   0  0  0  0  0  0  0  0  0  0  0  0
  197.2210  175.3090  143.8320 C   0  0  0  0  0  2  0  0  0  0  0  0
  196.6960  176.3830  142.8860 C   0  0  0  0  0  2  0  0  0  0  0  0
  196.9340  172.2260  144.6480 S   0  0  0  0  0  0  0  0  0  0  0  0
  191.7310  172.8580  144.7750 C   0  0  1  0  0  3  0  0  0  0  0  0
  193.9630  172.0120  144.0600 C   0  0  2  0  0  3  0  0  0  0  0  0
  191.3300  174.3010  144.5350 C   0  0  2  0  0  3  0  0  0  0  0  0
  190.3470  171.7150  142.9410 C   0  0  0  0  0  1  0  0  0  0  0  0
  193.6960  174.3200  145.2070 C   0  0  1  0  0  3  0  0  0  0  0  0
  1 21  1  6  0  0  0
  1  6  1  0  0  0  0
  3 17  2  0  0  0  0
  4 22  1  0  0  0  0
  4 20  1  0  0  0  0
  5 24  1  0  0  0  0
  8  7  1  1  0  0  0
  8  2  1  0  0  0  0
  9 18  1  1  0  0  0
  9 14  1  0  0  0  0
 10 28  1  0  0  0  0
 10  8  1  0  0  0  0
 12 28  1  0  0  0  0
 13  9  1  0  0  0  0
 14  8  1  0  0  0  0
 15 11  1  0  0  0  0
 16  1  1  0  0  0  0
 16 28  1  0  0  0  0
 17  5  1  0  0  0  0
 17 25  1  0  0  0  0
 19 15  1  0  0  0  0
 20 16  1  0  0  0  0
 22 21  1  0  0  0  0
 23 15  1  0  0  0  0
 23  6  1  0  0  0  0
 24 12  1  0  0  0  0
 25 19  1  0  0  0  0
 25 12  1  0  0  0  0
 26 24  1  0  0  0  0
 26 10  1  0  0  0  0
 26 13  1  0  0  0  0
 27  5  1  0  0  0  0
M  END
>  <MODEL>
8

>  <REMARK>
 VINA RESULT:      -6.7      4.143      6.925
  Name = 
  0 active torsions:
  status: ('A' for Active; 'I' for Inactive)
                            x       y       z     vdW  Elec       q    Type
                         _______ _______ _______ _____ _____    ______ ____

>  <TORSDO>
F 0

$$$$
=
 OpenBabel11112417433D

 28 32  0  0  1  0  0  0  0  0999 V2000
  187.3350  176.7230  142.8420 C   0  0  2  0  0  3  0  0  0  0  0  0
  189.3930  172.6870  144.8180 O   0  0  0  0  0  1  0  0  0  0  0  0
  189.5000  178.7180  147.8290 O   0  0  0  0  0  0  0  0  0  0  0  0
  189.5850  178.3320  142.2580 C   0  0  0  0  0  2  0  0  0  0  0  0
  190.4320  176.6040  147.4030 N   0  0  0  0  0  0  0  0  0  0  0  0
  186.0990  176.4820  143.7140 C   0  0  0  0  0  2  0  0  0  0  0  0
  189.4870  173.2700  142.5220 C   0  0  0  0  0  1  0  0  0  0  0  0
  190.1530  173.3920  143.8810 C   0  0  1  0  0  0  0  0  0  0  0  0
  192.5980  173.3510  144.7180 C   0  0  2  0  0  3  0  0  0  0  0  0
  190.2510  174.8800  144.2810 C   0  0  2  0  0  3  0  0  0  0  0  0
  184.7920  176.5980  147.1140 C   0  0  0  0  0  1  0  0  0  0  0  0
  188.7130  175.7230  146.0080 C   0  0  1  0  0  3  0  0  0  0  0  0
  191.9640  173.9590  145.9600 C   0  0  0  0  0  2  0  0  0  0  0  0
  191.5440  172.7440  143.7830 C   0  0  0  0  0  2  0  0  0  0  0  0
  186.0660  176.7350  146.3090 C   0  0  2  0  0  3  0  0  0  0  0  0
  188.6550  176.7970  143.6410 C   0  0  2  0  0  3  0  0  0  0  0  0
  189.4300  177.5890  147.2750 C   0  0  0  0  0  0  0  0  0  0  0  0
  193.5130  172.3660  145.0900 O   0  0  0  0  0  1  0  0  0  0  0  0
  187.1040  177.1940  147.1420 O   0  0  0  0  0  0  0  0  0  0  0  0
  189.7370  177.0310  142.7640 O   0  0  0  0  0  0  0  0  0  0  0  0
  187.1450  177.9870  141.9980 C   0  0  0  0  0  2  0  0  0  0  0  0
  188.4300  178.3570  141.2650 C   0  0  0  0  0  2  0  0  0  0  0  0
  185.7740  177.8420  144.8880 S   0  0  0  0  0  0  0  0  0  0  0  0
  190.0580  175.4060  146.6780 C   0  0  1  0  0  3  0  0  0  0  0  0
  188.3090  177.1620  146.4150 C   0  0  2  0  0  3  0  0  0  0  0  0
  191.0540  175.1240  145.5680 C   0  0  2  0  0  3  0  0  0  0  0  0
  191.5720  176.6960  148.2990 C   0  0  0  0  0  1  0  0  0  0  0  0
  188.8790  175.5210  144.4900 C   0  0  1  0  0  3  0  0  0  0  0  0
  1 21  1  1  0  0  0
  1 16  1  0  0  0  0
  1  6  1  0  0  0  0
  4 20  1  0  0  0  0
  5 27  1  0  0  0  0
  6 23  1  0  0  0  0
  8  7  1  6  0  0  0
  8 10  1  0  0  0  0
  8  2  1  0  0  0  0
  9 18  1  1  0  0  0
  9 13  1  0  0  0  0
 10 28  1  0  0  0  0
 10 26  1  0  0  0  0
 12 25  1  0  0  0  0
 12 24  1  0  0  0  0
 14  8  1  0  0  0  0
 14  9  1  0  0  0  0
 15 11  1  0  0  0  0
 15 19  1  0  0  0  0
 16 28  1  0  0  0  0
 17  5  1  0  0  0  0
 17  3  2  0  0  0  0
 20 16  1  0  0  0  0
 22 21  1  0  0  0  0
 22  4  1  0  0  0  0
 23 15  1  0  0  0  0
 24  5  1  0  0  0  0
 25 19  1  0  0  0  0
 25 17  1  0  0  0  0
 26 13  1  0  0  0  0
 26 24  1  0  0  0  0
 28 12  1  0  0  0  0
M  END
>  <MODEL>
9

>  <REMARK>
 VINA RESULT:      -6.6      2.640      5.796
  Name = 
  0 active torsions:
  status: ('A' for Active; 'I' for Inactive)
                            x       y       z     vdW  Elec       q    Type
                         _______ _______ _______ _____ _____    ______ ____

>  <TORSDO>
F 0

$$$$
