=
 OpenBabel11112417563D

 34 41  0  0  1  0  0  0  0  0999 V2000
  189.5310  175.1090  142.9180 C   0  0  0  0  0  0  0  0  0  0  0  0
  191.8000  173.9640  142.5320 C   0  0  0  0  0  3  0  0  0  0  0  0
  185.7050  179.1860  146.1050 C   0  0  2  0  0  3  0  0  0  0  0  0
  187.4040  176.2140  143.4130 C   0  0  0  0  0  0  0  0  0  0  0  0
  187.1530  177.3220  145.6500 C   0  0  1  0  0  3  0  0  0  0  0  0
  186.5550  178.5100  147.9280 C   0  0  0  0  0  2  0  0  0  0  0  0
  185.8270  179.7800  147.4890 C   0  0  0  0  0  2  0  0  0  0  0  0
  184.2580  177.8950  144.6150 O   0  0  0  0  0  0  0  0  0  0  0  0
  191.0830  174.6070  144.6980 C   0  0  0  0  0  0  0  0  0  0  0  0
  192.9250  175.8080  146.6810 C   0  0  0  0  0  2  0  0  0  0  0  0
  187.9960  176.2110  146.2590 C   0  0  0  0  0  2  0  0  0  0  0  0
  185.4070  177.7780  143.7940 C   0  0  0  0  0  2  0  0  0  0  0  0
  190.2140  175.1420  145.6720 C   0  0  0  0  0  0  0  0  0  0  0  0
  192.8600  173.5120  143.5390 C   0  0  0  0  0  3  0  0  0  0  0  0
  186.4100  176.7660  144.4110 C   0  0  1  0  0  3  0  0  0  0  0  0
  184.3460  179.0630  145.4200 C   0  0  0  0  0  2  0  0  0  0  0  0
  193.4360  175.0180  145.4680 C   0  0  2  0  0  3  0  0  0  0  0  0
  188.6310  175.6640  143.8620 C   0  0  0  0  0  0  0  0  0  0  0  0
  186.1250  177.8430  146.6340 C   0  0  1  0  0  3  0  0  0  0  0  0
  188.9770  175.6770  145.2430 C   0  0  0  0  0  0  0  0  0  0  0  0
  187.9700  175.5930  141.1290 C   0  0  0  0  0  3  0  0  0  0  0  0
  192.0060  174.9650  147.5540 C   0  0  0  0  0  2  0  0  0  0  0  0
  187.0790  176.1490  142.0500 C   0  0  0  0  0  3  0  0  0  0  0  0
  190.5370  175.1340  147.1580 C   0  0  0  0  0  2  0  0  0  0  0  0
  192.4220  173.9970  144.9260 C   0  0  1  0  0  3  0  0  0  0  0  0
  189.1920  175.0790  141.5600 C   0  0  0  0  0  3  0  0  0  0  0  0
  190.7460  174.5880  143.3670 C   0  0  0  0  0  0  0  0  0  0  0  0
  194.6220  174.3640  145.8090 O   0  0  0  0  0  0  0  0  0  0  0  0
  195.6350  175.1340  145.2310 C   0  0  0  0  0  2  0  0  0  0  0  0
  197.0050  171.9930  145.6030 C   0  0  0  0  0  2  0  0  0  0  0  0
  196.7870  173.3920  143.8840 C   0  0  0  0  0  2  0  0  0  0  0  0
  196.8980  174.3050  145.0870 C   0  0  2  0  0  3  0  0  0  0  0  0
  196.4370  172.1070  144.3270 O   0  0  0  0  0  0  0  0  0  0  0  0
  197.0010  173.3600  146.2460 C   0  0  0  0  0  2  0  0  0  0  0  0
  1 27  2  0  0  0  0
  1 18  1  0  0  0  0
  2 27  1  0  0  0  0
  2 14  2  0  0  0  0
  3 16  1  1  0  0  0
  3 19  1  0  0  0  0
  3  7  1  0  0  0  0
  4 18  1  0  0  0  0
  4 15  1  0  0  0  0
  5 11  1  1  0  0  0
  5 19  1  0  0  0  0
  7  6  1  0  0  0  0
  8 16  1  0  0  0  0
  9 25  1  0  0  0  0
  9 13  2  0  0  0  0
 10 22  1  0  0  0  0
 12  8  1  0  0  0  0
 13 24  1  0  0  0  0
 15 12  1  6  0  0  0
 15  5  1  0  0  0  0
 17 28  1  1  0  0  0
 17 10  1  0  0  0  0
 18 20  2  0  0  0  0
 19  6  1  1  0  0  0
 20 13  1  0  0  0  0
 20 11  1  0  0  0  0
 21 26  2  0  0  0  0
 21 23  1  0  0  0  0
 23  4  2  0  0  0  0
 24 22  1  0  0  0  0
 25 14  1  6  0  0  0
 25 17  1  0  0  0  0
 26  1  1  0  0  0  0
 27  9  1  0  0  0  0
 29 28  1  0  0  0  0
 30 34  1  0  0  0  0
 31 33  1  0  0  0  0
 31 32  1  0  0  0  0
 32 29  1  1  0  0  0
 32 34  1  0  0  0  0
 33 30  1  0  0  0  0
M  END
>  <MODEL>
1

>  <REMARK>
 VINA RESULT:      -9.5      0.000      0.000
  Name = 
  3 active torsions:
  status: ('A' for Active; 'I' for Inactive)
    1  A    between atoms: C_17  and  O_28
    2  A    between atoms: O_28  and  C_29
    3  A    between atoms: C_29  and  C_32
                            x       y       z     vdW  Elec       q    Type
                         _______ _______ _______ _____ _____    ______ ____

>  <TORSDO>
F 3

$$$$
=
 OpenBabel11112417563D

 34 41  0  0  1  0  0  0  0  0999 V2000
  189.4470  175.1390  142.8610 C   0  0  0  0  0  0  0  0  0  0  0  0
  191.6990  173.9920  142.3900 C   0  0  0  0  0  3  0  0  0  0  0  0
  185.7360  179.1910  146.2100 C   0  0  2  0  0  3  0  0  0  0  0  0
  187.3400  176.2440  143.4340 C   0  0  0  0  0  0  0  0  0  0  0  0
  187.1640  177.3290  145.6890 C   0  0  1  0  0  3  0  0  0  0  0  0
  186.6400  178.4940  147.9980 C   0  0  0  0  0  2  0  0  0  0  0  0
  185.9030  179.7700  147.5950 C   0  0  0  0  0  2  0  0  0  0  0  0
  184.2390  177.9200  144.7520 O   0  0  0  0  0  0  0  0  0  0  0  0
  191.0530  174.6140  144.5850 C   0  0  0  0  0  0  0  0  0  0  0  0
  192.9600  175.7890  146.5220 C   0  0  0  0  0  2  0  0  0  0  0  0
  188.0210  176.2090  146.2600 C   0  0  0  0  0  2  0  0  0  0  0  0
  185.3610  177.8090  143.8940 C   0  0  0  0  0  2  0  0  0  0  0  0
  190.2170  175.1400  145.5920 C   0  0  0  0  0  0  0  0  0  0  0  0
  192.7900  173.5270  143.3590 C   0  0  0  0  0  3  0  0  0  0  0  0
  186.3800  176.7880  144.4680 C   0  0  1  0  0  3  0  0  0  0  0  0
  184.3560  179.0800  145.5670 C   0  0  0  0  0  2  0  0  0  0  0  0
  193.4300  175.0110  145.2850 C   0  0  2  0  0  3  0  0  0  0  0  0
  188.5790  175.6870  143.8380 C   0  0  0  0  0  0  0  0  0  0  0  0
  186.1680  177.8420  146.7110 C   0  0  1  0  0  3  0  0  0  0  0  0
  188.9690  175.6840  145.2070 C   0  0  0  0  0  0  0  0  0  0  0  0
  187.8320  175.6460  141.1270 C   0  0  0  0  0  3  0  0  0  0  0  0
  192.0670  174.9390  147.4150 C   0  0  0  0  0  2  0  0  0  0  0  0
  186.9730  176.1940  142.0810 C   0  0  0  0  0  3  0  0  0  0  0  0
  190.5860  175.1160  147.0660 C   0  0  0  0  0  2  0  0  0  0  0  0
  192.3970  173.9980  144.7650 C   0  0  1  0  0  3  0  0  0  0  0  0
  189.0660  175.1250  141.5140 C   0  0  0  0  0  3  0  0  0  0  0  0
  190.6750  174.6100  143.2660 C   0  0  0  0  0  0  0  0  0  0  0  0
  194.6250  174.3500  145.5810 O   0  0  0  0  0  0  0  0  0  0  0  0
  195.6290  175.2760  145.2870 C   0  0  0  0  0  2  0  0  0  0  0  0
  197.8540  175.9680  142.7470 C   0  0  0  0  0  2  0  0  0  0  0  0
  196.5820  174.2120  143.2540 C   0  0  0  0  0  2  0  0  0  0  0  0
  195.8000  175.3950  143.7840 C   0  0  2  0  0  3  0  0  0  0  0  0
  197.9160  174.6040  143.0630 O   0  0  0  0  0  0  0  0  0  0  0  0
  196.6780  176.5710  143.4800 C   0  0  0  0  0  2  0  0  0  0  0  0
  1 27  2  0  0  0  0
  1 18  1  0  0  0  0
  2 27  1  0  0  0  0
  2 14  2  0  0  0  0
  3 16  1  1  0  0  0
  3 19  1  0  0  0  0
  3  7  1  0  0  0  0
  4 18  1  0  0  0  0
  4 15  1  0  0  0  0
  5 11  1  1  0  0  0
  5 19  1  0  0  0  0
  7  6  1  0  0  0  0
  8 16  1  0  0  0  0
  9 25  1  0  0  0  0
  9 13  2  0  0  0  0
 10 22  1  0  0  0  0
 12  8  1  0  0  0  0
 13 24  1  0  0  0  0
 15 12  1  6  0  0  0
 15  5  1  0  0  0  0
 17 28  1  1  0  0  0
 17 10  1  0  0  0  0
 18 20  2  0  0  0  0
 19  6  1  1  0  0  0
 20 13  1  0  0  0  0
 20 11  1  0  0  0  0
 21 26  2  0  0  0  0
 21 23  1  0  0  0  0
 23  4  2  0  0  0  0
 24 22  1  0  0  0  0
 25 14  1  6  0  0  0
 25 17  1  0  0  0  0
 26  1  1  0  0  0  0
 27  9  1  0  0  0  0
 29 28  1  0  0  0  0
 30 33  1  0  0  0  0
 30 34  1  0  0  0  0
 31 32  1  0  0  0  0
 32 29  1  1  0  0  0
 33 31  1  0  0  0  0
 34 32  1  0  0  0  0
M  END
>  <MODEL>
2

>  <REMARK>
 VINA RESULT:      -9.4      0.958      1.311
  Name = 
  3 active torsions:
  status: ('A' for Active; 'I' for Inactive)
    1  A    between atoms: C_17  and  O_28
    2  A    between atoms: O_28  and  C_29
    3  A    between atoms: C_29  and  C_32
                            x       y       z     vdW  Elec       q    Type
                         _______ _______ _______ _____ _____    ______ ____

>  <TORSDO>
F 3

$$$$
=
 OpenBabel11112417563D

 34 41  0  0  1  0  0  0  0  0999 V2000
  188.7140  176.4440  146.5210 C   0  0  0  0  0  0  0  0  0  0  0  0
  190.7500  175.4890  147.7660 C   0  0  0  0  0  3  0  0  0  0  0  0
  185.3330  177.4960  141.1470 C   0  0  2  0  0  3  0  0  0  0  0  0
  186.8510  177.3630  145.2270 C   0  0  0  0  0  0  0  0  0  0  0  0
  187.1320  177.5480  142.7410 C   0  0  1  0  0  3  0  0  0  0  0  0
  187.1420  177.9370  140.1310 C   0  0  0  0  0  2  0  0  0  0  0  0
  185.7520  177.4780  139.6960 C   0  0  0  0  0  2  0  0  0  0  0  0
  184.2900  178.8440  142.9010 O   0  0  0  0  0  0  0  0  0  0  0  0
  190.9120  176.2740  145.5350 C   0  0  0  0  0  0  0  0  0  0  0  0
  192.5120  174.8690  143.4770 C   0  0  0  0  0  2  0  0  0  0  0  0
  188.6000  177.8810  142.9630 C   0  0  0  0  0  2  0  0  0  0  0  0
  184.7860  177.8590  143.7900 C   0  0  0  0  0  2  0  0  0  0  0  0
  190.4660  176.8470  144.3250 C   0  0  0  0  0  0  0  0  0  0  0  0
  192.2110  175.3750  147.3250 C   0  0  0  0  0  3  0  0  0  0  0  0
  186.3190  178.0180  143.9720 C   0  0  1  0  0  3  0  0  0  0  0  0
  184.1120  178.2920  141.6030 C   0  0  0  0  0  2  0  0  0  0  0  0
  192.7260  174.6320  144.9780 C   0  0  2  0  0  3  0  0  0  0  0  0
  188.2220  177.0150  145.3200 C   0  0  0  0  0  0  0  0  0  0  0  0
  186.5850  178.2430  141.5090 C   0  0  1  0  0  3  0  0  0  0  0  0
  189.1050  177.2160  144.2220 C   0  0  0  0  0  0  0  0  0  0  0  0
  186.5160  176.6300  147.5230 C   0  0  0  0  0  3  0  0  0  0  0  0
  192.7100  176.3330  143.1060 C   0  0  0  0  0  2  0  0  0  0  0  0
  186.0200  177.1860  146.3430 C   0  0  0  0  0  3  0  0  0  0  0  0
  191.3920  177.1110  143.1490 C   0  0  0  0  0  2  0  0  0  0  0  0
  192.2910  175.8160  145.8580 C   0  0  1  0  0  3  0  0  0  0  0  0
  187.8560  176.2560  147.6110 C   0  0  0  0  0  3  0  0  0  0  0  0
  190.0620  176.0860  146.5970 C   0  0  0  0  0  0  0  0  0  0  0  0
  194.0730  174.3440  145.2130 O   0  0  0  0  0  0  0  0  0  0  0  0
  194.1880  172.9680  145.0030 C   0  0  0  0  0  2  0  0  0  0  0  0
  197.4680  174.0150  145.1490 C   0  0  0  0  0  2  0  0  0  0  0  0
  196.3830  172.2190  145.8950 C   0  0  0  0  0  2  0  0  0  0  0  0
  195.6210  172.6160  144.6480 C   0  0  2  0  0  3  0  0  0  0  0  0
  197.1490  173.3160  146.3210 O   0  0  0  0  0  0  0  0  0  0  0  0
  196.3270  173.8490  144.1720 C   0  0  0  0  0  2  0  0  0  0  0  0
  1 27  1  0  0  0  0
  1 26  2  0  0  0  0
  3  7  1  6  0  0  0
  3 19  1  0  0  0  0
  3 16  1  0  0  0  0
  4 18  2  0  0  0  0
  4 23  1  0  0  0  0
  5 11  1  1  0  0  0
  5 15  1  0  0  0  0
  7  6  1  0  0  0  0
  8 12  1  0  0  0  0
  9 25  1  0  0  0  0
  9 27  2  0  0  0  0
 10 17  1  0  0  0  0
 11 20  1  0  0  0  0
 13  9  1  0  0  0  0
 14  2  2  0  0  0  0
 15 12  1  6  0  0  0
 15  4  1  0  0  0  0
 16  8  1  0  0  0  0
 17 28  1  6  0  0  0
 17 25  1  0  0  0  0
 18  1  1  0  0  0  0
 19  6  1  6  0  0  0
 19  5  1  0  0  0  0
 20 13  2  0  0  0  0
 20 18  1  0  0  0  0
 21 26  1  0  0  0  0
 22 24  1  0  0  0  0
 22 10  1  0  0  0  0
 23 21  2  0  0  0  0
 24 13  1  0  0  0  0
 25 14  1  1  0  0  0
 27  2  1  0  0  0  0
 29 28  1  0  0  0  0
 30 33  1  0  0  0  0
 31 33  1  0  0  0  0
 32 29  1  1  0  0  0
 32 31  1  0  0  0  0
 34 32  1  0  0  0  0
 34 30  1  0  0  0  0
M  END
>  <MODEL>
3

>  <REMARK>
 VINA RESULT:      -9.0      1.675      3.914
  Name = 
  3 active torsions:
  status: ('A' for Active; 'I' for Inactive)
    1  A    between atoms: C_17  and  O_28
    2  A    between atoms: O_28  and  C_29
    3  A    between atoms: C_29  and  C_32
                            x       y       z     vdW  Elec       q    Type
                         _______ _______ _______ _____ _____    ______ ____

>  <TORSDO>
F 3

$$$$
=
 OpenBabel11112417563D

 34 41  0  0  1  0  0  0  0  0999 V2000
  191.4810  176.2420  145.7580 C   0  0  0  0  0  0  0  0  0  0  0  0
  189.0580  176.8130  146.4000 C   0  0  0  0  0  3  0  0  0  0  0  0
  196.2160  175.6560  141.4400 C   0  0  2  0  0  3  0  0  0  0  0  0
  193.7450  175.6690  145.0260 C   0  0  0  0  0  0  0  0  0  0  0  0
  194.1250  175.3080  142.5730 C   0  0  1  0  0  3  0  0  0  0  0  0
  194.8310  174.7980  140.0820 C   0  0  0  0  0  2  0  0  0  0  0  0
  196.1720  175.5140  139.9370 C   0  0  0  0  0  2  0  0  0  0  0  0
  197.0330  174.6420  143.5110 O   0  0  0  0  0  0  0  0  0  0  0  0
  189.6030  175.9020  144.2800 C   0  0  0  0  0  0  0  0  0  0  0  0
  188.3200  176.8390  141.7810 C   0  0  0  0  0  2  0  0  0  0  0  0
  192.7380  174.6880  142.4820 C   0  0  0  0  0  2  0  0  0  0  0  0
  196.1550  175.5450  144.1600 C   0  0  0  0  0  2  0  0  0  0  0  0
  190.4330  175.3760  143.2680 C   0  0  0  0  0  0  0  0  0  0  0  0
  187.7560  176.5980  145.6250 C   0  0  0  0  0  3  0  0  0  0  0  0
  194.6840  175.0780  143.9980 C   0  0  1  0  0  3  0  0  0  0  0  0
  197.4160  175.1550  142.2410 C   0  0  0  0  0  2  0  0  0  0  0  0
  187.7030  177.1010  143.1610 C   0  0  2  0  0  3  0  0  0  0  0  0
  192.3530  175.7280  144.7660 C   0  0  0  0  0  0  0  0  0  0  0  0
  195.0800  174.6820  141.5750 C   0  0  1  0  0  3  0  0  0  0  0  0
  191.8220  175.2940  143.5180 C   0  0  0  0  0  0  0  0  0  0  0  0
  193.3590  176.5680  147.2540 C   0  0  0  0  0  3  0  0  0  0  0  0
  188.5020  175.3500  141.5190 C   0  0  0  0  0  2  0  0  0  0  0  0
  194.2270  176.0700  146.2810 C   0  0  0  0  0  3  0  0  0  0  0  0
  189.8920  174.8670  141.9410 C   0  0  0  0  0  2  0  0  0  0  0  0
  188.1250  176.0780  144.2300 C   0  0  1  0  0  3  0  0  0  0  0  0
  191.9930  176.6580  146.9930 C   0  0  0  0  0  3  0  0  0  0  0  0
  190.1130  176.3150  145.4860 C   0  0  0  0  0  0  0  0  0  0  0  0
  186.3100  177.1130  143.0500 O   0  0  0  0  0  0  0  0  0  0  0  0
  186.0050  178.3600  142.4980 C   0  0  0  0  0  2  0  0  0  0  0  0
  184.7310  178.7310  145.6780 C   0  0  0  0  0  2  0  0  0  0  0  0
  185.5920  180.1380  144.1820 C   0  0  0  0  0  2  0  0  0  0  0  0
  184.9520  179.0550  143.3400 C   0  0  2  0  0  3  0  0  0  0  0  0
  185.7750  179.6460  145.4840 O   0  0  0  0  0  0  0  0  0  0  0  0
  184.4110  178.0880  144.3490 C   0  0  0  0  0  2  0  0  0  0  0  0
  1 26  2  0  0  0  0
  3  7  1  6  0  0  0
  3 19  1  0  0  0  0
  3 16  1  0  0  0  0
  4 23  1  0  0  0  0
  5 11  1  1  0  0  0
  5 15  1  0  0  0  0
  7  6  1  0  0  0  0
  8 12  1  0  0  0  0
  9 27  2  0  0  0  0
 10 17  1  0  0  0  0
 11 20  1  0  0  0  0
 13 20  2  0  0  0  0
 13  9  1  0  0  0  0
 14  2  2  0  0  0  0
 15 12  1  6  0  0  0
 15  4  1  0  0  0  0
 16  8  1  0  0  0  0
 17 28  1  6  0  0  0
 17 25  1  0  0  0  0
 18  4  2  0  0  0  0
 18  1  1  0  0  0  0
 19  6  1  6  0  0  0
 19  5  1  0  0  0  0
 20 18  1  0  0  0  0
 22 10  1  0  0  0  0
 22 24  1  0  0  0  0
 23 21  2  0  0  0  0
 24 13  1  0  0  0  0
 25  9  1  0  0  0  0
 25 14  1  1  0  0  0
 26 21  1  0  0  0  0
 27  1  1  0  0  0  0
 27  2  1  0  0  0  0
 29 28  1  0  0  0  0
 31 33  1  0  0  0  0
 32 29  1  6  0  0  0
 32 31  1  0  0  0  0
 32 34  1  0  0  0  0
 33 30  1  0  0  0  0
 34 30  1  0  0  0  0
M  END
>  <MODEL>
4

>  <REMARK>
 VINA RESULT:      -8.6      1.945      9.193
  Name = 
  3 active torsions:
  status: ('A' for Active; 'I' for Inactive)
    1  A    between atoms: C_17  and  O_28
    2  A    between atoms: O_28  and  C_29
    3  A    between atoms: C_29  and  C_32
                            x       y       z     vdW  Elec       q    Type
                         _______ _______ _______ _____ _____    ______ ____

>  <TORSDO>
F 3

$$$$
=
 OpenBabel11112417563D

 34 41  0  0  1  0  0  0  0  0999 V2000
  192.0390  176.1850  145.7350 C   0  0  0  0  0  0  0  0  0  0  0  0
  189.8350  176.6580  146.9710 C   0  0  0  0  0  3  0  0  0  0  0  0
  195.4900  175.5300  140.3430 C   0  0  2  0  0  3  0  0  0  0  0  0
  194.0660  175.6910  144.4560 C   0  0  0  0  0  0  0  0  0  0  0  0
  193.8090  175.1510  142.0190 C   0  0  1  0  0  3  0  0  0  0  0  0
  193.8680  174.4800  139.4680 C   0  0  0  0  0  2  0  0  0  0  0  0
  195.0600  175.2620  138.9200 C   0  0  0  0  0  2  0  0  0  0  0  0
  196.9060  174.7430  142.1760 O   0  0  0  0  0  0  0  0  0  0  0  0
  189.8690  175.6090  144.8450 C   0  0  0  0  0  0  0  0  0  0  0  0
  187.8980  176.2560  142.7310 C   0  0  0  0  0  2  0  0  0  0  0  0
  192.5030  174.4430  142.3460 C   0  0  0  0  0  2  0  0  0  0  0  0
  196.1620  175.6420  142.9790 C   0  0  0  0  0  2  0  0  0  0  0  0
  190.4400  175.0530  143.6810 C   0  0  0  0  0  0  0  0  0  0  0  0
  188.3950  176.3010  146.5920 C   0  0  0  0  0  3  0  0  0  0  0  0
  194.7430  175.0750  143.2520 C   0  0  1  0  0  3  0  0  0  0  0  0
  196.8960  175.1720  140.8200 C   0  0  0  0  0  2  0  0  0  0  0  0
  187.6500  176.5930  144.2080 C   0  0  2  0  0  3  0  0  0  0  0  0
  192.6540  175.6430  144.5780 C   0  0  0  0  0  0  0  0  0  0  0  0
  194.5120  174.5040  140.8420 C   0  0  1  0  0  3  0  0  0  0  0  0
  191.8490  175.0760  143.5510 C   0  0  0  0  0  0  0  0  0  0  0  0
  194.2130  176.7470  146.6430 C   0  0  0  0  0  3  0  0  0  0  0  0
  188.1240  174.7640  142.5260 C   0  0  0  0  0  2  0  0  0  0  0  0
  194.8290  176.2230  145.5050 C   0  0  0  0  0  3  0  0  0  0  0  0
  189.6110  174.4040  142.5860 C   0  0  0  0  0  2  0  0  0  0  0  0
  188.4220  175.6900  145.1850 C   0  0  1  0  0  3  0  0  0  0  0  0
  192.8240  176.7320  146.7560 C   0  0  0  0  0  3  0  0  0  0  0  0
  190.6460  176.1510  145.8390 C   0  0  0  0  0  0  0  0  0  0  0  0
  186.2810  176.5110  144.4770 O   0  0  0  0  0  0  0  0  0  0  0  0
  185.7570  177.7320  144.0450 C   0  0  0  0  0  2  0  0  0  0  0  0
  185.2210  178.2430  147.4110 C   0  0  0  0  0  2  0  0  0  0  0  0
  185.3050  179.5860  145.6370 C   0  0  0  0  0  2  0  0  0  0  0  0
  184.7900  178.2760  145.0800 C   0  0  2  0  0  3  0  0  0  0  0  0
  185.9130  179.3380  146.8780 O   0  0  0  0  0  0  0  0  0  0  0  0
  184.7750  177.3620  146.2680 C   0  0  0  0  0  2  0  0  0  0  0  0
  1 27  1  0  0  0  0
  1 26  2  0  0  0  0
  3  7  1  6  0  0  0
  3 16  1  0  0  0  0
  3 19  1  0  0  0  0
  4 18  2  0  0  0  0
  4 23  1  0  0  0  0
  5 11  1  1  0  0  0
  5 15  1  0  0  0  0
  7  6  1  0  0  0  0
  8 12  1  0  0  0  0
  9 25  1  0  0  0  0
  9 27  2  0  0  0  0
 10 17  1  0  0  0  0
 11 20  1  0  0  0  0
 13  9  1  0  0  0  0
 14  2  2  0  0  0  0
 15 12  1  6  0  0  0
 15  4  1  0  0  0  0
 16  8  1  0  0  0  0
 17 28  1  1  0  0  0
 17 25  1  0  0  0  0
 18  1  1  0  0  0  0
 19  6  1  6  0  0  0
 19  5  1  0  0  0  0
 20 13  2  0  0  0  0
 20 18  1  0  0  0  0
 21 26  1  0  0  0  0
 22 24  1  0  0  0  0
 22 10  1  0  0  0  0
 23 21  2  0  0  0  0
 24 13  1  0  0  0  0
 25 14  1  1  0  0  0
 27  2  1  0  0  0  0
 29 28  1  0  0  0  0
 31 33  1  0  0  0  0
 32 29  1  6  0  0  0
 32 31  1  0  0  0  0
 32 34  1  0  0  0  0
 33 30  1  0  0  0  0
 34 30  1  0  0  0  0
M  END
>  <MODEL>
5

>  <REMARK>
 VINA RESULT:      -8.6      2.127      9.066
  Name = 
  3 active torsions:
  status: ('A' for Active; 'I' for Inactive)
    1  A    between atoms: C_17  and  O_28
    2  A    between atoms: O_28  and  C_29
    3  A    between atoms: C_29  and  C_32
                            x       y       z     vdW  Elec       q    Type
                         _______ _______ _______ _____ _____    ______ ____

>  <TORSDO>
F 3

$$$$
=
 OpenBabel11112417563D

 34 41  0  0  1  0  0  0  0  0999 V2000
  188.7870  176.4440  146.4980 C   0  0  0  0  0  0  0  0  0  0  0  0
  190.8790  175.4870  147.6460 C   0  0  0  0  0  3  0  0  0  0  0  0
  185.1780  177.5390  141.2840 C   0  0  2  0  0  3  0  0  0  0  0  0
  186.8660  177.3670  145.2950 C   0  0  0  0  0  0  0  0  0  0  0  0
  187.0410  177.5840  142.8020 C   0  0  1  0  0  3  0  0  0  0  0  0
  186.9410  178.0040  140.1990 C   0  0  0  0  0  2  0  0  0  0  0  0
  185.5360  177.5420  139.8160 C   0  0  0  0  0  2  0  0  0  0  0  0
  184.2010  178.8590  143.0960 O   0  0  0  0  0  0  0  0  0  0  0  0
  190.9430  176.3010  145.4200 C   0  0  0  0  0  0  0  0  0  0  0  0
  192.4640  174.9320  143.2800 C   0  0  0  0  0  2  0  0  0  0  0  0
  188.5150  177.9230  142.9670 C   0  0  0  0  0  2  0  0  0  0  0  0
  184.7400  177.8660  143.9520 C   0  0  0  0  0  2  0  0  0  0  0  0
  190.4430  176.8850  144.2370 C   0  0  0  0  0  0  0  0  0  0  0  0
  192.3210  175.3880  147.1430 C   0  0  0  0  0  3  0  0  0  0  0  0
  186.2780  178.0330  144.0720 C   0  0  1  0  0  3  0  0  0  0  0  0
  183.9730  178.3210  141.8000 C   0  0  0  0  0  2  0  0  0  0  0  0
  192.7420  174.6770  144.7670 C   0  0  2  0  0  3  0  0  0  0  0  0
  188.2420  177.0270  145.3270 C   0  0  0  0  0  0  0  0  0  0  0  0
  186.4400  178.2900  141.6030 C   0  0  1  0  0  3  0  0  0  0  0  0
  189.0770  177.2470  144.1950 C   0  0  0  0  0  0  0  0  0  0  0  0
  186.6320  176.6030  147.5940 C   0  0  0  0  0  3  0  0  0  0  0  0
  192.6380  176.4010  142.9190 C   0  0  0  0  0  2  0  0  0  0  0  0
  186.0830  177.1710  146.4420 C   0  0  0  0  0  3  0  0  0  0  0  0
  191.3180  177.1700  143.0260 C   0  0  0  0  0  2  0  0  0  0  0  0
  192.3370  175.8480  145.6800 C   0  0  1  0  0  3  0  0  0  0  0  0
  187.9770  176.2370  147.6210 C   0  0  0  0  0  3  0  0  0  0  0  0
  190.1390  176.0940  146.5140 C   0  0  0  0  0  0  0  0  0  0  0  0
  194.0990  174.3960  144.9430 O   0  0  0  0  0  0  0  0  0  0  0  0
  194.7230  175.6450  144.9830 C   0  0  0  0  0  2  0  0  0  0  0  0
  196.4490  175.1150  142.0470 C   0  0  0  0  0  2  0  0  0  0  0  0
  196.3660  176.7900  143.5120 C   0  0  0  0  0  2  0  0  0  0  0  0
  196.0990  175.5580  144.3500 C   0  0  2  0  0  3  0  0  0  0  0  0
  196.1330  176.4750  142.1640 O   0  0  0  0  0  0  0  0  0  0  0  0
  196.1140  174.4370  143.3550 C   0  0  0  0  0  2  0  0  0  0  0  0
  1 27  1  0  0  0  0
  1 26  2  0  0  0  0
  3  7  1  6  0  0  0
  3 19  1  0  0  0  0
  3 16  1  0  0  0  0
  4 18  2  0  0  0  0
  4 23  1  0  0  0  0
  5 11  1  1  0  0  0
  5 15  1  0  0  0  0
  7  6  1  0  0  0  0
  8 12  1  0  0  0  0
  9 25  1  0  0  0  0
  9 27  2  0  0  0  0
 10 17  1  0  0  0  0
 11 20  1  0  0  0  0
 13  9  1  0  0  0  0
 14  2  2  0  0  0  0
 15 12  1  6  0  0  0
 15  4  1  0  0  0  0
 16  8  1  0  0  0  0
 17 28  1  6  0  0  0
 17 25  1  0  0  0  0
 18  1  1  0  0  0  0
 19  6  1  6  0  0  0
 19  5  1  0  0  0  0
 20 13  2  0  0  0  0
 20 18  1  0  0  0  0
 21 26  1  0  0  0  0
 22 24  1  0  0  0  0
 22 10  1  0  0  0  0
 23 21  2  0  0  0  0
 24 13  1  0  0  0  0
 25 14  1  1  0  0  0
 27  2  1  0  0  0  0
 28 29  1  0  0  0  0
 30 33  1  0  0  0  0
 30 34  1  0  0  0  0
 31 32  1  0  0  0  0
 32 29  1  6  0  0  0
 33 31  1  0  0  0  0
 34 32  1  0  0  0  0
M  END
>  <MODEL>
6

>  <REMARK>
 VINA RESULT:      -8.5      1.879      4.041
  Name = 
  3 active torsions:
  status: ('A' for Active; 'I' for Inactive)
    1  A    between atoms: C_17  and  O_28
    2  A    between atoms: O_28  and  C_29
    3  A    between atoms: C_29  and  C_32
                            x       y       z     vdW  Elec       q    Type
                         _______ _______ _______ _____ _____    ______ ____

>  <TORSDO>
F 3

$$$$
=
 OpenBabel11112417563D

 34 41  0  0  1  0  0  0  0  0999 V2000
  189.5720  174.9050  142.1240 C   0  0  0  0  0  0  0  0  0  0  0  0
  187.0850  175.4700  142.4490 C   0  0  0  0  0  3  0  0  0  0  0  0
  195.4540  173.6660  144.4200 C   0  0  2  0  0  3  0  0  0  0  0  0
  191.9640  174.4260  141.9290 C   0  0  0  0  0  0  0  0  0  0  0  0
  193.4060  174.8280  143.9420 C   0  0  1  0  0  3  0  0  0  0  0  0
  195.1900  175.2130  145.8470 C   0  0  0  0  0  2  0  0  0  0  0  0
  196.0770  173.9720  145.7620 C   0  0  0  0  0  2  0  0  0  0  0  0
  195.6960  173.9500  142.0030 O   0  0  0  0  0  0  0  0  0  0  0  0
  188.7450  176.2420  143.9560 C   0  0  0  0  0  0  0  0  0  0  0  0
  188.3200  176.2880  146.8870 C   0  0  0  0  0  2  0  0  0  0  0  0
  192.5380  176.0310  144.2830 C   0  0  0  0  0  2  0  0  0  0  0  0
  194.3550  173.4990  141.9340 C   0  0  0  0  0  2  0  0  0  0  0  0
  190.0450  176.4230  144.4740 C   0  0  0  0  0  0  0  0  0  0  0  0
  186.4040  176.3520  143.4990 C   0  0  0  0  0  3  0  0  0  0  0  0
  193.3860  174.6150  142.4090 C   0  0  1  0  0  3  0  0  0  0  0  0
  196.3220  173.4570  143.1810 C   0  0  0  0  0  2  0  0  0  0  0  0
  187.1520  176.2010  145.8950 C   0  0  2  0  0  3  0  0  0  0  0  0
  190.8930  175.0540  142.6140 C   0  0  0  0  0  0  0  0  0  0  0  0
  194.8420  175.0370  144.3800 C   0  0  1  0  0  3  0  0  0  0  0  0
  191.1260  175.8180  143.7920 C   0  0  0  0  0  0  0  0  0  0  0  0
  190.3970  173.5790  140.2710 C   0  0  0  0  0  3  0  0  0  0  0  0
  189.1600  177.5380  146.6560 C   0  0  0  0  0  2  0  0  0  0  0  0
  191.7010  173.7140  140.7490 C   0  0  0  0  0  3  0  0  0  0  0  0
  190.3300  177.2650  145.7070 C   0  0  0  0  0  2  0  0  0  0  0  0
  187.4730  176.7850  144.5090 C   0  0  1  0  0  3  0  0  0  0  0  0
  189.3360  174.1680  140.9570 C   0  0  0  0  0  3  0  0  0  0  0  0
  188.5210  175.5110  142.8160 C   0  0  0  0  0  0  0  0  0  0  0  0
  186.0390  176.8540  146.4320 O   0  0  0  0  0  0  0  0  0  0  0  0
  186.4760  178.1570  146.6840 C   0  0  0  0  0  2  0  0  0  0  0  0
  184.4570  179.4230  144.1940 C   0  0  0  0  0  2  0  0  0  0  0  0
  184.0650  178.4100  146.1390 C   0  0  0  0  0  2  0  0  0  0  0  0
  185.3700  179.1450  146.3650 C   0  0  2  0  0  3  0  0  0  0  0  0
  183.8510  178.2910  144.7570 O   0  0  0  0  0  0  0  0  0  0  0  0
  185.6520  179.7900  145.0420 C   0  0  0  0  0  2  0  0  0  0  0  0
  1 18  2  0  0  0  0
  1 27  1  0  0  0  0
  2 27  1  0  0  0  0
  2 14  2  0  0  0  0
  3 16  1  6  0  0  0
  3  7  1  0  0  0  0
  4 15  1  0  0  0  0
  4 18  1  0  0  0  0
  5 11  1  6  0  0  0
  5 19  1  0  0  0  0
  7  6  1  0  0  0  0
  8 16  1  0  0  0  0
  9 13  1  0  0  0  0
  9 25  1  0  0  0  0
 12  8  1  0  0  0  0
 13 24  1  0  0  0  0
 15 12  1  1  0  0  0
 15  5  1  0  0  0  0
 17 28  1  1  0  0  0
 17 10  1  0  0  0  0
 18 20  1  0  0  0  0
 19  3  1  0  0  0  0
 19  6  1  1  0  0  0
 20 11  1  0  0  0  0
 20 13  2  0  0  0  0
 21 23  1  0  0  0  0
 21 26  2  0  0  0  0
 22 10  1  0  0  0  0
 23  4  2  0  0  0  0
 24 22  1  0  0  0  0
 25 14  1  6  0  0  0
 25 17  1  0  0  0  0
 26  1  1  0  0  0  0
 27  9  2  0  0  0  0
 28 29  1  0  0  0  0
 30 33  1  0  0  0  0
 30 34  1  0  0  0  0
 31 32  1  0  0  0  0
 32 29  1  6  0  0  0
 33 31  1  0  0  0  0
 34 32  1  0  0  0  0
M  END
>  <MODEL>
7

>  <REMARK>
 VINA RESULT:      -8.3      1.634      8.425
  Name = 
  3 active torsions:
  status: ('A' for Active; 'I' for Inactive)
    1  A    between atoms: C_17  and  O_28
    2  A    between atoms: O_28  and  C_29
    3  A    between atoms: C_29  and  C_32
                            x       y       z     vdW  Elec       q    Type
                         _______ _______ _______ _____ _____    ______ ____

>  <TORSDO>
F 3

$$$$
=
 OpenBabel11112417563D

 34 41  0  0  1  0  0  0  0  0999 V2000
  190.4360  172.8480  142.4060 C   0  0  0  0  0  0  0  0  0  0  0  0
  188.1560  173.9640  142.0000 C   0  0  0  0  0  3  0  0  0  0  0  0
  196.0800  172.4290  145.4680 C   0  0  2  0  0  3  0  0  0  0  0  0
  192.6520  171.9020  142.8340 C   0  0  0  0  0  0  0  0  0  0  0  0
  194.2930  173.3000  144.1180 C   0  0  1  0  0  3  0  0  0  0  0  0
  196.2550  174.5410  145.3710 C   0  0  0  0  0  2  0  0  0  0  0  0
  196.8520  173.4550  146.2650 C   0  0  0  0  0  2  0  0  0  0  0  0
  196.1960  170.8770  143.5820 O   0  0  0  0  0  0  0  0  0  0  0  0
  190.0490  175.2140  142.6880 C   0  0  0  0  0  0  0  0  0  0  0  0
  189.8640  177.3900  144.6890 C   0  0  0  0  0  2  0  0  0  0  0  0
  193.7260  174.5360  143.4340 C   0  0  0  0  0  2  0  0  0  0  0  0
  194.7880  170.7910  143.7190 C   0  0  0  0  0  2  0  0  0  0  0  0
  191.3930  175.4400  143.0540 C   0  0  0  0  0  0  0  0  0  0  0  0
  187.7560  175.4400  142.0600 C   0  0  0  0  0  3  0  0  0  0  0  0
  194.1140  172.0810  143.1800 C   0  0  1  0  0  3  0  0  0  0  0  0
  196.7890  171.2410  144.8210 C   0  0  0  0  0  2  0  0  0  0  0  0
  188.6320  176.8690  143.9350 C   0  0  2  0  0  3  0  0  0  0  0  0
  191.7930  173.0280  142.7760 C   0  0  0  0  0  0  0  0  0  0  0  0
  195.7700  173.4610  144.4220 C   0  0  1  0  0  3  0  0  0  0  0  0
  192.2680  174.3300  143.0990 C   0  0  0  0  0  0  0  0  0  0  0  0
  190.8220  170.4760  142.1020 C   0  0  0  0  0  3  0  0  0  0  0  0
  190.9280  177.9110  143.7330 C   0  0  0  0  0  2  0  0  0  0  0  0
  192.1580  170.6400  142.4720 C   0  0  0  0  0  3  0  0  0  0  0  0
  191.9410  176.8230  143.3660 C   0  0  0  0  0  2  0  0  0  0  0  0
  188.9660  176.2300  142.5770 C   0  0  1  0  0  3  0  0  0  0  0  0
  189.9640  171.5730  142.0720 C   0  0  0  0  0  3  0  0  0  0  0  0
  189.5920  173.9600  142.3700 C   0  0  0  0  0  0  0  0  0  0  0  0
  187.7260  177.9160  143.7500 O   0  0  0  0  0  0  0  0  0  0  0  0
  187.1680  178.1340  145.0130 C   0  0  0  0  0  2  0  0  0  0  0  0
  184.0660  178.2340  146.5130 C   0  0  0  0  0  2  0  0  0  0  0  0
  184.7660  178.3110  144.4000 C   0  0  0  0  0  2  0  0  0  0  0  0
  185.8090  177.4650  145.1000 C   0  0  2  0  0  3  0  0  0  0  0  0
  184.0570  179.0410  145.3670 O   0  0  0  0  0  0  0  0  0  0  0  0
  185.3580  177.4510  146.5300 C   0  0  0  0  0  2  0  0  0  0  0  0
  1 18  1  0  0  0  0
  2 14  2  0  0  0  0
  2 27  1  0  0  0  0
  3 16  1  6  0  0  0
  3  7  1  0  0  0  0
  4 15  1  0  0  0  0
  5 11  1  6  0  0  0
  5 19  1  0  0  0  0
  6  7  1  0  0  0  0
  8 12  1  0  0  0  0
  8 16  1  0  0  0  0
  9 13  2  0  0  0  0
 13 20  1  0  0  0  0
 13 24  1  0  0  0  0
 15 12  1  1  0  0  0
 15  5  1  0  0  0  0
 17 28  1  6  0  0  0
 17 10  1  0  0  0  0
 18  4  1  0  0  0  0
 18 20  2  0  0  0  0
 19  6  1  1  0  0  0
 19  3  1  0  0  0  0
 20 11  1  0  0  0  0
 21 23  1  0  0  0  0
 22 10  1  0  0  0  0
 23  4  2  0  0  0  0
 24 22  1  0  0  0  0
 25 14  1  1  0  0  0
 25  9  1  0  0  0  0
 25 17  1  0  0  0  0
 26 21  2  0  0  0  0
 26  1  1  0  0  0  0
 27  1  2  0  0  0  0
 27  9  1  0  0  0  0
 28 29  1  0  0  0  0
 30 34  1  0  0  0  0
 31 32  1  0  0  0  0
 31 33  1  0  0  0  0
 32 29  1  1  0  0  0
 32 34  1  0  0  0  0
 33 30  1  0  0  0  0
M  END
>  <MODEL>
8

>  <REMARK>
 VINA RESULT:      -8.2      1.944      8.856
  Name = 
  3 active torsions:
  status: ('A' for Active; 'I' for Inactive)
    1  A    between atoms: C_17  and  O_28
    2  A    between atoms: O_28  and  C_29
    3  A    between atoms: C_29  and  C_32
                            x       y       z     vdW  Elec       q    Type
                         _______ _______ _______ _____ _____    ______ ____

>  <TORSDO>
F 3

$$$$
=
 OpenBabel11112417563D

 34 41  0  0  1  0  0  0  0  0999 V2000
  189.5840  174.5590  145.0410 C   0  0  0  0  0  0  0  0  0  0  0  0
  191.1980  172.6100  144.5870 C   0  0  0  0  0  3  0  0  0  0  0  0
  184.4320  178.1200  143.5610 C   0  0  2  0  0  3  0  0  0  0  0  0
  188.0230  176.4190  145.3450 C   0  0  0  0  0  0  0  0  0  0  0  0
  186.5900  177.0750  143.3930 C   0  0  1  0  0  3  0  0  0  0  0  0
  185.0060  178.0460  141.5200 C   0  0  0  0  0  2  0  0  0  0  0  0
  183.6900  178.2910  142.2560 C   0  0  0  0  0  2  0  0  0  0  0  0
  185.6030  179.3020  145.3540 O   0  0  0  0  0  0  0  0  0  0  0  0
  190.1340  173.7830  142.8220 C   0  0  0  0  0  0  0  0  0  0  0  0
  189.0600  172.4060  140.4300 C   0  0  0  0  0  2  0  0  0  0  0  0
  187.7510  176.7390  142.4680 C   0  0  0  0  0  2  0  0  0  0  0  0
  186.0580  178.0170  145.7430 C   0  0  0  0  0  2  0  0  0  0  0  0
  189.3090  174.7590  142.2240 C   0  0  0  0  0  0  0  0  0  0  0  0
  191.7080  172.0420  143.2600 C   0  0  0  0  0  3  0  0  0  0  0  0
  187.1530  177.5130  144.7670 C   0  0  1  0  0  3  0  0  0  0  0  0
  184.3760  179.1950  144.6440 C   0  0  0  0  0  2  0  0  0  0  0  0
  190.0950  171.7480  141.3540 C   0  0  2  0  0  3  0  0  0  0  0  0
  188.7370  175.5490  144.4830 C   0  0  0  0  0  0  0  0  0  0  0  0
  185.7460  178.2040  142.8360 C   0  0  1  0  0  3  0  0  0  0  0  0
  188.6030  175.6470  143.0690 C   0  0  0  0  0  0  0  0  0  0  0  0
  189.0510  175.3440  147.2700 C   0  0  0  0  0  3  0  0  0  0  0  0
  189.5770  173.7170  139.8520 C   0  0  0  0  0  2  0  0  0  0  0  0
  188.2090  176.3190  146.7310 C   0  0  0  0  0  3  0  0  0  0  0  0
  189.1760  174.9140  140.7180 C   0  0  0  0  0  2  0  0  0  0  0  0
  190.9600  172.7570  142.1280 C   0  0  1  0  0  3  0  0  0  0  0  0
  189.7330  174.4650  146.4300 C   0  0  0  0  0  3  0  0  0  0  0  0
  190.2690  173.6930  144.1850 C   0  0  0  0  0  0  0  0  0  0  0  0
  190.9180  170.9070  140.6000 O   0  0  0  0  0  0  0  0  0  0  0  0
  190.1070  170.4520  139.5580 C   0  0  0  0  0  2  0  0  0  0  0  0
  190.3410  170.6980  136.1280 C   0  0  0  0  0  2  0  0  0  0  0  0
  191.6170  171.3830  137.8190 C   0  0  0  0  0  2  0  0  0  0  0  0
  190.9580  170.1260  138.3440 C   0  0  2  0  0  3  0  0  0  0  0  0
  190.8830  171.8480  136.7160 O   0  0  0  0  0  0  0  0  0  0  0  0
  190.0670  169.6900  137.2200 C   0  0  0  0  0  2  0  0  0  0  0  0
  1 26  2  0  0  0  0
  3  7  1  6  0  0  0
  3 16  1  0  0  0  0
  4 23  1  0  0  0  0
  5 11  1  6  0  0  0
  5 15  1  0  0  0  0
  6  7  1  0  0  0  0
  8 12  1  0  0  0  0
  9 27  2  0  0  0  0
 10 17  1  0  0  0  0
 11 20  1  0  0  0  0
 13  9  1  0  0  0  0
 13 20  2  0  0  0  0
 14  2  2  0  0  0  0
 15  4  1  0  0  0  0
 15 12  1  1  0  0  0
 16  8  1  0  0  0  0
 17 28  1  6  0  0  0
 17 25  1  0  0  0  0
 18  1  1  0  0  0  0
 18  4  2  0  0  0  0
 19  6  1  6  0  0  0
 19  5  1  0  0  0  0
 19  3  1  0  0  0  0
 20 18  1  0  0  0  0
 22 10  1  0  0  0  0
 22 24  1  0  0  0  0
 23 21  2  0  0  0  0
 24 13  1  0  0  0  0
 25  9  1  0  0  0  0
 25 14  1  1  0  0  0
 26 21  1  0  0  0  0
 27  2  1  0  0  0  0
 27  1  1  0  0  0  0
 29 28  1  0  0  0  0
 30 33  1  0  0  0  0
 30 34  1  0  0  0  0
 31 32  1  0  0  0  0
 32 29  1  1  0  0  0
 33 31  1  0  0  0  0
 34 32  1  0  0  0  0
M  END
>  <MODEL>
9

>  <REMARK>
 VINA RESULT:      -8.2      3.363      5.841
  Name = 
  3 active torsions:
  status: ('A' for Active; 'I' for Inactive)
    1  A    between atoms: C_17  and  O_28
    2  A    between atoms: O_28  and  C_29
    3  A    between atoms: C_29  and  C_32
                            x       y       z     vdW  Elec       q    Type
                         _______ _______ _______ _____ _____    ______ ____

>  <TORSDO>
F 3

$$$$
