=
 OpenBabel11112416583D

 31 35  0  0  0  0  0  0  0  0999 V2000
  184.9820  177.9940  146.7850 C   0  0  0  0  0  0  0  0  0  0  0  0
  186.8700  177.6670  143.5580 C   0  0  0  0  0  0  0  0  0  0  0  0
  185.9110  177.8540  142.5290 C   0  0  0  0  0  0  0  0  0  0  0  0
  191.4900  176.7990  145.9130 O   0  0  0  0  0  0  0  0  0  0  0  0
  191.6710  176.7740  144.6680 C   0  0  0  0  0  0  0  0  0  0  0  0
  183.6040  178.2820  141.8140 C   0  0  0  0  0  0  0  0  0  0  0  0
  186.5550  177.7180  144.9410 C   0  0  0  0  0  0  0  0  0  0  0  0
  186.0110  177.8000  147.7060 C   0  0  0  0  0  3  0  0  0  0  0  0
  184.5720  178.1490  142.8150 O   0  0  0  0  0  0  0  0  0  0  0  0
  189.2020  177.2320  144.1650 C   0  0  0  0  0  0  0  0  0  0  0  0
  183.6880  178.2290  147.2290 O   0  0  0  0  0  1  0  0  0  0  0  0
  187.6130  177.5450  140.8700 N   0  0  0  0  0  0  0  0  0  0  0  0
  182.4400  178.6510  142.1190 O   0  0  0  0  0  0  0  0  0  0  0  0
  188.8600  177.2880  145.4790 N   0  0  0  0  0  0  0  0  0  0  0  0
  188.2160  177.4190  143.1820 C   0  0  0  0  0  0  0  0  0  0  0  0
  190.5630  176.9830  143.7790 N   0  0  0  0  0  2  0  0  0  0  0  0
  185.2530  177.9530  145.4150 C   0  0  0  0  0  3  0  0  0  0  0  0
  183.9160  177.9190  140.3940 C   0  0  0  0  0  2  0  0  0  0  0  0
  187.5890  177.5210  145.8890 C   0  0  0  0  0  0  0  0  0  0  0  0
  187.3110  177.5640  147.2590 C   0  0  0  0  0  3  0  0  0  0  0  0
  188.5570  177.3690  141.8260 C   0  0  0  0  0  3  0  0  0  0  0  0
  186.3140  177.7720  141.1870 C   0  0  0  0  0  0  0  0  0  0  0  0
  185.3530  177.9610  140.1460 N   0  0  0  0  0  2  0  0  0  0  0  0
  195.5110  176.0350  142.8750 C   0  0  0  0  0  0  0  0  0  0  0  0
  193.1060  176.2070  142.7330 C   0  0  0  0  0  3  0  0  0  0  0  0
  194.2720  176.9890  146.5680 Cl  0  0  0  0  0  0  0  0  0  0  0  0
  196.7070  175.7980  142.2880 F   0  0  0  0  0  0  0  0  0  0  0  0
  194.3380  175.9620  142.1250 C   0  0  0  0  0  3  0  0  0  0  0  0
  194.2210  176.5990  144.8530 C   0  0  0  0  0  0  0  0  0  0  0  0
  193.0210  176.5270  144.0980 C   0  0  0  0  0  0  0  0  0  0  0  0
  195.4500  176.3520  144.2320 C   0  0  0  0  0  3  0  0  0  0  0  0
  1 11  1  0  0  0  0
  1  8  1  0  0  0  0
  2  7  1  0  0  0  0
  3  9  1  0  0  0  0
  3  2  2  0  0  0  0
  5  4  2  0  0  0  0
  6 13  2  0  0  0  0
  6  9  1  0  0  0  0
  7 17  1  0  0  0  0
  7 19  2  0  0  0  0
 10 14  2  0  0  0  0
 12 22  2  0  0  0  0
 12 21  1  0  0  0  0
 14 19  1  0  0  0  0
 15  2  1  0  0  0  0
 15 10  1  0  0  0  0
 16 10  1  0  0  0  0
 16  5  1  0  0  0  0
 17  1  2  0  0  0  0
 18  6  1  0  0  0  0
 19 20  1  0  0  0  0
 20  8  2  0  0  0  0
 21 15  2  0  0  0  0
 22  3  1  0  0  0  0
 23 18  1  0  0  0  0
 23 22  1  0  0  0  0
 24 31  1  0  0  0  0
 25 30  2  0  0  0  0
 27 24  1  0  0  0  0
 28 25  1  0  0  0  0
 28 24  2  0  0  0  0
 29 26  1  0  0  0  0
 30  5  1  0  0  0  0
 30 29  1  0  0  0  0
 31 29  2  0  0  0  0
M  END
>  <MODEL>
1

>  <REMARK>
 VINA RESULT:      -9.8      0.000      0.000
  Name = 
  1 active torsions:
  status: ('A' for Active; 'I' for Inactive)
    1  A    between atoms: C_5  and  C_30
                            x       y       z     vdW  Elec       q    Type
                         _______ _______ _______ _____ _____    ______ ____

>  <TORSDO>
F 1

$$$$
=
 OpenBabel11112416583D

 31 35  0  0  0  0  0  0  0  0999 V2000
  184.9860  177.9030  146.5230 C   0  0  0  0  0  0  0  0  0  0  0  0
  187.5030  176.9980  143.8900 C   0  0  0  0  0  0  0  0  0  0  0  0
  186.8840  177.2920  142.6470 C   0  0  0  0  0  0  0  0  0  0  0  0
  191.1310  175.4360  147.3600 O   0  0  0  0  0  0  0  0  0  0  0  0
  191.6030  175.2890  146.2030 C   0  0  0  0  0  0  0  0  0  0  0  0
  184.9580  178.0990  141.3610 C   0  0  0  0  0  0  0  0  0  0  0  0
  186.8750  177.2050  145.1460 C   0  0  0  0  0  0  0  0  0  0  0  0
  185.6960  177.5810  147.6800 C   0  0  0  0  0  3  0  0  0  0  0  0
  185.6030  177.8550  142.5770 O   0  0  0  0  0  0  0  0  0  0  0  0
  189.4770  176.1720  145.0800 C   0  0  0  0  0  0  0  0  0  0  0  0
  183.6970  178.4090  146.6180 O   0  0  0  0  0  1  0  0  0  0  0  0
  188.8430  176.5510  141.4820 N   0  0  0  0  0  0  0  0  0  0  0  0
  183.8540  178.7030  141.3510 O   0  0  0  0  0  0  0  0  0  0  0  0
  188.8410  176.3840  146.2610 N   0  0  0  0  0  0  0  0  0  0  0  0
  188.8220  176.4740  143.8740 C   0  0  0  0  0  0  0  0  0  0  0  0
  190.8120  175.6430  145.0570 N   0  0  0  0  0  2  0  0  0  0  0  0
  185.5710  177.7150  145.2680 C   0  0  0  0  0  3  0  0  0  0  0  0
  185.5290  177.5850  140.0740 C   0  0  0  0  0  2  0  0  0  0  0  0
  187.5820  176.8820  146.3300 C   0  0  0  0  0  0  0  0  0  0  0  0
  186.9920  177.0720  147.5820 C   0  0  0  0  0  3  0  0  0  0  0  0
  189.4680  176.2650  142.6500 C   0  0  0  0  0  3  0  0  0  0  0  0
  187.5790  177.0420  141.4530 C   0  0  0  0  0  0  0  0  0  0  0  0
  186.9620  177.3370  140.1990 N   0  0  0  0  0  2  0  0  0  0  0  0
  195.5050  173.5960  145.5670 C   0  0  0  0  0  0  0  0  0  0  0  0
  193.0960  173.4330  145.5340 C   0  0  0  0  0  3  0  0  0  0  0  0
  194.1600  177.1550  146.8350 Cl  0  0  0  0  0  0  0  0  0  0  0  0
  196.7230  173.0410  145.3590 F   0  0  0  0  0  0  0  0  0  0  0  0
  194.3500  172.8580  145.3180 C   0  0  0  0  0  3  0  0  0  0  0  0
  194.1570  175.4960  146.2500 C   0  0  0  0  0  0  0  0  0  0  0  0
  192.9730  174.7520  146.0000 C   0  0  0  0  0  0  0  0  0  0  0  0
  195.4070  174.9080  146.0300 C   0  0  0  0  0  3  0  0  0  0  0  0
  1 11  1  0  0  0  0
  1  8  1  0  0  0  0
  2  7  1  0  0  0  0
  3  2  2  0  0  0  0
  5  4  2  0  0  0  0
  6  9  1  0  0  0  0
  7 17  1  0  0  0  0
  7 19  2  0  0  0  0
  9  3  1  0  0  0  0
 10 14  2  0  0  0  0
 12 21  1  0  0  0  0
 13  6  2  0  0  0  0
 14 19  1  0  0  0  0
 15  2  1  0  0  0  0
 15 10  1  0  0  0  0
 16 10  1  0  0  0  0
 16  5  1  0  0  0  0
 17  1  2  0  0  0  0
 18 23  1  0  0  0  0
 18  6  1  0  0  0  0
 19 20  1  0  0  0  0
 20  8  2  0  0  0  0
 21 15  2  0  0  0  0
 22 12  2  0  0  0  0
 22  3  1  0  0  0  0
 23 22  1  0  0  0  0
 24 31  1  0  0  0  0
 25 30  2  0  0  0  0
 27 24  1  0  0  0  0
 28 25  1  0  0  0  0
 28 24  2  0  0  0  0
 29 26  1  0  0  0  0
 30  5  1  0  0  0  0
 30 29  1  0  0  0  0
 31 29  2  0  0  0  0
M  END
>  <MODEL>
2

>  <REMARK>
 VINA RESULT:      -9.7      1.873      1.986
  Name = 
  1 active torsions:
  status: ('A' for Active; 'I' for Inactive)
    1  A    between atoms: C_5  and  C_30
                            x       y       z     vdW  Elec       q    Type
                         _______ _______ _______ _____ _____    ______ ____

>  <TORSDO>
F 1

$$$$
=
 OpenBabel11112416583D

 31 35  0  0  0  0  0  0  0  0999 V2000
  185.8290  177.6680  141.1800 C   0  0  0  0  0  0  0  0  0  0  0  0
  187.3140  176.6380  144.4690 C   0  0  0  0  0  0  0  0  0  0  0  0
  186.4630  177.1830  145.4640 C   0  0  0  0  0  0  0  0  0  0  0  0
  191.3100  174.0190  142.2730 O   0  0  0  0  0  0  0  0  0  0  0  0
  191.4190  173.9300  143.5230 C   0  0  0  0  0  0  0  0  0  0  0  0
  184.4860  178.4890  146.1000 C   0  0  0  0  0  0  0  0  0  0  0  0
  187.0950  176.8000  143.0760 C   0  0  0  0  0  0  0  0  0  0  0  0
  186.7310  177.0800  140.2940 C   0  0  0  0  0  3  0  0  0  0  0  0
  185.3040  177.8980  145.1330 O   0  0  0  0  0  0  0  0  0  0  0  0
  189.3110  175.3220  143.9410 C   0  0  0  0  0  0  0  0  0  0  0  0
  184.7490  178.3910  140.6920 O   0  0  0  0  0  1  0  0  0  0  0  0
  187.8490  176.2470  147.1810 N   0  0  0  0  0  0  0  0  0  0  0  0
  183.4020  179.0270  145.7550 O   0  0  0  0  0  0  0  0  0  0  0  0
  189.0660  175.5010  142.6170 N   0  0  0  0  0  0  0  0  0  0  0  0
  188.4420  175.8860  144.8900 C   0  0  0  0  0  0  0  0  0  0  0  0
  190.4500  174.5620  144.3740 N   0  0  0  0  0  2  0  0  0  0  0  0
  186.0100  177.5290  142.5580 C   0  0  0  0  0  3  0  0  0  0  0  0
  184.9180  178.5540  147.5330 C   0  0  0  0  0  2  0  0  0  0  0  0
  188.0040  176.2100  142.1630 C   0  0  0  0  0  0  0  0  0  0  0  0
  187.8160  176.3520  140.7860 C   0  0  0  0  0  3  0  0  0  0  0  0
  188.6800  175.7050  146.2580 C   0  0  0  0  0  3  0  0  0  0  0  0
  186.7680  176.9820  146.8200 C   0  0  0  0  0  0  0  0  0  0  0  0
  185.9140  177.5280  147.8270 N   0  0  0  0  0  2  0  0  0  0  0  0
  194.5990  171.6160  145.2650 C   0  0  0  0  0  0  0  0  0  0  0  0
  192.4820  171.7750  144.1140 C   0  0  0  0  0  3  0  0  0  0  0  0
  193.8820  175.5390  144.8510 Cl  0  0  0  0  0  0  0  0  0  0  0  0
  195.5880  170.8650  145.8060 F   0  0  0  0  0  0  0  0  0  0  0  0
  193.5000  170.9990  144.6710 C   0  0  0  0  0  3  0  0  0  0  0  0
  193.6680  173.7970  144.7460 C   0  0  0  0  0  0  0  0  0  0  0  0
  192.5430  173.1780  144.1390 C   0  0  0  0  0  0  0  0  0  0  0  0
  194.6810  173.0080  145.3010 C   0  0  0  0  0  3  0  0  0  0  0  0
  1 17  1  0  0  0  0
  2 15  1  0  0  0  0
  2  3  2  0  0  0  0
  3 22  1  0  0  0  0
  4  5  2  0  0  0  0
  5 30  1  0  0  0  0
  5 16  1  0  0  0  0
  6 18  1  0  0  0  0
  7  2  1  0  0  0  0
  8 20  1  0  0  0  0
  8  1  2  0  0  0  0
  9  3  1  0  0  0  0
  9  6  1  0  0  0  0
 10 16  1  0  0  0  0
 10 15  1  0  0  0  0
 11  1  1  0  0  0  0
 13  6  2  0  0  0  0
 14 10  2  0  0  0  0
 15 21  2  0  0  0  0
 17  7  2  0  0  0  0
 18 23  1  0  0  0  0
 19 14  1  0  0  0  0
 19  7  1  0  0  0  0
 20 19  2  0  0  0  0
 21 12  1  0  0  0  0
 22 12  2  0  0  0  0
 22 23  1  0  0  0  0
 24 31  1  0  0  0  0
 24 27  1  0  0  0  0
 25 30  2  0  0  0  0
 25 28  1  0  0  0  0
 28 24  2  0  0  0  0
 29 26  1  0  0  0  0
 29 31  2  0  0  0  0
 30 29  1  0  0  0  0
M  END
>  <MODEL>
3

>  <REMARK>
 VINA RESULT:      -9.0      2.846      4.673
  Name = 
  1 active torsions:
  status: ('A' for Active; 'I' for Inactive)
    1  A    between atoms: C_5  and  C_30
                            x       y       z     vdW  Elec       q    Type
                         _______ _______ _______ _____ _____    ______ ____

>  <TORSDO>
F 1

$$$$
=
 OpenBabel11112416583D

 31 35  0  0  0  0  0  0  0  0999 V2000
  185.2200  177.9020  146.7420 C   0  0  0  0  0  0  0  0  0  0  0  0
  186.4870  177.4890  143.2330 C   0  0  0  0  0  0  0  0  0  0  0  0
  185.4000  177.8290  142.3880 C   0  0  0  0  0  0  0  0  0  0  0  0
  191.2960  175.9920  144.7450 O   0  0  0  0  0  0  0  0  0  0  0  0
  191.2610  175.9960  143.4870 C   0  0  0  0  0  0  0  0  0  0  0  0
  183.0750  178.5520  142.0870 C   0  0  0  0  0  0  0  0  0  0  0  0
  186.4170  177.5200  144.6510 C   0  0  0  0  0  0  0  0  0  0  0  0
  186.3570  177.5510  147.4690 C   0  0  0  0  0  3  0  0  0  0  0  0
  184.1730  178.2670  142.9040 O   0  0  0  0  0  0  0  0  0  0  0  0
  188.8170  176.7600  143.4240 C   0  0  0  0  0  0  0  0  0  0  0  0
  184.0570  178.2680  147.4050 O   0  0  0  0  0  1  0  0  0  0  0  0
  186.7490  177.3920  140.4560 N   0  0  0  0  0  0  0  0  0  0  0  0
  182.0330  179.0420  142.5930 O   0  0  0  0  0  0  0  0  0  0  0  0
  188.7090  176.8020  144.7770 N   0  0  0  0  0  0  0  0  0  0  0  0
  187.7110  177.1020  142.6280 C   0  0  0  0  0  0  0  0  0  0  0  0
  190.0530  176.3700  142.8050 N   0  0  0  0  0  2  0  0  0  0  0  0
  185.2510  177.8850  145.3450 C   0  0  0  0  0  3  0  0  0  0  0  0
  183.0980  178.2140  140.6280 C   0  0  0  0  0  2  0  0  0  0  0  0
  187.5630  177.1650  145.4040 C   0  0  0  0  0  0  0  0  0  0  0  0
  187.5260  177.1840  146.8010 C   0  0  0  0  0  3  0  0  0  0  0  0
  187.8110  177.0670  141.2320 C   0  0  0  0  0  3  0  0  0  0  0  0
  185.5590  177.7560  140.9950 C   0  0  0  0  0  0  0  0  0  0  0  0
  184.4690  178.0990  140.1380 N   0  0  0  0  0  2  0  0  0  0  0  0
  194.8030  175.0140  141.2540 C   0  0  0  0  0  0  0  0  0  0  0  0
  193.6410  176.3400  142.9040 C   0  0  0  0  0  3  0  0  0  0  0  0
  191.0590  173.5810  141.3540 Cl  0  0  0  0  0  0  0  0  0  0  0  0
  195.9320  174.7240  140.5630 F   0  0  0  0  0  0  0  0  0  0  0  0
  194.8050  176.0430  142.1940 C   0  0  0  0  0  3  0  0  0  0  0  0
  192.4640  174.5710  141.7300 C   0  0  0  0  0  0  0  0  0  0  0  0
  192.4560  175.6170  142.6890 C   0  0  0  0  0  0  0  0  0  0  0  0
  193.6380  174.2840  141.0240 C   0  0  0  0  0  3  0  0  0  0  0  0
  1 11  1  0  0  0  0
  1  8  1  0  0  0  0
  2  7  1  0  0  0  0
  3  9  1  0  0  0  0
  3  2  2  0  0  0  0
  5  4  2  0  0  0  0
  6 13  2  0  0  0  0
  6  9  1  0  0  0  0
  7 17  1  0  0  0  0
  7 19  2  0  0  0  0
 10 14  2  0  0  0  0
 12 22  2  0  0  0  0
 12 21  1  0  0  0  0
 14 19  1  0  0  0  0
 15  2  1  0  0  0  0
 15 10  1  0  0  0  0
 16 10  1  0  0  0  0
 16  5  1  0  0  0  0
 17  1  2  0  0  0  0
 18  6  1  0  0  0  0
 19 20  1  0  0  0  0
 20  8  2  0  0  0  0
 21 15  2  0  0  0  0
 22  3  1  0  0  0  0
 23 18  1  0  0  0  0
 23 22  1  0  0  0  0
 24 28  1  0  0  0  0
 26 29  1  0  0  0  0
 27 24  1  0  0  0  0
 28 25  2  0  0  0  0
 29 30  2  0  0  0  0
 30 25  1  0  0  0  0
 30  5  1  0  0  0  0
 31 24  2  0  0  0  0
 31 29  1  0  0  0  0
M  END
>  <MODEL>
4

>  <REMARK>
 VINA RESULT:      -8.9      1.621      1.900
  Name = 
  1 active torsions:
  status: ('A' for Active; 'I' for Inactive)
    1  A    between atoms: C_5  and  C_30
                            x       y       z     vdW  Elec       q    Type
                         _______ _______ _______ _____ _____    ______ ____

>  <TORSDO>
F 1

$$$$
=
 OpenBabel11112416583D

 31 35  0  0  0  0  0  0  0  0999 V2000
  190.8770  176.7930  147.4100 C   0  0  0  0  0  0  0  0  0  0  0  0
  188.2520  176.4160  144.7540 C   0  0  0  0  0  0  0  0  0  0  0  0
  187.1270  177.1450  145.2180 C   0  0  0  0  0  0  0  0  0  0  0  0
  191.2810  173.4390  141.6540 O   0  0  0  0  0  0  0  0  0  0  0  0
  190.1660  173.5900  141.0890 C   0  0  0  0  0  0  0  0  0  0  0  0
  186.0390  178.5370  146.9200 C   0  0  0  0  0  0  0  0  0  0  0  0
  189.4700  176.3110  145.4770 C   0  0  0  0  0  0  0  0  0  0  0  0
  191.9180  176.0520  146.8510 C   0  0  0  0  0  3  0  0  0  0  0  0
  187.1560  177.8600  146.4230 O   0  0  0  0  0  0  0  0  0  0  0  0
  189.2450  175.0290  142.9970 C   0  0  0  0  0  0  0  0  0  0  0  0
  191.0460  177.4050  148.6450 O   0  0  0  0  0  1  0  0  0  0  0  0
  185.9110  176.5500  143.2400 N   0  0  0  0  0  0  0  0  0  0  0  0
  186.1510  179.2490  147.9510 O   0  0  0  0  0  0  0  0  0  0  0  0
  190.3920  174.9530  143.7200 N   0  0  0  0  0  0  0  0  0  0  0  0
  188.1550  175.7600  143.5000 C   0  0  0  0  0  0  0  0  0  0  0  0
  189.1410  174.3680  141.7260 N   0  0  0  0  0  2  0  0  0  0  0  0
  189.6640  176.9200  146.7280 C   0  0  0  0  0  3  0  0  0  0  0  0
  184.6940  178.3670  146.2820 C   0  0  0  0  0  2  0  0  0  0  0  0
  190.5360  175.5610  144.9230 C   0  0  0  0  0  0  0  0  0  0  0  0
  191.7470  175.4370  145.6100 C   0  0  0  0  0  3  0  0  0  0  0  0
  186.9690  175.8500  142.7630 C   0  0  0  0  0  3  0  0  0  0  0  0
  185.9590  177.1810  144.4390 C   0  0  0  0  0  0  0  0  0  0  0  0
  184.8230  177.9150  144.9000 N   0  0  0  0  0  2  0  0  0  0  0  0
  189.3160  171.9410  137.2090 C   0  0  0  0  0  0  0  0  0  0  0  0
  189.3530  173.7910  138.7610 C   0  0  0  0  0  3  0  0  0  0  0  0
  190.8100  170.4610  140.6240 Cl  0  0  0  0  0  0  0  0  0  0  0  0
  189.0410  171.4460  135.9790 F   0  0  0  0  0  0  0  0  0  0  0  0
  189.0680  173.2830  137.4930 C   0  0  0  0  0  3  0  0  0  0  0  0
  190.1400  171.6060  139.4680 C   0  0  0  0  0  0  0  0  0  0  0  0
  189.8900  172.9710  139.7670 C   0  0  0  0  0  0  0  0  0  0  0  0
  189.8500  171.1090  138.1930 C   0  0  0  0  0  3  0  0  0  0  0  0
  1 11  1  0  0  0  0
  2  3  2  0  0  0  0
  2  7  1  0  0  0  0
  3  9  1  0  0  0  0
  5  4  2  0  0  0  0
  5 16  1  0  0  0  0
  6 13  2  0  0  0  0
  7 17  1  0  0  0  0
  8  1  1  0  0  0  0
  9  6  1  0  0  0  0
 10 15  1  0  0  0  0
 10 14  2  0  0  0  0
 12 22  2  0  0  0  0
 14 19  1  0  0  0  0
 15  2  1  0  0  0  0
 16 10  1  0  0  0  0
 17  1  2  0  0  0  0
 18  6  1  0  0  0  0
 19  7  2  0  0  0  0
 19 20  1  0  0  0  0
 20  8  2  0  0  0  0
 21 12  1  0  0  0  0
 21 15  2  0  0  0  0
 22 23  1  0  0  0  0
 22  3  1  0  0  0  0
 23 18  1  0  0  0  0
 24 28  2  0  0  0  0
 24 31  1  0  0  0  0
 25 30  2  0  0  0  0
 27 24  1  0  0  0  0
 28 25  1  0  0  0  0
 29 30  1  0  0  0  0
 29 26  1  0  0  0  0
 30  5  1  0  0  0  0
 31 29  2  0  0  0  0
M  END
>  <MODEL>
5

>  <REMARK>
 VINA RESULT:      -8.8      4.406      5.918
  Name = 
  1 active torsions:
  status: ('A' for Active; 'I' for Inactive)
    1  A    between atoms: C_5  and  C_30
                            x       y       z     vdW  Elec       q    Type
                         _______ _______ _______ _____ _____    ______ ____

>  <TORSDO>
F 1

$$$$
=
 OpenBabel11112416583D

 31 35  0  0  0  0  0  0  0  0999 V2000
  195.1750  174.0560  145.4920 C   0  0  0  0  0  0  0  0  0  0  0  0
  191.7280  173.2850  144.2240 C   0  0  0  0  0  0  0  0  0  0  0  0
  191.8400  172.0550  143.5260 C   0  0  0  0  0  0  0  0  0  0  0  0
  189.5890  177.6210  146.2910 O   0  0  0  0  0  0  0  0  0  0  0  0
  188.6840  176.9790  145.6970 C   0  0  0  0  0  0  0  0  0  0  0  0
  193.1920  170.1710  142.7240 C   0  0  0  0  0  0  0  0  0  0  0  0
  192.8220  173.9260  144.8630 C   0  0  0  0  0  0  0  0  0  0  0  0
  194.9430  175.2620  146.1530 C   0  0  0  0  0  3  0  0  0  0  0  0
  193.0520  171.3550  143.4540 O   0  0  0  0  0  0  0  0  0  0  0  0
  190.2920  175.1210  144.9730 C   0  0  0  0  0  0  0  0  0  0  0  0
  196.4520  173.5130  145.4690 O   0  0  0  0  0  1  0  0  0  0  0  0
  189.5010  172.1210  143.0090 N   0  0  0  0  0  0  0  0  0  0  0  0
  194.2720  169.5290  142.7810 O   0  0  0  0  0  0  0  0  0  0  0  0
  191.3640  175.7020  145.5720 N   0  0  0  0  0  0  0  0  0  0  0  0
  190.4530  173.9050  144.2900 C   0  0  0  0  0  0  0  0  0  0  0  0
  188.9990  175.7430  145.0370 N   0  0  0  0  0  2  0  0  0  0  0  0
  194.1240  173.3960  144.8530 C   0  0  0  0  0  3  0  0  0  0  0  0
  192.0970  169.6960  141.8190 C   0  0  0  0  0  2  0  0  0  0  0  0
  192.6020  175.1510  145.5380 C   0  0  0  0  0  0  0  0  0  0  0  0
  193.6590  175.8080  146.1760 C   0  0  0  0  0  3  0  0  0  0  0  0
  189.3550  173.2930  143.6730 C   0  0  0  0  0  3  0  0  0  0  0  0
  190.7040  171.5030  142.9130 C   0  0  0  0  0  0  0  0  0  0  0  0
  190.8100  170.2640  142.2100 N   0  0  0  0  0  2  0  0  0  0  0  0
  184.6260  178.4020  145.7620 C   0  0  0  0  0  0  0  0  0  0  0  0
  186.5470  177.4340  146.8580 C   0  0  0  0  0  3  0  0  0  0  0  0
  187.4630  178.1320  142.9400 Cl  0  0  0  0  0  0  0  0  0  0  0  0
  183.3470  178.8450  145.8080 F   0  0  0  0  0  0  0  0  0  0  0  0
  185.2290  177.8890  146.9090 C   0  0  0  0  0  3  0  0  0  0  0  0
  186.6640  178.0080  144.5020 C   0  0  0  0  0  0  0  0  0  0  0  0
  187.2870  177.4830  145.6650 C   0  0  0  0  0  0  0  0  0  0  0  0
  185.3420  178.4600  144.5660 C   0  0  0  0  0  3  0  0  0  0  0  0
  1  8  1  0  0  0  0
  2 15  1  0  0  0  0
  2  7  1  0  0  0  0
  3  2  2  0  0  0  0
  5  4  2  0  0  0  0
  6 13  2  0  0  0  0
  6  9  1  0  0  0  0
  7 19  2  0  0  0  0
  8 20  2  0  0  0  0
  9  3  1  0  0  0  0
 10 16  1  0  0  0  0
 10 14  2  0  0  0  0
 11  1  1  0  0  0  0
 12 21  1  0  0  0  0
 15 10  1  0  0  0  0
 16  5  1  0  0  0  0
 17  7  1  0  0  0  0
 17  1  2  0  0  0  0
 18 23  1  0  0  0  0
 18  6  1  0  0  0  0
 19 14  1  0  0  0  0
 19 20  1  0  0  0  0
 21 15  2  0  0  0  0
 22 12  2  0  0  0  0
 22  3  1  0  0  0  0
 23 22  1  0  0  0  0
 24 27  1  0  0  0  0
 24 28  1  0  0  0  0
 25 28  2  0  0  0  0
 26 29  1  0  0  0  0
 29 31  1  0  0  0  0
 29 30  2  0  0  0  0
 30  5  1  0  0  0  0
 30 25  1  0  0  0  0
 31 24  2  0  0  0  0
M  END
>  <MODEL>
6

>  <REMARK>
 VINA RESULT:      -8.8      4.752      8.818
  Name = 
  1 active torsions:
  status: ('A' for Active; 'I' for Inactive)
    1  A    between atoms: C_5  and  C_30
                            x       y       z     vdW  Elec       q    Type
                         _______ _______ _______ _____ _____    ______ ____

>  <TORSDO>
F 1

$$$$
=
 OpenBabel11112416583D

 31 35  0  0  0  0  0  0  0  0999 V2000
  195.0580  174.4240  145.7640 C   0  0  0  0  0  0  0  0  0  0  0  0
  191.7640  173.4730  144.2350 C   0  0  0  0  0  0  0  0  0  0  0  0
  191.9620  172.1910  143.6600 C   0  0  0  0  0  0  0  0  0  0  0  0
  189.3710  177.9190  145.7040 O   0  0  0  0  0  0  0  0  0  0  0  0
  188.5390  177.2090  145.0810 C   0  0  0  0  0  0  0  0  0  0  0  0
  193.4130  170.2770  143.1590 C   0  0  0  0  0  0  0  0  0  0  0  0
  192.7800  174.1890  144.9220 C   0  0  0  0  0  0  0  0  0  0  0  0
  194.7440  175.6760  146.2940 C   0  0  0  0  0  3  0  0  0  0  0  0
  193.1850  171.5150  143.7670 O   0  0  0  0  0  0  0  0  0  0  0  0
  190.2360  175.3330  144.6800 C   0  0  0  0  0  0  0  0  0  0  0  0
  196.3380  173.9090  145.9140 O   0  0  0  0  0  1  0  0  0  0  0  0
  189.6860  172.1620  142.9120 N   0  0  0  0  0  0  0  0  0  0  0  0
  194.4910  169.6660  143.3760 O   0  0  0  0  0  0  0  0  0  0  0  0
  191.2350  175.9860  145.3290 N   0  0  0  0  0  0  0  0  0  0  0  0
  190.4810  174.0680  144.1220 C   0  0  0  0  0  0  0  0  0  0  0  0
  188.9340  175.9290  144.5640 N   0  0  0  0  0  2  0  0  0  0  0  0
  194.0840  173.6890  145.0840 C   0  0  0  0  0  3  0  0  0  0  0  0
  192.4200  169.7040  142.1940 C   0  0  0  0  0  2  0  0  0  0  0  0
  192.4780  175.4620  145.4640 C   0  0  0  0  0  0  0  0  0  0  0  0
  193.4560  176.1920  146.1440 C   0  0  0  0  0  3  0  0  0  0  0  0
  189.4580  173.3830  143.4560 C   0  0  0  0  0  3  0  0  0  0  0  0
  190.9000  171.5650  142.9880 C   0  0  0  0  0  0  0  0  0  0  0  0
  191.0930  170.2740  142.4070 N   0  0  0  0  0  2  0  0  0  0  0  0
  184.5450  178.6150  144.3230 C   0  0  0  0  0  0  0  0  0  0  0  0
  186.8390  178.2890  143.6430 C   0  0  0  0  0  3  0  0  0  0  0  0
  186.3440  176.7970  147.4120 Cl  0  0  0  0  0  0  0  0  0  0  0  0
  183.2950  179.0660  144.0610 F   0  0  0  0  0  0  0  0  0  0  0  0
  185.5520  178.7540  143.3700 C   0  0  0  0  0  3  0  0  0  0  0  0
  186.1120  177.5400  145.8340 C   0  0  0  0  0  0  0  0  0  0  0  0
  187.1450  177.6780  144.8700 C   0  0  0  0  0  0  0  0  0  0  0  0
  184.8260  178.0110  145.5480 C   0  0  0  0  0  3  0  0  0  0  0  0
  1 11  1  0  0  0  0
  1  8  1  0  0  0  0
  2  7  1  0  0  0  0
  3  9  1  0  0  0  0
  3  2  2  0  0  0  0
  5  4  2  0  0  0  0
  6 13  2  0  0  0  0
  6  9  1  0  0  0  0
  7 17  1  0  0  0  0
  7 19  2  0  0  0  0
 10 14  2  0  0  0  0
 12 22  2  0  0  0  0
 12 21  1  0  0  0  0
 14 19  1  0  0  0  0
 15  2  1  0  0  0  0
 15 10  1  0  0  0  0
 16 10  1  0  0  0  0
 16  5  1  0  0  0  0
 17  1  2  0  0  0  0
 18 23  1  0  0  0  0
 18  6  1  0  0  0  0
 19 20  1  0  0  0  0
 20  8  2  0  0  0  0
 21 15  2  0  0  0  0
 22  3  1  0  0  0  0
 23 22  1  0  0  0  0
 24 31  1  0  0  0  0
 25 30  2  0  0  0  0
 27 24  1  0  0  0  0
 28 25  1  0  0  0  0
 28 24  2  0  0  0  0
 29 26  1  0  0  0  0
 30  5  1  0  0  0  0
 30 29  1  0  0  0  0
 31 29  2  0  0  0  0
M  END
>  <MODEL>
7

>  <REMARK>
 VINA RESULT:      -8.7      4.660      8.733
  Name = 
  1 active torsions:
  status: ('A' for Active; 'I' for Inactive)
    1  A    between atoms: C_5  and  C_30
                            x       y       z     vdW  Elec       q    Type
                         _______ _______ _______ _____ _____    ______ ____

>  <TORSDO>
F 1

$$$$
=
 OpenBabel11112416583D

 31 35  0  0  0  0  0  0  0  0999 V2000
  192.4140  172.7540  139.8490 C   0  0  0  0  0  0  0  0  0  0  0  0
  192.0550  175.2010  142.6720 C   0  0  0  0  0  0  0  0  0  0  0  0
  193.3730  175.4550  143.1320 C   0  0  0  0  0  0  0  0  0  0  0  0
  186.8160  175.4470  142.2930 O   0  0  0  0  0  0  0  0  0  0  0  0
  187.1800  176.2050  143.2290 C   0  0  0  0  0  0  0  0  0  0  0  0
  195.7920  175.0710  142.9960 C   0  0  0  0  0  0  0  0  0  0  0  0
  191.7550  174.3210  141.5990 C   0  0  0  0  0  0  0  0  0  0  0  0
  191.0780  172.5880  139.4810 C   0  0  0  0  0  3  0  0  0  0  0  0
  194.4920  174.8750  142.5200 O   0  0  0  0  0  0  0  0  0  0  0  0
  189.6580  175.6500  142.8940 C   0  0  0  0  0  0  0  0  0  0  0  0
  193.4100  172.0670  139.1710 O   0  0  0  0  0  1  0  0  0  0  0  0
  192.5170  176.9560  144.7930 N   0  0  0  0  0  0  0  0  0  0  0  0
  196.7680  174.6150  142.3460 O   0  0  0  0  0  0  0  0  0  0  0  0
  189.4140  174.7990  141.8640 N   0  0  0  0  0  0  0  0  0  0  0  0
  190.9800  175.8660  143.3180 C   0  0  0  0  0  0  0  0  0  0  0  0
  188.5750  176.3270  143.5510 N   0  0  0  0  0  2  0  0  0  0  0  0
  192.7470  173.6130  140.8990 C   0  0  0  0  0  3  0  0  0  0  0  0
  196.0320  175.7550  144.3070 C   0  0  0  0  0  2  0  0  0  0  0  0
  190.4040  174.1400  141.2150 C   0  0  0  0  0  0  0  0  0  0  0  0
  190.0770  173.2800  140.1630 C   0  0  0  0  0  3  0  0  0  0  0  0
  191.2460  176.7430  144.3750 C   0  0  0  0  0  3  0  0  0  0  0  0
  193.5710  176.3320  144.2110 C   0  0  0  0  0  0  0  0  0  0  0  0
  194.8950  176.5930  144.6780 N   0  0  0  0  0  2  0  0  0  0  0  0
  184.3480  178.3740  145.6320 C   0  0  0  0  0  0  0  0  0  0  0  0
  186.1070  176.7370  145.3940 C   0  0  0  0  0  3  0  0  0  0  0  0
  185.2980  178.3610  141.7360 Cl  0  0  0  0  0  0  0  0  0  0  0  0
  183.4650  179.0440  146.4090 F   0  0  0  0  0  0  0  0  0  0  0  0
  185.1980  177.4260  146.1980 C   0  0  0  0  0  3  0  0  0  0  0  0
  185.3150  177.9490  143.4460 C   0  0  0  0  0  0  0  0  0  0  0  0
  186.1850  176.9800  144.0130 C   0  0  0  0  0  0  0  0  0  0  0  0
  184.4080  178.6330  144.2620 C   0  0  0  0  0  3  0  0  0  0  0  0
  1 17  1  0  0  0  0
  2  3  2  0  0  0  0
  2 15  1  0  0  0  0
  3 22  1  0  0  0  0
  4  5  2  0  0  0  0
  5 16  1  0  0  0  0
  5 30  1  0  0  0  0
  6 18  1  0  0  0  0
  7  2  1  0  0  0  0
  8  1  2  0  0  0  0
  8 20  1  0  0  0  0
  9  6  1  0  0  0  0
  9  3  1  0  0  0  0
 10 15  1  0  0  0  0
 10 16  1  0  0  0  0
 11  1  1  0  0  0  0
 13  6  2  0  0  0  0
 14 10  2  0  0  0  0
 15 21  2  0  0  0  0
 17  7  2  0  0  0  0
 18 23  1  0  0  0  0
 19  7  1  0  0  0  0
 19 14  1  0  0  0  0
 20 19  2  0  0  0  0
 21 12  1  0  0  0  0
 22 23  1  0  0  0  0
 22 12  2  0  0  0  0
 24 28  1  0  0  0  0
 24 27  1  0  0  0  0
 25 28  2  0  0  0  0
 26 29  1  0  0  0  0
 29 30  2  0  0  0  0
 29 31  1  0  0  0  0
 30 25  1  0  0  0  0
 31 24  2  0  0  0  0
M  END
>  <MODEL>
8

>  <REMARK>
 VINA RESULT:      -8.5      4.483      9.256
  Name = 
  1 active torsions:
  status: ('A' for Active; 'I' for Inactive)
    1  A    between atoms: C_5  and  C_30
                            x       y       z     vdW  Elec       q    Type
                         _______ _______ _______ _____ _____    ______ ____

>  <TORSDO>
F 1

$$$$
=
 OpenBabel11112416583D

 31 35  0  0  0  0  0  0  0  0999 V2000
  194.7190  173.6630  144.8390 C   0  0  0  0  0  0  0  0  0  0  0  0
  191.3120  173.4610  143.2780 C   0  0  0  0  0  0  0  0  0  0  0  0
  191.3960  172.4360  142.3000 C   0  0  0  0  0  0  0  0  0  0  0  0
  189.2980  177.2830  146.2750 O   0  0  0  0  0  0  0  0  0  0  0  0
  188.3950  176.8700  145.5020 C   0  0  0  0  0  0  0  0  0  0  0  0
  192.6870  170.7240  141.1080 C   0  0  0  0  0  0  0  0  0  0  0  0
  192.4010  173.8490  144.1020 C   0  0  0  0  0  0  0  0  0  0  0  0
  194.5150  174.6810  145.7710 C   0  0  0  0  0  3  0  0  0  0  0  0
  192.5700  171.6970  142.1050 O   0  0  0  0  0  0  0  0  0  0  0  0
  189.9370  175.1460  144.4040 C   0  0  0  0  0  0  0  0  0  0  0  0
  195.9640  173.0580  144.7330 O   0  0  0  0  0  1  0  0  0  0  0  0
  189.0970  172.7840  141.7200 N   0  0  0  0  0  0  0  0  0  0  0  0
  193.7250  170.0170  141.0470 O   0  0  0  0  0  0  0  0  0  0  0  0
  191.0040  175.4880  145.1720 N   0  0  0  0  0  0  0  0  0  0  0  0
  190.0700  174.1280  143.4440 C   0  0  0  0  0  0  0  0  0  0  0  0
  188.6780  175.8170  144.5680 N   0  0  0  0  0  2  0  0  0  0  0  0
  193.6700  173.2520  144.0120 C   0  0  0  0  0  3  0  0  0  0  0  0
  191.6200  170.5620  140.0680 C   0  0  0  0  0  2  0  0  0  0  0  0
  192.2110  174.8820  145.0520 C   0  0  0  0  0  0  0  0  0  0  0  0
  193.2630  175.2880  145.8770 C   0  0  0  0  0  3  0  0  0  0  0  0
  188.9770  173.7630  142.6500 C   0  0  0  0  0  3  0  0  0  0  0  0
  190.2680  172.1300  141.5220 C   0  0  0  0  0  0  0  0  0  0  0  0
  190.3460  171.0990  140.5360 N   0  0  0  0  0  2  0  0  0  0  0  0
  184.4340  178.5260  145.7660 C   0  0  0  0  0  0  0  0  0  0  0  0
  186.3130  177.3660  146.7440 C   0  0  0  0  0  3  0  0  0  0  0  0
  187.1940  178.2950  142.8670 Cl  0  0  0  0  0  0  0  0  0  0  0  0
  183.1860  179.0400  145.8750 F   0  0  0  0  0  0  0  0  0  0  0  0
  185.0260  177.8940  146.8580 C   0  0  0  0  0  3  0  0  0  0  0  0
  186.4190  178.1040  144.4340 C   0  0  0  0  0  0  0  0  0  0  0  0
  187.0310  177.4580  145.5410 C   0  0  0  0  0  0  0  0  0  0  0  0
  185.1290  178.6290  144.5620 C   0  0  0  0  0  3  0  0  0  0  0  0
  1  8  1  0  0  0  0
  2 15  1  0  0  0  0
  2  7  1  0  0  0  0
  3  2  2  0  0  0  0
  5 30  1  0  0  0  0
  5  4  2  0  0  0  0
  6  9  1  0  0  0  0
  7 19  2  0  0  0  0
  8 20  2  0  0  0  0
  9  3  1  0  0  0  0
 10 16  1  0  0  0  0
 10 14  2  0  0  0  0
 11  1  1  0  0  0  0
 12 21  1  0  0  0  0
 13  6  2  0  0  0  0
 15 10  1  0  0  0  0
 16  5  1  0  0  0  0
 17  7  1  0  0  0  0
 17  1  2  0  0  0  0
 18 23  1  0  0  0  0
 18  6  1  0  0  0  0
 19 14  1  0  0  0  0
 19 20  1  0  0  0  0
 21 15  2  0  0  0  0
 22 12  2  0  0  0  0
 22  3  1  0  0  0  0
 23 22  1  0  0  0  0
 24 27  1  0  0  0  0
 24 28  1  0  0  0  0
 25 28  2  0  0  0  0
 26 29  1  0  0  0  0
 29 31  1  0  0  0  0
 29 30  2  0  0  0  0
 30 25  1  0  0  0  0
 31 24  2  0  0  0  0
M  END
>  <MODEL>
9

>  <REMARK>
 VINA RESULT:      -8.4      4.772      8.559
  Name = 
  1 active torsions:
  status: ('A' for Active; 'I' for Inactive)
    1  A    between atoms: C_5  and  C_30
                            x       y       z     vdW  Elec       q    Type
                         _______ _______ _______ _____ _____    ______ ____

>  <TORSDO>
F 1

$$$$
