=
 OpenBabel11112416403D

 32 37  0  0  1  0  0  0  0  0999 V2000
  192.0530  174.9280  143.9860 O   0  0  0  0  0  0  0  0  0  0  0  0
  187.8620  177.4830  143.8170 C   0  0  0  0  0  0  0  0  0  0  0  0
  185.9720  178.1810  148.2060 C   0  0  0  0  0  3  0  0  0  0  0  0
  184.7020  178.3780  147.6690 C   0  0  0  0  0  3  0  0  0  0  0  0
  186.3680  177.5830  141.7440 C   0  0  0  0  0  0  0  0  0  0  0  0
  185.0100  177.7250  141.2280 C   0  0  0  0  0  0  0  0  0  0  0  0
  190.3770  177.3930  143.6510 C   0  0  1  0  0  3  0  0  0  0  0  0
  189.3590  177.4350  145.8980 C   0  0  0  0  0  2  0  0  0  0  0  0
  182.7610  178.0320  141.1350 C   0  0  2  0  0  3  0  0  0  0  0  0
  191.7490  176.6700  145.6600 C   0  0  0  0  0  2  0  0  0  0  0  0
  187.0240  177.9160  147.3880 N   0  0  0  0  0  0  0  0  0  0  0  0
  188.0030  177.5530  145.2300 C   0  0  0  0  0  0  0  0  0  0  0  0
  186.8880  177.8310  146.0320 C   0  0  0  0  0  0  0  0  0  0  0  0
  185.4580  177.9430  144.0510 C   0  0  0  0  0  0  0  0  0  0  0  0
  183.2240  177.7600  139.7630 N   0  0  0  0  0  0  0  0  0  0  0  0
  192.0110  175.5780  142.7290 C   0  0  0  0  0  2  0  0  0  0  0  0
  190.3660  176.7170  145.0190 C   0  0  2  0  0  3  0  0  0  0  0  0
  184.6150  177.5890  139.8820 N   0  0  0  0  0  0  0  0  0  0  0  0
  191.5850  177.0600  142.7610 C   0  0  0  0  0  2  0  0  0  0  0  0
  192.6220  175.7760  144.8910 N   0  0  0  0  0  0  0  0  0  0  0  0
  184.5300  178.2980  146.2880 C   0  0  0  0  0  3  0  0  0  0  0  0
  185.6200  178.0240  145.4470 C   0  0  0  0  0  0  0  0  0  0  0  0
  184.0660  178.1650  143.4680 C   0  0  0  0  0  2  0  0  0  0  0  0
  189.0560  177.1010  142.9620 C   0  0  0  0  0  2  0  0  0  0  0  0
  187.3140  177.3950  140.9330 O   0  0  0  0  0  0  0  0  0  0  0  0
  182.1400  179.4160  141.1940 C   0  0  0  0  0  1  0  0  0  0  0  0
  186.5850  177.6720  143.2220 C   0  0  0  0  0  0  0  0  0  0  0  0
  183.9850  177.9780  141.9840 C   0  0  0  0  0  0  0  0  0  0  0  0
  194.0280  175.6430  145.1570 C   0  0  0  0  0  3  0  0  0  0  0  0
  194.6370  174.5190  145.5440 C   0  0  0  0  0  0  0  0  0  0  0  0
  196.1060  174.5410  145.7640 C   0  0  0  0  0  1  0  0  0  0  0  0
  193.9410  173.3360  145.7630 O   0  0  0  0  0  1  0  0  0  0  0  0
  1 20  1  0  0  0  0
  2 12  1  0  0  0  0
  4  3  1  0  0  0  0
  5 27  1  0  0  0  0
  6  5  1  0  0  0  0
  6 28  2  0  0  0  0
  7 19  1  6  0  0  0
  7 17  1  0  0  0  0
  9 26  1  6  0  0  0
  9 28  1  0  0  0  0
 11  3  2  0  0  0  0
 12  8  1  0  0  0  0
 12 13  2  0  0  0  0
 13 11  1  0  0  0  0
 14 22  2  0  0  0  0
 15 18  2  0  0  0  0
 15  9  1  0  0  0  0
 16 19  1  0  0  0  0
 16  1  1  0  0  0  0
 17 10  1  1  0  0  0
 17  8  1  0  0  0  0
 18  6  1  0  0  0  0
 20 29  1  0  0  0  0
 20 10  1  0  0  0  0
 21  4  2  0  0  0  0
 22 13  1  0  0  0  0
 22 21  1  0  0  0  0
 23 14  1  0  0  0  0
 24  7  1  0  0  0  0
 24  2  1  0  0  0  0
 25  5  2  0  0  0  0
 27  2  2  0  0  0  0
 27 14  1  0  0  0  0
 28 23  1  0  0  0  0
 29 30  2  0  0  0  0
 30 32  1  0  0  0  0
 30 31  1  0  0  0  0
M  END
>  <MODEL>
1

>  <REMARK>
 VINA RESULT:      -8.9      0.000      0.000
  Name = 
  1 active torsions:
  status: ('A' for Active; 'I' for Inactive)
    1  A    between atoms: N_20  and  C_29
                            x       y       z     vdW  Elec       q    Type
                         _______ _______ _______ _____ _____    ______ ____

>  <TORSDO>
F 1

$$$$
=
 OpenBabel11112416403D

 32 37  0  0  1  0  0  0  0  0999 V2000
  188.9940  171.8390  139.8910 O   0  0  0  0  0  0  0  0  0  0  0  0
  188.8660  175.2740  143.3980 C   0  0  0  0  0  0  0  0  0  0  0  0
  192.5300  174.8370  146.5140 C   0  0  0  0  0  3  0  0  0  0  0  0
  191.8260  175.5310  147.4970 C   0  0  0  0  0  3  0  0  0  0  0  0
  186.7220  176.4800  144.0970 C   0  0  0  0  0  0  0  0  0  0  0  0
  185.9920  177.1390  145.1760 C   0  0  0  0  0  0  0  0  0  0  0  0
  189.3070  174.6060  141.0070 C   0  0  1  0  0  3  0  0  0  0  0  0
  191.0390  174.1110  142.6930 C   0  0  0  0  0  2  0  0  0  0  0  0
  185.4810  178.0250  147.2040 C   0  0  2  0  0  3  0  0  0  0  0  0
  191.1060  172.8930  140.4870 C   0  0  0  0  0  2  0  0  0  0  0  0
  191.9640  174.6180  145.2980 N   0  0  0  0  0  0  0  0  0  0  0  0
  190.1680  174.8020  143.7230 C   0  0  0  0  0  0  0  0  0  0  0  0
  190.7080  175.0550  144.9900 C   0  0  0  0  0  0  0  0  0  0  0  0
  188.6650  176.2230  145.6580 C   0  0  0  0  0  0  0  0  0  0  0  0
  184.2810  178.1460  146.3580 N   0  0  0  0  0  2  0  0  0  0  0  0
  188.1510  172.8790  139.4260 C   0  0  0  0  0  2  0  0  0  0  0  0
  190.2210  173.5170  141.5610 C   0  0  2  0  0  3  0  0  0  0  0  0
  184.6600  177.5930  145.1210 N   0  0  0  0  0  0  0  0  0  0  0  0
  188.6880  174.3100  139.6310 C   0  0  0  0  0  2  0  0  0  0  0  0
  190.2790  172.1360  139.5410 N   0  0  0  0  0  0  0  0  0  0  0  0
  190.5420  175.9910  147.2130 C   0  0  0  0  0  3  0  0  0  0  0  0
  189.9610  175.7610  145.9560 C   0  0  0  0  0  0  0  0  0  0  0  0
  187.9020  176.9850  146.7360 C   0  0  0  0  0  3  0  0  0  0  0  0
  188.2550  174.9250  142.0540 C   0  0  0  0  0  2  0  0  0  0  0  0
  186.1680  176.3540  142.9720 O   0  0  0  0  0  0  0  0  0  0  0  0
  185.9520  179.4090  147.6130 C   0  0  0  0  0  1  0  0  0  0  0  0
  188.1070  175.9820  144.3700 C   0  0  0  0  0  0  0  0  0  0  0  0
  186.5050  177.3620  146.3480 C   0  0  0  0  0  0  0  0  0  0  0  0
  190.8040  171.5610  138.3340 C   0  0  0  0  0  3  0  0  0  0  0  0
  191.1110  172.2420  137.2250 C   0  0  0  0  0  0  0  0  0  0  0  0
  191.6620  171.5010  136.0610 C   0  0  0  0  0  1  0  0  0  0  0  0
  190.9180  173.6140  137.1200 O   0  0  0  0  0  1  0  0  0  0  0  0
  2 12  2  0  0  0  0
  2 27  1  0  0  0  0
  3  4  1  0  0  0  0
  5 27  1  0  0  0  0
  5  6  1  0  0  0  0
  6 28  1  0  0  0  0
  7 19  1  6  0  0  0
  7 17  1  0  0  0  0
  7 24  1  0  0  0  0
  8 12  1  0  0  0  0
  9 26  1  6  0  0  0
 11  3  2  0  0  0  0
 12 13  1  0  0  0  0
 13 11  1  0  0  0  0
 13 22  2  0  0  0  0
 14 22  1  0  0  0  0
 14 23  1  0  0  0  0
 15  9  1  0  0  0  0
 16 19  1  0  0  0  0
 16  1  1  0  0  0  0
 17 10  1  6  0  0  0
 17  8  1  0  0  0  0
 18  6  2  0  0  0  0
 18 15  1  0  0  0  0
 20  1  1  0  0  0  0
 20 10  1  0  0  0  0
 21  4  2  0  0  0  0
 22 21  1  0  0  0  0
 24  2  1  0  0  0  0
 25  5  2  0  0  0  0
 27 14  2  0  0  0  0
 28 23  2  0  0  0  0
 28  9  1  0  0  0  0
 29 20  1  0  0  0  0
 30 29  2  0  0  0  0
 31 30  1  0  0  0  0
 32 30  1  0  0  0  0
M  END
>  <MODEL>
2

>  <REMARK>
 VINA RESULT:      -8.9      3.639      6.028
  Name = 
  1 active torsions:
  status: ('A' for Active; 'I' for Inactive)
    1  A    between atoms: N_20  and  C_29
                            x       y       z     vdW  Elec       q    Type
                         _______ _______ _______ _____ _____    ______ ____

>  <TORSDO>
F 1

$$$$
=
 OpenBabel11112416403D

 32 37  0  0  1  0  0  0  0  0999 V2000
  192.3140  170.8560  144.2120 O   0  0  0  0  0  0  0  0  0  0  0  0
  190.2640  175.2940  144.6860 C   0  0  0  0  0  0  0  0  0  0  0  0
  191.5660  177.4750  148.7940 C   0  0  0  0  0  3  0  0  0  0  0  0
  190.4370  178.2910  148.7630 C   0  0  0  0  0  3  0  0  0  0  0  0
  188.1000  175.9680  143.5030 C   0  0  0  0  0  0  0  0  0  0  0  0
  186.8950  176.7910  143.5460 C   0  0  0  0  0  0  0  0  0  0  0  0
  191.9620  173.7730  143.6070 C   0  0  1  0  0  3  0  0  0  0  0  0
  192.4570  174.6620  145.8540 C   0  0  0  0  0  2  0  0  0  0  0  0
  185.3430  178.3060  144.2210 C   0  0  2  0  0  3  0  0  0  0  0  0
  193.7390  172.6530  145.0310 C   0  0  0  0  0  2  0  0  0  0  0  0
  191.7740  176.5620  147.8100 N   0  0  0  0  0  0  0  0  0  0  0  0
  191.1620  175.4450  145.7790 C   0  0  0  0  0  0  0  0  0  0  0  0
  190.9050  176.4030  146.7690 C   0  0  0  0  0  0  0  0  0  0  0  0
  188.8410  177.0620  145.6330 C   0  0  0  0  0  0  0  0  0  0  0  0
  184.8200  177.6520  143.0080 N   0  0  0  0  0  2  0  0  0  0  0  0
  191.8780  171.2540  142.9250 C   0  0  0  0  0  2  0  0  0  0  0  0
  192.4080  173.3970  145.0170 C   0  0  2  0  0  3  0  0  0  0  0  0
  185.8220  176.7390  142.6340 N   0  0  0  0  0  0  0  0  0  0  0  0
  192.2150  172.7060  142.5290 C   0  0  0  0  0  2  0  0  0  0  0  0
  193.5770  171.3350  144.4070 N   0  0  0  0  0  0  0  0  0  0  0  0
  189.5300  178.1530  147.7130 C   0  0  0  0  0  3  0  0  0  0  0  0
  189.7490  177.2080  146.6990 C   0  0  0  0  0  0  0  0  0  0  0  0
  187.6100  177.9600  145.6010 C   0  0  0  0  0  3  0  0  0  0  0  0
  190.5060  174.2000  143.6630 C   0  0  0  0  0  2  0  0  0  0  0  0
  188.2670  175.1780  142.5360 O   0  0  0  0  0  0  0  0  0  0  0  0
  185.5110  179.7920  143.9620 C   0  0  0  0  0  1  0  0  0  0  0  0
  189.0950  176.1000  144.6130 C   0  0  0  0  0  0  0  0  0  0  0  0
  186.6680  177.6710  144.4730 C   0  0  0  0  0  0  0  0  0  0  0  0
  194.6850  170.4610  144.1340 C   0  0  0  0  0  3  0  0  0  0  0  0
  195.2010  169.5780  144.9940 C   0  0  0  0  0  0  0  0  0  0  0  0
  196.3410  168.7340  144.5530 C   0  0  0  0  0  1  0  0  0  0  0  0
  194.7180  169.4350  146.2890 O   0  0  0  0  0  1  0  0  0  0  0  0
  1 20  1  0  0  0  0
  2 12  1  0  0  0  0
  4  3  1  0  0  0  0
  5  6  1  0  0  0  0
  5 27  1  0  0  0  0
  6 28  1  0  0  0  0
  7 19  1  6  0  0  0
  7 24  1  0  0  0  0
  7 17  1  0  0  0  0
  9 26  1  6  0  0  0
  9 28  1  0  0  0  0
 11  3  2  0  0  0  0
 12  8  1  0  0  0  0
 12 13  2  0  0  0  0
 13 11  1  0  0  0  0
 14 22  2  0  0  0  0
 15  9  1  0  0  0  0
 16  1  1  0  0  0  0
 17 10  1  6  0  0  0
 17  8  1  0  0  0  0
 18 15  1  0  0  0  0
 18  6  2  0  0  0  0
 19 16  1  0  0  0  0
 20 10  1  0  0  0  0
 21  4  2  0  0  0  0
 22 13  1  0  0  0  0
 22 21  1  0  0  0  0
 23 14  1  0  0  0  0
 24  2  1  0  0  0  0
 25  5  2  0  0  0  0
 27  2  2  0  0  0  0
 27 14  1  0  0  0  0
 28 23  2  0  0  0  0
 29 20  1  0  0  0  0
 29 30  2  0  0  0  0
 30 32  1  0  0  0  0
 31 30  1  0  0  0  0
M  END
>  <MODEL>
3

>  <REMARK>
 VINA RESULT:      -8.2      2.844      4.269
  Name = 
  1 active torsions:
  status: ('A' for Active; 'I' for Inactive)
    1  A    between atoms: N_20  and  C_29
                            x       y       z     vdW  Elec       q    Type
                         _______ _______ _______ _____ _____    ______ ____

>  <TORSDO>
F 1

$$$$
=
 OpenBabel11112416403D

 32 37  0  0  1  0  0  0  0  0999 V2000
  194.9950  175.8330  144.7980 O   0  0  0  0  0  0  0  0  0  0  0  0
  190.0860  175.9990  144.7800 C   0  0  0  0  0  0  0  0  0  0  0  0
  188.2520  175.2420  140.3770 C   0  0  0  0  0  3  0  0  0  0  0  0
  187.0660  175.8910  140.7180 C   0  0  0  0  0  3  0  0  0  0  0  0
  188.7230  177.2550  146.5410 C   0  0  0  0  0  0  0  0  0  0  0  0
  187.4950  177.9880  146.8360 C   0  0  0  0  0  0  0  0  0  0  0  0
  192.2320  174.8030  145.3500 C   0  0  1  0  0  3  0  0  0  0  0  0
  191.4230  174.6980  143.0210 C   0  0  0  0  0  2  0  0  0  0  0  0
  185.4450  178.9390  146.6050 C   0  0  2  0  0  3  0  0  0  0  0  0
  193.8330  174.1320  143.4990 C   0  0  0  0  0  2  0  0  0  0  0  0
  189.2520  175.1280  141.2890 N   0  0  0  0  0  0  0  0  0  0  0  0
  190.2070  175.4890  143.4570 C   0  0  0  0  0  0  0  0  0  0  0  0
  189.1460  175.6310  142.5530 C   0  0  0  0  0  0  0  0  0  0  0  0
  187.8310  176.8200  144.2400 C   0  0  0  0  0  0  0  0  0  0  0  0
  185.9410  179.2860  147.9480 N   0  0  0  0  0  0  0  0  0  0  0  0
  194.5660  175.6660  146.1380 C   0  0  0  0  0  2  0  0  0  0  0  0
  192.6330  174.9890  143.8900 C   0  0  2  0  0  3  0  0  0  0  0  0
  187.2010  178.6660  148.0360 N   0  0  0  0  0  0  0  0  0  0  0  0
  193.3980  174.6810  146.3440 C   0  0  0  0  0  2  0  0  0  0  0  0
  195.0310  174.6070  144.2010 N   0  0  0  0  0  0  0  0  0  0  0  0
  186.9260  176.4160  142.0020 C   0  0  0  0  0  3  0  0  0  0  0  0
  187.9630  176.2950  142.9400 C   0  0  0  0  0  0  0  0  0  0  0  0
  186.5310  177.5230  144.6090 C   0  0  0  0  0  2  0  0  0  0  0  0
  191.2690  175.9150  145.7260 C   0  0  0  0  0  2  0  0  0  0  0  0
  189.5930  177.1310  147.4440 O   0  0  0  0  0  0  0  0  0  0  0  0
  184.1690  178.1270  146.7310 C   0  0  0  0  0  1  0  0  0  0  0  0
  188.8980  176.6730  145.1730 C   0  0  0  0  0  0  0  0  0  0  0  0
  186.5220  178.1160  145.9850 C   0  0  0  0  0  0  0  0  0  0  0  0
  196.2860  173.9090  144.1580 C   0  0  0  0  0  3  0  0  0  0  0  0
  196.5570  172.7670  144.7970 C   0  0  0  0  0  0  0  0  0  0  0  0
  197.9030  172.1600  144.6380 C   0  0  0  0  0  1  0  0  0  0  0  0
  195.6270  172.1380  145.6160 O   0  0  0  0  0  1  0  0  0  0  0  0
  1 16  1  0  0  0  0
  2 27  1  0  0  0  0
  2 24  1  0  0  0  0
  3  4  2  0  0  0  0
  3 11  1  0  0  0  0
  4 21  1  0  0  0  0
  5  6  1  0  0  0  0
  5 25  2  0  0  0  0
  6 18  1  0  0  0  0
  7 24  1  1  0  0  0
  7 19  1  0  0  0  0
  8 12  1  0  0  0  0
  9 26  1  1  0  0  0
  9 15  1  0  0  0  0
 10 17  1  0  0  0  0
 10 20  1  0  0  0  0
 11 13  2  0  0  0  0
 12  2  2  0  0  0  0
 13 22  1  0  0  0  0
 13 12  1  0  0  0  0
 14 23  1  0  0  0  0
 14 27  2  0  0  0  0
 15 18  2  0  0  0  0
 16 19  1  0  0  0  0
 17  8  1  6  0  0  0
 17  7  1  0  0  0  0
 20  1  1  0  0  0  0
 21 22  2  0  0  0  0
 22 14  1  0  0  0  0
 23 28  1  0  0  0  0
 27  5  1  0  0  0  0
 28  9  1  0  0  0  0
 28  6  2  0  0  0  0
 29 20  1  0  0  0  0
 29 30  2  0  0  0  0
 30 32  1  0  0  0  0
 31 30  1  0  0  0  0
M  END
>  <MODEL>
4

>  <REMARK>
 VINA RESULT:      -8.2      2.836      5.054
  Name = 
  1 active torsions:
  status: ('A' for Active; 'I' for Inactive)
    1  A    between atoms: N_20  and  C_29
                            x       y       z     vdW  Elec       q    Type
                         _______ _______ _______ _____ _____    ______ ____

>  <TORSDO>
F 1

$$$$
=
 OpenBabel11112416403D

 32 37  0  0  1  0  0  0  0  0999 V2000
  193.0430  173.4980  142.5800 O   0  0  0  0  0  0  0  0  0  0  0  0
  188.6090  175.4550  143.3790 C   0  0  0  0  0  0  0  0  0  0  0  0
  186.5560  177.0430  139.3070 C   0  0  0  0  0  3  0  0  0  0  0  0
  185.7340  177.9160  140.0180 C   0  0  0  0  0  3  0  0  0  0  0  0
  187.8900  176.4100  145.6390 C   0  0  0  0  0  0  0  0  0  0  0  0
  187.0620  177.3870  146.3400 C   0  0  0  0  0  0  0  0  0  0  0  0
  190.1080  173.4340  143.1960 C   0  0  1  0  0  3  0  0  0  0  0  0
  189.2880  174.4680  141.1120 C   0  0  0  0  0  2  0  0  0  0  0  0
  185.5580  179.0410  146.7470 C   0  0  2  0  0  3  0  0  0  0  0  0
  191.2780  172.9260  141.0030 C   0  0  0  0  0  2  0  0  0  0  0  0
  187.4410  176.2520  139.9670 N   0  0  0  0  0  0  0  0  0  0  0  0
  188.4950  175.4410  141.9610 C   0  0  0  0  0  0  0  0  0  0  0  0
  187.5650  176.2760  141.3270 C   0  0  0  0  0  0  0  0  0  0  0  0
  186.8620  177.1810  143.4880 C   0  0  0  0  0  0  0  0  0  0  0  0
  186.1730  178.6800  148.0360 N   0  0  0  0  0  0  0  0  0  0  0  0
  192.6050  173.0370  143.8460 C   0  0  0  0  0  2  0  0  0  0  0  0
  190.5270  173.9650  141.8280 C   0  0  2  0  0  3  0  0  0  0  0  0
  187.0810  177.6520  147.7240 N   0  0  0  0  0  0  0  0  0  0  0  0
  191.1440  172.5470  143.9050 C   0  0  0  0  0  2  0  0  0  0  0  0
  192.5770  172.6430  141.6240 N   0  0  0  0  0  0  0  0  0  0  0  0
  185.8350  177.9620  141.4070 C   0  0  0  0  0  3  0  0  0  0  0  0
  186.7520  177.1440  142.0850 C   0  0  0  0  0  0  0  0  0  0  0  0
  185.9560  178.1340  144.2600 C   0  0  0  0  0  2  0  0  0  0  0  0
  189.6750  174.6100  144.0530 C   0  0  0  0  0  2  0  0  0  0  0  0
  188.6520  175.6630  146.3080 O   0  0  0  0  0  0  0  0  0  0  0  0
  184.0660  178.7680  146.8040 C   0  0  0  0  0  1  0  0  0  0  0  0
  187.7950  176.3310  144.1470 C   0  0  0  0  0  0  0  0  0  0  0  0
  186.2070  178.1570  145.7370 C   0  0  0  0  0  0  0  0  0  0  0  0
  193.4480  171.5970  141.1660 C   0  0  0  0  0  3  0  0  0  0  0  0
  193.2780  170.2920  141.4010 C   0  0  0  0  0  0  0  0  0  0  0  0
  194.2630  169.3310  140.8420 C   0  0  0  0  0  1  0  0  0  0  0  0
  192.2220  169.8080  142.1620 O   0  0  0  0  0  1  0  0  0  0  0  0
  1 16  1  0  0  0  0
  2 24  1  0  0  0  0
  2 27  1  0  0  0  0
  3 11  2  0  0  0  0
  3  4  1  0  0  0  0
  4 21  2  0  0  0  0
  5 25  2  0  0  0  0
  5  6  1  0  0  0  0
  6 18  1  0  0  0  0
  7 19  1  1  0  0  0
  7 24  1  0  0  0  0
  8 17  1  0  0  0  0
  8 12  1  0  0  0  0
  9 26  1  1  0  0  0
  9 15  1  0  0  0  0
 10 20  1  0  0  0  0
 11 13  1  0  0  0  0
 12  2  2  0  0  0  0
 13 12  1  0  0  0  0
 13 22  2  0  0  0  0
 14 27  2  0  0  0  0
 14 23  1  0  0  0  0
 16 19  1  0  0  0  0
 17 10  1  6  0  0  0
 17  7  1  0  0  0  0
 18 15  2  0  0  0  0
 20  1  1  0  0  0  0
 21 22  1  0  0  0  0
 22 14  1  0  0  0  0
 23 28  1  0  0  0  0
 27  5  1  0  0  0  0
 28  6  2  0  0  0  0
 28  9  1  0  0  0  0
 29 30  2  0  0  0  0
 29 20  1  0  0  0  0
 30 32  1  0  0  0  0
 31 30  1  0  0  0  0
M  END
>  <MODEL>
5

>  <REMARK>
 VINA RESULT:      -8.1      2.901      5.405
  Name = 
  1 active torsions:
  status: ('A' for Active; 'I' for Inactive)
    1  A    between atoms: N_20  and  C_29
                            x       y       z     vdW  Elec       q    Type
                         _______ _______ _______ _____ _____    ______ ____

>  <TORSDO>
F 1

$$$$
=
 OpenBabel11112416403D

 32 37  0  0  1  0  0  0  0  0999 V2000
  187.8220  176.1110  146.3160 O   0  0  0  0  0  0  0  0  0  0  0  0
  191.4430  175.5640  143.0430 C   0  0  0  0  0  0  0  0  0  0  0  0
  190.1550  172.7220  139.3570 C   0  0  0  0  0  3  0  0  0  0  0  0
  191.4860  172.4270  139.0700 C   0  0  0  0  0  3  0  0  0  0  0  0
  193.9130  175.8720  143.6260 C   0  0  0  0  0  0  0  0  0  0  0  0
  195.2900  175.4810  143.3380 C   0  0  0  0  0  0  0  0  0  0  0  0
  189.6350  176.9780  144.0880 C   0  0  1  0  0  3  0  0  0  0  0  0
  188.9720  175.2880  142.4170 C   0  0  0  0  0  2  0  0  0  0  0  0
  197.0910  174.4900  142.3720 C   0  0  2  0  0  3  0  0  0  0  0  0
  187.2140  176.2270  143.9610 C   0  0  0  0  0  2  0  0  0  0  0  0
  189.8480  173.5490  140.3900 N   0  0  0  0  0  0  0  0  0  0  0  0
  190.4400  174.9610  142.2340 C   0  0  0  0  0  0  0  0  0  0  0  0
  190.8070  174.1150  141.1780 C   0  0  0  0  0  0  0  0  0  0  0  0
  193.1730  174.4190  141.7230 C   0  0  0  0  0  0  0  0  0  0  0  0
  197.5840  175.2720  143.5200 N   0  0  0  0  0  0  0  0  0  0  0  0
  188.7460  177.1620  146.5360 C   0  0  0  0  0  2  0  0  0  0  0  0
  188.6760  175.8240  143.8060 C   0  0  2  0  0  3  0  0  0  0  0  0
  196.4320  175.8660  144.0670 N   0  0  0  0  0  0  0  0  0  0  0  0
  189.2470  177.8830  145.2680 C   0  0  0  0  0  2  0  0  0  0  0  0
  186.9260  176.5160  145.3700 N   0  0  0  0  0  0  0  0  0  0  0  0
  192.4900  172.9900  139.8570 C   0  0  0  0  0  3  0  0  0  0  0  0
  192.1670  173.8430  140.9230 C   0  0  0  0  0  0  0  0  0  0  0  0
  194.6280  174.0970  141.4010 C   0  0  0  0  0  2  0  0  0  0  0  0
  191.0360  176.4110  144.2340 C   0  0  0  0  0  2  0  0  0  0  0  0
  193.6920  176.6870  144.5610 O   0  0  0  0  0  0  0  0  0  0  0  0
  197.7080  175.0250  141.0930 C   0  0  0  0  0  1  0  0  0  0  0  0
  192.8150  175.2890  142.7930 C   0  0  0  0  0  0  0  0  0  0  0  0
  195.6140  174.6920  142.3580 C   0  0  0  0  0  0  0  0  0  0  0  0
  185.6750  177.0680  145.8110 C   0  0  0  0  0  3  0  0  0  0  0  0
  185.2620  178.3190  145.5890 C   0  0  0  0  0  0  0  0  0  0  0  0
  183.9300  178.7340  146.1000 C   0  0  0  0  0  1  0  0  0  0  0  0
  186.0420  179.2480  144.9100 O   0  0  0  0  0  1  0  0  0  0  0  0
  1 16  1  0  0  0  0
  2 24  1  0  0  0  0
  3 11  1  0  0  0  0
  4  3  2  0  0  0  0
  4 21  1  0  0  0  0
  5 25  2  0  0  0  0
  6  5  1  0  0  0  0
  6 18  1  0  0  0  0
  7 24  1  1  0  0  0
  7 19  1  0  0  0  0
  9 26  1  6  0  0  0
  9 15  1  0  0  0  0
 10 20  1  0  0  0  0
 11 13  2  0  0  0  0
 12  8  1  0  0  0  0
 12  2  2  0  0  0  0
 13 12  1  0  0  0  0
 14 27  2  0  0  0  0
 15 18  2  0  0  0  0
 17  8  1  6  0  0  0
 17 10  1  0  0  0  0
 17  7  1  0  0  0  0
 19 16  1  0  0  0  0
 20 29  1  0  0  0  0
 20  1  1  0  0  0  0
 21 22  2  0  0  0  0
 22 13  1  0  0  0  0
 22 14  1  0  0  0  0
 23 14  1  0  0  0  0
 23 28  1  0  0  0  0
 27  2  1  0  0  0  0
 27  5  1  0  0  0  0
 28  9  1  0  0  0  0
 28  6  2  0  0  0  0
 30 29  2  0  0  0  0
 30 31  1  0  0  0  0
 32 30  1  0  0  0  0
M  END
>  <MODEL>
6

>  <REMARK>
 VINA RESULT:      -8.1      3.034      9.275
  Name = 
  1 active torsions:
  status: ('A' for Active; 'I' for Inactive)
    1  A    between atoms: N_20  and  C_29
                            x       y       z     vdW  Elec       q    Type
                         _______ _______ _______ _____ _____    ______ ____

>  <TORSDO>
F 1

$$$$
=
 OpenBabel11112416403D

 32 37  0  0  1  0  0  0  0  0999 V2000
  190.7730  171.0140  140.9260 O   0  0  0  0  0  0  0  0  0  0  0  0
  189.4370  175.2680  142.9850 C   0  0  0  0  0  0  0  0  0  0  0  0
  191.6930  176.0500  147.1830 C   0  0  0  0  0  3  0  0  0  0  0  0
  190.6920  176.9250  147.6010 C   0  0  0  0  0  3  0  0  0  0  0  0
  187.2110  176.4250  142.4880 C   0  0  0  0  0  0  0  0  0  0  0  0
  186.1500  177.2910  142.9920 C   0  0  0  0  0  0  0  0  0  0  0  0
  190.7110  174.0000  141.2170 C   0  0  1  0  0  3  0  0  0  0  0  0
  191.6940  174.1540  143.4750 C   0  0  0  0  0  2  0  0  0  0  0  0
  184.9490  178.6610  144.3490 C   0  0  2  0  0  3  0  0  0  0  0  0
  192.5400  172.3780  141.8980 C   0  0  0  0  0  2  0  0  0  0  0  0
  191.6090  175.4490  145.9680 N   0  0  0  0  0  0  0  0  0  0  0  0
  190.5190  175.0240  143.8760 C   0  0  0  0  0  0  0  0  0  0  0  0
  190.5620  175.6690  145.1190 C   0  0  0  0  0  0  0  0  0  0  0  0
  188.4410  176.7900  144.6410 C   0  0  0  0  0  0  0  0  0  0  0  0
  184.1460  178.4320  143.1350 N   0  0  0  0  0  2  0  0  0  0  0  0
  190.1820  171.8030  139.9090 C   0  0  0  0  0  2  0  0  0  0  0  0
  191.3360  173.1960  142.3530 C   0  0  2  0  0  3  0  0  0  0  0  0
  184.9410  177.5910  142.3340 N   0  0  0  0  0  0  0  0  0  0  0  0
  190.6350  173.2770  139.8630 C   0  0  0  0  0  2  0  0  0  0  0  0
  192.1020  171.3160  140.9870 N   0  0  0  0  0  0  0  0  0  0  0  0
  189.6110  177.1710  146.7570 C   0  0  0  0  0  3  0  0  0  0  0  0
  189.5280  176.5470  145.5020 C   0  0  0  0  0  0  0  0  0  0  0  0
  187.3520  177.7520  145.1010 C   0  0  0  0  0  3  0  0  0  0  0  0
  189.3550  174.5040  141.6770 C   0  0  0  0  0  2  0  0  0  0  0  0
  187.1070  175.9400  141.3290 O   0  0  0  0  0  0  0  0  0  0  0  0
  185.2650  180.1390  144.4750 C   0  0  0  0  0  1  0  0  0  0  0  0
  188.3890  176.1490  143.3690 C   0  0  0  0  0  0  0  0  0  0  0  0
  186.2020  177.8790  144.1490 C   0  0  0  0  0  0  0  0  0  0  0  0
  193.0230  170.4760  140.2710 C   0  0  0  0  0  3  0  0  0  0  0  0
  193.7060  170.8330  139.1800 C   0  0  0  0  0  0  0  0  0  0  0  0
  194.6340  169.8510  138.5630 C   0  0  0  0  0  1  0  0  0  0  0  0
  193.5660  172.0860  138.5960 O   0  0  0  0  0  1  0  0  0  0  0  0
  1 20  1  0  0  0  0
  2 27  2  0  0  0  0
  2 12  1  0  0  0  0
  3  4  1  0  0  0  0
  5  6  1  0  0  0  0
  5 27  1  0  0  0  0
  6 28  1  0  0  0  0
  7 19  1  6  0  0  0
  7 24  1  0  0  0  0
  7 17  1  0  0  0  0
  8 12  1  0  0  0  0
  9 26  1  6  0  0  0
 11  3  2  0  0  0  0
 12 13  2  0  0  0  0
 13 22  1  0  0  0  0
 13 11  1  0  0  0  0
 14 23  1  0  0  0  0
 14 22  2  0  0  0  0
 15  9  1  0  0  0  0
 16  1  1  0  0  0  0
 17 10  1  6  0  0  0
 17  8  1  0  0  0  0
 18  6  2  0  0  0  0
 18 15  1  0  0  0  0
 19 16  1  0  0  0  0
 20 10  1  0  0  0  0
 21  4  2  0  0  0  0
 22 21  1  0  0  0  0
 24  2  1  0  0  0  0
 25  5  2  0  0  0  0
 27 14  1  0  0  0  0
 28  9  1  0  0  0  0
 28 23  2  0  0  0  0
 29 20  1  0  0  0  0
 30 29  2  0  0  0  0
 31 30  1  0  0  0  0
 32 30  1  0  0  0  0
M  END
>  <MODEL>
7

>  <REMARK>
 VINA RESULT:      -8.1      3.345      4.823
  Name = 
  1 active torsions:
  status: ('A' for Active; 'I' for Inactive)
    1  A    between atoms: N_20  and  C_29
                            x       y       z     vdW  Elec       q    Type
                         _______ _______ _______ _____ _____    ______ ____

>  <TORSDO>
F 1

$$$$
=
 OpenBabel11112416403D

 32 37  0  0  1  0  0  0  0  0999 V2000
  187.0950  177.7710  141.3930 O   0  0  0  0  0  0  0  0  0  0  0  0
  190.5160  176.0730  144.4820 C   0  0  0  0  0  0  0  0  0  0  0  0
  190.2350  178.1490  148.8340 C   0  0  0  0  0  3  0  0  0  0  0  0
  191.5660  177.8430  149.1070 C   0  0  0  0  0  3  0  0  0  0  0  0
  192.7120  175.0250  143.6980 C   0  0  0  0  0  0  0  0  0  0  0  0
  194.1210  174.7860  143.9950 C   0  0  0  0  0  0  0  0  0  0  0  0
  188.3550  175.7540  143.2220 C   0  0  1  0  0  3  0  0  0  0  0  0
  188.3050  177.0830  145.3000 C   0  0  0  0  0  2  0  0  0  0  0  0
  196.1200  174.7520  145.0720 C   0  0  2  0  0  3  0  0  0  0  0  0
  186.3900  177.2950  143.6740 C   0  0  0  0  0  2  0  0  0  0  0  0
  189.6830  177.7900  147.6450 N   0  0  0  0  0  0  0  0  0  0  0  0
  189.7790  176.7790  145.4740 C   0  0  0  0  0  0  0  0  0  0  0  0
  190.3930  177.1270  146.6850 C   0  0  0  0  0  0  0  0  0  0  0  0
  192.4920  176.1120  145.9450 C   0  0  0  0  0  0  0  0  0  0  0  0
  196.3310  174.1630  143.7380 N   0  0  0  0  0  2  0  0  0  0  0  0
  187.5660  176.5450  140.8620 C   0  0  0  0  0  2  0  0  0  0  0  0
  187.8890  177.0690  143.8410 C   0  0  2  0  0  3  0  0  0  0  0  0
  195.0650  174.2020  143.1270 N   0  0  0  0  0  0  0  0  0  0  0  0
  187.7050  175.3910  141.8770 C   0  0  0  0  0  2  0  0  0  0  0  0
  186.0740  177.5030  142.2570 N   0  0  0  0  0  0  0  0  0  0  0  0
  192.3170  177.1660  148.1470 C   0  0  0  0  0  3  0  0  0  0  0  0
  191.7430  176.7970  146.9210 C   0  0  0  0  0  0  0  0  0  0  0  0
  193.9460  175.7740  146.2520 C   0  0  0  0  0  3  0  0  0  0  0  0
  189.8710  175.7730  143.1420 C   0  0  0  0  0  2  0  0  0  0  0  0
  192.2400  174.6190  142.6020 O   0  0  0  0  0  0  0  0  0  0  0  0
  196.4370  173.7180  146.1370 C   0  0  0  0  0  1  0  0  0  0  0  0
  191.8780  175.7420  144.7130 C   0  0  0  0  0  0  0  0  0  0  0  0
  194.6760  175.1190  145.1210 C   0  0  0  0  0  0  0  0  0  0  0  0
  184.7270  177.5910  141.7640 C   0  0  0  0  0  3  0  0  0  0  0  0
  183.7410  178.2910  142.3330 C   0  0  0  0  0  0  0  0  0  0  0  0
  182.4020  178.2930  141.6900 C   0  0  0  0  0  1  0  0  0  0  0  0
  183.9230  179.0030  143.5120 O   0  0  0  0  0  1  0  0  0  0  0  0
  1 20  1  0  0  0  0
  2 27  2  0  0  0  0
  2 12  1  0  0  0  0
  3  4  1  0  0  0  0
  5  6  1  0  0  0  0
  5 27  1  0  0  0  0
  6 28  1  0  0  0  0
  7 19  1  6  0  0  0
  7 17  1  0  0  0  0
  8 12  1  0  0  0  0
  9 28  1  0  0  0  0
  9 26  1  1  0  0  0
 11  3  2  0  0  0  0
 12 13  2  0  0  0  0
 13 22  1  0  0  0  0
 13 11  1  0  0  0  0
 14 23  1  0  0  0  0
 14 22  2  0  0  0  0
 15  9  1  0  0  0  0
 16  1  1  0  0  0  0
 16 19  1  0  0  0  0
 17 10  1  1  0  0  0
 17  8  1  0  0  0  0
 18 15  1  0  0  0  0
 18  6  2  0  0  0  0
 20 10  1  0  0  0  0
 21  4  2  0  0  0  0
 22 21  1  0  0  0  0
 24  7  1  0  0  0  0
 24  2  1  0  0  0  0
 25  5  2  0  0  0  0
 27 14  1  0  0  0  0
 28 23  2  0  0  0  0
 29 20  1  0  0  0  0
 29 30  2  0  0  0  0
 30 32  1  0  0  0  0
 31 30  1  0  0  0  0
M  END
>  <MODEL>
8

>  <REMARK>
 VINA RESULT:      -7.8      2.061      8.500
  Name = 
  1 active torsions:
  status: ('A' for Active; 'I' for Inactive)
    1  A    between atoms: N_20  and  C_29
                            x       y       z     vdW  Elec       q    Type
                         _______ _______ _______ _____ _____    ______ ____

>  <TORSDO>
F 1

$$$$
=
 OpenBabel11112416403D

 32 37  0  0  1  0  0  0  0  0999 V2000
  194.7390  174.5390  144.5220 O   0  0  0  0  0  0  0  0  0  0  0  0
  190.0710  175.0350  143.0780 C   0  0  0  0  0  0  0  0  0  0  0  0
  189.3350  173.2640  138.6450 C   0  0  0  0  0  3  0  0  0  0  0  0
  188.2050  174.0600  138.4740 C   0  0  0  0  0  3  0  0  0  0  0  0
  188.4930  176.8060  144.0320 C   0  0  0  0  0  0  0  0  0  0  0  0
  187.3460  177.6740  143.7850 C   0  0  0  0  0  0  0  0  0  0  0  0
  191.8110  173.8880  144.4980 C   0  0  1  0  0  3  0  0  0  0  0  0
  191.6170  173.2230  142.1290 C   0  0  0  0  0  2  0  0  0  0  0  0
  185.5760  178.6700  142.7660 C   0  0  2  0  0  3  0  0  0  0  0  0
  193.7220  172.6390  143.3890 C   0  0  0  0  0  2  0  0  0  0  0  0
  190.0430  173.3260  139.8030 N   0  0  0  0  0  0  0  0  0  0  0  0
  190.4530  174.1840  142.0030 C   0  0  0  0  0  0  0  0  0  0  0  0
  189.6890  174.1550  140.8290 C   0  0  0  0  0  0  0  0  0  0  0  0
  188.1670  175.8370  141.7440 C   0  0  0  0  0  0  0  0  0  0  0  0
  185.7560  179.3270  144.0720 N   0  0  0  0  0  0  0  0  0  0  0  0
  193.9640  174.7650  145.6850 C   0  0  0  0  0  2  0  0  0  0  0  0
  192.5940  173.6500  143.2100 C   0  0  2  0  0  3  0  0  0  0  0  0
  186.8520  178.6660  144.6570 N   0  0  0  0  0  0  0  0  0  0  0  0
  192.6550  173.9540  145.7800 C   0  0  0  0  0  2  0  0  0  0  0  0
  194.7550  173.1990  144.2670 N   0  0  0  0  0  0  0  0  0  0  0  0
  187.8160  174.9160  139.5030 C   0  0  0  0  0  3  0  0  0  0  0  0
  188.5510  174.9780  140.6970 C   0  0  0  0  0  0  0  0  0  0  0  0
  186.9260  176.7020  141.5530 C   0  0  0  0  0  2  0  0  0  0  0  0
  190.9490  175.1240  144.3120 C   0  0  0  0  0  2  0  0  0  0  0  0
  189.0770  176.8670  145.1470 O   0  0  0  0  0  0  0  0  0  0  0  0
  184.2100  178.0120  142.7150 C   0  0  0  0  0  1  0  0  0  0  0  0
  188.9280  175.8700  142.9480 C   0  0  0  0  0  0  0  0  0  0  0  0
  186.6500  177.6380  142.6890 C   0  0  0  0  0  0  0  0  0  0  0  0
  195.8690  172.4290  144.7480 C   0  0  0  0  0  3  0  0  0  0  0  0
  195.7870  171.3940  145.5880 C   0  0  0  0  0  0  0  0  0  0  0  0
  197.0350  170.6890  145.9790 C   0  0  0  0  0  1  0  0  0  0  0  0
  194.5770  170.9650  146.1200 O   0  0  0  0  0  1  0  0  0  0  0  0
  1 16  1  0  0  0  0
  2 24  1  0  0  0  0
  3 11  1  0  0  0  0
  4  3  2  0  0  0  0
  4 21  1  0  0  0  0
  5 25  2  0  0  0  0
  6  5  1  0  0  0  0
  6 18  1  0  0  0  0
  7 24  1  6  0  0  0
  7 19  1  0  0  0  0
  9 26  1  1  0  0  0
  9 15  1  0  0  0  0
 10 20  1  0  0  0  0
 11 13  2  0  0  0  0
 12  8  1  0  0  0  0
 12  2  2  0  0  0  0
 13 12  1  0  0  0  0
 14 27  2  0  0  0  0
 15 18  2  0  0  0  0
 16 19  1  0  0  0  0
 17  8  1  6  0  0  0
 17 10  1  0  0  0  0
 17  7  1  0  0  0  0
 20  1  1  0  0  0  0
 20 29  1  0  0  0  0
 21 22  2  0  0  0  0
 22 13  1  0  0  0  0
 22 14  1  0  0  0  0
 23 14  1  0  0  0  0
 23 28  1  0  0  0  0
 27  2  1  0  0  0  0
 27  5  1  0  0  0  0
 28  9  1  0  0  0  0
 28  6  2  0  0  0  0
 29 30  2  0  0  0  0
 30 31  1  0  0  0  0
 30 32  1  0  0  0  0
M  END
>  <MODEL>
9

>  <REMARK>
 VINA RESULT:      -7.7      2.916      5.295
  Name = 
  1 active torsions:
  status: ('A' for Active; 'I' for Inactive)
    1  A    between atoms: N_20  and  C_29
                            x       y       z     vdW  Elec       q    Type
                         _______ _______ _______ _____ _____    ______ ____

>  <TORSDO>
F 1

$$$$
