=
 OpenBabel11112417353D

 28 32  0  0  1  0  0  0  0  0999 V2000
  186.1210  178.3250  144.3100 C   0  0  0  0  0  0  0  0  0  0  0  0
  189.1940  177.7760  147.2360 O   0  0  0  0  0  0  0  0  0  0  0  0
  188.0370  174.3910  140.2010 O   0  0  0  0  0  0  0  0  0  0  0  0
  185.1150  176.9000  146.5060 C   0  0  0  0  0  3  0  0  0  0  0  0
  189.6860  175.0230  141.7700 N   0  0  0  0  0  0  0  0  0  0  0  0
  186.6080  179.1290  143.1480 C   0  0  0  0  0  2  0  0  0  0  0  0
  188.6610  175.3650  147.3780 O   0  0  0  0  0  0  0  0  0  0  0  0
  189.4950  176.4080  146.6910 S   0  0  0  0  0  0  0  0  0  0  0  0
  191.9350  175.5090  145.8220 C   0  0  0  0  0  0  0  0  0  0  0  0
  189.2270  176.3770  144.9850 N   0  0  0  0  0  0  0  0  0  0  0  0
  185.1010  177.6620  140.1570 O   0  0  0  0  0  0  0  0  0  0  0  0
  188.4090  176.5650  142.9260 C   0  0  0  0  0  0  0  0  0  0  0  0
  191.2780  174.9850  144.5720 C   0  0  0  0  0  2  0  0  0  0  0  0
  191.1690  176.0490  146.9060 N   0  0  0  0  0  2  0  0  0  0  0  0
  186.0050  177.9600  140.9800 C   0  0  0  0  0  0  0  0  0  0  0  0
  186.8580  177.2400  144.8400 C   0  0  0  0  0  0  0  0  0  0  0  0
  188.3980  175.1230  141.1600 C   0  0  0  0  0  0  0  0  0  0  0  0
  193.5240  175.2170  146.0470 S   0  0  0  0  0  0  0  0  0  0  0  0
  187.3500  177.3250  140.8450 C   0  0  0  0  0  2  0  0  0  0  0  0
  186.3360  176.5360  145.9330 C   0  0  0  0  0  3  0  0  0  0  0  0
  184.9010  178.6860  144.8970 C   0  0  0  0  0  3  0  0  0  0  0  0
  184.3980  177.9780  145.9880 C   0  0  0  0  0  3  0  0  0  0  0  0
  185.7310  178.9150  142.0050 N   0  0  0  0  0  2  0  0  0  0  0  0
  189.6120  175.9340  142.8530 C   0  0  0  0  0  0  0  0  0  0  0  0
  187.5080  176.1570  141.8030 C   0  0  2  0  0  3  0  0  0  0  0  0
  190.1150  175.8270  144.1320 C   0  0  0  0  0  0  0  0  0  0  0  0
  190.5640  173.8690  141.6790 C   0  0  0  0  0  1  0  0  0  0  0  0
  188.1570  176.8140  144.2680 C   0  0  0  0  0  0  0  0  0  0  0  0
  1 16  2  0  0  0  0
  1 21  1  0  0  0  0
  3 17  2  0  0  0  0
  5 24  1  0  0  0  0
  6  1  1  0  0  0  0
  8 14  1  0  0  0  0
  8  2  2  0  0  0  0
  8  7  2  0  0  0  0
  9 18  2  0  0  0  0
  9 14  1  0  0  0  0
 10  8  1  0  0  0  0
 11 15  2  0  0  0  0
 12 28  2  0  0  0  0
 13  9  1  0  0  0  0
 15 23  1  0  0  0  0
 16 20  1  0  0  0  0
 17  5  1  0  0  0  0
 17 25  1  0  0  0  0
 19 15  1  0  0  0  0
 20  4  2  0  0  0  0
 21 22  2  0  0  0  0
 22  4  1  0  0  0  0
 23  6  1  0  0  0  0
 24 12  1  0  0  0  0
 24 26  2  0  0  0  0
 25 19  1  6  0  0  0
 25 12  1  0  0  0  0
 26 13  1  0  0  0  0
 26 10  1  0  0  0  0
 27  5  1  0  0  0  0
 28 16  1  0  0  0  0
 28 10  1  0  0  0  0
M  END
>  <MODEL>
1

>  <REMARK>
 VINA RESULT:      -9.3      0.000      0.000
  Name = 
  0 active torsions:
  status: ('A' for Active; 'I' for Inactive)
                            x       y       z     vdW  Elec       q    Type
                         _______ _______ _______ _____ _____    ______ ____

>  <TORSDO>
F 0

$$$$
=
 OpenBabel11112417353D

 28 32  0  0  1  0  0  0  0  0999 V2000
  185.8580  177.1300  143.9680 C   0  0  0  0  0  0  0  0  0  0  0  0
  187.7290  173.8280  141.9910 O   0  0  0  0  0  0  0  0  0  0  0  0
  190.1080  178.3010  148.0420 O   0  0  0  0  0  0  0  0  0  0  0  0
  186.7970  177.9240  141.4480 C   0  0  0  0  0  3  0  0  0  0  0  0
  190.2700  176.1530  147.0730 N   0  0  0  0  0  0  0  0  0  0  0  0
  185.2970  176.7280  145.2940 C   0  0  0  0  0  2  0  0  0  0  0  0
  189.6990  175.2280  141.4670 O   0  0  0  0  0  0  0  0  0  0  0  0
  189.0800  174.2880  142.4610 S   0  0  0  0  0  0  0  0  0  0  0  0
  190.8900  172.8070  143.8910 C   0  0  0  0  0  0  0  0  0  0  0  0
  188.9450  175.0400  144.0100 N   0  0  0  0  0  0  0  0  0  0  0  0
  185.9100  179.5170  147.5770 O   0  0  0  0  0  0  0  0  0  0  0  0
  188.3710  176.2840  145.7610 C   0  0  0  0  0  0  0  0  0  0  0  0
  191.0540  173.9600  144.8460 C   0  0  0  0  0  2  0  0  0  0  0  0
  190.1130  172.9250  142.6940 N   0  0  0  0  0  2  0  0  0  0  0  0
  186.0420  178.3700  147.0770 C   0  0  0  0  0  0  0  0  0  0  0  0
  187.1670  176.7780  143.5640 C   0  0  0  0  0  0  0  0  0  0  0  0
  189.6220  177.4060  147.3020 C   0  0  0  0  0  0  0  0  0  0  0  0
  191.8260  171.4860  144.0970 S   0  0  0  0  0  0  0  0  0  0  0  0
  187.1760  177.5080  147.5230 C   0  0  0  0  0  2  0  0  0  0  0  0
  187.6210  177.1900  142.3040 C   0  0  0  0  0  3  0  0  0  0  0  0
  185.0380  177.8610  143.0990 C   0  0  0  0  0  3  0  0  0  0  0  0
  185.5040  178.2580  141.8460 C   0  0  0  0  0  3  0  0  0  0  0  0
  185.0910  177.9120  146.1150 N   0  0  0  0  0  2  0  0  0  0  0  0
  189.4450  175.5240  146.1090 C   0  0  0  0  0  0  0  0  0  0  0  0
  188.3310  177.5620  146.5380 C   0  0  2  0  0  3  0  0  0  0  0  0
  189.7900  174.7510  145.0200 C   0  0  0  0  0  0  0  0  0  0  0  0
  191.6830  175.8920  147.2950 C   0  0  0  0  0  1  0  0  0  0  0  0
  188.0800  175.9990  144.4340 C   0  0  0  0  0  0  0  0  0  0  0  0
  1  6  1  0  0  0  0
  2  8  2  0  0  0  0
  4 22  2  0  0  0  0
  4 20  1  0  0  0  0
  5 27  1  0  0  0  0
  5 17  1  0  0  0  0
  6 23  1  0  0  0  0
  7  8  2  0  0  0  0
  8 14  1  0  0  0  0
  8 10  1  0  0  0  0
  9 18  2  0  0  0  0
  9 13  1  0  0  0  0
 10 28  1  0  0  0  0
 10 26  1  0  0  0  0
 12 24  1  0  0  0  0
 12 25  1  0  0  0  0
 13 26  1  0  0  0  0
 14  9  1  0  0  0  0
 15 19  1  0  0  0  0
 15 11  2  0  0  0  0
 16  1  1  0  0  0  0
 16 28  1  0  0  0  0
 17  3  2  0  0  0  0
 20 16  2  0  0  0  0
 21  1  2  0  0  0  0
 22 21  1  0  0  0  0
 23 15  1  0  0  0  0
 24  5  1  0  0  0  0
 25 17  1  0  0  0  0
 25 19  1  1  0  0  0
 26 24  2  0  0  0  0
 28 12  2  0  0  0  0
M  END
>  <MODEL>
2

>  <REMARK>
 VINA RESULT:      -8.3      2.368      4.819
  Name = 
  0 active torsions:
  status: ('A' for Active; 'I' for Inactive)
                            x       y       z     vdW  Elec       q    Type
                         _______ _______ _______ _____ _____    ______ ____

>  <TORSDO>
F 0

$$$$
=
 OpenBabel11112417353D

 28 32  0  0  1  0  0  0  0  0999 V2000
  189.6260  174.7140  143.5060 C   0  0  0  0  0  0  0  0  0  0  0  0
  190.0300  173.7700  139.3530 O   0  0  0  0  0  0  0  0  0  0  0  0
  184.5750  177.9470  143.2360 O   0  0  0  0  0  0  0  0  0  0  0  0
  188.9840  172.0210  143.0650 C   0  0  0  0  0  3  0  0  0  0  0  0
  185.6690  177.6970  141.1580 N   0  0  0  0  0  0  0  0  0  0  0  0
  190.0130  176.1310  143.7860 C   0  0  0  0  0  2  0  0  0  0  0  0
  187.7940  172.7140  139.3510 O   0  0  0  0  0  0  0  0  0  0  0  0
  188.5590  173.9890  139.1400 S   0  0  0  0  0  0  0  0  0  0  0  0
  187.4180  175.7010  137.3280 C   0  0  0  0  0  0  0  0  0  0  0  0
  187.9840  175.2270  140.1990 N   0  0  0  0  0  0  0  0  0  0  0  0
  187.6720  177.3760  146.3030 O   0  0  0  0  0  0  0  0  0  0  0  0
  187.5060  176.5280  141.9370 C   0  0  0  0  0  0  0  0  0  0  0  0
  186.5240  176.2320  138.4180 C   0  0  0  0  0  2  0  0  0  0  0  0
  188.2800  174.5770  137.5420 N   0  0  0  0  0  2  0  0  0  0  0  0
  188.2140  177.2570  145.1740 C   0  0  0  0  0  0  0  0  0  0  0  0
  188.7650  174.3640  142.4400 C   0  0  0  0  0  0  0  0  0  0  0  0
  185.5750  177.5570  142.5770 C   0  0  0  0  0  0  0  0  0  0  0  0
  187.2070  176.2560  135.8080 S   0  0  0  0  0  0  0  0  0  0  0  0
  187.5640  177.8820  143.9850 C   0  0  0  0  0  2  0  0  0  0  0  0
  188.4500  173.0130  142.2400 C   0  0  0  0  0  3  0  0  0  0  0  0
  190.1610  173.7110  144.3240 C   0  0  0  0  0  3  0  0  0  0  0  0
  189.8420  172.3700  144.1070 C   0  0  0  0  0  3  0  0  0  0  0  0
  189.4480  176.5470  145.0620 N   0  0  0  0  0  2  0  0  0  0  0  0
  186.8790  177.0320  140.8390 C   0  0  0  0  0  0  0  0  0  0  0  0
  186.7640  176.8630  143.1920 C   0  0  2  0  0  3  0  0  0  0  0  0
  187.1860  176.2240  139.7650 C   0  0  0  0  0  0  0  0  0  0  0  0
  184.5430  177.9040  140.2630 C   0  0  0  0  0  1  0  0  0  0  0  0
  188.1720  175.3780  141.5370 C   0  0  0  0  0  0  0  0  0  0  0  0
  1  6  1  0  0  0  0
  1 21  1  0  0  0  0
  4 22  1  0  0  0  0
  5 17  1  0  0  0  0
  6 23  1  0  0  0  0
  8  7  2  0  0  0  0
  8  2  2  0  0  0  0
  8 10  1  0  0  0  0
  9 14  1  0  0  0  0
  9 13  1  0  0  0  0
 10 28  1  0  0  0  0
 12 25  1  0  0  0  0
 13 26  1  0  0  0  0
 14  8  1  0  0  0  0
 15 11  2  0  0  0  0
 16  1  2  0  0  0  0
 17 25  1  0  0  0  0
 17  3  2  0  0  0  0
 18  9  2  0  0  0  0
 19 15  1  0  0  0  0
 20 16  1  0  0  0  0
 20  4  2  0  0  0  0
 22 21  2  0  0  0  0
 23 15  1  0  0  0  0
 24  5  1  0  0  0  0
 24 12  1  0  0  0  0
 25 19  1  1  0  0  0
 26 10  1  0  0  0  0
 26 24  2  0  0  0  0
 27  5  1  0  0  0  0
 28 12  2  0  0  0  0
 28 16  1  0  0  0  0
M  END
>  <MODEL>
3

>  <REMARK>
 VINA RESULT:      -8.0      3.291      6.523
  Name = 
  0 active torsions:
  status: ('A' for Active; 'I' for Inactive)
                            x       y       z     vdW  Elec       q    Type
                         _______ _______ _______ _____ _____    ______ ____

>  <TORSDO>
F 0

$$$$
=
 OpenBabel11112417353D

 28 32  0  0  1  0  0  0  0  0999 V2000
  188.5020  175.7790  145.7820 C   0  0  0  0  0  0  0  0  0  0  0  0
  187.3770  173.8660  142.1250 O   0  0  0  0  0  0  0  0  0  0  0  0
  194.3090  176.7230  144.5900 O   0  0  0  0  0  0  0  0  0  0  0  0
  186.9740  177.5290  144.2120 C   0  0  0  0  0  3  0  0  0  0  0  0
  193.2940  175.1000  143.2050 N   0  0  0  0  0  0  0  0  0  0  0  0
  189.2730  174.8550  146.6700 C   0  0  0  0  0  2  0  0  0  0  0  0
  188.1500  175.8280  140.8330 O   0  0  0  0  0  0  0  0  0  0  0  0
  188.5400  174.4990  141.4140 S   0  0  0  0  0  0  0  0  0  0  0  0
  190.4950  173.1850  140.0100 C   0  0  0  0  0  0  0  0  0  0  0  0
  189.8740  174.6750  142.4970 N   0  0  0  0  0  0  0  0  0  0  0  0
  191.8850  176.8650  148.2540 O   0  0  0  0  0  0  0  0  0  0  0  0
  191.2140  175.1200  144.2140 C   0  0  0  0  0  0  0  0  0  0  0  0
  191.5370  173.9890  140.7430 C   0  0  0  0  0  2  0  0  0  0  0  0
  189.0950  173.4560  140.1560 N   0  0  0  0  0  2  0  0  0  0  0  0
  191.3810  176.0050  147.4850 C   0  0  0  0  0  0  0  0  0  0  0  0
  188.7990  175.9280  144.4080 C   0  0  0  0  0  0  0  0  0  0  0  0
  193.3130  176.0040  144.3120 C   0  0  0  0  0  0  0  0  0  0  0  0
  190.9830  172.1630  138.8360 S   0  0  0  0  0  0  0  0  0  0  0  0
  192.2350  175.3810  146.4330 C   0  0  0  0  0  2  0  0  0  0  0  0
  188.0290  176.8130  143.6410 C   0  0  0  0  0  3  0  0  0  0  0  0
  187.4380  176.4970  146.3440 C   0  0  0  0  0  3  0  0  0  0  0  0
  186.6780  177.3690  145.5650 C   0  0  0  0  0  3  0  0  0  0  0  0
  190.0130  175.6300  147.6550 N   0  0  0  0  0  2  0  0  0  0  0  0
  191.9670  174.6030  143.2060 C   0  0  0  0  0  0  0  0  0  0  0  0
  192.0160  176.0380  145.0810 C   0  0  2  0  0  3  0  0  0  0  0  0
  191.1280  174.3240  142.1480 C   0  0  0  0  0  0  0  0  0  0  0  0
  194.1840  175.1690  142.0580 C   0  0  0  0  0  1  0  0  0  0  0  0
  189.9060  175.1910  143.7540 C   0  0  0  0  0  0  0  0  0  0  0  0
  1 21  1  0  0  0  0
  1  6  1  0  0  0  0
  4 22  1  0  0  0  0
  5 24  1  0  0  0  0
  5 17  1  0  0  0  0
  6 23  1  0  0  0  0
  7  8  2  0  0  0  0
  8  2  2  0  0  0  0
  8 10  1  0  0  0  0
  9 14  1  0  0  0  0
  9 13  1  0  0  0  0
 10 28  1  0  0  0  0
 12 25  1  0  0  0  0
 13 26  1  0  0  0  0
 14  8  1  0  0  0  0
 15 23  1  0  0  0  0
 15 11  2  0  0  0  0
 16  1  2  0  0  0  0
 17  3  2  0  0  0  0
 17 25  1  0  0  0  0
 18  9  2  0  0  0  0
 19 15  1  0  0  0  0
 20  4  2  0  0  0  0
 20 16  1  0  0  0  0
 22 21  2  0  0  0  0
 24 12  1  0  0  0  0
 25 19  1  1  0  0  0
 26 10  1  0  0  0  0
 26 24  2  0  0  0  0
 27  5  1  0  0  0  0
 28 12  2  0  0  0  0
 28 16  1  0  0  0  0
M  END
>  <MODEL>
4

>  <REMARK>
 VINA RESULT:      -7.8      2.821      5.685
  Name = 
  0 active torsions:
  status: ('A' for Active; 'I' for Inactive)
                            x       y       z     vdW  Elec       q    Type
                         _______ _______ _______ _____ _____    ______ ____

>  <TORSDO>
F 0

$$$$
=
 OpenBabel11112417353D

 28 32  0  0  1  0  0  0  0  0999 V2000
  190.4580  173.9520  143.4630 C   0  0  0  0  0  0  0  0  0  0  0  0
  188.7900  175.3760  147.1370 O   0  0  0  0  0  0  0  0  0  0  0  0
  187.2040  177.2340  139.6320 O   0  0  0  0  0  0  0  0  0  0  0  0
  192.2830  175.6420  144.7560 C   0  0  0  0  0  3  0  0  0  0  0  0
  186.2820  177.0940  141.8020 N   0  0  0  0  0  0  0  0  0  0  0  0
  189.5310  173.0030  142.7720 C   0  0  0  0  0  2  0  0  0  0  0  0
  189.4070  177.6970  146.5440 O   0  0  0  0  0  0  0  0  0  0  0  0
  188.3410  176.6420  146.4630 S   0  0  0  0  0  0  0  0  0  0  0  0
  185.7830  177.6280  146.4040 C   0  0  0  0  0  0  0  0  0  0  0  0
  187.9210  176.3230  144.8180 N   0  0  0  0  0  0  0  0  0  0  0  0
  189.7920  173.7070  139.1940 O   0  0  0  0  0  0  0  0  0  0  0  0
  187.8640  175.6640  142.6960 C   0  0  0  0  0  0  0  0  0  0  0  0
  185.9140  177.8320  144.9170 C   0  0  0  0  0  2  0  0  0  0  0  0
  186.8950  177.2200  147.2090 N   0  0  0  0  0  2  0  0  0  0  0  0
  189.2730  173.6710  140.3400 C   0  0  0  0  0  0  0  0  0  0  0  0
  190.0180  175.1910  143.9830 C   0  0  0  0  0  0  0  0  0  0  0  0
  187.2260  176.7380  140.7890 C   0  0  0  0  0  0  0  0  0  0  0  0
  184.4170  178.1310  147.1410 S   0  0  0  0  0  0  0  0  0  0  0  0
  188.0020  174.4140  140.5860 C   0  0  0  0  0  2  0  0  0  0  0  0
  190.9470  176.0250  144.6200 C   0  0  0  0  0  3  0  0  0  0  0  0
  191.7980  173.5730  143.6110 C   0  0  0  0  0  3  0  0  0  0  0  0
  192.7080  174.4130  144.2530 C   0  0  0  0  0  3  0  0  0  0  0  0
  189.8970  172.9010  141.3670 N   0  0  0  0  0  2  0  0  0  0  0  0
  186.7470  176.4000  142.9470 C   0  0  0  0  0  0  0  0  0  0  0  0
  188.2650  175.7510  141.2570 C   0  0  2  0  0  3  0  0  0  0  0  0
  186.7870  176.7990  144.2650 C   0  0  0  0  0  0  0  0  0  0  0  0
  185.4730  178.3010  141.8010 C   0  0  0  0  0  1  0  0  0  0  0  0
  188.6120  175.6440  143.8650 C   0  0  0  0  0  0  0  0  0  0  0  0
  1 21  2  0  0  0  0
  1 16  1  0  0  0  0
  3 17  2  0  0  0  0
  5 24  1  0  0  0  0
  6  1  1  0  0  0  0
  8  7  2  0  0  0  0
  8  2  2  0  0  0  0
  8 14  1  0  0  0  0
  9 18  2  0  0  0  0
  9 14  1  0  0  0  0
 10  8  1  0  0  0  0
 11 15  2  0  0  0  0
 12 24  1  0  0  0  0
 12 28  2  0  0  0  0
 13  9  1  0  0  0  0
 15 19  1  0  0  0  0
 15 23  1  0  0  0  0
 16 20  2  0  0  0  0
 17 25  1  0  0  0  0
 17  5  1  0  0  0  0
 20  4  1  0  0  0  0
 21 22  1  0  0  0  0
 22  4  2  0  0  0  0
 23  6  1  0  0  0  0
 24 26  2  0  0  0  0
 25 19  1  6  0  0  0
 25 12  1  0  0  0  0
 26 10  1  0  0  0  0
 26 13  1  0  0  0  0
 27  5  1  0  0  0  0
 28 16  1  0  0  0  0
 28 10  1  0  0  0  0
M  END
>  <MODEL>
5

>  <REMARK>
 VINA RESULT:      -7.8      1.803      5.268
  Name = 
  0 active torsions:
  status: ('A' for Active; 'I' for Inactive)
                            x       y       z     vdW  Elec       q    Type
                         _______ _______ _______ _____ _____    ______ ____

>  <TORSDO>
F 0

$$$$
=
 OpenBabel11112417353D

 28 32  0  0  1  0  0  0  0  0999 V2000
  190.8100  173.1150  144.3860 C   0  0  0  0  0  0  0  0  0  0  0  0
  189.4040  175.5410  147.6170 O   0  0  0  0  0  0  0  0  0  0  0  0
  187.8270  175.7410  139.8860 O   0  0  0  0  0  0  0  0  0  0  0  0
  192.8400  174.8500  145.2400 C   0  0  0  0  0  3  0  0  0  0  0  0
  186.9540  176.2190  142.0280 N   0  0  0  0  0  0  0  0  0  0  0  0
  189.7690  172.1390  143.9400 C   0  0  0  0  0  2  0  0  0  0  0  0
  190.2500  177.5740  146.4900 O   0  0  0  0  0  0  0  0  0  0  0  0
  189.0750  176.6550  146.6630 S   0  0  0  0  0  0  0  0  0  0  0  0
  186.6380  177.8750  146.3720 C   0  0  0  0  0  0  0  0  0  0  0  0
  188.5810  176.0050  145.1410 N   0  0  0  0  0  0  0  0  0  0  0  0
  190.0080  171.9460  140.2960 O   0  0  0  0  0  0  0  0  0  0  0  0
  188.3960  174.8750  143.2360 C   0  0  0  0  0  0  0  0  0  0  0  0
  186.7500  177.7070  144.8790 C   0  0  0  0  0  2  0  0  0  0  0  0
  187.7200  177.5480  147.2510 N   0  0  0  0  0  2  0  0  0  0  0  0
  189.5190  172.2390  141.4180 C   0  0  0  0  0  0  0  0  0  0  0  0
  190.5210  174.4830  144.5970 C   0  0  0  0  0  0  0  0  0  0  0  0
  187.8270  175.5330  141.1280 C   0  0  0  0  0  0  0  0  0  0  0  0
  185.3540  178.6860  146.9690 S   0  0  0  0  0  0  0  0  0  0  0  0
  188.3430  173.1550  141.4820 C   0  0  0  0  0  2  0  0  0  0  0  0
  191.5500  175.3360  145.0170 C   0  0  0  0  0  3  0  0  0  0  0  0
  192.1060  172.6360  144.6180 C   0  0  0  0  0  3  0  0  0  0  0  0
  193.1180  173.4980  145.0420 C   0  0  0  0  0  3  0  0  0  0  0  0
  190.0850  171.6680  142.5990 N   0  0  0  0  0  2  0  0  0  0  0  0
  187.3720  175.7680  143.3050 C   0  0  0  0  0  0  0  0  0  0  0  0
  188.7660  174.5750  141.8170 C   0  0  2  0  0  3  0  0  0  0  0  0
  187.4890  176.4600  144.4910 C   0  0  0  0  0  0  0  0  0  0  0  0
  186.2790  177.4740  141.7410 C   0  0  0  0  0  1  0  0  0  0  0  0
  189.1690  175.0480  144.3750 C   0  0  0  0  0  0  0  0  0  0  0  0
  1 16  2  0  0  0  0
  1 21  1  0  0  0  0
  3 17  2  0  0  0  0
  5 24  1  0  0  0  0
  6  1  1  0  0  0  0
  7  8  2  0  0  0  0
  8 14  1  0  0  0  0
  8  2  2  0  0  0  0
  9 18  2  0  0  0  0
  9 14  1  0  0  0  0
 10  8  1  0  0  0  0
 11 15  2  0  0  0  0
 12 24  1  0  0  0  0
 12 28  2  0  0  0  0
 13  9  1  0  0  0  0
 15 19  1  0  0  0  0
 15 23  1  0  0  0  0
 16 20  1  0  0  0  0
 17 25  1  0  0  0  0
 17  5  1  0  0  0  0
 20  4  2  0  0  0  0
 21 22  2  0  0  0  0
 22  4  1  0  0  0  0
 23  6  1  0  0  0  0
 24 26  2  0  0  0  0
 25 19  1  6  0  0  0
 25 12  1  0  0  0  0
 26 13  1  0  0  0  0
 26 10  1  0  0  0  0
 27  5  1  0  0  0  0
 28 16  1  0  0  0  0
 28 10  1  0  0  0  0
M  END
>  <MODEL>
6

>  <REMARK>
 VINA RESULT:      -7.6      2.014      5.476
  Name = 
  0 active torsions:
  status: ('A' for Active; 'I' for Inactive)
                            x       y       z     vdW  Elec       q    Type
                         _______ _______ _______ _____ _____    ______ ____

>  <TORSDO>
F 0

$$$$
=
 OpenBabel11112417353D

 28 32  0  0  1  0  0  0  0  0999 V2000
  187.4010  177.0310  144.8390 C   0  0  0  0  0  0  0  0  0  0  0  0
  187.0830  173.8350  142.0130 O   0  0  0  0  0  0  0  0  0  0  0  0
  193.1980  176.4260  146.2780 O   0  0  0  0  0  0  0  0  0  0  0  0
  187.2320  178.0620  142.2380 C   0  0  0  0  0  3  0  0  0  0  0  0
  192.2590  174.5210  145.2430 N   0  0  0  0  0  0  0  0  0  0  0  0
  187.4390  176.5190  146.2440 C   0  0  0  0  0  2  0  0  0  0  0  0
  188.8860  174.8340  140.6460 O   0  0  0  0  0  0  0  0  0  0  0  0
  188.5650  173.8840  141.7630 S   0  0  0  0  0  0  0  0  0  0  0  0
  190.3190  171.7910  142.0040 C   0  0  0  0  0  0  0  0  0  0  0  0
  189.3950  174.3380  143.2080 N   0  0  0  0  0  0  0  0  0  0  0  0
  189.8260  178.6130  148.0570 O   0  0  0  0  0  0  0  0  0  0  0  0
  190.0960  175.3200  145.0750 C   0  0  0  0  0  0  0  0  0  0  0  0
  191.2370  172.6750  142.8080 C   0  0  0  0  0  2  0  0  0  0  0  0
  189.1430  172.3060  141.3690 N   0  0  0  0  0  2  0  0  0  0  0  0
  189.3710  177.5830  147.4960 C   0  0  0  0  0  0  0  0  0  0  0  0
  188.2030  176.4800  143.8130 C   0  0  0  0  0  0  0  0  0  0  0  0
  192.1870  175.8200  145.8350 C   0  0  0  0  0  0  0  0  0  0  0  0
  190.8160  170.2810  141.6380 S   0  0  0  0  0  0  0  0  0  0  0  0
  190.2780  176.4210  147.2630 C   0  0  0  0  0  2  0  0  0  0  0  0
  188.1090  177.0130  142.5210 C   0  0  0  0  0  3  0  0  0  0  0  0
  186.5200  178.0790  144.5440 C   0  0  0  0  0  3  0  0  0  0  0  0
  186.4350  178.5940  143.2500 C   0  0  0  0  0  3  0  0  0  0  0  0
  187.9940  177.5410  147.1210 N   0  0  0  0  0  2  0  0  0  0  0  0
  190.9360  174.2870  144.7920 C   0  0  0  0  0  0  0  0  0  0  0  0
  190.7960  176.4020  145.8350 C   0  0  2  0  0  3  0  0  0  0  0  0
  190.4920  173.6800  143.6380 C   0  0  0  0  0  0  0  0  0  0  0  0
  193.4670  173.9150  144.7090 C   0  0  0  0  0  1  0  0  0  0  0  0
  189.1490  175.3660  144.0620 C   0  0  0  0  0  0  0  0  0  0  0  0
  1  6  1  0  0  0  0
  4 20  2  0  0  0  0
  4 22  1  0  0  0  0
  5 17  1  0  0  0  0
  6 23  1  0  0  0  0
  7  8  2  0  0  0  0
  8  2  2  0  0  0  0
  8 10  1  0  0  0  0
  9 13  1  0  0  0  0
 10 26  1  0  0  0  0
 10 28  1  0  0  0  0
 12 25  1  0  0  0  0
 13 26  1  0  0  0  0
 14  8  1  0  0  0  0
 14  9  1  0  0  0  0
 15 11  2  0  0  0  0
 16 28  1  0  0  0  0
 16  1  2  0  0  0  0
 17 25  1  0  0  0  0
 17  3  2  0  0  0  0
 18  9  2  0  0  0  0
 19 15  1  0  0  0  0
 20 16  1  0  0  0  0
 21  1  1  0  0  0  0
 22 21  2  0  0  0  0
 23 15  1  0  0  0  0
 24 12  1  0  0  0  0
 24  5  1  0  0  0  0
 25 19  1  1  0  0  0
 26 24  2  0  0  0  0
 27  5  1  0  0  0  0
 28 12  2  0  0  0  0
M  END
>  <MODEL>
7

>  <REMARK>
 VINA RESULT:      -7.6      2.680      5.231
  Name = 
  0 active torsions:
  status: ('A' for Active; 'I' for Inactive)
                            x       y       z     vdW  Elec       q    Type
                         _______ _______ _______ _____ _____    ______ ____

>  <TORSDO>
F 0

$$$$
=
 OpenBabel11112417353D

 28 32  0  0  1  0  0  0  0  0999 V2000
  191.6370  174.9680  142.1490 C   0  0  0  0  0  0  0  0  0  0  0  0
  187.8730  176.5750  140.9000 O   0  0  0  0  0  0  0  0  0  0  0  0
  191.3310  176.3180  147.9900 O   0  0  0  0  0  0  0  0  0  0  0  0
  189.8320  172.8890  141.6190 C   0  0  0  0  0  3  0  0  0  0  0  0
  189.8270  177.5410  146.6400 N   0  0  0  0  0  0  0  0  0  0  0  0
  192.6420  176.0490  142.3880 C   0  0  0  0  0  2  0  0  0  0  0  0
  186.6910  175.1280  142.5210 O   0  0  0  0  0  0  0  0  0  0  0  0
  187.3400  176.4650  142.3010 S   0  0  0  0  0  0  0  0  0  0  0  0
  186.2660  178.4990  143.7920 C   0  0  0  0  0  0  0  0  0  0  0  0
  188.6120  176.7210  143.4410 N   0  0  0  0  0  0  0  0  0  0  0  0
  194.5820  175.0430  145.3200 O   0  0  0  0  0  0  0  0  0  0  0  0
  190.5070  176.6860  144.6020 C   0  0  0  0  0  0  0  0  0  0  0  0
  187.1390  178.0900  144.9490 C   0  0  0  0  0  2  0  0  0  0  0  0
  186.1940  177.7220  142.5900 N   0  0  0  0  0  2  0  0  0  0  0  0
  193.7550  175.7060  144.6400 C   0  0  0  0  0  0  0  0  0  0  0  0
  190.3220  175.0330  142.6650 C   0  0  0  0  0  0  0  0  0  0  0  0
  190.9130  176.6350  146.8450 C   0  0  0  0  0  0  0  0  0  0  0  0
  185.1910  179.7060  144.0170 S   0  0  0  0  0  0  0  0  0  0  0  0
  192.8520  176.6710  145.3330 C   0  0  0  0  0  2  0  0  0  0  0  0
  189.4360  173.9810  142.3950 C   0  0  0  0  0  3  0  0  0  0  0  0
  192.0220  173.8720  141.3660 C   0  0  0  0  0  3  0  0  0  0  0  0
  191.1250  172.8360  141.1030 C   0  0  0  0  0  3  0  0  0  0  0  0
  193.7190  175.5370  143.2230 N   0  0  0  0  0  2  0  0  0  0  0  0
  189.6310  177.5120  145.2370 C   0  0  0  0  0  0  0  0  0  0  0  0
  191.4760  176.0720  145.5640 C   0  0  2  0  0  3  0  0  0  0  0  0
  188.4620  177.5330  144.5080 C   0  0  0  0  0  0  0  0  0  0  0  0
  188.8280  177.8840  147.6380 C   0  0  0  0  0  1  0  0  0  0  0  0
  189.8530  176.1690  143.4930 C   0  0  0  0  0  0  0  0  0  0  0  0
  1  6  1  0  0  0  0
  1 16  1  0  0  0  0
  2  8  2  0  0  0  0
  4 20  1  0  0  0  0
  5 17  1  0  0  0  0
  5 27  1  0  0  0  0
  6 23  1  0  0  0  0
  8  7  2  0  0  0  0
  8 14  1  0  0  0  0
  8 10  1  0  0  0  0
  9 18  2  0  0  0  0
  9 13  1  0  0  0  0
 10 28  1  0  0  0  0
 10 26  1  0  0  0  0
 12 24  1  0  0  0  0
 12 25  1  0  0  0  0
 14  9  1  0  0  0  0
 15 11  2  0  0  0  0
 15 19  1  0  0  0  0
 16 28  1  0  0  0  0
 17  3  2  0  0  0  0
 20 16  2  0  0  0  0
 21  1  2  0  0  0  0
 22 21  1  0  0  0  0
 22  4  2  0  0  0  0
 23 15  1  0  0  0  0
 24  5  1  0  0  0  0
 25 19  1  6  0  0  0
 25 17  1  0  0  0  0
 26 13  1  0  0  0  0
 26 24  2  0  0  0  0
 28 12  2  0  0  0  0
M  END
>  <MODEL>
8

>  <REMARK>
 VINA RESULT:      -7.5      2.644      6.767
  Name = 
  0 active torsions:
  status: ('A' for Active; 'I' for Inactive)
                            x       y       z     vdW  Elec       q    Type
                         _______ _______ _______ _____ _____    ______ ____

>  <TORSDO>
F 0

$$$$
=
 OpenBabel11112417353D

 28 32  0  0  1  0  0  0  0  0999 V2000
  191.4300  174.8720  144.8810 C   0  0  0  0  0  0  0  0  0  0  0  0
  189.6440  174.9880  140.9950 O   0  0  0  0  0  0  0  0  0  0  0  0
  187.0740  177.5940  147.9870 O   0  0  0  0  0  0  0  0  0  0  0  0
  190.5420  172.3140  144.1550 C   0  0  0  0  0  3  0  0  0  0  0  0
  186.9580  177.9500  145.6540 N   0  0  0  0  0  0  0  0  0  0  0  0
  191.9650  176.2110  145.2790 C   0  0  0  0  0  2  0  0  0  0  0  0
  187.6710  173.7600  141.8400 O   0  0  0  0  0  0  0  0  0  0  0  0
  188.2770  175.1140  141.6070 S   0  0  0  0  0  0  0  0  0  0  0  0
  186.4510  177.0950  141.1020 C   0  0  0  0  0  0  0  0  0  0  0  0
  188.3680  176.0040  143.0840 N   0  0  0  0  0  0  0  0  0  0  0  0
  191.2680  176.5980  148.8470 O   0  0  0  0  0  0  0  0  0  0  0  0
  188.8860  176.8030  145.0920 C   0  0  0  0  0  0  0  0  0  0  0  0
  186.2520  177.2660  142.5860 C   0  0  0  0  0  2  0  0  0  0  0  0
  187.2550  176.0370  140.5670 N   0  0  0  0  0  2  0  0  0  0  0  0
  191.1600  176.8020  147.6100 C   0  0  0  0  0  0  0  0  0  0  0  0
  190.1350  174.7080  144.3370 C   0  0  0  0  0  0  0  0  0  0  0  0
  187.5870  177.4670  146.8440 C   0  0  0  0  0  0  0  0  0  0  0  0
  185.5260  177.9740  140.0860 S   0  0  0  0  0  0  0  0  0  0  0  0
  190.0260  177.6300  147.1050 C   0  0  0  0  0  2  0  0  0  0  0  0
  189.7070  173.4210  143.9870 C   0  0  0  0  0  3  0  0  0  0  0  0
  192.2630  173.7570  145.0400 C   0  0  0  0  0  3  0  0  0  0  0  0
  191.8220  172.4830  144.6810 C   0  0  0  0  0  3  0  0  0  0  0  0
  192.1390  176.2570  146.7240 N   0  0  0  0  0  2  0  0  0  0  0  0
  187.8130  177.4940  144.6200 C   0  0  0  0  0  0  0  0  0  0  0  0
  188.8940  176.7600  146.5880 C   0  0  2  0  0  3  0  0  0  0  0  0
  187.5020  176.9980  143.3720 C   0  0  0  0  0  0  0  0  0  0  0  0
  185.5440  178.2580  145.5250 C   0  0  0  0  0  1  0  0  0  0  0  0
  189.2110  175.8500  144.1380 C   0  0  0  0  0  0  0  0  0  0  0  0
  1 21  1  0  0  0  0
  1  6  1  0  0  0  0
  2  8  2  0  0  0  0
  4 22  1  0  0  0  0
  5 17  1  0  0  0  0
  6 23  1  0  0  0  0
  8  7  2  0  0  0  0
  8 10  1  0  0  0  0
  9 13  1  0  0  0  0
 10 26  1  0  0  0  0
 10 28  1  0  0  0  0
 12 25  1  0  0  0  0
 13 26  1  0  0  0  0
 14  9  1  0  0  0  0
 14  8  1  0  0  0  0
 15 11  2  0  0  0  0
 16  1  2  0  0  0  0
 17  3  2  0  0  0  0
 18  9  2  0  0  0  0
 19 15  1  0  0  0  0
 20  4  2  0  0  0  0
 20 16  1  0  0  0  0
 22 21  2  0  0  0  0
 23 15  1  0  0  0  0
 24 12  1  0  0  0  0
 24  5  1  0  0  0  0
 25 17  1  0  0  0  0
 25 19  1  1  0  0  0
 26 24  2  0  0  0  0
 27  5  1  0  0  0  0
 28 16  1  0  0  0  0
 28 12  2  0  0  0  0
M  END
>  <MODEL>
9

>  <REMARK>
 VINA RESULT:      -7.4      2.611      6.725
  Name = 
  0 active torsions:
  status: ('A' for Active; 'I' for Inactive)
                            x       y       z     vdW  Elec       q    Type
                         _______ _______ _______ _____ _____    ______ ____

>  <TORSDO>
F 0

$$$$
