=
 OpenBabel11112417593D

 34 41  0  0  1  0  0  0  0  0999 V2000
  190.8060  173.8250  141.2440 C   0  0  0  0  0  0  0  0  0  0  0  0
  188.4830  174.5580  140.6860 C   0  0  0  0  0  2  0  0  0  0  0  0
  196.0330  176.3160  141.8830 C   0  0  0  0  0  2  0  0  0  0  0  0
  193.1890  173.5840  141.6730 C   0  0  0  0  0  0  0  0  0  0  0  0
  194.1760  174.7060  143.6460 C   0  0  0  0  0  0  0  0  0  0  0  0
  195.7300  176.5210  144.3850 C   0  0  0  0  0  2  0  0  0  0  0  0
  196.6640  176.7870  143.2010 C   0  0  0  0  0  2  0  0  0  0  0  0
  196.8140  174.1800  142.2060 C   0  0  0  0  0  2  0  0  0  0  0  0
  189.3400  174.8700  142.9470 C   0  0  1  0  0  3  0  0  0  0  0  0
  189.3430  177.9940  142.8520 C   0  0  0  0  0  2  0  0  0  0  0  0
  193.0070  175.2080  143.9140 N   0  0  0  0  0  0  0  0  0  0  0  0
  195.6210  173.2230  142.1410 C   0  0  0  0  0  2  0  0  0  0  0  0
  190.5690  175.5030  143.4590 N   0  0  2  0  0  0  0  0  0  0  0  0
  187.8090  175.7340  141.2280 N   0  0  0  0  0  2  0  0  0  0  0  0
  194.3460  173.8620  142.4830 N   0  0  0  0  0  0  0  0  0  0  0  0
  196.7220  175.2380  141.2820 O   0  0  0  0  0  0  0  0  0  0  0  0
  188.0990  177.2010  143.2400 C   0  0  2  0  0  3  0  0  0  0  0  0
  191.9330  174.0880  142.0570 C   0  0  0  0  0  0  0  0  0  0  0  0
  195.3050  175.1260  144.4150 N   0  0  0  0  0  2  0  0  0  0  0  0
  191.8380  174.8990  143.1330 C   0  0  1  0  0  3  0  0  0  0  0  0
  192.2490  172.6690  139.6880 C   0  0  0  0  0  3  0  0  0  0  0  0
  190.4080  177.8920  143.9440 C   0  0  0  0  0  2  0  0  0  0  0  0
  193.3100  172.8900  140.5080 N   0  0  0  0  0  0  0  0  0  0  0  0
  190.5030  176.4860  144.5310 C   0  0  0  0  0  2  0  0  0  0  0  0
  188.1210  175.7750  142.6640 C   0  0  2  0  0  3  0  0  0  0  0  0
  190.9820  173.1390  140.0370 C   0  0  0  0  0  3  0  0  0  0  0  0
  189.5940  174.2710  141.6160 C   0  0  2  0  0  3  0  0  0  0  0  0
  186.8280  177.9400  142.8410 C   0  0  0  0  0  2  0  0  0  0  0  0
  185.7460  177.7390  143.8850 C   0  0  1  0  0  3  0  0  0  0  0  0
  184.3830  178.0260  146.5560 C   0  0  0  0  0  2  0  0  0  0  0  0
  186.3510  177.7070  145.2160 C   0  0  1  0  0  3  0  0  0  0  0  0
  185.6730  178.9320  144.7430 N   0  0  2  0  0  0  0  0  0  0  0  0
  185.4310  177.0080  146.2000 C   0  0  0  0  0  2  0  0  0  0  0  0
  184.3500  178.9420  145.3570 C   0  0  0  0  0  2  0  0  0  0  0  0
  1 27  1  0  0  0  0
  1 18  1  0  0  0  0
  2 14  1  0  0  0  0
  2 27  1  0  0  0  0
  3  7  1  0  0  0  0
  4 18  2  0  0  0  0
  4 15  1  0  0  0  0
  5 11  2  0  0  0  0
  5 19  1  0  0  0  0
  6 19  1  0  0  0  0
  7  6  1  0  0  0  0
  9 13  1  0  0  0  0
 10 17  1  0  0  0  0
 10 22  1  0  0  0  0
 12  8  1  0  0  0  0
 12 15  1  0  0  0  0
 13 24  1  0  0  0  0
 14 25  1  0  0  0  0
 15  5  1  0  0  0  0
 16  3  1  0  0  0  0
 16  8  1  0  0  0  0
 18 20  1  0  0  0  0
 20 13  1  0  0  0  0
 20 11  1  0  0  0  0
 21 26  1  0  0  0  0
 21 23  2  0  0  0  0
 22 24  1  0  0  0  0
 23  4  1  0  0  0  0
 25  9  1  0  0  0  0
 25 17  1  0  0  0  0
 26  1  2  0  0  0  0
 27  9  1  0  0  0  0
 28 17  1  0  0  0  0
 28 29  1  0  0  0  0
 29 32  1  0  0  0  0
 29 31  1  0  0  0  0
 31 33  1  0  0  0  0
 32 31  1  0  0  0  0
 32 34  1  0  0  0  0
 33 30  1  0  0  0  0
 34 30  1  0  0  0  0
M  END
>  <MODEL>
1

>  <REMARK>
 VINA RESULT:      -8.6      0.000      0.000
  Name = 
  2 active torsions:
  status: ('A' for Active; 'I' for Inactive)
    1  A    between atoms: C_17  and  C_28
    2  A    between atoms: C_28  and  C_29
                            x       y       z     vdW  Elec       q    Type
                         _______ _______ _______ _____ _____    ______ ____

>  <TORSDO>
F 2

$$$$
=
 OpenBabel11112417593D

 34 41  0  0  1  0  0  0  0  0999 V2000
  193.4760  175.8660  145.5080 C   0  0  0  0  0  0  0  0  0  0  0  0
  191.9700  176.2820  147.4580 C   0  0  0  0  0  2  0  0  0  0  0  0
  193.8750  172.0010  141.1680 C   0  0  0  0  0  2  0  0  0  0  0  0
  194.6770  175.0390  143.5600 C   0  0  0  0  0  0  0  0  0  0  0  0
  193.5330  175.0010  141.3670 C   0  0  0  0  0  0  0  0  0  0  0  0
  192.6020  173.5110  139.5860 C   0  0  0  0  0  2  0  0  0  0  0  0
  193.3120  172.1630  139.7480 C   0  0  0  0  0  2  0  0  0  0  0  0
  195.8010  173.1120  140.5940 C   0  0  0  0  0  2  0  0  0  0  0  0
  191.2820  176.9840  145.2270 C   0  0  1  0  0  3  0  0  0  0  0  0
  188.8840  174.9920  144.9990 C   0  0  0  0  0  2  0  0  0  0  0  0
  192.4600  175.4520  141.9470 N   0  0  0  0  0  0  0  0  0  0  0  0
  195.9820  174.2820  141.5630 C   0  0  0  0  0  2  0  0  0  0  0  0
  191.1990  176.2600  143.9460 N   0  0  2  0  0  0  0  0  0  0  0  0
  190.5110  176.2240  147.4340 N   0  0  0  0  0  2  0  0  0  0  0  0
  194.7210  174.7480  142.1520 N   0  0  0  0  0  0  0  0  0  0  0  0
  195.2860  171.9580  141.2130 O   0  0  0  0  0  0  0  0  0  0  0  0
  188.7380  176.3550  145.6680 C   0  0  2  0  0  3  0  0  0  0  0  0
  193.5160  175.6030  144.1200 C   0  0  0  0  0  0  0  0  0  0  0  0
  193.4680  174.6110  139.9930 N   0  0  0  0  0  2  0  0  0  0  0  0
  192.4230  175.7850  143.3470 C   0  0  1  0  0  3  0  0  0  0  0  0
  195.6880  174.9180  145.7110 C   0  0  0  0  0  3  0  0  0  0  0  0
  189.0710  175.1510  143.4890 C   0  0  0  0  0  2  0  0  0  0  0  0
  195.7260  174.7170  144.3680 N   0  0  0  0  0  0  0  0  0  0  0  0
  189.9890  176.3190  143.1390 C   0  0  0  0  0  2  0  0  0  0  0  0
  190.0820  176.8860  146.1940 C   0  0  2  0  0  3  0  0  0  0  0  0
  194.5610  175.4870  146.3050 C   0  0  0  0  0  3  0  0  0  0  0  0
  192.3860  176.4360  146.0490 C   0  0  2  0  0  3  0  0  0  0  0  0
  187.6870  176.3180  146.7690 C   0  0  0  0  0  2  0  0  0  0  0  0
  186.7110  177.4680  146.6120 C   0  0  1  0  0  3  0  0  0  0  0  0
  184.4140  179.0140  145.4220 C   0  0  0  0  0  2  0  0  0  0  0  0
  186.3600  177.6220  145.2010 C   0  0  1  0  0  3  0  0  0  0  0  0
  185.4240  176.9490  146.1240 N   0  0  2  0  0  0  0  0  0  0  0  0
  185.8360  179.0210  144.9330 C   0  0  0  0  0  2  0  0  0  0  0  0
  184.4020  177.9300  146.4730 C   0  0  0  0  0  2  0  0  0  0  0  0
  1 27  1  0  0  0  0
  1 26  1  0  0  0  0
  3 16  1  0  0  0  0
  4 18  1  0  0  0  0
  4 23  2  0  0  0  0
  5 11  2  0  0  0  0
  5 15  1  0  0  0  0
  6  7  1  0  0  0  0
  6 19  1  0  0  0  0
  7  3  1  0  0  0  0
  8 16  1  0  0  0  0
  8 12  1  0  0  0  0
  9 27  1  0  0  0  0
  9 25  1  0  0  0  0
 10 17  1  0  0  0  0
 11 20  1  0  0  0  0
 12 15  1  0  0  0  0
 13  9  1  0  0  0  0
 14  2  1  0  0  0  0
 15  4  1  0  0  0  0
 17 25  1  0  0  0  0
 17 28  1  0  0  0  0
 18  1  2  0  0  0  0
 19  5  1  0  0  0  0
 20 13  1  0  0  0  0
 20 18  1  0  0  0  0
 21 26  2  0  0  0  0
 22 10  1  0  0  0  0
 23 21  1  0  0  0  0
 24 22  1  0  0  0  0
 24 13  1  0  0  0  0
 25 14  1  0  0  0  0
 27  2  1  0  0  0  0
 29 28  1  0  0  0  0
 30 34  1  0  0  0  0
 31 32  1  0  0  0  0
 31 29  1  0  0  0  0
 32 34  1  0  0  0  0
 32 29  1  0  0  0  0
 33 31  1  0  0  0  0
 33 30  1  0  0  0  0
M  END
>  <MODEL>
2

>  <REMARK>
 VINA RESULT:      -8.6      1.889      4.178
  Name = 
  2 active torsions:
  status: ('A' for Active; 'I' for Inactive)
    1  A    between atoms: C_17  and  C_28
    2  A    between atoms: C_28  and  C_29
                            x       y       z     vdW  Elec       q    Type
                         _______ _______ _______ _____ _____    ______ ____

>  <TORSDO>
F 2

$$$$
=
 OpenBabel11112417593D

 34 41  0  0  1  0  0  0  0  0999 V2000
  189.0990  176.9160  146.9720 C   0  0  0  0  0  0  0  0  0  0  0  0
  191.2780  177.0410  148.1890 C   0  0  0  0  0  2  0  0  0  0  0  0
  186.9670  178.6660  141.8410 C   0  0  0  0  0  2  0  0  0  0  0  0
  187.2020  177.0990  145.4580 C   0  0  0  0  0  0  0  0  0  0  0  0
  187.3240  176.0080  143.2400 C   0  0  0  0  0  0  0  0  0  0  0  0
  187.4410  176.4210  140.7760 C   0  0  0  0  0  2  0  0  0  0  0  0
  186.8810  177.8290  140.5560 C   0  0  0  0  0  2  0  0  0  0  0  0
  184.9640  177.8280  142.5890 C   0  0  0  0  0  2  0  0  0  0  0  0
  190.9590  175.3670  146.4450 C   0  0  1  0  0  3  0  0  0  0  0  0
  193.0660  176.5670  144.4720 C   0  0  0  0  0  2  0  0  0  0  0  0
  188.5350  175.6270  143.5220 N   0  0  0  0  0  0  0  0  0  0  0  0
  185.1910  177.2180  143.9740 C   0  0  0  0  0  2  0  0  0  0  0  0
  190.5070  175.4720  145.0460 N   0  0  2  0  0  0  0  0  0  0  0  0
  192.5930  176.7910  147.6070 N   0  0  0  0  0  2  0  0  0  0  0  0
  186.5770  176.7910  144.1990 N   0  0  0  0  0  0  0  0  0  0  0  0
  185.7050  179.0060  142.3770 O   0  0  0  0  0  0  0  0  0  0  0  0
  193.4620  175.5980  145.5810 C   0  0  2  0  0  3  0  0  0  0  0  0
  188.4840  176.5920  145.7410 C   0  0  0  0  0  0  0  0  0  0  0  0
  186.8120  175.7800  141.9250 N   0  0  0  0  0  2  0  0  0  0  0  0
  189.1500  175.8950  144.7950 C   0  0  1  0  0  3  0  0  0  0  0  0
  187.1860  178.2870  147.5190 C   0  0  0  0  0  3  0  0  0  0  0  0
  192.2620  175.8470  143.3890 C   0  0  0  0  0  2  0  0  0  0  0  0
  186.5920  177.9250  146.3520 N   0  0  0  0  0  0  0  0  0  0  0  0
  191.2680  174.8470  143.9730 C   0  0  0  0  0  2  0  0  0  0  0  0
  192.4550  175.6090  146.7440 C   0  0  2  0  0  3  0  0  0  0  0  0
  188.4510  177.7970  147.8460 C   0  0  0  0  0  3  0  0  0  0  0  0
  190.3080  176.4120  147.2690 C   0  0  2  0  0  3  0  0  0  0  0  0
  194.8780  175.8700  146.0710 C   0  0  0  0  0  2  0  0  0  0  0  0
  195.6820  174.5850  146.1140 C   0  0  1  0  0  3  0  0  0  0  0  0
  197.0530  172.1330  145.0250 C   0  0  0  0  0  2  0  0  0  0  0  0
  195.2160  173.6810  145.0640 C   0  0  1  0  0  3  0  0  0  0  0  0
  196.4590  174.4560  144.8720 N   0  0  2  0  0  0  0  0  0  0  0  0
  195.5980  172.2480  145.3880 C   0  0  0  0  0  2  0  0  0  0  0  0
  197.5660  173.5470  145.1460 C   0  0  0  0  0  2  0  0  0  0  0  0
  1 27  1  0  0  0  0
  1 26  1  0  0  0  0
  3 16  1  0  0  0  0
  4 18  1  0  0  0  0
  4 23  2  0  0  0  0
  5 11  2  0  0  0  0
  5 15  1  0  0  0  0
  6 19  1  0  0  0  0
  7  6  1  0  0  0  0
  7  3  1  0  0  0  0
  8 12  1  0  0  0  0
  9 25  1  0  0  0  0
  9 27  1  0  0  0  0
 10 17  1  0  0  0  0
 11 20  1  0  0  0  0
 12 15  1  0  0  0  0
 13  9  1  0  0  0  0
 14  2  1  0  0  0  0
 15  4  1  0  0  0  0
 16  8  1  0  0  0  0
 17 28  1  0  0  0  0
 17 25  1  0  0  0  0
 18  1  2  0  0  0  0
 19  5  1  0  0  0  0
 20 13  1  0  0  0  0
 20 18  1  0  0  0  0
 21 26  2  0  0  0  0
 22 24  1  0  0  0  0
 22 10  1  0  0  0  0
 23 21  1  0  0  0  0
 24 13  1  0  0  0  0
 25 14  1  0  0  0  0
 27  2  1  0  0  0  0
 28 29  1  0  0  0  0
 30 34  1  0  0  0  0
 30 33  1  0  0  0  0
 31 33  1  0  0  0  0
 31 29  1  0  0  0  0
 32 31  1  0  0  0  0
 32 34  1  0  0  0  0
 32 29  1  0  0  0  0
M  END
>  <MODEL>
3

>  <REMARK>
 VINA RESULT:      -8.3      3.316      8.777
  Name = 
  2 active torsions:
  status: ('A' for Active; 'I' for Inactive)
    1  A    between atoms: C_17  and  C_28
    2  A    between atoms: C_28  and  C_29
                            x       y       z     vdW  Elec       q    Type
                         _______ _______ _______ _____ _____    ______ ____

>  <TORSDO>
F 2

$$$$
=
 OpenBabel11112417593D

 34 41  0  0  1  0  0  0  0  0999 V2000
  191.2150  176.6270  146.0450 C   0  0  0  0  0  0  0  0  0  0  0  0
  188.9100  177.0290  146.9210 C   0  0  0  0  0  2  0  0  0  0  0  0
  193.7630  173.0700  142.1990 C   0  0  0  0  0  2  0  0  0  0  0  0
  193.2490  175.8420  144.9640 C   0  0  0  0  0  0  0  0  0  0  0  0
  193.4710  176.0650  142.5100 C   0  0  0  0  0  0  0  0  0  0  0  0
  193.6000  174.7970  140.3580 C   0  0  0  0  0  2  0  0  0  0  0  0
  194.0630  173.3840  140.7260 C   0  0  0  0  0  2  0  0  0  0  0  0
  195.7310  174.0460  142.8680 C   0  0  0  0  0  2  0  0  0  0  0  0
  189.5610  177.9490  144.7590 C   0  0  1  0  0  3  0  0  0  0  0  0
  187.6000  176.1980  143.0700 C   0  0  0  0  0  2  0  0  0  0  0  0
  192.2710  176.5650  142.4720 N   0  0  0  0  0  0  0  0  0  0  0  0
  195.3990  175.1220  143.9050 C   0  0  0  0  0  2  0  0  0  0  0  0
  190.1590  177.3320  143.5620 N   0  0  2  0  0  0  0  0  0  0  0  0
  187.6940  177.1010  146.1150 N   0  0  0  0  0  2  0  0  0  0  0  0
  194.0370  175.6520  143.7750 N   0  0  0  0  0  0  0  0  0  0  0  0
  194.9230  172.8990  142.9860 O   0  0  0  0  0  0  0  0  0  0  0  0
  187.1620  177.5150  143.7010 C   0  0  2  0  0  3  0  0  0  0  0  0
  191.9900  176.4630  144.8740 C   0  0  0  0  0  0  0  0  0  0  0  0
  194.1460  175.7840  141.2810 N   0  0  0  0  0  2  0  0  0  0  0  0
  191.4950  176.7970  143.6620 C   0  0  1  0  0  3  0  0  0  0  0  0
  192.9330  175.4760  147.2940 C   0  0  0  0  0  3  0  0  0  0  0  0
  188.5780  176.4490  141.9220 C   0  0  0  0  0  2  0  0  0  0  0  0
  193.6840  175.3710  146.1660 N   0  0  0  0  0  0  0  0  0  0  0  0
  189.5790  177.5550  142.2450 C   0  0  0  0  0  2  0  0  0  0  0  0
  188.0260  177.8870  144.9180 C   0  0  2  0  0  3  0  0  0  0  0  0
  191.6840  176.0970  147.2520 C   0  0  0  0  0  3  0  0  0  0  0  0
  190.0260  177.2490  145.9780 C   0  0  2  0  0  3  0  0  0  0  0  0
  185.6820  177.4900  144.0580 C   0  0  0  0  0  2  0  0  0  0  0  0
  184.8340  177.3890  142.8050 C   0  0  1  0  0  3  0  0  0  0  0  0
  183.2610  178.3810  140.4340 C   0  0  0  0  0  2  0  0  0  0  0  0
  183.9220  178.5300  142.7390 C   0  0  1  0  0  3  0  0  0  0  0  0
  185.1480  178.5180  141.9150 N   0  0  2  0  0  0  0  0  0  0  0  0
  182.7430  178.2170  141.8370 C   0  0  0  0  0  2  0  0  0  0  0  0
  184.7440  178.1330  140.5680 C   0  0  0  0  0  2  0  0  0  0  0  0
  1 26  1  0  0  0  0
  3 16  1  0  0  0  0
  4 23  2  0  0  0  0
  5 15  1  0  0  0  0
  6  7  1  0  0  0  0
  6 19  1  0  0  0  0
  7  3  1  0  0  0  0
  8 16  1  0  0  0  0
  8 12  1  0  0  0  0
  9 25  1  0  0  0  0
  9 27  1  0  0  0  0
 10 17  1  0  0  0  0
 11  5  2  0  0  0  0
 11 20  1  0  0  0  0
 13 20  1  0  0  0  0
 13  9  1  0  0  0  0
 14  2  1  0  0  0  0
 15 12  1  0  0  0  0
 15  4  1  0  0  0  0
 17 28  1  0  0  0  0
 17 25  1  0  0  0  0
 18  4  1  0  0  0  0
 18  1  2  0  0  0  0
 19  5  1  0  0  0  0
 20 18  1  0  0  0  0
 22 24  1  0  0  0  0
 22 10  1  0  0  0  0
 23 21  1  0  0  0  0
 24 13  1  0  0  0  0
 25 14  1  0  0  0  0
 26 21  2  0  0  0  0
 27  1  1  0  0  0  0
 27  2  1  0  0  0  0
 29 28  1  0  0  0  0
 30 34  1  0  0  0  0
 30 33  1  0  0  0  0
 31 29  1  0  0  0  0
 32 31  1  0  0  0  0
 32 29  1  0  0  0  0
 33 31  1  0  0  0  0
 34 32  1  0  0  0  0
M  END
>  <MODEL>
4

>  <REMARK>
 VINA RESULT:      -8.0      2.199      4.218
  Name = 
  2 active torsions:
  status: ('A' for Active; 'I' for Inactive)
    1  A    between atoms: C_17  and  C_28
    2  A    between atoms: C_28  and  C_29
                            x       y       z     vdW  Elec       q    Type
                         _______ _______ _______ _____ _____    ______ ____

>  <TORSDO>
F 2

$$$$
=
 OpenBabel11112417593D

 34 41  0  0  1  0  0  0  0  0999 V2000
  193.1620  174.8420  144.9620 C   0  0  0  0  0  0  0  0  0  0  0  0
  192.1540  175.8010  147.0370 C   0  0  0  0  0  2  0  0  0  0  0  0
  191.6040  171.0660  140.8080 C   0  0  0  0  0  2  0  0  0  0  0  0
  193.7390  173.6120  142.9420 C   0  0  0  0  0  0  0  0  0  0  0  0
  192.4100  173.9810  140.8880 C   0  0  0  0  0  0  0  0  0  0  0  0
  190.7960  172.9260  139.2950 C   0  0  0  0  0  2  0  0  0  0  0  0
  190.9770  171.4130  139.4490 C   0  0  0  0  0  2  0  0  0  0  0  0
  193.7220  171.3820  139.9760 C   0  0  0  0  0  2  0  0  0  0  0  0
  191.5120  176.6880  144.8590 C   0  0  1  0  0  3  0  0  0  0  0  0
  188.5430  175.7210  144.9890 C   0  0  0  0  0  2  0  0  0  0  0  0
  191.6530  174.8020  141.5550 N   0  0  0  0  0  0  0  0  0  0  0  0
  194.4310  172.4100  140.8600 C   0  0  0  0  0  2  0  0  0  0  0  0
  191.0200  176.0350  143.6320 N   0  0  2  0  0  0  0  0  0  0  0  0
  190.7830  176.2850  147.1720 N   0  0  0  0  0  2  0  0  0  0  0  0
  193.5070  173.3140  141.5540 N   0  0  0  0  0  0  0  0  0  0  0  0
  192.8960  170.5040  140.7050 O   0  0  0  0  0  0  0  0  0  0  0  0
  188.9860  177.0470  145.6000 C   0  0  2  0  0  3  0  0  0  0  0  0
  192.9390  174.5700  143.5920 C   0  0  0  0  0  0  0  0  0  0  0  0
  192.0460  173.6310  139.5500 N   0  0  0  0  0  2  0  0  0  0  0  0
  191.9060  175.1370  142.9320 C   0  0  1  0  0  3  0  0  0  0  0  0
  194.8810  173.1440  144.9770 C   0  0  0  0  0  3  0  0  0  0  0  0
  188.5960  175.7870  143.4630 C   0  0  0  0  0  2  0  0  0  0  0  0
  194.6840  172.9320  143.6490 N   0  0  0  0  0  0  0  0  0  0  0  0
  189.8290  176.5310  142.9570 C   0  0  0  0  0  2  0  0  0  0  0  0
  190.4830  177.0480  145.9520 C   0  0  2  0  0  3  0  0  0  0  0  0
  194.1190  174.0950  145.6580 C   0  0  0  0  0  3  0  0  0  0  0  0
  192.4280  175.7780  145.5860 C   0  0  2  0  0  3  0  0  0  0  0  0
  188.1320  177.4100  146.8070 C   0  0  0  0  0  2  0  0  0  0  0  0
  186.6620  177.4250  146.4320 C   0  0  1  0  0  3  0  0  0  0  0  0
  184.0060  178.6280  145.6710 C   0  0  0  0  0  2  0  0  0  0  0  0
  186.0370  178.6390  146.9540 C   0  0  1  0  0  3  0  0  0  0  0  0
  186.4040  178.5550  145.5260 N   0  0  2  0  0  0  0  0  0  0  0  0
  184.5350  178.4580  147.0680 C   0  0  0  0  0  2  0  0  0  0  0  0
  185.1770  178.2520  144.7960 C   0  0  0  0  0  2  0  0  0  0  0  0
  1 27  1  0  0  0  0
  1 26  1  0  0  0  0
  2 14  1  0  0  0  0
  4 18  1  0  0  0  0
  4 23  2  0  0  0  0
  5 15  1  0  0  0  0
  5 11  2  0  0  0  0
  6  7  1  0  0  0  0
  6 19  1  0  0  0  0
  7  3  1  0  0  0  0
  8 16  1  0  0  0  0
  8 12  1  0  0  0  0
  9 27  1  0  0  0  0
  9 25  1  0  0  0  0
 10 17  1  0  0  0  0
 11 20  1  0  0  0  0
 12 15  1  0  0  0  0
 13  9  1  0  0  0  0
 15  4  1  0  0  0  0
 16  3  1  0  0  0  0
 17 25  1  0  0  0  0
 17 28  1  0  0  0  0
 18  1  2  0  0  0  0
 19  5  1  0  0  0  0
 20 18  1  0  0  0  0
 20 13  1  0  0  0  0
 21 26  2  0  0  0  0
 22 10  1  0  0  0  0
 23 21  1  0  0  0  0
 24 22  1  0  0  0  0
 24 13  1  0  0  0  0
 25 14  1  0  0  0  0
 27  2  1  0  0  0  0
 29 28  1  0  0  0  0
 29 31  1  0  0  0  0
 30 33  1  0  0  0  0
 31 33  1  0  0  0  0
 32 29  1  0  0  0  0
 32 31  1  0  0  0  0
 34 32  1  0  0  0  0
 34 30  1  0  0  0  0
M  END
>  <MODEL>
5

>  <REMARK>
 VINA RESULT:      -7.9      2.268      4.350
  Name = 
  2 active torsions:
  status: ('A' for Active; 'I' for Inactive)
    1  A    between atoms: C_17  and  C_28
    2  A    between atoms: C_28  and  C_29
                            x       y       z     vdW  Elec       q    Type
                         _______ _______ _______ _____ _____    ______ ____

>  <TORSDO>
F 2

$$$$
=
 OpenBabel11112417593D

 34 41  0  0  1  0  0  0  0  0999 V2000
  194.1300  174.9510  145.3930 C   0  0  0  0  0  0  0  0  0  0  0  0
  193.1320  176.6380  146.9420 C   0  0  0  0  0  2  0  0  0  0  0  0
  193.3170  169.3280  144.1060 C   0  0  0  0  0  2  0  0  0  0  0  0
  194.8100  172.9840  144.1320 C   0  0  0  0  0  0  0  0  0  0  0  0
  193.1970  171.9350  142.5760 C   0  0  0  0  0  0  0  0  0  0  0  0
  191.8050  169.8990  142.1600 C   0  0  0  0  0  2  0  0  0  0  0  0
  192.4570  168.7690  142.9630 C   0  0  0  0  0  2  0  0  0  0  0  0
  195.1220  169.5710  142.7070 C   0  0  0  0  0  2  0  0  0  0  0  0
  191.9950  176.0890  144.8570 C   0  0  1  0  0  3  0  0  0  0  0  0
  189.5010  174.7670  146.1990 C   0  0  0  0  0  2  0  0  0  0  0  0
  192.3110  172.8130  142.9420 N   0  0  0  0  0  0  0  0  0  0  0  0
  195.5830  171.0290  142.7750 C   0  0  0  0  0  2  0  0  0  0  0  0
  191.5830  174.8030  144.2650 N   0  0  2  0  0  0  0  0  0  0  0  0
  191.7050  176.8350  147.1810 N   0  0  0  0  0  2  0  0  0  0  0  0
  194.5170  171.9560  143.1690 N   0  0  0  0  0  0  0  0  0  0  0  0
  194.6970  169.0690  143.9510 O   0  0  0  0  0  0  0  0  0  0  0  0
  189.5870  176.2720  145.9650 C   0  0  2  0  0  3  0  0  0  0  0  0
  193.8390  173.9570  144.4300 C   0  0  0  0  0  0  0  0  0  0  0  0
  192.8010  170.8660  141.7130 N   0  0  0  0  0  2  0  0  0  0  0  0
  192.6110  173.8690  143.8740 C   0  0  1  0  0  3  0  0  0  0  0  0
  196.2740  173.9030  145.7670 C   0  0  0  0  0  3  0  0  0  0  0  0
  189.3490  174.0240  144.8710 C   0  0  0  0  0  2  0  0  0  0  0  0
  195.9950  172.9860  144.8040 N   0  0  0  0  0  0  0  0  0  0  0  0
  190.2260  174.6160  143.7720 C   0  0  0  0  0  2  0  0  0  0  0  0
  191.0430  176.7590  145.8710 C   0  0  2  0  0  3  0  0  0  0  0  0
  195.3450  174.8950  146.0850 C   0  0  0  0  0  3  0  0  0  0  0  0
  193.2240  175.9070  145.6630 C   0  0  2  0  0  3  0  0  0  0  0  0
  188.8130  177.0390  147.0280 C   0  0  0  0  0  2  0  0  0  0  0  0
  187.4680  177.4860  146.4880 C   0  0  1  0  0  3  0  0  0  0  0  0
  184.5230  178.1200  146.5590 C   0  0  0  0  0  2  0  0  0  0  0  0
  186.4010  176.7480  147.1630 C   0  0  1  0  0  3  0  0  0  0  0  0
  186.7050  178.1370  147.5650 N   0  0  2  0  0  0  0  0  0  0  0  0
  185.1330  176.7650  146.3290 C   0  0  0  0  0  2  0  0  0  0  0  0
  185.7020  178.9860  146.9310 C   0  0  0  0  0  2  0  0  0  0  0  0
  1 27  1  0  0  0  0
  1 26  1  0  0  0  0
  2 14  1  0  0  0  0
  4 18  1  0  0  0  0
  4 23  2  0  0  0  0
  5 11  2  0  0  0  0
  5 15  1  0  0  0  0
  6  7  1  0  0  0  0
  7  3  1  0  0  0  0
  8 12  1  0  0  0  0
  8 16  1  0  0  0  0
  9 27  1  0  0  0  0
  9 25  1  0  0  0  0
 11 20  1  0  0  0  0
 12 15  1  0  0  0  0
 13  9  1  0  0  0  0
 15  4  1  0  0  0  0
 16  3  1  0  0  0  0
 17 10  1  0  0  0  0
 17 28  1  0  0  0  0
 18  1  2  0  0  0  0
 19  6  1  0  0  0  0
 19  5  1  0  0  0  0
 20 13  1  0  0  0  0
 20 18  1  0  0  0  0
 21 26  2  0  0  0  0
 22 10  1  0  0  0  0
 23 21  1  0  0  0  0
 24 13  1  0  0  0  0
 24 22  1  0  0  0  0
 25 17  1  0  0  0  0
 25 14  1  0  0  0  0
 27  2  1  0  0  0  0
 29 28  1  0  0  0  0
 29 31  1  0  0  0  0
 29 32  1  0  0  0  0
 30 34  1  0  0  0  0
 31 32  1  0  0  0  0
 33 30  1  0  0  0  0
 33 31  1  0  0  0  0
 34 32  1  0  0  0  0
M  END
>  <MODEL>
6

>  <REMARK>
 VINA RESULT:      -7.9      2.855      4.898
  Name = 
  2 active torsions:
  status: ('A' for Active; 'I' for Inactive)
    1  A    between atoms: C_17  and  C_28
    2  A    between atoms: C_28  and  C_29
                            x       y       z     vdW  Elec       q    Type
                         _______ _______ _______ _____ _____    ______ ____

>  <TORSDO>
F 2

$$$$
=
 OpenBabel11112417593D

 34 41  0  0  1  0  0  0  0  0999 V2000
  188.5140  176.1690  142.0270 C   0  0  0  0  0  0  0  0  0  0  0  0
  189.7590  174.1620  141.2080 C   0  0  0  0  0  2  0  0  0  0  0  0
  184.5720  177.3620  146.1460 C   0  0  0  0  0  2  0  0  0  0  0  0
  187.0530  177.7900  143.1040 C   0  0  0  0  0  0  0  0  0  0  0  0
  187.3780  178.2930  145.5040 C   0  0  0  0  0  0  0  0  0  0  0  0
  186.3640  178.0770  147.7810 C   0  0  0  0  0  2  0  0  0  0  0  0
  184.8600  177.8900  147.5590 C   0  0  0  0  0  2  0  0  0  0  0  0
  184.5810  179.4920  145.2860 C   0  0  0  0  0  2  0  0  0  0  0  0
  190.5110  175.3160  143.2200 C   0  0  1  0  0  3  0  0  0  0  0  0
  189.8860  172.9630  145.1810 C   0  0  0  0  0  2  0  0  0  0  0  0
  188.3320  177.4100  145.5350 N   0  0  0  0  0  0  0  0  0  0  0  0
  185.6020  179.5410  144.1470 C   0  0  0  0  0  2  0  0  0  0  0  0
  189.8080  175.7100  144.4540 N   0  0  2  0  0  0  0  0  0  0  0  0
  190.3980  173.1560  142.0510 N   0  0  0  0  0  2  0  0  0  0  0  0
  186.6580  178.5300  144.2720 N   0  0  0  0  0  0  0  0  0  0  0  0
  183.8670  178.2800  145.3350 O   0  0  0  0  0  0  0  0  0  0  0  0
  191.2060  173.0490  144.4210 C   0  0  2  0  0  3  0  0  0  0  0  0
  188.1460  176.9070  143.1750 C   0  0  0  0  0  0  0  0  0  0  0  0
  186.9510  178.8970  146.7280 N   0  0  0  0  0  2  0  0  0  0  0  0
  188.7600  176.6970  144.3600 C   0  0  1  0  0  3  0  0  0  0  0  0
  186.6490  177.1530  140.8470 C   0  0  0  0  0  3  0  0  0  0  0  0
  189.8080  174.0540  146.2500 C   0  0  0  0  0  2  0  0  0  0  0  0
  186.3420  177.8890  141.9470 N   0  0  0  0  0  0  0  0  0  0  0  0
  190.3660  175.3870  145.7600 C   0  0  0  0  0  2  0  0  0  0  0  0
  191.0770  173.8820  143.1340 C   0  0  2  0  0  3  0  0  0  0  0  0
  187.7340  176.2750  140.8700 C   0  0  0  0  0  3  0  0  0  0  0  0
  189.5770  175.3470  142.0710 C   0  0  2  0  0  3  0  0  0  0  0  0
  191.7650  171.6630  144.1320 C   0  0  0  0  0  2  0  0  0  0  0  0
  193.2820  171.6900  144.1400 C   0  0  1  0  0  3  0  0  0  0  0  0
  196.0490  171.7000  145.3320 C   0  0  0  0  0  2  0  0  0  0  0  0
  193.7520  172.4040  145.3260 C   0  0  1  0  0  3  0  0  0  0  0  0
  193.7740  170.9270  145.2980 N   0  0  2  0  0  0  0  0  0  0  0  0
  195.1700  172.9020  145.1190 C   0  0  0  0  0  2  0  0  0  0  0  0
  195.1480  170.5350  145.0050 C   0  0  0  0  0  2  0  0  0  0  0  0
  1 27  1  0  0  0  0
  1 18  1  0  0  0  0
  2 14  1  0  0  0  0
  2 27  1  0  0  0  0
  3  7  1  0  0  0  0
  4 18  2  0  0  0  0
  4 15  1  0  0  0  0
  5 11  2  0  0  0  0
  5 19  1  0  0  0  0
  7  6  1  0  0  0  0
  8 16  1  0  0  0  0
  9 13  1  0  0  0  0
 10 22  1  0  0  0  0
 12 15  1  0  0  0  0
 12  8  1  0  0  0  0
 13 24  1  0  0  0  0
 14 25  1  0  0  0  0
 15  5  1  0  0  0  0
 16  3  1  0  0  0  0
 17 10  1  0  0  0  0
 18 20  1  0  0  0  0
 19  6  1  0  0  0  0
 20 13  1  0  0  0  0
 20 11  1  0  0  0  0
 21 26  1  0  0  0  0
 21 23  2  0  0  0  0
 23  4  1  0  0  0  0
 24 22  1  0  0  0  0
 25  9  1  0  0  0  0
 25 17  1  0  0  0  0
 26  1  2  0  0  0  0
 27  9  1  0  0  0  0
 28 29  1  0  0  0  0
 28 17  1  0  0  0  0
 29 32  1  0  0  0  0
 29 31  1  0  0  0  0
 32 31  1  0  0  0  0
 33 31  1  0  0  0  0
 33 30  1  0  0  0  0
 34 32  1  0  0  0  0
 34 30  1  0  0  0  0
M  END
>  <MODEL>
7

>  <REMARK>
 VINA RESULT:      -7.8      3.395      8.439
  Name = 
  2 active torsions:
  status: ('A' for Active; 'I' for Inactive)
    1  A    between atoms: C_17  and  C_28
    2  A    between atoms: C_28  and  C_29
                            x       y       z     vdW  Elec       q    Type
                         _______ _______ _______ _____ _____    ______ ____

>  <TORSDO>
F 2

$$$$
=
 OpenBabel11112417593D

 34 41  0  0  1  0  0  0  0  0999 V2000
  191.0580  172.4230  143.2220 C   0  0  0  0  0  0  0  0  0  0  0  0
  188.9270  173.6420  142.7530 C   0  0  0  0  0  2  0  0  0  0  0  0
  196.7660  173.5710  143.0310 C   0  0  0  0  0  2  0  0  0  0  0  0
  193.3490  171.6440  143.4820 C   0  0  0  0  0  0  0  0  0  0  0  0
  194.8020  172.7230  145.1700 C   0  0  0  0  0  0  0  0  0  0  0  0
  196.8200  174.1660  145.4890 C   0  0  0  0  0  2  0  0  0  0  0  0
  197.6420  174.0330  144.2040 C   0  0  0  0  0  2  0  0  0  0  0  0
  197.0470  171.3670  143.6120 C   0  0  0  0  0  2  0  0  0  0  0  0
  190.0960  174.0130  144.8600 C   0  0  1  0  0  3  0  0  0  0  0  0
  190.8320  176.9970  144.2880 C   0  0  0  0  0  2  0  0  0  0  0  0
  193.8260  173.5340  145.4540 N   0  0  0  0  0  0  0  0  0  0  0  0
  195.6620  170.7430  143.7940 C   0  0  0  0  0  2  0  0  0  0  0  0
  191.4920  174.3750  145.1650 N   0  0  2  0  0  0  0  0  0  0  0  0
  188.6210  175.0090  143.1640 N   0  0  0  0  0  2  0  0  0  0  0  0
  194.6260  171.7220  144.1400 N   0  0  0  0  0  0  0  0  0  0  0  0
  197.1020  172.2870  142.5480 O   0  0  0  0  0  0  0  0  0  0  0  0
  189.4900  176.6000  144.8950 C   0  0  2  0  0  3  0  0  0  0  0  0
  192.3030  172.4940  143.8870 C   0  0  0  0  0  0  0  0  0  0  0  0
  196.0820  172.9390  145.7680 N   0  0  0  0  0  2  0  0  0  0  0  0
  192.5330  173.4330  144.8300 C   0  0  1  0  0  3  0  0  0  0  0  0
  191.9880  170.7500  141.7470 C   0  0  0  0  0  3  0  0  0  0  0  0
  191.9640  176.7690  145.2900 C   0  0  0  0  0  2  0  0  0  0  0  0
  193.1610  170.7990  142.4310 N   0  0  0  0  0  0  0  0  0  0  0  0
  191.7910  175.4720  146.0750 C   0  0  0  0  0  2  0  0  0  0  0  0
  189.1030  175.1530  144.5450 C   0  0  2  0  0  3  0  0  0  0  0  0
  190.9200  171.5660  142.1240 C   0  0  0  0  0  3  0  0  0  0  0  0
  190.0400  173.2050  143.6210 C   0  0  2  0  0  3  0  0  0  0  0  0
  188.3940  177.5790  144.4950 C   0  0  0  0  0  2  0  0  0  0  0  0
  187.3300  177.6550  145.5730 C   0  0  1  0  0  3  0  0  0  0  0  0
  184.5700  178.0290  146.7240 C   0  0  0  0  0  2  0  0  0  0  0  0
  186.3170  178.6380  145.1910 C   0  0  1  0  0  3  0  0  0  0  0  0
  186.0460  177.1970  145.0200 N   0  0  2  0  0  0  0  0  0  0  0  0
  185.5570  179.1200  146.4130 C   0  0  0  0  0  2  0  0  0  0  0  0
  185.2100  176.7910  146.1450 C   0  0  0  0  0  2  0  0  0  0  0  0
  1 27  1  0  0  0  0
  1 18  1  0  0  0  0
  2 14  1  0  0  0  0
  2 27  1  0  0  0  0
  3  7  1  0  0  0  0
  4 18  2  0  0  0  0
  4 15  1  0  0  0  0
  5 11  2  0  0  0  0
  5 19  1  0  0  0  0
  6 19  1  0  0  0  0
  7  6  1  0  0  0  0
  8 12  1  0  0  0  0
  9 13  1  0  0  0  0
 10 17  1  0  0  0  0
 10 22  1  0  0  0  0
 12 15  1  0  0  0  0
 13 24  1  0  0  0  0
 14 25  1  0  0  0  0
 15  5  1  0  0  0  0
 16  3  1  0  0  0  0
 16  8  1  0  0  0  0
 18 20  1  0  0  0  0
 20 13  1  0  0  0  0
 20 11  1  0  0  0  0
 21 26  1  0  0  0  0
 21 23  2  0  0  0  0
 22 24  1  0  0  0  0
 23  4  1  0  0  0  0
 25  9  1  0  0  0  0
 25 17  1  0  0  0  0
 26  1  2  0  0  0  0
 27  9  1  0  0  0  0
 28 17  1  0  0  0  0
 28 29  1  0  0  0  0
 31 29  1  0  0  0  0
 31 33  1  0  0  0  0
 32 31  1  0  0  0  0
 32 29  1  0  0  0  0
 32 34  1  0  0  0  0
 33 30  1  0  0  0  0
 34 30  1  0  0  0  0
M  END
>  <MODEL>
8

>  <REMARK>
 VINA RESULT:      -7.8      2.138      2.470
  Name = 
  2 active torsions:
  status: ('A' for Active; 'I' for Inactive)
    1  A    between atoms: C_17  and  C_28
    2  A    between atoms: C_28  and  C_29
                            x       y       z     vdW  Elec       q    Type
                         _______ _______ _______ _____ _____    ______ ____

>  <TORSDO>
F 2

$$$$
=
 OpenBabel11112417593D

 34 41  0  0  1  0  0  0  0  0999 V2000
  191.1410  176.3510  146.3930 C   0  0  0  0  0  0  0  0  0  0  0  0
  193.5840  176.4330  146.9130 C   0  0  0  0  0  2  0  0  0  0  0  0
  187.6060  178.2630  142.1770 C   0  0  0  0  0  2  0  0  0  0  0  0
  188.8840  176.5850  145.5150 C   0  0  0  0  0  0  0  0  0  0  0  0
  188.3300  175.5620  143.3310 C   0  0  0  0  0  0  0  0  0  0  0  0
  187.7180  176.0500  140.9560 C   0  0  0  0  0  2  0  0  0  0  0  0
  187.1340  177.4660  140.9520 C   0  0  0  0  0  2  0  0  0  0  0  0
  185.9040  177.4080  143.4610 C   0  0  0  0  0  2  0  0  0  0  0  0
  192.7440  174.8150  145.2950 C   0  0  1  0  0  3  0  0  0  0  0  0
  194.1860  176.0690  142.8210 C   0  0  0  0  0  2  0  0  0  0  0  0
  189.5660  175.1700  143.2300 N   0  0  0  0  0  0  0  0  0  0  0  0
  186.5250  176.7550  144.6980 C   0  0  0  0  0  2  0  0  0  0  0  0
  191.9000  174.9630  144.0970 N   0  0  2  0  0  0  0  0  0  0  0  0
  194.6650  176.1980  145.9610 N   0  0  0  0  0  2  0  0  0  0  0  0
  187.9100  176.3180  144.4910 N   0  0  0  0  0  0  0  0  0  0  0  0
  186.5630  178.5900  143.0720 O   0  0  0  0  0  0  0  0  0  0  0  0
  194.8810  175.0650  143.7350 C   0  0  2  0  0  3  0  0  0  0  0  0
  190.1860  176.0670  145.3910 C   0  0  0  0  0  0  0  0  0  0  0  0
  187.4490  175.3760  142.2210 N   0  0  0  0  0  2  0  0  0  0  0  0
  190.5340  175.3970  144.2710 C   0  0  1  0  0  3  0  0  0  0  0  0
  189.4930  177.7100  147.5220 C   0  0  0  0  0  3  0  0  0  0  0  0
  193.0890  175.3850  142.0050 C   0  0  0  0  0  2  0  0  0  0  0  0
  188.5750  177.3850  146.5740 N   0  0  0  0  0  0  0  0  0  0  0  0
  192.3010  174.3700  142.8290 C   0  0  0  0  0  2  0  0  0  0  0  0
  194.2640  175.0430  145.1440 C   0  0  2  0  0  3  0  0  0  0  0  0
  190.7920  177.2070  147.4450 C   0  0  0  0  0  3  0  0  0  0  0  0
  192.3790  175.8350  146.3040 C   0  0  2  0  0  3  0  0  0  0  0  0
  196.3820  175.3190  143.7910 C   0  0  0  0  0  2  0  0  0  0  0  0
  197.1420  174.1360  143.2220 C   0  0  1  0  0  3  0  0  0  0  0  0
  197.6660  171.7900  141.4060 C   0  0  0  0  0  2  0  0  0  0  0  0
  196.1960  173.1230  142.7590 C   0  0  1  0  0  3  0  0  0  0  0  0
  196.8510  174.0180  141.7850 N   0  0  2  0  0  0  0  0  0  0  0  0
  196.8670  171.7650  142.6800 C   0  0  0  0  0  2  0  0  0  0  0  0
  197.9410  173.2570  141.1840 C   0  0  0  0  0  2  0  0  0  0  0  0
  1 26  1  0  0  0  0
  3 16  1  0  0  0  0
  4 23  2  0  0  0  0
  5 15  1  0  0  0  0
  6 19  1  0  0  0  0
  7  6  1  0  0  0  0
  7  3  1  0  0  0  0
  8 12  1  0  0  0  0
  9 27  1  0  0  0  0
 10 17  1  0  0  0  0
 11  5  2  0  0  0  0
 11 20  1  0  0  0  0
 13 20  1  0  0  0  0
 13  9  1  0  0  0  0
 14  2  1  0  0  0  0
 15 12  1  0  0  0  0
 15  4  1  0  0  0  0
 16  8  1  0  0  0  0
 17 28  1  0  0  0  0
 17 25  1  0  0  0  0
 18  4  1  0  0  0  0
 18  1  2  0  0  0  0
 19  5  1  0  0  0  0
 20 18  1  0  0  0  0
 22 10  1  0  0  0  0
 22 24  1  0  0  0  0
 23 21  1  0  0  0  0
 24 13  1  0  0  0  0
 25  9  1  0  0  0  0
 25 14  1  0  0  0  0
 26 21  2  0  0  0  0
 27  1  1  0  0  0  0
 27  2  1  0  0  0  0
 29 28  1  0  0  0  0
 30 33  1  0  0  0  0
 31 29  1  0  0  0  0
 32 31  1  0  0  0  0
 32 29  1  0  0  0  0
 33 31  1  0  0  0  0
 34 30  1  0  0  0  0
 34 32  1  0  0  0  0
M  END
>  <MODEL>
9

>  <REMARK>
 VINA RESULT:      -7.7      2.723      8.772
  Name = 
  2 active torsions:
  status: ('A' for Active; 'I' for Inactive)
    1  A    between atoms: C_17  and  C_28
    2  A    between atoms: C_28  and  C_29
                            x       y       z     vdW  Elec       q    Type
                         _______ _______ _______ _____ _____    ______ ____

>  <TORSDO>
F 2

$$$$
