=
 OpenBabel11112417353D

 28 32  0  0  1  0  0  0  0  0999 V2000
  188.1250  175.9520  146.3950 C   0  0  0  0  0  0  0  0  0  0  0  0
  186.3740  176.8910  142.1020 O   0  0  0  0  0  0  0  0  0  0  0  0
  193.7190  176.4540  144.0020 O   0  0  0  0  0  0  0  0  0  0  0  0
  186.4240  178.1250  145.8970 C   0  0  0  0  0  3  0  0  0  0  0  0
  192.1600  174.9310  143.0540 C   0  0  1  0  0  3  0  0  0  0  0  0
  189.0550  174.8430  146.7810 C   0  0  0  0  0  2  0  0  0  0  0  0
  188.5280  177.8970  141.4220 O   0  0  0  0  0  0  0  0  0  0  0  0
  187.7960  176.6150  141.6990 S   0  0  0  0  0  0  0  0  0  0  0  0
  188.5960  174.3490  140.3140 C   0  0  0  0  0  0  0  0  0  0  0  0
  188.6200  175.6610  142.9420 C   0  0  1  0  0  3  0  0  0  0  0  0
  191.4990  177.1290  148.3510 C   0  0  0  0  0  1  0  0  0  0  0  0
  190.3740  175.5270  144.4890 N   0  0  1  0  0  0  0  0  0  0  0  0
  189.5060  174.0880  141.2690 C   0  0  0  0  0  2  0  0  0  0  0  0
  187.8360  175.5760  140.3050 N   0  0  0  0  0  0  0  0  0  0  0  0
  190.8360  176.5070  147.2210 N   0  0  0  0  0  0  0  0  0  0  0  0
  188.2650  176.6950  145.1900 C   0  0  0  0  0  0  0  0  0  0  0  0
  192.5980  175.9730  143.9820 C   0  0  0  0  0  0  0  0  0  0  0  0
  188.3420  173.3320  139.2630 C   0  0  0  0  0  1  0  0  0  0  0  0
  191.8880  176.0570  146.3200 C   0  0  0  0  0  2  0  0  0  0  0  0
  187.4060  177.7800  144.9690 C   0  0  0  0  0  3  0  0  0  0  0  0
  187.1350  176.3100  147.3200 C   0  0  0  0  0  3  0  0  0  0  0  0
  186.2850  177.3870  147.0710 C   0  0  0  0  0  3  0  0  0  0  0  0
  190.1420  175.3330  147.7420 C   0  0  0  0  0  2  0  0  0  0  0  0
  190.7290  174.7130  143.3630 N   0  0  1  0  0  0  0  0  0  0  0  0
  191.5080  176.3660  144.8760 C   0  0  2  0  0  3  0  0  0  0  0  0
  189.8400  175.1370  142.2840 C   0  0  2  0  0  3  0  0  0  0  0  0
  192.3820  175.3370  141.7310 O   0  0  0  0  0  1  0  0  0  0  0  0
  189.2570  176.3920  144.0820 C   0  0  2  0  0  3  0  0  0  0  0  0
  1  6  1  0  0  0  0
  1 21  1  0  0  0  0
  4 22  1  0  0  0  0
  5 27  1  6  0  0  0
  5 24  1  0  0  0  0
  5 17  1  0  0  0  0
  6 23  1  0  0  0  0
  7  8  2  0  0  0  0
  8  2  2  0  0  0  0
  9 13  1  0  0  0  0
 10  8  1  6  0  0  0
 10 28  1  0  0  0  0
 12 25  1  0  0  0  0
 13 26  1  0  0  0  0
 14  9  2  0  0  0  0
 14  8  1  0  0  0  0
 15 23  1  0  0  0  0
 15 11  1  0  0  0  0
 16  1  2  0  0  0  0
 17  3  2  0  0  0  0
 17 25  1  0  0  0  0
 18  9  1  0  0  0  0
 19 15  1  0  0  0  0
 20 16  1  0  0  0  0
 20  4  2  0  0  0  0
 22 21  2  0  0  0  0
 24 12  1  0  0  0  0
 25 19  1  0  0  0  0
 26 10  1  0  0  0  0
 26 24  1  0  0  0  0
 28 12  1  0  0  0  0
 28 16  1  0  0  0  0
M  END
>  <MODEL>
1

>  <REMARK>
 VINA RESULT:      -8.8      0.000      0.000
  Name = 
  0 active torsions:
  status: ('A' for Active; 'I' for Inactive)
                            x       y       z     vdW  Elec       q    Type
                         _______ _______ _______ _____ _____    ______ ____

>  <TORSDO>
F 0

$$$$
=
 OpenBabel11112417353D

 28 32  0  0  1  0  0  0  0  0999 V2000
  185.3480  177.6240  145.5120 C   0  0  0  0  0  0  0  0  0  0  0  0
  186.1460  177.3790  140.8560 O   0  0  0  0  0  0  0  0  0  0  0  0
  191.3580  176.9750  146.3710 O   0  0  0  0  0  0  0  0  0  0  0  0
  184.6200  179.6740  143.7420 C   0  0  0  0  0  3  0  0  0  0  0  0
  190.1640  175.3600  145.0990 C   0  0  1  0  0  3  0  0  0  0  0  0
  185.7090  176.6130  146.5570 C   0  0  0  0  0  2  0  0  0  0  0  0
  188.5200  177.9740  141.2100 O   0  0  0  0  0  0  0  0  0  0  0  0
  187.4860  176.8900  141.3300 S   0  0  0  0  0  0  0  0  0  0  0  0
  188.3430  174.2630  141.0960 C   0  0  0  0  0  0  0  0  0  0  0  0
  187.3760  176.2870  142.9910 C   0  0  1  0  0  3  0  0  0  0  0  0
  187.5180  179.0720  148.6420 C   0  0  0  0  0  1  0  0  0  0  0  0
  188.0850  176.4870  145.2150 N   0  0  1  0  0  0  0  0  0  0  0  0
  188.5950  174.2280  142.4160 C   0  0  0  0  0  2  0  0  0  0  0  0
  187.9700  175.4850  140.4260 N   0  0  0  0  0  0  0  0  0  0  0  0
  187.3680  178.1940  147.4970 N   0  0  0  0  0  0  0  0  0  0  0  0
  186.2120  177.9640  144.4340 C   0  0  0  0  0  0  0  0  0  0  0  0
  190.3130  176.5950  145.8690 C   0  0  0  0  0  0  0  0  0  0  0  0
  188.4150  173.0010  140.3150 C   0  0  0  0  0  1  0  0  0  0  0  0
  188.5980  177.4200  147.4040 C   0  0  0  0  0  2  0  0  0  0  0  0
  185.8270  178.9960  143.5680 C   0  0  0  0  0  3  0  0  0  0  0  0
  184.1390  178.3130  145.6770 C   0  0  0  0  0  3  0  0  0  0  0  0
  183.7730  179.3280  144.7940 C   0  0  0  0  0  3  0  0  0  0  0  0
  186.2720  177.2820  147.8130 C   0  0  0  0  0  2  0  0  0  0  0  0
  188.7540  175.3520  144.6490 N   0  0  1  0  0  0  0  0  0  0  0  0
  189.0420  177.3150  145.9490 C   0  0  2  0  0  3  0  0  0  0  0  0
  188.6150  175.5030  143.2030 C   0  0  2  0  0  3  0  0  0  0  0  0
  191.0810  175.3390  144.0390 O   0  0  0  0  0  1  0  0  0  0  0  0
  187.5240  177.2740  144.1070 C   0  0  2  0  0  3  0  0  0  0  0  0
  1 21  1  0  0  0  0
  1  6  1  0  0  0  0
  2  8  2  0  0  0  0
  4 22  1  0  0  0  0
  5 27  1  6  0  0  0
  5 17  1  0  0  0  0
  6 23  1  0  0  0  0
  7  8  2  0  0  0  0
  9 13  1  0  0  0  0
 10  8  1  6  0  0  0
 10 26  1  0  0  0  0
 10 28  1  0  0  0  0
 12 25  1  0  0  0  0
 13 26  1  0  0  0  0
 14  9  2  0  0  0  0
 14  8  1  0  0  0  0
 15 23  1  0  0  0  0
 15 11  1  0  0  0  0
 16  1  2  0  0  0  0
 17 25  1  0  0  0  0
 17  3  2  0  0  0  0
 18  9  1  0  0  0  0
 19 15  1  0  0  0  0
 20  4  2  0  0  0  0
 20 16  1  0  0  0  0
 22 21  2  0  0  0  0
 24  5  1  0  0  0  0
 24 12  1  0  0  0  0
 25 19  1  0  0  0  0
 26 24  1  0  0  0  0
 28 16  1  0  0  0  0
 28 12  1  0  0  0  0
M  END
>  <MODEL>
2

>  <REMARK>
 VINA RESULT:      -8.3      1.942      2.789
  Name = 
  0 active torsions:
  status: ('A' for Active; 'I' for Inactive)
                            x       y       z     vdW  Elec       q    Type
                         _______ _______ _______ _____ _____    ______ ____

>  <TORSDO>
F 0

$$$$
=
 OpenBabel11112417353D

 28 32  0  0  1  0  0  0  0  0999 V2000
  189.7890  173.0960  143.0080 C   0  0  0  0  0  0  0  0  0  0  0  0
  190.5170  176.0800  146.6050 O   0  0  0  0  0  0  0  0  0  0  0  0
  187.0170  177.6600  140.0480 O   0  0  0  0  0  0  0  0  0  0  0  0
  192.3500  173.6980  143.9800 C   0  0  0  0  0  3  0  0  0  0  0  0
  186.2690  177.0290  142.2140 C   0  0  1  0  0  3  0  0  0  0  0  0
  188.4810  172.7140  142.3860 C   0  0  0  0  0  2  0  0  0  0  0  0
  190.1920  178.0110  145.0960 O   0  0  0  0  0  0  0  0  0  0  0  0
  189.5130  176.9000  145.8450 S   0  0  0  0  0  0  0  0  0  0  0  0
  186.9060  177.3240  146.6930 C   0  0  0  0  0  0  0  0  0  0  0  0
  188.5690  175.8730  144.7550 C   0  0  1  0  0  3  0  0  0  0  0  0
  189.5840  173.5920  138.9690 C   0  0  0  0  0  1  0  0  0  0  0  0
  187.9400  175.3870  142.5510 N   0  0  1  0  0  0  0  0  0  0  0  0
  186.4490  176.8680  145.5140 C   0  0  0  0  0  3  0  0  0  0  0  0
  188.3130  177.5410  146.9290 N   0  0  0  0  0  2  0  0  0  0  0  0
  189.1330  173.9010  140.3120 N   0  0  0  0  0  0  0  0  0  0  0  0
  190.0970  174.4260  143.4050 C   0  0  0  0  0  0  0  0  0  0  0  0
  187.1430  176.9650  141.0430 C   0  0  0  0  0  0  0  0  0  0  0  0
  185.9390  177.5770  147.7910 C   0  0  0  0  0  1  0  0  0  0  0  0
  188.0530  174.8680  140.1750 C   0  0  0  0  0  2  0  0  0  0  0  0
  191.3860  174.7010  143.8820 C   0  0  0  0  0  3  0  0  0  0  0  0
  190.7670  172.0970  143.1100 C   0  0  0  0  0  3  0  0  0  0  0  0
  192.0380  172.3940  143.5990 C   0  0  0  0  0  3  0  0  0  0  0  0
  188.5790  172.6650  140.8590 C   0  0  0  0  0  2  0  0  0  0  0  0
  186.8380  176.0570  143.1760 N   0  0  1  0  0  0  0  0  0  0  0  0
  188.1910  175.9610  141.2290 C   0  0  2  0  0  3  0  0  0  0  0  0
  187.3970  176.6930  144.3660 C   0  0  2  0  0  3  0  0  0  0  0  0
  186.2270  178.3380  142.7140 O   0  0  0  0  0  1  0  0  0  0  0  0
  189.1270  175.5940  143.3940 C   0  0  2  0  0  3  0  0  0  0  0  0
  1 21  2  0  0  0  0
  1 16  1  0  0  0  0
  3 17  2  0  0  0  0
  5 27  1  1  0  0  0
  5 24  1  0  0  0  0
  6  1  1  0  0  0  0
  7  8  2  0  0  0  0
  8  2  2  0  0  0  0
  8 14  1  0  0  0  0
  9 14  1  0  0  0  0
  9 18  1  0  0  0  0
 10  8  1  1  0  0  0
 11 15  1  0  0  0  0
 12 24  1  0  0  0  0
 12 28  1  0  0  0  0
 13  9  2  0  0  0  0
 15 23  1  0  0  0  0
 16 20  2  0  0  0  0
 17 25  1  0  0  0  0
 17  5  1  0  0  0  0
 19 15  1  0  0  0  0
 19 25  1  0  0  0  0
 20  4  1  0  0  0  0
 21 22  1  0  0  0  0
 22  4  2  0  0  0  0
 23  6  1  0  0  0  0
 24 26  1  0  0  0  0
 25 12  1  0  0  0  0
 26 10  1  0  0  0  0
 26 13  1  0  0  0  0
 28 16  1  0  0  0  0
 28 10  1  0  0  0  0
M  END
>  <MODEL>
3

>  <REMARK>
 VINA RESULT:      -8.1      2.471      6.263
  Name = 
  0 active torsions:
  status: ('A' for Active; 'I' for Inactive)
                            x       y       z     vdW  Elec       q    Type
                         _______ _______ _______ _____ _____    ______ ____

>  <TORSDO>
F 0

$$$$
=
 OpenBabel11112417353D

 28 32  0  0  1  0  0  0  0  0999 V2000
  185.7700  177.2980  144.8120 C   0  0  0  0  0  0  0  0  0  0  0  0
  188.3970  175.7860  141.1800 O   0  0  0  0  0  0  0  0  0  0  0  0
  190.8350  177.2750  148.2220 O   0  0  0  0  0  0  0  0  0  0  0  0
  185.9730  178.7140  142.4000 C   0  0  0  0  0  3  0  0  0  0  0  0
  190.1660  175.2980  147.0840 C   0  0  1  0  0  3  0  0  0  0  0  0
  185.6010  176.6490  146.1510 C   0  0  0  0  0  2  0  0  0  0  0  0
  190.4470  176.5960  142.2990 O   0  0  0  0  0  0  0  0  0  0  0  0
  189.3870  175.5320  142.2820 S   0  0  0  0  0  0  0  0  0  0  0  0
  190.0860  173.0020  143.1760 C   0  0  0  0  0  0  0  0  0  0  0  0
  188.5620  175.4210  143.8450 C   0  0  1  0  0  3  0  0  0  0  0  0
  186.5500  179.7020  148.0090 C   0  0  0  0  0  1  0  0  0  0  0  0
  188.3040  176.2860  146.0070 N   0  0  1  0  0  0  0  0  0  0  0  0
  189.7700  173.3590  144.4330 C   0  0  0  0  0  2  0  0  0  0  0  0
  190.1040  173.9590  142.0960 N   0  0  0  0  0  0  0  0  0  0  0  0
  186.8260  178.5280  147.2040 N   0  0  0  0  0  0  0  0  0  0  0  0
  187.0220  177.3680  144.1400 C   0  0  0  0  0  0  0  0  0  0  0  0
  190.0670  176.7060  147.4620 C   0  0  0  0  0  0  0  0  0  0  0  0
  190.3900  171.5770  142.8860 C   0  0  0  0  0  1  0  0  0  0  0  0
  187.9310  177.8320  147.8500 C   0  0  0  0  0  2  0  0  0  0  0  0
  187.0970  178.0870  142.9390 C   0  0  0  0  0  3  0  0  0  0  0  0
  184.6500  177.9340  144.2610 C   0  0  0  0  0  3  0  0  0  0  0  0
  184.7480  178.6330  143.0590 C   0  0  0  0  0  3  0  0  0  0  0  0
  185.6390  177.6810  147.2830 C   0  0  0  0  0  2  0  0  0  0  0  0
  189.0700  175.0790  146.1140 N   0  0  1  0  0  0  0  0  0  0  0  0
  188.9270  177.3450  146.8030 C   0  0  2  0  0  3  0  0  0  0  0  0
  189.5490  174.8040  144.7620 C   0  0  2  0  0  3  0  0  0  0  0  0
  191.4350  175.0300  146.5510 O   0  0  0  0  0  1  0  0  0  0  0  0
  188.3030  176.6920  144.5940 C   0  0  2  0  0  3  0  0  0  0  0  0
  1  6  1  0  0  0  0
  2  8  2  0  0  0  0
  4 20  2  0  0  0  0
  4 22  1  0  0  0  0
  5 27  1  6  0  0  0
  5 17  1  0  0  0  0
  6 23  1  0  0  0  0
  8  7  2  0  0  0  0
  9 13  1  0  0  0  0
 10  8  1  6  0  0  0
 10 28  1  0  0  0  0
 10 26  1  0  0  0  0
 12 24  1  0  0  0  0
 12 25  1  0  0  0  0
 13 26  1  0  0  0  0
 14  8  1  0  0  0  0
 14  9  2  0  0  0  0
 15 23  1  0  0  0  0
 15 19  1  0  0  0  0
 15 11  1  0  0  0  0
 16 28  1  0  0  0  0
 16  1  2  0  0  0  0
 17  3  2  0  0  0  0
 18  9  1  0  0  0  0
 20 16  1  0  0  0  0
 21  1  1  0  0  0  0
 22 21  2  0  0  0  0
 24  5  1  0  0  0  0
 25 17  1  0  0  0  0
 25 19  1  0  0  0  0
 26 24  1  0  0  0  0
 28 12  1  0  0  0  0
M  END
>  <MODEL>
4

>  <REMARK>
 VINA RESULT:      -7.9      2.445      3.688
  Name = 
  0 active torsions:
  status: ('A' for Active; 'I' for Inactive)
                            x       y       z     vdW  Elec       q    Type
                         _______ _______ _______ _____ _____    ______ ____

>  <TORSDO>
F 0

$$$$
=
 OpenBabel11112417353D

 28 32  0  0  1  0  0  0  0  0999 V2000
  186.5160  178.5120  145.1110 C   0  0  0  0  0  0  0  0  0  0  0  0
  189.4060  175.9420  147.8360 O   0  0  0  0  0  0  0  0  0  0  0  0
  187.9130  174.7930  140.4740 O   0  0  0  0  0  0  0  0  0  0  0  0
  185.6450  177.2210  147.4440 C   0  0  0  0  0  3  0  0  0  0  0  0
  189.6460  175.9090  141.6590 C   0  0  1  0  0  3  0  0  0  0  0  0
  186.8530  179.2250  143.8380 C   0  0  0  0  0  2  0  0  0  0  0  0
  189.2580  174.0530  146.2480 O   0  0  0  0  0  0  0  0  0  0  0  0
  189.8440  175.4130  146.5000 S   0  0  0  0  0  0  0  0  0  0  0  0
  192.2940  175.9950  145.3370 C   0  0  0  0  0  0  0  0  0  0  0  0
  189.4120  176.5480  145.2110 C   0  0  1  0  0  3  0  0  0  0  0  0
  184.1320  177.5990  141.9360 C   0  0  0  0  0  1  0  0  0  0  0  0
  188.2070  176.9300  143.2380 N   0  0  1  0  0  0  0  0  0  0  0  0
  191.6660  176.4220  144.2280 C   0  0  0  0  0  3  0  0  0  0  0  0
  191.5800  175.3540  146.4140 N   0  0  0  0  0  2  0  0  0  0  0  0
  185.4300  177.6330  142.5830 N   0  0  0  0  0  0  0  0  0  0  0  0
  187.0130  177.2170  145.4270 C   0  0  0  0  0  0  0  0  0  0  0  0
  188.2610  175.5280  141.3850 C   0  0  0  0  0  0  0  0  0  0  0  0
  193.7560  176.2210  145.4690 C   0  0  0  0  0  1  0  0  0  0  0  0
  186.3810  177.0730  141.6340 C   0  0  0  0  0  2  0  0  0  0  0  0
  186.5570  176.5920  146.5960 C   0  0  0  0  0  3  0  0  0  0  0  0
  185.6000  179.1320  145.9710 C   0  0  0  0  0  3  0  0  0  0  0  0
  185.1700  178.4940  147.1330 C   0  0  0  0  0  3  0  0  0  0  0  0
  185.7560  179.0420  142.7860 C   0  0  0  0  0  2  0  0  0  0  0  0
  189.5830  176.7500  142.8750 N   0  0  1  0  0  0  0  0  0  0  0  0
  187.3500  176.1400  142.3530 C   0  0  2  0  0  3  0  0  0  0  0  0
  190.2100  176.1230  144.0360 C   0  0  2  0  0  3  0  0  0  0  0  0
  190.4390  174.7640  141.8200 O   0  0  0  0  0  1  0  0  0  0  0  0
  188.0410  176.4480  144.6170 C   0  0  2  0  0  3  0  0  0  0  0  0
  1 16  2  0  0  0  0
  1 21  1  0  0  0  0
  3 17  2  0  0  0  0
  5 27  1  1  0  0  0
  5 24  1  0  0  0  0
  6  1  1  0  0  0  0
  7  8  2  0  0  0  0
  8  2  2  0  0  0  0
  9 18  1  0  0  0  0
  9 14  1  0  0  0  0
 10  8  1  1  0  0  0
 11 15  1  0  0  0  0
 12 28  1  0  0  0  0
 13  9  2  0  0  0  0
 14  8  1  0  0  0  0
 15 23  1  0  0  0  0
 16 20  1  0  0  0  0
 17  5  1  0  0  0  0
 17 25  1  0  0  0  0
 19 25  1  0  0  0  0
 19 15  1  0  0  0  0
 20  4  2  0  0  0  0
 21 22  2  0  0  0  0
 22  4  1  0  0  0  0
 23  6  1  0  0  0  0
 24 12  1  0  0  0  0
 24 26  1  0  0  0  0
 25 12  1  0  0  0  0
 26 13  1  0  0  0  0
 26 10  1  0  0  0  0
 28 10  1  0  0  0  0
 28 16  1  0  0  0  0
M  END
>  <MODEL>
5

>  <REMARK>
 VINA RESULT:      -7.6      2.668      5.222
  Name = 
  0 active torsions:
  status: ('A' for Active; 'I' for Inactive)
                            x       y       z     vdW  Elec       q    Type
                         _______ _______ _______ _____ _____    ______ ____

>  <TORSDO>
F 0

$$$$
=
 OpenBabel11112417353D

 28 32  0  0  1  0  0  0  0  0999 V2000
  192.4350  175.5920  142.5360 C   0  0  0  0  0  0  0  0  0  0  0  0
  188.1860  175.4940  140.4590 O   0  0  0  0  0  0  0  0  0  0  0  0
  189.6330  174.5410  147.8580 O   0  0  0  0  0  0  0  0  0  0  0  0
  191.7950  173.7900  140.4850 C   0  0  0  0  0  3  0  0  0  0  0  0
  188.9800  176.3960  146.5240 C   0  0  1  0  0  3  0  0  0  0  0  0
  192.8890  176.4840  143.6510 C   0  0  0  0  0  2  0  0  0  0  0  0
  187.2490  174.2620  142.3870 O   0  0  0  0  0  0  0  0  0  0  0  0
  187.7260  175.5960  141.8860 S   0  0  0  0  0  0  0  0  0  0  0  0
  186.5720  177.8700  142.9780 C   0  0  0  0  0  0  0  0  0  0  0  0
  189.0160  176.2440  142.9110 C   0  0  1  0  0  3  0  0  0  0  0  0
  194.0090  173.6640  145.7630 C   0  0  0  0  0  1  0  0  0  0  0  0
  190.4490  175.9050  144.7340 N   0  0  1  0  0  0  0  0  0  0  0  0
  187.4880  177.8630  143.9610 C   0  0  0  0  0  2  0  0  0  0  0  0
  186.4670  176.7870  142.0300 N   0  0  0  0  0  0  0  0  0  0  0  0
  193.0080  174.5220  145.1580 N   0  0  0  0  0  0  0  0  0  0  0  0
  191.1440  174.9970  142.4990 C   0  0  0  0  0  0  0  0  0  0  0  0
  189.7450  175.1880  146.8300 C   0  0  0  0  0  0  0  0  0  0  0  0
  185.6680  179.0410  142.8430 C   0  0  0  0  0  1  0  0  0  0  0  0
  192.0990  174.9160  146.2250 C   0  0  0  0  0  2  0  0  0  0  0  0
  190.8520  174.0950  141.4660 C   0  0  0  0  0  3  0  0  0  0  0  0
  193.3740  175.2760  141.5460 C   0  0  0  0  0  3  0  0  0  0  0  0
  193.0560  174.3840  140.5220 C   0  0  0  0  0  3  0  0  0  0  0  0
  193.7100  175.7130  144.6870 C   0  0  0  0  0  2  0  0  0  0  0  0
  189.4070  176.7920  145.1630 N   0  0  1  0  0  0  0  0  0  0  0  0
  190.6570  174.8570  145.7340 C   0  0  2  0  0  3  0  0  0  0  0  0
  188.3460  176.6520  144.1680 C   0  0  2  0  0  3  0  0  0  0  0  0
  187.6060  176.1330  146.6160 O   0  0  0  0  0  1  0  0  0  0  0  0
  190.0160  175.2820  143.4740 C   0  0  2  0  0  3  0  0  0  0  0  0
  1  6  1  0  0  0  0
  2  8  2  0  0  0  0
  4 22  2  0  0  0  0
  4 20  1  0  0  0  0
  5 27  1  6  0  0  0
  5 17  1  0  0  0  0
  6 23  1  0  0  0  0
  8 14  1  0  0  0  0
  8  7  2  0  0  0  0
  9 13  1  0  0  0  0
 10  8  1  6  0  0  0
 10 28  1  0  0  0  0
 10 26  1  0  0  0  0
 12 24  1  0  0  0  0
 12 25  1  0  0  0  0
 13 26  1  0  0  0  0
 14  9  2  0  0  0  0
 15 11  1  0  0  0  0
 15 19  1  0  0  0  0
 16  1  1  0  0  0  0
 16 28  1  0  0  0  0
 17  3  2  0  0  0  0
 18  9  1  0  0  0  0
 20 16  2  0  0  0  0
 21  1  2  0  0  0  0
 22 21  1  0  0  0  0
 23 15  1  0  0  0  0
 24  5  1  0  0  0  0
 25 19  1  0  0  0  0
 25 17  1  0  0  0  0
 26 24  1  0  0  0  0
 28 12  1  0  0  0  0
M  END
>  <MODEL>
6

>  <REMARK>
 VINA RESULT:      -7.4      2.308      5.025
  Name = 
  0 active torsions:
  status: ('A' for Active; 'I' for Inactive)
                            x       y       z     vdW  Elec       q    Type
                         _______ _______ _______ _____ _____    ______ ____

>  <TORSDO>
F 0

$$$$
=
 OpenBabel11112417353D

 28 32  0  0  1  0  0  0  0  0999 V2000
  190.2900  177.1940  144.5670 C   0  0  0  0  0  0  0  0  0  0  0  0
  194.2930  175.7670  146.6440 O   0  0  0  0  0  0  0  0  0  0  0  0
  191.0830  172.7590  140.4470 O   0  0  0  0  0  0  0  0  0  0  0  0
  190.3920  176.3580  147.2430 C   0  0  0  0  0  3  0  0  0  0  0  0
  192.8050  174.3570  140.8110 C   0  0  1  0  0  3  0  0  0  0  0  0
  190.1030  177.6390  143.1490 C   0  0  0  0  0  2  0  0  0  0  0  0
  194.1060  173.5640  145.5380 O   0  0  0  0  0  0  0  0  0  0  0  0
  194.4420  175.0160  145.3510 S   0  0  0  0  0  0  0  0  0  0  0  0
  196.2940  175.6680  143.3910 C   0  0  0  0  0  0  0  0  0  0  0  0
  193.4420  175.7500  144.0870 C   0  0  1  0  0  3  0  0  0  0  0  0
  187.3610  175.2410  142.5160 C   0  0  0  0  0  1  0  0  0  0  0  0
  191.6830  175.4900  142.5610 N   0  0  1  0  0  0  0  0  0  0  0  0
  195.3070  175.7340  142.4810 C   0  0  0  0  0  3  0  0  0  0  0  0
  196.0580  175.1930  144.7330 N   0  0  0  0  0  2  0  0  0  0  0  0
  188.7500  175.6110  142.7050 N   0  0  0  0  0  0  0  0  0  0  0  0
  191.1140  176.0930  144.9300 C   0  0  0  0  0  0  0  0  0  0  0  0
  191.5100  173.7250  141.0590 C   0  0  0  0  0  0  0  0  0  0  0  0
  197.6540  176.1300  143.0140 C   0  0  0  0  0  1  0  0  0  0  0  0
  189.4950  174.9940  141.6170 C   0  0  0  0  0  2  0  0  0  0  0  0
  191.1420  175.6920  146.2730 C   0  0  0  0  0  3  0  0  0  0  0  0
  189.5400  177.8540  145.5510 C   0  0  0  0  0  3  0  0  0  0  0  0
  189.5940  177.4430  146.8820 C   0  0  0  0  0  3  0  0  0  0  0  0
  188.8190  177.0610  142.5460 C   0  0  0  0  0  2  0  0  0  0  0  0
  192.9100  175.4360  141.8200 N   0  0  1  0  0  0  0  0  0  0  0  0
  190.7980  174.4020  142.1440 C   0  0  2  0  0  3  0  0  0  0  0  0
  193.9510  175.1890  142.8130 C   0  0  2  0  0  3  0  0  0  0  0  0
  193.8320  173.4080  140.9110 O   0  0  0  0  0  1  0  0  0  0  0  0
  192.0120  175.3180  143.9840 C   0  0  2  0  0  3  0  0  0  0  0  0
  1 16  2  0  0  0  0
  1 21  1  0  0  0  0
  3 17  2  0  0  0  0
  5 27  1  1  0  0  0
  5 17  1  0  0  0  0
  5 24  1  0  0  0  0
  6  1  1  0  0  0  0
  8  7  2  0  0  0  0
  8  2  2  0  0  0  0
  9 14  1  0  0  0  0
 10  8  1  1  0  0  0
 11 15  1  0  0  0  0
 12 28  1  0  0  0  0
 13 26  1  0  0  0  0
 13  9  2  0  0  0  0
 14  8  1  0  0  0  0
 16 20  1  0  0  0  0
 17 25  1  0  0  0  0
 18  9  1  0  0  0  0
 19 25  1  0  0  0  0
 19 15  1  0  0  0  0
 20  4  2  0  0  0  0
 21 22  2  0  0  0  0
 22  4  1  0  0  0  0
 23 15  1  0  0  0  0
 23  6  1  0  0  0  0
 24 12  1  0  0  0  0
 24 26  1  0  0  0  0
 25 12  1  0  0  0  0
 26 10  1  0  0  0  0
 28 10  1  0  0  0  0
 28 16  1  0  0  0  0
M  END
>  <MODEL>
7

>  <REMARK>
 VINA RESULT:      -7.3      3.037      5.656
  Name = 
  0 active torsions:
  status: ('A' for Active; 'I' for Inactive)
                            x       y       z     vdW  Elec       q    Type
                         _______ _______ _______ _____ _____    ______ ____

>  <TORSDO>
F 0

$$$$
=
 OpenBabel11112417353D

 28 32  0  0  1  0  0  0  0  0999 V2000
  188.1170  176.2680  143.2980 C   0  0  0  0  0  0  0  0  0  0  0  0
  190.0810  177.5350  147.4110 O   0  0  0  0  0  0  0  0  0  0  0  0
  191.4520  171.1590  143.5100 O   0  0  0  0  0  0  0  0  0  0  0  0
  186.6020  176.7910  145.6000 C   0  0  0  0  0  3  0  0  0  0  0  0
  192.5220  173.2770  143.6520 C   0  0  1  0  0  3  0  0  0  0  0  0
  188.8140  175.9420  142.0130 C   0  0  0  0  0  2  0  0  0  0  0  0
  190.7040  175.1850  147.8600 O   0  0  0  0  0  0  0  0  0  0  0  0
  191.0200  176.4160  147.0590 S   0  0  0  0  0  0  0  0  0  0  0  0
  193.6520  176.7990  146.2720 C   0  0  0  0  0  0  0  0  0  0  0  0
  190.9670  176.0830  145.3210 C   0  0  1  0  0  3  0  0  0  0  0  0
  187.1360  172.6660  141.6670 C   0  0  0  0  0  1  0  0  0  0  0  0
  190.5180  174.5350  143.6200 N   0  0  1  0  0  0  0  0  0  0  0  0
  193.4230  176.0800  145.1590 C   0  0  0  0  0  3  0  0  0  0  0  0
  192.6670  176.9070  147.3220 N   0  0  0  0  0  2  0  0  0  0  0  0
  188.1040  173.5790  142.2420 N   0  0  0  0  0  0  0  0  0  0  0  0
  188.5950  175.8430  144.5670 C   0  0  0  0  0  0  0  0  0  0  0  0
  191.3740  172.3760  143.5610 C   0  0  0  0  0  0  0  0  0  0  0  0
  194.9380  177.5300  146.4060 C   0  0  0  0  0  1  0  0  0  0  0  0
  189.3840  172.8860  142.2350 C   0  0  0  0  0  2  0  0  0  0  0  0
  187.8160  176.1110  145.7010 C   0  0  0  0  0  3  0  0  0  0  0  0
  186.8950  176.9490  143.2090 C   0  0  0  0  0  3  0  0  0  0  0  0
  186.1440  177.2140  144.3530 C   0  0  0  0  0  3  0  0  0  0  0  0
  188.1910  174.7190  141.3330 C   0  0  0  0  0  2  0  0  0  0  0  0
  191.9420  174.6350  143.7470 N   0  0  1  0  0  0  0  0  0  0  0  0
  190.1200  173.1290  143.5480 C   0  0  2  0  0  3  0  0  0  0  0  0
  192.1720  175.2640  145.0450 C   0  0  2  0  0  3  0  0  0  0  0  0
  193.3160  172.9370  144.7570 O   0  0  0  0  0  1  0  0  0  0  0  0
  189.9180  175.1400  144.8180 C   0  0  2  0  0  3  0  0  0  0  0  0
  1 16  1  0  0  0  0
  3 17  2  0  0  0  0
  4 20  1  0  0  0  0
  5 24  1  0  0  0  0
  5 27  1  1  0  0  0
  6  1  1  0  0  0  0
  8 14  1  0  0  0  0
  8  2  2  0  0  0  0
  8  7  2  0  0  0  0
  9 18  1  0  0  0  0
  9 14  1  0  0  0  0
 10  8  1  1  0  0  0
 11 15  1  0  0  0  0
 12 24  1  0  0  0  0
 12 28  1  0  0  0  0
 13  9  2  0  0  0  0
 16 28  1  0  0  0  0
 16 20  2  0  0  0  0
 17  5  1  0  0  0  0
 19 15  1  0  0  0  0
 19 25  1  0  0  0  0
 21  1  2  0  0  0  0
 21 22  1  0  0  0  0
 22  4  2  0  0  0  0
 23  6  1  0  0  0  0
 23 15  1  0  0  0  0
 24 26  1  0  0  0  0
 25 17  1  0  0  0  0
 25 12  1  0  0  0  0
 26 13  1  0  0  0  0
 26 10  1  0  0  0  0
 28 10  1  0  0  0  0
M  END
>  <MODEL>
8

>  <REMARK>
 VINA RESULT:      -7.0      2.766      5.354
  Name = 
  0 active torsions:
  status: ('A' for Active; 'I' for Inactive)
                            x       y       z     vdW  Elec       q    Type
                         _______ _______ _______ _____ _____    ______ ____

>  <TORSDO>
F 0

$$$$
=
 OpenBabel11112417353D

 28 32  0  0  1  0  0  0  0  0999 V2000
  192.6890  175.0260  144.6230 C   0  0  0  0  0  0  0  0  0  0  0  0
  190.9440  171.6400  141.8190 O   0  0  0  0  0  0  0  0  0  0  0  0
  186.9440  176.6900  145.8500 O   0  0  0  0  0  0  0  0  0  0  0  0
  193.2430  172.3040  145.0130 C   0  0  0  0  0  3  0  0  0  0  0  0
  187.6900  176.5880  143.5950 C   0  0  1  0  0  3  0  0  0  0  0  0
  192.4500  176.5020  144.5340 C   0  0  0  0  0  2  0  0  0  0  0  0
  188.7620  171.7790  142.9740 O   0  0  0  0  0  0  0  0  0  0  0  0
  189.6860  172.4440  141.9930 S   0  0  0  0  0  0  0  0  0  0  0  0
  188.5450  173.9810  139.9860 C   0  0  0  0  0  0  0  0  0  0  0  0
  190.0710  174.0980  142.4930 C   0  0  1  0  0  3  0  0  0  0  0  0
  191.3530  176.7710  148.0540 C   0  0  0  0  0  1  0  0  0  0  0  0
  189.8500  175.7720  144.1180 N   0  0  1  0  0  0  0  0  0  0  0  0
  188.5630  175.0530  140.7970 C   0  0  0  0  0  2  0  0  0  0  0  0
  188.8930  172.6640  140.4610 N   0  0  0  0  0  0  0  0  0  0  0  0
  191.1810  176.4120  146.6590 N   0  0  0  0  0  0  0  0  0  0  0  0
  191.6630  174.0620  144.4200 C   0  0  0  0  0  0  0  0  0  0  0  0
  187.8230  176.4330  145.0430 C   0  0  0  0  0  0  0  0  0  0  0  0
  188.1910  174.1660  138.5560 C   0  0  0  0  0  1  0  0  0  0  0  0
  189.8870  176.9430  146.2520 C   0  0  0  0  0  2  0  0  0  0  0  0
  191.9650  172.7090  144.6270 C   0  0  0  0  0  3  0  0  0  0  0  0
  193.9690  174.6060  145.0120 C   0  0  0  0  0  3  0  0  0  0  0  0
  194.2470  173.2530  145.2000 C   0  0  0  0  0  3  0  0  0  0  0  0
  192.2220  177.1170  145.9170 C   0  0  0  0  0  2  0  0  0  0  0  0
  188.9720  176.1040  143.0340 N   0  0  1  0  0  0  0  0  0  0  0  0
  189.1490  175.9210  145.3930 C   0  0  2  0  0  3  0  0  0  0  0  0
  188.8290  174.8730  142.2610 C   0  0  2  0  0  3  0  0  0  0  0  0
  186.5800  175.8680  143.1330 O   0  0  0  0  0  1  0  0  0  0  0  0
  190.2500  174.3670  143.9550 C   0  0  2  0  0  3  0  0  0  0  0  0
  1 21  1  0  0  0  0
  2  8  2  0  0  0  0
  4 22  1  0  0  0  0
  5 27  1  6  0  0  0
  5 17  1  0  0  0  0
  6  1  1  0  0  0  0
  6 23  1  0  0  0  0
  8  7  2  0  0  0  0
  9 14  2  0  0  0  0
  9 13  1  0  0  0  0
 10  8  1  1  0  0  0
 10 28  1  0  0  0  0
 12 25  1  0  0  0  0
 13 26  1  0  0  0  0
 14  8  1  0  0  0  0
 15 11  1  0  0  0  0
 16  1  2  0  0  0  0
 16 20  1  0  0  0  0
 17 25  1  0  0  0  0
 17  3  2  0  0  0  0
 18  9  1  0  0  0  0
 19 15  1  0  0  0  0
 20  4  2  0  0  0  0
 21 22  2  0  0  0  0
 23 15  1  0  0  0  0
 24  5  1  0  0  0  0
 24 12  1  0  0  0  0
 25 19  1  0  0  0  0
 26 10  1  0  0  0  0
 26 24  1  0  0  0  0
 28 12  1  0  0  0  0
 28 16  1  0  0  0  0
M  END
>  <MODEL>
9

>  <REMARK>
 VINA RESULT:      -6.9      2.342      4.720
  Name = 
  0 active torsions:
  status: ('A' for Active; 'I' for Inactive)
                            x       y       z     vdW  Elec       q    Type
                         _______ _______ _______ _____ _____    ______ ____

>  <TORSDO>
F 0

$$$$
