=
 OpenBabel11112417533D

 34 41  0  0  1  0  0  0  0  0999 V2000
  189.4570  175.6140  142.8790 C   0  0  0  0  0  0  0  0  0  0  0  0
  191.7900  174.9460  142.0290 C   0  0  0  0  0  2  0  0  0  0  0  0
  185.9250  179.2120  146.9550 C   0  0  2  0  0  3  0  0  0  0  0  0
  187.3640  176.4110  143.8400 C   0  0  0  0  0  0  0  0  0  0  0  0
  187.5050  177.6100  146.0560 C   0  0  1  0  0  3  0  0  0  0  0  0
  187.3670  178.7010  148.4310 C   0  0  0  0  0  2  0  0  0  0  0  0
  186.3790  179.8500  148.2480 C   0  0  0  0  0  2  0  0  0  0  0  0
  184.2600  177.8070  145.6840 C   0  0  0  0  0  2  0  0  0  0  0  0
  191.5030  175.5560  144.2880 C   0  0  0  0  0  0  0  0  0  0  0  0
  193.9860  175.8640  146.2480 C   0  0  0  0  0  2  0  0  0  0  0  0
  188.6480  176.6730  146.4270 C   0  0  0  0  0  2  0  0  0  0  0  0
  185.3660  177.7770  144.6080 C   0  0  0  0  0  2  0  0  0  0  0  0
  190.8360  176.0360  145.3620 C   0  0  0  0  0  0  0  0  0  0  0  0
  193.1720  175.0550  142.6850 C   0  0  0  0  0  2  0  0  0  0  0  0
  186.5760  176.9080  145.0310 C   0  0  1  0  0  3  0  0  0  0  0  0
  184.4560  178.8750  146.7840 C   0  0  0  0  0  2  0  0  0  0  0  0
  193.7780  176.2180  144.8370 N   0  0  0  0  0  0  0  0  0  0  0  0
  188.7350  176.1040  143.9780 C   0  0  0  0  0  0  0  0  0  0  0  0
  186.6930  177.9640  147.2880 C   0  0  1  0  0  3  0  0  0  0  0  0
  189.4220  176.3150  145.2360 N   0  0  0  0  0  0  0  0  0  0  0  0
  187.4500  175.6530  141.5280 C   0  0  0  0  0  3  0  0  0  0  0  0
  192.6970  175.4970  146.9950 C   0  0  0  0  0  2  0  0  0  0  0  0
  186.7290  176.1530  142.6140 C   0  0  0  0  0  3  0  0  0  0  0  0
  191.5530  176.4330  146.6330 C   0  0  0  0  0  2  0  0  0  0  0  0
  192.9440  175.1850  144.2050 C   0  0  1  0  0  3  0  0  0  0  0  0
  188.8150  175.3890  141.6560 C   0  0  0  0  0  3  0  0  0  0  0  0
  190.8500  175.3490  143.0530 N   0  0  0  0  0  0  0  0  0  0  0  0
  195.0110  176.2030  144.2680 O   0  0  0  0  0  0  0  0  0  0  0  0
  195.7430  175.2840  145.0260 C   0  0  0  0  0  2  0  0  0  0  0  0
  196.4060  173.8000  142.2060 O   0  0  0  0  0  0  0  0  0  0  0  0
  197.2440  175.8030  143.1330 C   0  0  0  0  0  2  0  0  0  0  0  0
  196.9760  174.8450  144.2560 C   0  0  2  0  0  3  0  0  0  0  0  0
  197.1510  174.9460  141.8940 C   0  0  0  0  0  2  0  0  0  0  0  0
  196.6900  173.5360  143.5550 C   0  0  0  0  0  2  0  0  0  0  0  0
  1 27  1  0  0  0  0
  1 18  1  0  0  0  0
  2 14  1  0  0  0  0
  2 27  1  0  0  0  0
  3 16  1  1  0  0  0
  3 19  1  0  0  0  0
  3  7  1  0  0  0  0
  4 18  2  0  0  0  0
  4 15  1  0  0  0  0
  5 11  1  1  0  0  0
  5 19  1  0  0  0  0
  7  6  1  0  0  0  0
  8 16  1  0  0  0  0
  9 13  2  0  0  0  0
 10 22  1  0  0  0  0
 12  8  1  0  0  0  0
 13 24  1  0  0  0  0
 15 12  1  6  0  0  0
 15  5  1  0  0  0  0
 17 10  1  0  0  0  0
 18 20  1  0  0  0  0
 19  6  1  1  0  0  0
 20 13  1  0  0  0  0
 20 11  1  0  0  0  0
 21 26  1  0  0  0  0
 21 23  2  0  0  0  0
 23  4  1  0  0  0  0
 24 22  1  0  0  0  0
 25 14  1  6  0  0  0
 25  9  1  0  0  0  0
 25 17  1  0  0  0  0
 26  1  2  0  0  0  0
 27  9  1  0  0  0  0
 28 17  1  0  0  0  0
 28 29  1  0  0  0  0
 30 34  1  0  0  0  0
 31 32  1  0  0  0  0
 32 29  1  6  0  0  0
 33 30  1  0  0  0  0
 33 31  1  0  0  0  0
 34 32  1  0  0  0  0
M  END
>  <MODEL>
1

>  <REMARK>
 VINA RESULT:      -8.7      0.000      0.000
  Name = 
  3 active torsions:
  status: ('A' for Active; 'I' for Inactive)
    1  A    between atoms: N_17  and  O_28
    2  A    between atoms: O_28  and  C_29
    3  A    between atoms: C_29  and  C_32
                            x       y       z     vdW  Elec       q    Type
                         _______ _______ _______ _____ _____    ______ ____

>  <TORSDO>
F 3

$$$$
=
 OpenBabel11112417533D

 34 41  0  0  1  0  0  0  0  0999 V2000
  192.3430  176.0930  145.5050 C   0  0  0  0  0  0  0  0  0  0  0  0
  190.2940  177.0390  146.7370 C   0  0  0  0  0  2  0  0  0  0  0  0
  195.3560  175.0650  139.8570 C   0  0  2  0  0  3  0  0  0  0  0  0
  194.1780  175.2830  144.1210 C   0  0  0  0  0  0  0  0  0  0  0  0
  193.7270  175.0350  141.6500 C   0  0  1  0  0  3  0  0  0  0  0  0
  193.4490  174.5070  139.1020 C   0  0  0  0  0  2  0  0  0  0  0  0
  194.7380  175.0320  138.4770 C   0  0  0  0  0  2  0  0  0  0  0  0
  196.8360  174.0150  141.6090 C   0  0  0  0  0  2  0  0  0  0  0  0
  190.0430  176.1570  144.5660 C   0  0  0  0  0  0  0  0  0  0  0  0
  187.2870  176.3780  142.9970 C   0  0  0  0  0  2  0  0  0  0  0  0
  192.3030  174.6310  142.0080 C   0  0  0  0  0  2  0  0  0  0  0  0
  196.1560  175.0330  142.5470 C   0  0  0  0  0  2  0  0  0  0  0  0
  190.4590  175.6540  143.3820 C   0  0  0  0  0  0  0  0  0  0  0  0
  188.8750  177.3490  146.2450 C   0  0  0  0  0  2  0  0  0  0  0  0
  194.6740  174.6790  142.8260 C   0  0  1  0  0  3  0  0  0  0  0  0
  196.6390  174.2920  140.1010 C   0  0  0  0  0  2  0  0  0  0  0  0
  188.0120  177.3050  143.8770 N   0  0  0  0  0  0  0  0  0  0  0  0
  192.8040  175.5610  144.2900 C   0  0  0  0  0  0  0  0  0  0  0  0
  194.1900  174.2940  140.4100 C   0  0  1  0  0  3  0  0  0  0  0  0
  191.8610  175.3310  143.2160 N   0  0  0  0  0  0  0  0  0  0  0  0
  194.5830  176.0010  146.4120 C   0  0  0  0  0  3  0  0  0  0  0  0
  188.1170  175.1680  142.5470 C   0  0  0  0  0  2  0  0  0  0  0  0
  195.0520  175.4830  145.2020 C   0  0  0  0  0  3  0  0  0  0  0  0
  189.5390  175.5660  142.1840 C   0  0  0  0  0  2  0  0  0  0  0  0
  188.6540  176.5350  144.9530 C   0  0  1  0  0  3  0  0  0  0  0  0
  193.2310  176.3130  146.5630 C   0  0  0  0  0  3  0  0  0  0  0  0
  190.9500  176.3920  145.6210 N   0  0  0  0  0  0  0  0  0  0  0  0
  187.0660  178.1160  144.4160 O   0  0  0  0  0  0  0  0  0  0  0  0
  185.8670  177.4090  144.2790 C   0  0  0  0  0  2  0  0  0  0  0  0
  185.7810  177.4480  147.5320 O   0  0  0  0  0  0  0  0  0  0  0  0
  185.3170  179.1400  145.9540 C   0  0  0  0  0  2  0  0  0  0  0  0
  184.8940  177.8250  145.3680 C   0  0  2  0  0  3  0  0  0  0  0  0
  185.5620  178.8270  147.4100 C   0  0  0  0  0  2  0  0  0  0  0  0
  184.9960  176.8620  146.5280 C   0  0  0  0  0  2  0  0  0  0  0  0
  1 27  1  0  0  0  0
  1 26  1  0  0  0  0
  3  7  1  6  0  0  0
  3 16  1  0  0  0  0
  3 19  1  0  0  0  0
  4 18  1  0  0  0  0
  4 23  2  0  0  0  0
  5 11  1  1  0  0  0
  5 15  1  0  0  0  0
  7  6  1  0  0  0  0
  8 12  1  0  0  0  0
  9 25  1  0  0  0  0
  9 27  1  0  0  0  0
 10 17  1  0  0  0  0
 11 20  1  0  0  0  0
 13  9  2  0  0  0  0
 14  2  1  0  0  0  0
 15 12  1  6  0  0  0
 15  4  1  0  0  0  0
 16  8  1  0  0  0  0
 17 28  1  0  0  0  0
 17 25  1  0  0  0  0
 18  1  2  0  0  0  0
 19  6  1  6  0  0  0
 19  5  1  0  0  0  0
 20 13  1  0  0  0  0
 20 18  1  0  0  0  0
 21 26  2  0  0  0  0
 22 10  1  0  0  0  0
 23 21  1  0  0  0  0
 24 22  1  0  0  0  0
 24 13  1  0  0  0  0
 25 14  1  1  0  0  0
 27  2  1  0  0  0  0
 29 28  1  0  0  0  0
 31 33  1  0  0  0  0
 32 29  1  6  0  0  0
 32 31  1  0  0  0  0
 32 34  1  0  0  0  0
 33 30  1  0  0  0  0
 34 30  1  0  0  0  0
M  END
>  <MODEL>
2

>  <REMARK>
 VINA RESULT:      -8.5      2.686      9.130
  Name = 
  3 active torsions:
  status: ('A' for Active; 'I' for Inactive)
    1  A    between atoms: N_17  and  O_28
    2  A    between atoms: O_28  and  C_29
    3  A    between atoms: C_29  and  C_32
                            x       y       z     vdW  Elec       q    Type
                         _______ _______ _______ _____ _____    ______ ____

>  <TORSDO>
F 3

$$$$
=
 OpenBabel11112417533D

 34 41  0  0  1  0  0  0  0  0999 V2000
  189.6540  173.8960  143.1250 C   0  0  0  0  0  0  0  0  0  0  0  0
  190.8500  171.8390  142.1510 C   0  0  0  0  0  2  0  0  0  0  0  0
  184.6320  177.9840  142.8080 C   0  0  2  0  0  3  0  0  0  0  0  0
  188.3400  175.8070  143.8720 C   0  0  0  0  0  0  0  0  0  0  0  0
  186.6240  176.7180  142.2610 C   0  0  1  0  0  3  0  0  0  0  0  0
  184.9280  177.9620  140.7030 C   0  0  0  0  0  2  0  0  0  0  0  0
  183.7420  178.2580  141.6170 C   0  0  0  0  0  2  0  0  0  0  0  0
  186.0750  178.8370  144.6930 C   0  0  0  0  0  2  0  0  0  0  0  0
  189.6230  173.2580  140.7240 C   0  0  0  0  0  0  0  0  0  0  0  0
  189.1570  172.5290  137.6650 C   0  0  0  0  0  2  0  0  0  0  0  0
  187.5790  176.3620  141.1300 C   0  0  0  0  0  2  0  0  0  0  0  0
  186.5480  177.3710  144.7650 C   0  0  0  0  0  2  0  0  0  0  0  0
  188.7830  174.2710  140.4140 C   0  0  0  0  0  0  0  0  0  0  0  0
  190.7660  171.1850  140.7670 C   0  0  0  0  0  2  0  0  0  0  0  0
  187.4350  176.9780  143.5570 C   0  0  1  0  0  3  0  0  0  0  0  0
  184.7900  179.0630  143.8640 C   0  0  0  0  0  2  0  0  0  0  0  0
  189.1670  171.7220  138.8930 N   0  0  0  0  0  0  0  0  0  0  0  0
  188.7900  174.9630  142.8340 C   0  0  0  0  0  0  0  0  0  0  0  0
  185.8420  177.9720  141.9160 C   0  0  1  0  0  3  0  0  0  0  0  0
  188.3490  175.1630  141.4690 N   0  0  0  0  0  0  0  0  0  0  0  0
  189.6930  174.5460  145.4550 C   0  0  0  0  0  3  0  0  0  0  0  0
  189.1230  174.0430  137.9140 C   0  0  0  0  0  2  0  0  0  0  0  0
  188.8230  175.6030  145.1750 C   0  0  0  0  0  3  0  0  0  0  0  0
  188.1660  174.4050  139.0400 C   0  0  0  0  0  2  0  0  0  0  0  0
  190.2030  172.2440  139.7970 C   0  0  1  0  0  3  0  0  0  0  0  0
  190.1050  173.6880  144.4330 C   0  0  0  0  0  3  0  0  0  0  0  0
  190.0570  173.0450  142.0500 N   0  0  0  0  0  0  0  0  0  0  0  0
  189.5100  170.4660  138.5060 O   0  0  0  0  0  0  0  0  0  0  0  0
  189.8750  170.5930  137.1620 C   0  0  0  0  0  2  0  0  0  0  0  0
  192.6740  169.3950  138.3110 O   0  0  0  0  0  0  0  0  0  0  0  0
  190.6710  168.3140  137.6870 C   0  0  0  0  0  2  0  0  0  0  0  0
  190.8610  169.5010  136.7890 C   0  0  2  0  0  3  0  0  0  0  0  0
  192.0040  168.1660  138.3810 C   0  0  0  0  0  2  0  0  0  0  0  0
  192.2660  169.9660  137.0960 C   0  0  0  0  0  2  0  0  0  0  0  0
  1 26  1  0  0  0  0
  3  7  1  6  0  0  0
  3 16  1  0  0  0  0
  4 23  2  0  0  0  0
  5 11  1  6  0  0  0
  5 15  1  0  0  0  0
  6  7  1  0  0  0  0
  8 12  1  0  0  0  0
  9 27  1  0  0  0  0
 10 22  1  0  0  0  0
 10 17  1  0  0  0  0
 11 20  1  0  0  0  0
 13  9  2  0  0  0  0
 13 20  1  0  0  0  0
 14  2  1  0  0  0  0
 15  4  1  0  0  0  0
 15 12  1  1  0  0  0
 16  8  1  0  0  0  0
 17 25  1  0  0  0  0
 18  1  2  0  0  0  0
 18  4  1  0  0  0  0
 19  6  1  6  0  0  0
 19  5  1  0  0  0  0
 19  3  1  0  0  0  0
 20 18  1  0  0  0  0
 22 24  1  0  0  0  0
 23 21  1  0  0  0  0
 24 13  1  0  0  0  0
 25  9  1  0  0  0  0
 25 14  1  1  0  0  0
 26 21  2  0  0  0  0
 27  2  1  0  0  0  0
 27  1  1  0  0  0  0
 28 17  1  0  0  0  0
 29 28  1  0  0  0  0
 30 33  1  0  0  0  0
 31 33  1  0  0  0  0
 32 34  1  0  0  0  0
 32 29  1  1  0  0  0
 32 31  1  0  0  0  0
 34 30  1  0  0  0  0
M  END
>  <MODEL>
3

>  <REMARK>
 VINA RESULT:      -8.4      4.185      6.556
  Name = 
  3 active torsions:
  status: ('A' for Active; 'I' for Inactive)
    1  A    between atoms: N_17  and  O_28
    2  A    between atoms: O_28  and  C_29
    3  A    between atoms: C_29  and  C_32
                            x       y       z     vdW  Elec       q    Type
                         _______ _______ _______ _____ _____    ______ ____

>  <TORSDO>
F 3

$$$$
=
 OpenBabel11112417533D

 34 41  0  0  1  0  0  0  0  0999 V2000
  189.5890  174.5050  144.8150 C   0  0  0  0  0  0  0  0  0  0  0  0
  191.0200  172.4220  144.3430 C   0  0  0  0  0  2  0  0  0  0  0  0
  184.5000  178.1600  143.1470 C   0  0  2  0  0  3  0  0  0  0  0  0
  188.0850  176.4050  145.0690 C   0  0  0  0  0  0  0  0  0  0  0  0
  186.6110  176.9700  143.1000 C   0  0  1  0  0  3  0  0  0  0  0  0
  185.1330  177.8740  141.1370 C   0  0  0  0  0  2  0  0  0  0  0  0
  183.8030  178.2080  141.8060 C   0  0  0  0  0  2  0  0  0  0  0  0
  185.5800  179.3560  145.0880 C   0  0  0  0  0  2  0  0  0  0  0  0
  189.9750  173.5480  142.5540 C   0  0  0  0  0  0  0  0  0  0  0  0
  190.0430  172.3830  139.5980 C   0  0  0  0  0  2  0  0  0  0  0  0
  187.7520  176.5310  142.1910 C   0  0  0  0  0  2  0  0  0  0  0  0
  186.1020  177.9490  145.4420 C   0  0  0  0  0  2  0  0  0  0  0  0
  189.1510  174.4510  141.9770 C   0  0  0  0  0  0  0  0  0  0  0  0
  191.1910  171.5830  143.0700 C   0  0  0  0  0  2  0  0  0  0  0  0
  187.1900  177.4580  144.4540 C   0  0  1  0  0  3  0  0  0  0  0  0
  184.4360  179.3790  144.0480 C   0  0  0  0  0  2  0  0  0  0  0  0
  189.8930  171.7520  140.9160 N   0  0  0  0  0  0  0  0  0  0  0  0
  188.7350  175.4620  144.2440 C   0  0  0  0  0  0  0  0  0  0  0  0
  185.8370  178.1090  142.4620 C   0  0  1  0  0  3  0  0  0  0  0  0
  188.5120  175.4450  142.8130 N   0  0  0  0  0  0  0  0  0  0  0  0
  189.2220  175.4650  147.0050 C   0  0  0  0  0  3  0  0  0  0  0  0
  189.8990  173.9100  139.6180 C   0  0  0  0  0  2  0  0  0  0  0  0
  188.3610  176.4120  146.4460 C   0  0  0  0  0  3  0  0  0  0  0  0
  188.7580  174.3550  140.5200 C   0  0  0  0  0  2  0  0  0  0  0  0
  190.7440  172.4610  141.8840 C   0  0  1  0  0  3  0  0  0  0  0  0
  189.8320  174.5070  146.1930 C   0  0  0  0  0  3  0  0  0  0  0  0
  190.2000  173.5470  143.9480 N   0  0  0  0  0  0  0  0  0  0  0  0
  190.3510  170.4820  140.7710 O   0  0  0  0  0  0  0  0  0  0  0  0
  190.9320  170.4540  139.5000 C   0  0  0  0  0  2  0  0  0  0  0  0
  193.8150  170.3410  141.0070 O   0  0  0  0  0  0  0  0  0  0  0  0
  192.1450  168.6940  140.7400 C   0  0  0  0  0  2  0  0  0  0  0  0
  192.1550  169.5540  139.5100 C   0  0  2  0  0  3  0  0  0  0  0  0
  193.4150  169.0760  141.4600 C   0  0  0  0  0  2  0  0  0  0  0  0
  193.3990  170.3980  139.6680 C   0  0  0  0  0  2  0  0  0  0  0  0
  1 26  1  0  0  0  0
  3  7  1  6  0  0  0
  3 16  1  0  0  0  0
  4 23  2  0  0  0  0
  5 11  1  6  0  0  0
  5 15  1  0  0  0  0
  6  7  1  0  0  0  0
  8 12  1  0  0  0  0
  9 27  1  0  0  0  0
 10 22  1  0  0  0  0
 10 17  1  0  0  0  0
 11 20  1  0  0  0  0
 13  9  2  0  0  0  0
 13 20  1  0  0  0  0
 14  2  1  0  0  0  0
 15  4  1  0  0  0  0
 15 12  1  1  0  0  0
 16  8  1  0  0  0  0
 17 25  1  0  0  0  0
 18  1  2  0  0  0  0
 18  4  1  0  0  0  0
 19  6  1  6  0  0  0
 19  5  1  0  0  0  0
 19  3  1  0  0  0  0
 20 18  1  0  0  0  0
 22 24  1  0  0  0  0
 23 21  1  0  0  0  0
 24 13  1  0  0  0  0
 25  9  1  0  0  0  0
 25 14  1  1  0  0  0
 26 21  2  0  0  0  0
 27  2  1  0  0  0  0
 27  1  1  0  0  0  0
 28 17  1  0  0  0  0
 29 28  1  0  0  0  0
 30 33  1  0  0  0  0
 31 33  1  0  0  0  0
 32 29  1  1  0  0  0
 32 34  1  0  0  0  0
 32 31  1  0  0  0  0
 34 30  1  0  0  0  0
M  END
>  <MODEL>
4

>  <REMARK>
 VINA RESULT:      -8.2      3.512      5.424
  Name = 
  3 active torsions:
  status: ('A' for Active; 'I' for Inactive)
    1  A    between atoms: N_17  and  O_28
    2  A    between atoms: O_28  and  C_29
    3  A    between atoms: C_29  and  C_32
                            x       y       z     vdW  Elec       q    Type
                         _______ _______ _______ _____ _____    ______ ____

>  <TORSDO>
F 3

$$$$
=
 OpenBabel11112417533D

 34 41  0  0  1  0  0  0  0  0999 V2000
  192.0060  176.1370  145.5280 C   0  0  0  0  0  0  0  0  0  0  0  0
  189.5520  176.5580  146.1670 C   0  0  0  0  0  2  0  0  0  0  0  0
  196.4350  175.5930  140.8230 C   0  0  2  0  0  3  0  0  0  0  0  0
  194.2620  175.7760  144.6790 C   0  0  0  0  0  0  0  0  0  0  0  0
  194.4900  175.2370  142.2240 C   0  0  1  0  0  3  0  0  0  0  0  0
  194.9690  174.4720  139.7670 C   0  0  0  0  0  2  0  0  0  0  0  0
  196.1920  175.2910  139.3620 C   0  0  0  0  0  2  0  0  0  0  0  0
  197.6730  175.1250  142.9700 C   0  0  0  0  0  2  0  0  0  0  0  0
  190.0580  175.4890  144.1280 C   0  0  0  0  0  0  0  0  0  0  0  0
  187.7920  174.8200  142.0020 C   0  0  0  0  0  2  0  0  0  0  0  0
  193.1730  174.4780  142.3260 C   0  0  0  0  0  2  0  0  0  0  0  0
  196.5530  175.9770  143.6010 C   0  0  0  0  0  2  0  0  0  0  0  0
  190.8580  175.0400  143.1350 C   0  0  0  0  0  0  0  0  0  0  0  0
  188.2600  176.4240  145.3520 C   0  0  0  0  0  2  0  0  0  0  0  0
  195.1880  175.2430  143.6090 C   0  0  1  0  0  3  0  0  0  0  0  0
  197.7760  175.2280  141.4310 C   0  0  0  0  0  2  0  0  0  0  0  0
  188.0240  175.9720  142.8830 N   0  0  0  0  0  0  0  0  0  0  0  0
  192.8640  175.6700  144.5180 C   0  0  0  0  0  0  0  0  0  0  0  0
  195.4080  174.5690  141.2170 C   0  0  1  0  0  3  0  0  0  0  0  0
  192.2930  175.1100  143.3100 N   0  0  0  0  0  0  0  0  0  0  0  0
  193.9140  176.7390  146.8880 C   0  0  0  0  0  3  0  0  0  0  0  0
  188.9850  173.8610  141.9010 C   0  0  0  0  0  2  0  0  0  0  0  0
  194.7730  176.2870  145.8830 C   0  0  0  0  0  3  0  0  0  0  0  0
  190.3020  174.6140  141.7940 C   0  0  0  0  0  2  0  0  0  0  0  0
  188.5680  175.4910  144.1620 C   0  0  1  0  0  3  0  0  0  0  0  0
  192.5310  176.6700  146.7100 C   0  0  0  0  0  3  0  0  0  0  0  0
  190.5970  176.0420  145.3100 N   0  0  0  0  0  0  0  0  0  0  0  0
  186.8030  176.5240  143.1000 O   0  0  0  0  0  0  0  0  0  0  0  0
  186.4100  177.0240  141.8540 C   0  0  0  0  0  2  0  0  0  0  0  0
  183.7040  178.2900  143.1460 O   0  0  0  0  0  0  0  0  0  0  0  0
  185.9730  178.8730  143.4340 C   0  0  0  0  0  2  0  0  0  0  0  0
  185.7870  178.3990  142.0230 C   0  0  2  0  0  3  0  0  0  0  0  0
  184.5640  179.0580  143.9430 C   0  0  0  0  0  2  0  0  0  0  0  0
  184.2870  178.2930  141.8700 C   0  0  0  0  0  2  0  0  0  0  0  0
  1 26  1  0  0  0  0
  3  7  1  6  0  0  0
  3 19  1  0  0  0  0
  3 16  1  0  0  0  0
  4 23  2  0  0  0  0
  5 11  1  1  0  0  0
  5 15  1  0  0  0  0
  7  6  1  0  0  0  0
  8 12  1  0  0  0  0
  9 25  1  0  0  0  0
  9 27  1  0  0  0  0
 10 17  1  0  0  0  0
 11 20  1  0  0  0  0
 13 20  1  0  0  0  0
 13  9  2  0  0  0  0
 14  2  1  0  0  0  0
 15 12  1  6  0  0  0
 15  4  1  0  0  0  0
 16  8  1  0  0  0  0
 17 28  1  0  0  0  0
 17 25  1  0  0  0  0
 18  4  1  0  0  0  0
 18  1  2  0  0  0  0
 19  6  1  6  0  0  0
 19  5  1  0  0  0  0
 20 18  1  0  0  0  0
 22 10  1  0  0  0  0
 23 21  1  0  0  0  0
 24 22  1  0  0  0  0
 24 13  1  0  0  0  0
 25 14  1  1  0  0  0
 26 21  2  0  0  0  0
 27  1  1  0  0  0  0
 27  2  1  0  0  0  0
 29 28  1  0  0  0  0
 30 33  1  0  0  0  0
 31 33  1  0  0  0  0
 32 29  1  1  0  0  0
 32 31  1  0  0  0  0
 34 32  1  0  0  0  0
 34 30  1  0  0  0  0
M  END
>  <MODEL>
5

>  <REMARK>
 VINA RESULT:      -8.2      2.896      9.224
  Name = 
  3 active torsions:
  status: ('A' for Active; 'I' for Inactive)
    1  A    between atoms: N_17  and  O_28
    2  A    between atoms: O_28  and  C_29
    3  A    between atoms: C_29  and  C_32
                            x       y       z     vdW  Elec       q    Type
                         _______ _______ _______ _____ _____    ______ ____

>  <TORSDO>
F 3

$$$$
=
 OpenBabel11112417533D

 34 41  0  0  1  0  0  0  0  0999 V2000
  189.1160  174.8410  141.8800 C   0  0  0  0  0  0  0  0  0  0  0  0
  186.8310  175.8290  142.5230 C   0  0  0  0  0  2  0  0  0  0  0  0
  194.6850  172.1630  143.8420 C   0  0  2  0  0  3  0  0  0  0  0  0
  191.3170  173.8600  141.5180 C   0  0  0  0  0  0  0  0  0  0  0  0
  192.8460  173.7080  143.5200 C   0  0  1  0  0  3  0  0  0  0  0  0
  194.6790  173.6230  145.3870 C   0  0  0  0  0  2  0  0  0  0  0  0
  195.3110  172.2440  145.2160 C   0  0  0  0  0  2  0  0  0  0  0  0
  194.8880  172.3780  141.3370 C   0  0  0  0  0  2  0  0  0  0  0  0
  188.6600  176.0710  143.9910 C   0  0  0  0  0  0  0  0  0  0  0  0
  188.3040  177.3300  146.8870 C   0  0  0  0  0  2  0  0  0  0  0  0
  192.2480  175.0220  144.0070 C   0  0  0  0  0  2  0  0  0  0  0  0
  193.3470  172.3390  141.3810 C   0  0  0  0  0  2  0  0  0  0  0  0
  189.9150  175.8550  144.4450 C   0  0  0  0  0  0  0  0  0  0  0  0
  186.3230  176.4170  143.8450 C   0  0  0  0  0  2  0  0  0  0  0  0
  192.7420  173.6360  141.9750 C   0  0  1  0  0  3  0  0  0  0  0  0
  195.5850  171.9300  142.6420 C   0  0  0  0  0  2  0  0  0  0  0  0
  187.4760  176.4180  146.0870 N   0  0  0  0  0  0  0  0  0  0  0  0
  190.4290  174.6090  142.3200 C   0  0  0  0  0  0  0  0  0  0  0  0
  194.3090  173.6160  143.9150 C   0  0  1  0  0  3  0  0  0  0  0  0
  190.8420  175.1210  143.6100 N   0  0  0  0  0  0  0  0  0  0  0  0
  189.5840  173.6630  139.8200 C   0  0  0  0  0  3  0  0  0  0  0  0
  189.7220  177.5300  146.3370 C   0  0  0  0  0  2  0  0  0  0  0  0
  190.8880  173.4170  140.2570 C   0  0  0  0  0  3  0  0  0  0  0  0
  190.3270  176.2200  145.8540 C   0  0  0  0  0  2  0  0  0  0  0  0
  187.5620  176.8130  144.6730 C   0  0  1  0  0  3  0  0  0  0  0  0
  188.6950  174.3690  140.6320 C   0  0  0  0  0  3  0  0  0  0  0  0
  188.2390  175.5750  142.7380 N   0  0  0  0  0  0  0  0  0  0  0  0
  186.2020  176.6000  146.5210 O   0  0  0  0  0  0  0  0  0  0  0  0
  186.2930  177.6120  147.4810 C   0  0  0  0  0  2  0  0  0  0  0  0
  185.3100  179.5380  145.0480 O   0  0  0  0  0  0  0  0  0  0  0  0
  184.1010  178.0510  146.4260 C   0  0  0  0  0  2  0  0  0  0  0  0
  185.2090  178.6490  147.2420 C   0  0  2  0  0  3  0  0  0  0  0  0
  184.0670  178.9020  145.1800 C   0  0  0  0  0  2  0  0  0  0  0  0
  185.7530  179.7510  146.3620 C   0  0  0  0  0  2  0  0  0  0  0  0
  1 18  1  0  0  0  0
  1 27  1  0  0  0  0
  2 27  1  0  0  0  0
  2 14  1  0  0  0  0
  3 16  1  6  0  0  0
  3 19  1  0  0  0  0
  3  7  1  0  0  0  0
  4 15  1  0  0  0  0
  4 18  2  0  0  0  0
  5 19  1  0  0  0  0
  5 11  1  6  0  0  0
  7  6  1  0  0  0  0
  8 12  1  0  0  0  0
  8 16  1  0  0  0  0
  9 13  2  0  0  0  0
  9 25  1  0  0  0  0
 13 24  1  0  0  0  0
 15 12  1  1  0  0  0
 15  5  1  0  0  0  0
 17 28  1  0  0  0  0
 17 10  1  0  0  0  0
 18 20  1  0  0  0  0
 19  6  1  1  0  0  0
 20 11  1  0  0  0  0
 20 13  1  0  0  0  0
 21 23  2  0  0  0  0
 21 26  1  0  0  0  0
 22 10  1  0  0  0  0
 23  4  1  0  0  0  0
 24 22  1  0  0  0  0
 25 14  1  6  0  0  0
 25 17  1  0  0  0  0
 26  1  2  0  0  0  0
 27  9  1  0  0  0  0
 28 29  1  0  0  0  0
 30 33  1  0  0  0  0
 30 34  1  0  0  0  0
 31 32  1  0  0  0  0
 32 29  1  6  0  0  0
 33 31  1  0  0  0  0
 34 32  1  0  0  0  0
M  END
>  <MODEL>
6

>  <REMARK>
 VINA RESULT:      -7.9      3.044      8.418
  Name = 
  3 active torsions:
  status: ('A' for Active; 'I' for Inactive)
    1  A    between atoms: N_17  and  O_28
    2  A    between atoms: O_28  and  C_29
    3  A    between atoms: C_29  and  C_32
                            x       y       z     vdW  Elec       q    Type
                         _______ _______ _______ _____ _____    ______ ____

>  <TORSDO>
F 3

$$$$
=
 OpenBabel11112417533D

 34 41  0  0  1  0  0  0  0  0999 V2000
  192.5430  176.3580  146.3040 C   0  0  0  0  0  0  0  0  0  0  0  0
  194.9160  175.3720  146.3810 C   0  0  0  0  0  2  0  0  0  0  0  0
  186.9000  176.8370  143.1450 C   0  0  2  0  0  3  0  0  0  0  0  0
  190.2600  177.1590  146.0150 C   0  0  0  0  0  0  0  0  0  0  0  0
  189.2540  176.9490  143.7090 C   0  0  1  0  0  3  0  0  0  0  0  0
  188.0670  177.0220  141.3780 C   0  0  0  0  0  2  0  0  0  0  0  0
  186.6410  176.5700  141.6800 C   0  0  0  0  0  2  0  0  0  0  0  0
  186.6710  178.3320  145.1640 C   0  0  0  0  0  2  0  0  0  0  0  0
  193.9220  175.8550  144.2990 C   0  0  0  0  0  0  0  0  0  0  0  0
  195.3240  175.0400  141.5650 C   0  0  0  0  0  2  0  0  0  0  0  0
  190.6400  177.2220  143.1410 C   0  0  0  0  0  2  0  0  0  0  0  0
  187.7440  177.4000  145.7630 C   0  0  0  0  0  2  0  0  0  0  0  0
  192.9220  176.2100  143.4610 C   0  0  0  0  0  0  0  0  0  0  0  0
  195.8110  174.8100  145.2700 C   0  0  0  0  0  2  0  0  0  0  0  0
  189.1330  177.6060  145.1090 C   0  0  1  0  0  3  0  0  0  0  0  0
  185.9860  177.7940  143.8860 C   0  0  0  0  0  2  0  0  0  0  0  0
  195.2030  174.3650  142.8650 N   0  0  0  0  0  0  0  0  0  0  0  0
  191.4880  176.7420  145.4600 C   0  0  0  0  0  0  0  0  0  0  0  0
  188.1880  177.5330  142.8020 C   0  0  1  0  0  3  0  0  0  0  0  0
  191.6720  176.6750  144.0250 N   0  0  0  0  0  0  0  0  0  0  0  0
  191.1950  176.8760  148.2450 C   0  0  0  0  0  3  0  0  0  0  0  0
  194.4040  176.2570  141.4060 C   0  0  0  0  0  2  0  0  0  0  0  0
  190.1370  177.2480  147.4110 C   0  0  0  0  0  3  0  0  0  0  0  0
  193.0160  175.9880  141.9680 C   0  0  0  0  0  2  0  0  0  0  0  0
  195.2840  175.3710  143.9340 C   0  0  1  0  0  3  0  0  0  0  0  0
  192.3960  176.4240  147.6940 C   0  0  0  0  0  3  0  0  0  0  0  0
  193.7580  175.9090  145.7000 N   0  0  0  0  0  0  0  0  0  0  0  0
  196.2760  173.5380  142.9530 O   0  0  0  0  0  0  0  0  0  0  0  0
  195.7790  172.2710  142.6310 C   0  0  0  0  0  2  0  0  0  0  0  0
  197.5000  171.9270  145.3730 O   0  0  0  0  0  0  0  0  0  0  0  0
  195.8530  170.5450  144.3980 C   0  0  0  0  0  2  0  0  0  0  0  0
  196.6280  171.2000  143.2930 C   0  0  2  0  0  3  0  0  0  0  0  0
  196.6760  170.8230  145.6330 C   0  0  0  0  0  2  0  0  0  0  0  0
  197.7940  171.8490  144.0030 C   0  0  0  0  0  2  0  0  0  0  0  0
  1 26  1  0  0  0  0
  3  7  1  6  0  0  0
  3 16  1  0  0  0  0
  4 23  2  0  0  0  0
  5 11  1  6  0  0  0
  5 15  1  0  0  0  0
  6  7  1  0  0  0  0
  8 12  1  0  0  0  0
  9 27  1  0  0  0  0
 10 17  1  0  0  0  0
 11 20  1  0  0  0  0
 13 20  1  0  0  0  0
 13  9  2  0  0  0  0
 14  2  1  0  0  0  0
 15 12  1  1  0  0  0
 15  4  1  0  0  0  0
 16  8  1  0  0  0  0
 17 28  1  0  0  0  0
 17 25  1  0  0  0  0
 18  4  1  0  0  0  0
 18  1  2  0  0  0  0
 19  6  1  6  0  0  0
 19  3  1  0  0  0  0
 19  5  1  0  0  0  0
 20 18  1  0  0  0  0
 22 10  1  0  0  0  0
 22 24  1  0  0  0  0
 23 21  1  0  0  0  0
 24 13  1  0  0  0  0
 25  9  1  0  0  0  0
 25 14  1  1  0  0  0
 26 21  2  0  0  0  0
 27  1  1  0  0  0  0
 27  2  1  0  0  0  0
 29 28  1  0  0  0  0
 30 33  1  0  0  0  0
 31 33  1  0  0  0  0
 32 29  1  1  0  0  0
 32 34  1  0  0  0  0
 32 31  1  0  0  0  0
 34 30  1  0  0  0  0
M  END
>  <MODEL>
7

>  <REMARK>
 VINA RESULT:      -7.8      1.792      4.530
  Name = 
  3 active torsions:
  status: ('A' for Active; 'I' for Inactive)
    1  A    between atoms: N_17  and  O_28
    2  A    between atoms: O_28  and  C_29
    3  A    between atoms: C_29  and  C_32
                            x       y       z     vdW  Elec       q    Type
                         _______ _______ _______ _____ _____    ______ ____

>  <TORSDO>
F 3

$$$$
=
 OpenBabel11112417533D

 34 41  0  0  1  0  0  0  0  0999 V2000
  190.6960  173.8730  141.7210 C   0  0  0  0  0  0  0  0  0  0  0  0
  188.2650  174.6870  141.9120 C   0  0  0  0  0  2  0  0  0  0  0  0
  196.3080  172.6020  144.7100 C   0  0  2  0  0  3  0  0  0  0  0  0
  193.0160  173.1300  141.7930 C   0  0  0  0  0  0  0  0  0  0  0  0
  194.3510  173.7410  143.8470 C   0  0  1  0  0  3  0  0  0  0  0  0
  195.9920  174.4170  145.7710 C   0  0  0  0  0  2  0  0  0  0  0  0
  196.7850  173.1420  146.0400 C   0  0  0  0  0  2  0  0  0  0  0  0
  196.7290  172.1430  142.2660 C   0  0  0  0  0  2  0  0  0  0  0  0
  189.9050  175.5650  143.3600 C   0  0  0  0  0  0  0  0  0  0  0  0
  189.1330  177.5140  145.7490 C   0  0  0  0  0  2  0  0  0  0  0  0
  193.5680  175.0460  143.8990 C   0  0  0  0  0  2  0  0  0  0  0  0
  195.2050  171.9140  142.2230 C   0  0  0  0  0  2  0  0  0  0  0  0
  191.1260  175.6510  143.9350 C   0  0  0  0  0  0  0  0  0  0  0  0
  187.5690  175.5440  142.9770 C   0  0  0  0  0  2  0  0  0  0  0  0
  194.4060  173.2320  142.3820 C   0  0  1  0  0  3  0  0  0  0  0  0
  197.3400  172.1690  143.6860 C   0  0  0  0  0  2  0  0  0  0  0  0
  188.4920  176.3150  145.1920 N   0  0  0  0  0  0  0  0  0  0  0  0
  191.9780  173.9470  142.2910 C   0  0  0  0  0  0  0  0  0  0  0  0
  195.7690  173.9560  144.3410 C   0  0  1  0  0  3  0  0  0  0  0  0
  192.2050  174.8450  143.4040 N   0  0  0  0  0  0  0  0  0  0  0  0
  191.4890  172.2450  140.1170 C   0  0  0  0  0  3  0  0  0  0  0  0
  190.5680  177.7410  145.2540 C   0  0  0  0  0  2  0  0  0  0  0  0
  192.7630  172.3040  140.6870 C   0  0  0  0  0  3  0  0  0  0  0  0
  191.3560  176.4410  145.2040 C   0  0  0  0  0  2  0  0  0  0  0  0
  188.6720  176.3140  143.7320 C   0  0  1  0  0  3  0  0  0  0  0  0
  190.4530  173.0230  140.6370 C   0  0  0  0  0  3  0  0  0  0  0  0
  189.6650  174.6910  142.2780 N   0  0  0  0  0  0  0  0  0  0  0  0
  187.1690  176.4390  145.4750 O   0  0  0  0  0  0  0  0  0  0  0  0
  187.1100  176.5360  146.8690 C   0  0  0  0  0  2  0  0  0  0  0  0
  185.6430  179.4220  146.5380 O   0  0  0  0  0  0  0  0  0  0  0  0
  184.8620  177.2350  146.1160 C   0  0  0  0  0  2  0  0  0  0  0  0
  185.7990  177.1800  147.2870 C   0  0  2  0  0  3  0  0  0  0  0  0
  184.5990  178.7100  145.9310 C   0  0  0  0  0  2  0  0  0  0  0  0
  186.0390  178.6320  147.6280 C   0  0  0  0  0  2  0  0  0  0  0  0
  1 27  1  0  0  0  0
  1 18  1  0  0  0  0
  2 27  1  0  0  0  0
  2 14  1  0  0  0  0
  3 16  1  6  0  0  0
  3  7  1  0  0  0  0
  4 18  2  0  0  0  0
  4 15  1  0  0  0  0
  5 11  1  6  0  0  0
  5 19  1  0  0  0  0
  6  7  1  0  0  0  0
  8 16  1  0  0  0  0
  9 25  1  0  0  0  0
  9 13  2  0  0  0  0
 12  8  1  0  0  0  0
 13 24  1  0  0  0  0
 15 12  1  1  0  0  0
 15  5  1  0  0  0  0
 17 28  1  0  0  0  0
 17 10  1  0  0  0  0
 18 20  1  0  0  0  0
 19  3  1  0  0  0  0
 19  6  1  1  0  0  0
 20 11  1  0  0  0  0
 20 13  1  0  0  0  0
 21 26  1  0  0  0  0
 21 23  2  0  0  0  0
 22 10  1  0  0  0  0
 23  4  1  0  0  0  0
 24 22  1  0  0  0  0
 25 14  1  6  0  0  0
 25 17  1  0  0  0  0
 26  1  2  0  0  0  0
 27  9  1  0  0  0  0
 28 29  1  0  0  0  0
 30 34  1  0  0  0  0
 31 32  1  0  0  0  0
 32 29  1  6  0  0  0
 32 34  1  0  0  0  0
 33 31  1  0  0  0  0
 33 30  1  0  0  0  0
M  END
>  <MODEL>
8

>  <REMARK>
 VINA RESULT:      -7.8      2.740      8.637
  Name = 
  3 active torsions:
  status: ('A' for Active; 'I' for Inactive)
    1  A    between atoms: N_17  and  O_28
    2  A    between atoms: O_28  and  C_29
    3  A    between atoms: C_29  and  C_32
                            x       y       z     vdW  Elec       q    Type
                         _______ _______ _______ _____ _____    ______ ____

>  <TORSDO>
F 3

$$$$
=
 OpenBabel11112417533D

 34 41  0  0  1  0  0  0  0  0999 V2000
  189.7470  174.3230  144.3170 C   0  0  0  0  0  0  0  0  0  0  0  0
  190.6970  172.5670  142.6970 C   0  0  0  0  0  2  0  0  0  0  0  0
  184.8140  178.2160  145.9130 C   0  0  2  0  0  3  0  0  0  0  0  0
  188.6330  175.9810  145.7130 C   0  0  0  0  0  0  0  0  0  0  0  0
  186.6390  177.1650  144.7160 C   0  0  1  0  0  3  0  0  0  0  0  0
  184.6800  178.6630  143.8390 C   0  0  0  0  0  2  0  0  0  0  0  0
  183.7060  178.7130  145.0120 C   0  0  0  0  0  2  0  0  0  0  0  0
  186.6170  178.6840  147.6130 C   0  0  0  0  0  2  0  0  0  0  0  0
  189.2250  174.2220  141.8890 C   0  0  0  0  0  0  0  0  0  0  0  0
  188.1450  174.1630  138.9010 C   0  0  0  0  0  2  0  0  0  0  0  0
  187.3430  177.0960  143.3670 C   0  0  0  0  0  2  0  0  0  0  0  0
  187.0770  177.2540  147.2660 C   0  0  0  0  0  2  0  0  0  0  0  0
  188.3530  175.2510  141.9840 C   0  0  0  0  0  0  0  0  0  0  0  0
  190.3280  172.2290  141.2470 C   0  0  0  0  0  2  0  0  0  0  0  0
  187.6980  177.1620  145.8490 C   0  0  1  0  0  3  0  0  0  0  0  0
  185.1940  179.0430  147.1270 C   0  0  0  0  0  2  0  0  0  0  0  0
  188.3920  173.1090  139.8940 N   0  0  0  0  0  0  0  0  0  0  0  0
  188.8540  175.3990  144.4460 C   0  0  0  0  0  0  0  0  0  0  0  0
  185.8190  178.4370  144.8170 C   0  0  1  0  0  3  0  0  0  0  0  0
  188.1510  175.8780  143.2740 N   0  0  0  0  0  0  0  0  0  0  0  0
  190.2620  174.4510  146.6770 C   0  0  0  0  0  3  0  0  0  0  0  0
  188.1800  175.5840  139.4780 C   0  0  0  0  0  2  0  0  0  0  0  0
  189.3660  175.5140  146.8150 C   0  0  0  0  0  3  0  0  0  0  0  0
  187.4740  175.6610  140.8240 C   0  0  0  0  0  2  0  0  0  0  0  0
  189.5940  173.4550  140.6660 C   0  0  1  0  0  3  0  0  0  0  0  0
  190.4490  173.8500  145.4310 C   0  0  0  0  0  3  0  0  0  0  0  0
  189.9150  173.7410  143.0230 N   0  0  0  0  0  0  0  0  0  0  0  0
  188.6340  171.9790  139.1800 O   0  0  0  0  0  0  0  0  0  0  0  0
  188.9450  172.4300  137.8930 C   0  0  0  0  0  2  0  0  0  0  0  0
  191.7880  170.9540  138.4670 O   0  0  0  0  0  0  0  0  0  0  0  0
  189.6910  170.0750  137.8360 C   0  0  0  0  0  2  0  0  0  0  0  0
  189.8440  171.4240  137.1970 C   0  0  2  0  0  3  0  0  0  0  0  0
  191.0760  169.7530  138.3420 C   0  0  0  0  0  2  0  0  0  0  0  0
  191.2910  171.7820  137.4500 C   0  0  0  0  0  2  0  0  0  0  0  0
  1 18  2  0  0  0  0
  1 26  1  0  0  0  0
  2 27  1  0  0  0  0
  3  7  1  6  0  0  0
  3 16  1  0  0  0  0
  4 15  1  0  0  0  0
  4 23  2  0  0  0  0
  5 11  1  6  0  0  0
  5 19  1  0  0  0  0
  5 15  1  0  0  0  0
  6  7  1  0  0  0  0
  9 13  2  0  0  0  0
  9 27  1  0  0  0  0
 10 22  1  0  0  0  0
 10 17  1  0  0  0  0
 12  8  1  0  0  0  0
 13 20  1  0  0  0  0
 14  2  1  0  0  0  0
 15 12  1  1  0  0  0
 16  8  1  0  0  0  0
 17 25  1  0  0  0  0
 18  4  1  0  0  0  0
 19  6  1  6  0  0  0
 19  3  1  0  0  0  0
 20 11  1  0  0  0  0
 20 18  1  0  0  0  0
 21 23  1  0  0  0  0
 22 24  1  0  0  0  0
 24 13  1  0  0  0  0
 25 14  1  1  0  0  0
 25  9  1  0  0  0  0
 26 21  2  0  0  0  0
 27  1  1  0  0  0  0
 28 17  1  0  0  0  0
 29 28  1  0  0  0  0
 31 33  1  0  0  0  0
 32 34  1  0  0  0  0
 32 31  1  0  0  0  0
 32 29  1  1  0  0  0
 33 30  1  0  0  0  0
 34 30  1  0  0  0  0
M  END
>  <MODEL>
9

>  <REMARK>
 VINA RESULT:      -7.7      3.612      5.862
  Name = 
  3 active torsions:
  status: ('A' for Active; 'I' for Inactive)
    1  A    between atoms: N_17  and  O_28
    2  A    between atoms: O_28  and  C_29
    3  A    between atoms: C_29  and  C_32
                            x       y       z     vdW  Elec       q    Type
                         _______ _______ _______ _____ _____    ______ ____

>  <TORSDO>
F 3

$$$$
