=
 OpenBabel11112417073D

 31 35  0  0  1  0  0  0  0  0999 V2000
  190.6490  172.0300  142.2560 C   0  0  2  0  0  3  0  0  0  0  0  0
  191.6100  174.1410  145.3560 C   0  0  2  0  0  3  0  0  0  0  0  0
  192.6640  175.2080  145.5690 C   0  0  0  0  0  0  0  0  0  0  0  0
  194.7850  176.2370  144.9800 C   0  0  0  0  0  0  0  0  0  0  0  0
  191.4200  173.7800  143.8740 C   0  0  1  0  0  3  0  0  0  0  0  0
  189.7740  173.0590  141.5490 C   0  0  0  0  0  2  0  0  0  0  0  0
  193.8050  175.2680  144.7540 C   0  0  0  0  0  3  0  0  0  0  0  0
  189.5000  175.5730  145.2560 C   0  0  2  0  0  3  0  0  0  0  0  0
  190.0690  170.7680  142.1430 O   0  0  0  0  0  1  0  0  0  0  0  0
  191.4370  176.0410  147.5030 O   0  0  0  0  0  0  0  0  0  0  0  0
  195.9820  176.3000  144.1020 C   0  0  0  0  0  1  0  0  0  0  0  0
  189.2710  175.1270  143.8140 C   0  0  0  0  0  2  0  0  0  0  0  0
  190.2660  174.4930  146.0350 C   0  0  2  0  0  3  0  0  0  0  0  0
  190.7970  172.3900  143.7310 C   0  0  0  0  0  2  0  0  0  0  0  0
  194.6410  177.1460  146.0310 C   0  0  0  0  0  3  0  0  0  0  0  0
  190.6070  174.8520  143.1250 C   0  0  2  0  0  3  0  0  0  0  0  0
  190.3930  174.4510  141.6630 C   0  0  0  0  0  2  0  0  0  0  0  0
  190.5300  174.9390  147.4740 C   0  0  0  0  0  2  0  0  0  0  0  0
  192.5430  176.1050  146.6490 C   0  0  0  0  0  0  0  0  0  0  0  0
  193.5220  177.0800  146.8650 C   0  0  0  0  0  3  0  0  0  0  0  0
  188.8170  177.9340  146.7040 O   0  0  0  0  0  0  0  0  0  0  0  0
  187.9330  177.0400  146.5940 C   0  0  0  0  0  0  0  0  0  0  0  0
  188.2140  175.8300  145.8910 N   0  0  0  0  0  2  0  0  0  0  0  0
  185.0920  178.7560  145.3720 C   0  0  0  0  0  0  0  0  0  0  0  0
  185.4840  176.5840  146.3560 C   0  0  0  0  0  2  0  0  0  0  0  0
  186.8170  179.3680  148.6480 C   0  0  0  0  0  1  0  0  0  0  0  0
  184.6000  179.6030  144.2550 C   0  0  0  0  0  1  0  0  0  0  0  0
  185.0780  177.4610  145.2540 N   0  0  0  0  0  0  0  0  0  0  0  0
  186.2840  178.6860  147.4380 C   0  0  0  0  0  0  0  0  0  0  0  0
  186.5820  177.2280  147.2100 C   0  0  2  0  0  3  0  0  0  0  0  0
  185.6240  179.3720  146.5530 N   0  0  0  0  0  0  0  0  0  0  0  0
  1  9  1  1  0  0  0
  1 14  1  0  0  0  0
  2  3  1  6  0  0  0
  2 13  1  0  0  0  0
  3 19  1  0  0  0  0
  4 15  2  0  0  0  0
  5 14  1  1  0  0  0
  5  2  1  0  0  0  0
  6 17  1  0  0  0  0
  6  1  1  0  0  0  0
  7  4  1  0  0  0  0
  7  3  2  0  0  0  0
  8 23  1  1  0  0  0
  8 13  1  0  0  0  0
 11  4  1  0  0  0  0
 12  8  1  0  0  0  0
 13 18  1  1  0  0  0
 15 20  1  0  0  0  0
 16 17  1  6  0  0  0
 16 12  1  0  0  0  0
 16  5  1  0  0  0  0
 18 10  1  0  0  0  0
 19 20  2  0  0  0  0
 19 10  1  0  0  0  0
 22 21  2  0  0  0  0
 23 22  1  0  0  0  0
 24 31  1  0  0  0  0
 25 30  1  0  0  0  0
 27 24  1  0  0  0  0
 28 24  2  0  0  0  0
 28 25  1  0  0  0  0
 29 26  1  0  0  0  0
 30 22  1  6  0  0  0
 30 29  1  0  0  0  0
 31 29  2  0  0  0  0
M  END
>  <MODEL>
1

>  <REMARK>
 VINA RESULT:      -8.4      0.000      0.000
  Name = 
  2 active torsions:
  status: ('A' for Active; 'I' for Inactive)
    1  A    between atoms: C_5  and  C_30
    2  A    between atoms: C_10  and  N_16
                            x       y       z     vdW  Elec       q    Type
                         _______ _______ _______ _____ _____    ______ ____

>  <TORSDO>
F 2

$$$$
=
 OpenBabel11112417073D

 31 35  0  0  1  0  0  0  0  0999 V2000
  185.4040  177.6260  142.8190 C   0  0  2  0  0  3  0  0  0  0  0  0
  188.1230  174.9110  142.3570 C   0  0  2  0  0  3  0  0  0  0  0  0
  188.8310  174.3830  141.1260 C   0  0  0  0  0  0  0  0  0  0  0  0
  188.8930  173.9750  138.7310 C   0  0  0  0  0  0  0  0  0  0  0  0
  187.3140  176.1870  142.0770 C   0  0  1  0  0  3  0  0  0  0  0  0
  186.3070  178.8530  142.7940 C   0  0  0  0  0  2  0  0  0  0  0  0
  188.2450  174.4930  139.8540 C   0  0  0  0  0  3  0  0  0  0  0  0
  189.9720  176.3330  143.3920 C   0  0  2  0  0  3  0  0  0  0  0  0
  184.4210  177.7910  143.7940 O   0  0  0  0  0  1  0  0  0  0  0  0
  190.6410  173.5380  142.5220 O   0  0  0  0  0  0  0  0  0  0  0  0
  188.2710  174.1110  137.3880 C   0  0  0  0  0  1  0  0  0  0  0  0
  189.1150  177.5810  143.1970 C   0  0  0  0  0  2  0  0  0  0  0  0
  189.0820  175.0920  143.5580 C   0  0  2  0  0  3  0  0  0  0  0  0
  186.2210  176.3770  143.1300 C   0  0  0  0  0  2  0  0  0  0  0  0
  190.1250  173.3310  138.8680 C   0  0  0  0  0  3  0  0  0  0  0  0
  188.2230  177.4260  141.9660 C   0  0  2  0  0  3  0  0  0  0  0  0
  187.3940  178.6900  141.7310 C   0  0  0  0  0  2  0  0  0  0  0  0
  189.9270  173.8290  143.7230 C   0  0  0  0  0  2  0  0  0  0  0  0
  190.0560  173.6990  141.2620 C   0  0  0  0  0  0  0  0  0  0  0  0
  190.7050  173.1910  140.1310 C   0  0  0  0  0  3  0  0  0  0  0  0
  192.8220  176.4620  143.3810 O   0  0  0  0  0  0  0  0  0  0  0  0
  192.2370  176.5720  144.4930 C   0  0  0  0  0  0  0  0  0  0  0  0
  190.8120  176.5050  144.5690 N   0  0  0  0  0  2  0  0  0  0  0  0
  195.0920  174.8470  145.6680 C   0  0  0  0  0  0  0  0  0  0  0  0
  194.4710  177.1710  145.4470 C   0  0  0  0  0  2  0  0  0  0  0  0
  191.8380  175.2560  147.4910 C   0  0  0  0  0  1  0  0  0  0  0  0
  196.0080  173.7160  145.3690 C   0  0  0  0  0  1  0  0  0  0  0  0
  195.3040  176.0100  145.1260 N   0  0  0  0  0  0  0  0  0  0  0  0
  193.0000  175.5170  146.6010 C   0  0  0  0  0  0  0  0  0  0  0  0
  193.0260  176.7590  145.7510 C   0  0  2  0  0  3  0  0  0  0  0  0
  193.9530  174.6360  146.5130 N   0  0  0  0  0  0  0  0  0  0  0  0
  1 14  1  0  0  0  0
  1  9  1  1  0  0  0
  2  3  1  6  0  0  0
  2 13  1  0  0  0  0
  3 19  1  0  0  0  0
  4 15  2  0  0  0  0
  4  7  1  0  0  0  0
  5  2  1  0  0  0  0
  5 14  1  1  0  0  0
  6  1  1  0  0  0  0
  7  3  2  0  0  0  0
  8 13  1  0  0  0  0
  8 23  1  1  0  0  0
 10 18  1  0  0  0  0
 11  4  1  0  0  0  0
 12  8  1  0  0  0  0
 13 18  1  6  0  0  0
 15 20  1  0  0  0  0
 16 17  1  1  0  0  0
 16  5  1  0  0  0  0
 16 12  1  0  0  0  0
 17  6  1  0  0  0  0
 19 10  1  0  0  0  0
 20 19  2  0  0  0  0
 21 22  2  0  0  0  0
 22 23  1  0  0  0  0
 24 31  1  0  0  0  0
 25 30  1  0  0  0  0
 27 24  1  0  0  0  0
 28 25  1  0  0  0  0
 28 24  2  0  0  0  0
 29 26  1  0  0  0  0
 30 22  1  6  0  0  0
 30 29  1  0  0  0  0
 31 29  2  0  0  0  0
M  END
>  <MODEL>
2

>  <REMARK>
 VINA RESULT:      -8.0      3.057      7.235
  Name = 
  2 active torsions:
  status: ('A' for Active; 'I' for Inactive)
    1  A    between atoms: C_5  and  C_30
    2  A    between atoms: C_10  and  N_16
                            x       y       z     vdW  Elec       q    Type
                         _______ _______ _______ _____ _____    ______ ____

>  <TORSDO>
F 2

$$$$
=
 OpenBabel11112417073D

 31 35  0  0  1  0  0  0  0  0999 V2000
  188.2110  174.0730  140.2930 C   0  0  2  0  0  3  0  0  0  0  0  0
  189.3850  176.3000  143.2320 C   0  0  2  0  0  3  0  0  0  0  0  0
  188.7510  176.6350  144.5670 C   0  0  0  0  0  0  0  0  0  0  0  0
  186.7870  176.8790  145.9770 C   0  0  0  0  0  0  0  0  0  0  0  0
  188.6700  175.1500  142.5060 C   0  0  1  0  0  3  0  0  0  0  0  0
  188.6400  172.7210  140.8520 C   0  0  0  0  0  2  0  0  0  0  0  0
  187.3630  176.5380  144.7510 C   0  0  0  0  0  3  0  0  0  0  0  0
  191.2100  174.6750  143.9690 C   0  0  2  0  0  3  0  0  0  0  0  0
  188.4920  174.1220  138.9280 O   0  0  0  0  0  1  0  0  0  0  0  0
  190.9320  177.2740  145.4480 O   0  0  0  0  0  0  0  0  0  0  0  0
  185.3180  176.7590  146.1650 C   0  0  0  0  0  1  0  0  0  0  0  0
  190.5410  173.5660  143.1620 C   0  0  0  0  0  2  0  0  0  0  0  0
  190.9070  176.0470  143.3480 C   0  0  2  0  0  3  0  0  0  0  0  0
  188.9560  175.1970  141.0040 C   0  0  0  0  0  2  0  0  0  0  0  0
  187.5900  177.3330  147.0260 C   0  0  0  0  0  3  0  0  0  0  0  0
  189.0290  173.7810  143.1150 C   0  0  2  0  0  3  0  0  0  0  0  0
  188.3410  172.6480  142.3500 C   0  0  0  0  0  2  0  0  0  0  0  0
  191.5440  177.1720  144.1640 C   0  0  0  0  0  2  0  0  0  0  0  0
  189.5510  177.1270  145.6180 C   0  0  0  0  0  0  0  0  0  0  0  0
  188.9700  177.4580  146.8470 C   0  0  0  0  0  3  0  0  0  0  0  0
  192.7870  174.4100  146.3310 O   0  0  0  0  0  0  0  0  0  0  0  0
  193.3790  174.3140  145.2200 C   0  0  0  0  0  0  0  0  0  0  0  0
  192.6480  174.4480  144.0000 N   0  0  0  0  0  2  0  0  0  0  0  0
  195.8210  175.6550  143.0430 C   0  0  0  0  0  0  0  0  0  0  0  0
  195.6410  175.3610  145.4340 C   0  0  0  0  0  2  0  0  0  0  0  0
  195.1160  172.0140  143.6170 C   0  0  0  0  0  1  0  0  0  0  0  0
  196.0100  176.5260  141.8550 C   0  0  0  0  0  1  0  0  0  0  0  0
  195.7520  176.1850  144.2280 N   0  0  0  0  0  0  0  0  0  0  0  0
  195.2590  173.4780  143.8410 C   0  0  0  0  0  0  0  0  0  0  0  0
  194.8550  174.0730  145.1640 C   0  0  2  0  0  3  0  0  0  0  0  0
  195.6680  174.2390  142.8710 N   0  0  0  0  0  0  0  0  0  0  0  0
  1  9  1  6  0  0  0
  1  6  1  0  0  0  0
  1 14  1  0  0  0  0
  2 13  1  0  0  0  0
  2  3  1  1  0  0  0
  3  7  2  0  0  0  0
  3 19  1  0  0  0  0
  4 11  1  0  0  0  0
  4 15  2  0  0  0  0
  5 14  1  6  0  0  0
  5 16  1  0  0  0  0
  5  2  1  0  0  0  0
  6 17  1  0  0  0  0
  7  4  1  0  0  0  0
  8 23  1  6  0  0  0
 10 19  1  0  0  0  0
 12  8  1  0  0  0  0
 13  8  1  0  0  0  0
 13 18  1  1  0  0  0
 16 17  1  6  0  0  0
 16 12  1  0  0  0  0
 18 10  1  0  0  0  0
 19 20  2  0  0  0  0
 20 15  1  0  0  0  0
 22 21  2  0  0  0  0
 23 22  1  0  0  0  0
 24 28  2  0  0  0  0
 26 29  1  0  0  0  0
 27 24  1  0  0  0  0
 28 25  1  0  0  0  0
 29 30  1  0  0  0  0
 30 22  1  6  0  0  0
 30 25  1  0  0  0  0
 31 24  1  0  0  0  0
 31 29  2  0  0  0  0
M  END
>  <MODEL>
3

>  <REMARK>
 VINA RESULT:      -7.9      3.099      7.068
  Name = 
  2 active torsions:
  status: ('A' for Active; 'I' for Inactive)
    1  A    between atoms: C_5  and  C_30
    2  A    between atoms: C_10  and  N_16
                            x       y       z     vdW  Elec       q    Type
                         _______ _______ _______ _____ _____    ______ ____

>  <TORSDO>
F 2

$$$$
=
 OpenBabel11112417073D

 31 35  0  0  1  0  0  0  0  0999 V2000
  193.7470  176.7570  145.3700 C   0  0  2  0  0  3  0  0  0  0  0  0
  190.7880  176.2020  142.9380 C   0  0  2  0  0  3  0  0  0  0  0  0
  190.3810  175.0130  142.0910 C   0  0  0  0  0  0  0  0  0  0  0  0
  190.9410  172.9740  140.8960 C   0  0  0  0  0  0  0  0  0  0  0  0
  191.8860  175.8580  143.9560 C   0  0  1  0  0  3  0  0  0  0  0  0
  193.1610  176.0660  146.5960 C   0  0  0  0  0  2  0  0  0  0  0  0
  191.3220  174.0480  141.7020 C   0  0  0  0  0  3  0  0  0  0  0  0
  189.0480  176.0750  144.8010 C   0  0  2  0  0  3  0  0  0  0  0  0
  194.4130  177.9170  145.7640 O   0  0  0  0  0  1  0  0  0  0  0  0
  188.1080  175.8840  141.9550 O   0  0  0  0  0  0  0  0  0  0  0  0
  191.9430  171.9500  140.5020 C   0  0  0  0  0  1  0  0  0  0  0  0
  190.1610  175.8320  145.8160 C   0  0  0  0  0  2  0  0  0  0  0  0
  189.5780  176.8910  143.6120 C   0  0  2  0  0  3  0  0  0  0  0  0
  192.6380  177.1180  144.3890 C   0  0  0  0  0  2  0  0  0  0  0  0
  189.6180  172.8600  140.4590 C   0  0  0  0  0  3  0  0  0  0  0  0
  191.3230  175.0840  145.1640 C   0  0  2  0  0  3  0  0  0  0  0  0
  192.4250  174.7910  146.1840 C   0  0  0  0  0  2  0  0  0  0  0  0
  188.4820  177.1160  142.5700 C   0  0  0  0  0  2  0  0  0  0  0  0
  189.0560  174.9130  141.6180 C   0  0  0  0  0  0  0  0  0  0  0  0
  188.6780  173.8290  140.8180 C   0  0  0  0  0  3  0  0  0  0  0  0
  187.8160  175.3250  147.2630 O   0  0  0  0  0  0  0  0  0  0  0  0
  187.3870  176.3630  146.6870 C   0  0  0  0  0  0  0  0  0  0  0  0
  187.9540  176.7870  145.4460 N   0  0  0  0  0  2  0  0  0  0  0  0
  185.4210  178.9460  145.2840 C   0  0  0  0  0  0  0  0  0  0  0  0
  184.9560  176.9310  146.5310 C   0  0  0  0  0  2  0  0  0  0  0  0
  187.4410  179.1570  148.4390 C   0  0  0  0  0  1  0  0  0  0  0  0
  185.2500  179.7910  144.0730 C   0  0  0  0  0  1  0  0  0  0  0  0
  184.8750  177.7670  145.3320 N   0  0  0  0  0  0  0  0  0  0  0  0
  186.6060  178.6240  147.3300 C   0  0  0  0  0  0  0  0  0  0  0  0
  186.2690  177.1570  147.2870 C   0  0  2  0  0  3  0  0  0  0  0  0
  186.2280  179.4170  146.3720 N   0  0  0  0  0  0  0  0  0  0  0  0
  1  9  1  1  0  0  0
  1  6  1  0  0  0  0
  2  3  1  1  0  0  0
  2 13  1  0  0  0  0
  2  5  1  0  0  0  0
  4  7  2  0  0  0  0
  5 14  1  1  0  0  0
  5 16  1  0  0  0  0
  7  3  1  0  0  0  0
  8 23  1  1  0  0  0
  8 12  1  0  0  0  0
 10 18  1  0  0  0  0
 11  4  1  0  0  0  0
 13 18  1  6  0  0  0
 13  8  1  0  0  0  0
 14  1  1  0  0  0  0
 15 20  2  0  0  0  0
 15  4  1  0  0  0  0
 16 12  1  1  0  0  0
 16 17  1  0  0  0  0
 17  6  1  0  0  0  0
 19 10  1  0  0  0  0
 19  3  2  0  0  0  0
 20 19  1  0  0  0  0
 22 21  2  0  0  0  0
 23 22  1  0  0  0  0
 24 28  2  0  0  0  0
 24 31  1  0  0  0  0
 25 30  1  0  0  0  0
 27 24  1  0  0  0  0
 28 25  1  0  0  0  0
 29 26  1  0  0  0  0
 30 22  1  6  0  0  0
 30 29  1  0  0  0  0
 31 29  2  0  0  0  0
M  END
>  <MODEL>
4

>  <REMARK>
 VINA RESULT:      -7.7      1.760      4.599
  Name = 
  2 active torsions:
  status: ('A' for Active; 'I' for Inactive)
    1  A    between atoms: C_5  and  C_30
    2  A    between atoms: C_10  and  N_16
                            x       y       z     vdW  Elec       q    Type
                         _______ _______ _______ _____ _____    ______ ____

>  <TORSDO>
F 2

$$$$
=
 OpenBabel11112417073D

 31 35  0  0  1  0  0  0  0  0999 V2000
  188.1370  173.9650  140.3460 C   0  0  2  0  0  3  0  0  0  0  0  0
  189.7720  176.1750  143.0700 C   0  0  2  0  0  3  0  0  0  0  0  0
  189.3370  176.5420  144.4750 C   0  0  0  0  0  0  0  0  0  0  0  0
  187.5930  176.8640  146.1350 C   0  0  0  0  0  0  0  0  0  0  0  0
  188.9280  175.0440  142.4630 C   0  0  1  0  0  3  0  0  0  0  0  0
  188.5930  172.6050  140.8590 C   0  0  0  0  0  2  0  0  0  0  0  0
  187.9850  176.4940  144.8470 C   0  0  0  0  0  3  0  0  0  0  0  0
  191.6270  174.4950  143.5720 C   0  0  2  0  0  3  0  0  0  0  0  0
  188.2300  173.9940  138.9550 O   0  0  0  0  0  1  0  0  0  0  0  0
  191.6380  177.1140  145.0430 O   0  0  0  0  0  0  0  0  0  0  0  0
  186.1600  176.7950  146.5230 C   0  0  0  0  0  1  0  0  0  0  0  0
  190.8180  173.4030  142.8780 C   0  0  0  0  0  2  0  0  0  0  0  0
  191.2870  175.8710  142.9810 C   0  0  2  0  0  3  0  0  0  0  0  0
  189.0080  175.0690  140.9360 C   0  0  0  0  0  2  0  0  0  0  0  0
  188.5460  177.2980  147.0600 C   0  0  0  0  0  3  0  0  0  0  0  0
  189.3220  173.6680  143.0340 C   0  0  2  0  0  3  0  0  0  0  0  0
  188.4990  172.5540  142.3840 C   0  0  0  0  0  2  0  0  0  0  0  0
  192.0660  176.9800  143.6880 C   0  0  0  0  0  2  0  0  0  0  0  0
  190.2900  177.0150  145.4010 C   0  0  0  0  0  0  0  0  0  0  0  0
  189.8920  177.3750  146.6930 C   0  0  0  0  0  3  0  0  0  0  0  0
  193.2000  172.8650  145.3070 O   0  0  0  0  0  0  0  0  0  0  0  0
  193.7760  173.3840  144.3110 C   0  0  0  0  0  0  0  0  0  0  0  0
  193.0480  174.2200  143.4100 N   0  0  0  0  0  2  0  0  0  0  0  0
  195.7950  170.5990  145.1320 C   0  0  0  0  0  0  0  0  0  0  0  0
  195.4550  171.9370  143.1500 C   0  0  0  0  0  2  0  0  0  0  0  0
  196.4120  174.1630  146.1350 C   0  0  0  0  0  1  0  0  0  0  0  0
  195.7890  169.2860  145.8270 C   0  0  0  0  0  1  0  0  0  0  0  0
  195.3970  170.6790  143.8970 N   0  0  0  0  0  0  0  0  0  0  0  0
  195.9800  172.9670  145.3620 C   0  0  0  0  0  0  0  0  0  0  0  0
  195.2330  173.1450  144.0670 C   0  0  2  0  0  3  0  0  0  0  0  0
  196.1930  171.7790  145.8440 N   0  0  0  0  0  0  0  0  0  0  0  0
  1  9  1  6  0  0  0
  1  6  1  0  0  0  0
  1 14  1  0  0  0  0
  2  3  1  1  0  0  0
  3  7  2  0  0  0  0
  3 19  1  0  0  0  0
  4 11  1  0  0  0  0
  4 15  2  0  0  0  0
  5 14  1  6  0  0  0
  5 16  1  0  0  0  0
  5  2  1  0  0  0  0
  6 17  1  0  0  0  0
  7  4  1  0  0  0  0
  8 23  1  6  0  0  0
 10 19  1  0  0  0  0
 12 16  1  0  0  0  0
 12  8  1  0  0  0  0
 13  2  1  0  0  0  0
 13  8  1  0  0  0  0
 13 18  1  1  0  0  0
 16 17  1  6  0  0  0
 18 10  1  0  0  0  0
 19 20  2  0  0  0  0
 20 15  1  0  0  0  0
 22 21  2  0  0  0  0
 23 22  1  0  0  0  0
 24 27  1  0  0  0  0
 24 31  1  0  0  0  0
 25 28  1  0  0  0  0
 25 30  1  0  0  0  0
 28 24  2  0  0  0  0
 29 31  2  0  0  0  0
 29 26  1  0  0  0  0
 30 22  1  1  0  0  0
 30 29  1  0  0  0  0
M  END
>  <MODEL>
5

>  <REMARK>
 VINA RESULT:      -7.2      3.578      7.559
  Name = 
  2 active torsions:
  status: ('A' for Active; 'I' for Inactive)
    1  A    between atoms: C_5  and  C_30
    2  A    between atoms: C_10  and  N_16
                            x       y       z     vdW  Elec       q    Type
                         _______ _______ _______ _____ _____    ______ ____

>  <TORSDO>
F 2

$$$$
=
 OpenBabel11112417073D

 31 35  0  0  1  0  0  0  0  0999 V2000
  185.8440  179.0340  144.7190 C   0  0  2  0  0  3  0  0  0  0  0  0
  189.4210  177.5920  144.3930 C   0  0  2  0  0  3  0  0  0  0  0  0
  190.4120  177.0940  145.4260 C   0  0  0  0  0  0  0  0  0  0  0  0
  191.2820  177.0860  147.6940 C   0  0  0  0  0  0  0  0  0  0  0  0
  188.0170  177.8160  144.9760 C   0  0  1  0  0  3  0  0  0  0  0  0
  185.0830  177.7180  144.8370 C   0  0  0  0  0  2  0  0  0  0  0  0
  190.3440  177.5280  146.7590 C   0  0  0  0  0  3  0  0  0  0  0  0
  188.6310  175.3820  143.3910 C   0  0  2  0  0  3  0  0  0  0  0  0
  185.1270  179.9160  143.9120 O   0  0  0  0  0  1  0  0  0  0  0  0
  191.5840  175.8330  143.7000 O   0  0  0  0  0  0  0  0  0  0  0  0
  191.1910  177.5400  149.1060 C   0  0  0  0  0  1  0  0  0  0  0  0
  187.2180  175.6660  143.8920 C   0  0  0  0  0  2  0  0  0  0  0  0
  189.3820  176.6970  143.1320 C   0  0  2  0  0  3  0  0  0  0  0  0
  187.2200  178.7930  144.1090 C   0  0  0  0  0  2  0  0  0  0  0  0
  192.3040  176.2170  147.3050 C   0  0  0  0  0  3  0  0  0  0  0  0
  187.2650  176.4870  145.1800 C   0  0  2  0  0  3  0  0  0  0  0  0
  185.8550  176.7360  145.7190 C   0  0  0  0  0  2  0  0  0  0  0  0
  190.8110  176.4290  142.6590 C   0  0  0  0  0  2  0  0  0  0  0  0
  191.4670  176.2470  145.0310 C   0  0  0  0  0  0  0  0  0  0  0  0
  192.3980  175.8000  145.9750 C   0  0  0  0  0  3  0  0  0  0  0  0
  189.9580  172.8960  142.9420 O   0  0  0  0  0  0  0  0  0  0  0  0
  189.2420  173.3530  142.0080 C   0  0  0  0  0  0  0  0  0  0  0  0
  188.5600  174.5980  142.1650 N   0  0  0  0  0  2  0  0  0  0  0  0
  191.6000  172.8340  139.4240 C   0  0  0  0  0  0  0  0  0  0  0  0
  190.0770  171.4200  140.6570 C   0  0  0  0  0  2  0  0  0  0  0  0
  188.1910  174.3580  139.0480 C   0  0  0  0  0  1  0  0  0  0  0  0
  192.9740  173.1790  138.9770 C   0  0  0  0  0  1  0  0  0  0  0  0
  191.4180  171.8430  140.2470 N   0  0  0  0  0  0  0  0  0  0  0  0
  189.3160  173.5170  139.5380 C   0  0  0  0  0  0  0  0  0  0  0  0
  189.1080  172.6060  140.7180 C   0  0  2  0  0  3  0  0  0  0  0  0
  190.4870  173.6250  138.9850 N   0  0  0  0  0  0  0  0  0  0  0  0
  1  9  1  6  0  0  0
  1  6  1  0  0  0  0
  2  5  1  0  0  0  0
  2  3  1  1  0  0  0
  3  7  1  0  0  0  0
  4 11  1  0  0  0  0
  5 14  1  6  0  0  0
  5 16  1  0  0  0  0
  6 17  1  0  0  0  0
  7  4  2  0  0  0  0
  8 23  1  6  0  0  0
  8 12  1  0  0  0  0
 10 19  1  0  0  0  0
 13 18  1  1  0  0  0
 13  8  1  0  0  0  0
 13  2  1  0  0  0  0
 14  1  1  0  0  0  0
 15  4  1  0  0  0  0
 16 12  1  6  0  0  0
 16 17  1  0  0  0  0
 18 10  1  0  0  0  0
 19  3  2  0  0  0  0
 19 20  1  0  0  0  0
 20 15  2  0  0  0  0
 22 23  1  0  0  0  0
 22 21  2  0  0  0  0
 24 28  2  0  0  0  0
 25 30  1  0  0  0  0
 26 29  1  0  0  0  0
 27 24  1  0  0  0  0
 28 25  1  0  0  0  0
 29 30  1  0  0  0  0
 30 22  1  1  0  0  0
 31 24  1  0  0  0  0
 31 29  2  0  0  0  0
M  END
>  <MODEL>
6

>  <REMARK>
 VINA RESULT:      -7.1      2.990      6.970
  Name = 
  2 active torsions:
  status: ('A' for Active; 'I' for Inactive)
    1  A    between atoms: C_5  and  C_30
    2  A    between atoms: C_10  and  N_16
                            x       y       z     vdW  Elec       q    Type
                         _______ _______ _______ _____ _____    ______ ____

>  <TORSDO>
F 2

$$$$
=
 OpenBabel11112417073D

 31 35  0  0  1  0  0  0  0  0999 V2000
  196.7620  174.5410  145.0120 C   0  0  2  0  0  3  0  0  0  0  0  0
  193.0030  173.7200  145.4410 C   0  0  2  0  0  3  0  0  0  0  0  0
  191.8470  174.5240  146.0000 C   0  0  0  0  0  0  0  0  0  0  0  0
  190.9920  176.2850  147.4390 C   0  0  0  0  0  0  0  0  0  0  0  0
  194.2660  174.5680  145.2230 C   0  0  1  0  0  3  0  0  0  0  0  0
  196.6690  175.3380  143.7160 C   0  0  0  0  0  2  0  0  0  0  0  0
  192.0690  175.5720  146.9080 C   0  0  0  0  0  3  0  0  0  0  0  0
  192.5070  173.8510  142.9410 C   0  0  2  0  0  3  0  0  0  0  0  0
  197.8870  173.7190  144.9750 O   0  0  0  0  0  1  0  0  0  0  0  0
  190.2720  173.1000  144.8030 O   0  0  0  0  0  0  0  0  0  0  0  0
  191.2400  177.4020  148.3880 C   0  0  0  0  0  1  0  0  0  0  0  0
  193.8140  174.6070  142.7270 C   0  0  0  0  0  2  0  0  0  0  0  0
  192.6150  172.9320  144.1680 C   0  0  2  0  0  3  0  0  0  0  0  0
  195.5140  173.6830  145.1930 C   0  0  0  0  0  2  0  0  0  0  0  0
  189.6840  175.9500  147.0810 C   0  0  0  0  0  3  0  0  0  0  0  0
  194.1550  175.4430  143.9600 C   0  0  2  0  0  3  0  0  0  0  0  0
  195.4390  176.2450  143.7380 C   0  0  0  0  0  2  0  0  0  0  0  0
  191.3010  172.1900  144.4160 C   0  0  0  0  0  2  0  0  0  0  0  0
  190.5230  174.1670  145.6710 C   0  0  0  0  0  0  0  0  0  0  0  0
  189.4500  174.8920  146.2000 C   0  0  0  0  0  3  0  0  0  0  0  0
  190.1420  174.0890  141.3630 O   0  0  0  0  0  0  0  0  0  0  0  0
  191.0030  173.2400  141.0010 C   0  0  0  0  0  0  0  0  0  0  0  0
  192.2040  173.0640  141.7540 N   0  0  0  0  0  2  0  0  0  0  0  0
  191.7520  173.8840  137.6050 C   0  0  0  0  0  0  0  0  0  0  0  0
  192.0960  172.0240  139.1080 C   0  0  0  0  0  2  0  0  0  0  0  0
  188.3830  173.0140  139.0100 C   0  0  0  0  0  1  0  0  0  0  0  0
  192.2820  174.9160  136.6760 C   0  0  0  0  0  1  0  0  0  0  0  0
  192.5750  173.1020  138.2390 N   0  0  0  0  0  0  0  0  0  0  0  0
  189.8560  173.0830  138.8110 C   0  0  0  0  0  0  0  0  0  0  0  0
  190.7730  172.3960  139.7870 C   0  0  2  0  0  3  0  0  0  0  0  0
  190.3400  173.7910  137.8350 N   0  0  0  0  0  0  0  0  0  0  0  0
  1  9  1  6  0  0  0
  1 14  1  0  0  0  0
  2  3  1  6  0  0  0
  3  7  1  0  0  0  0
  4 11  1  0  0  0  0
  5 14  1  6  0  0  0
  5  2  1  0  0  0  0
  6 17  1  0  0  0  0
  6  1  1  0  0  0  0
  7  4  2  0  0  0  0
  8 23  1  6  0  0  0
  8 13  1  0  0  0  0
 10 19  1  0  0  0  0
 12  8  1  0  0  0  0
 13 18  1  1  0  0  0
 13  2  1  0  0  0  0
 15  4  1  0  0  0  0
 16 12  1  6  0  0  0
 16  5  1  0  0  0  0
 17 16  1  0  0  0  0
 18 10  1  0  0  0  0
 19  3  2  0  0  0  0
 19 20  1  0  0  0  0
 20 15  2  0  0  0  0
 22 21  2  0  0  0  0
 22 23  1  0  0  0  0
 24 31  1  0  0  0  0
 24 28  2  0  0  0  0
 25 30  1  0  0  0  0
 27 24  1  0  0  0  0
 28 25  1  0  0  0  0
 29 26  1  0  0  0  0
 29 30  1  0  0  0  0
 30 22  1  1  0  0  0
 31 29  2  0  0  0  0
M  END
>  <MODEL>
7

>  <REMARK>
 VINA RESULT:      -6.9      3.947      7.220
  Name = 
  2 active torsions:
  status: ('A' for Active; 'I' for Inactive)
    1  A    between atoms: C_5  and  C_30
    2  A    between atoms: C_10  and  N_16
                            x       y       z     vdW  Elec       q    Type
                         _______ _______ _______ _____ _____    ______ ____

>  <TORSDO>
F 2

$$$$
=
 OpenBabel11112417073D

 31 35  0  0  1  0  0  0  0  0999 V2000
  186.2870  177.0450  143.4450 C   0  0  2  0  0  3  0  0  0  0  0  0
  188.1770  174.2340  141.5710 C   0  0  2  0  0  3  0  0  0  0  0  0
  188.5710  174.0710  140.1170 C   0  0  0  0  0  0  0  0  0  0  0  0
  188.2260  174.5610  137.7630 C   0  0  0  0  0  0  0  0  0  0  0  0
  187.6760  175.6500  141.8970 C   0  0  1  0  0  3  0  0  0  0  0  0
  187.4530  178.0080  143.6370 C   0  0  0  0  0  2  0  0  0  0  0  0
  187.8730  174.7430  139.1010 C   0  0  0  0  0  3  0  0  0  0  0  0
  190.4340  174.8140  142.6110 C   0  0  2  0  0  3  0  0  0  0  0  0
  185.5080  177.0210  144.6000 O   0  0  0  0  0  1  0  0  0  0  0  0
  190.2820  172.4570  140.7560 O   0  0  0  0  0  0  0  0  0  0  0  0
  187.4890  175.2890  136.6960 C   0  0  0  0  0  1  0  0  0  0  0  0
  189.8910  176.1820  143.0150 C   0  0  0  0  0  2  0  0  0  0  0  0
  189.2960  173.7850  142.5400 C   0  0  2  0  0  3  0  0  0  0  0  0
  186.8070  175.6410  143.1550 C   0  0  0  0  0  2  0  0  0  0  0  0
  189.2690  173.6960  137.4240 C   0  0  0  0  0  3  0  0  0  0  0  0
  188.8390  176.6540  142.0120 C   0  0  2  0  0  3  0  0  0  0  0  0
  188.3220  178.0460  142.3800 C   0  0  0  0  0  2  0  0  0  0  0  0
  189.8200  172.4160  142.1060 C   0  0  0  0  0  2  0  0  0  0  0  0
  189.5980  173.1720  139.7670 C   0  0  0  0  0  0  0  0  0  0  0  0
  189.9530  173.0010  138.4250 C   0  0  0  0  0  3  0  0  0  0  0  0
  193.2360  174.6100  142.1110 O   0  0  0  0  0  0  0  0  0  0  0  0
  192.8260  174.3160  143.2680 C   0  0  0  0  0  0  0  0  0  0  0  0
  191.4340  174.3870  143.5800 N   0  0  0  0  0  2  0  0  0  0  0  0
  194.3980  176.1750  145.8330 C   0  0  0  0  0  0  0  0  0  0  0  0
  193.2070  174.0760  145.7290 C   0  0  0  0  0  2  0  0  0  0  0  0
  196.1170  174.1040  143.2180 C   0  0  0  0  0  1  0  0  0  0  0  0
  194.5650  177.5460  146.3810 C   0  0  0  0  0  1  0  0  0  0  0  0
  193.3730  175.4580  146.1860 N   0  0  0  0  0  0  0  0  0  0  0  0
  195.1070  174.5910  144.1950 C   0  0  0  0  0  0  0  0  0  0  0  0
  193.7890  173.8750  144.3250 C   0  0  2  0  0  3  0  0  0  0  0  0
  195.3440  175.6700  144.8790 N   0  0  0  0  0  0  0  0  0  0  0  0
  1  6  1  0  0  0  0
  1  9  1  1  0  0  0
  2  3  1  6  0  0  0
  2  5  1  0  0  0  0
  2 13  1  0  0  0  0
  4  7  1  0  0  0  0
  5 16  1  0  0  0  0
  5 14  1  1  0  0  0
  7  3  2  0  0  0  0
  8 12  1  0  0  0  0
  8 23  1  1  0  0  0
 10 18  1  0  0  0  0
 11  4  1  0  0  0  0
 13 18  1  6  0  0  0
 13  8  1  0  0  0  0
 14  1  1  0  0  0  0
 15  4  2  0  0  0  0
 15 20  1  0  0  0  0
 16 17  1  1  0  0  0
 16 12  1  0  0  0  0
 17  6  1  0  0  0  0
 19  3  1  0  0  0  0
 19 10  1  0  0  0  0
 20 19  2  0  0  0  0
 21 22  2  0  0  0  0
 22 23  1  0  0  0  0
 24 28  2  0  0  0  0
 24 27  1  0  0  0  0
 25 28  1  0  0  0  0
 26 29  1  0  0  0  0
 29 30  1  0  0  0  0
 29 31  2  0  0  0  0
 30 22  1  6  0  0  0
 30 25  1  0  0  0  0
 31 24  1  0  0  0  0
M  END
>  <MODEL>
8

>  <REMARK>
 VINA RESULT:      -6.8      3.322      7.769
  Name = 
  2 active torsions:
  status: ('A' for Active; 'I' for Inactive)
    1  A    between atoms: C_5  and  C_30
    2  A    between atoms: C_10  and  N_16
                            x       y       z     vdW  Elec       q    Type
                         _______ _______ _______ _____ _____    ______ ____

>  <TORSDO>
F 2

$$$$
=
 OpenBabel11112417073D

 31 35  0  0  1  0  0  0  0  0999 V2000
  186.8460  178.2380  143.0290 C   0  0  2  0  0  3  0  0  0  0  0  0
  190.3880  176.7650  143.5470 C   0  0  2  0  0  3  0  0  0  0  0  0
  191.1460  176.3620  144.7950 C   0  0  0  0  0  0  0  0  0  0  0  0
  191.5530  176.5600  147.1820 C   0  0  0  0  0  0  0  0  0  0  0  0
  188.9010  177.0440  143.8180 C   0  0  1  0  0  3  0  0  0  0  0  0
  186.0510  176.9400  143.1120 C   0  0  0  0  0  2  0  0  0  0  0  0
  190.8260  176.9160  146.0440 C   0  0  0  0  0  3  0  0  0  0  0  0
  189.7660  174.4740  142.6100 C   0  0  2  0  0  3  0  0  0  0  0  0
  186.3200  179.0430  142.0210 O   0  0  0  0  0  1  0  0  0  0  0  0
  192.6090  174.9460  143.4550 O   0  0  0  0  0  0  0  0  0  0  0  0
  191.1960  177.1420  148.5020 C   0  0  0  0  0  1  0  0  0  0  0  0
  188.2880  174.8050  142.7950 C   0  0  0  0  0  2  0  0  0  0  0  0
  190.5790  175.7580  142.3880 C   0  0  2  0  0  3  0  0  0  0  0  0
  188.3100  177.9390  142.7270 C   0  0  0  0  0  2  0  0  0  0  0  0
  192.6150  175.6580  147.0820 C   0  0  0  0  0  3  0  0  0  0  0  0
  188.0970  175.7410  143.9880 C   0  0  2  0  0  3  0  0  0  0  0  0
  186.6140  176.0420  144.2130 C   0  0  0  0  0  2  0  0  0  0  0  0
  192.0680  175.4450  142.2330 C   0  0  0  0  0  2  0  0  0  0  0  0
  192.2420  175.4800  144.6940 C   0  0  0  0  0  0  0  0  0  0  0  0
  192.9590  175.1200  145.8390 C   0  0  0  0  0  3  0  0  0  0  0  0
  189.7980  171.6240  142.7380 O   0  0  0  0  0  0  0  0  0  0  0  0
  189.9180  172.1590  141.6010 C   0  0  0  0  0  0  0  0  0  0  0  0
  189.9210  173.5810  141.4700 N   0  0  0  0  0  2  0  0  0  0  0  0
  192.3020  172.3460  138.9960 C   0  0  0  0  0  0  0  0  0  0  0  0
  191.4170  170.5730  140.3770 C   0  0  0  0  0  2  0  0  0  0  0  0
  188.5720  172.4550  138.6050 C   0  0  0  0  0  1  0  0  0  0  0  0
  193.4490  173.1400  138.4830 C   0  0  0  0  0  1  0  0  0  0  0  0
  192.5030  171.4300  139.8960 N   0  0  0  0  0  0  0  0  0  0  0  0
  189.9290  172.1370  139.1240 C   0  0  0  0  0  0  0  0  0  0  0  0
  190.0750  171.3140  140.3760 C   0  0  2  0  0  3  0  0  0  0  0  0
  190.9750  172.6280  138.5300 N   0  0  0  0  0  0  0  0  0  0  0  0
  1  9  1  6  0  0  0
  1  6  1  0  0  0  0
  2  5  1  0  0  0  0
  2  3  1  1  0  0  0
  3  7  1  0  0  0  0
  4 11  1  0  0  0  0
  5 14  1  6  0  0  0
  5 16  1  0  0  0  0
  6 17  1  0  0  0  0
  7  4  2  0  0  0  0
  8 23  1  6  0  0  0
  8 12  1  0  0  0  0
 10 19  1  0  0  0  0
 13 18  1  1  0  0  0
 13  8  1  0  0  0  0
 13  2  1  0  0  0  0
 14  1  1  0  0  0  0
 15  4  1  0  0  0  0
 16 12  1  6  0  0  0
 16 17  1  0  0  0  0
 18 10  1  0  0  0  0
 19  3  2  0  0  0  0
 19 20  1  0  0  0  0
 20 15  2  0  0  0  0
 22 21  2  0  0  0  0
 23 22  1  0  0  0  0
 24 28  2  0  0  0  0
 26 29  1  0  0  0  0
 27 24  1  0  0  0  0
 28 25  1  0  0  0  0
 29 30  1  0  0  0  0
 30 25  1  0  0  0  0
 30 22  1  1  0  0  0
 31 24  1  0  0  0  0
 31 29  2  0  0  0  0
M  END
>  <MODEL>
9

>  <REMARK>
 VINA RESULT:      -6.7      3.380      7.169
  Name = 
  2 active torsions:
  status: ('A' for Active; 'I' for Inactive)
    1  A    between atoms: C_5  and  C_30
    2  A    between atoms: C_10  and  N_16
                            x       y       z     vdW  Elec       q    Type
                         _______ _______ _______ _____ _____    ______ ____

>  <TORSDO>
F 2

$$$$
