=
 OpenBabel11112417533D

 34 40  0  0  1  0  0  0  0  0999 V2000
  189.5590  174.6370  143.5220 C   0  0  0  0  0  0  0  0  0  0  0  0
  191.8360  173.5790  143.8940 C   0  0  0  0  0  2  0  0  0  0  0  0
  184.6820  178.2600  145.5990 C   0  0  0  0  0  0  0  0  0  0  0  0
  187.6100  176.0100  143.0770 C   0  0  0  0  0  0  0  0  0  0  0  0
  186.9830  177.9500  144.6690 C   0  0  1  0  0  3  0  0  0  0  0  0
  186.3690  177.1320  146.8920 O   0  0  0  0  0  1  0  0  0  0  0  0
  183.9760  178.4130  146.6310 O   0  0  0  0  0  0  0  0  0  0  0  0
  184.4920  178.2610  143.0850 C   0  0  0  0  0  3  0  0  0  0  0  0
  190.7920  174.7760  145.7260 C   0  0  2  0  0  3  0  0  0  0  0  0
  192.8540  176.7900  147.2590 C   0  0  0  0  0  2  0  0  0  0  0  0
  188.4320  177.8100  145.1540 C   0  0  0  0  0  2  0  0  0  0  0  0
  185.5660  177.3010  142.7590 C   0  0  0  0  0  3  0  0  0  0  0  0
  190.2780  176.2300  145.8230 C   0  0  1  0  0  3  0  0  0  0  0  0
  192.7980  173.5570  145.0650 C   0  0  0  0  0  2  0  0  0  0  0  0
  186.6750  177.0890  143.4750 C   0  0  0  0  0  0  0  0  0  0  0  0
  184.1140  178.6740  144.3010 C   0  0  0  0  0  3  0  0  0  0  0  0
  193.0920  175.8840  146.0390 C   0  0  2  0  0  3  0  0  0  0  0  0
  188.6880  175.6660  143.9160 C   0  0  0  0  0  0  0  0  0  0  0  0
  186.0020  177.7220  145.7270 N   0  0  0  0  0  0  0  0  0  0  0  0
  188.8520  176.3440  145.2610 C   0  0  2  0  0  3  0  0  0  0  0  0
  188.2860  174.3670  141.4900 C   0  0  0  0  0  3  0  0  0  0  0  0
  191.5790  176.4760  148.0450 C   0  0  0  0  0  2  0  0  0  0  0  0
  187.4420  175.3530  141.8940 N   0  0  0  0  0  0  0  0  0  0  0  0
  190.2990  176.7680  147.2630 C   0  0  0  0  0  2  0  0  0  0  0  0
  192.2770  174.5700  146.0840 C   0  0  1  0  0  3  0  0  0  0  0  0
  189.3610  173.9940  142.2960 C   0  0  0  0  0  3  0  0  0  0  0  0
  190.6580  174.2780  144.3680 N   0  0  0  0  0  0  0  0  0  0  0  0
  194.4610  175.6230  145.9310 O   0  0  0  0  0  0  0  0  0  0  0  0
  194.9420  176.5930  145.0460 C   0  0  0  0  0  2  0  0  0  0  0  0
  197.7650  175.9650  142.9620 O   0  0  0  0  0  0  0  0  0  0  0  0
  196.2650  174.6560  144.2380 C   0  0  0  0  0  2  0  0  0  0  0  0
  195.5710  175.9240  143.8380 C   0  0  2  0  0  3  0  0  0  0  0  0
  197.7120  174.9000  143.8730 C   0  0  0  0  0  2  0  0  0  0  0  0
  196.6840  176.7910  143.3010 C   0  0  0  0  0  2  0  0  0  0  0  0
  1 18  1  0  0  0  0
  1 27  1  0  0  0  0
  2 27  1  0  0  0  0
  2 14  1  0  0  0  0
  3 19  1  0  0  0  0
  3  7  2  0  0  0  0
  4 15  1  0  0  0  0
  4 18  2  0  0  0  0
  5 11  1  1  0  0  0
  5 19  1  0  0  0  0
  8 16  2  0  0  0  0
  9 27  1  6  0  0  0
  9 13  1  0  0  0  0
  9 25  1  0  0  0  0
 10 22  1  0  0  0  0
 12  8  1  0  0  0  0
 12 15  2  0  0  0  0
 13 24  1  1  0  0  0
 15  5  1  0  0  0  0
 16  3  1  0  0  0  0
 17 28  1  1  0  0  0
 17 25  1  0  0  0  0
 17 10  1  0  0  0  0
 18 20  1  0  0  0  0
 19  6  1  0  0  0  0
 20 11  1  6  0  0  0
 20 13  1  0  0  0  0
 21 23  2  0  0  0  0
 21 26  1  0  0  0  0
 23  4  1  0  0  0  0
 24 22  1  0  0  0  0
 25 14  1  6  0  0  0
 26  1  2  0  0  0  0
 29 28  1  0  0  0  0
 30 34  1  0  0  0  0
 30 33  1  0  0  0  0
 32 31  1  0  0  0  0
 32 29  1  1  0  0  0
 33 31  1  0  0  0  0
 34 32  1  0  0  0  0
M  END
>  <MODEL>
1

>  <REMARK>
 VINA RESULT:      -9.4      0.000      0.000
  Name = 
  3 active torsions:
  status: ('A' for Active; 'I' for Inactive)
    1  A    between atoms: C_17  and  O_28
    2  A    between atoms: O_28  and  C_29
    3  A    between atoms: C_29  and  C_32
                            x       y       z     vdW  Elec       q    Type
                         _______ _______ _______ _____ _____    ______ ____

>  <TORSDO>
F 3

$$$$
=
 OpenBabel11112417533D

 34 40  0  0  1  0  0  0  0  0999 V2000
  189.5980  174.4660  143.5240 C   0  0  0  0  0  0  0  0  0  0  0  0
  191.8770  173.4040  143.8660 C   0  0  0  0  0  2  0  0  0  0  0  0
  184.8170  178.2120  145.6070 C   0  0  0  0  0  0  0  0  0  0  0  0
  187.6460  175.8370  143.0860 C   0  0  0  0  0  0  0  0  0  0  0  0
  187.0840  177.8450  144.6190 C   0  0  1  0  0  3  0  0  0  0  0  0
  186.5350  177.1210  146.8910 O   0  0  0  0  0  1  0  0  0  0  0  0
  184.1440  178.4110  146.6530 O   0  0  0  0  0  0  0  0  0  0  0  0
  184.5470  178.1140  143.1020 C   0  0  0  0  0  3  0  0  0  0  0  0
  190.9010  174.6820  145.6810 C   0  0  2  0  0  3  0  0  0  0  0  0
  193.0260  176.7370  147.0670 C   0  0  0  0  0  2  0  0  0  0  0  0
  188.5470  177.7110  145.0630 C   0  0  0  0  0  2  0  0  0  0  0  0
  185.6030  177.1320  142.7810 C   0  0  0  0  0  3  0  0  0  0  0  0
  190.4020  176.1420  145.7360 C   0  0  1  0  0  3  0  0  0  0  0  0
  192.8760  173.4200  145.0070 C   0  0  0  0  0  2  0  0  0  0  0  0
  186.7330  176.9400  143.4690 C   0  0  0  0  0  0  0  0  0  0  0  0
  184.2100  178.5780  144.3110 C   0  0  0  0  0  3  0  0  0  0  0  0
  193.2180  175.7810  145.8770 C   0  0  2  0  0  3  0  0  0  0  0  0
  188.7480  175.5180  143.9040 C   0  0  0  0  0  0  0  0  0  0  0  0
  186.1360  177.6670  145.7140 N   0  0  0  0  0  0  0  0  0  0  0  0
  188.9590  176.2460  145.2150 C   0  0  2  0  0  3  0  0  0  0  0  0
  188.2590  174.1280  141.5460 C   0  0  0  0  0  3  0  0  0  0  0  0
  191.7740  176.4650  147.9050 C   0  0  0  0  0  2  0  0  0  0  0  0
  187.4360  175.1360  141.9360 N   0  0  0  0  0  0  0  0  0  0  0  0
  190.4710  176.7380  147.1520 C   0  0  0  0  0  2  0  0  0  0  0  0
  192.3950  174.4770  146.0010 C   0  0  1  0  0  3  0  0  0  0  0  0
  189.3560  173.7770  142.3310 C   0  0  0  0  0  3  0  0  0  0  0  0
  190.7210  174.1310  144.3490 N   0  0  0  0  0  0  0  0  0  0  0  0
  194.5810  175.5050  145.7370 O   0  0  0  0  0  0  0  0  0  0  0  0
  195.0370  176.4220  144.7860 C   0  0  0  0  0  2  0  0  0  0  0  0
  194.9890  176.1840  141.2300 O   0  0  0  0  0  0  0  0  0  0  0  0
  196.6520  176.2820  142.9070 C   0  0  0  0  0  2  0  0  0  0  0  0
  195.4060  175.6990  143.5040 C   0  0  2  0  0  3  0  0  0  0  0  0
  196.2050  176.8000  141.5600 C   0  0  0  0  0  2  0  0  0  0  0  0
  194.3490  175.9550  142.4570 C   0  0  0  0  0  2  0  0  0  0  0  0
  1 18  1  0  0  0  0
  1 27  1  0  0  0  0
  2 27  1  0  0  0  0
  2 14  1  0  0  0  0
  3 19  1  0  0  0  0
  3  7  2  0  0  0  0
  4 15  1  0  0  0  0
  4 18  2  0  0  0  0
  5 11  1  1  0  0  0
  5 19  1  0  0  0  0
  8 16  2  0  0  0  0
  9 27  1  6  0  0  0
  9 13  1  0  0  0  0
  9 25  1  0  0  0  0
 10 22  1  0  0  0  0
 12  8  1  0  0  0  0
 12 15  2  0  0  0  0
 13 24  1  1  0  0  0
 15  5  1  0  0  0  0
 16  3  1  0  0  0  0
 17 28  1  1  0  0  0
 17 25  1  0  0  0  0
 17 10  1  0  0  0  0
 18 20  1  0  0  0  0
 19  6  1  0  0  0  0
 20 11  1  6  0  0  0
 20 13  1  0  0  0  0
 21 23  2  0  0  0  0
 21 26  1  0  0  0  0
 23  4  1  0  0  0  0
 24 22  1  0  0  0  0
 25 14  1  6  0  0  0
 26  1  2  0  0  0  0
 29 28  1  0  0  0  0
 30 33  1  0  0  0  0
 30 34  1  0  0  0  0
 31 32  1  0  0  0  0
 32 29  1  1  0  0  0
 33 31  1  0  0  0  0
 34 32  1  0  0  0  0
M  END
>  <MODEL>
2

>  <REMARK>
 VINA RESULT:      -9.4      0.750      1.010
  Name = 
  3 active torsions:
  status: ('A' for Active; 'I' for Inactive)
    1  A    between atoms: C_17  and  O_28
    2  A    between atoms: O_28  and  C_29
    3  A    between atoms: C_29  and  C_32
                            x       y       z     vdW  Elec       q    Type
                         _______ _______ _______ _____ _____    ______ ____

>  <TORSDO>
F 3

$$$$
=
 OpenBabel11112417533D

 34 40  0  0  1  0  0  0  0  0999 V2000
  189.6240  174.8900  142.6580 C   0  0  0  0  0  0  0  0  0  0  0  0
  191.9230  173.8160  142.6580 C   0  0  0  0  0  2  0  0  0  0  0  0
  184.8890  177.9400  145.7420 C   0  0  0  0  0  0  0  0  0  0  0  0
  187.6450  176.2910  142.6290 C   0  0  0  0  0  0  0  0  0  0  0  0
  187.1220  177.8610  144.6190 C   0  0  1  0  0  3  0  0  0  0  0  0
  186.6630  176.6020  146.6660 O   0  0  0  0  0  1  0  0  0  0  0  0
  184.2540  177.8700  146.8270 O   0  0  0  0  0  0  0  0  0  0  0  0
  184.5280  178.4430  143.2970 C   0  0  0  0  0  3  0  0  0  0  0  0
  191.0030  174.6020  144.7590 C   0  0  2  0  0  3  0  0  0  0  0  0
  193.1590  176.3010  146.5280 C   0  0  0  0  0  2  0  0  0  0  0  0
  188.6010  177.6500  144.9690 C   0  0  0  0  0  2  0  0  0  0  0  0
  185.5800  177.5860  142.7140 C   0  0  0  0  0  3  0  0  0  0  0  0
  190.4930  175.9980  145.1810 C   0  0  1  0  0  3  0  0  0  0  0  0
  192.9640  173.5740  143.7350 C   0  0  0  0  0  2  0  0  0  0  0  0
  186.7370  177.2530  143.2970 C   0  0  0  0  0  0  0  0  0  0  0  0
  184.2320  178.5970  144.5940 C   0  0  0  0  0  3  0  0  0  0  0  0
  193.3160  175.6630  145.1370 C   0  0  2  0  0  3  0  0  0  0  0  0
  188.7790  175.8040  143.3090 C   0  0  0  0  0  0  0  0  0  0  0  0
  186.2160  177.4080  145.6700 N   0  0  0  0  0  0  0  0  0  0  0  0
  189.0320  176.1990  144.7490 C   0  0  2  0  0  3  0  0  0  0  0  0
  188.2160  175.0140  140.7030 C   0  0  0  0  0  3  0  0  0  0  0  0
  191.9420  175.8130  147.3160 C   0  0  0  0  0  2  0  0  0  0  0  0
  187.3990  175.8840  141.3520 N   0  0  0  0  0  0  0  0  0  0  0  0
  190.6100  176.2360  146.6950 C   0  0  0  0  0  2  0  0  0  0  0  0
  192.5100  174.3540  144.9700 C   0  0  1  0  0  3  0  0  0  0  0  0
  189.3450  174.5040  141.3430 C   0  0  0  0  0  3  0  0  0  0  0  0
  190.7790  174.3860  143.3400 N   0  0  0  0  0  0  0  0  0  0  0  0
  194.6760  175.4520  144.8880 O   0  0  0  0  0  0  0  0  0  0  0  0
  195.1990  175.0160  146.1090 C   0  0  0  0  0  2  0  0  0  0  0  0
  196.6980  172.1370  144.6360 O   0  0  0  0  0  0  0  0  0  0  0  0
  197.0590  174.4720  144.5580 C   0  0  0  0  0  2  0  0  0  0  0  0
  196.4090  174.1320  145.8670 C   0  0  2  0  0  3  0  0  0  0  0  0
  196.9480  173.1980  143.7540 C   0  0  0  0  0  2  0  0  0  0  0  0
  195.9630  172.7010  145.6890 C   0  0  0  0  0  2  0  0  0  0  0  0
  1 18  1  0  0  0  0
  1 27  1  0  0  0  0
  2 27  1  0  0  0  0
  2 14  1  0  0  0  0
  3  7  2  0  0  0  0
  4 15  1  0  0  0  0
  4 18  2  0  0  0  0
  5 11  1  1  0  0  0
  5 19  1  0  0  0  0
  8 16  2  0  0  0  0
  9 27  1  6  0  0  0
  9 25  1  0  0  0  0
  9 13  1  0  0  0  0
 10 22  1  0  0  0  0
 12  8  1  0  0  0  0
 12 15  2  0  0  0  0
 13 24  1  1  0  0  0
 15  5  1  0  0  0  0
 16  3  1  0  0  0  0
 17 28  1  1  0  0  0
 17 10  1  0  0  0  0
 18 20  1  0  0  0  0
 19  3  1  0  0  0  0
 19  6  1  0  0  0  0
 20 11  1  6  0  0  0
 20 13  1  0  0  0  0
 21 26  1  0  0  0  0
 21 23  2  0  0  0  0
 23  4  1  0  0  0  0
 24 22  1  0  0  0  0
 25 14  1  6  0  0  0
 25 17  1  0  0  0  0
 26  1  2  0  0  0  0
 28 29  1  0  0  0  0
 30 34  1  0  0  0  0
 31 32  1  0  0  0  0
 32 29  1  6  0  0  0
 33 31  1  0  0  0  0
 33 30  1  0  0  0  0
 34 32  1  0  0  0  0
M  END
>  <MODEL>
3

>  <REMARK>
 VINA RESULT:      -9.1      1.231      1.493
  Name = 
  3 active torsions:
  status: ('A' for Active; 'I' for Inactive)
    1  A    between atoms: C_17  and  O_28
    2  A    between atoms: O_28  and  C_29
    3  A    between atoms: C_29  and  C_32
                            x       y       z     vdW  Elec       q    Type
                         _______ _______ _______ _____ _____    ______ ____

>  <TORSDO>
F 3

$$$$
=
 OpenBabel11112417533D

 34 40  0  0  1  0  0  0  0  0999 V2000
  189.8170  174.8800  142.5800 C   0  0  0  0  0  0  0  0  0  0  0  0
  192.0950  173.7880  142.3360 C   0  0  0  0  0  2  0  0  0  0  0  0
  185.4930  178.0400  146.1210 C   0  0  0  0  0  0  0  0  0  0  0  0
  187.8560  176.2970  142.7490 C   0  0  0  0  0  0  0  0  0  0  0  0
  187.5790  177.9170  144.7470 C   0  0  1  0  0  3  0  0  0  0  0  0
  187.3550  176.7100  146.8640 O   0  0  0  0  0  1  0  0  0  0  0  0
  184.9890  178.0010  147.2750 O   0  0  0  0  0  0  0  0  0  0  0  0
  184.8510  178.4890  143.7250 C   0  0  0  0  0  3  0  0  0  0  0  0
  191.4310  174.6300  144.5110 C   0  0  2  0  0  3  0  0  0  0  0  0
  193.7890  176.3520  145.9740 C   0  0  0  0  0  2  0  0  0  0  0  0
  189.0870  177.7020  144.9270 C   0  0  0  0  0  2  0  0  0  0  0  0
  185.8230  177.6100  143.0440 C   0  0  0  0  0  3  0  0  0  0  0  0
  190.9820  176.0400  144.9560 C   0  0  1  0  0  3  0  0  0  0  0  0
  193.2530  173.5630  143.2900 C   0  0  0  0  0  2  0  0  0  0  0  0
  187.0380  177.2810  143.4950 C   0  0  0  0  0  0  0  0  0  0  0  0
  184.7100  178.6760  145.0430 C   0  0  0  0  0  3  0  0  0  0  0  0
  193.7780  175.6800  144.5900 C   0  0  2  0  0  3  0  0  0  0  0  0
  189.0590  175.8160  143.3020 C   0  0  0  0  0  0  0  0  0  0  0  0
  186.8000  177.4960  145.9080 N   0  0  0  0  0  0  0  0  0  0  0  0
  189.4810  176.2430  144.6930 C   0  0  2  0  0  3  0  0  0  0  0  0
  188.1910  174.9700  140.8000 C   0  0  0  0  0  3  0  0  0  0  0  0
  192.6700  175.8930  146.9110 C   0  0  0  0  0  2  0  0  0  0  0  0
  187.4600  175.8620  141.5190 N   0  0  0  0  0  0  0  0  0  0  0  0
  191.2770  176.3120  146.4400 C   0  0  0  0  0  2  0  0  0  0  0  0
  192.9510  174.3740  144.5500 C   0  0  1  0  0  3  0  0  0  0  0  0
  189.3840  174.4660  141.3160 C   0  0  0  0  0  3  0  0  0  0  0  0
  191.0410  174.3830  143.1340 N   0  0  0  0  0  0  0  0  0  0  0  0
  195.0990  175.4520  144.1890 O   0  0  0  0  0  0  0  0  0  0  0  0
  195.6990  176.7150  144.2000 C   0  0  0  0  0  2  0  0  0  0  0  0
  197.8210  175.1310  141.8140 O   0  0  0  0  0  0  0  0  0  0  0  0
  196.1380  176.7900  141.7590 C   0  0  0  0  0  2  0  0  0  0  0  0
  196.7650  176.7900  143.1220 C   0  0  2  0  0  3  0  0  0  0  0  0
  196.6810  175.5390  141.1070 C   0  0  0  0  0  2  0  0  0  0  0  0
  197.5920  175.5280  143.1390 C   0  0  0  0  0  2  0  0  0  0  0  0
  1 27  1  0  0  0  0
  1 18  1  0  0  0  0
  2 27  1  0  0  0  0
  2 14  1  0  0  0  0
  3  7  2  0  0  0  0
  4 18  2  0  0  0  0
  4 15  1  0  0  0  0
  5 11  1  1  0  0  0
  5 19  1  0  0  0  0
  8 16  2  0  0  0  0
  9 27  1  6  0  0  0
  9 25  1  0  0  0  0
  9 13  1  0  0  0  0
 10 22  1  0  0  0  0
 12 15  2  0  0  0  0
 12  8  1  0  0  0  0
 13 24  1  1  0  0  0
 15  5  1  0  0  0  0
 16  3  1  0  0  0  0
 17 28  1  1  0  0  0
 17 10  1  0  0  0  0
 18 20  1  0  0  0  0
 19  3  1  0  0  0  0
 19  6  1  0  0  0  0
 20 11  1  6  0  0  0
 20 13  1  0  0  0  0
 21 26  1  0  0  0  0
 21 23  2  0  0  0  0
 23  4  1  0  0  0  0
 24 22  1  0  0  0  0
 25 14  1  6  0  0  0
 25 17  1  0  0  0  0
 26  1  2  0  0  0  0
 28 29  1  0  0  0  0
 30 34  1  0  0  0  0
 31 32  1  0  0  0  0
 32 34  1  0  0  0  0
 32 29  1  1  0  0  0
 33 31  1  0  0  0  0
 33 30  1  0  0  0  0
M  END
>  <MODEL>
4

>  <REMARK>
 VINA RESULT:      -8.9      1.137      1.410
  Name = 
  3 active torsions:
  status: ('A' for Active; 'I' for Inactive)
    1  A    between atoms: C_17  and  O_28
    2  A    between atoms: O_28  and  C_29
    3  A    between atoms: C_29  and  C_32
                            x       y       z     vdW  Elec       q    Type
                         _______ _______ _______ _____ _____    ______ ____

>  <TORSDO>
F 3

$$$$
=
 OpenBabel11112417533D

 34 40  0  0  1  0  0  0  0  0999 V2000
  190.8060  172.7470  142.8830 C   0  0  0  0  0  0  0  0  0  0  0  0
  188.6150  173.7740  142.1190 C   0  0  0  0  0  2  0  0  0  0  0  0
  196.6370  173.3470  145.5050 C   0  0  0  0  0  0  0  0  0  0  0  0
  192.7240  171.7800  144.0100 C   0  0  0  0  0  0  0  0  0  0  0  0
  194.1430  173.2070  145.6370 C   0  0  1  0  0  3  0  0  0  0  0  0
  195.2730  175.0420  144.4780 O   0  0  0  0  0  1  0  0  0  0  0  0
  197.6460  174.0960  145.4310 O   0  0  0  0  0  0  0  0  0  0  0  0
  196.0260  170.9160  145.7820 C   0  0  0  0  0  3  0  0  0  0  0  0
  190.3710  175.2380  142.9270 C   0  0  2  0  0  3  0  0  0  0  0  0
  189.2740  177.4990  145.0120 C   0  0  0  0  0  2  0  0  0  0  0  0
  192.9190  174.1310  145.6450 C   0  0  0  0  0  2  0  0  0  0  0  0
  194.7550  170.8970  145.0290 C   0  0  0  0  0  3  0  0  0  0  0  0
  191.1310  175.2600  144.2710 C   0  0  1  0  0  3  0  0  0  0  0  0
  188.0800  175.1930  142.0910 C   0  0  0  0  0  2  0  0  0  0  0  0
  193.9070  171.9220  144.8910 C   0  0  0  0  0  0  0  0  0  0  0  0
  196.8320  171.9650  145.9880 C   0  0  0  0  0  3  0  0  0  0  0  0
  188.5130  176.3660  144.3020 C   0  0  2  0  0  3  0  0  0  0  0  0
  191.9210  172.9020  143.7240 C   0  0  0  0  0  0  0  0  0  0  0  0
  195.3510  173.8640  145.1460 N   0  0  0  0  0  0  0  0  0  0  0  0
  192.3070  174.2690  144.2500 C   0  0  2  0  0  3  0  0  0  0  0  0
  191.3110  170.3960  142.6840 C   0  0  0  0  0  3  0  0  0  0  0  0
  190.6560  177.7980  144.4280 C   0  0  0  0  0  2  0  0  0  0  0  0
  192.3960  170.5660  143.4840 N   0  0  0  0  0  0  0  0  0  0  0  0
  191.6570  176.6600  144.6290 C   0  0  0  0  0  2  0  0  0  0  0  0
  189.0610  176.0500  142.8910 C   0  0  1  0  0  3  0  0  0  0  0  0
  190.4960  171.4830  142.3710 C   0  0  0  0  0  3  0  0  0  0  0  0
  189.9840  173.8810  142.5830 N   0  0  0  0  0  0  0  0  0  0  0  0
  187.1550  176.6970  144.2520 O   0  0  0  0  0  0  0  0  0  0  0  0
  187.1190  178.0840  144.4220 C   0  0  0  0  0  2  0  0  0  0  0  0
  183.9040  178.1250  142.8810 O   0  0  0  0  0  0  0  0  0  0  0  0
  185.1930  179.6290  144.1720 C   0  0  0  0  0  2  0  0  0  0  0  0
  186.1230  178.6980  143.4530 C   0  0  2  0  0  3  0  0  0  0  0  0
  183.8270  179.0160  143.9610 C   0  0  0  0  0  2  0  0  0  0  0  0
  185.2130  177.6210  142.9140 C   0  0  0  0  0  2  0  0  0  0  0  0
  1 18  1  0  0  0  0
  2 27  1  0  0  0  0
  3 16  1  0  0  0  0
  4 15  1  0  0  0  0
  5 11  1  6  0  0  0
  6 19  1  0  0  0  0
  7  3  2  0  0  0  0
  8 16  2  0  0  0  0
  9 27  1  1  0  0  0
  9 13  1  0  0  0  0
 12  8  1  0  0  0  0
 13 24  1  6  0  0  0
 14  2  1  0  0  0  0
 15 12  2  0  0  0  0
 15  5  1  0  0  0  0
 17 28  1  6  0  0  0
 17 10  1  0  0  0  0
 18  4  2  0  0  0  0
 18 20  1  0  0  0  0
 19  3  1  0  0  0  0
 19  5  1  0  0  0  0
 20 13  1  0  0  0  0
 20 11  1  1  0  0  0
 21 23  2  0  0  0  0
 22 24  1  0  0  0  0
 22 10  1  0  0  0  0
 23  4  1  0  0  0  0
 25 14  1  6  0  0  0
 25  9  1  0  0  0  0
 25 17  1  0  0  0  0
 26 21  1  0  0  0  0
 26  1  2  0  0  0  0
 27  1  1  0  0  0  0
 28 29  1  0  0  0  0
 30 34  1  0  0  0  0
 30 33  1  0  0  0  0
 32 31  1  0  0  0  0
 32 29  1  1  0  0  0
 33 31  1  0  0  0  0
 34 32  1  0  0  0  0
M  END
>  <MODEL>
5

>  <REMARK>
 VINA RESULT:      -8.5      2.351      8.605
  Name = 
  3 active torsions:
  status: ('A' for Active; 'I' for Inactive)
    1  A    between atoms: C_17  and  O_28
    2  A    between atoms: O_28  and  C_29
    3  A    between atoms: C_29  and  C_32
                            x       y       z     vdW  Elec       q    Type
                         _______ _______ _______ _____ _____    ______ ____

>  <TORSDO>
F 3

$$$$
=
 OpenBabel11112417533D

 34 40  0  0  1  0  0  0  0  0999 V2000
  188.0150  176.3410  142.0780 C   0  0  0  0  0  0  0  0  0  0  0  0
  186.2460  177.1650  140.4560 C   0  0  0  0  0  2  0  0  0  0  0  0
  190.9330  176.6600  147.7890 C   0  0  0  0  0  0  0  0  0  0  0  0
  189.3780  175.3320  143.8120 C   0  0  0  0  0  0  0  0  0  0  0  0
  189.0450  175.9930  146.2910 C   0  0  1  0  0  3  0  0  0  0  0  0
  189.6120  178.3410  146.6840 O   0  0  0  0  0  1  0  0  0  0  0  0
  191.3930  177.5250  148.5810 O   0  0  0  0  0  0  0  0  0  0  0  0
  191.4420  174.3540  146.9060 C   0  0  0  0  0  3  0  0  0  0  0  0
  186.5350  178.3340  142.5600 C   0  0  2  0  0  3  0  0  0  0  0  0
  183.7010  178.9810  144.0470 C   0  0  0  0  0  2  0  0  0  0  0  0
  187.6940  176.5300  145.8020 C   0  0  0  0  0  2  0  0  0  0  0  0
  190.8410  174.4690  145.5620 C   0  0  0  0  0  3  0  0  0  0  0  0
  186.4710  177.8260  144.0180 C   0  0  1  0  0  3  0  0  0  0  0  0
  185.2100  178.2710  140.5130 C   0  0  0  0  0  2  0  0  0  0  0  0
  189.7980  175.2380  145.2300 C   0  0  0  0  0  0  0  0  0  0  0  0
  191.4810  175.2910  147.8610 C   0  0  0  0  0  3  0  0  0  0  0  0
  183.9700  178.2340  142.7290 C   0  0  2  0  0  3  0  0  0  0  0  0
  188.3950  176.2650  143.4280 C   0  0  0  0  0  0  0  0  0  0  0  0
  189.8920  177.0270  146.8770 N   0  0  0  0  0  0  0  0  0  0  0  0
  187.8210  177.2280  144.4470 C   0  0  2  0  0  3  0  0  0  0  0  0
  189.5570  174.5570  141.5670 C   0  0  0  0  0  3  0  0  0  0  0  0
  184.8860  179.7940  144.5710 C   0  0  0  0  0  2  0  0  0  0  0  0
  189.9270  174.5090  142.8740 N   0  0  0  0  0  0  0  0  0  0  0  0
  186.0670  178.9270  145.0110 C   0  0  0  0  0  2  0  0  0  0  0  0
  185.1900  178.7830  141.9540 C   0  0  1  0  0  3  0  0  0  0  0  0
  188.5930  175.4720  141.1470 C   0  0  0  0  0  3  0  0  0  0  0  0
  187.0180  177.2880  141.6760 N   0  0  0  0  0  0  0  0  0  0  0  0
  182.8140  178.2760  141.9440 O   0  0  0  0  0  0  0  0  0  0  0  0
  181.9060  179.0410  142.6820 C   0  0  0  0  0  2  0  0  0  0  0  0
  179.5380  178.0850  140.1950 O   0  0  0  0  0  0  0  0  0  0  0  0
  179.4530  178.7360  142.4670 C   0  0  0  0  0  2  0  0  0  0  0  0
  180.6770  179.3380  141.8420 C   0  0  2  0  0  3  0  0  0  0  0  0
  178.9580  177.7550  141.4290 C   0  0  0  0  0  2  0  0  0  0  0  0
  180.7900  178.6320  140.5130 C   0  0  0  0  0  2  0  0  0  0  0  0
  1 18  1  0  0  0  0
  2 14  1  0  0  0  0
  2 27  1  0  0  0  0
  3 16  1  0  0  0  0
  3  7  2  0  0  0  0
  4 15  1  0  0  0  0
  5 11  1  6  0  0  0
  5 19  1  0  0  0  0
  6 19  1  0  0  0  0
  8 16  2  0  0  0  0
  9 27  1  6  0  0  0
  9 13  1  0  0  0  0
 10 22  1  0  0  0  0
 12  8  1  0  0  0  0
 13 20  1  0  0  0  0
 13 24  1  1  0  0  0
 15 12  2  0  0  0  0
 15  5  1  0  0  0  0
 17 28  1  6  0  0  0
 17 10  1  0  0  0  0
 18  4  2  0  0  0  0
 18 20  1  0  0  0  0
 19  3  1  0  0  0  0
 20 11  1  1  0  0  0
 21 23  2  0  0  0  0
 22 24  1  0  0  0  0
 23  4  1  0  0  0  0
 25 14  1  6  0  0  0
 25  9  1  0  0  0  0
 25 17  1  0  0  0  0
 26 21  1  0  0  0  0
 26  1  2  0  0  0  0
 27  1  1  0  0  0  0
 28 29  1  0  0  0  0
 30 34  1  0  0  0  0
 30 33  1  0  0  0  0
 32 31  1  0  0  0  0
 32 29  1  1  0  0  0
 33 31  1  0  0  0  0
 34 32  1  0  0  0  0
M  END
>  <MODEL>
6

>  <REMARK>
 VINA RESULT:      -8.5      3.269      9.193
  Name = 
  3 active torsions:
  status: ('A' for Active; 'I' for Inactive)
    1  A    between atoms: C_17  and  O_28
    2  A    between atoms: O_28  and  C_29
    3  A    between atoms: C_29  and  C_32
                            x       y       z     vdW  Elec       q    Type
                         _______ _______ _______ _____ _____    ______ ____

>  <TORSDO>
F 3

$$$$
=
 OpenBabel11112417533D

 34 40  0  0  1  0  0  0  0  0999 V2000
  192.1890  176.2210  145.8850 C   0  0  0  0  0  0  0  0  0  0  0  0
  189.8900  176.4200  146.9390 C   0  0  0  0  0  2  0  0  0  0  0  0
  195.9880  174.2040  141.1170 C   0  0  0  0  0  0  0  0  0  0  0  0
  194.2600  176.3650  144.6300 C   0  0  0  0  0  0  0  0  0  0  0  0
  194.3100  175.7680  142.1120 C   0  0  1  0  0  3  0  0  0  0  0  0
  193.8040  173.4040  141.7340 O   0  0  0  0  0  1  0  0  0  0  0  0
  196.1810  173.1730  140.4190 O   0  0  0  0  0  0  0  0  0  0  0  0
  197.2610  176.0660  142.2430 C   0  0  0  0  0  3  0  0  0  0  0  0
  190.1350  175.1120  144.9120 C   0  0  2  0  0  3  0  0  0  0  0  0
  187.8160  175.7520  142.7040 C   0  0  0  0  0  2  0  0  0  0  0  0
  192.7890  175.9520  142.2010 C   0  0  0  0  0  2  0  0  0  0  0  0
  196.3510  176.3320  143.3760 C   0  0  0  0  0  3  0  0  0  0  0  0
  190.6920  175.4930  143.5230 C   0  0  1  0  0  3  0  0  0  0  0  0
  188.5130  175.9180  146.5460 C   0  0  0  0  0  2  0  0  0  0  0  0
  195.0250  176.1580  143.3770 C   0  0  0  0  0  0  0  0  0  0  0  0
  197.1050  175.1550  141.2740 C   0  0  0  0  0  3  0  0  0  0  0  0
  188.0510  176.3760  144.0910 C   0  0  2  0  0  3  0  0  0  0  0  0
  192.8950  176.0200  144.6860 C   0  0  0  0  0  0  0  0  0  0  0  0
  194.7000  174.4220  141.7030 N   0  0  0  0  0  0  0  0  0  0  0  0
  192.2250  175.3670  143.4960 C   0  0  2  0  0  3  0  0  0  0  0  0
  194.1920  177.1180  146.8880 C   0  0  0  0  0  3  0  0  0  0  0  0
  188.5790  174.4490  142.4570 C   0  0  0  0  0  2  0  0  0  0  0  0
  194.8650  176.9020  145.7270 N   0  0  0  0  0  0  0  0  0  0  0  0
  190.0950  174.6390  142.3920 C   0  0  0  0  0  2  0  0  0  0  0  0
  188.6310  175.3780  145.1210 C   0  0  1  0  0  3  0  0  0  0  0  0
  192.8420  176.7840  146.9860 C   0  0  0  0  0  3  0  0  0  0  0  0
  190.8010  175.8720  145.9550 N   0  0  0  0  0  0  0  0  0  0  0  0
  186.8490  176.9270  144.5470 O   0  0  0  0  0  0  0  0  0  0  0  0
  186.7780  178.1830  143.9370 C   0  0  0  0  0  2  0  0  0  0  0  0
  183.6910  179.0400  145.5010 O   0  0  0  0  0  0  0  0  0  0  0  0
  185.9140  178.6630  146.2130 C   0  0  0  0  0  2  0  0  0  0  0  0
  185.9410  179.1230  144.7860 C   0  0  2  0  0  3  0  0  0  0  0  0
  184.4520  178.3850  146.4800 C   0  0  0  0  0  2  0  0  0  0  0  0
  184.4970  179.0460  144.3530 C   0  0  0  0  0  2  0  0  0  0  0  0
  1 27  1  0  0  0  0
  1 26  1  0  0  0  0
  3 16  1  0  0  0  0
  3 19  1  0  0  0  0
  4 18  1  0  0  0  0
  4 23  2  0  0  0  0
  5 11  1  1  0  0  0
  5 15  1  0  0  0  0
  7  3  2  0  0  0  0
  8 12  1  0  0  0  0
  9 25  1  0  0  0  0
  9 27  1  1  0  0  0
 10 17  1  0  0  0  0
 12 15  2  0  0  0  0
 13 24  1  6  0  0  0
 13  9  1  0  0  0  0
 14  2  1  0  0  0  0
 15  4  1  0  0  0  0
 16  8  2  0  0  0  0
 17 28  1  1  0  0  0
 17 25  1  0  0  0  0
 18  1  2  0  0  0  0
 19  6  1  0  0  0  0
 19  5  1  0  0  0  0
 20 11  1  6  0  0  0
 20 13  1  0  0  0  0
 20 18  1  0  0  0  0
 21 26  2  0  0  0  0
 22 10  1  0  0  0  0
 23 21  1  0  0  0  0
 24 22  1  0  0  0  0
 25 14  1  1  0  0  0
 27  2  1  0  0  0  0
 29 28  1  0  0  0  0
 30 33  1  0  0  0  0
 31 33  1  0  0  0  0
 32 29  1  6  0  0  0
 32 31  1  0  0  0  0
 34 32  1  0  0  0  0
 34 30  1  0  0  0  0
M  END
>  <MODEL>
7

>  <REMARK>
 VINA RESULT:      -8.4      2.177      8.833
  Name = 
  3 active torsions:
  status: ('A' for Active; 'I' for Inactive)
    1  A    between atoms: C_17  and  O_28
    2  A    between atoms: O_28  and  C_29
    3  A    between atoms: C_29  and  C_32
                            x       y       z     vdW  Elec       q    Type
                         _______ _______ _______ _____ _____    ______ ____

>  <TORSDO>
F 3

$$$$
=
 OpenBabel11112417533D

 34 40  0  0  1  0  0  0  0  0999 V2000
  190.0750  176.9160  146.0430 C   0  0  0  0  0  0  0  0  0  0  0  0
  192.3480  176.0680  146.7880 C   0  0  0  0  0  2  0  0  0  0  0  0
  185.7280  177.9090  141.4230 C   0  0  0  0  0  0  0  0  0  0  0  0
  187.7850  177.3080  145.3480 C   0  0  0  0  0  0  0  0  0  0  0  0
  186.9480  176.4560  143.0520 C   0  0  1  0  0  3  0  0  0  0  0  0
  188.0990  177.5700  141.2020 O   0  0  0  0  0  1  0  0  0  0  0  0
  185.6680  178.3480  140.2440 O   0  0  0  0  0  0  0  0  0  0  0  0
  184.4250  177.9280  143.5820 C   0  0  0  0  0  3  0  0  0  0  0  0
  191.8120  176.0470  144.4230 C   0  0  2  0  0  3  0  0  0  0  0  0
  192.6190  173.2370  142.9680 C   0  0  0  0  0  2  0  0  0  0  0  0
  188.1860  175.5520  143.1150 C   0  0  0  0  0  2  0  0  0  0  0  0
  185.5430  177.8300  144.5420 C   0  0  0  0  0  3  0  0  0  0  0  0
  190.6430  175.3900  143.6560 C   0  0  1  0  0  3  0  0  0  0  0  0
  193.5260  175.4560  146.0550 C   0  0  0  0  0  2  0  0  0  0  0  0
  186.7170  177.2260  144.3240 C   0  0  0  0  0  0  0  0  0  0  0  0
  184.5030  177.9600  142.2460 C   0  0  0  0  0  3  0  0  0  0  0  0
  192.7500  173.6520  144.4440 C   0  0  2  0  0  3  0  0  0  0  0  0
  189.0760  176.8250  145.0590 C   0  0  0  0  0  0  0  0  0  0  0  0
  186.9590  177.3600  141.9060 N   0  0  0  0  0  0  0  0  0  0  0  0
  189.3990  176.2930  143.6790 C   0  0  2  0  0  3  0  0  0  0  0  0
  188.4730  177.9140  147.5460 C   0  0  0  0  0  3  0  0  0  0  0  0
  192.3670  174.3970  142.0020 C   0  0  0  0  0  2  0  0  0  0  0  0
  187.5230  177.8350  146.5780 N   0  0  0  0  0  0  0  0  0  0  0  0
  191.0030  175.0620  142.1980 C   0  0  0  0  0  2  0  0  0  0  0  0
  193.0530  175.1570  144.6320 C   0  0  1  0  0  3  0  0  0  0  0  0
  189.7650  177.4530  147.2970 C   0  0  0  0  0  3  0  0  0  0  0  0
  191.3930  176.4300  145.7600 N   0  0  0  0  0  0  0  0  0  0  0  0
  193.7330  172.8610  145.0480 O   0  0  0  0  0  0  0  0  0  0  0  0
  194.4750  172.3380  143.9850 C   0  0  0  0  0  2  0  0  0  0  0  0
  197.3290  174.2520  144.9350 O   0  0  0  0  0  0  0  0  0  0  0  0
  196.1990  172.3500  145.7700 C   0  0  0  0  0  2  0  0  0  0  0  0
  195.9590  172.4380  144.2920 C   0  0  2  0  0  3  0  0  0  0  0  0
  196.8390  173.6750  146.1160 C   0  0  0  0  0  2  0  0  0  0  0  0
  196.4590  173.8140  143.9260 C   0  0  0  0  0  2  0  0  0  0  0  0
  1 26  1  0  0  0  0
  3 19  1  0  0  0  0
  3 16  1  0  0  0  0
  4 23  2  0  0  0  0
  5 11  1  1  0  0  0
  5 15  1  0  0  0  0
  6 19  1  0  0  0  0
  7  3  2  0  0  0  0
  8 12  1  0  0  0  0
  9 25  1  0  0  0  0
  9 27  1  1  0  0  0
 10 17  1  0  0  0  0
 13 24  1  6  0  0  0
 13 20  1  0  0  0  0
 13  9  1  0  0  0  0
 14  2  1  0  0  0  0
 15 12  2  0  0  0  0
 15  4  1  0  0  0  0
 16  8  2  0  0  0  0
 17 25  1  0  0  0  0
 17 28  1  6  0  0  0
 18  4  1  0  0  0  0
 18  1  2  0  0  0  0
 19  5  1  0  0  0  0
 20 11  1  1  0  0  0
 20 18  1  0  0  0  0
 22 24  1  0  0  0  0
 22 10  1  0  0  0  0
 23 21  1  0  0  0  0
 25 14  1  1  0  0  0
 26 21  2  0  0  0  0
 27  1  1  0  0  0  0
 27  2  1  0  0  0  0
 29 28  1  0  0  0  0
 30 33  1  0  0  0  0
 31 33  1  0  0  0  0
 32 29  1  1  0  0  0
 32 31  1  0  0  0  0
 34 32  1  0  0  0  0
 34 30  1  0  0  0  0
M  END
>  <MODEL>
8

>  <REMARK>
 VINA RESULT:      -8.3      2.229      3.825
  Name = 
  3 active torsions:
  status: ('A' for Active; 'I' for Inactive)
    1  A    between atoms: C_17  and  O_28
    2  A    between atoms: O_28  and  C_29
    3  A    between atoms: C_29  and  C_32
                            x       y       z     vdW  Elec       q    Type
                         _______ _______ _______ _____ _____    ______ ____

>  <TORSDO>
F 3

$$$$
=
 OpenBabel11112417533D

 34 40  0  0  1  0  0  0  0  0999 V2000
  190.2210  174.7830  144.5530 C   0  0  0  0  0  0  0  0  0  0  0  0
  191.6830  173.1560  143.2670 C   0  0  0  0  0  2  0  0  0  0  0  0
  185.5660  179.2040  144.6820 C   0  0  0  0  0  0  0  0  0  0  0  0
  188.5210  176.0250  145.7580 C   0  0  0  0  0  0  0  0  0  0  0  0
  186.3910  176.8480  144.5410 C   0  0  1  0  0  3  0  0  0  0  0  0
  186.9170  178.5030  142.8180 O   0  0  0  0  0  1  0  0  0  0  0  0
  185.2060  180.2330  144.0490 O   0  0  0  0  0  0  0  0  0  0  0  0
  185.6990  178.3050  147.0330 C   0  0  0  0  0  3  0  0  0  0  0  0
  190.1810  174.6040  142.0310 C   0  0  2  0  0  3  0  0  0  0  0  0
  188.5180  173.0170  139.7120 C   0  0  0  0  0  2  0  0  0  0  0  0
  186.7830  175.8060  143.4850 C   0  0  0  0  0  2  0  0  0  0  0  0
  186.8730  177.4210  146.8900 C   0  0  0  0  0  3  0  0  0  0  0  0
  188.6510  174.7940  142.1280 C   0  0  1  0  0  3  0  0  0  0  0  0
  191.8170  172.8100  141.7960 C   0  0  0  0  0  2  0  0  0  0  0  0
  187.2520  176.7910  145.7730 C   0  0  0  0  0  0  0  0  0  0  0  0
  185.1370  179.0680  146.0880 C   0  0  0  0  0  3  0  0  0  0  0  0
  189.5340  172.4790  140.7340 C   0  0  2  0  0  3  0  0  0  0  0  0
  189.0140  175.5030  144.5460 C   0  0  0  0  0  0  0  0  0  0  0  0
  186.3470  178.2080  144.0130 N   0  0  0  0  0  0  0  0  0  0  0  0
  188.2930  175.7880  143.2450 C   0  0  2  0  0  3  0  0  0  0  0  0
  190.3680  175.0980  146.9410 C   0  0  0  0  0  3  0  0  0  0  0  0
  188.5180  174.5390  139.5570 C   0  0  0  0  0  2  0  0  0  0  0  0
  189.2100  175.8080  146.9140 N   0  0  0  0  0  0  0  0  0  0  0  0
  188.0300  175.2750  140.8060 C   0  0  0  0  0  2  0  0  0  0  0  0
  190.6530  173.4900  141.0750 C   0  0  1  0  0  3  0  0  0  0  0  0
  190.8930  174.5720  145.7620 C   0  0  0  0  0  3  0  0  0  0  0  0
  190.7330  174.2490  143.3270 N   0  0  0  0  0  0  0  0  0  0  0  0
  190.0690  171.2810  140.2500 O   0  0  0  0  0  0  0  0  0  0  0  0
  189.6930  171.2390  138.9040 C   0  0  0  0  0  2  0  0  0  0  0  0
  192.8160  172.0980  137.4140 O   0  0  0  0  0  0  0  0  0  0  0  0
  192.0380  170.4280  138.8970 C   0  0  0  0  0  2  0  0  0  0  0  0
  190.8910  170.8810  138.0430 C   0  0  2  0  0  3  0  0  0  0  0  0
  193.1270  171.4380  138.6120 C   0  0  0  0  0  2  0  0  0  0  0  0
  191.4150  172.1230  137.3630 C   0  0  0  0  0  2  0  0  0  0  0  0
  1 26  1  0  0  0  0
  2 27  1  0  0  0  0
  3 16  1  0  0  0  0
  4 15  1  0  0  0  0
  4 23  2  0  0  0  0
  5 11  1  6  0  0  0
  5 15  1  0  0  0  0
  6 19  1  0  0  0  0
  7  3  2  0  0  0  0
  9 13  1  0  0  0  0
  9 27  1  1  0  0  0
 10 17  1  0  0  0  0
 12  8  1  0  0  0  0
 13 24  1  6  0  0  0
 13 20  1  0  0  0  0
 14  2  1  0  0  0  0
 15 12  2  0  0  0  0
 16  8  2  0  0  0  0
 17 28  1  6  0  0  0
 17 25  1  0  0  0  0
 18  1  2  0  0  0  0
 18  4  1  0  0  0  0
 19  5  1  0  0  0  0
 19  3  1  0  0  0  0
 20 11  1  1  0  0  0
 20 18  1  0  0  0  0
 22 10  1  0  0  0  0
 22 24  1  0  0  0  0
 23 21  1  0  0  0  0
 25 14  1  1  0  0  0
 25  9  1  0  0  0  0
 26 21  2  0  0  0  0
 27  1  1  0  0  0  0
 29 28  1  0  0  0  0
 30 33  1  0  0  0  0
 32 31  1  0  0  0  0
 32 29  1  1  0  0  0
 33 31  1  0  0  0  0
 34 30  1  0  0  0  0
 34 32  1  0  0  0  0
M  END
>  <MODEL>
9

>  <REMARK>
 VINA RESULT:      -8.1      3.393      5.591
  Name = 
  3 active torsions:
  status: ('A' for Active; 'I' for Inactive)
    1  A    between atoms: C_17  and  O_28
    2  A    between atoms: O_28  and  C_29
    3  A    between atoms: C_29  and  C_32
                            x       y       z     vdW  Elec       q    Type
                         _______ _______ _______ _____ _____    ______ ____

>  <TORSDO>
F 3

$$$$
