=
 OpenBabel11112416213D

 30 35  0  0  1  0  0  0  0  0999 V2000
  186.2660  177.2920  143.5520 C   0  0  0  0  0  0  0  0  0  0  0  0
  184.6100  178.3670  145.0540 C   0  0  0  0  0  0  0  0  0  0  0  0
  188.4700  175.9190  146.7430 N   0  0  0  0  0  2  0  0  0  0  0  0
  187.4290  176.4970  143.3800 C   0  0  0  0  0  0  0  0  0  0  0  0
  185.5760  177.7440  142.4220 O   0  0  0  0  0  0  0  0  0  0  0  0
  187.4470  176.3100  139.7450 O   0  0  0  0  0  0  0  0  0  0  0  0
  190.0620  175.2260  142.2370 C   0  0  1  0  0  3  0  0  0  0  0  0
  187.1340  176.6620  140.9160 C   0  0  0  0  0  0  0  0  0  0  0  0
  190.3640  175.0760  143.7210 C   0  0  2  0  0  3  0  0  0  0  0  0
  189.4570  175.3400  146.0270 C   0  0  0  0  0  0  0  0  0  0  0  0
  186.1620  177.7900  141.1220 C   0  0  1  0  0  3  0  0  0  0  0  0
  187.7650  176.0490  142.0520 N   0  0  0  0  0  0  0  0  0  0  0  0
  184.1680  178.6490  146.3490 C   0  0  0  0  0  3  0  0  0  0  0  0
  190.8740  173.6590  143.8890 C   0  0  0  0  0  2  0  0  0  0  0  0
  191.0180  174.2760  141.5360 C   0  0  0  0  0  2  0  0  0  0  0  0
  183.8850  178.8460  144.0120 F   0  0  0  0  0  0  0  0  0  0  0  0
  187.6510  176.3930  145.7890 C   0  0  0  0  0  0  0  0  0  0  0  0
  184.8750  178.1810  147.4580 C   0  0  0  0  0  3  0  0  0  0  0  0
  185.7810  177.6030  144.8530 C   0  0  0  0  0  0  0  0  0  0  0  0
  188.1290  176.0940  144.5370 C   0  0  0  0  0  0  0  0  0  0  0  0
  190.4630  174.8170  146.5750 O   0  0  0  0  0  0  0  0  0  0  0  0
  189.2920  175.4070  144.6780 N   0  0  0  0  0  0  0  0  0  0  0  0
  191.5980  173.3500  142.5950 C   0  0  0  0  0  2  0  0  0  0  0  0
  188.0480  173.6170  142.3890 C   0  0  0  0  0  1  0  0  0  0  0  0
  186.0340  177.4270  147.2810 C   0  0  0  0  0  3  0  0  0  0  0  0
  186.4890  177.1330  145.9900 C   0  0  0  0  0  0  0  0  0  0  0  0
  188.6330  174.9060  141.8190 C   0  0  2  0  0  3  0  0  0  0  0  0
  185.0700  177.8400  140.0550 C   0  0  0  0  0  2  0  0  0  0  0  0
  182.6160  177.8340  140.3920 C   0  0  0  0  0  1  0  0  0  0  0  0
  183.8770  178.6650  140.5080 C   0  0  0  0  0  2  0  0  0  0  0  0
  1 19  1  0  0  0  0
  2 13  1  0  0  0  0
  4  1  2  0  0  0  0
  4 20  1  0  0  0  0
  5  1  1  0  0  0  0
  6  8  2  0  0  0  0
  7 15  1  6  0  0  0
  7  9  1  0  0  0  0
  8 11  1  0  0  0  0
  8 12  1  0  0  0  0
  9 14  1  6  0  0  0
  9 22  1  0  0  0  0
 10 21  2  0  0  0  0
 10  3  1  0  0  0  0
 11 28  1  6  0  0  0
 11  5  1  0  0  0  0
 12  4  1  0  0  0  0
 13 18  2  0  0  0  0
 15 23  1  0  0  0  0
 16  2  1  0  0  0  0
 17 26  1  0  0  0  0
 17  3  1  0  0  0  0
 19  2  2  0  0  0  0
 19 26  1  0  0  0  0
 20 22  1  0  0  0  0
 20 17  2  0  0  0  0
 22 10  1  0  0  0  0
 23 14  1  0  0  0  0
 25 18  1  0  0  0  0
 26 25  2  0  0  0  0
 27 12  1  0  0  0  0
 27  7  1  0  0  0  0
 27 24  1  1  0  0  0
 28 30  1  0  0  0  0
 29 30  1  0  0  0  0
M  END
>  <MODEL>
1

>  <REMARK>
 VINA RESULT:      -8.8      0.000      0.000
  Name = 
  2 active torsions:
  status: ('A' for Active; 'I' for Inactive)
    1  A    between atoms: C_11  and  C_28
    2  A    between atoms: C_28  and  C_30
                            x       y       z     vdW  Elec       q    Type
                         _______ _______ _______ _____ _____    ______ ____

>  <TORSDO>
F 2

$$$$
=
 OpenBabel11112416213D

 30 35  0  0  1  0  0  0  0  0999 V2000
  190.0040  175.8330  144.2000 C   0  0  0  0  0  0  0  0  0  0  0  0
  190.9720  174.4950  142.3500 C   0  0  0  0  0  0  0  0  0  0  0  0
  186.4110  176.2070  142.2320 N   0  0  0  0  0  2  0  0  0  0  0  0
  188.8980  176.5120  144.7720 C   0  0  0  0  0  0  0  0  0  0  0  0
  191.2050  175.7630  144.9160 O   0  0  0  0  0  0  0  0  0  0  0  0
  190.3970  177.4490  147.9540 O   0  0  0  0  0  0  0  0  0  0  0  0
  187.1120  178.4950  146.4270 C   0  0  1  0  0  3  0  0  0  0  0  0
  190.2860  177.0170  146.7740 C   0  0  0  0  0  0  0  0  0  0  0  0
  186.1730  178.2740  145.2500 C   0  0  2  0  0  3  0  0  0  0  0  0
  185.7990  176.9840  143.1500 C   0  0  0  0  0  0  0  0  0  0  0  0
  191.5170  176.6410  145.9960 C   0  0  1  0  0  3  0  0  0  0  0  0
  188.9990  176.9640  146.1380 N   0  0  0  0  0  0  0  0  0  0  0  0
  190.8220  173.8870  141.1000 C   0  0  0  0  0  3  0  0  0  0  0  0
  184.8090  178.0240  145.8600 C   0  0  0  0  0  2  0  0  0  0  0  0
  186.2410  179.0740  147.5290 C   0  0  0  0  0  2  0  0  0  0  0  0
  192.1700  174.3820  142.9760 F   0  0  0  0  0  0  0  0  0  0  0  0
  187.6160  175.9880  142.7860 C   0  0  0  0  0  0  0  0  0  0  0  0
  189.6110  173.9710  140.4110 C   0  0  0  0  0  3  0  0  0  0  0  0
  189.8960  175.2020  142.9310 C   0  0  0  0  0  0  0  0  0  0  0  0
  187.7150  176.6060  144.0090 C   0  0  0  0  0  0  0  0  0  0  0  0
  184.6440  177.4520  142.9670 O   0  0  0  0  0  0  0  0  0  0  0  0
  186.5430  177.2460  144.2580 N   0  0  0  0  0  0  0  0  0  0  0  0
  184.7900  178.8570  147.1240 C   0  0  0  0  0  2  0  0  0  0  0  0
  186.9480  176.0180  147.1420 C   0  0  0  0  0  1  0  0  0  0  0  0
  188.5380  174.6660  140.9660 C   0  0  0  0  0  3  0  0  0  0  0  0
  188.6700  175.2770  142.2180 C   0  0  0  0  0  0  0  0  0  0  0  0
  187.8240  177.2520  146.9450 C   0  0  2  0  0  3  0  0  0  0  0  0
  192.6110  176.0310  146.8700 C   0  0  0  0  0  2  0  0  0  0  0  0
  194.8890  175.4440  146.0920 C   0  0  0  0  0  1  0  0  0  0  0  0
  193.9840  176.5810  146.5190 C   0  0  0  0  0  2  0  0  0  0  0  0
  1  4  1  0  0  0  0
  1  5  1  0  0  0  0
  2 19  1  0  0  0  0
  2 16  1  0  0  0  0
  3 17  1  0  0  0  0
  3 10  1  0  0  0  0
  4 12  1  0  0  0  0
  5 11  1  0  0  0  0
  7 27  1  0  0  0  0
  7 15  1  1  0  0  0
  8  6  2  0  0  0  0
  9 14  1  1  0  0  0
  9  7  1  0  0  0  0
 10 22  1  0  0  0  0
 11  8  1  0  0  0  0
 11 28  1  1  0  0  0
 12  8  1  0  0  0  0
 12 27  1  0  0  0  0
 13  2  2  0  0  0  0
 14 23  1  0  0  0  0
 17 20  1  0  0  0  0
 18 25  2  0  0  0  0
 18 13  1  0  0  0  0
 19  1  2  0  0  0  0
 20 22  1  0  0  0  0
 20  4  2  0  0  0  0
 21 10  2  0  0  0  0
 22  9  1  0  0  0  0
 23 15  1  0  0  0  0
 25 26  1  0  0  0  0
 26 17  2  0  0  0  0
 26 19  1  0  0  0  0
 27 24  1  6  0  0  0
 29 30  1  0  0  0  0
 30 28  1  0  0  0  0
M  END
>  <MODEL>
2

>  <REMARK>
 VINA RESULT:      -8.2      2.608      7.362
  Name = 
  2 active torsions:
  status: ('A' for Active; 'I' for Inactive)
    1  A    between atoms: C_11  and  C_28
    2  A    between atoms: C_28  and  C_30
                            x       y       z     vdW  Elec       q    Type
                         _______ _______ _______ _____ _____    ______ ____

>  <TORSDO>
F 2

$$$$
=
 OpenBabel11112416213D

 30 35  0  0  1  0  0  0  0  0999 V2000
  189.8050  175.2380  143.9350 C   0  0  0  0  0  0  0  0  0  0  0  0
  191.7950  174.5660  145.2540 C   0  0  0  0  0  0  0  0  0  0  0  0
  188.2610  177.3700  147.0960 N   0  0  0  0  0  2  0  0  0  0  0  0
  188.5920  175.9670  143.8320 C   0  0  0  0  0  0  0  0  0  0  0  0
  190.2610  174.5150  142.8270 O   0  0  0  0  0  0  0  0  0  0  0  0
  187.7920  175.2400  140.3570 O   0  0  0  0  0  0  0  0  0  0  0  0
  185.7130  176.9190  143.0180 C   0  0  1  0  0  3  0  0  0  0  0  0
  188.3640  175.1910  141.4800 C   0  0  0  0  0  0  0  0  0  0  0  0
  185.7260  177.4360  144.4490 C   0  0  2  0  0  3  0  0  0  0  0  0
  187.1150  177.7550  146.4940 C   0  0  0  0  0  0  0  0  0  0  0  0
  189.4150  174.1470  141.7390 C   0  0  1  0  0  3  0  0  0  0  0  0
  187.9580  176.0700  142.5420 N   0  0  0  0  0  0  0  0  0  0  0  0
  192.5160  174.6170  146.4500 C   0  0  0  0  0  3  0  0  0  0  0  0
  185.1900  178.8520  144.3730 C   0  0  0  0  0  2  0  0  0  0  0  0
  184.5820  177.6670  142.3320 C   0  0  0  0  0  2  0  0  0  0  0  0
  192.3060  173.8410  144.2290 F   0  0  0  0  0  0  0  0  0  0  0  0
  188.8820  176.6710  146.1310 C   0  0  0  0  0  0  0  0  0  0  0  0
  192.0380  175.3480  147.5380 C   0  0  0  0  0  3  0  0  0  0  0  0
  190.5700  175.2600  145.1340 C   0  0  0  0  0  0  0  0  0  0  0  0
  188.1330  176.6490  144.9800 C   0  0  0  0  0  0  0  0  0  0  0  0
  186.2230  178.4010  147.1040 O   0  0  0  0  0  0  0  0  0  0  0  0
  186.9930  177.3520  145.1990 N   0  0  0  0  0  0  0  0  0  0  0  0
  184.1930  178.8300  143.2340 C   0  0  0  0  0  2  0  0  0  0  0  0
  187.6270  178.5090  142.3280 C   0  0  0  0  0  1  0  0  0  0  0  0
  190.8300  176.0380  147.4400 C   0  0  0  0  0  3  0  0  0  0  0  0
  190.0970  176.0010  146.2480 C   0  0  0  0  0  0  0  0  0  0  0  0
  187.0020  177.1210  142.2320 C   0  0  2  0  0  3  0  0  0  0  0  0
  190.2560  173.8290  140.5040 C   0  0  0  0  0  2  0  0  0  0  0  0
  189.1550  172.1500  139.0540 C   0  0  0  0  0  1  0  0  0  0  0  0
  190.1890  172.3540  140.1410 C   0  0  0  0  0  2  0  0  0  0  0  0
  1 19  1  0  0  0  0
  2 13  1  0  0  0  0
  4  1  2  0  0  0  0
  4 20  1  0  0  0  0
  5  1  1  0  0  0  0
  6  8  2  0  0  0  0
  7 15  1  6  0  0  0
  7  9  1  0  0  0  0
  8 11  1  0  0  0  0
  8 12  1  0  0  0  0
  9 14  1  6  0  0  0
  9 22  1  0  0  0  0
 10  3  1  0  0  0  0
 10 21  2  0  0  0  0
 11 28  1  6  0  0  0
 11  5  1  0  0  0  0
 12  4  1  0  0  0  0
 13 18  2  0  0  0  0
 15 23  1  0  0  0  0
 16  2  1  0  0  0  0
 17 26  1  0  0  0  0
 17  3  1  0  0  0  0
 19  2  2  0  0  0  0
 19 26  1  0  0  0  0
 20 22  1  0  0  0  0
 20 17  2  0  0  0  0
 22 10  1  0  0  0  0
 23 14  1  0  0  0  0
 25 18  1  0  0  0  0
 26 25  2  0  0  0  0
 27 24  1  1  0  0  0
 27 12  1  0  0  0  0
 27  7  1  0  0  0  0
 29 30  1  0  0  0  0
 30 28  1  0  0  0  0
M  END
>  <MODEL>
3

>  <REMARK>
 VINA RESULT:      -8.0      2.692      5.754
  Name = 
  2 active torsions:
  status: ('A' for Active; 'I' for Inactive)
    1  A    between atoms: C_11  and  C_28
    2  A    between atoms: C_28  and  C_30
                            x       y       z     vdW  Elec       q    Type
                         _______ _______ _______ _____ _____    ______ ____

>  <TORSDO>
F 2

$$$$
=
 OpenBabel11112416213D

 30 35  0  0  1  0  0  0  0  0999 V2000
  188.0400  176.3720  144.6250 C   0  0  0  0  0  0  0  0  0  0  0  0
  186.7680  178.3310  145.4600 C   0  0  0  0  0  0  0  0  0  0  0  0
  186.8350  177.0690  140.7540 N   0  0  0  0  0  2  0  0  0  0  0  0
  188.4800  175.5680  143.5420 C   0  0  0  0  0  0  0  0  0  0  0  0
  188.4720  176.0650  145.9210 O   0  0  0  0  0  0  0  0  0  0  0  0
  190.6220  173.2710  145.3810 O   0  0  0  0  0  0  0  0  0  0  0  0
  189.4680  173.1560  141.7920 C   0  0  1  0  0  3  0  0  0  0  0  0
  189.7760  174.1770  145.1460 C   0  0  0  0  0  0  0  0  0  0  0  0
  188.6980  173.9120  140.7200 C   0  0  2  0  0  3  0  0  0  0  0  0
  187.4460  176.0020  140.1950 C   0  0  0  0  0  0  0  0  0  0  0  0
  189.0030  174.7910  146.2800 C   0  0  1  0  0  3  0  0  0  0  0  0
  189.4840  174.5650  143.7930 N   0  0  0  0  0  0  0  0  0  0  0  0
  185.9420  179.4270  145.1980 C   0  0  0  0  0  3  0  0  0  0  0  0
  189.6090  173.9400  139.5100 C   0  0  0  0  0  2  0  0  0  0  0  0
  190.3750  172.2000  141.0350 C   0  0  0  0  0  2  0  0  0  0  0  0
  187.1390  178.1010  146.7450 F   0  0  0  0  0  0  0  0  0  0  0  0
  187.1850  176.9660  142.0470 C   0  0  0  0  0  0  0  0  0  0  0  0
  185.5300  179.7110  143.8950 C   0  0  0  0  0  3  0  0  0  0  0  0
  187.1980  177.4970  144.4040 C   0  0  0  0  0  0  0  0  0  0  0  0
  187.9930  175.8740  142.2530 C   0  0  0  0  0  0  0  0  0  0  0  0
  187.3120  175.7180  138.9750 O   0  0  0  0  0  0  0  0  0  0  0  0
  188.1750  175.2480  141.0620 N   0  0  0  0  0  0  0  0  0  0  0  0
  190.3870  172.6430  139.5790 C   0  0  0  0  0  2  0  0  0  0  0  0
  191.1680  175.0820  142.0600 C   0  0  0  0  0  1  0  0  0  0  0  0
  185.9410  178.8990  142.8400 C   0  0  0  0  0  3  0  0  0  0  0  0
  186.7720  177.7990  143.0840 C   0  0  0  0  0  0  0  0  0  0  0  0
  190.3090  174.0130  142.7290 C   0  0  2  0  0  3  0  0  0  0  0  0
  189.8210  174.9070  147.5650 C   0  0  0  0  0  2  0  0  0  0  0  0
  192.0850  175.8830  147.3280 C   0  0  0  0  0  1  0  0  0  0  0  0
  190.6290  176.1930  147.6050 C   0  0  0  0  0  2  0  0  0  0  0  0
  1  5  1  0  0  0  0
  2 16  1  0  0  0  0
  3 17  1  0  0  0  0
  4 12  1  0  0  0  0
  4  1  2  0  0  0  0
  5 11  1  0  0  0  0
  7 15  1  6  0  0  0
  7 27  1  0  0  0  0
  8  6  2  0  0  0  0
  8 11  1  0  0  0  0
  9 14  1  6  0  0  0
  9 22  1  0  0  0  0
  9  7  1  0  0  0  0
 10  3  1  0  0  0  0
 10 22  1  0  0  0  0
 11 28  1  1  0  0  0
 12  8  1  0  0  0  0
 13  2  1  0  0  0  0
 14 23  1  0  0  0  0
 17 20  2  0  0  0  0
 17 26  1  0  0  0  0
 18 13  2  0  0  0  0
 19  1  1  0  0  0  0
 19  2  2  0  0  0  0
 20  4  1  0  0  0  0
 21 10  2  0  0  0  0
 22 20  1  0  0  0  0
 23 15  1  0  0  0  0
 25 26  2  0  0  0  0
 25 18  1  0  0  0  0
 26 19  1  0  0  0  0
 27 24  1  6  0  0  0
 27 12  1  0  0  0  0
 28 30  1  0  0  0  0
 29 30  1  0  0  0  0
M  END
>  <MODEL>
4

>  <REMARK>
 VINA RESULT:      -8.0      2.153      5.245
  Name = 
  2 active torsions:
  status: ('A' for Active; 'I' for Inactive)
    1  A    between atoms: C_11  and  C_28
    2  A    between atoms: C_28  and  C_30
                            x       y       z     vdW  Elec       q    Type
                         _______ _______ _______ _____ _____    ______ ____

>  <TORSDO>
F 2

$$$$
=
 OpenBabel11112416213D

 30 35  0  0  1  0  0  0  0  0999 V2000
  189.7650  175.7770  144.2880 C   0  0  0  0  0  0  0  0  0  0  0  0
  191.3360  174.1390  143.2890 C   0  0  0  0  0  0  0  0  0  0  0  0
  187.5780  176.0060  140.8110 N   0  0  0  0  0  2  0  0  0  0  0  0
  188.6000  176.5800  144.1810 C   0  0  0  0  0  0  0  0  0  0  0  0
  190.4740  175.7640  145.4950 O   0  0  0  0  0  0  0  0  0  0  0  0
  188.5250  177.9150  147.5670 O   0  0  0  0  0  0  0  0  0  0  0  0
  186.4730  178.8610  144.5470 C   0  0  1  0  0  3  0  0  0  0  0  0
  188.9340  177.3180  146.5330 C   0  0  0  0  0  0  0  0  0  0  0  0
  186.1780  178.5070  143.0970 C   0  0  2  0  0  3  0  0  0  0  0  0
  186.6940  176.9360  141.2320 C   0  0  0  0  0  0  0  0  0  0  0  0
  190.3370  176.7790  146.4870 C   0  0  1  0  0  3  0  0  0  0  0  0
  188.0970  177.2250  145.3680 N   0  0  0  0  0  0  0  0  0  0  0  0
  191.7240  173.3590  142.1960 C   0  0  0  0  0  3  0  0  0  0  0  0
  184.6690  178.4090  143.0020 C   0  0  0  0  0  2  0  0  0  0  0  0
  185.2550  179.6340  145.0260 C   0  0  0  0  0  2  0  0  0  0  0  0
  192.0800  174.0700  144.4210 F   0  0  0  0  0  0  0  0  0  0  0  0
  188.3500  175.8210  141.8960 C   0  0  0  0  0  0  0  0  0  0  0  0
  190.9950  173.3910  141.0070 C   0  0  0  0  0  3  0  0  0  0  0  0
  190.1960  174.9690  143.2010 C   0  0  0  0  0  0  0  0  0  0  0  0
  187.9310  176.6100  142.9390 C   0  0  0  0  0  0  0  0  0  0  0  0
  185.8180  177.4200  140.4670 O   0  0  0  0  0  0  0  0  0  0  0  0
  186.8560  177.3290  142.5240 N   0  0  0  0  0  0  0  0  0  0  0  0
  184.1500  179.4210  144.0020 C   0  0  0  0  0  2  0  0  0  0  0  0
  185.7270  176.5280  145.3650 C   0  0  0  0  0  1  0  0  0  0  0  0
  189.8690  174.2050  140.8990 C   0  0  0  0  0  3  0  0  0  0  0  0
  189.4640  174.9900  141.9850 C   0  0  0  0  0  0  0  0  0  0  0  0
  186.7200  177.6800  145.4770 C   0  0  2  0  0  3  0  0  0  0  0  0
  190.8210  176.2600  147.8400 C   0  0  0  0  0  2  0  0  0  0  0  0
  191.5460  177.9180  149.5310 C   0  0  0  0  0  1  0  0  0  0  0  0
  191.9980  177.0650  148.3640 C   0  0  0  0  0  2  0  0  0  0  0  0
  1  5  1  0  0  0  0
  2 16  1  0  0  0  0
  3 10  1  0  0  0  0
  3 17  1  0  0  0  0
  4  1  1  0  0  0  0
  4 12  1  0  0  0  0
  5 11  1  0  0  0  0
  7 15  1  1  0  0  0
  7 27  1  0  0  0  0
  8  6  2  0  0  0  0
  9 14  1  1  0  0  0
  9  7  1  0  0  0  0
 10 22  1  0  0  0  0
 11  8  1  0  0  0  0
 11 28  1  1  0  0  0
 12 27  1  0  0  0  0
 12  8  1  0  0  0  0
 13  2  2  0  0  0  0
 14 23  1  0  0  0  0
 17 26  2  0  0  0  0
 17 20  1  0  0  0  0
 18 13  1  0  0  0  0
 19  2  1  0  0  0  0
 19  1  2  0  0  0  0
 20  4  2  0  0  0  0
 21 10  2  0  0  0  0
 22 20  1  0  0  0  0
 22  9  1  0  0  0  0
 23 15  1  0  0  0  0
 25 18  2  0  0  0  0
 25 26  1  0  0  0  0
 26 19  1  0  0  0  0
 27 24  1  6  0  0  0
 28 30  1  0  0  0  0
 30 29  1  0  0  0  0
M  END
>  <MODEL>
5

>  <REMARK>
 VINA RESULT:      -7.9      2.525      7.294
  Name = 
  2 active torsions:
  status: ('A' for Active; 'I' for Inactive)
    1  A    between atoms: C_11  and  C_28
    2  A    between atoms: C_28  and  C_30
                            x       y       z     vdW  Elec       q    Type
                         _______ _______ _______ _____ _____    ______ ____

>  <TORSDO>
F 2

$$$$
=
 OpenBabel11112416213D

 30 35  0  0  1  0  0  0  0  0999 V2000
  185.8360  177.2450  143.9580 C   0  0  0  0  0  0  0  0  0  0  0  0
  184.0900  178.3450  142.5820 C   0  0  0  0  0  0  0  0  0  0  0  0
  187.8170  175.9000  140.6130 N   0  0  0  0  0  2  0  0  0  0  0  0
  187.0490  176.5130  144.0430 C   0  0  0  0  0  0  0  0  0  0  0  0
  185.2030  177.6530  145.1380 O   0  0  0  0  0  0  0  0  0  0  0  0
  187.4300  176.4740  147.6630 O   0  0  0  0  0  0  0  0  0  0  0  0
  189.3570  174.6150  145.0070 C   0  0  1  0  0  3  0  0  0  0  0  0
  186.9150  176.6440  146.5230 C   0  0  0  0  0  0  0  0  0  0  0  0
  189.5350  174.4440  143.5050 C   0  0  2  0  0  3  0  0  0  0  0  0
  188.7910  175.2230  141.2580 C   0  0  0  0  0  0  0  0  0  0  0  0
  185.4760  177.0650  146.4080 C   0  0  1  0  0  3  0  0  0  0  0  0
  187.6690  176.3570  145.3340 N   0  0  0  0  0  0  0  0  0  0  0  0
  183.5790  178.6660  141.3220 C   0  0  0  0  0  3  0  0  0  0  0  0
  191.0240  174.5730  143.2560 C   0  0  0  0  0  2  0  0  0  0  0  0
  190.6550  174.1210  145.6230 C   0  0  0  0  0  2  0  0  0  0  0  0
  183.4140  178.7770  143.6760 F   0  0  0  0  0  0  0  0  0  0  0  0
  187.1010  176.4210  141.6240 C   0  0  0  0  0  0  0  0  0  0  0  0
  184.2340  178.2480  140.1630 C   0  0  0  0  0  3  0  0  0  0  0  0
  185.2800  177.5920  142.6960 C   0  0  0  0  0  0  0  0  0  0  0  0
  187.6410  176.0750  142.8390 C   0  0  0  0  0  0  0  0  0  0  0  0
  189.6520  174.5400  140.6410 O   0  0  0  0  0  0  0  0  0  0  0  0
  188.7380  175.3080  142.6150 N   0  0  0  0  0  0  0  0  0  0  0  0
  191.6770  174.0080  144.5000 C   0  0  0  0  0  2  0  0  0  0  0  0
  189.9770  177.1190  144.8880 C   0  0  0  0  0  1  0  0  0  0  0  0
  185.4090  177.5030  140.2540 C   0  0  0  0  0  3  0  0  0  0  0  0
  185.9360  177.1750  141.5080 C   0  0  0  0  0  0  0  0  0  0  0  0
  189.0810  176.0360  145.4800 C   0  0  2  0  0  3  0  0  0  0  0  0
  185.0390  178.0070  147.5280 C   0  0  0  0  0  2  0  0  0  0  0  0
  186.5910  179.7360  148.3870 C   0  0  0  0  0  1  0  0  0  0  0  0
  185.5680  179.4160  147.3170 C   0  0  0  0  0  2  0  0  0  0  0  0
  1  4  1  0  0  0  0
  1  5  1  0  0  0  0
  2 19  1  0  0  0  0
  2 16  1  0  0  0  0
  3 10  1  0  0  0  0
  3 17  1  0  0  0  0
  4 12  1  0  0  0  0
  5 11  1  0  0  0  0
  7 27  1  0  0  0  0
  7 15  1  1  0  0  0
  8  6  2  0  0  0  0
  9 14  1  1  0  0  0
  9  7  1  0  0  0  0
 10 22  1  0  0  0  0
 11  8  1  0  0  0  0
 11 28  1  1  0  0  0
 12 27  1  0  0  0  0
 12  8  1  0  0  0  0
 13  2  2  0  0  0  0
 14 23  1  0  0  0  0
 17 20  1  0  0  0  0
 18 25  2  0  0  0  0
 18 13  1  0  0  0  0
 19  1  2  0  0  0  0
 20  4  2  0  0  0  0
 21 10  2  0  0  0  0
 22 20  1  0  0  0  0
 22  9  1  0  0  0  0
 23 15  1  0  0  0  0
 25 26  1  0  0  0  0
 26 17  2  0  0  0  0
 26 19  1  0  0  0  0
 27 24  1  6  0  0  0
 30 28  1  0  0  0  0
 30 29  1  0  0  0  0
M  END
>  <MODEL>
6

>  <REMARK>
 VINA RESULT:      -7.8      1.538      4.775
  Name = 
  2 active torsions:
  status: ('A' for Active; 'I' for Inactive)
    1  A    between atoms: C_11  and  C_28
    2  A    between atoms: C_28  and  C_30
                            x       y       z     vdW  Elec       q    Type
                         _______ _______ _______ _____ _____    ______ ____

>  <TORSDO>
F 2

$$$$
=
 OpenBabel11112416213D

 30 35  0  0  1  0  0  0  0  0999 V2000
  187.5870  177.1450  144.2360 C   0  0  0  0  0  0  0  0  0  0  0  0
  185.4370  178.1290  144.9850 C   0  0  0  0  0  0  0  0  0  0  0  0
  189.2590  177.6180  147.9650 N   0  0  0  0  0  2  0  0  0  0  0  0
  188.9060  176.7130  144.5310 C   0  0  0  0  0  0  0  0  0  0  0  0
  187.0880  176.9730  142.9390 O   0  0  0  0  0  0  0  0  0  0  0  0
  189.7890  175.3380  141.2790 O   0  0  0  0  0  0  0  0  0  0  0  0
  191.9450  175.9580  144.3100 C   0  0  1  0  0  3  0  0  0  0  0  0
  189.1480  175.9530  142.1750 C   0  0  0  0  0  0  0  0  0  0  0  0
  191.9280  176.4050  145.7650 C   0  0  2  0  0  3  0  0  0  0  0  0
  190.4860  177.1470  147.6570 C   0  0  0  0  0  0  0  0  0  0  0  0
  187.9290  176.7520  141.8080 C   0  0  1  0  0  3  0  0  0  0  0  0
  189.6250  175.9660  143.5310 N   0  0  0  0  0  0  0  0  0  0  0  0
  184.6610  178.6850  146.0060 C   0  0  0  0  0  3  0  0  0  0  0  0
  192.6890  175.3390  146.5260 C   0  0  0  0  0  2  0  0  0  0  0  0
  193.2220  175.1490  144.1560 C   0  0  0  0  0  2  0  0  0  0  0  0
  184.8790  178.0000  143.7550 F   0  0  0  0  0  0  0  0  0  0  0  0
  188.5930  177.4870  146.8040 C   0  0  0  0  0  0  0  0  0  0  0  0
  185.1840  178.8410  147.2900 C   0  0  0  0  0  3  0  0  0  0  0  0
  186.7630  177.7170  145.2440 C   0  0  0  0  0  0  0  0  0  0  0  0
  189.3970  176.9400  145.8340 C   0  0  0  0  0  0  0  0  0  0  0  0
  191.4320  177.1530  148.4890 O   0  0  0  0  0  0  0  0  0  0  0  0
  190.6210  176.7090  146.3760 N   0  0  0  0  0  0  0  0  0  0  0  0
  193.7380  174.8400  145.5540 C   0  0  0  0  0  2  0  0  0  0  0  0
  190.3590  173.9800  144.8050 C   0  0  0  0  0  1  0  0  0  0  0  0
  186.4910  178.4420  147.5660 C   0  0  0  0  0  3  0  0  0  0  0  0
  187.2810  177.8800  146.5560 C   0  0  0  0  0  0  0  0  0  0  0  0
  190.7570  175.1150  143.8660 C   0  0  2  0  0  3  0  0  0  0  0  0
  187.1240  176.1230  140.6710 C   0  0  0  0  0  2  0  0  0  0  0  0
  185.4980  177.9260  140.1780 C   0  0  0  0  0  1  0  0  0  0  0  0
  186.6920  177.1600  139.6470 C   0  0  0  0  0  2  0  0  0  0  0  0
  1  4  2  0  0  0  0
  1 19  1  0  0  0  0
  2 19  2  0  0  0  0
  2 13  1  0  0  0  0
  4 20  1  0  0  0  0
  5  1  1  0  0  0  0
  6  8  2  0  0  0  0
  7 15  1  1  0  0  0
  7  9  1  0  0  0  0
  8 12  1  0  0  0  0
  9 22  1  0  0  0  0
  9 14  1  1  0  0  0
 10  3  1  0  0  0  0
 10 21  2  0  0  0  0
 11 28  1  6  0  0  0
 11  8  1  0  0  0  0
 11  5  1  0  0  0  0
 12 27  1  0  0  0  0
 12  4  1  0  0  0  0
 13 18  2  0  0  0  0
 15 23  1  0  0  0  0
 16  2  1  0  0  0  0
 17  3  1  0  0  0  0
 18 25  1  0  0  0  0
 19 26  1  0  0  0  0
 20 22  1  0  0  0  0
 20 17  2  0  0  0  0
 22 10  1  0  0  0  0
 23 14  1  0  0  0  0
 26 17  1  0  0  0  0
 26 25  2  0  0  0  0
 27  7  1  0  0  0  0
 27 24  1  1  0  0  0
 30 29  1  0  0  0  0
 30 28  1  0  0  0  0
M  END
>  <MODEL>
7

>  <REMARK>
 VINA RESULT:      -7.8      1.866      2.462
  Name = 
  2 active torsions:
  status: ('A' for Active; 'I' for Inactive)
    1  A    between atoms: C_11  and  C_28
    2  A    between atoms: C_28  and  C_30
                            x       y       z     vdW  Elec       q    Type
                         _______ _______ _______ _____ _____    ______ ____

>  <TORSDO>
F 2

$$$$
=
 OpenBabel11112416213D

 30 35  0  0  1  0  0  0  0  0999 V2000
  189.4240  176.1940  144.0810 C   0  0  0  0  0  0  0  0  0  0  0  0
  189.9040  177.0420  146.3620 C   0  0  0  0  0  0  0  0  0  0  0  0
  192.0460  173.0590  144.5460 N   0  0  0  0  0  2  0  0  0  0  0  0
  189.6160  175.2160  143.0720 C   0  0  0  0  0  0  0  0  0  0  0  0
  188.5320  177.2480  143.8480 O   0  0  0  0  0  0  0  0  0  0  0  0
  187.2680  176.4900  140.5990 O   0  0  0  0  0  0  0  0  0  0  0  0
  189.8470  173.7540  140.3030 C   0  0  1  0  0  3  0  0  0  0  0  0
  187.9860  176.4270  141.6350 C   0  0  0  0  0  0  0  0  0  0  0  0
  190.8770  172.9420  141.0740 C   0  0  2  0  0  3  0  0  0  0  0  0
  191.9020  172.5370  143.3100 C   0  0  0  0  0  0  0  0  0  0  0  0
  188.0970  177.6210  142.5410 C   0  0  1  0  0  3  0  0  0  0  0  0
  188.7650  175.2510  141.9090 N   0  0  0  0  0  0  0  0  0  0  0  0
  190.5870  176.9080  147.5740 C   0  0  0  0  0  3  0  0  0  0  0  0
  190.5780  171.4930  140.7480 C   0  0  0  0  0  2  0  0  0  0  0  0
  189.5070  172.9140  139.0830 C   0  0  0  0  0  2  0  0  0  0  0  0
  189.0600  178.0930  146.2150 F   0  0  0  0  0  0  0  0  0  0  0  0
  191.1970  174.1010  144.5280 C   0  0  0  0  0  0  0  0  0  0  0  0
  191.4680  175.8450  147.7790 C   0  0  0  0  0  3  0  0  0  0  0  0
  190.0990  176.0980  145.3290 C   0  0  0  0  0  0  0  0  0  0  0  0
  190.5550  174.1910  143.3170 C   0  0  0  0  0  0  0  0  0  0  0  0
  192.5850  171.5550  142.9140 O   0  0  0  0  0  0  0  0  0  0  0  0
  190.9960  173.1800  142.5240 N   0  0  0  0  0  0  0  0  0  0  0  0
  190.0510  171.5140  139.3290 C   0  0  0  0  0  2  0  0  0  0  0  0
  187.9260  172.9280  141.8180 C   0  0  0  0  0  1  0  0  0  0  0  0
  191.6750  174.9040  146.7720 C   0  0  0  0  0  3  0  0  0  0  0  0
  190.9970  175.0210  145.5530 C   0  0  0  0  0  0  0  0  0  0  0  0
  188.5680  174.0860  141.0600 C   0  0  2  0  0  3  0  0  0  0  0  0
  186.8020  178.4260  142.6290 C   0  0  0  0  0  2  0  0  0  0  0  0
  185.4430  179.8050  144.1740 C   0  0  0  0  0  1  0  0  0  0  0  0
  186.3340  178.5850  144.0660 C   0  0  0  0  0  2  0  0  0  0  0  0
  1 19  1  0  0  0  0
  2 13  1  0  0  0  0
  4 20  1  0  0  0  0
  4  1  2  0  0  0  0
  5  1  1  0  0  0  0
  6  8  2  0  0  0  0
  7 15  1  6  0  0  0
  7 27  1  0  0  0  0
  7  9  1  0  0  0  0
  8 12  1  0  0  0  0
  8 11  1  0  0  0  0
  9 14  1  1  0  0  0
  9 22  1  0  0  0  0
 10  3  1  0  0  0  0
 11 28  1  1  0  0  0
 11  5  1  0  0  0  0
 12  4  1  0  0  0  0
 13 18  2  0  0  0  0
 15 23  1  0  0  0  0
 16  2  1  0  0  0  0
 17  3  1  0  0  0  0
 17 26  1  0  0  0  0
 19 26  1  0  0  0  0
 19  2  2  0  0  0  0
 20 17  2  0  0  0  0
 21 10  2  0  0  0  0
 22 10  1  0  0  0  0
 22 20  1  0  0  0  0
 23 14  1  0  0  0  0
 25 18  1  0  0  0  0
 26 25  2  0  0  0  0
 27 24  1  1  0  0  0
 27 12  1  0  0  0  0
 28 30  1  0  0  0  0
 30 29  1  0  0  0  0
M  END
>  <MODEL>
8

>  <REMARK>
 VINA RESULT:      -7.7      2.631      4.147
  Name = 
  2 active torsions:
  status: ('A' for Active; 'I' for Inactive)
    1  A    between atoms: C_11  and  C_28
    2  A    between atoms: C_28  and  C_30
                            x       y       z     vdW  Elec       q    Type
                         _______ _______ _______ _____ _____    ______ ____

>  <TORSDO>
F 2

$$$$
=
 OpenBabel11112416213D

 30 35  0  0  1  0  0  0  0  0999 V2000
  187.7490  176.0800  143.1610 C   0  0  0  0  0  0  0  0  0  0  0  0
  185.5670  177.2580  143.2260 C   0  0  0  0  0  0  0  0  0  0  0  0
  188.8050  177.5450  146.8570 N   0  0  0  0  0  2  0  0  0  0  0  0
  188.9720  175.7300  143.7890 C   0  0  0  0  0  0  0  0  0  0  0  0
  187.4620  175.5630  141.8920 O   0  0  0  0  0  0  0  0  0  0  0  0
  190.2980  173.5000  141.2370 O   0  0  0  0  0  0  0  0  0  0  0  0
  191.9550  174.9070  144.3190 C   0  0  1  0  0  3  0  0  0  0  0  0
  189.5560  174.3460  141.8070 C   0  0  0  0  0  0  0  0  0  0  0  0
  191.7250  175.7390  145.5720 C   0  0  2  0  0  3  0  0  0  0  0  0
  190.0360  176.9920  146.9090 C   0  0  0  0  0  0  0  0  0  0  0  0
  188.4640  175.0270  141.0290 C   0  0  1  0  0  3  0  0  0  0  0  0
  189.8010  174.7270  143.1700 N   0  0  0  0  0  0  0  0  0  0  0  0
  184.6680  178.0840  143.9070 C   0  0  0  0  0  3  0  0  0  0  0  0
  192.2840  174.9160  146.7140 C   0  0  0  0  0  2  0  0  0  0  0  0
  193.1900  174.0710  144.6150 C   0  0  0  0  0  2  0  0  0  0  0  0
  185.2140  176.8010  141.9990 F   0  0  0  0  0  0  0  0  0  0  0  0
  188.3340  177.1060  145.6770 C   0  0  0  0  0  0  0  0  0  0  0  0
  184.9790  178.5820  145.1730 C   0  0  0  0  0  3  0  0  0  0  0  0
  186.8050  176.9180  143.8170 C   0  0  0  0  0  0  0  0  0  0  0  0
  189.2540  176.3030  145.0480 C   0  0  0  0  0  0  0  0  0  0  0  0
  190.8300  177.2170  147.8610 O   0  0  0  0  0  0  0  0  0  0  0  0
  190.3550  176.2160  145.8380 N   0  0  0  0  0  0  0  0  0  0  0  0
  193.4470  174.1550  146.1120 C   0  0  0  0  0  2  0  0  0  0  0  0
  190.1940  173.1620  145.0420 C   0  0  0  0  0  1  0  0  0  0  0  0
  186.1960  178.2600  145.7710 C   0  0  0  0  0  3  0  0  0  0  0  0
  187.1070  177.4310  145.1050 C   0  0  0  0  0  0  0  0  0  0  0  0
  190.8080  173.9890  143.9160 C   0  0  2  0  0  3  0  0  0  0  0  0
  187.8230  174.1190  139.9810 C   0  0  0  0  0  2  0  0  0  0  0  0
  188.9670  173.4270  137.8960 C   0  0  0  0  0  1  0  0  0  0  0  0
  188.1910  174.5410  138.5680 C   0  0  0  0  0  2  0  0  0  0  0  0
  1  4  2  0  0  0  0
  1 19  1  0  0  0  0
  2 19  2  0  0  0  0
  2 13  1  0  0  0  0
  3 10  1  0  0  0  0
  4 20  1  0  0  0  0
  5  1  1  0  0  0  0
  6  8  2  0  0  0  0
  7 15  1  1  0  0  0
  7  9  1  0  0  0  0
  8 12  1  0  0  0  0
  9 22  1  0  0  0  0
  9 14  1  1  0  0  0
 10 21  2  0  0  0  0
 11 28  1  6  0  0  0
 11  8  1  0  0  0  0
 11  5  1  0  0  0  0
 12  4  1  0  0  0  0
 12 27  1  0  0  0  0
 13 18  2  0  0  0  0
 15 23  1  0  0  0  0
 16  2  1  0  0  0  0
 17  3  1  0  0  0  0
 18 25  1  0  0  0  0
 19 26  1  0  0  0  0
 20 17  2  0  0  0  0
 20 22  1  0  0  0  0
 22 10  1  0  0  0  0
 23 14  1  0  0  0  0
 26 17  1  0  0  0  0
 26 25  2  0  0  0  0
 27  7  1  0  0  0  0
 27 24  1  1  0  0  0
 29 30  1  0  0  0  0
 30 28  1  0  0  0  0
M  END
>  <MODEL>
9

>  <REMARK>
 VINA RESULT:      -7.7      2.125      3.289
  Name = 
  2 active torsions:
  status: ('A' for Active; 'I' for Inactive)
    1  A    between atoms: C_11  and  C_28
    2  A    between atoms: C_28  and  C_30
                            x       y       z     vdW  Elec       q    Type
                         _______ _______ _______ _____ _____    ______ ____

>  <TORSDO>
F 2

$$$$
