=
 OpenBabel11112417383D

 28 32  0  0  1  0  0  0  0  0999 V2000
  189.8920  175.1580  146.9240 C   0  0  0  0  0  0  0  0  0  0  0  0
  185.2370  175.8660  145.5350 F   0  0  0  0  0  0  0  0  0  0  0  0
  190.7800  177.9860  142.9680 C   0  0  0  0  0  1  0  0  0  0  0  0
  190.8410  177.6390  147.8210 C   0  0  0  0  0  3  0  0  0  0  0  0
  188.3680  177.7060  142.5890 C   0  0  0  0  0  0  0  0  0  0  0  0
  189.4580  173.8270  146.3830 C   0  0  0  0  0  2  0  0  0  0  0  0
  185.4180  176.7440  147.6110 O   0  0  0  0  0  1  0  0  0  0  0  0
  185.5480  177.0140  146.2490 C   0  0  1  0  0  0  0  0  0  0  0  0
  184.8400  178.5290  144.4330 C   0  0  1  0  0  3  0  0  0  0  0  0
  186.9920  177.4770  145.9630 C   0  0  2  0  0  3  0  0  0  0  0  0
  192.0520  174.4780  144.1900 O   0  0  0  0  0  0  0  0  0  0  0  0
  188.1120  176.0840  144.2510 C   0  0  1  0  0  3  0  0  0  0  0  0
  186.0900  179.1710  144.3660 O   0  0  0  0  0  0  0  0  0  0  0  0
  184.5560  178.1000  145.8660 C   0  0  0  0  0  2  0  0  0  0  0  0
  190.8790  174.1690  144.3210 C   0  0  0  0  0  0  0  0  0  0  0  0
  189.1850  176.3380  146.6000 C   0  0  0  0  0  0  0  0  0  0  0  0
  189.6600  176.9960  142.7010 C   0  0  2  0  0  3  0  0  0  0  0  0
  183.7590  179.4830  143.9720 C   0  0  0  0  0  1  0  0  0  0  0  0
  189.8540  174.7530  143.4040 C   0  0  0  0  0  2  0  0  0  0  0  0
  189.6840  177.5750  147.0420 C   0  0  0  0  0  3  0  0  0  0  0  0
  191.0460  175.2330  147.7140 C   0  0  0  0  0  3  0  0  0  0  0  0
  191.5170  176.4680  148.1640 C   0  0  0  0  0  3  0  0  0  0  0  0
  190.4830  173.2230  145.4160 C   0  0  0  0  0  2  0  0  0  0  0  0
  187.3720  177.2190  143.5540 C   0  0  1  0  0  3  0  0  0  0  0  0
  189.5280  176.1000  143.8490 N   0  0  2  0  0  0  0  0  0  0  0  0
  187.1270  178.2460  144.6440 C   0  0  2  0  0  3  0  0  0  0  0  0
  188.1340  178.5630  141.7520 O   0  0  0  0  0  0  0  0  0  0  0  0
  187.9140  176.2710  145.7740 C   0  0  1  0  0  3  0  0  0  0  0  0
  1 21  1  0  0  0  0
  4 22  1  0  0  0  0
  5 17  1  0  0  0  0
  5 24  1  0  0  0  0
  6  1  1  0  0  0  0
  8  2  1  6  0  0  0
  8  7  1  0  0  0  0
  9 18  1  1  0  0  0
  9 14  1  0  0  0  0
 10  8  1  0  0  0  0
 11 15  2  0  0  0  0
 12 28  1  0  0  0  0
 13  9  1  0  0  0  0
 13 26  1  0  0  0  0
 14  8  1  0  0  0  0
 15 23  1  0  0  0  0
 16  1  2  0  0  0  0
 16 20  1  0  0  0  0
 17  3  1  0  0  0  0
 17 25  1  0  0  0  0
 19 25  1  0  0  0  0
 19 15  1  0  0  0  0
 20  4  2  0  0  0  0
 21 22  2  0  0  0  0
 23  6  1  0  0  0  0
 24 12  1  0  0  0  0
 24 26  1  0  0  0  0
 25 12  1  0  0  0  0
 26 10  1  0  0  0  0
 27  5  2  0  0  0  0
 28 10  1  0  0  0  0
 28 16  1  0  0  0  0
M  END
>  <MODEL>
1

>  <REMARK>
 VINA RESULT:      -8.7      0.000      0.000
  Name = 
  0 active torsions:
  status: ('A' for Active; 'I' for Inactive)
                            x       y       z     vdW  Elec       q    Type
                         _______ _______ _______ _____ _____    ______ ____

>  <TORSDO>
F 0

$$$$
=
 OpenBabel11112417383D

 28 32  0  0  1  0  0  0  0  0999 V2000
  191.1040  174.8990  142.6440 C   0  0  0  0  0  0  0  0  0  0  0  0
  187.9640  178.6310  142.0910 F   0  0  0  0  0  0  0  0  0  0  0  0
  189.0330  174.7210  147.1290 C   0  0  0  0  0  1  0  0  0  0  0  0
  189.5530  172.5690  142.7960 C   0  0  0  0  0  3  0  0  0  0  0  0
  187.9650  176.8100  146.3980 C   0  0  0  0  0  0  0  0  0  0  0  0
  191.9750  176.1220  142.6470 C   0  0  0  0  0  2  0  0  0  0  0  0
  187.4030  177.0950  140.5290 O   0  0  0  0  0  1  0  0  0  0  0  0
  187.1900  177.5070  141.8440 C   0  0  1  0  0  0  0  0  0  0  0  0
  185.4590  178.1400  143.4860 C   0  0  1  0  0  3  0  0  0  0  0  0
  187.5590  176.3520  142.8000 C   0  0  2  0  0  3  0  0  0  0  0  0
  192.7230  174.9240  145.8040 O   0  0  0  0  0  0  0  0  0  0  0  0
  189.2640  177.0110  144.4670 C   0  0  1  0  0  3  0  0  0  0  0  0
  185.5820  176.9380  144.2080 O   0  0  0  0  0  0  0  0  0  0  0  0
  185.7270  177.8870  142.0100 C   0  0  0  0  0  2  0  0  0  0  0  0
  192.3630  175.8770  145.1330 C   0  0  0  0  0  0  0  0  0  0  0  0
  189.7180  174.9950  142.8970 C   0  0  0  0  0  0  0  0  0  0  0  0
  189.2590  176.1540  146.6800 C   0  0  2  0  0  3  0  0  0  0  0  0
  184.0580  178.6860  143.6560 C   0  0  0  0  0  1  0  0  0  0  0  0
  191.2850  176.7750  145.6450 C   0  0  0  0  0  2  0  0  0  0  0  0
  188.9580  173.8170  142.9880 C   0  0  0  0  0  3  0  0  0  0  0  0
  191.6900  173.6420  142.4440 C   0  0  0  0  0  3  0  0  0  0  0  0
  190.9170  172.4810  142.5150 C   0  0  0  0  0  3  0  0  0  0  0  0
  192.9940  176.1160  143.7930 C   0  0  0  0  0  2  0  0  0  0  0  0
  187.8830  177.3280  145.0260 C   0  0  1  0  0  3  0  0  0  0  0  0
  189.9910  176.1500  145.4140 N   0  0  2  0  0  0  0  0  0  0  0  0
  186.9280  176.4960  144.1890 C   0  0  2  0  0  3  0  0  0  0  0  0
  187.0820  176.9560  147.2290 O   0  0  0  0  0  0  0  0  0  0  0  0
  189.0620  176.3500  143.0830 C   0  0  1  0  0  3  0  0  0  0  0  0
  1  6  1  0  0  0  0
  1 16  1  0  0  0  0
  4 20  1  0  0  0  0
  5 17  1  0  0  0  0
  5 27  2  0  0  0  0
  6 23  1  0  0  0  0
  8  7  1  6  0  0  0
  8 14  1  0  0  0  0
  8  2  1  0  0  0  0
  8 10  1  0  0  0  0
  9 18  1  6  0  0  0
  9 13  1  0  0  0  0
 10 28  1  0  0  0  0
 10 26  1  0  0  0  0
 12 24  1  0  0  0  0
 12 25  1  0  0  0  0
 14  9  1  0  0  0  0
 15 19  1  0  0  0  0
 15 11  2  0  0  0  0
 16 20  2  0  0  0  0
 16 28  1  0  0  0  0
 17  3  1  0  0  0  0
 21 22  1  0  0  0  0
 21  1  2  0  0  0  0
 22  4  2  0  0  0  0
 23 15  1  0  0  0  0
 24  5  1  0  0  0  0
 25 19  1  0  0  0  0
 25 17  1  0  0  0  0
 26 13  1  0  0  0  0
 26 24  1  0  0  0  0
 28 12  1  0  0  0  0
M  END
>  <MODEL>
2

>  <REMARK>
 VINA RESULT:      -8.6      1.969      4.294
  Name = 
  0 active torsions:
  status: ('A' for Active; 'I' for Inactive)
                            x       y       z     vdW  Elec       q    Type
                         _______ _______ _______ _____ _____    ______ ____

>  <TORSDO>
F 0

$$$$
=
 OpenBabel11112417383D

 28 32  0  0  1  0  0  0  0  0999 V2000
  189.3030  176.9550  145.1280 C   0  0  0  0  0  0  0  0  0  0  0  0
  194.1520  176.4470  144.5540 F   0  0  0  0  0  0  0  0  0  0  0  0
  189.3160  172.2840  143.5090 C   0  0  0  0  0  1  0  0  0  0  0  0
  188.5760  175.2910  147.2630 C   0  0  0  0  0  3  0  0  0  0  0  0
  191.7000  172.7340  143.1170 C   0  0  0  0  0  0  0  0  0  0  0  0
  189.6270  177.8010  143.9300 C   0  0  0  0  0  2  0  0  0  0  0  0
  193.8160  176.8790  146.7490 O   0  0  0  0  0  1  0  0  0  0  0  0
  193.9030  175.8700  145.7900 C   0  0  1  0  0  0  0  0  0  0  0  0
  195.0330  173.7530  145.2090 C   0  0  1  0  0  3  0  0  0  0  0  0
  192.5810  175.0720  145.7780 C   0  0  2  0  0  3  0  0  0  0  0  0
  187.4510  175.5670  142.4360 O   0  0  0  0  0  0  0  0  0  0  0  0
  191.5240  175.0250  143.5410 C   0  0  1  0  0  3  0  0  0  0  0  0
  193.8970  172.9710  145.4850 O   0  0  0  0  0  0  0  0  0  0  0  0
  195.0690  174.9580  146.1380 C   0  0  0  0  0  2  0  0  0  0  0  0
  188.5460  176.1040  142.4010 C   0  0  0  0  0  0  0  0  0  0  0  0
  190.1940  175.9510  145.5680 C   0  0  0  0  0  0  0  0  0  0  0  0
  190.3240  173.1340  142.7550 C   0  0  2  0  0  3  0  0  0  0  0  0
  196.2790  172.9210  145.4190 C   0  0  0  0  0  1  0  0  0  0  0  0
  189.7490  175.3010  142.0250 C   0  0  0  0  0  2  0  0  0  0  0  0
  189.8060  175.1130  146.6280 C   0  0  0  0  0  3  0  0  0  0  0  0
  188.0750  177.1310  145.7770 C   0  0  0  0  0  3  0  0  0  0  0  0
  187.7130  176.3050  146.8430 C   0  0  0  0  0  3  0  0  0  0  0  0
  188.6680  177.5550  142.7590 C   0  0  0  0  0  2  0  0  0  0  0  0
  192.4890  173.8520  143.6530 C   0  0  1  0  0  3  0  0  0  0  0  0
  190.1870  174.5270  143.1770 N   0  0  2  0  0  0  0  0  0  0  0  0
  192.7210  173.6840  145.1440 C   0  0  2  0  0  3  0  0  0  0  0  0
  192.1510  171.6140  142.9380 O   0  0  0  0  0  0  0  0  0  0  0  0
  191.5420  175.7690  144.8970 C   0  0  1  0  0  3  0  0  0  0  0  0
  1 16  2  0  0  0  0
  1 21  1  0  0  0  0
  5 24  1  0  0  0  0
  6  1  1  0  0  0  0
  8  2  1  6  0  0  0
  8 14  1  0  0  0  0
  8  7  1  0  0  0  0
  9 18  1  1  0  0  0
  9 13  1  0  0  0  0
  9 14  1  0  0  0  0
 10  8  1  0  0  0  0
 12 24  1  0  0  0  0
 12 28  1  0  0  0  0
 15 11  2  0  0  0  0
 15 23  1  0  0  0  0
 16 20  1  0  0  0  0
 17  5  1  0  0  0  0
 17 25  1  0  0  0  0
 17  3  1  0  0  0  0
 19 15  1  0  0  0  0
 19 25  1  0  0  0  0
 20  4  2  0  0  0  0
 21 22  2  0  0  0  0
 22  4  1  0  0  0  0
 23  6  1  0  0  0  0
 24 26  1  0  0  0  0
 25 12  1  0  0  0  0
 26 13  1  0  0  0  0
 26 10  1  0  0  0  0
 27  5  2  0  0  0  0
 28 16  1  0  0  0  0
 28 10  1  0  0  0  0
M  END
>  <MODEL>
3

>  <REMARK>
 VINA RESULT:      -8.4      3.064      6.638
  Name = 
  0 active torsions:
  status: ('A' for Active; 'I' for Inactive)
                            x       y       z     vdW  Elec       q    Type
                         _______ _______ _______ _____ _____    ______ ____

>  <TORSDO>
F 0

$$$$
=
 OpenBabel11112417383D

 28 32  0  0  1  0  0  0  0  0999 V2000
  191.7150  174.1350  142.9340 C   0  0  0  0  0  0  0  0  0  0  0  0
  188.9060  178.0730  142.1010 F   0  0  0  0  0  0  0  0  0  0  0  0
  190.9400  175.4320  147.6410 C   0  0  0  0  0  1  0  0  0  0  0  0
  190.0540  172.2060  144.1080 C   0  0  0  0  0  3  0  0  0  0  0  0
  189.9130  177.4170  146.6200 C   0  0  0  0  0  0  0  0  0  0  0  0
  192.6640  175.1590  142.3820 C   0  0  0  0  0  2  0  0  0  0  0  0
  187.7980  176.3080  141.2210 O   0  0  0  0  0  1  0  0  0  0  0  0
  187.9910  177.0670  142.3760 C   0  0  1  0  0  0  0  0  0  0  0  0
  186.8420  178.3680  144.1310 C   0  0  1  0  0  3  0  0  0  0  0  0
  188.4980  176.1440  143.5050 C   0  0  2  0  0  3  0  0  0  0  0  0
  194.1300  174.6860  145.4780 O   0  0  0  0  0  0  0  0  0  0  0  0
  190.6480  176.9110  144.4610 C   0  0  1  0  0  3  0  0  0  0  0  0
  187.0450  177.3820  145.1140 O   0  0  0  0  0  0  0  0  0  0  0  0
  186.6720  177.7110  142.7690 C   0  0  0  0  0  2  0  0  0  0  0  0
  193.6910  175.4860  144.6680 C   0  0  0  0  0  0  0  0  0  0  0  0
  190.4660  174.5190  143.4700 C   0  0  0  0  0  0  0  0  0  0  0  0
  191.1670  176.6490  146.7620 C   0  0  2  0  0  3  0  0  0  0  0  0
  185.5980  179.1610  144.4650 C   0  0  0  0  0  1  0  0  0  0  0  0
  192.8820  176.6490  145.1430 C   0  0  0  0  0  2  0  0  0  0  0  0
  189.6530  173.5420  144.0710 C   0  0  0  0  0  3  0  0  0  0  0  0
  192.1040  172.7900  142.9680 C   0  0  0  0  0  3  0  0  0  0  0  0
  191.2750  171.8280  143.5490 C   0  0  0  0  0  3  0  0  0  0  0  0
  193.9510  175.2740  143.2060 C   0  0  0  0  0  2  0  0  0  0  0  0
  189.5080  177.5800  145.2170 C   0  0  1  0  0  3  0  0  0  0  0  0
  191.5220  176.2070  145.4140 N   0  0  2  0  0  0  0  0  0  0  0  0
  188.2880  176.7340  144.9030 C   0  0  2  0  0  3  0  0  0  0  0  0
  189.3080  177.9100  147.5590 O   0  0  0  0  0  0  0  0  0  0  0  0
  190.0150  175.9660  143.4120 C   0  0  1  0  0  3  0  0  0  0  0  0
  1 21  2  0  0  0  0
  1 16  1  0  0  0  0
  2  8  1  0  0  0  0
  5 17  1  0  0  0  0
  5 27  2  0  0  0  0
  6  1  1  0  0  0  0
  6 23  1  0  0  0  0
  8  7  1  6  0  0  0
  8 14  1  0  0  0  0
  8 10  1  0  0  0  0
  9 18  1  1  0  0  0
  9 13  1  0  0  0  0
 10 26  1  0  0  0  0
 12 24  1  0  0  0  0
 12 25  1  0  0  0  0
 14  9  1  0  0  0  0
 15 19  1  0  0  0  0
 15 11  2  0  0  0  0
 16 20  2  0  0  0  0
 17  3  1  0  0  0  0
 19 25  1  0  0  0  0
 20  4  1  0  0  0  0
 21 22  1  0  0  0  0
 22  4  2  0  0  0  0
 23 15  1  0  0  0  0
 24  5  1  0  0  0  0
 25 17  1  0  0  0  0
 26 13  1  0  0  0  0
 26 24  1  0  0  0  0
 28 16  1  0  0  0  0
 28 10  1  0  0  0  0
 28 12  1  0  0  0  0
M  END
>  <MODEL>
4

>  <REMARK>
 VINA RESULT:      -8.3      2.272      4.344
  Name = 
  0 active torsions:
  status: ('A' for Active; 'I' for Inactive)
                            x       y       z     vdW  Elec       q    Type
                         _______ _______ _______ _____ _____    ______ ____

>  <TORSDO>
F 0

$$$$
=
 OpenBabel11112417383D

 28 32  0  0  1  0  0  0  0  0999 V2000
  190.2930  175.6830  145.5390 C   0  0  0  0  0  0  0  0  0  0  0  0
  185.7690  176.7360  143.9520 F   0  0  0  0  0  0  0  0  0  0  0  0
  190.8520  174.2120  140.8530 C   0  0  0  0  0  1  0  0  0  0  0  0
  192.0240  177.4810  144.2610 C   0  0  0  0  0  3  0  0  0  0  0  0
  188.4310  174.6170  140.7430 C   0  0  0  0  0  0  0  0  0  0  0  0
  189.4210  174.6480  146.1880 C   0  0  0  0  0  2  0  0  0  0  0  0
  186.6720  178.6950  144.6330 O   0  0  0  0  0  1  0  0  0  0  0  0
  186.5230  177.8290  143.5500 C   0  0  1  0  0  0  0  0  0  0  0  0
  185.7900  177.6740  141.1980 C   0  0  1  0  0  3  0  0  0  0  0  0
  187.9200  177.3930  143.0580 C   0  0  2  0  0  3  0  0  0  0  0  0
  191.4680  172.5490  144.3550 O   0  0  0  0  0  0  0  0  0  0  0  0
  188.1960  174.9340  143.0460 C   0  0  1  0  0  3  0  0  0  0  0  0
  187.1040  177.5720  140.7060 O   0  0  0  0  0  0  0  0  0  0  0  0
  185.7720  178.5500  142.4430 C   0  0  0  0  0  2  0  0  0  0  0  0
  190.3250  172.8690  144.6380 C   0  0  0  0  0  0  0  0  0  0  0  0
  189.8460  176.4030  144.4090 C   0  0  0  0  0  0  0  0  0  0  0  0
  189.4890  173.8200  141.3980 C   0  0  2  0  0  3  0  0  0  0  0  0
  184.9030  178.2910  140.1380 C   0  0  0  0  0  1  0  0  0  0  0  0
  189.2850  172.9170  143.5660 C   0  0  0  0  0  2  0  0  0  0  0  0
  190.7320  177.2870  143.7690 C   0  0  0  0  0  3  0  0  0  0  0  0
  191.5880  175.8920  146.0300 C   0  0  0  0  0  3  0  0  0  0  0  0
  192.4490  176.7900  145.3970 C   0  0  0  0  0  3  0  0  0  0  0  0
  189.9890  173.2310  146.0550 C   0  0  0  0  0  2  0  0  0  0  0  0
  187.6150  175.3700  141.7070 C   0  0  1  0  0  3  0  0  0  0  0  0
  189.4260  174.1570  142.8190 N   0  0  2  0  0  0  0  0  0  0  0  0
  187.9120  176.8560  141.6230 C   0  0  2  0  0  3  0  0  0  0  0  0
  188.2190  174.6080  139.5410 O   0  0  0  0  0  0  0  0  0  0  0  0
  188.4360  176.2130  143.8830 C   0  0  1  0  0  3  0  0  0  0  0  0
  1 21  1  0  0  0  0
  1  6  1  0  0  0  0
  3 17  1  0  0  0  0
  4 22  1  0  0  0  0
  5 17  1  0  0  0  0
  5 24  1  0  0  0  0
  8  2  1  1  0  0  0
  8  7  1  0  0  0  0
  9 18  1  6  0  0  0
  9 14  1  0  0  0  0
 10  8  1  0  0  0  0
 10 28  1  0  0  0  0
 11 15  2  0  0  0  0
 12 28  1  0  0  0  0
 13  9  1  0  0  0  0
 13 26  1  0  0  0  0
 14  8  1  0  0  0  0
 15 23  1  0  0  0  0
 16  1  2  0  0  0  0
 17 25  1  0  0  0  0
 19 15  1  0  0  0  0
 20  4  2  0  0  0  0
 20 16  1  0  0  0  0
 22 21  2  0  0  0  0
 23  6  1  0  0  0  0
 24 12  1  0  0  0  0
 25 12  1  0  0  0  0
 25 19  1  0  0  0  0
 26 24  1  0  0  0  0
 26 10  1  0  0  0  0
 27  5  2  0  0  0  0
 28 16  1  0  0  0  0
M  END
>  <MODEL>
5

>  <REMARK>
 VINA RESULT:      -7.8      2.161      2.970
  Name = 
  0 active torsions:
  status: ('A' for Active; 'I' for Inactive)
                            x       y       z     vdW  Elec       q    Type
                         _______ _______ _______ _____ _____    ______ ____

>  <TORSDO>
F 0

$$$$
=
 OpenBabel11112417383D

 28 32  0  0  1  0  0  0  0  0999 V2000
  190.7750  175.3260  143.6510 C   0  0  0  0  0  0  0  0  0  0  0  0
  187.1480  175.7830  146.9260 F   0  0  0  0  0  0  0  0  0  0  0  0
  187.4130  177.3800  140.6660 C   0  0  0  0  0  1  0  0  0  0  0  0
  191.6270  177.9250  143.0370 C   0  0  0  0  0  3  0  0  0  0  0  0
  185.9250  177.0440  142.5930 C   0  0  0  0  0  0  0  0  0  0  0  0
  190.3060  173.9190  143.8850 C   0  0  0  0  0  2  0  0  0  0  0  0
  188.8680  177.0260  147.7100 O   0  0  0  0  0  1  0  0  0  0  0  0
  187.7320  177.0410  146.9010 C   0  0  1  0  0  0  0  0  0  0  0  0
  185.5950  178.2020  146.4760 C   0  0  1  0  0  3  0  0  0  0  0  0
  188.1400  177.4390  145.4670 C   0  0  2  0  0  3  0  0  0  0  0  0
  189.6390  174.1500  140.5000 O   0  0  0  0  0  0  0  0  0  0  0  0
  187.4630  175.7530  143.7870 C   0  0  1  0  0  3  0  0  0  0  0  0
  186.0640  178.8160  145.3000 O   0  0  0  0  0  0  0  0  0  0  0  0
  186.7380  178.0430  147.4680 C   0  0  0  0  0  2  0  0  0  0  0  0
  189.2100  173.8740  141.6080 C   0  0  0  0  0  0  0  0  0  0  0  0
  189.9610  176.4290  143.9920 C   0  0  0  0  0  0  0  0  0  0  0  0
  186.7780  176.3620  141.5980 C   0  0  2  0  0  3  0  0  0  0  0  0
  184.5110  179.0590  147.0920 C   0  0  0  0  0  1  0  0  0  0  0  0
  187.8250  174.2850  141.9870 C   0  0  0  0  0  2  0  0  0  0  0  0
  190.3940  177.7240  143.6610 C   0  0  0  0  0  3  0  0  0  0  0  0
  192.0150  175.5400  143.0340 C   0  0  0  0  0  3  0  0  0  0  0  0
  192.4410  176.8340  142.7320 C   0  0  0  0  0  3  0  0  0  0  0  0
  190.0910  173.1450  142.5800 C   0  0  0  0  0  2  0  0  0  0  0  0
  186.3220  176.7450  143.9760 C   0  0  1  0  0  3  0  0  0  0  0  0
  187.8290  175.6910  142.3620 N   0  0  2  0  0  0  0  0  0  0  0  0
  186.9660  177.9540  144.6280 C   0  0  2  0  0  3  0  0  0  0  0  0
  184.9610  177.7350  142.3010 O   0  0  0  0  0  0  0  0  0  0  0  0
  188.6310  176.2170  144.6900 C   0  0  1  0  0  3  0  0  0  0  0  0
  1  6  1  0  0  0  0
  1 16  1  0  0  0  0
  3 17  1  0  0  0  0
  4 20  1  0  0  0  0
  5 24  1  0  0  0  0
  8  2  1  6  0  0  0
  8 14  1  0  0  0  0
  8  7  1  0  0  0  0
  9 18  1  1  0  0  0
  9 14  1  0  0  0  0
 10  8  1  0  0  0  0
 11 15  2  0  0  0  0
 12 24  1  0  0  0  0
 12 28  1  0  0  0  0
 13  9  1  0  0  0  0
 15 19  1  0  0  0  0
 15 23  1  0  0  0  0
 16 28  1  0  0  0  0
 17 25  1  0  0  0  0
 17  5  1  0  0  0  0
 19 25  1  0  0  0  0
 20 16  2  0  0  0  0
 21  1  2  0  0  0  0
 22 21  1  0  0  0  0
 22  4  2  0  0  0  0
 23  6  1  0  0  0  0
 24 26  1  0  0  0  0
 25 12  1  0  0  0  0
 26 13  1  0  0  0  0
 26 10  1  0  0  0  0
 27  5  2  0  0  0  0
 28 10  1  0  0  0  0
M  END
>  <MODEL>
6

>  <REMARK>
 VINA RESULT:      -7.8      2.326      3.053
  Name = 
  0 active torsions:
  status: ('A' for Active; 'I' for Inactive)
                            x       y       z     vdW  Elec       q    Type
                         _______ _______ _______ _____ _____    ______ ____

>  <TORSDO>
F 0

$$$$
=
 OpenBabel11112417383D

 28 32  0  0  1  0  0  0  0  0999 V2000
  194.2780  173.8670  144.9540 C   0  0  0  0  0  0  0  0  0  0  0  0
  190.4150  175.1100  147.7160 F   0  0  0  0  0  0  0  0  0  0  0  0
  190.8730  173.9520  141.3710 C   0  0  0  0  0  1  0  0  0  0  0  0
  194.8110  176.0640  143.2960 C   0  0  0  0  0  3  0  0  0  0  0  0
  189.3200  174.2380  143.2540 C   0  0  0  0  0  0  0  0  0  0  0  0
  193.9860  172.6360  145.7630 C   0  0  0  0  0  2  0  0  0  0  0  0
  191.8980  176.8080  147.9020 O   0  0  0  0  0  1  0  0  0  0  0  0
  190.8250  176.3130  147.1600 C   0  0  1  0  0  0  0  0  0  0  0  0
  188.5850  176.8550  146.2770 C   0  0  1  0  0  3  0  0  0  0  0  0
  191.2700  176.1280  145.6930 C   0  0  2  0  0  3  0  0  0  0  0  0
  193.5170  171.3230  142.5980 O   0  0  0  0  0  0  0  0  0  0  0  0
  190.9360  173.8130  144.8870 C   0  0  1  0  0  3  0  0  0  0  0  0
  189.0430  176.9820  144.9530 O   0  0  0  0  0  0  0  0  0  0  0  0
  189.6710  177.3000  147.2450 C   0  0  0  0  0  2  0  0  0  0  0  0
  193.0580  171.4760  143.7180 C   0  0  0  0  0  0  0  0  0  0  0  0
  193.3020  174.8760  144.7920 C   0  0  0  0  0  0  0  0  0  0  0  0
  190.3210  173.3360  142.6460 C   0  0  2  0  0  3  0  0  0  0  0  0
  187.3570  177.7200  146.4690 C   0  0  0  0  0  1  0  0  0  0  0  0
  191.6080  171.7960  143.8830 C   0  0  0  0  0  2  0  0  0  0  0  0
  193.5780  175.9610  143.9430 C   0  0  0  0  0  3  0  0  0  0  0  0
  195.5150  173.9850  144.3080 C   0  0  0  0  0  3  0  0  0  0  0  0
  195.7830  175.0800  143.4850 C   0  0  0  0  0  3  0  0  0  0  0  0
  193.9640  171.3630  144.9090 C   0  0  0  0  0  2  0  0  0  0  0  0
  189.6630  174.6090  144.6350 C   0  0  1  0  0  3  0  0  0  0  0  0
  191.3990  173.2130  143.6250 N   0  0  2  0  0  0  0  0  0  0  0  0
  190.0940  176.0620  144.7130 C   0  0  2  0  0  3  0  0  0  0  0  0
  188.2940  174.5900  142.6950 O   0  0  0  0  0  0  0  0  0  0  0  0
  191.9700  174.7810  145.5110 C   0  0  1  0  0  3  0  0  0  0  0  0
  1  6  1  0  0  0  0
  3 17  1  0  0  0  0
  4 22  2  0  0  0  0
  4 20  1  0  0  0  0
  5 24  1  0  0  0  0
  8 14  1  0  0  0  0
  8  2  1  1  0  0  0
  8  7  1  0  0  0  0
  9 18  1  6  0  0  0
  9 14  1  0  0  0  0
 10  8  1  0  0  0  0
 11 15  2  0  0  0  0
 12 28  1  0  0  0  0
 13  9  1  0  0  0  0
 15 19  1  0  0  0  0
 15 23  1  0  0  0  0
 16  1  1  0  0  0  0
 16 28  1  0  0  0  0
 17  5  1  0  0  0  0
 17 25  1  0  0  0  0
 20 16  2  0  0  0  0
 21  1  2  0  0  0  0
 22 21  1  0  0  0  0
 23  6  1  0  0  0  0
 24 26  1  0  0  0  0
 24 12  1  0  0  0  0
 25 19  1  0  0  0  0
 25 12  1  0  0  0  0
 26 13  1  0  0  0  0
 26 10  1  0  0  0  0
 27  5  2  0  0  0  0
 28 10  1  0  0  0  0
M  END
>  <MODEL>
7

>  <REMARK>
 VINA RESULT:      -7.2      3.138      4.660
  Name = 
  0 active torsions:
  status: ('A' for Active; 'I' for Inactive)
                            x       y       z     vdW  Elec       q    Type
                         _______ _______ _______ _____ _____    ______ ____

>  <TORSDO>
F 0

$$$$
=
 OpenBabel11112417383D

 28 32  0  0  1  0  0  0  0  0999 V2000
  188.6440  175.6620  145.6000 C   0  0  0  0  0  0  0  0  0  0  0  0
  189.4100  171.7220  142.7750 F   0  0  0  0  0  0  0  0  0  0  0  0
  193.0150  177.0060  143.7230 C   0  0  0  0  0  1  0  0  0  0  0  0
  188.2200  177.8190  143.8600 C   0  0  0  0  0  3  0  0  0  0  0  0
  192.9950  174.7250  142.8090 C   0  0  0  0  0  0  0  0  0  0  0  0
  188.9410  174.5590  146.5730 C   0  0  0  0  0  2  0  0  0  0  0  0
  187.5120  172.6870  142.0130 O   0  0  0  0  0  1  0  0  0  0  0  0
  188.9020  172.6660  141.8950 C   0  0  1  0  0  0  0  0  0  0  0  0
  190.7710  172.4240  140.3010 C   0  0  1  0  0  3  0  0  0  0  0  0
  189.4550  174.0740  142.2050 C   0  0  2  0  0  3  0  0  0  0  0  0
  191.5580  176.6810  147.3540 O   0  0  0  0  0  0  0  0  0  0  0  0
  191.1210  174.0560  144.0340 C   0  0  1  0  0  3  0  0  0  0  0  0
  191.1030  173.7910  140.3520 O   0  0  0  0  0  0  0  0  0  0  0  0
  189.2700  172.2510  140.4800 C   0  0  0  0  0  2  0  0  0  0  0  0
  191.2170  175.5500  147.0490 C   0  0  0  0  0  0  0  0  0  0  0  0
  189.0070  175.5470  144.2400 C   0  0  0  0  0  0  0  0  0  0  0  0
  192.9860  175.5230  144.0530 C   0  0  2  0  0  3  0  0  0  0  0  0
  191.1860  171.8550  138.9620 C   0  0  0  0  0  1  0  0  0  0  0  0
  192.0400  174.7680  146.0770 C   0  0  0  0  0  2  0  0  0  0  0  0
  188.8050  176.6440  143.3850 C   0  0  0  0  0  3  0  0  0  0  0  0
  188.0490  176.8420  146.0650 C   0  0  0  0  0  3  0  0  0  0  0  0
  187.8340  177.9160  145.1980 C   0  0  0  0  0  3  0  0  0  0  0  0
  189.9640  174.9720  147.6380 C   0  0  0  0  0  2  0  0  0  0  0  0
  191.8400  173.8210  142.7120 C   0  0  1  0  0  3  0  0  0  0  0  0
  191.7270  175.2060  144.7250 N   0  0  2  0  0  0  0  0  0  0  0  0
  190.8660  174.3010  141.6520 C   0  0  2  0  0  3  0  0  0  0  0  0
  193.8910  174.7670  141.9810 O   0  0  0  0  0  0  0  0  0  0  0  0
  189.6220  174.2640  143.7130 C   0  0  1  0  0  3  0  0  0  0  0  0
  1 21  1  0  0  0  0
  1  6  1  0  0  0  0
  3 17  1  0  0  0  0
  4 22  1  0  0  0  0
  5 17  1  0  0  0  0
  6 23  1  0  0  0  0
  8  7  1  1  0  0  0
  8 10  1  0  0  0  0
  8  2  1  0  0  0  0
  9 18  1  6  0  0  0
  9 13  1  0  0  0  0
  9 14  1  0  0  0  0
 10 28  1  0  0  0  0
 12 25  1  0  0  0  0
 13 26  1  0  0  0  0
 14  8  1  0  0  0  0
 15 11  2  0  0  0  0
 15 23  1  0  0  0  0
 16  1  2  0  0  0  0
 17 25  1  0  0  0  0
 19 15  1  0  0  0  0
 20  4  2  0  0  0  0
 20 16  1  0  0  0  0
 22 21  2  0  0  0  0
 24  5  1  0  0  0  0
 24 12  1  0  0  0  0
 25 19  1  0  0  0  0
 26 10  1  0  0  0  0
 26 24  1  0  0  0  0
 27  5  2  0  0  0  0
 28 12  1  0  0  0  0
 28 16  1  0  0  0  0
M  END
>  <MODEL>
8

>  <REMARK>
 VINA RESULT:      -7.2      3.012      5.643
  Name = 
  0 active torsions:
  status: ('A' for Active; 'I' for Inactive)
                            x       y       z     vdW  Elec       q    Type
                         _______ _______ _______ _____ _____    ______ ____

>  <TORSDO>
F 0

$$$$
=
 OpenBabel11112417383D

 28 32  0  0  1  0  0  0  0  0999 V2000
  193.5950  175.4820  141.3510 C   0  0  0  0  0  0  0  0  0  0  0  0
  190.7370  178.6640  143.7600 F   0  0  0  0  0  0  0  0  0  0  0  0
  193.6660  173.2600  145.7660 C   0  0  0  0  0  1  0  0  0  0  0  0
  192.1370  173.0970  141.1500 C   0  0  0  0  0  3  0  0  0  0  0  0
  192.5040  175.3020  146.4870 C   0  0  0  0  0  0  0  0  0  0  0  0
  194.4470  176.7090  141.5000 C   0  0  0  0  0  2  0  0  0  0  0  0
  189.4700  177.8140  142.0910 O   0  0  0  0  0  1  0  0  0  0  0  0
  189.8710  177.6370  143.4140 C   0  0  1  0  0  0  0  0  0  0  0  0
  189.0610  177.3260  145.7260 C   0  0  1  0  0  3  0  0  0  0  0  0
  190.5540  176.2600  143.5540 C   0  0  2  0  0  3  0  0  0  0  0  0
  196.4220  174.4700  143.2460 O   0  0  0  0  0  0  0  0  0  0  0  0
  192.8470  176.4270  144.4690 C   0  0  1  0  0  3  0  0  0  0  0  0
  189.4190  175.9650  145.7580 O   0  0  0  0  0  0  0  0  0  0  0  0
  188.6480  177.7180  144.3140 C   0  0  0  0  0  2  0  0  0  0  0  0
  195.8590  175.5530  143.2480 C   0  0  0  0  0  0  0  0  0  0  0  0
  192.4630  175.2820  142.1720 C   0  0  0  0  0  0  0  0  0  0  0  0
  193.7540  174.7700  145.9050 C   0  0  2  0  0  3  0  0  0  0  0  0
  187.9040  177.5640  146.6720 C   0  0  0  0  0  1  0  0  0  0  0  0
  195.1620  176.0200  144.4840 C   0  0  0  0  0  2  0  0  0  0  0  0
  191.7530  174.0730  142.0710 C   0  0  0  0  0  3  0  0  0  0  0  0
  193.9650  174.5000  140.4230 C   0  0  0  0  0  3  0  0  0  0  0  0
  193.2370  173.3140  140.3200 C   0  0  0  0  0  3  0  0  0  0  0  0
  195.8600  176.3880  142.0010 C   0  0  0  0  0  2  0  0  0  0  0  0
  191.8640  176.3060  145.6260 C   0  0  1  0  0  3  0  0  0  0  0  0
  193.8640  175.3680  144.5750 N   0  0  2  0  0  0  0  0  0  0  0  0
  190.5970  175.7540  145.0000 C   0  0  2  0  0  3  0  0  0  0  0  0
  192.0790  174.9850  147.5870 O   0  0  0  0  0  0  0  0  0  0  0  0
  192.0280  176.3490  143.1580 C   0  0  1  0  0  3  0  0  0  0  0  0
  1  6  1  0  0  0  0
  1 16  1  0  0  0  0
  3 17  1  0  0  0  0
  4 20  1  0  0  0  0
  5 27  2  0  0  0  0
  6 23  1  0  0  0  0
  8  7  1  6  0  0  0
  8 10  1  0  0  0  0
  8  2  1  0  0  0  0
  8 14  1  0  0  0  0
  9 13  1  0  0  0  0
  9 18  1  1  0  0  0
 10 26  1  0  0  0  0
 11 15  2  0  0  0  0
 12 25  1  0  0  0  0
 12 24  1  0  0  0  0
 14  9  1  0  0  0  0
 15 19  1  0  0  0  0
 16 28  1  0  0  0  0
 17  5  1  0  0  0  0
 19 25  1  0  0  0  0
 20 16  2  0  0  0  0
 21  1  2  0  0  0  0
 22 21  1  0  0  0  0
 22  4  2  0  0  0  0
 23 15  1  0  0  0  0
 24  5  1  0  0  0  0
 25 17  1  0  0  0  0
 26 24  1  0  0  0  0
 26 13  1  0  0  0  0
 28 10  1  0  0  0  0
 28 12  1  0  0  0  0
M  END
>  <MODEL>
9

>  <REMARK>
 VINA RESULT:      -7.1      3.535      6.025
  Name = 
  0 active torsions:
  status: ('A' for Active; 'I' for Inactive)
                            x       y       z     vdW  Elec       q    Type
                         _______ _______ _______ _____ _____    ______ ____

>  <TORSDO>
F 0

$$$$
