=
 OpenBabel11112417063D

 31 35  0  0  1  0  0  0  0  0999 V2000
  184.9400  178.1260  146.9250 C   0  0  0  0  0  0  0  0  0  0  0  0
  187.5730  175.8020  145.4670 C   0  0  2  0  0  3  0  0  0  0  0  0
  187.6640  176.1250  143.9820 C   0  0  0  0  0  0  0  0  0  0  0  0
  186.7350  177.1170  141.9640 C   0  0  0  0  0  0  0  0  0  0  0  0
  186.9410  176.9130  146.2740 C   0  0  0  0  0  0  0  0  0  0  0  0
  185.7160  179.0190  147.6650 C   0  0  0  0  0  3  0  0  0  0  0  0
  186.6550  176.8550  143.3330 C   0  0  0  0  0  3  0  0  0  0  0  0
  189.8240  176.6460  146.2210 C   0  0  2  0  0  3  0  0  0  0  0  0
  183.5950  178.2800  146.8730 F   0  0  0  0  0  0  0  0  0  0  0  0
  189.7350  174.8500  143.8240 O   0  0  0  0  0  0  0  0  0  0  0  0
  185.6670  177.9040  141.2950 C   0  0  0  0  0  1  0  0  0  0  0  0
  189.1980  177.6070  147.2330 C   0  0  0  0  0  2  0  0  0  0  0  0
  188.9410  175.4030  146.0550 C   0  0  2  0  0  3  0  0  0  0  0  0
  185.5490  177.0770  146.2340 C   0  0  0  0  0  3  0  0  0  0  0  0
  187.8170  176.6370  141.2230 C   0  0  0  0  0  3  0  0  0  0  0  0
  187.7240  177.8150  147.0270 C   0  0  0  0  0  0  0  0  0  0  0  0
  187.1030  178.8580  147.7230 C   0  0  0  0  0  3  0  0  0  0  0  0
  189.5990  174.3560  145.1540 C   0  0  0  0  0  2  0  0  0  0  0  0
  188.7350  175.6150  143.2180 C   0  0  0  0  0  0  0  0  0  0  0  0
  188.8150  175.8870  141.8490 C   0  0  0  0  0  3  0  0  0  0  0  0
  192.2160  176.8650  144.6840 O   0  0  0  0  0  0  0  0  0  0  0  0
  192.3150  176.4090  145.8560 C   0  0  0  0  0  0  0  0  0  0  0  0
  191.1560  176.2690  146.6770 N   0  0  0  0  0  2  0  0  0  0  0  0
  195.8260  176.2220  144.6320 N   0  0  0  0  0  0  0  0  0  0  0  0
  194.5720  177.0920  146.4340 O   0  0  0  0  0  0  0  0  0  0  0  0
  193.2850  173.6060  145.6430 C   0  0  0  0  0  1  0  0  0  0  0  0
  196.2930  176.5880  143.3070 C   0  0  0  0  0  1  0  0  0  0  0  0
  195.0290  177.3450  145.1210 C   0  0  0  0  0  2  0  0  0  0  0  0
  194.2820  174.7420  145.7960 C   0  0  2  0  0  3  0  0  0  0  0  0
  193.6580  176.0100  146.4100 C   0  0  2  0  0  3  0  0  0  0  0  0
  194.9300  175.0840  144.4610 C   0  0  0  0  0  2  0  0  0  0  0  0
  1  6  1  0  0  0  0
  2  3  1  6  0  0  0
  2 13  1  0  0  0  0
  2  5  1  0  0  0  0
  4  7  2  0  0  0  0
  5 16  2  0  0  0  0
  6 17  2  0  0  0  0
  7  3  1  0  0  0  0
  8 23  1  1  0  0  0
  8 12  1  0  0  0  0
  9  1  1  0  0  0  0
 10 18  1  0  0  0  0
 11  4  1  0  0  0  0
 13 18  1  6  0  0  0
 13  8  1  0  0  0  0
 14  5  1  0  0  0  0
 14  1  2  0  0  0  0
 15 20  2  0  0  0  0
 15  4  1  0  0  0  0
 16 12  1  0  0  0  0
 16 17  1  0  0  0  0
 19 10  1  0  0  0  0
 19  3  2  0  0  0  0
 20 19  1  0  0  0  0
 21 22  2  0  0  0  0
 22 23  1  0  0  0  0
 24 28  1  0  0  0  0
 27 24  1  0  0  0  0
 28 25  1  0  0  0  0
 29 26  1  6  0  0  0
 29 30  1  0  0  0  0
 30 22  1  6  0  0  0
 30 25  1  0  0  0  0
 31 24  1  0  0  0  0
 31 29  1  0  0  0  0
M  END
>  <MODEL>
1

>  <REMARK>
 VINA RESULT:      -9.1      0.000      0.000
  Name = 
  2 active torsions:
  status: ('A' for Active; 'I' for Inactive)
    1  A    between atoms: C_5  and  C_30
    2  A    between atoms: C_10  and  N_16
                            x       y       z     vdW  Elec       q    Type
                         _______ _______ _______ _____ _____    ______ ____

>  <TORSDO>
F 2

$$$$
=
 OpenBabel11112417063D

 31 35  0  0  1  0  0  0  0  0999 V2000
  194.4140  176.5050  145.1450 C   0  0  0  0  0  0  0  0  0  0  0  0
  191.0250  177.0090  143.4930 C   0  0  2  0  0  3  0  0  0  0  0  0
  190.7510  175.7560  142.6740 C   0  0  0  0  0  0  0  0  0  0  0  0
  191.5200  173.7290  141.5700 C   0  0  0  0  0  0  0  0  0  0  0  0
  192.0740  176.7960  144.5620 C   0  0  0  0  0  0  0  0  0  0  0  0
  194.0600  176.3000  146.4800 C   0  0  0  0  0  3  0  0  0  0  0  0
  191.7800  174.8580  142.3500 C   0  0  0  0  0  3  0  0  0  0  0  0
  189.2690  176.7400  145.2790 C   0  0  2  0  0  3  0  0  0  0  0  0
  195.7160  176.4580  144.7750 F   0  0  0  0  0  0  0  0  0  0  0  0
  188.4200  176.4230  142.4230 O   0  0  0  0  0  0  0  0  0  0  0  0
  192.6180  172.7800  141.2500 C   0  0  0  0  0  1  0  0  0  0  0  0
  190.3090  176.7750  146.4000 C   0  0  0  0  0  2  0  0  0  0  0  0
  189.7350  177.5980  144.0970 C   0  0  2  0  0  3  0  0  0  0  0  0
  193.4260  176.7540  144.1910 C   0  0  0  0  0  3  0  0  0  0  0  0
  190.2310  173.4930  141.0900 C   0  0  0  0  0  3  0  0  0  0  0  0
  191.7180  176.5930  145.9140 C   0  0  0  0  0  0  0  0  0  0  0  0
  192.7170  176.3540  146.8630 C   0  0  0  0  0  3  0  0  0  0  0  0
  188.6620  177.6990  143.0100 C   0  0  0  0  0  2  0  0  0  0  0  0
  189.4590  175.5280  142.1550 C   0  0  0  0  0  0  0  0  0  0  0  0
  189.2020  174.3920  141.3820 C   0  0  0  0  0  3  0  0  0  0  0  0
  187.7460  175.5060  147.3510 O   0  0  0  0  0  0  0  0  0  0  0  0
  187.2830  176.5610  146.8360 C   0  0  0  0  0  0  0  0  0  0  0  0
  187.9940  177.2260  145.7910 N   0  0  0  0  0  2  0  0  0  0  0  0
  184.7140  178.9320  145.5600 N   0  0  0  0  0  0  0  0  0  0  0  0
  184.8890  176.7700  146.4930 O   0  0  0  0  0  0  0  0  0  0  0  0
  187.2190  179.0940  148.3910 C   0  0  0  0  0  1  0  0  0  0  0  0
  184.7320  179.6070  144.2750 C   0  0  0  0  0  1  0  0  0  0  0  0
  184.9410  177.5130  145.2920 C   0  0  0  0  0  2  0  0  0  0  0  0
  185.9920  178.6520  147.6130 C   0  0  2  0  0  3  0  0  0  0  0  0
  185.9790  177.1390  147.3190 C   0  0  2  0  0  3  0  0  0  0  0  0
  185.8600  179.4310  146.3110 C   0  0  0  0  0  2  0  0  0  0  0  0
  1  6  1  0  0  0  0
  2  3  1  1  0  0  0
  2 13  1  0  0  0  0
  2  5  1  0  0  0  0
  4  7  2  0  0  0  0
  5 16  2  0  0  0  0
  6 17  2  0  0  0  0
  7  3  1  0  0  0  0
  8 23  1  1  0  0  0
  8 12  1  0  0  0  0
  9  1  1  0  0  0  0
 10 18  1  0  0  0  0
 11  4  1  0  0  0  0
 13 18  1  6  0  0  0
 13  8  1  0  0  0  0
 14  5  1  0  0  0  0
 14  1  2  0  0  0  0
 15 20  2  0  0  0  0
 15  4  1  0  0  0  0
 16 12  1  0  0  0  0
 16 17  1  0  0  0  0
 19 10  1  0  0  0  0
 19  3  2  0  0  0  0
 20 19  1  0  0  0  0
 22 21  2  0  0  0  0
 23 22  1  0  0  0  0
 24 31  1  0  0  0  0
 25 30  1  0  0  0  0
 27 24  1  0  0  0  0
 28 24  1  0  0  0  0
 28 25  1  0  0  0  0
 29 26  1  6  0  0  0
 30 22  1  6  0  0  0
 30 29  1  0  0  0  0
 31 29  1  0  0  0  0
M  END
>  <MODEL>
2

>  <REMARK>
 VINA RESULT:      -8.4      3.512      7.121
  Name = 
  2 active torsions:
  status: ('A' for Active; 'I' for Inactive)
    1  A    between atoms: C_5  and  C_30
    2  A    between atoms: C_10  and  N_16
                            x       y       z     vdW  Elec       q    Type
                         _______ _______ _______ _____ _____    ______ ____

>  <TORSDO>
F 2

$$$$
=
 OpenBabel11112417063D

 31 35  0  0  1  0  0  0  0  0999 V2000
  185.0560  177.7860  146.8900 C   0  0  0  0  0  0  0  0  0  0  0  0
  187.3430  175.8300  144.5650 C   0  0  2  0  0  3  0  0  0  0  0  0
  187.1040  176.3710  143.1630 C   0  0  0  0  0  0  0  0  0  0  0  0
  185.7430  177.6030  141.5660 C   0  0  0  0  0  0  0  0  0  0  0  0
  186.8850  176.7790  145.6500 C   0  0  0  0  0  0  0  0  0  0  0  0
  185.9610  178.5970  147.5760 C   0  0  0  0  0  3  0  0  0  0  0  0
  185.9670  177.1390  142.8640 C   0  0  0  0  0  3  0  0  0  0  0  0
  189.6920  176.6620  144.9440 C   0  0  2  0  0  3  0  0  0  0  0  0
  183.7300  177.8810  147.1510 F   0  0  0  0  0  0  0  0  0  0  0  0
  189.1100  175.2340  142.3740 O   0  0  0  0  0  0  0  0  0  0  0  0
  184.5430  178.4270  141.2690 C   0  0  0  0  0  1  0  0  0  0  0  0
  189.2860  177.4330  146.2010 C   0  0  0  0  0  2  0  0  0  0  0  0
  188.8130  175.4150  144.7810 C   0  0  2  0  0  3  0  0  0  0  0  0
  185.5160  176.8800  145.9330 C   0  0  0  0  0  3  0  0  0  0  0  0
  186.6450  177.2900  140.5470 C   0  0  0  0  0  3  0  0  0  0  0  0
  187.8000  177.5980  146.3480 C   0  0  0  0  0  0  0  0  0  0  0  0
  187.3290  178.4950  147.3130 C   0  0  0  0  0  3  0  0  0  0  0  0
  189.2740  174.5440  143.6100 C   0  0  0  0  0  2  0  0  0  0  0  0
  187.9910  176.0310  142.1200 C   0  0  0  0  0  0  0  0  0  0  0  0
  187.7660  176.5040  140.8240 C   0  0  0  0  0  3  0  0  0  0  0  0
  191.7660  177.5670  143.2080 O   0  0  0  0  0  0  0  0  0  0  0  0
  192.0870  176.7800  144.1400 C   0  0  0  0  0  0  0  0  0  0  0  0
  191.0960  176.2860  145.0420 N   0  0  0  0  0  2  0  0  0  0  0  0
  193.9410  173.5970  144.6710 N   0  0  0  0  0  0  0  0  0  0  0  0
  193.9650  175.5050  143.2800 O   0  0  0  0  0  0  0  0  0  0  0  0
  193.3010  176.6240  146.8500 C   0  0  0  0  0  1  0  0  0  0  0  0
  193.3600  172.2680  144.7480 C   0  0  0  0  0  1  0  0  0  0  0  0
  193.4100  174.2180  143.4600 C   0  0  0  0  0  2  0  0  0  0  0  0
  193.8760  175.7960  145.7140 C   0  0  2  0  0  3  0  0  0  0  0  0
  193.5200  176.3550  144.3230 C   0  0  2  0  0  3  0  0  0  0  0  0
  193.4280  174.3440  145.8140 C   0  0  0  0  0  2  0  0  0  0  0  0
  1  9  1  0  0  0  0
  1  6  1  0  0  0  0
  2  3  1  6  0  0  0
  2 13  1  0  0  0  0
  2  5  1  0  0  0  0
  4  7  2  0  0  0  0
  5 14  1  0  0  0  0
  5 16  2  0  0  0  0
  7  3  1  0  0  0  0
  8 23  1  1  0  0  0
  8 12  1  0  0  0  0
 10 18  1  0  0  0  0
 11  4  1  0  0  0  0
 12 16  1  0  0  0  0
 13 18  1  6  0  0  0
 13  8  1  0  0  0  0
 14  1  2  0  0  0  0
 15 20  2  0  0  0  0
 15  4  1  0  0  0  0
 16 17  1  0  0  0  0
 17  6  2  0  0  0  0
 19 10  1  0  0  0  0
 19  3  2  0  0  0  0
 20 19  1  0  0  0  0
 21 22  2  0  0  0  0
 22 23  1  0  0  0  0
 24 27  1  0  0  0  0
 24 31  1  0  0  0  0
 25 28  1  0  0  0  0
 25 30  1  0  0  0  0
 28 24  1  0  0  0  0
 29 31  1  0  0  0  0
 29 26  1  1  0  0  0
 30 22  1  1  0  0  0
 30 29  1  0  0  0  0
M  END
>  <MODEL>
3

>  <REMARK>
 VINA RESULT:      -8.4      1.447      1.979
  Name = 
  2 active torsions:
  status: ('A' for Active; 'I' for Inactive)
    1  A    between atoms: C_5  and  C_30
    2  A    between atoms: C_10  and  N_16
                            x       y       z     vdW  Elec       q    Type
                         _______ _______ _______ _____ _____    ______ ____

>  <TORSDO>
F 2

$$$$
=
 OpenBabel11112417063D

 31 35  0  0  1  0  0  0  0  0999 V2000
  187.0190  177.5130  140.9050 C   0  0  0  0  0  0  0  0  0  0  0  0
  188.5900  177.8390  144.3530 C   0  0  2  0  0  3  0  0  0  0  0  0
  187.4410  177.9360  145.3470 C   0  0  0  0  0  0  0  0  0  0  0  0
  185.0990  178.3590  145.8500 C   0  0  0  0  0  0  0  0  0  0  0  0
  188.1730  177.2470  143.0250 C   0  0  0  0  0  0  0  0  0  0  0  0
  187.2780  176.1780  140.5910 C   0  0  0  0  0  3  0  0  0  0  0  0
  186.1370  178.2410  144.9240 C   0  0  0  0  0  3  0  0  0  0  0  0
  189.5030  175.5760  144.9820 C   0  0  2  0  0  3  0  0  0  0  0  0
  186.3300  178.2910  140.0360 F   0  0  0  0  0  0  0  0  0  0  0  0
  188.9900  177.5410  147.1870 O   0  0  0  0  0  0  0  0  0  0  0  0
  183.7210  178.6660  145.3850 C   0  0  0  0  0  1  0  0  0  0  0  0
  189.3170  175.0340  143.5640 C   0  0  0  0  0  2  0  0  0  0  0  0
  189.7980  177.0810  144.9390 C   0  0  2  0  0  3  0  0  0  0  0  0
  187.4650  178.0460  142.1160 C   0  0  0  0  0  3  0  0  0  0  0  0
  185.3550  178.1900  147.2120 C   0  0  0  0  0  3  0  0  0  0  0  0
  188.4380  175.8970  142.7040 C   0  0  0  0  0  0  0  0  0  0  0  0
  187.9940  175.3760  141.4840 C   0  0  0  0  0  3  0  0  0  0  0  0
  190.1240  177.6360  146.3280 C   0  0  0  0  0  2  0  0  0  0  0  0
  187.6970  177.8030  146.7280 C   0  0  0  0  0  0  0  0  0  0  0  0
  186.6520  177.9140  147.6500 C   0  0  0  0  0  3  0  0  0  0  0  0
  192.2160  175.5600  144.1040 O   0  0  0  0  0  0  0  0  0  0  0  0
  191.9340  174.8990  145.1410 C   0  0  0  0  0  0  0  0  0  0  0  0
  190.5940  174.8610  145.6310 N   0  0  0  0  0  2  0  0  0  0  0  0
  195.6320  174.5180  144.9460 N   0  0  0  0  0  0  0  0  0  0  0  0
  193.9340  175.0100  146.5130 O   0  0  0  0  0  0  0  0  0  0  0  0
  192.7410  172.1650  144.2950 C   0  0  0  0  0  1  0  0  0  0  0  0
  196.5130  175.1780  144.0000 C   0  0  0  0  0  1  0  0  0  0  0  0
  194.7950  175.5610  145.5370 C   0  0  0  0  0  2  0  0  0  0  0  0
  193.7100  173.0300  145.0830 C   0  0  2  0  0  3  0  0  0  0  0  0
  193.0070  174.1440  145.8820 C   0  0  2  0  0  3  0  0  0  0  0  0
  194.7640  173.6400  144.1690 C   0  0  0  0  0  2  0  0  0  0  0  0
  1 14  1  0  0  0  0
  2  5  1  6  0  0  0
  2 13  1  0  0  0  0
  2  3  1  0  0  0  0
  3 19  1  0  0  0  0
  4 15  2  0  0  0  0
  6  1  2  0  0  0  0
  6 17  1  0  0  0  0
  7  3  2  0  0  0  0
  7  4  1  0  0  0  0
  8 23  1  6  0  0  0
  9  1  1  0  0  0  0
 11  4  1  0  0  0  0
 12  8  1  0  0  0  0
 13  8  1  0  0  0  0
 13 18  1  1  0  0  0
 14  5  2  0  0  0  0
 15 20  1  0  0  0  0
 16  5  1  0  0  0  0
 16 12  1  0  0  0  0
 17 16  2  0  0  0  0
 18 10  1  0  0  0  0
 19 10  1  0  0  0  0
 19 20  2  0  0  0  0
 21 22  2  0  0  0  0
 22 23  1  0  0  0  0
 24 28  1  0  0  0  0
 27 24  1  0  0  0  0
 28 25  1  0  0  0  0
 29 26  1  6  0  0  0
 29 30  1  0  0  0  0
 30 22  1  6  0  0  0
 30 25  1  0  0  0  0
 31 24  1  0  0  0  0
 31 29  1  0  0  0  0
M  END
>  <MODEL>
4

>  <REMARK>
 VINA RESULT:      -8.0      2.031      4.102
  Name = 
  2 active torsions:
  status: ('A' for Active; 'I' for Inactive)
    1  A    between atoms: C_5  and  C_30
    2  A    between atoms: C_10  and  N_16
                            x       y       z     vdW  Elec       q    Type
                         _______ _______ _______ _____ _____    ______ ____

>  <TORSDO>
F 2

$$$$
=
 OpenBabel11112417063D

 31 35  0  0  1  0  0  0  0  0999 V2000
  186.3640  178.0130  140.8320 C   0  0  0  0  0  0  0  0  0  0  0  0
  188.7790  177.7500  143.7580 C   0  0  2  0  0  3  0  0  0  0  0  0
  187.9340  177.4960  144.9980 C   0  0  0  0  0  0  0  0  0  0  0  0
  185.7920  177.5300  146.1510 C   0  0  0  0  0  0  0  0  0  0  0  0
  188.0540  177.4200  142.4730 C   0  0  0  0  0  0  0  0  0  0  0  0
  186.5990  176.8170  140.1510 C   0  0  0  0  0  3  0  0  0  0  0  0
  186.5500  177.7370  144.9970 C   0  0  0  0  0  3  0  0  0  0  0  0
  189.9430  175.5220  143.5770 C   0  0  2  0  0  3  0  0  0  0  0  0
  185.4280  178.8790  140.3750 F   0  0  0  0  0  0  0  0  0  0  0  0
  189.9360  176.8840  146.2460 O   0  0  0  0  0  0  0  0  0  0  0  0
  184.3260  177.7740  146.1300 C   0  0  0  0  0  1  0  0  0  0  0  0
  189.4130  175.2870  142.1610 C   0  0  0  0  0  2  0  0  0  0  0  0
  190.1370  177.0230  143.8270 C   0  0  2  0  0  3  0  0  0  0  0  0
  187.0890  178.3140  141.9860 C   0  0  0  0  0  3  0  0  0  0  0  0
  186.4100  177.0970  147.3260 C   0  0  0  0  0  3  0  0  0  0  0  0
  188.2930  176.2130  141.7800 C   0  0  0  0  0  0  0  0  0  0  0  0
  187.5680  175.9260  140.6190 C   0  0  0  0  0  3  0  0  0  0  0  0
  190.7930  177.2930  145.1830 C   0  0  0  0  0  2  0  0  0  0  0  0
  188.5550  177.0930  146.1990 C   0  0  0  0  0  0  0  0  0  0  0  0
  187.7900  176.8790  147.3490 C   0  0  0  0  0  3  0  0  0  0  0  0
  190.3080  173.1620  145.1360 O   0  0  0  0  0  0  0  0  0  0  0  0
  191.3160  173.6290  144.5370 C   0  0  0  0  0  0  0  0  0  0  0  0
  191.2030  174.8100  143.7430 N   0  0  0  0  0  2  0  0  0  0  0  0
  194.8870  174.5130  143.9670 N   0  0  0  0  0  0  0  0  0  0  0  0
  193.4930  173.5490  145.6110 O   0  0  0  0  0  0  0  0  0  0  0  0
  192.4780  172.1770  142.2160 C   0  0  0  0  0  1  0  0  0  0  0  0
  195.3930  175.8040  143.5370 C   0  0  0  0  0  1  0  0  0  0  0  0
  193.9950  174.7660  145.0960 C   0  0  0  0  0  2  0  0  0  0  0  0
  193.3890  172.7090  143.3090 C   0  0  2  0  0  3  0  0  0  0  0  0
  192.6530  172.9440  144.6430 C   0  0  2  0  0  3  0  0  0  0  0  0
  194.0770  173.9950  142.8690 C   0  0  0  0  0  2  0  0  0  0  0  0
  1 14  1  0  0  0  0
  2  5  1  6  0  0  0
  2 13  1  0  0  0  0
  2  3  1  0  0  0  0
  3 19  1  0  0  0  0
  4 15  2  0  0  0  0
  6 17  1  0  0  0  0
  6  1  2  0  0  0  0
  7  3  2  0  0  0  0
  7  4  1  0  0  0  0
  8 23  1  6  0  0  0
  8 13  1  0  0  0  0
  9  1  1  0  0  0  0
 11  4  1  0  0  0  0
 12  8  1  0  0  0  0
 13 18  1  1  0  0  0
 14  5  2  0  0  0  0
 15 20  1  0  0  0  0
 16 12  1  0  0  0  0
 16  5  1  0  0  0  0
 17 16  2  0  0  0  0
 18 10  1  0  0  0  0
 19 10  1  0  0  0  0
 19 20  2  0  0  0  0
 22 21  2  0  0  0  0
 23 22  1  0  0  0  0
 24 28  1  0  0  0  0
 27 24  1  0  0  0  0
 28 25  1  0  0  0  0
 29 26  1  6  0  0  0
 29 30  1  0  0  0  0
 30 22  1  6  0  0  0
 30 25  1  0  0  0  0
 31 29  1  0  0  0  0
 31 24  1  0  0  0  0
M  END
>  <MODEL>
5

>  <REMARK>
 VINA RESULT:      -8.0      2.216      4.380
  Name = 
  2 active torsions:
  status: ('A' for Active; 'I' for Inactive)
    1  A    between atoms: C_5  and  C_30
    2  A    between atoms: C_10  and  N_16
                            x       y       z     vdW  Elec       q    Type
                         _______ _______ _______ _____ _____    ______ ____

>  <TORSDO>
F 2

$$$$
=
 OpenBabel11112417063D

 31 35  0  0  1  0  0  0  0  0999 V2000
  185.7620  177.4740  142.4490 C   0  0  0  0  0  0  0  0  0  0  0  0
  188.4840  174.8850  143.0440 C   0  0  2  0  0  3  0  0  0  0  0  0
  188.9680  174.4400  141.6710 C   0  0  0  0  0  0  0  0  0  0  0  0
  188.6540  174.2550  139.2660 C   0  0  0  0  0  0  0  0  0  0  0  0
  187.7600  176.2130  143.0120 C   0  0  0  0  0  0  0  0  0  0  0  0
  186.3980  178.6580  142.8280 C   0  0  0  0  0  3  0  0  0  0  0  0
  188.2140  174.6970  140.5150 C   0  0  0  0  0  3  0  0  0  0  0  0
  190.5350  176.1170  143.8360 C   0  0  2  0  0  3  0  0  0  0  0  0
  184.4900  177.5070  141.9870 F   0  0  0  0  0  0  0  0  0  0  0  0
  190.9060  173.3710  142.6930 O   0  0  0  0  0  0  0  0  0  0  0  0
  187.8520  174.5500  138.0500 C   0  0  0  0  0  1  0  0  0  0  0  0
  189.7540  177.4140  144.0480 C   0  0  0  0  0  2  0  0  0  0  0  0
  189.6260  174.9060  144.0800 C   0  0  2  0  0  3  0  0  0  0  0  0
  186.4400  176.2570  142.5420 C   0  0  0  0  0  3  0  0  0  0  0  0
  189.8450  173.5350  139.1590 C   0  0  0  0  0  3  0  0  0  0  0  0
  188.4000  177.4110  143.3990 C   0  0  0  0  0  0  0  0  0  0  0  0
  187.7080  178.6240  143.3100 C   0  0  0  0  0  3  0  0  0  0  0  0
  190.4030  173.5890  144.0090 C   0  0  0  0  0  2  0  0  0  0  0  0
  190.1520  173.6810  141.5580 C   0  0  0  0  0  0  0  0  0  0  0  0
  190.5920  173.2480  140.3040 C   0  0  0  0  0  3  0  0  0  0  0  0
  193.2560  175.7850  143.0470 O   0  0  0  0  0  0  0  0  0  0  0  0
  193.0170  175.9230  144.2790 C   0  0  0  0  0  0  0  0  0  0  0  0
  191.6760  176.0880  144.7410 N   0  0  0  0  0  2  0  0  0  0  0  0
  196.7010  175.3900  144.2430 N   0  0  0  0  0  0  0  0  0  0  0  0
  195.0950  176.9370  145.0200 O   0  0  0  0  0  0  0  0  0  0  0  0
  193.8070  173.4260  145.6860 C   0  0  0  0  0  1  0  0  0  0  0  0
  197.5160  175.1060  143.0750 C   0  0  0  0  0  1  0  0  0  0  0  0
  195.8880  176.5590  143.9130 C   0  0  0  0  0  2  0  0  0  0  0  0
  194.8100  174.5550  145.5290 C   0  0  2  0  0  3  0  0  0  0  0  0
  194.1420  175.9220  145.2800 C   0  0  2  0  0  3  0  0  0  0  0  0
  195.8000  174.2560  144.4110 C   0  0  0  0  0  2  0  0  0  0  0  0
  1 14  2  0  0  0  0
  1  6  1  0  0  0  0
  2  3  1  6  0  0  0
  2 13  1  0  0  0  0
  4  7  1  0  0  0  0
  5  2  1  0  0  0  0
  5 16  2  0  0  0  0
  6 17  2  0  0  0  0
  7  3  2  0  0  0  0
  8 12  1  0  0  0  0
  8 13  1  0  0  0  0
  8 23  1  1  0  0  0
  9  1  1  0  0  0  0
 10 18  1  0  0  0  0
 11  4  1  0  0  0  0
 13 18  1  6  0  0  0
 14  5  1  0  0  0  0
 15  4  2  0  0  0  0
 15 20  1  0  0  0  0
 16 12  1  0  0  0  0
 17 16  1  0  0  0  0
 19  3  1  0  0  0  0
 19 10  1  0  0  0  0
 20 19  2  0  0  0  0
 21 22  2  0  0  0  0
 22 23  1  0  0  0  0
 24 31  1  0  0  0  0
 25 30  1  0  0  0  0
 27 24  1  0  0  0  0
 28 24  1  0  0  0  0
 28 25  1  0  0  0  0
 29 26  1  6  0  0  0
 30 22  1  6  0  0  0
 30 29  1  0  0  0  0
 31 29  1  0  0  0  0
M  END
>  <MODEL>
6

>  <REMARK>
 VINA RESULT:      -7.7      2.493      3.129
  Name = 
  2 active torsions:
  status: ('A' for Active; 'I' for Inactive)
    1  A    between atoms: C_5  and  C_30
    2  A    between atoms: C_10  and  N_16
                            x       y       z     vdW  Elec       q    Type
                         _______ _______ _______ _____ _____    ______ ____

>  <TORSDO>
F 2

$$$$
=
 OpenBabel11112417063D

 31 35  0  0  1  0  0  0  0  0999 V2000
  186.7030  178.2400  147.6860 C   0  0  0  0  0  0  0  0  0  0  0  0
  188.5090  175.4770  145.7980 C   0  0  2  0  0  3  0  0  0  0  0  0
  188.4110  175.8250  144.3190 C   0  0  0  0  0  0  0  0  0  0  0  0
  187.3780  177.0540  142.4910 C   0  0  0  0  0  0  0  0  0  0  0  0
  188.2680  176.6660  146.7000 C   0  0  0  0  0  0  0  0  0  0  0  0
  187.7620  178.9300  148.2780 C   0  0  0  0  0  3  0  0  0  0  0  0
  187.4790  176.7670  143.8540 C   0  0  0  0  0  3  0  0  0  0  0  0
  190.9820  175.8170  146.1480 C   0  0  2  0  0  3  0  0  0  0  0  0
  185.4300  178.6680  147.8690 F   0  0  0  0  0  0  0  0  0  0  0  0
  190.1150  174.1600  143.8070 O   0  0  0  0  0  0  0  0  0  0  0  0
  186.3980  178.0650  142.0160 C   0  0  0  0  0  1  0  0  0  0  0  0
  190.7490  176.8510  147.2510 C   0  0  0  0  0  2  0  0  0  0  0  0
  189.8450  174.7870  146.1410 C   0  0  2  0  0  3  0  0  0  0  0  0
  186.9540  177.1130  146.9020 C   0  0  0  0  0  3  0  0  0  0  0  0
  188.1950  176.3890  141.5740 C   0  0  0  0  0  3  0  0  0  0  0  0
  189.3380  177.3630  147.3040 C   0  0  0  0  0  0  0  0  0  0  0  0
  189.0740  178.4860  148.0950 C   0  0  0  0  0  3  0  0  0  0  0  0
  190.1080  173.6590  145.1410 C   0  0  0  0  0  2  0  0  0  0  0  0
  189.2070  175.1330  143.3820 C   0  0  0  0  0  0  0  0  0  0  0  0
  189.1070  175.4300  142.0200 C   0  0  0  0  0  3  0  0  0  0  0  0
  193.1290  175.7300  144.2740 O   0  0  0  0  0  0  0  0  0  0  0  0
  193.3010  175.1580  145.3850 C   0  0  0  0  0  0  0  0  0  0  0  0
  192.2630  175.1610  146.3670 N   0  0  0  0  0  2  0  0  0  0  0  0
  196.3980  174.2160  143.5480 N   0  0  0  0  0  0  0  0  0  0  0  0
  195.7190  175.3240  145.5200 O   0  0  0  0  0  0  0  0  0  0  0  0
  193.5810  172.2130  145.0890 C   0  0  0  0  0  1  0  0  0  0  0  0
  196.6800  174.4820  142.1490 C   0  0  0  0  0  1  0  0  0  0  0  0
  195.9690  175.4820  144.1380 C   0  0  0  0  0  2  0  0  0  0  0  0
  194.8120  173.1010  145.0210 C   0  0  2  0  0  3  0  0  0  0  0  0
  194.6030  174.4690  145.6980 C   0  0  2  0  0  3  0  0  0  0  0  0
  195.2600  173.3040  143.5800 C   0  0  0  0  0  2  0  0  0  0  0  0
  1  9  1  0  0  0  0
  1  6  1  0  0  0  0
  2  3  1  6  0  0  0
  2 13  1  0  0  0  0
  2  5  1  0  0  0  0
  4  7  2  0  0  0  0
  5 14  1  0  0  0  0
  5 16  2  0  0  0  0
  7  3  1  0  0  0  0
  8 23  1  1  0  0  0
  8 12  1  0  0  0  0
 10 18  1  0  0  0  0
 11  4  1  0  0  0  0
 12 16  1  0  0  0  0
 13 18  1  6  0  0  0
 13  8  1  0  0  0  0
 14  1  2  0  0  0  0
 15 20  2  0  0  0  0
 15  4  1  0  0  0  0
 16 17  1  0  0  0  0
 17  6  2  0  0  0  0
 19 10  1  0  0  0  0
 19  3  2  0  0  0  0
 20 19  1  0  0  0  0
 21 22  2  0  0  0  0
 22 23  1  0  0  0  0
 24 31  1  0  0  0  0
 24 28  1  0  0  0  0
 25 30  1  0  0  0  0
 27 24  1  0  0  0  0
 28 25  1  0  0  0  0
 29 26  1  6  0  0  0
 29 30  1  0  0  0  0
 30 22  1  6  0  0  0
 31 29  1  0  0  0  0
M  END
>  <MODEL>
7

>  <REMARK>
 VINA RESULT:      -7.6      1.324      1.616
  Name = 
  2 active torsions:
  status: ('A' for Active; 'I' for Inactive)
    1  A    between atoms: C_5  and  C_30
    2  A    between atoms: C_10  and  N_16
                            x       y       z     vdW  Elec       q    Type
                         _______ _______ _______ _____ _____    ______ ____

>  <TORSDO>
F 2

$$$$
=
 OpenBabel11112417063D

 31 35  0  0  1  0  0  0  0  0999 V2000
  194.6320  176.6970  144.9270 C   0  0  0  0  0  0  0  0  0  0  0  0
  191.2190  175.4760  143.7760 C   0  0  2  0  0  3  0  0  0  0  0  0
  191.3730  173.9980  143.4500 C   0  0  0  0  0  0  0  0  0  0  0  0
  192.7660  172.0710  142.9330 C   0  0  0  0  0  0  0  0  0  0  0  0
  192.3190  176.0010  144.6710 C   0  0  0  0  0  0  0  0  0  0  0  0
  194.4310  176.8750  146.2970 C   0  0  0  0  0  3  0  0  0  0  0  0
  192.6400  173.4220  143.2630 C   0  0  0  0  0  3  0  0  0  0  0  0
  189.7510  175.3080  145.8180 C   0  0  2  0  0  3  0  0  0  0  0  0
  195.8480  176.9410  144.3840 F   0  0  0  0  0  0  0  0  0  0  0  0
  188.9490  173.7510  143.3850 O   0  0  0  0  0  0  0  0  0  0  0  0
  194.1150  171.4740  142.7530 C   0  0  0  0  0  1  0  0  0  0  0  0
  190.7570  176.0660  146.6840 C   0  0  0  0  0  2  0  0  0  0  0  0
  189.8300  175.7950  144.3660 C   0  0  2  0  0  3  0  0  0  0  0  0
  193.5800  176.2640  144.1180 C   0  0  0  0  0  3  0  0  0  0  0  0
  191.6260  171.2830  142.7680 C   0  0  0  0  0  3  0  0  0  0  0  0
  192.1170  176.1850  146.0570 C   0  0  0  0  0  0  0  0  0  0  0  0
  193.1750  176.6280  146.8570 C   0  0  0  0  0  3  0  0  0  0  0  0
  188.7460  175.1580  143.4930 C   0  0  0  0  0  2  0  0  0  0  0  0
  190.2260  173.2010  143.2470 C   0  0  0  0  0  0  0  0  0  0  0  0
  190.3580  171.8470  142.9250 C   0  0  0  0  0  3  0  0  0  0  0  0
  188.3380  177.7850  145.8360 O   0  0  0  0  0  0  0  0  0  0  0  0
  187.7560  176.7780  146.3240 C   0  0  0  0  0  0  0  0  0  0  0  0
  188.4100  175.5080  146.3510 N   0  0  0  0  0  2  0  0  0  0  0  0
  184.6140  178.5720  145.4530 N   0  0  0  0  0  0  0  0  0  0  0  0
  185.3820  176.4030  145.9840 O   0  0  0  0  0  0  0  0  0  0  0  0
  187.0760  178.8840  148.3090 C   0  0  0  0  0  1  0  0  0  0  0  0
  184.4130  179.4460  144.3110 C   0  0  0  0  0  1  0  0  0  0  0  0
  185.1980  177.3350  144.9380 C   0  0  0  0  0  2  0  0  0  0  0  0
  185.9850  178.2790  147.4440 C   0  0  2  0  0  3  0  0  0  0  0  0
  186.3620  176.8950  146.8810 C   0  0  2  0  0  3  0  0  0  0  0  0
  185.6120  179.2140  146.3010 C   0  0  0  0  0  2  0  0  0  0  0  0
  1  6  1  0  0  0  0
  2  3  1  1  0  0  0
  2 13  1  0  0  0  0
  2  5  1  0  0  0  0
  4  7  2  0  0  0  0
  5 16  2  0  0  0  0
  6 17  2  0  0  0  0
  7  3  1  0  0  0  0
  8 23  1  1  0  0  0
  8 12  1  0  0  0  0
  9  1  1  0  0  0  0
 10 18  1  0  0  0  0
 11  4  1  0  0  0  0
 13 18  1  6  0  0  0
 13  8  1  0  0  0  0
 14  5  1  0  0  0  0
 14  1  2  0  0  0  0
 15 20  2  0  0  0  0
 15  4  1  0  0  0  0
 16 12  1  0  0  0  0
 16 17  1  0  0  0  0
 19 10  1  0  0  0  0
 19  3  2  0  0  0  0
 20 19  1  0  0  0  0
 21 22  2  0  0  0  0
 22 23  1  0  0  0  0
 24 31  1  0  0  0  0
 25 30  1  0  0  0  0
 27 24  1  0  0  0  0
 28 24  1  0  0  0  0
 28 25  1  0  0  0  0
 29 26  1  6  0  0  0
 30 22  1  6  0  0  0
 30 29  1  0  0  0  0
 31 29  1  0  0  0  0
M  END
>  <MODEL>
8

>  <REMARK>
 VINA RESULT:      -7.5      3.416      7.380
  Name = 
  2 active torsions:
  status: ('A' for Active; 'I' for Inactive)
    1  A    between atoms: C_5  and  C_30
    2  A    between atoms: C_10  and  N_16
                            x       y       z     vdW  Elec       q    Type
                         _______ _______ _______ _____ _____    ______ ____

>  <TORSDO>
F 2

$$$$
=
 OpenBabel11112417063D

 31 35  0  0  1  0  0  0  0  0999 V2000
  185.9690  178.2340  141.1260 C   0  0  0  0  0  0  0  0  0  0  0  0
  188.7630  177.9590  143.6920 C   0  0  2  0  0  3  0  0  0  0  0  0
  188.1240  177.4530  144.9770 C   0  0  0  0  0  0  0  0  0  0  0  0
  186.1630  177.0670  146.3660 C   0  0  0  0  0  0  0  0  0  0  0  0
  187.9190  177.6870  142.4670 C   0  0  0  0  0  0  0  0  0  0  0  0
  186.2530  177.1680  140.2710 C   0  0  0  0  0  3  0  0  0  0  0  0
  186.7330  177.5050  145.1690 C   0  0  0  0  0  3  0  0  0  0  0  0
  190.1470  175.9430  143.0860 C   0  0  2  0  0  3  0  0  0  0  0  0
  184.8860  179.0150  140.8980 F   0  0  0  0  0  0  0  0  0  0  0  0
  190.3310  176.9730  145.8940 O   0  0  0  0  0  0  0  0  0  0  0  0
  184.6890  177.1130  146.5460 C   0  0  0  0  0  1  0  0  0  0  0  0
  189.4670  175.8050  141.7230 C   0  0  0  0  0  2  0  0  0  0  0  0
  190.1940  177.4170  143.5070 C   0  0  2  0  0  3  0  0  0  0  0  0
  186.7990  178.4940  142.2180 C   0  0  0  0  0  3  0  0  0  0  0  0
  186.9770  176.5870  147.3930 C   0  0  0  0  0  3  0  0  0  0  0  0
  188.2060  176.6110  141.5980 C   0  0  0  0  0  0  0  0  0  0  0  0
  187.3730  176.3660  140.5020 C   0  0  0  0  0  3  0  0  0  0  0  0
  190.9860  177.6130  144.8020 C   0  0  0  0  0  2  0  0  0  0  0  0
  188.9410  177.0000  146.0350 C   0  0  0  0  0  0  0  0  0  0  0  0
  188.3640  176.5540  147.2280 C   0  0  0  0  0  3  0  0  0  0  0  0
  190.8990  173.3140  143.8990 O   0  0  0  0  0  0  0  0  0  0  0  0
  191.8020  174.0620  143.4320 C   0  0  0  0  0  0  0  0  0  0  0  0
  191.4930  175.3910  143.0100 N   0  0  0  0  0  2  0  0  0  0  0  0
  193.6140  170.8460  143.9090 N   0  0  0  0  0  0  0  0  0  0  0  0
  193.3460  172.5620  142.3100 O   0  0  0  0  0  0  0  0  0  0  0  0
  193.6690  174.1550  145.7440 C   0  0  0  0  0  1  0  0  0  0  0  0
  193.0250  169.5800  144.3100 C   0  0  0  0  0  1  0  0  0  0  0  0
  192.8100  171.3490  142.7970 C   0  0  0  0  0  2  0  0  0  0  0  0
  193.9000  173.1560  144.6240 C   0  0  2  0  0  3  0  0  0  0  0  0
  193.2170  173.5630  143.3040 C   0  0  2  0  0  3  0  0  0  0  0  0
  193.4410  171.7620  145.0310 C   0  0  0  0  0  2  0  0  0  0  0  0
  1 14  1  0  0  0  0
  2  5  1  6  0  0  0
  2  3  1  0  0  0  0
  3  7  2  0  0  0  0
  3 19  1  0  0  0  0
  4 11  1  0  0  0  0
  4 15  2  0  0  0  0
  6 17  1  0  0  0  0
  6  1  2  0  0  0  0
  7  4  1  0  0  0  0
  8 23  1  6  0  0  0
  8 13  1  0  0  0  0
  9  1  1  0  0  0  0
 10 19  1  0  0  0  0
 12  8  1  0  0  0  0
 13  2  1  0  0  0  0
 13 18  1  1  0  0  0
 14  5  2  0  0  0  0
 16 12  1  0  0  0  0
 16  5  1  0  0  0  0
 17 16  2  0  0  0  0
 18 10  1  0  0  0  0
 19 20  2  0  0  0  0
 20 15  1  0  0  0  0
 22 21  2  0  0  0  0
 23 22  1  0  0  0  0
 24 27  1  0  0  0  0
 24 31  1  0  0  0  0
 25 28  1  0  0  0  0
 25 30  1  0  0  0  0
 28 24  1  0  0  0  0
 29 31  1  0  0  0  0
 29 26  1  1  0  0  0
 30 22  1  1  0  0  0
 30 29  1  0  0  0  0
M  END
>  <MODEL>
9

>  <REMARK>
 VINA RESULT:      -7.5      2.541      4.862
  Name = 
  2 active torsions:
  status: ('A' for Active; 'I' for Inactive)
    1  A    between atoms: C_5  and  C_30
    2  A    between atoms: C_10  and  N_16
                            x       y       z     vdW  Elec       q    Type
                         _______ _______ _______ _____ _____    ______ ____

>  <TORSDO>
F 2

$$$$
