=
 OpenBabel11112417203D

 37 44  0  0  1  0  0  0  0  0999 V2000
  189.8640  174.9840  146.0200 C   0  0  0  0  0  2  0  0  0  0  0  0
  186.6820  178.5500  147.5610 C   0  0  0  0  0  0  0  0  0  0  0  0
  186.9200  177.4630  143.4560 C   0  0  0  0  0  0  0  0  0  0  0  0
  191.0790  174.6390  146.8920 C   0  0  1  0  0  3  0  0  0  0  0  0
  190.1060  176.0140  142.0780 C   0  0  0  0  0  2  0  0  0  0  0  0
  185.8090  178.8230  145.1620 C   0  0  0  0  0  0  0  0  0  0  0  0
  188.0790  176.7830  143.4300 C   0  0  0  0  0  0  0  0  0  0  0  0
  192.3550  174.2660  144.7460 C   0  0  1  0  0  3  0  0  0  0  0  0
  186.7580  177.9830  144.7810 C   0  0  2  0  0  3  0  0  0  0  0  0
  188.6530  176.1520  142.2500 N   0  0  0  0  0  0  0  0  0  0  0  0
  184.8470  179.3590  144.1230 C   0  0  0  0  0  3  0  0  0  0  0  0
  192.4200  174.7990  146.1740 C   0  0  0  0  0  2  0  0  0  0  0  0
  187.8520  177.5520  145.5900 C   0  0  0  0  0  0  0  0  0  0  0  0
  185.8340  177.3640  147.9890 C   0  0  0  0  0  1  0  0  0  0  0  0
  185.7770  177.1030  141.1070 C   0  0  0  0  0  2  0  0  0  0  0  0
  184.9160  178.6390  142.7790 C   0  0  0  0  0  3  0  0  0  0  0  0
  188.0300  178.0420  146.9940 C   0  0  0  0  0  2  0  0  0  0  0  0
  192.0650  175.3730  143.7300 C   0  0  1  0  0  3  0  0  0  0  0  0
  190.6330  175.2490  143.2540 C   0  0  1  0  0  3  0  0  0  0  0  0
  185.9080  177.8010  142.4250 C   0  0  0  0  0  0  0  0  0  0  0  0
  188.6820  176.8560  144.8190 C   0  0  0  0  0  0  0  0  0  0  0  0
  185.8840  179.4180  146.5500 C   0  0  0  0  0  2  0  0  0  0  0  0
  187.7510  175.6420  141.2110 C   0  0  1  0  0  3  0  0  0  0  0  0
  186.9690  179.3880  148.7880 C   0  0  0  0  0  1  0  0  0  0  0  0
  191.0150  176.4000  144.1590 C   0  0  1  0  0  3  0  0  0  0  0  0
  193.5690  173.6600  144.4260 O   0  0  0  0  0  1  0  0  0  0  0  0
  190.0120  176.3350  145.3090 C   0  0  2  0  0  3  0  0  0  0  0  0
  187.1060  176.7870  140.4550 C   0  0  0  0  0  2  0  0  0  0  0  0
  188.2400  174.7690  138.9170 C   0  0  0  0  0  3  0  0  0  0  0  0
  188.3730  174.6170  140.3020 C   0  0  0  0  0  0  0  0  0  0  0  0
  189.0410  173.4930  140.8140 C   0  0  0  0  0  3  0  0  0  0  0  0
  190.2600  171.4050  140.4690 N   0  0  0  0  0  1  0  0  0  0  0  0
  189.4500  172.7010  138.5630 C   0  0  0  0  0  3  0  0  0  0  0  0
  189.5810  172.5410  139.9450 C   0  0  0  0  0  0  0  0  0  0  0  0
  188.7800  173.8150  138.0490 C   0  0  0  0  0  3  0  0  0  0  0  0
  191.8470  176.6210  147.9870 O   0  0  0  0  0  1  0  0  0  0  0  0
  191.0860  175.4650  148.1690 C   0  0  0  0  0  2  0  0  0  0  0  0
  1  4  1  0  0  0  0
  2 14  1  0  0  0  0
  2 24  1  0  0  0  0
  4 37  1  1  0  0  0
  5 10  1  0  0  0  0
  5 19  1  0  0  0  0
  6 22  1  0  0  0  0
  7  3  2  0  0  0  0
  7 21  1  0  0  0  0
  8 26  1  6  0  0  0
  8 12  1  0  0  0  0
  9  3  1  6  0  0  0
  9  6  1  0  0  0  0
  9 13  1  0  0  0  0
 10  7  1  0  0  0  0
 11  6  2  0  0  0  0
 12  4  1  0  0  0  0
 13 17  1  0  0  0  0
 15 20  1  0  0  0  0
 16 11  1  0  0  0  0
 17  2  1  0  0  0  0
 18 25  1  0  0  0  0
 18  8  1  0  0  0  0
 19 18  1  0  0  0  0
 19 25  1  0  0  0  0
 20 16  2  0  0  0  0
 20  3  1  0  0  0  0
 21 27  1  0  0  0  0
 21 13  2  0  0  0  0
 22  2  1  0  0  0  0
 23 10  1  0  0  0  0
 25 27  1  0  0  0  0
 27  1  1  0  0  0  0
 28 15  1  0  0  0  0
 28 23  1  0  0  0  0
 29 30  1  0  0  0  0
 30 31  2  0  0  0  0
 30 23  1  0  0  0  0
 33 34  2  0  0  0  0
 34 32  1  0  0  0  0
 34 31  1  0  0  0  0
 35 33  1  0  0  0  0
 35 29  2  0  0  0  0
 36 37  1  0  0  0  0
M  END
>  <MODEL>
1

>  <REMARK>
 VINA RESULT:      -9.2      0.000      0.000
  Name = 
  2 active torsions:
  status: ('A' for Active; 'I' for Inactive)
    1  A    between atoms: C_4  and  C_37
    2  A    between atoms: C_23  and  C_30
                            x       y       z     vdW  Elec       q    Type
                         _______ _______ _______ _____ _____    ______ ____

>  <TORSDO>
F 2

$$$$
=
 OpenBabel11112417203D

 37 44  0  0  1  0  0  0  0  0999 V2000
  190.0970  174.1660  140.7220 C   0  0  0  0  0  2  0  0  0  0  0  0
  186.8140  177.1370  143.0890 C   0  0  0  0  0  0  0  0  0  0  0  0
  190.2620  175.6600  145.0960 C   0  0  0  0  0  0  0  0  0  0  0  0
  189.6400  173.3870  139.4800 C   0  0  1  0  0  3  0  0  0  0  0  0
  191.8480  172.4370  143.9790 C   0  0  0  0  0  2  0  0  0  0  0  0
  188.2720  177.0830  145.2020 C   0  0  0  0  0  0  0  0  0  0  0  0
  190.6460  174.6730  144.2670 C   0  0  0  0  0  0  0  0  0  0  0  0
  191.1530  171.5180  140.2500 C   0  0  1  0  0  3  0  0  0  0  0  0
  189.0330  176.1910  144.5870 C   0  0  0  0  0  0  0  0  0  0  0  0
  191.8140  173.8250  144.4610 N   0  0  0  0  0  0  0  0  0  0  0  0
  188.6620  177.5410  146.5910 C   0  0  0  0  0  2  0  0  0  0  0  0
  189.8200  171.8730  139.6000 C   0  0  0  0  0  2  0  0  0  0  0  0
  188.6970  175.5160  143.3750 C   0  0  0  0  0  0  0  0  0  0  0  0
  187.5340  178.2410  142.3330 C   0  0  0  0  0  1  0  0  0  0  0  0
  192.1970  175.9640  146.8620 C   0  0  0  0  0  2  0  0  0  0  0  0
  190.0660  177.1180  147.0170 C   0  0  0  0  0  3  0  0  0  0  0  0
  187.3960  175.7640  142.6750 C   0  0  0  0  0  2  0  0  0  0  0  0
  191.0160  171.2790  141.7560 C   0  0  1  0  0  3  0  0  0  0  0  0
  191.5950  172.4620  142.5020 C   0  0  1  0  0  3  0  0  0  0  0  0
  190.8020  176.1960  146.3690 C   0  0  0  0  0  0  0  0  0  0  0  0
  189.6160  174.5800  143.1590 C   0  0  0  0  0  0  0  0  0  0  0  0
  186.9160  177.4060  144.6160 C   0  0  0  0  0  2  0  0  0  0  0  0
  192.9820  174.3780  145.1560 C   0  0  1  0  0  3  0  0  0  0  0  0
  185.3530  177.1720  142.6950 C   0  0  0  0  0  1  0  0  0  0  0  0
  190.0970  172.2540  142.4940 C   0  0  1  0  0  3  0  0  0  0  0  0
  191.6650  170.3680  139.6500 O   0  0  0  0  0  1  0  0  0  0  0  0
  189.5250  173.5900  142.0230 C   0  0  2  0  0  3  0  0  0  0  0  0
  192.6920  174.5510  146.6340 C   0  0  0  0  0  2  0  0  0  0  0  0
  194.6390  172.6030  145.7630 C   0  0  0  0  0  3  0  0  0  0  0  0
  194.2640  173.6350  144.8940 C   0  0  0  0  0  0  0  0  0  0  0  0
  195.1100  173.9850  143.8300 C   0  0  0  0  0  3  0  0  0  0  0  0
  197.1620  173.6520  142.5480 N   0  0  0  0  0  1  0  0  0  0  0  0
  196.6750  172.2630  144.4970 C   0  0  0  0  0  3  0  0  0  0  0  0
  196.3100  173.2970  143.6300 C   0  0  0  0  0  0  0  0  0  0  0  0
  195.8400  171.9160  145.5630 C   0  0  0  0  0  3  0  0  0  0  0  0
  188.1180  174.3640  137.9160 O   0  0  0  0  0  1  0  0  0  0  0  0
  188.1910  173.7010  139.1420 C   0  0  0  0  0  2  0  0  0  0  0  0
  1 27  1  0  0  0  0
  2 22  1  0  0  0  0
  3 20  1  0  0  0  0
  4 37  1  1  0  0  0
  4 12  1  0  0  0  0
  4  1  1  0  0  0  0
  5 10  1  0  0  0  0
  6 11  1  0  0  0  0
  7 10  1  0  0  0  0
  7  3  2  0  0  0  0
  8 26  1  6  0  0  0
  8 18  1  0  0  0  0
  9  3  1  0  0  0  0
  9  6  2  0  0  0  0
 10 23  1  0  0  0  0
 11 16  1  0  0  0  0
 12  8  1  0  0  0  0
 13  9  1  0  0  0  0
 14  2  1  0  0  0  0
 17  2  1  0  0  0  0
 17 13  1  0  0  0  0
 18 25  1  0  0  0  0
 18 19  1  0  0  0  0
 19  5  1  0  0  0  0
 20 15  1  0  0  0  0
 20 16  2  0  0  0  0
 21 13  2  0  0  0  0
 21  7  1  0  0  0  0
 22  6  1  0  0  0  0
 23 28  1  0  0  0  0
 24  2  1  0  0  0  0
 25 19  1  0  0  0  0
 27 25  1  0  0  0  0
 27 21  1  0  0  0  0
 28 15  1  0  0  0  0
 30 23  1  0  0  0  0
 30 29  2  0  0  0  0
 31 30  1  0  0  0  0
 32 34  1  0  0  0  0
 33 35  2  0  0  0  0
 34 31  2  0  0  0  0
 34 33  1  0  0  0  0
 35 29  1  0  0  0  0
 36 37  1  0  0  0  0
M  END
>  <MODEL>
2

>  <REMARK>
 VINA RESULT:      -9.1      2.958      6.479
  Name = 
  2 active torsions:
  status: ('A' for Active; 'I' for Inactive)
    1  A    between atoms: C_4  and  C_37
    2  A    between atoms: C_23  and  C_30
                            x       y       z     vdW  Elec       q    Type
                         _______ _______ _______ _____ _____    ______ ____

>  <TORSDO>
F 2

$$$$
=
 OpenBabel11112417203D

 37 44  0  0  1  0  0  0  0  0999 V2000
  188.2390  176.6940  141.4350 C   0  0  0  0  0  2  0  0  0  0  0  0
  184.8290  178.8810  144.4010 C   0  0  0  0  0  0  0  0  0  0  0  0
  188.4050  177.2470  146.0230 C   0  0  0  0  0  0  0  0  0  0  0  0
  187.8050  176.1650  140.0610 C   0  0  1  0  0  3  0  0  0  0  0  0
  190.1650  174.4410  144.2400 C   0  0  0  0  0  2  0  0  0  0  0  0
  186.3330  178.4820  146.4430 C   0  0  0  0  0  0  0  0  0  0  0  0
  188.8310  176.4820  145.0030 C   0  0  0  0  0  0  0  0  0  0  0  0
  189.4470  174.2800  140.4070 C   0  0  1  0  0  3  0  0  0  0  0  0
  187.1340  177.7910  145.6480 C   0  0  0  0  0  0  0  0  0  0  0  0
  190.0540  175.6910  145.0040 N   0  0  0  0  0  0  0  0  0  0  0  0
  186.7240  178.6630  147.8940 C   0  0  0  0  0  2  0  0  0  0  0  0
  188.0810  174.6740  139.8580 C   0  0  0  0  0  2  0  0  0  0  0  0
  186.8150  177.3640  144.3240 C   0  0  0  0  0  0  0  0  0  0  0  0
  185.4610  180.1650  143.8880 C   0  0  0  0  0  1  0  0  0  0  0  0
  190.3550  177.3010  147.7980 C   0  0  0  0  0  2  0  0  0  0  0  0
  188.1600  178.2540  148.2100 C   0  0  0  0  0  3  0  0  0  0  0  0
  185.4860  177.6670  143.7020 C   0  0  0  0  0  2  0  0  0  0  0  0
  189.3590  173.7220  141.8300 C   0  0  1  0  0  3  0  0  0  0  0  0
  189.8790  174.7580  142.8040 C   0  0  1  0  0  3  0  0  0  0  0  0
  188.9380  177.5390  147.3770 C   0  0  0  0  0  0  0  0  0  0  0  0
  187.7860  176.5570  143.9090 C   0  0  0  0  0  0  0  0  0  0  0  0
  184.9470  178.8310  145.9490 C   0  0  0  0  0  2  0  0  0  0  0  0
  191.2010  176.1620  145.7900 C   0  0  1  0  0  3  0  0  0  0  0  0
  183.3600  178.9030  144.0350 C   0  0  0  0  0  1  0  0  0  0  0  0
  188.3970  174.4580  142.7650 C   0  0  1  0  0  3  0  0  0  0  0  0
  190.0180  173.3180  139.5750 O   0  0  0  0  0  1  0  0  0  0  0  0
  187.7320  175.8230  142.5900 C   0  0  2  0  0  3  0  0  0  0  0  0
  190.9330  176.0030  147.2740 C   0  0  0  0  0  2  0  0  0  0  0  0
  193.0660  174.5260  146.1140 C   0  0  0  0  0  3  0  0  0  0  0  0
  192.5210  175.5760  145.3680 C   0  0  0  0  0  0  0  0  0  0  0  0
  193.2340  176.0910  144.2740 C   0  0  0  0  0  3  0  0  0  0  0  0
  195.1910  176.0690  142.8120 N   0  0  0  0  0  1  0  0  0  0  0  0
  195.0090  174.4930  144.6700 C   0  0  0  0  0  3  0  0  0  0  0  0
  194.4730  175.5470  143.9240 C   0  0  0  0  0  0  0  0  0  0  0  0
  194.3060  173.9820  145.7650 C   0  0  0  0  0  3  0  0  0  0  0  0
  186.0340  177.7700  140.1370 O   0  0  0  0  0  1  0  0  0  0  0  0
  186.3320  176.4470  139.8080 C   0  0  0  0  0  2  0  0  0  0  0  0
  1 27  1  0  0  0  0
  2 22  1  0  0  0  0
  3 20  1  0  0  0  0
  4 37  1  1  0  0  0
  4  1  1  0  0  0  0
  5 10  1  0  0  0  0
  6 11  1  0  0  0  0
  7 10  1  0  0  0  0
  7  3  2  0  0  0  0
  8 26  1  6  0  0  0
  8 18  1  0  0  0  0
  9  3  1  0  0  0  0
  9  6  2  0  0  0  0
 10 23  1  0  0  0  0
 11 16  1  0  0  0  0
 12  4  1  0  0  0  0
 12  8  1  0  0  0  0
 13  9  1  0  0  0  0
 14  2  1  0  0  0  0
 17 13  1  0  0  0  0
 17  2  1  0  0  0  0
 18 25  1  0  0  0  0
 18 19  1  0  0  0  0
 19  5  1  0  0  0  0
 20 15  1  0  0  0  0
 20 16  2  0  0  0  0
 21 13  2  0  0  0  0
 21  7  1  0  0  0  0
 22  6  1  0  0  0  0
 23 28  1  0  0  0  0
 24  2  1  0  0  0  0
 25 19  1  0  0  0  0
 27 25  1  0  0  0  0
 27 21  1  0  0  0  0
 28 15  1  0  0  0  0
 30 23  1  0  0  0  0
 30 29  2  0  0  0  0
 31 30  1  0  0  0  0
 32 34  1  0  0  0  0
 33 35  2  0  0  0  0
 34 31  2  0  0  0  0
 34 33  1  0  0  0  0
 35 29  1  0  0  0  0
 37 36  1  0  0  0  0
M  END
>  <MODEL>
3

>  <REMARK>
 VINA RESULT:      -8.7      2.533      5.785
  Name = 
  2 active torsions:
  status: ('A' for Active; 'I' for Inactive)
    1  A    between atoms: C_4  and  C_37
    2  A    between atoms: C_23  and  C_30
                            x       y       z     vdW  Elec       q    Type
                         _______ _______ _______ _____ _____    ______ ____

>  <TORSDO>
F 2

$$$$
=
 OpenBabel11112417203D

 37 44  0  0  1  0  0  0  0  0999 V2000
  188.3330  174.6460  141.4550 C   0  0  0  0  0  2  0  0  0  0  0  0
  192.9550  172.7850  142.0720 C   0  0  0  0  0  0  0  0  0  0  0  0
  191.1590  175.2070  145.0730 C   0  0  0  0  0  0  0  0  0  0  0  0
  187.7640  174.7780  140.0350 C   0  0  1  0  0  3  0  0  0  0  0  0
  188.5280  177.7250  144.1270 C   0  0  0  0  0  2  0  0  0  0  0  0
  193.0810  173.8440  144.4080 C   0  0  0  0  0  0  0  0  0  0  0  0
  190.1420  175.7610  144.3900 C   0  0  0  0  0  0  0  0  0  0  0  0
  186.6270  176.8910  140.8220 C   0  0  1  0  0  3  0  0  0  0  0  0
  191.9230  174.4290  144.1440 C   0  0  0  0  0  0  0  0  0  0  0  0
  189.1630  176.6840  144.9480 N   0  0  0  0  0  0  0  0  0  0  0  0
  193.7150  174.0590  145.7660 C   0  0  0  0  0  2  0  0  0  0  0  0
  187.3470  176.2030  139.6680 C   0  0  0  0  0  2  0  0  0  0  0  0
  191.3030  174.4890  142.8610 C   0  0  0  0  0  0  0  0  0  0  0  0
  192.2060  171.5120  142.4290 C   0  0  0  0  0  1  0  0  0  0  0  0
  190.7940  175.8250  147.6110 C   0  0  0  0  0  2  0  0  0  0  0  0
  192.7920  174.7150  146.7890 C   0  0  0  0  0  3  0  0  0  0  0  0
  191.9430  173.8780  141.6520 C   0  0  0  0  0  2  0  0  0  0  0  0
  187.5750  177.7490  141.6650 C   0  0  1  0  0  3  0  0  0  0  0  0
  187.8480  177.0460  142.9780 C   0  0  1  0  0  3  0  0  0  0  0  0
  191.6270  175.3120  146.4760 C   0  0  0  0  0  0  0  0  0  0  0  0
  190.2510  175.2970  142.9520 C   0  0  0  0  0  0  0  0  0  0  0  0
  193.8490  173.2110  143.2700 C   0  0  0  0  0  2  0  0  0  0  0  0
  188.8070  176.5640  146.3670 C   0  0  1  0  0  3  0  0  0  0  0  0
  193.8510  172.4870  140.8900 C   0  0  0  0  0  1  0  0  0  0  0  0
  188.9470  177.1320  141.9420 C   0  0  1  0  0  3  0  0  0  0  0  0
  185.6100  177.6980  140.3160 O   0  0  0  0  0  1  0  0  0  0  0  0
  189.4150  175.6890  141.7570 C   0  0  2  0  0  3  0  0  0  0  0  0
  189.9510  177.0280  147.2460 C   0  0  0  0  0  2  0  0  0  0  0  0
  186.3040  176.5780  146.3340 C   0  0  0  0  0  3  0  0  0  0  0  0
  187.4930  177.2020  146.7290 C   0  0  0  0  0  0  0  0  0  0  0  0
  187.4380  178.4280  147.4100 C   0  0  0  0  0  3  0  0  0  0  0  0
  186.1520  180.2540  148.3990 N   0  0  0  0  0  1  0  0  0  0  0  0
  185.0190  178.3820  147.3140 C   0  0  0  0  0  3  0  0  0  0  0  0
  186.2030  179.0130  147.7050 C   0  0  0  0  0  0  0  0  0  0  0  0
  185.0700  177.1640  146.6280 C   0  0  0  0  0  3  0  0  0  0  0  0
  188.1370  173.2890  138.2030 O   0  0  0  0  0  1  0  0  0  0  0  0
  188.7490  174.2550  139.0020 C   0  0  0  0  0  2  0  0  0  0  0  0
  1 27  1  0  0  0  0
  2 14  1  0  0  0  0
  2 22  1  0  0  0  0
  3 20  1  0  0  0  0
  4 37  1  6  0  0  0
  4  1  1  0  0  0  0
  5 10  1  0  0  0  0
  6 11  1  0  0  0  0
  7 10  1  0  0  0  0
  7  3  2  0  0  0  0
  8 26  1  6  0  0  0
  8 18  1  0  0  0  0
  9  6  2  0  0  0  0
  9  3  1  0  0  0  0
 10 23  1  0  0  0  0
 11 16  1  0  0  0  0
 12  4  1  0  0  0  0
 12  8  1  0  0  0  0
 13 21  2  0  0  0  0
 13  9  1  0  0  0  0
 17  2  1  0  0  0  0
 17 13  1  0  0  0  0
 18 25  1  0  0  0  0
 18 19  1  0  0  0  0
 19  5  1  0  0  0  0
 20 16  2  0  0  0  0
 20 15  1  0  0  0  0
 21  7  1  0  0  0  0
 22  6  1  0  0  0  0
 23 30  1  0  0  0  0
 23 28  1  0  0  0  0
 24  2  1  0  0  0  0
 25 19  1  0  0  0  0
 27 25  1  0  0  0  0
 27 21  1  0  0  0  0
 28 15  1  0  0  0  0
 29 35  2  0  0  0  0
 29 30  1  0  0  0  0
 30 31  2  0  0  0  0
 31 34  1  0  0  0  0
 33 34  2  0  0  0  0
 34 32  1  0  0  0  0
 35 33  1  0  0  0  0
 36 37  1  0  0  0  0
M  END
>  <MODEL>
4

>  <REMARK>
 VINA RESULT:      -8.7      2.969      8.076
  Name = 
  2 active torsions:
  status: ('A' for Active; 'I' for Inactive)
    1  A    between atoms: C_4  and  C_37
    2  A    between atoms: C_23  and  C_30
                            x       y       z     vdW  Elec       q    Type
                         _______ _______ _______ _____ _____    ______ ____

>  <TORSDO>
F 2

$$$$
=
 OpenBabel11112417203D

 37 44  0  0  1  0  0  0  0  0999 V2000
  192.6470  176.7080  145.0930 C   0  0  0  0  0  2  0  0  0  0  0  0
  193.5940  173.7210  141.1700 C   0  0  0  0  0  0  0  0  0  0  0  0
  189.6170  174.9130  142.0950 C   0  0  0  0  0  0  0  0  0  0  0  0
  193.6700  176.7910  146.2340 C   0  0  1  0  0  3  0  0  0  0  0  0
  188.7010  175.8130  145.6300 C   0  0  0  0  0  2  0  0  0  0  0  0
  191.1000  173.7100  140.5620 C   0  0  0  0  0  0  0  0  0  0  0  0
  189.7650  175.3720  143.3500 C   0  0  1  0  0  3  0  0  0  0  0  0
  191.7100  177.0120  147.8090 C   0  0  1  0  0  3  0  0  0  0  0  0
  190.8810  174.3780  141.6840 C   0  0  0  0  0  0  0  0  0  0  0  0
  188.6990  175.9360  144.1660 N   0  0  1  0  0  0  0  0  0  0  0  0
  189.9270  173.4000  139.6560 C   0  0  0  0  0  3  0  0  0  0  0  0
  193.0990  176.4190  147.6030 C   0  0  0  0  0  2  0  0  0  0  0  0
  191.8330  174.5700  142.7290 C   0  0  0  0  0  0  0  0  0  0  0  0
  193.9960  175.0230  140.4970 C   0  0  0  0  0  1  0  0  0  0  0  0
  187.1810  175.5700  141.3280 C   0  0  0  0  0  2  0  0  0  0  0  0
  188.6470  174.1500  140.0130 C   0  0  0  0  0  3  0  0  0  0  0  0
  193.2150  173.9980  142.6450 C   0  0  0  0  0  2  0  0  0  0  0  0
  190.6000  176.0190  147.4550 C   0  0  1  0  0  3  0  0  0  0  0  0
  189.9740  176.4210  146.1360 C   0  0  1  0  0  3  0  0  0  0  0  0
  188.4600  174.8080  141.1730 C   0  0  0  0  0  0  0  0  0  0  0  0
  191.2050  175.1340  143.7560 C   0  0  0  0  0  0  0  0  0  0  0  0
  192.4480  173.0550  140.3610 C   0  0  0  0  0  2  0  0  0  0  0  0
  187.5980  176.6430  143.5010 C   0  0  1  0  0  3  0  0  0  0  0  0
  194.7910  172.7950  141.1530 C   0  0  0  0  0  1  0  0  0  0  0  0
  190.8430  175.1840  146.1960 C   0  0  1  0  0  3  0  0  0  0  0  0
  191.5660  177.4000  149.1400 O   0  0  0  0  0  1  0  0  0  0  0  0
  191.8750  175.3840  145.0870 C   0  0  2  0  0  3  0  0  0  0  0  0
  186.7040  175.6660  142.7630 C   0  0  0  0  0  2  0  0  0  0  0  0
  186.3160  178.7610  143.8660 C   0  0  0  0  0  3  0  0  0  0  0  0
  186.8310  177.5740  144.4000 C   0  0  0  0  0  0  0  0  0  0  0  0
  186.6630  177.3000  145.7670 C   0  0  0  0  0  3  0  0  0  0  0  0
  185.8010  177.9160  147.9670 N   0  0  0  0  0  1  0  0  0  0  0  0
  185.4550  179.3800  146.0430 C   0  0  0  0  0  3  0  0  0  0  0  0
  185.9720  178.2000  146.5840 C   0  0  0  0  0  0  0  0  0  0  0  0
  185.6270  179.6610  144.6840 C   0  0  0  0  0  3  0  0  0  0  0  0
  195.3470  176.1720  144.6460 O   0  0  0  0  0  1  0  0  0  0  0  0
  194.8860  175.9260  145.9400 C   0  0  0  0  0  2  0  0  0  0  0  0
  1  4  1  0  0  0  0
  2 17  1  0  0  0  0
  4 37  1  6  0  0  0
  4 12  1  0  0  0  0
  5 19  1  0  0  0  0
  6  9  1  0  0  0  0
  7  3  1  1  0  0  0
  7 21  1  0  0  0  0
  7 10  1  0  0  0  0
  8 26  1  1  0  0  0
  9  3  2  0  0  0  0
  9 13  1  0  0  0  0
 10  5  1  6  0  0  0
 11 16  1  0  0  0  0
 11  6  2  0  0  0  0
 12  8  1  0  0  0  0
 13 21  2  0  0  0  0
 14  2  1  0  0  0  0
 15 28  1  0  0  0  0
 16 20  2  0  0  0  0
 17 13  1  0  0  0  0
 18  8  1  0  0  0  0
 19 25  1  0  0  0  0
 19 18  1  0  0  0  0
 20 15  1  0  0  0  0
 20  3  1  0  0  0  0
 21 27  1  0  0  0  0
 22  6  1  0  0  0  0
 22  2  1  0  0  0  0
 23 10  1  0  0  0  0
 23 30  1  0  0  0  0
 24  2  1  0  0  0  0
 25 18  1  0  0  0  0
 27  1  1  0  0  0  0
 27 25  1  0  0  0  0
 28 23  1  0  0  0  0
 29 30  2  0  0  0  0
 29 35  1  0  0  0  0
 30 31  1  0  0  0  0
 31 34  2  0  0  0  0
 33 34  1  0  0  0  0
 34 32  1  0  0  0  0
 35 33  2  0  0  0  0
 36 37  1  0  0  0  0
M  END
>  <MODEL>
5

>  <REMARK>
 VINA RESULT:      -8.5      2.167      6.651
  Name = 
  2 active torsions:
  status: ('A' for Active; 'I' for Inactive)
    1  A    between atoms: C_4  and  C_37
    2  A    between atoms: C_23  and  C_30
                            x       y       z     vdW  Elec       q    Type
                         _______ _______ _______ _____ _____    ______ ____

>  <TORSDO>
F 2

$$$$
=
 OpenBabel11112417203D

 37 44  0  0  1  0  0  0  0  0999 V2000
  190.1770  174.2720  141.4090 C   0  0  0  0  0  2  0  0  0  0  0  0
  189.6330  175.9570  146.1070 C   0  0  0  0  0  0  0  0  0  0  0  0
  193.4930  175.5520  144.3670 C   0  0  0  0  0  0  0  0  0  0  0  0
  189.0490  173.4440  140.7770 C   0  0  1  0  0  3  0  0  0  0  0  0
  194.0620  173.0400  141.6250 C   0  0  0  0  0  2  0  0  0  0  0  0
  192.1740  176.2720  146.3000 C   0  0  0  0  0  0  0  0  0  0  0  0
  193.2230  174.7710  143.3060 C   0  0  0  0  0  0  0  0  0  0  0  0
  190.8500  172.1120  139.6110 C   0  0  1  0  0  3  0  0  0  0  0  0
  192.2790  175.6910  145.1150 C   0  0  0  0  0  0  0  0  0  0  0  0
  194.2020  174.3250  142.3240 N   0  0  0  0  0  0  0  0  0  0  0  0
  193.4300  176.7690  146.9840 C   0  0  0  0  0  2  0  0  0  0  0  0
  189.4920  172.0590  140.3020 C   0  0  0  0  0  2  0  0  0  0  0  0
  191.2310  174.9980  144.4390 C   0  0  0  0  0  0  0  0  0  0  0  0
  189.2840  177.2630  145.4130 C   0  0  0  0  0  1  0  0  0  0  0  0
  195.9850  176.3710  144.0920 C   0  0  0  0  0  2  0  0  0  0  0  0
  194.6630  176.7900  146.0850 C   0  0  0  0  0  3  0  0  0  0  0  0
  189.8680  174.8560  145.0460 C   0  0  0  0  0  2  0  0  0  0  0  0
  191.9980  171.7770  140.5680 C   0  0  1  0  0  3  0  0  0  0  0  0
  192.7420  173.0490  140.9170 C   0  0  1  0  0  3  0  0  0  0  0  0
  194.7340  176.1740  144.8910 C   0  0  0  0  0  0  0  0  0  0  0  0
  191.7530  174.4090  143.3690 C   0  0  0  0  0  0  0  0  0  0  0  0
  190.8570  176.1780  147.0380 C   0  0  0  0  0  2  0  0  0  0  0  0
  195.3540  175.1860  142.0320 C   0  0  1  0  0  3  0  0  0  0  0  0
  188.4520  175.5500  146.9610 C   0  0  0  0  0  1  0  0  0  0  0  0
  191.8830  172.3810  141.9680 C   0  0  1  0  0  3  0  0  0  0  0  0
  190.8630  171.2090  138.5500 O   0  0  0  0  0  1  0  0  0  0  0  0
  190.9590  173.4900  142.4710 C   0  0  2  0  0  3  0  0  0  0  0  0
  196.3230  175.1960  143.1980 C   0  0  0  0  0  2  0  0  0  0  0  0
  197.2800  174.2780  140.7170 C   0  0  0  0  0  3  0  0  0  0  0  0
  196.0240  174.8950  140.7170 C   0  0  0  0  0  0  0  0  0  0  0  0
  195.4380  175.2700  139.4970 C   0  0  0  0  0  3  0  0  0  0  0  0
  195.4990  175.3930  137.0590 N   0  0  0  0  0  1  0  0  0  0  0  0
  197.3500  174.3930  138.3000 C   0  0  0  0  0  3  0  0  0  0  0  0
  196.0980  175.0150  138.2920 C   0  0  0  0  0  0  0  0  0  0  0  0
  197.9410  174.0240  139.5120 C   0  0  0  0  0  3  0  0  0  0  0  0
  187.5540  174.5420  142.2840 O   0  0  0  0  0  1  0  0  0  0  0  0
  187.8750  173.3010  141.7320 C   0  0  0  0  0  2  0  0  0  0  0  0
  1 27  1  0  0  0  0
  2 24  1  0  0  0  0
  2 22  1  0  0  0  0
  3 20  1  0  0  0  0
  3  9  1  0  0  0  0
  4  1  1  0  0  0  0
  4 37  1  1  0  0  0
  5 10  1  0  0  0  0
  6 11  1  0  0  0  0
  6 22  1  0  0  0  0
  7 21  1  0  0  0  0
  7  3  2  0  0  0  0
  8 26  1  6  0  0  0
  8 12  1  0  0  0  0
  8 18  1  0  0  0  0
  9  6  2  0  0  0  0
 10  7  1  0  0  0  0
 12  4  1  0  0  0  0
 13 17  1  0  0  0  0
 13  9  1  0  0  0  0
 14  2  1  0  0  0  0
 15 20  1  0  0  0  0
 16 11  1  0  0  0  0
 17  2  1  0  0  0  0
 18 19  1  0  0  0  0
 18 25  1  0  0  0  0
 19  5  1  0  0  0  0
 19 25  1  0  0  0  0
 20 16  2  0  0  0  0
 21 13  2  0  0  0  0
 23 10  1  0  0  0  0
 23 28  1  0  0  0  0
 25 27  1  0  0  0  0
 27 21  1  0  0  0  0
 28 15  1  0  0  0  0
 30 29  1  0  0  0  0
 30 23  1  0  0  0  0
 31 30  2  0  0  0  0
 32 34  1  0  0  0  0
 33 35  1  0  0  0  0
 34 33  2  0  0  0  0
 34 31  1  0  0  0  0
 35 29  2  0  0  0  0
 37 36  1  0  0  0  0
M  END
>  <MODEL>
6

>  <REMARK>
 VINA RESULT:      -8.4      3.907      6.880
  Name = 
  2 active torsions:
  status: ('A' for Active; 'I' for Inactive)
    1  A    between atoms: C_4  and  C_37
    2  A    between atoms: C_23  and  C_30
                            x       y       z     vdW  Elec       q    Type
                         _______ _______ _______ _____ _____    ______ ____

>  <TORSDO>
F 2

$$$$
=
 OpenBabel11112417203D

 37 44  0  0  1  0  0  0  0  0999 V2000
  189.5310  174.9900  145.2360 C   0  0  0  0  0  2  0  0  0  0  0  0
  186.1950  178.3180  143.5020 C   0  0  0  0  0  0  0  0  0  0  0  0
  188.1820  175.6410  140.8600 C   0  0  0  0  0  0  0  0  0  0  0  0
  190.2080  175.2460  146.5890 C   0  0  1  0  0  3  0  0  0  0  0  0
  191.5640  174.2690  141.7710 C   0  0  0  0  0  2  0  0  0  0  0  0
  186.5020  177.4020  141.1230 C   0  0  0  0  0  0  0  0  0  0  0  0
  189.1920  175.2070  141.6350 C   0  0  1  0  0  3  0  0  0  0  0  0
  192.2860  174.2030  145.6060 C   0  0  1  0  0  3  0  0  0  0  0  0
  187.4740  176.6420  141.6010 C   0  0  0  0  0  0  0  0  0  0  0  0
  190.1970  174.2340  141.2320 N   0  0  2  0  0  0  0  0  0  0  0  0
  186.1360  177.2850  139.6580 C   0  0  0  0  0  3  0  0  0  0  0  0
  191.7350  175.2950  146.5160 C   0  0  0  0  0  2  0  0  0  0  0  0
  188.0660  176.7750  142.8920 C   0  0  0  0  0  0  0  0  0  0  0  0
  185.1820  177.3080  144.0160 C   0  0  0  0  0  1  0  0  0  0  0  0
  188.1910  174.1390  138.6920 C   0  0  0  0  0  2  0  0  0  0  0  0
  186.7580  176.0820  138.9540 C   0  0  0  0  0  3  0  0  0  0  0  0
  187.6240  177.8380  143.8510 C   0  0  0  0  0  2  0  0  0  0  0  0
  192.5410  174.7110  144.1840 C   0  0  1  0  0  3  0  0  0  0  0  0
  191.4680  174.1710  143.2630 C   0  0  1  0  0  3  0  0  0  0  0  0
  187.7570  175.3420  139.4710 C   0  0  0  0  0  0  0  0  0  0  0  0
  189.1140  175.9590  142.9480 C   0  0  0  0  0  0  0  0  0  0  0  0
  185.9810  178.5350  141.9780 C   0  0  0  0  0  2  0  0  0  0  0  0
  189.8280  173.1940  140.2640 C   0  0  1  0  0  3  0  0  0  0  0  0
  185.9490  179.6320  144.2100 C   0  0  0  0  0  1  0  0  0  0  0  0
  191.4680  175.6420  143.6170 C   0  0  1  0  0  3  0  0  0  0  0  0
  193.4800  173.7190  146.1380 O   0  0  0  0  0  1  0  0  0  0  0  0
  190.0540  175.9140  144.1300 C   0  0  2  0  0  3  0  0  0  0  0  0
  189.6520  173.7910  138.8810 C   0  0  0  0  0  2  0  0  0  0  0  0
  191.7840  171.9290  139.3500 C   0  0  0  0  0  3  0  0  0  0  0  0
  190.7340  171.9930  140.2730 C   0  0  0  0  0  0  0  0  0  0  0  0
  190.5190  170.9200  141.1530 C   0  0  0  0  0  3  0  0  0  0  0  0
  191.1400  168.7200  142.0120 N   0  0  0  0  0  1  0  0  0  0  0  0
  192.4090  169.7480  140.1960 C   0  0  0  0  0  3  0  0  0  0  0  0
  191.3590  169.8030  141.1160 C   0  0  0  0  0  0  0  0  0  0  0  0
  192.6220  170.8110  139.3130 C   0  0  0  0  0  3  0  0  0  0  0  0
  188.3060  176.6140  147.0650 O   0  0  0  0  0  1  0  0  0  0  0  0
  189.6890  176.5260  147.2250 C   0  0  0  0  0  2  0  0  0  0  0  0
  1  4  1  0  0  0  0
  2 17  1  0  0  0  0
  2 14  1  0  0  0  0
  2 24  1  0  0  0  0
  3  9  2  0  0  0  0
  4 37  1  6  0  0  0
  5 19  1  0  0  0  0
  6  9  1  0  0  0  0
  6 22  1  0  0  0  0
  7  3  1  6  0  0  0
  7 21  1  0  0  0  0
  8 26  1  1  0  0  0
  8 12  1  0  0  0  0
  9 13  1  0  0  0  0
 10  7  1  0  0  0  0
 10  5  1  1  0  0  0
 11  6  2  0  0  0  0
 12  4  1  0  0  0  0
 13 21  2  0  0  0  0
 13 17  1  0  0  0  0
 15 28  1  0  0  0  0
 15 20  1  0  0  0  0
 16 20  2  0  0  0  0
 16 11  1  0  0  0  0
 18  8  1  0  0  0  0
 19 25  1  0  0  0  0
 19 18  1  0  0  0  0
 20  3  1  0  0  0  0
 21 27  1  0  0  0  0
 22  2  1  0  0  0  0
 23 30  1  0  0  0  0
 23 10  1  0  0  0  0
 25 27  1  0  0  0  0
 25 18  1  0  0  0  0
 27  1  1  0  0  0  0
 28 23  1  0  0  0  0
 29 30  1  0  0  0  0
 30 31  2  0  0  0  0
 33 34  2  0  0  0  0
 34 31  1  0  0  0  0
 34 32  1  0  0  0  0
 35 29  2  0  0  0  0
 35 33  1  0  0  0  0
 36 37  1  0  0  0  0
M  END
>  <MODEL>
7

>  <REMARK>
 VINA RESULT:      -8.2      1.827      3.365
  Name = 
  2 active torsions:
  status: ('A' for Active; 'I' for Inactive)
    1  A    between atoms: C_4  and  C_37
    2  A    between atoms: C_23  and  C_30
                            x       y       z     vdW  Elec       q    Type
                         _______ _______ _______ _____ _____    ______ ____

>  <TORSDO>
F 2

$$$$
=
 OpenBabel11112417203D

 37 44  0  0  1  0  0  0  0  0999 V2000
  190.6060  171.8560  142.5100 C   0  0  0  0  0  2  0  0  0  0  0  0
  195.1760  172.0480  144.5810 C   0  0  0  0  0  0  0  0  0  0  0  0
  192.4410  175.2740  145.0280 C   0  0  0  0  0  0  0  0  0  0  0  0
  190.3600  170.9080  141.3290 C   0  0  1  0  0  3  0  0  0  0  0  0
  189.7790  175.8520  142.4330 C   0  0  0  0  0  2  0  0  0  0  0  0
  194.6280  174.3380  145.6050 C   0  0  0  0  0  0  0  0  0  0  0  0
  191.5400  174.9900  144.0720 C   0  0  0  0  0  0  0  0  0  0  0  0
  188.8030  172.6660  140.4030 C   0  0  1  0  0  3  0  0  0  0  0  0
  193.4920  174.3070  144.9260 C   0  0  0  0  0  0  0  0  0  0  0  0
  190.3460  175.7740  143.7870 N   0  0  0  0  0  0  0  0  0  0  0  0
  194.9040  175.5170  146.5130 C   0  0  0  0  0  2  0  0  0  0  0  0
  189.8510  171.6100  140.0690 C   0  0  0  0  0  2  0  0  0  0  0  0
  193.1760  173.3790  143.8890 C   0  0  0  0  0  0  0  0  0  0  0  0
  194.5430  171.1580  145.6390 C   0  0  0  0  0  1  0  0  0  0  0  0
  191.4330  177.2480  146.4570 C   0  0  0  0  0  2  0  0  0  0  0  0
  193.6940  176.4160  146.7550 C   0  0  0  0  0  3  0  0  0  0  0  0
  194.1480  172.3240  143.4580 C   0  0  0  0  0  2  0  0  0  0  0  0
  189.4120  174.0650  140.5240 C   0  0  1  0  0  3  0  0  0  0  0  0
  189.4730  174.4560  141.9860 C   0  0  1  0  0  3  0  0  0  0  0  0
  192.5610  176.3610  146.0310 C   0  0  0  0  0  0  0  0  0  0  0  0
  192.0320  173.7640  143.3310 C   0  0  0  0  0  0  0  0  0  0  0  0
  195.7110  173.3440  145.2500 C   0  0  0  0  0  2  0  0  0  0  0  0
  189.6970  176.4990  144.8860 C   0  0  1  0  0  3  0  0  0  0  0  0
  196.3480  171.3020  143.9800 C   0  0  0  0  0  1  0  0  0  0  0  0
  190.7560  174.1350  141.2520 C   0  0  1  0  0  3  0  0  0  0  0  0
  187.8280  172.6780  139.4070 O   0  0  0  0  0  1  0  0  0  0  0  0
  191.4430  173.0800  142.1190 C   0  0  2  0  0  3  0  0  0  0  0  0
  190.5400  177.6840  145.3140 C   0  0  0  0  0  2  0  0  0  0  0  0
  187.2730  176.4160  145.5010 C   0  0  0  0  0  3  0  0  0  0  0  0
  188.2630  176.8670  144.6200 C   0  0  0  0  0  0  0  0  0  0  0  0
  187.8940  177.6100  143.4880 C   0  0  0  0  0  3  0  0  0  0  0  0
  186.1820  178.6660  142.1030 N   0  0  0  0  0  1  0  0  0  0  0  0
  185.5670  177.4620  144.1380 C   0  0  0  0  0  3  0  0  0  0  0  0
  186.5500  177.9090  143.2510 C   0  0  0  0  0  0  0  0  0  0  0  0
  185.9280  176.7150  145.2630 C   0  0  0  0  0  3  0  0  0  0  0  0
  192.1620  169.5740  142.1590 O   0  0  0  0  0  1  0  0  0  0  0  0
  191.6140  170.1150  140.9950 C   0  0  0  0  0  2  0  0  0  0  0  0
  2 22  1  0  0  0  0
  2 14  1  0  0  0  0
  3 20  1  0  0  0  0
  4 37  1  6  0  0  0
  4  1  1  0  0  0  0
  5 10  1  0  0  0  0
  6 11  1  0  0  0  0
  7  3  2  0  0  0  0
  8 26  1  6  0  0  0
  8 18  1  0  0  0  0
  9  3  1  0  0  0  0
  9  6  2  0  0  0  0
 10  7  1  0  0  0  0
 10 23  1  0  0  0  0
 11 16  1  0  0  0  0
 12  8  1  0  0  0  0
 12  4  1  0  0  0  0
 13  9  1  0  0  0  0
 17 13  1  0  0  0  0
 17  2  1  0  0  0  0
 18 25  1  0  0  0  0
 18 19  1  0  0  0  0
 19  5  1  0  0  0  0
 20 15  1  0  0  0  0
 20 16  2  0  0  0  0
 21 13  2  0  0  0  0
 21  7  1  0  0  0  0
 22  6  1  0  0  0  0
 23 28  1  0  0  0  0
 24  2  1  0  0  0  0
 25 19  1  0  0  0  0
 25 27  1  0  0  0  0
 27  1  1  0  0  0  0
 27 21  1  0  0  0  0
 28 15  1  0  0  0  0
 30 23  1  0  0  0  0
 30 29  2  0  0  0  0
 31 30  1  0  0  0  0
 32 34  1  0  0  0  0
 33 35  2  0  0  0  0
 34 31  2  0  0  0  0
 34 33  1  0  0  0  0
 35 29  1  0  0  0  0
 37 36  1  0  0  0  0
M  END
>  <MODEL>
8

>  <REMARK>
 VINA RESULT:      -8.2      2.709      7.555
  Name = 
  2 active torsions:
  status: ('A' for Active; 'I' for Inactive)
    1  A    between atoms: C_4  and  C_37
    2  A    between atoms: C_23  and  C_30
                            x       y       z     vdW  Elec       q    Type
                         _______ _______ _______ _____ _____    ______ ____

>  <TORSDO>
F 2

$$$$
=
 OpenBabel11112417203D

 37 44  0  0  1  0  0  0  0  0999 V2000
  190.1660  174.5410  141.6220 C   0  0  0  0  0  2  0  0  0  0  0  0
  187.8120  176.6540  145.5200 C   0  0  0  0  0  0  0  0  0  0  0  0
  191.9740  175.7970  145.6890 C   0  0  0  0  0  0  0  0  0  0  0  0
  189.3450  173.7550  140.5890 C   0  0  1  0  0  3  0  0  0  0  0  0
  193.4070  173.0260  143.5860 C   0  0  0  0  0  2  0  0  0  0  0  0
  190.0310  176.7810  146.8060 C   0  0  0  0  0  0  0  0  0  0  0  0
  192.1120  174.9540  144.6500 C   0  0  0  0  0  0  0  0  0  0  0  0
  191.3170  172.1910  140.3970 C   0  0  1  0  0  3  0  0  0  0  0  0
  190.5790  176.0960  145.8150 C   0  0  0  0  0  0  0  0  0  0  0  0
  193.3660  174.3500  144.2230 N   0  0  0  0  0  0  0  0  0  0  0  0
  190.9070  177.2310  147.9550 C   0  0  0  0  0  2  0  0  0  0  0  0
  189.7960  172.3040  140.4170 C   0  0  0  0  0  2  0  0  0  0  0  0
  189.8620  175.4340  144.7730 C   0  0  0  0  0  0  0  0  0  0  0  0
  187.9460  177.9210  144.6910 C   0  0  0  0  0  1  0  0  0  0  0  0
  194.4090  176.3880  146.5130 C   0  0  0  0  0  2  0  0  0  0  0  0
  192.4040  177.0780  147.6960 C   0  0  0  0  0  3  0  0  0  0  0  0
  188.3650  175.4520  144.7180 C   0  0  0  0  0  2  0  0  0  0  0  0
  191.8870  171.8470  141.7760 C   0  0  1  0  0  3  0  0  0  0  0  0
  192.5380  173.0800  142.3670 C   0  0  1  0  0  3  0  0  0  0  0  0
  192.9210  176.3600  146.6820 C   0  0  0  0  0  0  0  0  0  0  0  0
  190.7320  174.7170  144.0700 C   0  0  0  0  0  0  0  0  0  0  0  0
  188.5230  176.8550  146.8870 C   0  0  0  0  0  2  0  0  0  0  0  0
  194.6160  175.0880  144.4360 C   0  0  1  0  0  3  0  0  0  0  0  0
  186.3400  176.4160  145.7780 C   0  0  0  0  0  1  0  0  0  0  0  0
  191.2390  172.5740  142.9550 C   0  0  1  0  0  3  0  0  0  0  0  0
  191.6930  171.2030  139.4890 O   0  0  0  0  0  1  0  0  0  0  0  0
  190.3150  173.7920  142.9510 C   0  0  2  0  0  3  0  0  0  0  0  0
  194.9730  175.1190  145.9090 C   0  0  0  0  0  2  0  0  0  0  0  0
  196.7070  173.7560  144.0990 C   0  0  0  0  0  3  0  0  0  0  0  0
  195.7570  174.6350  143.5660 C   0  0  0  0  0  0  0  0  0  0  0  0
  195.9120  175.1100  142.2540 C   0  0  0  0  0  3  0  0  0  0  0  0
  197.1510  175.1760  140.1510 N   0  0  0  0  0  1  0  0  0  0  0  0
  197.9410  173.8120  142.0160 C   0  0  0  0  0  3  0  0  0  0  0  0
  197.0000  174.6950  141.4810 C   0  0  0  0  0  0  0  0  0  0  0  0
  197.7950  173.3420  143.3250 C   0  0  0  0  0  3  0  0  0  0  0  0
  187.4670  172.5610  141.4630 O   0  0  0  0  0  1  0  0  0  0  0  0
  187.8630  173.7880  140.9310 C   0  0  0  0  0  2  0  0  0  0  0  0
  1 27  1  0  0  0  0
  2 24  1  0  0  0  0
  2 22  1  0  0  0  0
  3  9  1  0  0  0  0
  3 20  1  0  0  0  0
  4 37  1  1  0  0  0
  4  1  1  0  0  0  0
  5 10  1  0  0  0  0
  6 22  1  0  0  0  0
  6 11  1  0  0  0  0
  7  3  2  0  0  0  0
  8 26  1  6  0  0  0
  8 12  1  0  0  0  0
  8 18  1  0  0  0  0
  9  6  2  0  0  0  0
 10 23  1  0  0  0  0
 10  7  1  0  0  0  0
 12  4  1  0  0  0  0
 13  9  1  0  0  0  0
 14  2  1  0  0  0  0
 15 20  1  0  0  0  0
 16 11  1  0  0  0  0
 17 13  1  0  0  0  0
 17  2  1  0  0  0  0
 18 19  1  0  0  0  0
 18 25  1  0  0  0  0
 19 25  1  0  0  0  0
 19  5  1  0  0  0  0
 20 16  2  0  0  0  0
 21  7  1  0  0  0  0
 21 13  2  0  0  0  0
 23 28  1  0  0  0  0
 27 25  1  0  0  0  0
 27 21  1  0  0  0  0
 28 15  1  0  0  0  0
 30 29  1  0  0  0  0
 30 23  1  0  0  0  0
 31 30  2  0  0  0  0
 32 34  1  0  0  0  0
 33 35  1  0  0  0  0
 34 33  2  0  0  0  0
 34 31  1  0  0  0  0
 35 29  2  0  0  0  0
 37 36  1  0  0  0  0
M  END
>  <MODEL>
9

>  <REMARK>
 VINA RESULT:      -8.2      3.316      6.579
  Name = 
  2 active torsions:
  status: ('A' for Active; 'I' for Inactive)
    1  A    between atoms: C_4  and  C_37
    2  A    between atoms: C_23  and  C_30
                            x       y       z     vdW  Elec       q    Type
                         _______ _______ _______ _____ _____    ______ ____

>  <TORSDO>
F 2

$$$$
