=
 OpenBabel11112418063D

 34 40  0  0  1  0  0  0  0  0999 V2000
  190.1310  175.6130  144.8290 C   0  0  0  0  0  0  0  0  0  0  0  0
  192.0350  174.4440  143.8180 O   0  0  0  0  0  0  0  0  0  0  0  0
  184.4250  178.9100  144.3500 C   0  0  2  0  0  3  0  0  0  0  0  0
  188.2540  176.9780  145.5870 C   0  0  0  0  0  0  0  0  0  0  0  0
  186.4870  177.4480  143.8430 C   0  0  2  0  0  3  0  0  0  0  0  0
  184.7610  177.9040  142.0840 C   0  0  0  0  0  1  0  0  0  0  0  0
  185.2810  180.1660  144.2450 C   0  0  0  0  0  1  0  0  0  0  0  0
  184.7160  177.7460  146.6020 C   0  0  0  0  0  3  0  0  0  0  0  0
  190.2990  175.0930  142.4310 C   0  0  2  0  0  3  0  0  0  0  0  0
  189.6330  173.4070  139.7840 C   0  0  0  0  0  2  0  0  0  0  0  0
  186.8500  176.1910  143.3150 O   0  0  0  0  0  0  0  0  0  0  0  0
  185.8500  176.8370  146.2140 C   0  0  0  0  0  2  0  0  0  0  0  0
  188.7730  175.0780  142.3080 C   0  0  1  0  0  3  0  0  0  0  0  0
  192.2820  173.8240  142.5720 C   0  0  0  0  0  2  0  0  0  0  0  0
  186.8790  177.5500  145.3450 C   0  0  1  0  0  3  0  0  0  0  0  0
  184.0820  178.6080  145.7870 C   0  0  0  0  0  3  0  0  0  0  0  0
  190.4470  172.9870  141.0060 C   0  0  2  0  0  3  0  0  0  0  0  0
  188.8880  176.2340  144.5810 C   0  0  0  0  0  0  0  0  0  0  0  0
  184.9980  177.7170  143.5730 C   0  0  2  0  0  3  0  0  0  0  0  0
  188.2500  176.2170  143.1990 C   0  0  2  0  0  3  0  0  0  0  0  0
  190.1150  176.5160  147.0770 C   0  0  0  0  0  3  0  0  0  0  0  0
  188.2550  173.9360  140.1620 C   0  0  0  0  0  2  0  0  0  0  0  0
  188.8790  177.1260  146.8330 C   0  0  0  0  0  3  0  0  0  0  0  0
  188.3350  175.2820  140.8680 C   0  0  0  0  0  2  0  0  0  0  0  0
  191.1760  174.2120  141.5790 C   0  0  1  0  0  3  0  0  0  0  0  0
  190.7290  175.7430  146.0880 C   0  0  0  0  0  3  0  0  0  0  0  0
  190.6550  174.6400  143.8110 C   0  0  2  0  0  3  0  0  0  0  0  0
  191.4070  171.9750  140.5920 N   0  0  0  0  0  2  0  0  0  0  0  0
  190.6610  170.7480  140.3700 C   0  0  0  0  0  2  0  0  0  0  0  0
  191.5730  170.8120  136.9520 C   0  0  0  0  0  2  0  0  0  0  0  0
  189.7450  169.9710  138.2070 C   0  0  0  0  0  2  0  0  0  0  0  0
  191.0080  170.1740  139.0090 C   0  0  1  0  0  3  0  0  0  0  0  0
  190.1310  170.3860  136.8190 C   0  0  0  0  0  2  0  0  0  0  0  0
  191.8400  171.0580  138.3080 O   0  0  0  0  0  0  0  0  0  0  0  0
  1 26  1  0  0  0  0
  3  7  1  1  0  0  0
  3 16  1  0  0  0  0
  4 23  2  0  0  0  0
  5 11  1  1  0  0  0
  5 15  1  0  0  0  0
  6 19  1  0  0  0  0
  9 27  1  0  0  0  0
 10 22  1  0  0  0  0
 10 17  1  0  0  0  0
 12  8  1  0  0  0  0
 13  9  1  0  0  0  0
 13 20  1  0  0  0  0
 14  2  1  0  0  0  0
 15  4  1  0  0  0  0
 15 12  1  0  0  0  0
 16  8  2  0  0  0  0
 17 25  1  0  0  0  0
 18  1  2  0  0  0  0
 18  4  1  0  0  0  0
 19  5  1  0  0  0  0
 19  3  1  0  0  0  0
 20 11  1  0  0  0  0
 20 18  1  0  0  0  0
 22 24  1  0  0  0  0
 23 21  1  0  0  0  0
 24 13  1  0  0  0  0
 25  9  1  0  0  0  0
 25 14  1  0  0  0  0
 26 21  2  0  0  0  0
 27  2  1  0  0  0  0
 27  1  1  0  0  0  0
 28 17  1  0  0  0  0
 29 28  1  0  0  0  0
 30 34  1  0  0  0  0
 31 32  1  0  0  0  0
 32 29  1  0  0  0  0
 33 30  1  0  0  0  0
 33 31  1  0  0  0  0
 34 32  1  0  0  0  0
M  END
>  <MODEL>
1

>  <REMARK>
 VINA RESULT:      -9.3      0.000      0.000
  Name = 
  3 active torsions:
  status: ('A' for Active; 'I' for Inactive)
    1  A    between atoms: C_17  and  N_28
    2  A    between atoms: N_28  and  C_29
    3  A    between atoms: C_29  and  C_32
                            x       y       z     vdW  Elec       q    Type
                         _______ _______ _______ _____ _____    ______ ____

>  <TORSDO>
F 3

$$$$
=
 OpenBabel11112418063D

 34 40  0  0  1  0  0  0  0  0999 V2000
  190.3790  175.9220  145.1040 C   0  0  0  0  0  0  0  0  0  0  0  0
  192.3200  174.7710  144.1440 O   0  0  0  0  0  0  0  0  0  0  0  0
  184.4880  178.8570  144.5030 C   0  0  2  0  0  3  0  0  0  0  0  0
  188.4480  177.2480  145.7940 C   0  0  0  0  0  0  0  0  0  0  0  0
  186.6160  177.4660  144.0680 C   0  0  2  0  0  3  0  0  0  0  0  0
  184.8240  177.6700  142.3260 C   0  0  0  0  0  1  0  0  0  0  0  0
  185.2700  180.1420  144.2630 C   0  0  0  0  0  1  0  0  0  0  0  0
  184.8980  177.9160  146.8400 C   0  0  0  0  0  3  0  0  0  0  0  0
  190.5160  175.1990  142.7570 C   0  0  2  0  0  3  0  0  0  0  0  0
  189.8800  173.2510  140.2900 C   0  0  0  0  0  2  0  0  0  0  0  0
  187.0350  176.1880  143.6420 O   0  0  0  0  0  0  0  0  0  0  0  0
  186.0720  177.0380  146.5000 C   0  0  0  0  0  2  0  0  0  0  0  0
  188.9910  175.0930  142.6810 C   0  0  1  0  0  3  0  0  0  0  0  0
  192.5700  174.0550  142.9500 C   0  0  0  0  0  2  0  0  0  0  0  0
  187.0370  177.7230  145.5420 C   0  0  1  0  0  3  0  0  0  0  0  0
  184.1980  178.6670  145.9710 C   0  0  0  0  0  3  0  0  0  0  0  0
  190.7450  172.9850  141.5190 C   0  0  2  0  0  3  0  0  0  0  0  0
  189.0970  176.4520  144.8390 C   0  0  0  0  0  0  0  0  0  0  0  0
  185.1070  177.6300  143.8180 C   0  0  2  0  0  3  0  0  0  0  0  0
  188.4280  176.2780  143.4830 C   0  0  2  0  0  3  0  0  0  0  0  0
  190.3680  177.0220  147.2630 C   0  0  0  0  0  3  0  0  0  0  0  0
  188.4840  173.7370  140.6600 C   0  0  0  0  0  2  0  0  0  0  0  0
  189.0940  177.5400  147.0020 C   0  0  0  0  0  3  0  0  0  0  0  0
  188.5070  175.1430  141.2410 C   0  0  0  0  0  2  0  0  0  0  0  0
  191.4190  174.2930  141.9600 C   0  0  1  0  0  3  0  0  0  0  0  0
  190.9990  176.1970  146.3280 C   0  0  0  0  0  3  0  0  0  0  0  0
  190.9300  174.8920  144.1600 C   0  0  2  0  0  3  0  0  0  0  0  0
  191.7500  171.9920  141.1680 N   0  0  0  0  0  2  0  0  0  0  0  0
  191.2950  170.7210  141.7040 C   0  0  0  0  0  2  0  0  0  0  0  0
  193.4480  170.6960  144.5110 C   0  0  0  0  0  2  0  0  0  0  0  0
  193.7170  170.5120  142.1620 C   0  0  0  0  0  2  0  0  0  0  0  0
  192.3340  170.1630  142.6580 C   0  0  1  0  0  3  0  0  0  0  0  0
  194.4710  170.8560  143.4110 C   0  0  0  0  0  2  0  0  0  0  0  0
  192.1690  170.7200  143.9340 O   0  0  0  0  0  0  0  0  0  0  0  0
  1 26  1  0  0  0  0
  2 27  1  0  0  0  0
  3  7  1  1  0  0  0
  3 16  1  0  0  0  0
  4 23  2  0  0  0  0
  5 11  1  1  0  0  0
  5 15  1  0  0  0  0
  6 19  1  0  0  0  0
  9 27  1  0  0  0  0
 10 22  1  0  0  0  0
 10 17  1  0  0  0  0
 12  8  1  0  0  0  0
 13  9  1  0  0  0  0
 13 20  1  0  0  0  0
 14  2  1  0  0  0  0
 15  4  1  0  0  0  0
 15 12  1  0  0  0  0
 16  8  2  0  0  0  0
 17 25  1  0  0  0  0
 18  1  2  0  0  0  0
 18  4  1  0  0  0  0
 19  5  1  0  0  0  0
 19  3  1  0  0  0  0
 20 11  1  0  0  0  0
 20 18  1  0  0  0  0
 22 24  1  0  0  0  0
 23 21  1  0  0  0  0
 24 13  1  0  0  0  0
 25  9  1  0  0  0  0
 25 14  1  0  0  0  0
 26 21  2  0  0  0  0
 27  1  1  0  0  0  0
 28 17  1  0  0  0  0
 28 29  1  0  0  0  0
 29 32  1  0  0  0  0
 31 32  1  0  0  0  0
 31 33  1  0  0  0  0
 32 34  1  0  0  0  0
 33 30  1  0  0  0  0
 34 30  1  0  0  0  0
M  END
>  <MODEL>
2

>  <REMARK>
 VINA RESULT:      -9.1      1.737      2.483
  Name = 
  3 active torsions:
  status: ('A' for Active; 'I' for Inactive)
    1  A    between atoms: C_17  and  N_28
    2  A    between atoms: N_28  and  C_29
    3  A    between atoms: C_29  and  C_32
                            x       y       z     vdW  Elec       q    Type
                         _______ _______ _______ _____ _____    ______ ____

>  <TORSDO>
F 3

$$$$
=
 OpenBabel11112418063D

 34 40  0  0  1  0  0  0  0  0999 V2000
  190.1670  175.7600  144.8880 C   0  0  0  0  0  0  0  0  0  0  0  0
  192.0810  174.6090  143.8760 O   0  0  0  0  0  0  0  0  0  0  0  0
  184.3810  178.9170  144.4210 C   0  0  2  0  0  3  0  0  0  0  0  0
  188.2710  177.1010  145.6430 C   0  0  0  0  0  0  0  0  0  0  0  0
  186.4680  177.4880  143.9170 C   0  0  2  0  0  3  0  0  0  0  0  0
  184.7040  177.8610  142.1760 C   0  0  0  0  0  1  0  0  0  0  0  0
  185.2060  180.1880  144.2710 C   0  0  0  0  0  1  0  0  0  0  0  0
  184.7330  177.8160  146.6960 C   0  0  0  0  0  3  0  0  0  0  0  0
  190.3090  175.1840  142.5020 C   0  0  2  0  0  3  0  0  0  0  0  0
  189.6400  173.4180  139.9080 C   0  0  0  0  0  2  0  0  0  0  0  0
  186.8500  176.2260  143.4140 O   0  0  0  0  0  0  0  0  0  0  0  0
  185.8820  176.9230  146.3120 C   0  0  0  0  0  2  0  0  0  0  0  0
  188.7830  175.1320  142.4040 C   0  0  1  0  0  3  0  0  0  0  0  0
  192.3220  173.9640  142.6410 C   0  0  0  0  0  2  0  0  0  0  0  0
  186.8800  177.6370  145.4090 C   0  0  1  0  0  3  0  0  0  0  0  0
  184.0670  178.6430  145.8710 C   0  0  0  0  0  3  0  0  0  0  0  0
  190.4820  173.0470  141.1260 C   0  0  2  0  0  3  0  0  0  0  0  0
  188.9060  176.3460  144.6460 C   0  0  0  0  0  0  0  0  0  0  0  0
  184.9680  177.7170  143.6640 C   0  0  2  0  0  3  0  0  0  0  0  0
  188.2480  176.2810  143.2750 C   0  0  2  0  0  3  0  0  0  0  0  0
  190.1660  176.7190  147.1140 C   0  0  0  0  0  3  0  0  0  0  0  0
  188.2560  173.9260  140.2950 C   0  0  0  0  0  2  0  0  0  0  0  0
  188.9120  177.2940  146.8740 C   0  0  0  0  0  3  0  0  0  0  0  0
  188.3160  175.2900  140.9660 C   0  0  0  0  0  2  0  0  0  0  0  0
  191.1920  174.3010  141.6570 C   0  0  1  0  0  3  0  0  0  0  0  0
  190.7820  175.9350  146.1340 C   0  0  0  0  0  3  0  0  0  0  0  0
  190.6960  174.7740  143.8860 C   0  0  2  0  0  3  0  0  0  0  0  0
  191.4580  172.0460  140.7220 N   0  0  0  0  0  2  0  0  0  0  0  0
  191.6070  172.1570  139.2810 C   0  0  0  0  0  2  0  0  0  0  0  0
  194.9350  173.1870  139.8960 C   0  0  0  0  0  2  0  0  0  0  0  0
  193.1250  173.9850  138.5900 C   0  0  0  0  0  2  0  0  0  0  0  0
  193.0400  172.5190  138.9380 C   0  0  1  0  0  3  0  0  0  0  0  0
  194.4080  174.4310  139.2220 C   0  0  0  0  0  2  0  0  0  0  0  0
  193.8770  172.2760  140.0360 O   0  0  0  0  0  0  0  0  0  0  0  0
  1 26  1  0  0  0  0
  2 27  1  0  0  0  0
  3  7  1  1  0  0  0
  3 16  1  0  0  0  0
  4 23  2  0  0  0  0
  5 11  1  1  0  0  0
  5 15  1  0  0  0  0
  6 19  1  0  0  0  0
  9 27  1  0  0  0  0
 10 22  1  0  0  0  0
 10 17  1  0  0  0  0
 12  8  1  0  0  0  0
 13  9  1  0  0  0  0
 13 20  1  0  0  0  0
 14  2  1  0  0  0  0
 15  4  1  0  0  0  0
 15 12  1  0  0  0  0
 16  8  2  0  0  0  0
 17 25  1  0  0  0  0
 18  1  2  0  0  0  0
 18  4  1  0  0  0  0
 19  5  1  0  0  0  0
 19  3  1  0  0  0  0
 20 11  1  0  0  0  0
 20 18  1  0  0  0  0
 22 24  1  0  0  0  0
 23 21  1  0  0  0  0
 24 13  1  0  0  0  0
 25  9  1  0  0  0  0
 25 14  1  0  0  0  0
 26 21  2  0  0  0  0
 27  1  1  0  0  0  0
 28 17  1  0  0  0  0
 29 28  1  0  0  0  0
 30 34  1  0  0  0  0
 31 32  1  0  0  0  0
 31 33  1  0  0  0  0
 32 29  1  0  0  0  0
 32 34  1  0  0  0  0
 33 30  1  0  0  0  0
M  END
>  <MODEL>
3

>  <REMARK>
 VINA RESULT:      -9.0      1.389      1.852
  Name = 
  3 active torsions:
  status: ('A' for Active; 'I' for Inactive)
    1  A    between atoms: C_17  and  N_28
    2  A    between atoms: N_28  and  C_29
    3  A    between atoms: C_29  and  C_32
                            x       y       z     vdW  Elec       q    Type
                         _______ _______ _______ _____ _____    ______ ____

>  <TORSDO>
F 3

$$$$
=
 OpenBabel11112418063D

 34 40  0  0  1  0  0  0  0  0999 V2000
  189.6520  175.2270  142.6900 C   0  0  0  0  0  0  0  0  0  0  0  0
  191.7040  173.9040  142.4650 O   0  0  0  0  0  0  0  0  0  0  0  0
  185.2760  178.5810  146.3340 C   0  0  2  0  0  3  0  0  0  0  0  0
  187.5610  176.3870  143.1880 C   0  0  0  0  0  0  0  0  0  0  0  0
  187.3930  177.3560  145.5150 C   0  0  2  0  0  3  0  0  0  0  0  0
  187.2560  178.2930  147.8360 C   0  0  0  0  0  1  0  0  0  0  0  0
  184.5670  177.2460  146.5200 C   0  0  0  0  0  1  0  0  0  0  0  0
  185.3020  179.3110  143.8880 C   0  0  0  0  0  3  0  0  0  0  0  0
  191.2340  174.8380  144.5310 C   0  0  2  0  0  3  0  0  0  0  0  0
  193.6210  175.6500  146.5140 C   0  0  0  0  0  2  0  0  0  0  0  0
  188.7920  177.5070  145.4200 O   0  0  0  0  0  0  0  0  0  0  0  0
  186.6030  178.6620  143.4980 C   0  0  0  0  0  2  0  0  0  0  0  0
  190.8030  176.1430  145.2040 C   0  0  1  0  0  3  0  0  0  0  0  0
  192.8680  173.7220  143.2470 C   0  0  0  0  0  2  0  0  0  0  0  0
  186.7480  177.2710  144.1030 C   0  0  1  0  0  3  0  0  0  0  0  0
  184.7560  179.3050  145.1170 C   0  0  0  0  0  3  0  0  0  0  0  0
  193.6760  175.3810  145.0120 C   0  0  2  0  0  3  0  0  0  0  0  0
  188.8450  175.9740  143.5750 C   0  0  0  0  0  0  0  0  0  0  0  0
  186.8060  178.4710  146.3960 C   0  0  2  0  0  3  0  0  0  0  0  0
  189.2820  176.2570  145.0060 C   0  0  2  0  0  3  0  0  0  0  0  0
  187.8700  175.2820  141.0480 C   0  0  0  0  0  3  0  0  0  0  0  0
  192.5600  176.6810  146.8780 C   0  0  0  0  0  2  0  0  0  0  0  0
  187.0730  176.0280  141.9250 C   0  0  0  0  0  3  0  0  0  0  0  0
  191.1500  176.1420  146.6830 C   0  0  0  0  0  2  0  0  0  0  0  0
  192.6400  174.3060  144.6490 C   0  0  1  0  0  3  0  0  0  0  0  0
  189.1640  174.9020  141.4190 C   0  0  0  0  0  3  0  0  0  0  0  0
  191.0930  175.0120  143.0530 C   0  0  2  0  0  3  0  0  0  0  0  0
  195.0160  174.9260  144.6760 N   0  0  0  0  0  2  0  0  0  0  0  0
  195.6640  174.5580  145.9230 C   0  0  0  0  0  2  0  0  0  0  0  0
  197.9410  172.6290  144.0220 C   0  0  0  0  0  2  0  0  0  0  0  0
  196.8090  172.3710  146.0890 C   0  0  0  0  0  2  0  0  0  0  0  0
  196.9480  173.8030  145.6330 C   0  0  1  0  0  3  0  0  0  0  0  0
  197.4910  171.5820  145.0130 C   0  0  0  0  0  2  0  0  0  0  0  0
  197.2100  173.8040  144.2550 O   0  0  0  0  0  0  0  0  0  0  0  0
  1 27  1  0  0  0  0
  1 18  1  0  0  0  0
  2 27  1  0  0  0  0
  2 14  1  0  0  0  0
  3 19  1  0  0  0  0
  3  7  1  6  0  0  0
  4 18  2  0  0  0  0
  4 15  1  0  0  0  0
  5 11  1  6  0  0  0
  5 19  1  0  0  0  0
  8 16  2  0  0  0  0
  9 25  1  0  0  0  0
  9 13  1  0  0  0  0
 10 22  1  0  0  0  0
 12  8  1  0  0  0  0
 12 15  1  0  0  0  0
 13 24  1  0  0  0  0
 14 25  1  0  0  0  0
 15  5  1  0  0  0  0
 16  3  1  0  0  0  0
 17 10  1  0  0  0  0
 18 20  1  0  0  0  0
 19  6  1  0  0  0  0
 20 13  1  0  0  0  0
 20 11  1  0  0  0  0
 21 26  1  0  0  0  0
 21 23  2  0  0  0  0
 23  4  1  0  0  0  0
 24 22  1  0  0  0  0
 25 17  1  0  0  0  0
 26  1  2  0  0  0  0
 27  9  1  0  0  0  0
 28 17  1  0  0  0  0
 28 29  1  0  0  0  0
 30 34  1  0  0  0  0
 30 33  1  0  0  0  0
 32 29  1  0  0  0  0
 32 31  1  0  0  0  0
 33 31  1  0  0  0  0
 34 32  1  0  0  0  0
M  END
>  <MODEL>
4

>  <REMARK>
 VINA RESULT:      -8.9      2.928      5.624
  Name = 
  3 active torsions:
  status: ('A' for Active; 'I' for Inactive)
    1  A    between atoms: C_17  and  N_28
    2  A    between atoms: N_28  and  C_29
    3  A    between atoms: C_29  and  C_32
                            x       y       z     vdW  Elec       q    Type
                         _______ _______ _______ _____ _____    ______ ____

>  <TORSDO>
F 3

$$$$
=
 OpenBabel11112418063D

 34 40  0  0  1  0  0  0  0  0999 V2000
  189.5930  175.2910  142.7140 C   0  0  0  0  0  0  0  0  0  0  0  0
  191.6720  174.0100  142.5000 O   0  0  0  0  0  0  0  0  0  0  0  0
  185.1250  178.5440  146.3380 C   0  0  2  0  0  3  0  0  0  0  0  0
  187.4760  176.4070  143.2020 C   0  0  0  0  0  0  0  0  0  0  0  0
  187.2720  177.3650  145.5310 C   0  0  2  0  0  3  0  0  0  0  0  0
  187.1000  178.2910  147.8530 C   0  0  0  0  0  1  0  0  0  0  0  0
  184.4410  177.1950  146.5150 C   0  0  0  0  0  1  0  0  0  0  0  0
  185.1540  179.2820  143.8950 C   0  0  0  0  0  3  0  0  0  0  0  0
  191.1700  174.9270  144.5660 C   0  0  2  0  0  3  0  0  0  0  0  0
  193.5260  175.7820  146.5680 C   0  0  0  0  0  2  0  0  0  0  0  0
  188.6680  177.5440  145.4460 O   0  0  0  0  0  0  0  0  0  0  0  0
  186.4700  178.6610  143.5120 C   0  0  0  0  0  2  0  0  0  0  0  0
  190.7080  176.2210  145.2390 C   0  0  1  0  0  3  0  0  0  0  0  0
  192.8350  173.8490  143.2890 C   0  0  0  0  0  2  0  0  0  0  0  0
  186.6390  177.2710  144.1130 C   0  0  1  0  0  3  0  0  0  0  0  0
  184.5990  179.2610  145.1200 C   0  0  0  0  0  3  0  0  0  0  0  0
  193.5960  175.5180  145.0660 C   0  0  2  0  0  3  0  0  0  0  0  0
  188.7640  176.0180  143.5970 C   0  0  0  0  0  0  0  0  0  0  0  0
  186.6570  178.4650  146.4110 C   0  0  2  0  0  3  0  0  0  0  0  0
  189.1860  176.3060  145.0310 C   0  0  2  0  0  3  0  0  0  0  0  0
  187.8210  175.3150  141.0600 C   0  0  0  0  0  3  0  0  0  0  0  0
  192.4410  176.7900  146.9270 C   0  0  0  0  0  2  0  0  0  0  0  0
  187.0040  176.0420  141.9340 C   0  0  0  0  0  3  0  0  0  0  0  0
  191.0450  176.2220  146.7210 C   0  0  0  0  0  2  0  0  0  0  0  0
  192.5850  174.4240  144.6920 C   0  0  1  0  0  3  0  0  0  0  0  0
  189.1200  174.9600  141.4390 C   0  0  0  0  0  3  0  0  0  0  0  0
  191.0350  175.1030  143.0870 C   0  0  2  0  0  3  0  0  0  0  0  0
  194.9480  175.0910  144.7370 N   0  0  0  0  0  2  0  0  0  0  0  0
  195.6890  176.2820  144.3580 C   0  0  0  0  0  2  0  0  0  0  0  0
  196.8160  176.0410  141.0130 C   0  0  0  0  0  2  0  0  0  0  0  0
  196.4510  174.5210  142.7960 C   0  0  0  0  0  2  0  0  0  0  0  0
  196.6510  175.9530  143.2320 C   0  0  1  0  0  3  0  0  0  0  0  0
  196.5770  174.5780  141.3040 C   0  0  0  0  0  2  0  0  0  0  0  0
  196.4110  176.7870  142.1300 O   0  0  0  0  0  0  0  0  0  0  0  0
  1 27  1  0  0  0  0
  1 18  1  0  0  0  0
  2 27  1  0  0  0  0
  2 14  1  0  0  0  0
  3 19  1  0  0  0  0
  3  7  1  6  0  0  0
  4 18  2  0  0  0  0
  4 15  1  0  0  0  0
  5 11  1  6  0  0  0
  5 19  1  0  0  0  0
  8 16  2  0  0  0  0
  9 25  1  0  0  0  0
  9 13  1  0  0  0  0
 10 22  1  0  0  0  0
 12  8  1  0  0  0  0
 12 15  1  0  0  0  0
 13 24  1  0  0  0  0
 14 25  1  0  0  0  0
 15  5  1  0  0  0  0
 16  3  1  0  0  0  0
 17 10  1  0  0  0  0
 18 20  1  0  0  0  0
 19  6  1  0  0  0  0
 20 13  1  0  0  0  0
 20 11  1  0  0  0  0
 21 26  1  0  0  0  0
 21 23  2  0  0  0  0
 23  4  1  0  0  0  0
 24 22  1  0  0  0  0
 25 17  1  0  0  0  0
 26  1  2  0  0  0  0
 27  9  1  0  0  0  0
 28 17  1  0  0  0  0
 29 28  1  0  0  0  0
 30 33  1  0  0  0  0
 30 34  1  0  0  0  0
 31 32  1  0  0  0  0
 32 29  1  0  0  0  0
 33 31  1  0  0  0  0
 34 32  1  0  0  0  0
M  END
>  <MODEL>
5

>  <REMARK>
 VINA RESULT:      -8.8      2.953      5.334
  Name = 
  3 active torsions:
  status: ('A' for Active; 'I' for Inactive)
    1  A    between atoms: C_17  and  N_28
    2  A    between atoms: N_28  and  C_29
    3  A    between atoms: C_29  and  C_32
                            x       y       z     vdW  Elec       q    Type
                         _______ _______ _______ _____ _____    ______ ____

>  <TORSDO>
F 3

$$$$
=
 OpenBabel11112418063D

 34 40  0  0  1  0  0  0  0  0999 V2000
  192.4070  176.0290  145.2710 C   0  0  0  0  0  0  0  0  0  0  0  0
  190.5050  177.5740  145.1960 O   0  0  0  0  0  0  0  0  0  0  0  0
  194.9790  169.9610  144.7920 C   0  0  2  0  0  3  0  0  0  0  0  0
  194.1010  174.2830  145.4840 C   0  0  0  0  0  0  0  0  0  0  0  0
  193.4130  172.0040  144.6380 C   0  0  2  0  0  3  0  0  0  0  0  0
  192.6920  169.7540  143.8000 C   0  0  0  0  0  1  0  0  0  0  0  0
  194.6710  169.8270  146.2780 C   0  0  0  0  0  1  0  0  0  0  0  0
  196.6850  171.8040  144.3370 C   0  0  0  0  0  3  0  0  0  0  0  0
  190.1430  175.3760  144.5670 C   0  0  2  0  0  3  0  0  0  0  0  0
  187.8770  174.6660  142.4110 C   0  0  0  0  0  2  0  0  0  0  0  0
  192.6160  172.7210  143.7210 O   0  0  0  0  0  0  0  0  0  0  0  0
  195.7130  172.9370  144.1500 C   0  0  0  0  0  2  0  0  0  0  0  0
  190.7160  174.2510  143.7030 C   0  0  1  0  0  3  0  0  0  0  0  0
  189.2100  177.5410  144.6290 C   0  0  0  0  0  2  0  0  0  0  0  0
  194.5780  172.8870  145.1660 C   0  0  1  0  0  3  0  0  0  0  0  0
  196.3640  170.5200  144.5750 C   0  0  0  0  0  3  0  0  0  0  0  0
  188.5360  176.0130  142.6970 C   0  0  2  0  0  3  0  0  0  0  0  0
  192.8280  174.6970  145.0640 C   0  0  0  0  0  0  0  0  0  0  0  0
  193.8770  170.6820  144.0040 C   0  0  2  0  0  3  0  0  0  0  0  0
  191.8890  173.6450  144.4910 C   0  0  2  0  0  3  0  0  0  0  0  0
  194.5230  176.5120  146.3500 C   0  0  0  0  0  3  0  0  0  0  0  0
  188.8990  173.5660  142.1510 C   0  0  0  0  0  2  0  0  0  0  0  0
  194.9410  175.1930  146.1380 C   0  0  0  0  0  3  0  0  0  0  0  0
  189.6660  173.1910  143.4100 C   0  0  0  0  0  2  0  0  0  0  0  0
  188.8790  176.1060  144.1910 C   0  0  1  0  0  3  0  0  0  0  0  0
  193.2690  176.9360  145.8980 C   0  0  0  0  0  3  0  0  0  0  0  0
  191.1430  176.4860  144.6010 C   0  0  2  0  0  3  0  0  0  0  0  0
  187.6050  177.0680  142.3250 N   0  0  0  0  0  2  0  0  0  0  0  0
  186.2680  176.5700  142.6020 C   0  0  0  0  0  2  0  0  0  0  0  0
  185.5660  179.7910  143.8880 C   0  0  0  0  0  2  0  0  0  0  0  0
  185.4860  177.5730  144.7230 C   0  0  0  0  0  2  0  0  0  0  0  0
  185.4260  177.6720  143.2180 C   0  0  1  0  0  3  0  0  0  0  0  0
  185.5650  179.0000  145.1740 C   0  0  0  0  0  2  0  0  0  0  0  0
  185.9190  178.9280  142.8380 O   0  0  0  0  0  0  0  0  0  0  0  0
  1 26  1  0  0  0  0
  3  7  1  1  0  0  0
  4 23  2  0  0  0  0
  5 11  1  6  0  0  0
  5 15  1  0  0  0  0
  6 19  1  0  0  0  0
  8 16  2  0  0  0  0
  9 27  1  0  0  0  0
 10 17  1  0  0  0  0
 11 20  1  0  0  0  0
 12  8  1  0  0  0  0
 12 15  1  0  0  0  0
 13 20  1  0  0  0  0
 13  9  1  0  0  0  0
 14  2  1  0  0  0  0
 15  4  1  0  0  0  0
 16  3  1  0  0  0  0
 17 25  1  0  0  0  0
 18  1  2  0  0  0  0
 18  4  1  0  0  0  0
 19  5  1  0  0  0  0
 19  3  1  0  0  0  0
 20 18  1  0  0  0  0
 22 10  1  0  0  0  0
 22 24  1  0  0  0  0
 23 21  1  0  0  0  0
 24 13  1  0  0  0  0
 25  9  1  0  0  0  0
 25 14  1  0  0  0  0
 26 21  2  0  0  0  0
 27  2  1  0  0  0  0
 27  1  1  0  0  0  0
 28 29  1  0  0  0  0
 28 17  1  0  0  0  0
 29 32  1  0  0  0  0
 30 33  1  0  0  0  0
 31 33  1  0  0  0  0
 32 31  1  0  0  0  0
 34 32  1  0  0  0  0
 34 30  1  0  0  0  0
M  END
>  <MODEL>
6

>  <REMARK>
 VINA RESULT:      -8.6      3.170      8.435
  Name = 
  3 active torsions:
  status: ('A' for Active; 'I' for Inactive)
    1  A    between atoms: C_17  and  N_28
    2  A    between atoms: N_28  and  C_29
    3  A    between atoms: C_29  and  C_32
                            x       y       z     vdW  Elec       q    Type
                         _______ _______ _______ _____ _____    ______ ____

>  <TORSDO>
F 3

$$$$
=
 OpenBabel11112418063D

 34 40  0  0  1  0  0  0  0  0999 V2000
  190.3000  172.7670  142.7990 C   0  0  0  0  0  0  0  0  0  0  0  0
  188.1850  173.7720  142.0720 O   0  0  0  0  0  0  0  0  0  0  0  0
  196.3850  173.2440  145.3340 C   0  0  2  0  0  3  0  0  0  0  0  0
  192.5480  172.0270  143.4030 C   0  0  0  0  0  0  0  0  0  0  0  0
  193.9530  173.7330  144.6280 C   0  0  2  0  0  3  0  0  0  0  0  0
  195.3220  175.4540  145.8300 C   0  0  0  0  0  1  0  0  0  0  0  0
  196.8520  173.4550  143.9000 C   0  0  0  0  0  1  0  0  0  0  0  0
  195.3460  170.9360  145.6660 C   0  0  0  0  0  3  0  0  0  0  0  0
  189.7230  175.1330  143.1410 C   0  0  2  0  0  3  0  0  0  0  0  0
  188.7260  177.6460  144.8670 C   0  0  0  0  0  2  0  0  0  0  0  0
  192.7230  174.1950  145.1410 O   0  0  0  0  0  0  0  0  0  0  0  0
  193.9230  171.3080  145.3470 C   0  0  0  0  0  2  0  0  0  0  0  0
  190.6400  175.2000  144.3640 C   0  0  1  0  0  3  0  0  0  0  0  0
  187.5110  174.9860  142.3360 C   0  0  0  0  0  2  0  0  0  0  0  0
  193.8350  172.2550  144.1570 C   0  0  1  0  0  3  0  0  0  0  0  0
  196.3930  171.7790  145.6950 C   0  0  0  0  0  3  0  0  0  0  0  0
  187.9290  176.4310  144.4000 C   0  0  2  0  0  3  0  0  0  0  0  0
  191.5450  173.0080  143.4210 C   0  0  0  0  0  0  0  0  0  0  0  0
  195.0700  173.9660  145.6590 C   0  0  2  0  0  3  0  0  0  0  0  0
  191.8850  174.3630  144.0250 C   0  0  2  0  0  3  0  0  0  0  0  0
  191.0850  170.5790  142.1150 C   0  0  0  0  0  3  0  0  0  0  0  0
  189.9970  177.2530  145.6100 C   0  0  0  0  0  2  0  0  0  0  0  0
  192.3160  170.8160  142.7370 C   0  0  0  0  0  3  0  0  0  0  0  0
  191.0310  176.6340  144.6810 C   0  0  0  0  0  2  0  0  0  0  0  0
  188.4670  175.9600  143.0400 C   0  0  1  0  0  3  0  0  0  0  0  0
  190.0710  171.5410  142.1650 C   0  0  0  0  0  3  0  0  0  0  0  0
  189.1840  173.7420  143.0450 C   0  0  2  0  0  3  0  0  0  0  0  0
  186.5300  176.8160  144.2840 N   0  0  0  0  0  2  0  0  0  0  0  0
  186.4840  178.2670  144.3400 C   0  0  0  0  0  2  0  0  0  0  0  0
  183.7770  178.1660  142.0650 C   0  0  0  0  0  2  0  0  0  0  0  0
  186.1120  178.5460  141.9100 C   0  0  0  0  0  2  0  0  0  0  0  0
  185.5330  178.7930  143.2820 C   0  0  1  0  0  3  0  0  0  0  0  0
  184.9270  178.1380  141.0880 C   0  0  0  0  0  2  0  0  0  0  0  0
  184.3000  178.1310  143.3670 O   0  0  0  0  0  0  0  0  0  0  0  0
  1 27  1  0  0  0  0
  1 18  1  0  0  0  0
  2 14  1  0  0  0  0
  2 27  1  0  0  0  0
  3  7  1  6  0  0  0
  3 19  1  0  0  0  0
  3 16  1  0  0  0  0
  4 18  2  0  0  0  0
  4 15  1  0  0  0  0
  5 11  1  1  0  0  0
  5 19  1  0  0  0  0
  8 16  2  0  0  0  0
  9 13  1  0  0  0  0
 10 22  1  0  0  0  0
 12  8  1  0  0  0  0
 13 24  1  0  0  0  0
 14 25  1  0  0  0  0
 15  5  1  0  0  0  0
 15 12  1  0  0  0  0
 17 10  1  0  0  0  0
 18 20  1  0  0  0  0
 19  6  1  0  0  0  0
 20 13  1  0  0  0  0
 20 11  1  0  0  0  0
 21 26  1  0  0  0  0
 21 23  2  0  0  0  0
 23  4  1  0  0  0  0
 24 22  1  0  0  0  0
 25  9  1  0  0  0  0
 25 17  1  0  0  0  0
 26  1  2  0  0  0  0
 27  9  1  0  0  0  0
 28 29  1  0  0  0  0
 28 17  1  0  0  0  0
 30 34  1  0  0  0  0
 31 32  1  0  0  0  0
 32 34  1  0  0  0  0
 32 29  1  0  0  0  0
 33 31  1  0  0  0  0
 33 30  1  0  0  0  0
M  END
>  <MODEL>
7

>  <REMARK>
 VINA RESULT:      -8.4      2.987      8.526
  Name = 
  3 active torsions:
  status: ('A' for Active; 'I' for Inactive)
    1  A    between atoms: C_17  and  N_28
    2  A    between atoms: N_28  and  C_29
    3  A    between atoms: C_29  and  C_32
                            x       y       z     vdW  Elec       q    Type
                         _______ _______ _______ _____ _____    ______ ____

>  <TORSDO>
F 3

$$$$
=
 OpenBabel11112418063D

 34 40  0  0  1  0  0  0  0  0999 V2000
  191.5190  176.0530  145.8700 C   0  0  0  0  0  0  0  0  0  0  0  0
  193.6810  175.2240  145.0630 O   0  0  0  0  0  0  0  0  0  0  0  0
  185.2780  177.9620  144.8290 C   0  0  2  0  0  3  0  0  0  0  0  0
  189.3550  177.0520  146.4040 C   0  0  0  0  0  0  0  0  0  0  0  0
  187.6290  176.9360  144.5630 C   0  0  2  0  0  3  0  0  0  0  0  0
  185.9460  176.8130  142.7090 C   0  0  0  0  0  1  0  0  0  0  0  0
  185.8530  179.3550  144.6040 C   0  0  0  0  0  1  0  0  0  0  0  0
  185.6840  177.1390  147.2110 C   0  0  0  0  0  3  0  0  0  0  0  0
  191.9260  175.3250  143.5560 C   0  0  2  0  0  3  0  0  0  0  0  0
  191.7810  173.2600  141.1070 C   0  0  0  0  0  2  0  0  0  0  0  0
  188.2790  175.7380  144.1980 O   0  0  0  0  0  0  0  0  0  0  0  0
  187.0050  176.4620  146.9680 C   0  0  0  0  0  2  0  0  0  0  0  0
  190.4480  174.9670  143.3890 C   0  0  1  0  0  3  0  0  0  0  0  0
  194.1220  174.5410  143.9060 C   0  0  0  0  0  2  0  0  0  0  0  0
  187.9050  177.2830  146.0530 C   0  0  1  0  0  3  0  0  0  0  0  0
  184.9280  177.7500  146.2810 C   0  0  0  0  0  3  0  0  0  0  0  0
  192.5960  173.1610  142.3940 C   0  0  2  0  0  3  0  0  0  0  0  0
  190.1880  176.3590  145.5130 C   0  0  0  0  0  0  0  0  0  0  0  0
  186.1340  176.8440  144.2160 C   0  0  2  0  0  3  0  0  0  0  0  0
  189.6460  176.0550  144.1230 C   0  0  2  0  0  3  0  0  0  0  0  0
  191.1860  177.1700  147.9950 C   0  0  0  0  0  3  0  0  0  0  0  0
  190.3030  173.5150  141.3770 C   0  0  0  0  0  2  0  0  0  0  0  0
  189.8640  177.4660  147.6420 C   0  0  0  0  0  3  0  0  0  0  0  0
  190.0560  174.9140  141.9210 C   0  0  0  0  0  2  0  0  0  0  0  0
  193.0160  174.5690  142.8410 C   0  0  1  0  0  3  0  0  0  0  0  0
  192.0050  176.4460  147.1230 C   0  0  0  0  0  3  0  0  0  0  0  0
  192.2920  175.1130  144.9900 C   0  0  2  0  0  3  0  0  0  0  0  0
  193.7710  172.3420  142.1320 N   0  0  0  0  0  2  0  0  0  0  0  0
  194.0760  172.4790  140.7180 C   0  0  0  0  0  2  0  0  0  0  0  0
  197.1950  173.8200  141.7130 C   0  0  0  0  0  2  0  0  0  0  0  0
  195.4930  174.4350  140.1810 C   0  0  0  0  0  2  0  0  0  0  0  0
  195.5010  172.9700  140.5440 C   0  0  1  0  0  3  0  0  0  0  0  0
  196.6430  175.0040  140.9560 C   0  0  0  0  0  2  0  0  0  0  0  0
  196.2150  172.8160  141.7410 O   0  0  0  0  0  0  0  0  0  0  0  0
  1 26  1  0  0  0  0
  3  7  1  1  0  0  0
  3 16  1  0  0  0  0
  4 23  2  0  0  0  0
  5 11  1  1  0  0  0
  5 15  1  0  0  0  0
  6 19  1  0  0  0  0
  9 27  1  0  0  0  0
 10 22  1  0  0  0  0
 10 17  1  0  0  0  0
 12  8  1  0  0  0  0
 13  9  1  0  0  0  0
 13 20  1  0  0  0  0
 14  2  1  0  0  0  0
 15  4  1  0  0  0  0
 15 12  1  0  0  0  0
 16  8  2  0  0  0  0
 17 25  1  0  0  0  0
 18  1  2  0  0  0  0
 18  4  1  0  0  0  0
 19  5  1  0  0  0  0
 19  3  1  0  0  0  0
 20 11  1  0  0  0  0
 20 18  1  0  0  0  0
 22 24  1  0  0  0  0
 23 21  1  0  0  0  0
 24 13  1  0  0  0  0
 25  9  1  0  0  0  0
 25 14  1  0  0  0  0
 26 21  2  0  0  0  0
 27  2  1  0  0  0  0
 27  1  1  0  0  0  0
 28 17  1  0  0  0  0
 29 28  1  0  0  0  0
 30 34  1  0  0  0  0
 31 32  1  0  0  0  0
 31 33  1  0  0  0  0
 32 29  1  0  0  0  0
 32 34  1  0  0  0  0
 33 30  1  0  0  0  0
M  END
>  <MODEL>
8

>  <REMARK>
 VINA RESULT:      -8.4      2.340      3.333
  Name = 
  3 active torsions:
  status: ('A' for Active; 'I' for Inactive)
    1  A    between atoms: C_17  and  N_28
    2  A    between atoms: N_28  and  C_29
    3  A    between atoms: C_29  and  C_32
                            x       y       z     vdW  Elec       q    Type
                         _______ _______ _______ _____ _____    ______ ____

>  <TORSDO>
F 3

$$$$
=
 OpenBabel11112418063D

 34 40  0  0  1  0  0  0  0  0999 V2000
  192.3370  176.0220  145.4340 C   0  0  0  0  0  0  0  0  0  0  0  0
  190.1910  176.2210  146.6030 O   0  0  0  0  0  0  0  0  0  0  0  0
  196.0250  173.8590  140.3950 C   0  0  2  0  0  3  0  0  0  0  0  0
  194.3840  175.5260  144.1970 C   0  0  0  0  0  0  0  0  0  0  0  0
  194.0420  174.5350  141.8980 C   0  0  2  0  0  3  0  0  0  0  0  0
  193.6650  173.5430  139.6270 C   0  0  0  0  0  1  0  0  0  0  0  0
  196.2360  172.6010  141.2270 C   0  0  0  0  0  1  0  0  0  0  0  0
  197.0040  175.9250  141.5300 C   0  0  0  0  0  3  0  0  0  0  0  0
  190.1970  175.2510  144.5000 C   0  0  2  0  0  3  0  0  0  0  0  0
  187.6160  175.4820  142.6100 C   0  0  0  0  0  2  0  0  0  0  0  0
  192.8500  175.2910  141.8850 O   0  0  0  0  0  0  0  0  0  0  0  0
  195.7770  176.3320  142.3000 C   0  0  0  0  0  2  0  0  0  0  0  0
  190.7270  175.4410  143.0780 C   0  0  1  0  0  3  0  0  0  0  0  0
  188.8330  176.0940  146.2300 C   0  0  0  0  0  2  0  0  0  0  0  0
  195.0630  175.1310  142.9090 C   0  0  1  0  0  3  0  0  0  0  0  0
  197.0940  174.8840  140.6840 C   0  0  0  0  0  3  0  0  0  0  0  0
  187.9830  176.3200  143.8320 C   0  0  2  0  0  3  0  0  0  0  0  0
  192.9830  175.5630  144.2660 C   0  0  0  0  0  0  0  0  0  0  0  0
  194.5920  174.4040  140.4680 C   0  0  2  0  0  3  0  0  0  0  0  0
  192.1980  174.9910  143.0930 C   0  0  2  0  0  3  0  0  0  0  0  0
  194.5000  176.3670  146.4720 C   0  0  0  0  0  3  0  0  0  0  0  0
  188.7410  175.4330  141.5830 C   0  0  0  0  0  2  0  0  0  0  0  0
  195.1390  175.9190  145.3100 C   0  0  0  0  0  3  0  0  0  0  0  0
  189.9290  174.6210  142.0780 C   0  0  0  0  0  2  0  0  0  0  0  0
  188.7410  175.4440  144.8410 C   0  0  1  0  0  3  0  0  0  0  0  0
  193.1040  176.4410  146.5270 C   0  0  0  0  0  3  0  0  0  0  0  0
  190.8560  176.2660  145.3780 C   0  0  2  0  0  3  0  0  0  0  0  0
  186.7560  176.8290  144.4260 N   0  0  0  0  0  2  0  0  0  0  0  0
  186.6810  178.2420  144.0960 C   0  0  0  0  0  2  0  0  0  0  0  0
  185.0060  178.6660  147.1840 C   0  0  0  0  0  2  0  0  0  0  0  0
  184.4230  178.8660  144.8940 C   0  0  0  0  0  2  0  0  0  0  0  0
  185.9030  178.9800  145.1700 C   0  0  1  0  0  3  0  0  0  0  0  0
  183.8180  178.6700  146.2510 C   0  0  0  0  0  2  0  0  0  0  0  0
  186.1620  178.4170  146.4280 O   0  0  0  0  0  0  0  0  0  0  0  0
  1 26  1  0  0  0  0
  3 19  1  0  0  0  0
  3 16  1  0  0  0  0
  3  7  1  1  0  0  0
  4 18  1  0  0  0  0
  4 23  2  0  0  0  0
  5 11  1  6  0  0  0
  5 15  1  0  0  0  0
  6 19  1  0  0  0  0
  8 12  1  0  0  0  0
  9 25  1  0  0  0  0
  9 27  1  0  0  0  0
 10 17  1  0  0  0  0
 11 20  1  0  0  0  0
 12 15  1  0  0  0  0
 13 20  1  0  0  0  0
 13  9  1  0  0  0  0
 14  2  1  0  0  0  0
 15  4  1  0  0  0  0
 16  8  2  0  0  0  0
 17 28  1  0  0  0  0
 17 25  1  0  0  0  0
 18  1  2  0  0  0  0
 19  5  1  0  0  0  0
 20 18  1  0  0  0  0
 21 26  2  0  0  0  0
 22 24  1  0  0  0  0
 22 10  1  0  0  0  0
 23 21  1  0  0  0  0
 24 13  1  0  0  0  0
 25 14  1  0  0  0  0
 27  1  1  0  0  0  0
 27  2  1  0  0  0  0
 29 28  1  0  0  0  0
 29 32  1  0  0  0  0
 31 32  1  0  0  0  0
 31 33  1  0  0  0  0
 32 34  1  0  0  0  0
 33 30  1  0  0  0  0
 34 30  1  0  0  0  0
M  END
>  <MODEL>
9

>  <REMARK>
 VINA RESULT:      -8.2      3.043      8.653
  Name = 
  3 active torsions:
  status: ('A' for Active; 'I' for Inactive)
    1  A    between atoms: C_17  and  N_28
    2  A    between atoms: N_28  and  C_29
    3  A    between atoms: C_29  and  C_32
                            x       y       z     vdW  Elec       q    Type
                         _______ _______ _______ _____ _____    ______ ____

>  <TORSDO>
F 3

$$$$
