=
 OpenBabel11112417053D

 31 35  0  0  1  0  0  0  0  0999 V2000
  184.7970  178.2220  146.8030 C   0  0  0  0  0  0  0  0  0  0  0  0
  187.3610  175.8710  145.2590 C   0  0  2  0  0  3  0  0  0  0  0  0
  187.4390  176.2330  143.7810 C   0  0  0  0  0  0  0  0  0  0  0  0
  186.3980  177.2030  141.8030 C   0  0  0  0  0  0  0  0  0  0  0  0
  186.7600  176.9650  146.1140 C   0  0  0  0  0  0  0  0  0  0  0  0
  185.5940  179.0330  147.6110 C   0  0  0  0  0  3  0  0  0  0  0  0
  186.3840  176.9340  143.1720 C   0  0  0  0  0  3  0  0  0  0  0  0
  189.6310  176.5840  146.1080 C   0  0  2  0  0  3  0  0  0  0  0  0
  183.4610  178.4350  146.7350 F   0  0  0  0  0  0  0  0  0  0  0  0
  189.6630  175.0060  143.5360 C   0  0  0  0  0  2  0  0  0  0  0  0
  185.3780  177.8940  141.2390 F   0  0  0  0  0  0  0  0  0  0  0  0
  189.0180  177.4930  147.1720 C   0  0  0  0  0  2  0  0  0  0  0  0
  188.7060  175.3890  145.8320 C   0  0  2  0  0  3  0  0  0  0  0  0
  185.3770  177.1900  146.0610 C   0  0  0  0  0  3  0  0  0  0  0  0
  187.4580  176.7560  141.0140 C   0  0  0  0  0  3  0  0  0  0  0  0
  187.5630  177.7830  146.9410 C   0  0  0  0  0  0  0  0  0  0  0  0
  186.9700  178.8070  147.6880 C   0  0  0  0  0  3  0  0  0  0  0  0
  189.3390  174.3690  144.8830 C   0  0  0  0  0  2  0  0  0  0  0  0
  188.4920  175.7510  142.9640 C   0  0  0  0  0  0  0  0  0  0  0  0
  188.5020  176.0340  141.5950 C   0  0  0  0  0  3  0  0  0  0  0  0
  192.1140  177.1280  144.8170 O   0  0  0  0  0  0  0  0  0  0  0  0
  192.1450  176.4390  145.8730 C   0  0  0  0  0  0  0  0  0  0  0  0
  190.9350  176.1240  146.5650 N   0  0  0  0  0  2  0  0  0  0  0  0
  195.6610  176.2140  144.4810 C   0  0  1  0  0  3  0  0  0  0  0  0
  194.4940  177.0380  146.5460 C   0  0  0  0  0  2  0  0  0  0  0  0
  193.0350  173.7450  145.4510 O   0  0  0  0  0  1  0  0  0  0  0  0
  196.1740  176.5960  143.2430 O   0  0  0  0  0  1  0  0  0  0  0  0
  195.0740  177.4330  145.1860 C   0  0  0  0  0  2  0  0  0  0  0  0
  194.0110  174.7270  145.6290 C   0  0  2  0  0  3  0  0  0  0  0  0
  193.4490  175.9250  146.4130 C   0  0  2  0  0  3  0  0  0  0  0  0
  194.5850  175.1510  144.2800 C   0  0  0  0  0  2  0  0  0  0  0  0
  1  6  1  0  0  0  0
  2  3  1  6  0  0  0
  2 13  1  0  0  0  0
  2  5  1  0  0  0  0
  4  7  2  0  0  0  0
  5 16  2  0  0  0  0
  6 17  2  0  0  0  0
  7  3  1  0  0  0  0
  8 23  1  1  0  0  0
  8 12  1  0  0  0  0
  9  1  1  0  0  0  0
 10 18  1  0  0  0  0
 11  4  1  0  0  0  0
 13 18  1  6  0  0  0
 13  8  1  0  0  0  0
 14  5  1  0  0  0  0
 14  1  2  0  0  0  0
 15 20  2  0  0  0  0
 15  4  1  0  0  0  0
 16 12  1  0  0  0  0
 16 17  1  0  0  0  0
 19 10  1  0  0  0  0
 19  3  2  0  0  0  0
 20 19  1  0  0  0  0
 21 22  2  0  0  0  0
 22 23  1  0  0  0  0
 24 27  1  6  0  0  0
 24 28  1  0  0  0  0
 28 25  1  0  0  0  0
 29 26  1  6  0  0  0
 29 30  1  0  0  0  0
 30 22  1  6  0  0  0
 30 25  1  0  0  0  0
 31 24  1  0  0  0  0
 31 29  1  0  0  0  0
M  END
>  <MODEL>
1

>  <REMARK>
 VINA RESULT:      -9.2      0.000      0.000
  Name = 
  2 active torsions:
  status: ('A' for Active; 'I' for Inactive)
    1  A    between atoms: C_5  and  C_30
    2  A    between atoms: C_10  and  N_16
                            x       y       z     vdW  Elec       q    Type
                         _______ _______ _______ _____ _____    ______ ____

>  <TORSDO>
F 2

$$$$
=
 OpenBabel11112417053D

 31 35  0  0  1  0  0  0  0  0999 V2000
  184.7770  177.8950  146.7860 C   0  0  0  0  0  0  0  0  0  0  0  0
  187.0830  176.0850  144.3590 C   0  0  2  0  0  3  0  0  0  0  0  0
  186.8560  176.7240  142.9940 C   0  0  0  0  0  0  0  0  0  0  0  0
  185.4100  177.9670  141.4760 C   0  0  0  0  0  0  0  0  0  0  0  0
  186.6170  176.9470  145.5110 C   0  0  0  0  0  0  0  0  0  0  0  0
  185.6830  178.5980  147.5800 C   0  0  0  0  0  3  0  0  0  0  0  0
  185.6750  177.4430  142.7430 C   0  0  0  0  0  3  0  0  0  0  0  0
  189.4440  176.7990  144.9020 C   0  0  2  0  0  3  0  0  0  0  0  0
  183.4460  178.0120  147.0090 F   0  0  0  0  0  0  0  0  0  0  0  0
  189.0370  175.7430  142.1040 C   0  0  0  0  0  2  0  0  0  0  0  0
  184.2730  178.6700  141.2590 F   0  0  0  0  0  0  0  0  0  0  0  0
  189.0150  177.4410  146.2200 C   0  0  0  0  0  2  0  0  0  0  0  0
  188.5330  175.6090  144.5660 C   0  0  2  0  0  3  0  0  0  0  0  0
  185.2420  177.0700  145.7590 C   0  0  0  0  0  3  0  0  0  0  0  0
  186.3130  177.7610  140.4330 C   0  0  0  0  0  3  0  0  0  0  0  0
  187.5320  177.6550  146.3230 C   0  0  0  0  0  0  0  0  0  0  0  0
  187.0560  178.4700  147.3560 C   0  0  0  0  0  3  0  0  0  0  0  0
  189.0090  174.8400  143.3330 C   0  0  0  0  0  2  0  0  0  0  0  0
  187.7480  176.4880  141.9190 C   0  0  0  0  0  0  0  0  0  0  0  0
  187.4790  177.0250  140.6560 C   0  0  0  0  0  3  0  0  0  0  0  0
  191.6790  178.1090  143.7110 O   0  0  0  0  0  0  0  0  0  0  0  0
  191.9060  177.0720  144.3920 C   0  0  0  0  0  0  0  0  0  0  0  0
  190.8300  176.3640  145.0090 N   0  0  0  0  0  2  0  0  0  0  0  0
  193.4010  173.6170  144.8160 C   0  0  1  0  0  3  0  0  0  0  0  0
  193.7270  175.6560  143.3870 C   0  0  0  0  0  2  0  0  0  0  0  0
  193.1070  176.6570  146.9630 O   0  0  0  0  0  1  0  0  0  0  0  0
  192.7900  172.3660  144.8790 O   0  0  0  0  0  1  0  0  0  0  0  0
  193.0770  174.2740  143.4770 C   0  0  0  0  0  2  0  0  0  0  0  0
  193.5550  175.8630  145.9060 C   0  0  2  0  0  3  0  0  0  0  0  0
  193.3070  176.5560  144.5550 C   0  0  2  0  0  3  0  0  0  0  0  0
  192.8970  174.4860  145.9650 C   0  0  0  0  0  2  0  0  0  0  0  0
  1  9  1  0  0  0  0
  1  6  1  0  0  0  0
  2  3  1  6  0  0  0
  2 13  1  0  0  0  0
  2  5  1  0  0  0  0
  4  7  2  0  0  0  0
  5 14  1  0  0  0  0
  5 16  2  0  0  0  0
  7  3  1  0  0  0  0
  8 23  1  1  0  0  0
  8 12  1  0  0  0  0
 10 18  1  0  0  0  0
 11  4  1  0  0  0  0
 12 16  1  0  0  0  0
 13 18  1  6  0  0  0
 13  8  1  0  0  0  0
 14  1  2  0  0  0  0
 15 20  2  0  0  0  0
 15  4  1  0  0  0  0
 16 17  1  0  0  0  0
 17  6  2  0  0  0  0
 19 10  1  0  0  0  0
 19  3  2  0  0  0  0
 20 19  1  0  0  0  0
 21 22  2  0  0  0  0
 22 23  1  0  0  0  0
 24 27  1  6  0  0  0
 24 31  1  0  0  0  0
 25 28  1  0  0  0  0
 25 30  1  0  0  0  0
 28 24  1  0  0  0  0
 29 31  1  0  0  0  0
 29 26  1  1  0  0  0
 30 22  1  6  0  0  0
 30 29  1  0  0  0  0
M  END
>  <MODEL>
2

>  <REMARK>
 VINA RESULT:      -9.2      1.425      2.041
  Name = 
  2 active torsions:
  status: ('A' for Active; 'I' for Inactive)
    1  A    between atoms: C_5  and  C_30
    2  A    between atoms: C_10  and  N_16
                            x       y       z     vdW  Elec       q    Type
                         _______ _______ _______ _____ _____    ______ ____

>  <TORSDO>
F 2

$$$$
=
 OpenBabel11112417053D

 31 35  0  0  1  0  0  0  0  0999 V2000
  185.8390  178.2830  140.8030 C   0  0  0  0  0  0  0  0  0  0  0  0
  188.1210  178.1770  143.8470 C   0  0  2  0  0  3  0  0  0  0  0  0
  187.2380  177.8060  145.0320 C   0  0  0  0  0  0  0  0  0  0  0  0
  185.0310  177.7400  146.0620 C   0  0  0  0  0  0  0  0  0  0  0  0
  187.5100  177.8270  142.5090 C   0  0  0  0  0  0  0  0  0  0  0  0
  186.2750  177.1770  140.0730 C   0  0  0  0  0  3  0  0  0  0  0  0
  185.8490  177.9970  144.9600 C   0  0  0  0  0  3  0  0  0  0  0  0
  189.5890  176.1360  143.6070 C   0  0  2  0  0  3  0  0  0  0  0  0
  184.8160  179.0410  140.3400 F   0  0  0  0  0  0  0  0  0  0  0  0
  189.2770  177.1660  146.4270 C   0  0  0  0  0  2  0  0  0  0  0  0
  183.6910  177.9150  145.9670 F   0  0  0  0  0  0  0  0  0  0  0  0
  189.1790  175.9350  142.1490 C   0  0  0  0  0  2  0  0  0  0  0  0
  189.5540  177.6280  143.9690 C   0  0  2  0  0  3  0  0  0  0  0  0
  186.4560  178.6080  142.0130 C   0  0  0  0  0  3  0  0  0  0  0  0
  185.5940  177.3090  147.2630 C   0  0  0  0  0  3  0  0  0  0  0  0
  187.9540  176.7120  141.7620 C   0  0  0  0  0  0  0  0  0  0  0  0
  187.3360  176.4020  140.5460 C   0  0  0  0  0  3  0  0  0  0  0  0
  190.0980  177.9010  145.3720 C   0  0  0  0  0  2  0  0  0  0  0  0
  187.8040  177.4050  146.2680 C   0  0  0  0  0  0  0  0  0  0  0  0
  186.9770  177.1410  147.3630 C   0  0  0  0  0  3  0  0  0  0  0  0
  190.2140  173.8360  145.1710 O   0  0  0  0  0  0  0  0  0  0  0  0
  191.1700  174.4300  144.6010 C   0  0  0  0  0  0  0  0  0  0  0  0
  190.9250  175.5940  143.8090 N   0  0  0  0  0  2  0  0  0  0  0  0
  194.4960  176.1310  145.2280 C   0  0  1  0  0  3  0  0  0  0  0  0
  193.1410  174.2290  146.1510 C   0  0  0  0  0  2  0  0  0  0  0  0
  192.9860  174.2350  142.3900 O   0  0  0  0  0  1  0  0  0  0  0  0
  194.8100  177.4800  145.3900 O   0  0  0  0  0  1  0  0  0  0  0  0
  193.5110  175.7050  146.3130 C   0  0  0  0  0  2  0  0  0  0  0  0
  193.5320  174.4410  143.6580 C   0  0  2  0  0  3  0  0  0  0  0  0
  192.5800  173.9370  144.7560 C   0  0  2  0  0  3  0  0  0  0  0  0
  193.8860  175.9140  143.8470 C   0  0  0  0  0  2  0  0  0  0  0  0
  1 14  1  0  0  0  0
  2  5  1  6  0  0  0
  2 13  1  0  0  0  0
  2  3  1  0  0  0  0
  3 19  1  0  0  0  0
  4 15  2  0  0  0  0
  6 17  1  0  0  0  0
  6  1  2  0  0  0  0
  7  3  2  0  0  0  0
  7  4  1  0  0  0  0
  8 23  1  6  0  0  0
  8 13  1  0  0  0  0
  9  1  1  0  0  0  0
 11  4  1  0  0  0  0
 12  8  1  0  0  0  0
 13 18  1  1  0  0  0
 14  5  2  0  0  0  0
 15 20  1  0  0  0  0
 16 12  1  0  0  0  0
 16  5  1  0  0  0  0
 17 16  2  0  0  0  0
 18 10  1  0  0  0  0
 19 10  1  0  0  0  0
 19 20  2  0  0  0  0
 22 21  2  0  0  0  0
 23 22  1  0  0  0  0
 24 27  1  1  0  0  0
 24 28  1  0  0  0  0
 25 28  1  0  0  0  0
 29 26  1  6  0  0  0
 29 31  1  0  0  0  0
 29 30  1  0  0  0  0
 30 22  1  1  0  0  0
 30 25  1  0  0  0  0
 31 24  1  0  0  0  0
M  END
>  <MODEL>
3

>  <REMARK>
 VINA RESULT:      -9.1      1.631      4.261
  Name = 
  2 active torsions:
  status: ('A' for Active; 'I' for Inactive)
    1  A    between atoms: C_5  and  C_30
    2  A    between atoms: C_10  and  N_16
                            x       y       z     vdW  Elec       q    Type
                         _______ _______ _______ _____ _____    ______ ____

>  <TORSDO>
F 2

$$$$
=
 OpenBabel11112417053D

 31 35  0  0  1  0  0  0  0  0999 V2000
  194.4070  176.4980  145.1330 C   0  0  0  0  0  0  0  0  0  0  0  0
  190.9850  176.9480  143.5300 C   0  0  2  0  0  3  0  0  0  0  0  0
  190.7310  175.6940  142.7020 C   0  0  0  0  0  0  0  0  0  0  0  0
  191.6060  173.7780  141.4780 C   0  0  0  0  0  0  0  0  0  0  0  0
  192.0540  176.7660  144.5840 C   0  0  0  0  0  0  0  0  0  0  0  0
  194.0800  176.3440  146.4810 C   0  0  0  0  0  3  0  0  0  0  0  0
  191.8070  174.8850  142.3040 C   0  0  0  0  0  3  0  0  0  0  0  0
  189.2670  176.7370  145.3700 C   0  0  2  0  0  3  0  0  0  0  0  0
  195.7010  176.4380  144.7380 F   0  0  0  0  0  0  0  0  0  0  0  0
  188.2330  176.2060  142.5840 C   0  0  0  0  0  2  0  0  0  0  0  0
  192.6560  173.0010  141.1190 F   0  0  0  0  0  0  0  0  0  0  0  0
  190.3320  176.8310  146.4610 C   0  0  0  0  0  2  0  0  0  0  0  0
  189.6990  177.5410  144.1340 C   0  0  2  0  0  3  0  0  0  0  0  0
  193.3990  176.7120  144.1900 C   0  0  0  0  0  3  0  0  0  0  0  0
  190.3240  173.4750  141.0180 C   0  0  0  0  0  3  0  0  0  0  0  0
  191.7280  176.6190  145.9510 C   0  0  0  0  0  0  0  0  0  0  0  0
  192.7460  176.4150  146.8890 C   0  0  0  0  0  3  0  0  0  0  0  0
  188.6040  177.6040  143.0680 C   0  0  0  0  0  2  0  0  0  0  0  0
  189.4390  175.4000  142.1980 C   0  0  0  0  0  0  0  0  0  0  0  0
  189.2450  174.2840  141.3790 C   0  0  0  0  0  3  0  0  0  0  0  0
  187.7370  175.5220  147.4460 O   0  0  0  0  0  0  0  0  0  0  0  0
  187.2890  176.5860  146.9380 C   0  0  0  0  0  0  0  0  0  0  0  0
  188.0030  177.2410  145.8890 N   0  0  0  0  0  2  0  0  0  0  0  0
  184.8330  179.0700  145.4730 C   0  0  1  0  0  3  0  0  0  0  0  0
  184.8160  176.7850  146.5120 C   0  0  0  0  0  2  0  0  0  0  0  0
  187.1590  179.0540  148.3920 O   0  0  0  0  0  1  0  0  0  0  0  0
  184.8540  179.7630  144.2630 O   0  0  0  0  0  1  0  0  0  0  0  0
  184.8300  177.5690  145.1990 C   0  0  0  0  0  2  0  0  0  0  0  0
  186.0480  178.6970  147.6260 C   0  0  2  0  0  3  0  0  0  0  0  0
  185.9920  177.1750  147.4150 C   0  0  2  0  0  3  0  0  0  0  0  0
  186.0570  179.4530  146.3000 C   0  0  0  0  0  2  0  0  0  0  0  0
  1  6  1  0  0  0  0
  2  3  1  1  0  0  0
  2 13  1  0  0  0  0
  2  5  1  0  0  0  0
  4  7  2  0  0  0  0
  5 16  2  0  0  0  0
  6 17  2  0  0  0  0
  7  3  1  0  0  0  0
  8 23  1  1  0  0  0
  8 12  1  0  0  0  0
  9  1  1  0  0  0  0
 10 18  1  0  0  0  0
 11  4  1  0  0  0  0
 13 18  1  6  0  0  0
 13  8  1  0  0  0  0
 14  5  1  0  0  0  0
 14  1  2  0  0  0  0
 15 20  2  0  0  0  0
 15  4  1  0  0  0  0
 16 12  1  0  0  0  0
 16 17  1  0  0  0  0
 19 10  1  0  0  0  0
 19  3  2  0  0  0  0
 20 19  1  0  0  0  0
 22 21  2  0  0  0  0
 23 22  1  0  0  0  0
 24 27  1  6  0  0  0
 24 31  1  0  0  0  0
 25 30  1  0  0  0  0
 28 24  1  0  0  0  0
 28 25  1  0  0  0  0
 29 26  1  6  0  0  0
 30 22  1  6  0  0  0
 30 29  1  0  0  0  0
 31 29  1  0  0  0  0
M  END
>  <MODEL>
4

>  <REMARK>
 VINA RESULT:      -8.8      3.755      7.105
  Name = 
  2 active torsions:
  status: ('A' for Active; 'I' for Inactive)
    1  A    between atoms: C_5  and  C_30
    2  A    between atoms: C_10  and  N_16
                            x       y       z     vdW  Elec       q    Type
                         _______ _______ _______ _____ _____    ______ ____

>  <TORSDO>
F 2

$$$$
=
 OpenBabel11112417053D

 31 35  0  0  1  0  0  0  0  0999 V2000
  192.1360  173.2830  141.5930 C   0  0  0  0  0  0  0  0  0  0  0  0
  191.3510  174.1680  145.2110 C   0  0  2  0  0  3  0  0  0  0  0  0
  192.3840  175.2060  145.6320 C   0  0  0  0  0  0  0  0  0  0  0  0
  194.5820  176.2160  145.3370 C   0  0  0  0  0  0  0  0  0  0  0  0
  191.2090  174.0350  143.7100 C   0  0  0  0  0  0  0  0  0  0  0  0
  191.0470  173.8320  140.9160 C   0  0  0  0  0  3  0  0  0  0  0  0
  193.5890  175.3280  144.9200 C   0  0  0  0  0  3  0  0  0  0  0  0
  189.2100  175.5090  145.2020 C   0  0  2  0  0  3  0  0  0  0  0  0
  193.1190  172.6570  140.9030 F   0  0  0  0  0  0  0  0  0  0  0  0
  190.9580  175.9010  147.6310 C   0  0  0  0  0  2  0  0  0  0  0  0
  195.7300  176.3280  144.6280 F   0  0  0  0  0  0  0  0  0  0  0  0
  188.9160  175.1480  143.7470 C   0  0  0  0  0  2  0  0  0  0  0  0
  189.9830  174.3710  145.8870 C   0  0  2  0  0  3  0  0  0  0  0  0
  192.2140  173.3810  142.9840 C   0  0  0  0  0  3  0  0  0  0  0  0
  194.3950  176.9820  146.4880 C   0  0  0  0  0  3  0  0  0  0  0  0
  190.1030  174.5830  143.0210 C   0  0  0  0  0  0  0  0  0  0  0  0
  190.0290  174.4690  141.6290 C   0  0  0  0  0  3  0  0  0  0  0  0
  190.1750  174.6160  147.3850 C   0  0  0  0  0  2  0  0  0  0  0  0
  192.2190  175.9610  146.8200 C   0  0  0  0  0  0  0  0  0  0  0  0
  193.2150  176.8550  147.2250 C   0  0  0  0  0  3  0  0  0  0  0  0
  188.5430  177.9200  146.5700 O   0  0  0  0  0  0  0  0  0  0  0  0
  187.6810  176.9980  146.5580 C   0  0  0  0  0  0  0  0  0  0  0  0
  187.9560  175.7620  145.8970 N   0  0  0  0  0  2  0  0  0  0  0  0
  184.5230  178.9200  145.7320 C   0  0  1  0  0  3  0  0  0  0  0  0
  185.1990  176.6040  146.4280 C   0  0  0  0  0  2  0  0  0  0  0  0
  187.1650  179.1710  148.3570 O   0  0  0  0  0  1  0  0  0  0  0  0
  184.2100  179.7260  144.6390 O   0  0  0  0  0  1  0  0  0  0  0  0
  184.8420  177.5090  145.2470 C   0  0  0  0  0  2  0  0  0  0  0  0
  186.0770  178.6300  147.6690 C   0  0  2  0  0  3  0  0  0  0  0  0
  186.3600  177.1780  147.2490 C   0  0  2  0  0  3  0  0  0  0  0  0
  185.7210  179.5080  146.4720 C   0  0  0  0  0  2  0  0  0  0  0  0
  1 14  1  0  0  0  0
  2  5  1  6  0  0  0
  2  3  1  0  0  0  0
  2 13  1  0  0  0  0
  3 19  1  0  0  0  0
  4 15  2  0  0  0  0
  6  1  2  0  0  0  0
  6 17  1  0  0  0  0
  7  4  1  0  0  0  0
  7  3  2  0  0  0  0
  8 13  1  0  0  0  0
  8 23  1  1  0  0  0
  9  1  1  0  0  0  0
 11  4  1  0  0  0  0
 12  8  1  0  0  0  0
 13 18  1  1  0  0  0
 14  5  2  0  0  0  0
 15 20  1  0  0  0  0
 16  5  1  0  0  0  0
 16 12  1  0  0  0  0
 17 16  2  0  0  0  0
 18 10  1  0  0  0  0
 19 20  2  0  0  0  0
 19 10  1  0  0  0  0
 22 21  2  0  0  0  0
 23 22  1  0  0  0  0
 24 27  1  6  0  0  0
 24 31  1  0  0  0  0
 25 30  1  0  0  0  0
 28 24  1  0  0  0  0
 28 25  1  0  0  0  0
 29 26  1  6  0  0  0
 30 22  1  6  0  0  0
 30 29  1  0  0  0  0
 31 29  1  0  0  0  0
M  END
>  <MODEL>
5

>  <REMARK>
 VINA RESULT:      -8.2      3.810      7.873
  Name = 
  2 active torsions:
  status: ('A' for Active; 'I' for Inactive)
    1  A    between atoms: C_5  and  C_30
    2  A    between atoms: C_10  and  N_16
                            x       y       z     vdW  Elec       q    Type
                         _______ _______ _______ _____ _____    ______ ____

>  <TORSDO>
F 2

$$$$
=
 OpenBabel11112417053D

 31 35  0  0  1  0  0  0  0  0999 V2000
  193.8420  172.6430  141.6620 C   0  0  0  0  0  0  0  0  0  0  0  0
  191.5510  173.5870  144.5510 C   0  0  2  0  0  3  0  0  0  0  0  0
  192.2820  174.6640  145.3430 C   0  0  0  0  0  0  0  0  0  0  0  0
  194.3730  175.7280  145.9980 C   0  0  0  0  0  0  0  0  0  0  0  0
  192.0760  173.4160  143.1420 C   0  0  0  0  0  0  0  0  0  0  0  0
  193.1470  173.1450  140.5620 C   0  0  0  0  0  3  0  0  0  0  0  0
  193.6740  174.8030  145.2210 C   0  0  0  0  0  3  0  0  0  0  0  0
  189.6050  174.8650  143.5700 C   0  0  2  0  0  3  0  0  0  0  0  0
  195.0370  172.0290  141.4870 F   0  0  0  0  0  0  0  0  0  0  0  0
  190.1180  175.3630  146.5030 C   0  0  0  0  0  2  0  0  0  0  0  0
  195.7140  175.8580  145.8540 F   0  0  0  0  0  0  0  0  0  0  0  0
  189.9780  174.4630  142.1450 C   0  0  0  0  0  2  0  0  0  0  0  0
  190.0220  173.7660  144.5600 C   0  0  2  0  0  3  0  0  0  0  0  0
  193.3080  172.7750  142.9460 C   0  0  0  0  0  3  0  0  0  0  0  0
  193.6930  176.5150  146.9280 C   0  0  0  0  0  3  0  0  0  0  0  0
  191.3710  173.9160  142.0240 C   0  0  0  0  0  0  0  0  0  0  0  0
  191.9110  173.7690  140.7420 C   0  0  0  0  0  3  0  0  0  0  0  0
  189.5400  174.0500  145.9830 C   0  0  0  0  0  2  0  0  0  0  0  0
  191.6050  175.4400  146.3170 C   0  0  0  0  0  0  0  0  0  0  0  0
  192.3130  176.3710  147.0840 C   0  0  0  0  0  3  0  0  0  0  0  0
  188.3640  177.4160  143.8510 O   0  0  0  0  0  0  0  0  0  0  0  0
  187.6110  176.4070  143.7780 C   0  0  0  0  0  0  0  0  0  0  0  0
  188.1700  175.0990  143.6440 N   0  0  0  0  0  2  0  0  0  0  0  0
  185.2810  179.3810  144.0490 C   0  0  1  0  0  3  0  0  0  0  0  0
  185.5640  177.3240  142.6370 C   0  0  0  0  0  2  0  0  0  0  0  0
  186.1800  176.5120  146.2610 O   0  0  0  0  0  1  0  0  0  0  0  0
  185.5560  180.7450  144.1280 O   0  0  0  0  0  1  0  0  0  0  0  0
  185.8440  178.8250  142.7440 C   0  0  0  0  0  2  0  0  0  0  0  0
  185.6190  177.1690  145.1650 C   0  0  2  0  0  3  0  0  0  0  0  0
  186.1180  176.5580  143.8440 C   0  0  2  0  0  3  0  0  0  0  0  0
  185.9090  178.6660  145.2420 C   0  0  0  0  0  2  0  0  0  0  0  0
  1 14  1  0  0  0  0
  2  5  1  6  0  0  0
  2 13  1  0  0  0  0
  2  3  1  0  0  0  0
  3 19  1  0  0  0  0
  4 15  2  0  0  0  0
  6 17  1  0  0  0  0
  6  1  2  0  0  0  0
  7  3  2  0  0  0  0
  7  4  1  0  0  0  0
  8 23  1  6  0  0  0
  8 13  1  0  0  0  0
  9  1  1  0  0  0  0
 11  4  1  0  0  0  0
 12  8  1  0  0  0  0
 13 18  1  1  0  0  0
 14  5  2  0  0  0  0
 15 20  1  0  0  0  0
 16 12  1  0  0  0  0
 16  5  1  0  0  0  0
 17 16  2  0  0  0  0
 18 10  1  0  0  0  0
 19 10  1  0  0  0  0
 19 20  2  0  0  0  0
 22 21  2  0  0  0  0
 23 22  1  0  0  0  0
 24 27  1  1  0  0  0
 24 31  1  0  0  0  0
 25 28  1  0  0  0  0
 25 30  1  0  0  0  0
 28 24  1  0  0  0  0
 29 31  1  0  0  0  0
 29 26  1  1  0  0  0
 30 22  1  1  0  0  0
 30 29  1  0  0  0  0
M  END
>  <MODEL>
6

>  <REMARK>
 VINA RESULT:      -8.1      4.001      8.196
  Name = 
  2 active torsions:
  status: ('A' for Active; 'I' for Inactive)
    1  A    between atoms: C_5  and  C_30
    2  A    between atoms: C_10  and  N_16
                            x       y       z     vdW  Elec       q    Type
                         _______ _______ _______ _____ _____    ______ ____

>  <TORSDO>
F 2

$$$$
=
 OpenBabel11112417053D

 31 35  0  0  1  0  0  0  0  0999 V2000
  186.0920  178.9470  142.9660 C   0  0  0  0  0  0  0  0  0  0  0  0
  189.2100  176.8850  143.6810 C   0  0  2  0  0  3  0  0  0  0  0  0
  188.9500  176.1550  144.9930 C   0  0  0  0  0  0  0  0  0  0  0  0
  187.7670  176.0220  147.1190 C   0  0  0  0  0  0  0  0  0  0  0  0
  187.9490  177.3790  143.0080 C   0  0  0  0  0  0  0  0  0  0  0  0
  185.5580  178.2920  141.8560 C   0  0  0  0  0  3  0  0  0  0  0  0
  187.9660  176.6270  145.8770 C   0  0  0  0  0  3  0  0  0  0  0  0
  189.2510  174.9920  142.0090 C   0  0  2  0  0  3  0  0  0  0  0  0
  185.4540  180.0200  143.4930 F   0  0  0  0  0  0  0  0  0  0  0  0
  190.8480  174.5140  144.5260 C   0  0  0  0  0  2  0  0  0  0  0  0
  186.8020  176.4830  147.9500 F   0  0  0  0  0  0  0  0  0  0  0  0
  188.1520  175.6320  141.1630 C   0  0  0  0  0  2  0  0  0  0  0  0
  190.0860  176.0770  142.7060 C   0  0  2  0  0  3  0  0  0  0  0  0
  187.2840  178.4950  143.5370 C   0  0  0  0  0  3  0  0  0  0  0  0
  188.5670  174.9470  147.5070 C   0  0  0  0  0  3  0  0  0  0  0  0
  187.4090  176.7240  141.8780 C   0  0  0  0  0  0  0  0  0  0  0  0
  186.2200  177.1920  141.3080 C   0  0  0  0  0  3  0  0  0  0  0  0
  191.2920  175.4980  143.4480 C   0  0  0  0  0  2  0  0  0  0  0  0
  189.7820  175.0870  145.4130 C   0  0  0  0  0  0  0  0  0  0  0  0
  189.5690  174.4820  146.6550 C   0  0  0  0  0  3  0  0  0  0  0  0
  189.3160  172.1420  142.0110 O   0  0  0  0  0  0  0  0  0  0  0  0
  190.0750  172.7420  141.2010 C   0  0  0  0  0  0  0  0  0  0  0  0
  190.0960  174.1690  141.1550 N   0  0  0  0  0  2  0  0  0  0  0  0
  192.1490  173.6620  138.1680 C   0  0  1  0  0  3  0  0  0  0  0  0
  192.4280  172.4620  140.3550 C   0  0  0  0  0  2  0  0  0  0  0  0
  189.1400  171.5370  138.7730 O   0  0  0  0  0  1  0  0  0  0  0  0
  192.3150  174.8840  137.5180 O   0  0  0  0  0  1  0  0  0  0  0  0
  192.6110  173.7890  139.6160 C   0  0  0  0  0  2  0  0  0  0  0  0
  190.4810  171.9200  138.8280 C   0  0  2  0  0  3  0  0  0  0  0  0
  190.9790  171.9690  140.2830 C   0  0  2  0  0  3  0  0  0  0  0  0
  190.6790  173.2560  138.1160 C   0  0  0  0  0  2  0  0  0  0  0  0
  1  9  1  0  0  0  0
  1 14  1  0  0  0  0
  2  5  1  6  0  0  0
  2  3  1  0  0  0  0
  3 19  2  0  0  0  0
  3  7  1  0  0  0  0
  4 15  1  0  0  0  0
  4 11  1  0  0  0  0
  5 14  2  0  0  0  0
  6  1  2  0  0  0  0
  7  4  2  0  0  0  0
  8 23  1  6  0  0  0
  8 13  1  0  0  0  0
 10 19  1  0  0  0  0
 12 16  1  0  0  0  0
 12  8  1  0  0  0  0
 13 18  1  1  0  0  0
 13  2  1  0  0  0  0
 16  5  1  0  0  0  0
 17  6  1  0  0  0  0
 17 16  2  0  0  0  0
 18 10  1  0  0  0  0
 19 20  1  0  0  0  0
 20 15  2  0  0  0  0
 22 21  2  0  0  0  0
 23 22  1  0  0  0  0
 24 27  1  1  0  0  0
 24 28  1  0  0  0  0
 28 25  1  0  0  0  0
 29 26  1  1  0  0  0
 29 30  1  0  0  0  0
 30 25  1  0  0  0  0
 30 22  1  1  0  0  0
 31 24  1  0  0  0  0
 31 29  1  0  0  0  0
M  END
>  <MODEL>
7

>  <REMARK>
 VINA RESULT:      -8.0      3.617      5.716
  Name = 
  2 active torsions:
  status: ('A' for Active; 'I' for Inactive)
    1  A    between atoms: C_5  and  C_30
    2  A    between atoms: C_10  and  N_16
                            x       y       z     vdW  Elec       q    Type
                         _______ _______ _______ _____ _____    ______ ____

>  <TORSDO>
F 2

$$$$
=
 OpenBabel11112417053D

 31 35  0  0  1  0  0  0  0  0999 V2000
  190.7840  171.4180  143.0460 C   0  0  0  0  0  0  0  0  0  0  0  0
  189.6960  174.3180  145.2580 C   0  0  2  0  0  3  0  0  0  0  0  0
  190.9710  175.0430  145.6720 C   0  0  0  0  0  0  0  0  0  0  0  0
  193.3770  175.0000  146.0540 C   0  0  0  0  0  0  0  0  0  0  0  0
  189.8720  173.4410  144.0380 C   0  0  0  0  0  0  0  0  0  0  0  0
  190.3070  171.8110  141.7950 C   0  0  0  0  0  3  0  0  0  0  0  0
  192.2080  174.3830  145.6040 C   0  0  0  0  0  3  0  0  0  0  0  0
  188.5710  176.0140  143.7630 C   0  0  2  0  0  3  0  0  0  0  0  0
  191.4620  170.2530  143.1780 F   0  0  0  0  0  0  0  0  0  0  0  0
  189.6420  177.1090  146.3640 C   0  0  0  0  0  2  0  0  0  0  0  0
  194.5630  174.3520  145.9650 F   0  0  0  0  0  0  0  0  0  0  0  0
  188.4960  175.0300  142.5970 C   0  0  0  0  0  2  0  0  0  0  0  0
  188.4900  175.2620  145.1000 C   0  0  2  0  0  3  0  0  0  0  0  0
  190.5640  172.2280  144.1620 C   0  0  0  0  0  3  0  0  0  0  0  0
  193.3220  176.2820  146.6010 C   0  0  0  0  0  3  0  0  0  0  0  0
  189.3840  173.8310  142.7700 C   0  0  0  0  0  0  0  0  0  0  0  0
  189.6010  173.0080  141.6610 C   0  0  0  0  0  3  0  0  0  0  0  0
  188.4120  176.2100  146.2980 C   0  0  0  0  0  2  0  0  0  0  0  0
  190.9200  176.3300  146.2640 C   0  0  0  0  0  0  0  0  0  0  0  0
  192.0970  176.9440  146.7030 C   0  0  0  0  0  3  0  0  0  0  0  0
  188.5160  178.2490  141.9930 O   0  0  0  0  0  0  0  0  0  0  0  0
  187.5140  178.0700  142.7370 C   0  0  0  0  0  0  0  0  0  0  0  0
  187.4800  176.9730  143.6520 N   0  0  0  0  0  2  0  0  0  0  0  0
  184.4480  178.5750  144.9040 C   0  0  1  0  0  3  0  0  0  0  0  0
  186.3010  179.9410  143.9030 C   0  0  0  0  0  2  0  0  0  0  0  0
  185.0580  177.4080  141.4120 O   0  0  0  0  0  1  0  0  0  0  0  0
  184.0280  177.9080  146.0540 O   0  0  0  0  0  1  0  0  0  0  0  0
  185.8130  179.2100  145.1550 C   0  0  0  0  0  2  0  0  0  0  0  0
  184.9930  178.3050  142.4790 C   0  0  2  0  0  3  0  0  0  0  0  0
  186.3440  179.0110  142.6850 C   0  0  2  0  0  3  0  0  0  0  0  0
  184.5300  177.5870  143.7440 C   0  0  0  0  0  2  0  0  0  0  0  0
  1  9  1  0  0  0  0
  1 14  1  0  0  0  0
  2  5  1  6  0  0  0
  2  3  1  0  0  0  0
  3 19  1  0  0  0  0
  4 15  2  0  0  0  0
  5 14  2  0  0  0  0
  6  1  2  0  0  0  0
  7  3  2  0  0  0  0
  7  4  1  0  0  0  0
  8 23  1  6  0  0  0
  8 13  1  0  0  0  0
 11  4  1  0  0  0  0
 12 16  1  0  0  0  0
 12  8  1  0  0  0  0
 13  2  1  0  0  0  0
 13 18  1  1  0  0  0
 15 20  1  0  0  0  0
 16  5  1  0  0  0  0
 17  6  1  0  0  0  0
 17 16  2  0  0  0  0
 18 10  1  0  0  0  0
 19 10  1  0  0  0  0
 19 20  2  0  0  0  0
 21 22  2  0  0  0  0
 22 23  1  0  0  0  0
 24 28  1  0  0  0  0
 24 27  1  1  0  0  0
 25 28  1  0  0  0  0
 29 26  1  6  0  0  0
 29 30  1  0  0  0  0
 29 31  1  0  0  0  0
 30 22  1  1  0  0  0
 30 25  1  0  0  0  0
 31 24  1  0  0  0  0
M  END
>  <MODEL>
8

>  <REMARK>
 VINA RESULT:      -7.8      3.947      7.824
  Name = 
  2 active torsions:
  status: ('A' for Active; 'I' for Inactive)
    1  A    between atoms: C_5  and  C_30
    2  A    between atoms: C_10  and  N_16
                            x       y       z     vdW  Elec       q    Type
                         _______ _______ _______ _____ _____    ______ ____

>  <TORSDO>
F 2

$$$$
=
 OpenBabel11112417053D

 31 35  0  0  1  0  0  0  0  0999 V2000
  185.8410  178.1670  140.9060 C   0  0  0  0  0  0  0  0  0  0  0  0
  188.4890  177.9420  143.6300 C   0  0  2  0  0  3  0  0  0  0  0  0
  187.7830  177.4110  144.8720 C   0  0  0  0  0  0  0  0  0  0  0  0
  185.7290  177.1090  146.1470 C   0  0  0  0  0  0  0  0  0  0  0  0
  187.7350  177.6720  142.3470 C   0  0  0  0  0  0  0  0  0  0  0  0
  186.2420  177.1610  140.0260 C   0  0  0  0  0  3  0  0  0  0  0  0
  186.3870  177.5150  144.9850 C   0  0  0  0  0  3  0  0  0  0  0  0
  190.0230  176.0300  143.0220 C   0  0  2  0  0  3  0  0  0  0  0  0
  184.7290  178.8940  140.6430 F   0  0  0  0  0  0  0  0  0  0  0  0
  190.0120  176.7840  145.9450 C   0  0  0  0  0  2  0  0  0  0  0  0
  184.3800  177.2040  146.2300 F   0  0  0  0  0  0  0  0  0  0  0  0
  189.4460  175.9320  141.6110 C   0  0  0  0  0  2  0  0  0  0  0  0
  189.9540  177.4790  143.5270 C   0  0  2  0  0  3  0  0  0  0  0  0
  186.5870  178.4240  142.0590 C   0  0  0  0  0  3  0  0  0  0  0  0
  186.4600  176.6110  147.2250 C   0  0  0  0  0  3  0  0  0  0  0  0
  188.1420  176.6590  141.4490 C   0  0  0  0  0  0  0  0  0  0  0  0
  187.3940  176.4180  140.2920 C   0  0  0  0  0  3  0  0  0  0  0  0
  190.6530  177.6610  144.8750 C   0  0  0  0  0  2  0  0  0  0  0  0
  188.5200  176.9390  145.9870 C   0  0  0  0  0  0  0  0  0  0  0  0
  187.8520  176.5260  147.1430 C   0  0  0  0  0  3  0  0  0  0  0  0
  190.8520  173.3400  143.4770 O   0  0  0  0  0  0  0  0  0  0  0  0
  191.7490  174.1940  143.2390 C   0  0  0  0  0  0  0  0  0  0  0  0
  191.4020  175.5610  143.0100 N   0  0  0  0  0  2  0  0  0  0  0  0
  193.6230  171.0290  144.1440 C   0  0  1  0  0  3  0  0  0  0  0  0
  193.4530  172.6420  142.2280 C   0  0  0  0  0  2  0  0  0  0  0  0
  193.4860  174.5040  145.5000 O   0  0  0  0  0  1  0  0  0  0  0  0
  193.1620  169.8120  144.6430 O   0  0  0  0  0  1  0  0  0  0  0  0
  192.9700  171.3050  142.7930 C   0  0  0  0  0  2  0  0  0  0  0  0
  193.7810  173.4830  144.5950 C   0  0  2  0  0  3  0  0  0  0  0  0
  193.1970  173.7940  143.2060 C   0  0  2  0  0  3  0  0  0  0  0  0
  193.2850  172.1430  145.1310 C   0  0  0  0  0  2  0  0  0  0  0  0
  1 14  1  0  0  0  0
  2  5  1  6  0  0  0
  2  3  1  0  0  0  0
  3  7  2  0  0  0  0
  3 19  1  0  0  0  0
  4 11  1  0  0  0  0
  4 15  2  0  0  0  0
  6 17  1  0  0  0  0
  6  1  2  0  0  0  0
  7  4  1  0  0  0  0
  8 23  1  6  0  0  0
  8 13  1  0  0  0  0
  9  1  1  0  0  0  0
 10 19  1  0  0  0  0
 12  8  1  0  0  0  0
 13  2  1  0  0  0  0
 13 18  1  1  0  0  0
 14  5  2  0  0  0  0
 16 12  1  0  0  0  0
 16  5  1  0  0  0  0
 17 16  2  0  0  0  0
 18 10  1  0  0  0  0
 19 20  2  0  0  0  0
 20 15  1  0  0  0  0
 22 21  2  0  0  0  0
 23 22  1  0  0  0  0
 24 27  1  1  0  0  0
 24 31  1  0  0  0  0
 25 28  1  0  0  0  0
 25 30  1  0  0  0  0
 28 24  1  0  0  0  0
 29 31  1  0  0  0  0
 29 26  1  1  0  0  0
 30 22  1  1  0  0  0
 30 29  1  0  0  0  0
M  END
>  <MODEL>
9

>  <REMARK>
 VINA RESULT:      -7.7      2.222      4.850
  Name = 
  2 active torsions:
  status: ('A' for Active; 'I' for Inactive)
    1  A    between atoms: C_5  and  C_30
    2  A    between atoms: C_10  and  N_16
                            x       y       z     vdW  Elec       q    Type
                         _______ _______ _______ _____ _____    ______ ____

>  <TORSDO>
F 2

$$$$
