=
 OpenBabel11112417563D

 34 41  0  0  1  0  0  0  0  0999 V2000
  189.2290  175.0690  142.5600 C   0  0  0  0  0  0  0  0  0  0  0  0
  191.3620  173.6780  142.1190 C   0  0  0  0  0  3  0  0  0  0  0  0
  185.8290  179.0880  146.2750 C   0  0  2  0  0  3  0  0  0  0  0  0
  187.3250  176.4800  143.1780 C   0  0  0  0  0  0  0  0  0  0  0  0
  186.9980  177.0820  145.5230 C   0  0  0  0  0  0  0  0  0  0  0  0
  186.7730  178.1240  147.9210 C   0  0  0  0  0  2  0  0  0  0  0  0
  186.1670  179.5050  147.6890 C   0  0  0  0  0  2  0  0  0  0  0  0
  184.1860  178.1270  144.6560 C   0  0  0  0  0  2  0  0  0  0  0  0
  190.7620  174.2370  144.3240 C   0  0  0  0  0  0  0  0  0  0  0  0
  192.8600  175.5710  145.6940 C   0  0  0  0  0  2  0  0  0  0  0  0
  188.1190  176.3230  145.8700 C   0  0  0  0  0  3  0  0  0  0  0  0
  185.3950  178.0290  143.7020 C   0  0  0  0  0  2  0  0  0  0  0  0
  190.0740  174.8710  145.2850 C   0  0  0  0  0  0  0  0  0  0  0  0
  192.5000  173.2410  143.0590 C   0  0  0  0  0  3  0  0  0  0  0  0
  186.5650  177.1480  144.1640 C   0  0  0  0  0  0  0  0  0  0  0  0
  184.3900  179.1460  145.7990 C   0  0  0  0  0  2  0  0  0  0  0  0
  193.0390  174.1690  145.2900 N   0  0  0  0  0  0  0  0  0  0  0  0
  188.4710  175.7350  143.5470 C   0  0  0  0  0  0  0  0  0  0  0  0
  186.1520  177.6610  146.6140 C   0  0  1  0  0  3  0  0  0  0  0  0
  188.8690  175.6590  144.9010 C   0  0  0  0  0  0  0  0  0  0  0  0
  187.7260  175.8830  140.8480 C   0  0  0  0  0  3  0  0  0  0  0  0
  191.8640  175.7030  146.8550 C   0  0  0  0  0  2  0  0  0  0  0  0
  186.9680  176.5420  141.8200 C   0  0  0  0  0  3  0  0  0  0  0  0
  190.5920  174.8580  146.6950 C   0  0  0  0  0  2  0  0  0  0  0  0
  192.0200  173.4620  144.5010 C   0  0  1  0  0  3  0  0  0  0  0  0
  188.8540  175.1480  141.2150 C   0  0  0  0  0  3  0  0  0  0  0  0
  190.3810  174.3220  142.9690 N   0  0  0  0  0  0  0  0  0  0  0  0
  194.1590  173.4340  145.7210 N   0  0  0  0  0  0  0  0  0  0  0  0
  195.3730  173.7910  145.4500 C   0  0  0  0  0  3  0  0  0  0  0  0
  197.3000  170.8230  145.3530 O   0  0  0  0  0  0  0  0  0  0  0  0
  197.7010  173.1280  145.0160 C   0  0  0  0  0  2  0  0  0  0  0  0
  196.5240  172.9770  145.9340 C   0  0  2  0  0  3  0  0  0  0  0  0
  197.9410  171.7300  144.4970 C   0  0  0  0  0  2  0  0  0  0  0  0
  196.1800  171.5090  145.8430 C   0  0  0  0  0  2  0  0  0  0  0  0
  1 27  1  0  0  0  0
  1 18  1  0  0  0  0
  2 27  1  0  0  0  0
  2 14  2  0  0  0  0
  3 16  1  1  0  0  0
  3 19  1  0  0  0  0
  3  7  1  0  0  0  0
  4 18  2  0  0  0  0
  4 15  1  0  0  0  0
  5 11  1  0  0  0  0
  5 19  1  0  0  0  0
  7  6  1  0  0  0  0
  8 16  1  0  0  0  0
  9 25  1  0  0  0  0
  9 13  2  0  0  0  0
 10 22  1  0  0  0  0
 12 15  1  0  0  0  0
 12  8  1  0  0  0  0
 13 24  1  0  0  0  0
 15  5  2  0  0  0  0
 17 10  1  0  0  0  0
 17 28  1  0  0  0  0
 18 20  1  0  0  0  0
 19  6  1  1  0  0  0
 20 13  1  0  0  0  0
 20 11  2  0  0  0  0
 21 26  1  0  0  0  0
 21 23  2  0  0  0  0
 23  4  1  0  0  0  0
 24 22  1  0  0  0  0
 25 14  1  6  0  0  0
 25 17  1  0  0  0  0
 26  1  2  0  0  0  0
 27  9  1  0  0  0  0
 29 28  2  0  0  0  0
 30 34  1  0  0  0  0
 31 32  1  0  0  0  0
 32 29  1  6  0  0  0
 33 31  1  0  0  0  0
 33 30  1  0  0  0  0
 34 32  1  0  0  0  0
M  END
>  <MODEL>
1

>  <REMARK>
 VINA RESULT:      -9.5      0.000      0.000
  Name = 
  2 active torsions:
  status: ('A' for Active; 'I' for Inactive)
    1  A    between atoms: N_17  and  N_28
    2  A    between atoms: C_29  and  C_32
                            x       y       z     vdW  Elec       q    Type
                         _______ _______ _______ _____ _____    ______ ____

>  <TORSDO>
F 2

$$$$
=
 OpenBabel11112417563D

 34 41  0  0  1  0  0  0  0  0999 V2000
  188.7000  176.7620  146.5310 C   0  0  0  0  0  0  0  0  0  0  0  0
  190.8600  176.0890  147.7810 C   0  0  0  0  0  3  0  0  0  0  0  0
  185.3900  177.4710  141.0500 C   0  0  2  0  0  3  0  0  0  0  0  0
  186.7630  177.3120  145.1390 C   0  0  0  0  0  0  0  0  0  0  0  0
  187.0950  177.7890  142.7650 C   0  0  0  0  0  0  0  0  0  0  0  0
  187.2670  177.9150  140.1500 C   0  0  0  0  0  2  0  0  0  0  0  0
  185.9410  177.3510  139.6460 C   0  0  0  0  0  2  0  0  0  0  0  0
  184.1410  178.8000  142.7570 C   0  0  0  0  0  2  0  0  0  0  0  0
  190.9680  176.7440  145.5240 C   0  0  0  0  0  0  0  0  0  0  0  0
  192.2280  174.7820  143.9050 C   0  0  0  0  0  2  0  0  0  0  0  0
  188.4730  177.6140  142.9280 C   0  0  0  0  0  3  0  0  0  0  0  0
  184.6890  177.7630  143.7610 C   0  0  0  0  0  2  0  0  0  0  0  0
  190.4830  177.0640  144.3160 C   0  0  0  0  0  0  0  0  0  0  0  0
  192.2930  175.8520  147.2740 C   0  0  0  0  0  3  0  0  0  0  0  0
  186.2170  177.6680  143.8850 C   0  0  0  0  0  0  0  0  0  0  0  0
  184.1420  178.2970  141.2970 C   0  0  0  0  0  2  0  0  0  0  0  0
  193.0110  175.4790  144.9350 N   0  0  0  0  0  0  0  0  0  0  0  0
  188.1580  177.1180  145.2770 C   0  0  0  0  0  0  0  0  0  0  0  0
  186.5810  178.2910  141.4520 C   0  0  1  0  0  3  0  0  0  0  0  0
  189.0160  177.2680  144.1640 C   0  0  0  0  0  0  0  0  0  0  0  0
  186.4850  176.7870  147.5030 C   0  0  0  0  0  3  0  0  0  0  0  0
  191.8930  175.7060  142.7260 C   0  0  0  0  0  2  0  0  0  0  0  0
  185.9410  177.1420  146.2660 C   0  0  0  0  0  3  0  0  0  0  0  0
  191.4130  177.1050  143.1360 C   0  0  0  0  0  2  0  0  0  0  0  0
  192.3860  176.4370  145.8570 C   0  0  1  0  0  3  0  0  0  0  0  0
  187.8610  176.5970  147.6380 C   0  0  0  0  0  3  0  0  0  0  0  0
  190.1170  176.5750  146.6360 N   0  0  0  0  0  0  0  0  0  0  0  0
  194.4060  175.3120  145.0120 N   0  0  0  0  0  0  0  0  0  0  0  0
  194.9560  174.2900  145.5840 C   0  0  0  0  0  3  0  0  0  0  0  0
  197.9090  172.4550  144.9200 O   0  0  0  0  0  0  0  0  0  0  0  0
  197.0500  174.5770  144.3290 C   0  0  0  0  0  2  0  0  0  0  0  0
  196.4390  174.1610  145.6350 C   0  0  2  0  0  3  0  0  0  0  0  0
  197.7420  173.3280  143.8360 C   0  0  0  0  0  2  0  0  0  0  0  0
  196.8170  172.7030  145.7630 C   0  0  0  0  0  2  0  0  0  0  0  0
  1 27  1  0  0  0  0
  1 26  1  0  0  0  0
  3  7  1  6  0  0  0
  3 16  1  0  0  0  0
  3 19  1  0  0  0  0
  4 18  1  0  0  0  0
  4 23  2  0  0  0  0
  5 11  1  0  0  0  0
  5 15  2  0  0  0  0
  7  6  1  0  0  0  0
  8 12  1  0  0  0  0
  9 25  1  0  0  0  0
  9 27  1  0  0  0  0
 10 17  1  0  0  0  0
 11 20  2  0  0  0  0
 12 15  1  0  0  0  0
 13  9  2  0  0  0  0
 14  2  2  0  0  0  0
 15  4  1  0  0  0  0
 16  8  1  0  0  0  0
 17 28  1  0  0  0  0
 17 25  1  0  0  0  0
 18  1  2  0  0  0  0
 19  6  1  6  0  0  0
 19  5  1  0  0  0  0
 20 13  1  0  0  0  0
 20 18  1  0  0  0  0
 21 26  2  0  0  0  0
 22 24  1  0  0  0  0
 22 10  1  0  0  0  0
 23 21  1  0  0  0  0
 24 13  1  0  0  0  0
 25 14  1  1  0  0  0
 27  2  1  0  0  0  0
 28 29  2  0  0  0  0
 30 34  1  0  0  0  0
 31 32  1  0  0  0  0
 32 29  1  6  0  0  0
 32 34  1  0  0  0  0
 33 31  1  0  0  0  0
 33 30  1  0  0  0  0
M  END
>  <MODEL>
2

>  <REMARK>
 VINA RESULT:      -8.9      1.751      3.988
  Name = 
  2 active torsions:
  status: ('A' for Active; 'I' for Inactive)
    1  A    between atoms: N_17  and  N_28
    2  A    between atoms: C_29  and  C_32
                            x       y       z     vdW  Elec       q    Type
                         _______ _______ _______ _____ _____    ______ ____

>  <TORSDO>
F 2

$$$$
=
 OpenBabel11112417563D

 34 41  0  0  1  0  0  0  0  0999 V2000
  189.6220  174.6580  144.9880 C   0  0  0  0  0  0  0  0  0  0  0  0
  191.3030  172.8140  144.3140 C   0  0  0  0  0  3  0  0  0  0  0  0
  184.4380  178.2580  143.6970 C   0  0  2  0  0  3  0  0  0  0  0  0
  187.9030  176.3460  145.4210 C   0  0  0  0  0  0  0  0  0  0  0  0
  186.6840  177.3190  143.5390 C   0  0  0  0  0  0  0  0  0  0  0  0
  185.0410  178.1280  141.6610 C   0  0  0  0  0  2  0  0  0  0  0  0
  183.7090  178.3410  142.3750 C   0  0  0  0  0  2  0  0  0  0  0  0
  185.6000  179.4170  145.5820 C   0  0  0  0  0  2  0  0  0  0  0  0
  190.1320  173.9980  142.6520 C   0  0  0  0  0  0  0  0  0  0  0  0
  188.7250  172.2650  140.8990 C   0  0  0  0  0  2  0  0  0  0  0  0
  187.4450  176.5480  142.6550 C   0  0  0  0  0  3  0  0  0  0  0  0
  186.0720  178.0010  145.9770 C   0  0  0  0  0  2  0  0  0  0  0  0
  189.2010  174.8320  142.1660 C   0  0  0  0  0  0  0  0  0  0  0  0
  191.6030  172.1650  142.9510 C   0  0  0  0  0  3  0  0  0  0  0  0
  186.9250  177.2490  144.9460 C   0  0  0  0  0  0  0  0  0  0  0  0
  184.3490  179.4140  144.6760 C   0  0  0  0  0  2  0  0  0  0  0  0
  190.1940  172.2350  140.9160 N   0  0  0  0  0  0  0  0  0  0  0  0
  188.6470  175.5590  144.5100 C   0  0  0  0  0  0  0  0  0  0  0  0
  185.7550  178.3520  142.9820 C   0  0  1  0  0  3  0  0  0  0  0  0
  188.4140  175.6600  143.1200 C   0  0  0  0  0  0  0  0  0  0  0  0
  189.1200  175.3120  147.2630 C   0  0  0  0  0  3  0  0  0  0  0  0
  188.1910  173.5460  140.2450 C   0  0  0  0  0  2  0  0  0  0  0  0
  188.1550  176.2080  146.7970 C   0  0  0  0  0  3  0  0  0  0  0  0
  188.9060  174.8290  140.6920 C   0  0  0  0  0  2  0  0  0  0  0  0
  190.9670  173.0480  141.8670 C   0  0  1  0  0  3  0  0  0  0  0  0
  189.8540  174.5370  146.3630 C   0  0  0  0  0  3  0  0  0  0  0  0
  190.3590  173.8780  144.0390 N   0  0  0  0  0  0  0  0  0  0  0  0
  190.9100  171.4900  139.9610 N   0  0  0  0  0  0  0  0  0  0  0  0
  190.4990  171.3410  138.7430 C   0  0  0  0  0  3  0  0  0  0  0  0
  192.4290  168.4790  137.9590 O   0  0  0  0  0  0  0  0  0  0  0  0
  190.4500  169.4790  137.1380 C   0  0  0  0  0  2  0  0  0  0  0  0
  191.2970  170.5440  137.7700 C   0  0  2  0  0  3  0  0  0  0  0  0
  191.1200  168.1890  137.5500 C   0  0  0  0  0  2  0  0  0  0  0  0
  192.3650  169.7690  138.5050 C   0  0  0  0  0  2  0  0  0  0  0  0
  1 26  1  0  0  0  0
  3  7  1  6  0  0  0
  3 16  1  0  0  0  0
  4 23  2  0  0  0  0
  5 15  2  0  0  0  0
  6  7  1  0  0  0  0
  8 12  1  0  0  0  0
  9 27  1  0  0  0  0
 10 17  1  0  0  0  0
 11 20  2  0  0  0  0
 11  5  1  0  0  0  0
 13  9  2  0  0  0  0
 13 20  1  0  0  0  0
 14  2  2  0  0  0  0
 15  4  1  0  0  0  0
 15 12  1  0  0  0  0
 16  8  1  0  0  0  0
 17 25  1  0  0  0  0
 18  1  2  0  0  0  0
 18  4  1  0  0  0  0
 19  6  1  6  0  0  0
 19  5  1  0  0  0  0
 19  3  1  0  0  0  0
 20 18  1  0  0  0  0
 22 24  1  0  0  0  0
 22 10  1  0  0  0  0
 23 21  1  0  0  0  0
 24 13  1  0  0  0  0
 25  9  1  0  0  0  0
 25 14  1  1  0  0  0
 26 21  2  0  0  0  0
 27  2  1  0  0  0  0
 27  1  1  0  0  0  0
 28 17  1  0  0  0  0
 29 28  2  0  0  0  0
 30 34  1  0  0  0  0
 31 33  1  0  0  0  0
 31 32  1  0  0  0  0
 32 34  1  0  0  0  0
 32 29  1  1  0  0  0
 33 30  1  0  0  0  0
M  END
>  <MODEL>
3

>  <REMARK>
 VINA RESULT:      -8.8      3.064      5.605
  Name = 
  2 active torsions:
  status: ('A' for Active; 'I' for Inactive)
    1  A    between atoms: N_17  and  N_28
    2  A    between atoms: C_29  and  C_32
                            x       y       z     vdW  Elec       q    Type
                         _______ _______ _______ _____ _____    ______ ____

>  <TORSDO>
F 2

$$$$
=
 OpenBabel11112417563D

 34 41  0  0  1  0  0  0  0  0999 V2000
  186.8390  178.1320  146.2970 C   0  0  0  0  0  0  0  0  0  0  0  0
  184.5010  179.0420  145.6760 C   0  0  0  0  0  3  0  0  0  0  0  0
  192.5390  175.6820  144.5630 C   0  0  2  0  0  3  0  0  0  0  0  0
  189.1010  177.2610  146.6410 C   0  0  0  0  0  0  0  0  0  0  0  0
  190.1320  175.8940  144.8970 C   0  0  0  0  0  0  0  0  0  0  0  0
  191.4890  174.7720  142.9520 C   0  0  0  0  0  2  0  0  0  0  0  0
  192.9310  175.2130  143.1800 C   0  0  0  0  0  2  0  0  0  0  0  0
  192.3290  175.2110  147.0080 C   0  0  0  0  0  2  0  0  0  0  0  0
  185.6140  177.5740  144.2130 C   0  0  0  0  0  0  0  0  0  0  0  0
  185.8690  178.6610  141.6030 C   0  0  0  0  0  2  0  0  0  0  0  0
  188.9670  176.0000  144.1320 C   0  0  0  0  0  3  0  0  0  0  0  0
  191.4800  176.5000  147.0410 C   0  0  0  0  0  2  0  0  0  0  0  0
  186.6480  176.8620  143.7420 C   0  0  0  0  0  0  0  0  0  0  0  0
  183.6890  178.9470  144.3720 C   0  0  0  0  0  3  0  0  0  0  0  0
  190.2050  176.5050  146.1860 C   0  0  0  0  0  0  0  0  0  0  0  0
  193.2560  175.1200  145.7760 C   0  0  0  0  0  2  0  0  0  0  0  0
  184.5320  178.3430  142.1240 N   0  0  0  0  0  0  0  0  0  0  0  0
  187.9390  177.3750  145.8410 C   0  0  0  0  0  0  0  0  0  0  0  0
  191.2200  174.9770  144.4330 C   0  0  1  0  0  3  0  0  0  0  0  0
  187.8740  176.7410  144.5790 C   0  0  0  0  0  0  0  0  0  0  0  0
  188.0400  178.6660  148.3280 C   0  0  0  0  0  3  0  0  0  0  0  0
  186.6670  177.3910  141.2760 C   0  0  0  0  0  2  0  0  0  0  0  0
  189.1330  177.9160  147.8840 C   0  0  0  0  0  3  0  0  0  0  0  0
  186.5820  176.2980  142.3510 C   0  0  0  0  0  2  0  0  0  0  0  0
  184.3400  177.8620  143.5000 C   0  0  1  0  0  3  0  0  0  0  0  0
  186.8950  178.7750  147.5380 C   0  0  0  0  0  3  0  0  0  0  0  0
  185.6770  178.2230  145.4630 N   0  0  0  0  0  0  0  0  0  0  0  0
  183.4010  178.4070  141.2900 N   0  0  0  0  0  0  0  0  0  0  0  0
  182.1930  178.2910  141.7430 C   0  0  0  0  0  3  0  0  0  0  0  0
  178.7200  178.6870  141.1920 O   0  0  0  0  0  0  0  0  0  0  0  0
  180.6910  179.8010  140.5130 C   0  0  0  0  0  2  0  0  0  0  0  0
  181.0300  178.3700  140.8150 C   0  0  2  0  0  3  0  0  0  0  0  0
  179.2840  179.9610  141.0390 C   0  0  0  0  0  2  0  0  0  0  0  0
  179.7940  177.8440  141.5070 C   0  0  0  0  0  2  0  0  0  0  0  0
  1 26  1  0  0  0  0
  3  7  1  6  0  0  0
  3 16  1  0  0  0  0
  4 23  2  0  0  0  0
  5 15  2  0  0  0  0
  6  7  1  0  0  0  0
  8 12  1  0  0  0  0
  9 27  1  0  0  0  0
 10 17  1  0  0  0  0
 11 20  2  0  0  0  0
 11  5  1  0  0  0  0
 13  9  2  0  0  0  0
 13 20  1  0  0  0  0
 14  2  2  0  0  0  0
 15  4  1  0  0  0  0
 15 12  1  0  0  0  0
 16  8  1  0  0  0  0
 17 25  1  0  0  0  0
 18  1  2  0  0  0  0
 18  4  1  0  0  0  0
 19  6  1  6  0  0  0
 19  3  1  0  0  0  0
 19  5  1  0  0  0  0
 20 18  1  0  0  0  0
 22 10  1  0  0  0  0
 22 24  1  0  0  0  0
 23 21  1  0  0  0  0
 24 13  1  0  0  0  0
 25  9  1  0  0  0  0
 25 14  1  1  0  0  0
 26 21  2  0  0  0  0
 27  2  1  0  0  0  0
 27  1  1  0  0  0  0
 28 29  2  0  0  0  0
 28 17  1  0  0  0  0
 30 34  1  0  0  0  0
 31 32  1  0  0  0  0
 31 33  1  0  0  0  0
 32 34  1  0  0  0  0
 32 29  1  1  0  0  0
 33 30  1  0  0  0  0
M  END
>  <MODEL>
4

>  <REMARK>
 VINA RESULT:      -8.6      4.778     10.243
  Name = 
  2 active torsions:
  status: ('A' for Active; 'I' for Inactive)
    1  A    between atoms: N_17  and  N_28
    2  A    between atoms: C_29  and  C_32
                            x       y       z     vdW  Elec       q    Type
                         _______ _______ _______ _____ _____    ______ ____

>  <TORSDO>
F 2

$$$$
=
 OpenBabel11112417563D

 34 41  0  0  1  0  0  0  0  0999 V2000
  188.5610  175.2880  141.6160 C   0  0  0  0  0  0  0  0  0  0  0  0
  190.4670  173.8030  140.7020 C   0  0  0  0  0  3  0  0  0  0  0  0
  185.9420  178.7390  146.3850 C   0  0  2  0  0  3  0  0  0  0  0  0
  186.8940  176.7290  142.6860 C   0  0  0  0  0  0  0  0  0  0  0  0
  186.7960  176.8320  145.1250 C   0  0  0  0  0  0  0  0  0  0  0  0
  186.8590  177.3390  147.6990 C   0  0  0  0  0  2  0  0  0  0  0  0
  186.4190  178.7950  147.8190 C   0  0  0  0  0  2  0  0  0  0  0  0
  184.0900  178.3440  144.7550 C   0  0  0  0  0  2  0  0  0  0  0  0
  190.0850  173.9250  143.0200 C   0  0  0  0  0  0  0  0  0  0  0  0
  192.4190  174.6860  144.4460 C   0  0  0  0  0  2  0  0  0  0  0  0
  187.8320  175.8970  145.2020 C   0  0  0  0  0  3  0  0  0  0  0  0
  185.2130  178.3260  143.6970 C   0  0  0  0  0  2  0  0  0  0  0  0
  189.5460  174.4040  144.1500 C   0  0  0  0  0  0  0  0  0  0  0  0
  191.5990  173.0480  141.4210 C   0  0  0  0  0  3  0  0  0  0  0  0
  186.2890  177.2420  143.8550 C   0  0  0  0  0  0  0  0  0  0  0  0
  184.4940  179.0580  146.0640 C   0  0  0  0  0  2  0  0  0  0  0  0
  192.3930  173.3970  143.7400 N   0  0  0  0  0  0  0  0  0  0  0  0
  187.9570  175.7990  142.7850 C   0  0  0  0  0  0  0  0  0  0  0  0
  186.1020  177.2460  146.3860 C   0  0  1  0  0  3  0  0  0  0  0  0
  188.4290  175.3840  144.0510 C   0  0  0  0  0  0  0  0  0  0  0  0
  187.0650  176.6190  140.2560 C   0  0  0  0  0  3  0  0  0  0  0  0
  191.5240  174.6680  145.6920 C   0  0  0  0  0  2  0  0  0  0  0  0
  186.4610  177.1270  141.4100 C   0  0  0  0  0  3  0  0  0  0  0  0
  190.1480  174.0230  145.4740 C   0  0  0  0  0  2  0  0  0  0  0  0
  191.2440  172.9970  142.9150 C   0  0  1  0  0  3  0  0  0  0  0  0
  188.1120  175.7010  140.3570 C   0  0  0  0  0  3  0  0  0  0  0  0
  189.6320  174.3480  141.7530 N   0  0  0  0  0  0  0  0  0  0  0  0
  193.4360  172.4670  143.9040 N   0  0  0  0  0  0  0  0  0  0  0  0
  194.5920  172.7940  144.3870 C   0  0  0  0  0  3  0  0  0  0  0  0
  196.7880  170.9270  146.4410 O   0  0  0  0  0  0  0  0  0  0  0  0
  195.0670  170.4350  144.8960 C   0  0  0  0  0  2  0  0  0  0  0  0
  195.6610  171.7680  144.5430 C   0  0  2  0  0  3  0  0  0  0  0  0
  195.6560  170.1220  146.2510 C   0  0  0  0  0  2  0  0  0  0  0  0
  196.5200  172.1090  145.7370 C   0  0  0  0  0  2  0  0  0  0  0  0
  1 27  1  0  0  0  0
  1 18  1  0  0  0  0
  2 14  2  0  0  0  0
  2 27  1  0  0  0  0
  3 16  1  1  0  0  0
  3 19  1  0  0  0  0
  3  7  1  0  0  0  0
  4 18  2  0  0  0  0
  4 15  1  0  0  0  0
  5 11  1  0  0  0  0
  5 19  1  0  0  0  0
  6  7  1  0  0  0  0
  8 16  1  0  0  0  0
  9 13  2  0  0  0  0
 10 22  1  0  0  0  0
 12 15  1  0  0  0  0
 12  8  1  0  0  0  0
 13 24  1  0  0  0  0
 15  5  2  0  0  0  0
 17 28  1  0  0  0  0
 17 10  1  0  0  0  0
 18 20  1  0  0  0  0
 19  6  1  1  0  0  0
 20 13  1  0  0  0  0
 20 11  2  0  0  0  0
 21 26  1  0  0  0  0
 21 23  2  0  0  0  0
 23  4  1  0  0  0  0
 24 22  1  0  0  0  0
 25 14  1  6  0  0  0
 25  9  1  0  0  0  0
 25 17  1  0  0  0  0
 26  1  2  0  0  0  0
 27  9  1  0  0  0  0
 28 29  2  0  0  0  0
 31 33  1  0  0  0  0
 32 29  1  1  0  0  0
 32 31  1  0  0  0  0
 32 34  1  0  0  0  0
 33 30  1  0  0  0  0
 34 30  1  0  0  0  0
M  END
>  <MODEL>
5

>  <REMARK>
 VINA RESULT:      -8.4      1.132      1.493
  Name = 
  2 active torsions:
  status: ('A' for Active; 'I' for Inactive)
    1  A    between atoms: N_17  and  N_28
    2  A    between atoms: C_29  and  C_32
                            x       y       z     vdW  Elec       q    Type
                         _______ _______ _______ _____ _____    ______ ____

>  <TORSDO>
F 2

$$$$
=
 OpenBabel11112417563D

 34 41  0  0  1  0  0  0  0  0999 V2000
  190.8450  173.7800  141.5840 C   0  0  0  0  0  0  0  0  0  0  0  0
  188.3980  174.6080  141.5070 C   0  0  0  0  0  3  0  0  0  0  0  0
  196.3770  172.9410  144.7770 C   0  0  2  0  0  3  0  0  0  0  0  0
  193.1610  173.0500  141.9010 C   0  0  0  0  0  0  0  0  0  0  0  0
  194.4910  174.0450  143.6930 C   0  0  0  0  0  0  0  0  0  0  0  0
  195.8760  174.7300  145.8130 C   0  0  0  0  0  2  0  0  0  0  0  0
  196.7220  173.5030  146.1380 C   0  0  0  0  0  2  0  0  0  0  0  0
  196.9540  172.6630  142.3620 C   0  0  0  0  0  2  0  0  0  0  0  0
  189.9050  175.5460  143.0510 C   0  0  0  0  0  0  0  0  0  0  0  0
  188.9410  175.3810  145.7160 C   0  0  0  0  0  2  0  0  0  0  0  0
  193.4110  174.8640  144.0340 C   0  0  0  0  0  3  0  0  0  0  0  0
  195.5050  172.1530  142.2180 C   0  0  0  0  0  2  0  0  0  0  0  0
  191.0500  175.6470  143.7410 C   0  0  0  0  0  0  0  0  0  0  0  0
  187.6150  175.5470  142.4420 C   0  0  0  0  0  3  0  0  0  0  0  0
  194.3890  173.1390  142.5930 C   0  0  0  0  0  0  0  0  0  0  0  0
  197.4890  172.5850  143.8090 C   0  0  0  0  0  2  0  0  0  0  0  0
  188.2300  176.2230  144.7430 N   0  0  0  0  0  0  0  0  0  0  0  0
  192.0710  173.8720  142.2770 C   0  0  0  0  0  0  0  0  0  0  0  0
  195.8080  174.2690  144.3680 C   0  0  1  0  0  3  0  0  0  0  0  0
  192.1980  174.7820  143.3510 C   0  0  0  0  0  0  0  0  0  0  0  0
  191.7730  172.0610  140.1570 C   0  0  0  0  0  3  0  0  0  0  0  0
  190.2880  175.9960  146.1190 C   0  0  0  0  0  2  0  0  0  0  0  0
  192.9920  172.1490  140.8360 C   0  0  0  0  0  3  0  0  0  0  0  0
  191.1100  176.5440  144.9450 C   0  0  0  0  0  2  0  0  0  0  0  0
  188.6360  176.2730  143.3310 C   0  0  1  0  0  3  0  0  0  0  0  0
  190.7010  172.8740  140.5280 C   0  0  0  0  0  3  0  0  0  0  0  0
  189.7640  174.6290  141.9890 N   0  0  0  0  0  0  0  0  0  0  0  0
  187.1900  177.0760  145.1540 N   0  0  0  0  0  0  0  0  0  0  0  0
  187.0220  178.2600  144.6590 C   0  0  0  0  0  3  0  0  0  0  0  0
  183.6370  178.6540  145.6150 O   0  0  0  0  0  0  0  0  0  0  0  0
  185.7460  179.0220  146.6180 C   0  0  0  0  0  2  0  0  0  0  0  0
  185.9010  179.1210  145.1290 C   0  0  2  0  0  3  0  0  0  0  0  0
  184.3560  178.4600  146.8030 C   0  0  0  0  0  2  0  0  0  0  0  0
  184.5930  178.5880  144.5920 C   0  0  0  0  0  2  0  0  0  0  0  0
  1 27  1  0  0  0  0
  1 18  1  0  0  0  0
  2 27  1  0  0  0  0
  2 14  2  0  0  0  0
  3 16  1  6  0  0  0
  3  7  1  0  0  0  0
  4 18  2  0  0  0  0
  4 15  1  0  0  0  0
  5 11  1  0  0  0  0
  5 19  1  0  0  0  0
  6  7  1  0  0  0  0
  8 16  1  0  0  0  0
  9 25  1  0  0  0  0
  9 13  2  0  0  0  0
 10 22  1  0  0  0  0
 12  8  1  0  0  0  0
 12 15  1  0  0  0  0
 13 24  1  0  0  0  0
 15  5  2  0  0  0  0
 17 28  1  0  0  0  0
 17 10  1  0  0  0  0
 18 20  1  0  0  0  0
 19  3  1  0  0  0  0
 19  6  1  1  0  0  0
 20 13  1  0  0  0  0
 20 11  2  0  0  0  0
 21 26  1  0  0  0  0
 21 23  2  0  0  0  0
 23  4  1  0  0  0  0
 24 22  1  0  0  0  0
 25 14  1  6  0  0  0
 25 17  1  0  0  0  0
 26  1  2  0  0  0  0
 27  9  1  0  0  0  0
 29 28  2  0  0  0  0
 30 33  1  0  0  0  0
 31 33  1  0  0  0  0
 32 29  1  6  0  0  0
 32 31  1  0  0  0  0
 34 32  1  0  0  0  0
 34 30  1  0  0  0  0
M  END
>  <MODEL>
6

>  <REMARK>
 VINA RESULT:      -8.2      3.242      8.919
  Name = 
  2 active torsions:
  status: ('A' for Active; 'I' for Inactive)
    1  A    between atoms: N_17  and  N_28
    2  A    between atoms: C_29  and  C_32
                            x       y       z     vdW  Elec       q    Type
                         _______ _______ _______ _____ _____    ______ ____

>  <TORSDO>
F 2

$$$$
=
 OpenBabel11112417563D

 34 41  0  0  1  0  0  0  0  0999 V2000
  193.8820  175.6180  144.4810 C   0  0  0  0  0  0  0  0  0  0  0  0
  192.1750  177.5410  144.2190 C   0  0  0  0  0  3  0  0  0  0  0  0
  195.3240  169.3420  144.2920 C   0  0  2  0  0  3  0  0  0  0  0  0
  195.3210  173.6430  144.6440 C   0  0  0  0  0  0  0  0  0  0  0  0
  194.3020  171.4480  144.9790 C   0  0  0  0  0  0  0  0  0  0  0  0
  193.3200  169.0160  144.9280 C   0  0  0  0  0  2  0  0  0  0  0  0
  194.3440  168.2000  144.1450 C   0  0  0  0  0  2  0  0  0  0  0  0
  197.1910  170.4150  145.5580 C   0  0  0  0  0  2  0  0  0  0  0  0
  191.4250  175.3650  144.7070 C   0  0  0  0  0  0  0  0  0  0  0  0
  189.5050  174.4530  142.8250 C   0  0  0  0  0  2  0  0  0  0  0  0
  193.0390  172.0450  145.0130 C   0  0  0  0  0  3  0  0  0  0  0  0
  196.8820  171.6530  144.6900 C   0  0  0  0  0  2  0  0  0  0  0  0
  191.5300  174.0370  144.8620 C   0  0  0  0  0  0  0  0  0  0  0  0
  190.6380  177.5300  144.1490 C   0  0  0  0  0  3  0  0  0  0  0  0
  195.4740  172.2500  144.8210 C   0  0  0  0  0  0  0  0  0  0  0  0
  196.6680  169.0950  144.9500 C   0  0  0  0  0  2  0  0  0  0  0  0
  189.1740  175.5840  143.7020 N   0  0  0  0  0  0  0  0  0  0  0  0
  194.0310  174.2260  144.6600 C   0  0  0  0  0  0  0  0  0  0  0  0
  194.4220  169.9910  145.3020 C   0  0  1  0  0  3  0  0  0  0  0  0
  192.8840  173.4200  144.8440 C   0  0  0  0  0  0  0  0  0  0  0  0
  196.2810  175.8530  144.2680 C   0  0  0  0  0  3  0  0  0  0  0  0
  189.5450  173.1280  143.5990 C   0  0  0  0  0  2  0  0  0  0  0  0
  196.4370  174.4760  144.4460 C   0  0  0  0  0  3  0  0  0  0  0  0
  190.2820  173.2030  144.9430 C   0  0  0  0  0  2  0  0  0  0  0  0
  190.1630  176.1510  144.6310 C   0  0  1  0  0  3  0  0  0  0  0  0
  195.0070  176.4250  144.2850 C   0  0  0  0  0  3  0  0  0  0  0  0
  192.5620  176.1740  144.5060 N   0  0  0  0  0  0  0  0  0  0  0  0
  187.8670  176.1050  143.7410 N   0  0  0  0  0  0  0  0  0  0  0  0
  187.3290  176.5570  144.8280 C   0  0  0  0  0  3  0  0  0  0  0  0
  184.5560  177.9590  146.5230 O   0  0  0  0  0  0  0  0  0  0  0  0
  185.9630  178.5990  144.7340 C   0  0  0  0  0  2  0  0  0  0  0  0
  185.9420  177.1000  144.8130 C   0  0  2  0  0  3  0  0  0  0  0  0
  185.2850  179.0410  146.0100 C   0  0  0  0  0  2  0  0  0  0  0  0
  185.2730  176.8170  146.1380 C   0  0  0  0  0  2  0  0  0  0  0  0
  1 27  1  0  0  0  0
  1 18  1  0  0  0  0
  2 27  1  0  0  0  0
  3  7  1  1  0  0  0
  3 16  1  0  0  0  0
  3 19  1  0  0  0  0
  4 18  2  0  0  0  0
  4 15  1  0  0  0  0
  5 11  1  0  0  0  0
  5 19  1  0  0  0  0
  7  6  1  0  0  0  0
  9 13  2  0  0  0  0
 10 22  1  0  0  0  0
 10 17  1  0  0  0  0
 12 15  1  0  0  0  0
 12  8  1  0  0  0  0
 13 24  1  0  0  0  0
 14  2  2  0  0  0  0
 15  5  2  0  0  0  0
 16  8  1  0  0  0  0
 17 28  1  0  0  0  0
 17 25  1  0  0  0  0
 18 20  1  0  0  0  0
 19  6  1  6  0  0  0
 20 13  1  0  0  0  0
 20 11  2  0  0  0  0
 21 26  1  0  0  0  0
 21 23  2  0  0  0  0
 22 24  1  0  0  0  0
 23  4  1  0  0  0  0
 25 14  1  6  0  0  0
 25  9  1  0  0  0  0
 26  1  2  0  0  0  0
 27  9  1  0  0  0  0
 28 29  2  0  0  0  0
 31 32  1  0  0  0  0
 31 33  1  0  0  0  0
 32 29  1  1  0  0  0
 32 34  1  0  0  0  0
 33 30  1  0  0  0  0
 34 30  1  0  0  0  0
M  END
>  <MODEL>
7

>  <REMARK>
 VINA RESULT:      -8.2      3.215      9.510
  Name = 
  2 active torsions:
  status: ('A' for Active; 'I' for Inactive)
    1  A    between atoms: N_17  and  N_28
    2  A    between atoms: C_29  and  C_32
                            x       y       z     vdW  Elec       q    Type
                         _______ _______ _______ _____ _____    ______ ____

>  <TORSDO>
F 2

$$$$
=
 OpenBabel11112417563D

 34 41  0  0  1  0  0  0  0  0999 V2000
  191.3400  175.5100  145.1670 C   0  0  0  0  0  0  0  0  0  0  0  0
  192.8090  174.0540  143.6170 C   0  0  0  0  0  3  0  0  0  0  0  0
  185.5870  177.8950  146.8160 C   0  0  2  0  0  3  0  0  0  0  0  0
  189.7510  176.8010  146.5100 C   0  0  0  0  0  0  0  0  0  0  0  0
  187.6110  177.4530  145.5270 C   0  0  0  0  0  0  0  0  0  0  0  0
  185.1420  177.8550  144.7360 C   0  0  0  0  0  2  0  0  0  0  0  0
  184.3100  177.7930  146.0130 C   0  0  0  0  0  2  0  0  0  0  0  0
  187.2620  179.3120  148.0120 C   0  0  0  0  0  2  0  0  0  0  0  0
  190.7740  174.9280  142.8230 C   0  0  0  0  0  0  0  0  0  0  0  0
  189.0670  172.9000  141.8090 C   0  0  0  0  0  2  0  0  0  0  0  0
  187.9830  176.8450  144.3250 C   0  0  0  0  0  3  0  0  0  0  0  0
  188.1330  178.0380  148.0110 C   0  0  0  0  0  2  0  0  0  0  0  0
  189.5810  175.5340  142.9130 C   0  0  0  0  0  0  0  0  0  0  0  0
  192.5340  173.4570  142.2260 C   0  0  0  0  0  3  0  0  0  0  0  0
  188.5100  177.4640  146.6370 C   0  0  0  0  0  0  0  0  0  0  0  0
  185.7570  179.0240  147.8140 C   0  0  0  0  0  2  0  0  0  0  0  0
  190.3340  173.1850  141.1220 N   0  0  0  0  0  0  0  0  0  0  0  0
  190.1000  176.1730  145.2910 C   0  0  0  0  0  0  0  0  0  0  0  0
  186.3460  178.2530  145.5710 C   0  0  1  0  0  3  0  0  0  0  0  0
  189.2090  176.1940  144.1930 C   0  0  0  0  0  0  0  0  0  0  0  0
  191.8830  176.0870  147.4530 C   0  0  0  0  0  3  0  0  0  0  0  0
  188.0440  174.0250  141.6010 C   0  0  0  0  0  2  0  0  0  0  0  0
  190.6580  176.7470  147.5820 C   0  0  0  0  0  3  0  0  0  0  0  0
  188.6180  175.4390  141.7630 C   0  0  0  0  0  2  0  0  0  0  0  0
  191.2930  174.1620  141.6570 C   0  0  1  0  0  3  0  0  0  0  0  0
  192.2250  175.4690  146.2490 C   0  0  0  0  0  3  0  0  0  0  0  0
  191.6620  174.8870  143.9180 N   0  0  0  0  0  0  0  0  0  0  0  0
  190.6290  172.5910  139.8810 N   0  0  0  0  0  0  0  0  0  0  0  0
  190.7710  173.2800  138.7950 C   0  0  0  0  0  3  0  0  0  0  0  0
  190.0790  170.7840  136.3830 O   0  0  0  0  0  0  0  0  0  0  0  0
  190.2290  173.1430  136.4000 C   0  0  0  0  0  2  0  0  0  0  0  0
  191.0860  172.6010  137.5070 C   0  0  2  0  0  3  0  0  0  0  0  0
  189.4350  171.9460  135.9350 C   0  0  0  0  0  2  0  0  0  0  0  0
  190.6900  171.1460  137.5910 C   0  0  0  0  0  2  0  0  0  0  0  0
  1 18  2  0  0  0  0
  1 26  1  0  0  0  0
  2 27  1  0  0  0  0
  3  7  1  6  0  0  0
  3 16  1  0  0  0  0
  4 15  1  0  0  0  0
  4 23  2  0  0  0  0
  5 19  1  0  0  0  0
  5 15  2  0  0  0  0
  6  7  1  0  0  0  0
  9 13  2  0  0  0  0
  9 27  1  0  0  0  0
 11  5  1  0  0  0  0
 12  8  1  0  0  0  0
 13 20  1  0  0  0  0
 14  2  2  0  0  0  0
 15 12  1  0  0  0  0
 16  8  1  0  0  0  0
 17 25  1  0  0  0  0
 17 10  1  0  0  0  0
 18  4  1  0  0  0  0
 19  6  1  6  0  0  0
 19  3  1  0  0  0  0
 20 11  2  0  0  0  0
 20 18  1  0  0  0  0
 21 23  1  0  0  0  0
 22 24  1  0  0  0  0
 22 10  1  0  0  0  0
 24 13  1  0  0  0  0
 25 14  1  1  0  0  0
 25  9  1  0  0  0  0
 26 21  2  0  0  0  0
 27  1  1  0  0  0  0
 28 17  1  0  0  0  0
 29 28  2  0  0  0  0
 30 34  1  0  0  0  0
 31 32  1  0  0  0  0
 32 34  1  0  0  0  0
 32 29  1  1  0  0  0
 33 30  1  0  0  0  0
 33 31  1  0  0  0  0
M  END
>  <MODEL>
8

>  <REMARK>
 VINA RESULT:      -8.2      3.066      5.829
  Name = 
  2 active torsions:
  status: ('A' for Active; 'I' for Inactive)
    1  A    between atoms: N_17  and  N_28
    2  A    between atoms: C_29  and  C_32
                            x       y       z     vdW  Elec       q    Type
                         _______ _______ _______ _____ _____    ______ ____

>  <TORSDO>
F 2

$$$$
=
 OpenBabel11112417563D

 34 41  0  0  1  0  0  0  0  0999 V2000
  188.2600  177.2660  146.2000 C   0  0  0  0  0  0  0  0  0  0  0  0
  186.1700  178.6760  146.7700 C   0  0  0  0  0  3  0  0  0  0  0  0
  191.9390  174.1880  141.8990 C   0  0  2  0  0  3  0  0  0  0  0  0
  190.1780  175.9580  145.4190 C   0  0  0  0  0  0  0  0  0  0  0  0
  190.0220  174.7640  143.2930 C   0  0  0  0  0  0  0  0  0  0  0  0
  190.1260  173.7840  140.8620 C   0  0  0  0  0  2  0  0  0  0  0  0
  191.5910  173.9130  140.4530 C   0  0  0  0  0  2  0  0  0  0  0  0
  192.6680  173.3330  144.1300 C   0  0  0  0  0  2  0  0  0  0  0  0
  186.1810  177.3180  144.8480 C   0  0  0  0  0  0  0  0  0  0  0  0
  185.5680  178.7910  142.5000 C   0  0  0  0  0  2  0  0  0  0  0  0
  188.7060  175.2110  143.1430 C   0  0  0  0  0  3  0  0  0  0  0  0
  192.2470  174.7260  144.6460 C   0  0  0  0  0  2  0  0  0  0  0  0
  186.7180  176.5290  143.9070 C   0  0  0  0  0  0  0  0  0  0  0  0
  184.8890  178.9610  145.9660 C   0  0  0  0  0  3  0  0  0  0  0  0
  190.7730  175.1110  144.4580 C   0  0  0  0  0  0  0  0  0  0  0  0
  192.9420  173.3000  142.6110 C   0  0  0  0  0  2  0  0  0  0  0  0
  184.5400  178.6290  143.5380 N   0  0  0  0  0  0  0  0  0  0  0  0
  188.8510  176.4190  145.2380 C   0  0  0  0  0  0  0  0  0  0  0  0
  190.5610  173.7660  142.3170 C   0  0  1  0  0  3  0  0  0  0  0  0
  188.1140  176.0440  144.0920 C   0  0  0  0  0  0  0  0  0  0  0  0
  190.2920  177.2050  147.5120 C   0  0  0  0  0  3  0  0  0  0  0  0
  185.8270  177.4780  141.7480 C   0  0  0  0  0  2  0  0  0  0  0  0
  190.8830  176.3640  146.5650 C   0  0  0  0  0  3  0  0  0  0  0  0
  185.9420  176.2440  142.6520 C   0  0  0  0  0  2  0  0  0  0  0  0
  184.8340  177.9520  144.8090 C   0  0  1  0  0  3  0  0  0  0  0  0
  188.9840  177.6560  147.3320 C   0  0  0  0  0  3  0  0  0  0  0  0
  186.9150  177.7110  145.9860 N   0  0  0  0  0  0  0  0  0  0  0  0
  183.2150  179.0420  143.3080 N   0  0  0  0  0  0  0  0  0  0  0  0
  182.5010  178.5810  142.3320 C   0  0  0  0  0  3  0  0  0  0  0  0
  179.7940  179.3770  140.1940 O   0  0  0  0  0  0  0  0  0  0  0  0
  180.1680  177.8830  141.9880 C   0  0  0  0  0  2  0  0  0  0  0  0
  181.1010  179.0500  142.1350 C   0  0  2  0  0  3  0  0  0  0  0  0
  179.5900  178.0520  140.6030 C   0  0  0  0  0  2  0  0  0  0  0  0
  180.9890  179.7710  140.8120 C   0  0  0  0  0  2  0  0  0  0  0  0
  1 26  1  0  0  0  0
  3  7  1  6  0  0  0
  3 19  1  0  0  0  0
  3 16  1  0  0  0  0
  4 23  2  0  0  0  0
  5 15  2  0  0  0  0
  7  6  1  0  0  0  0
  8 12  1  0  0  0  0
  9 27  1  0  0  0  0
 10 17  1  0  0  0  0
 11  5  1  0  0  0  0
 11 20  2  0  0  0  0
 13 20  1  0  0  0  0
 13  9  2  0  0  0  0
 14  2  2  0  0  0  0
 15 12  1  0  0  0  0
 15  4  1  0  0  0  0
 16  8  1  0  0  0  0
 17 25  1  0  0  0  0
 18  4  1  0  0  0  0
 18  1  2  0  0  0  0
 19  6  1  6  0  0  0
 19  5  1  0  0  0  0
 20 18  1  0  0  0  0
 22 10  1  0  0  0  0
 22 24  1  0  0  0  0
 23 21  1  0  0  0  0
 24 13  1  0  0  0  0
 25  9  1  0  0  0  0
 25 14  1  1  0  0  0
 26 21  2  0  0  0  0
 27  1  1  0  0  0  0
 27  2  1  0  0  0  0
 28 17  1  0  0  0  0
 29 28  2  0  0  0  0
 30 33  1  0  0  0  0
 30 34  1  0  0  0  0
 31 32  1  0  0  0  0
 32 29  1  6  0  0  0
 33 31  1  0  0  0  0
 34 32  1  0  0  0  0
M  END
>  <MODEL>
9

>  <REMARK>
 VINA RESULT:      -8.1      4.586     10.182
  Name = 
  2 active torsions:
  status: ('A' for Active; 'I' for Inactive)
    1  A    between atoms: N_17  and  N_28
    2  A    between atoms: C_29  and  C_32
                            x       y       z     vdW  Elec       q    Type
                         _______ _______ _______ _____ _____    ______ ____

>  <TORSDO>
F 2

$$$$
