=
 OpenBabel11112416363D

 32 37  0  0  1  0  0  0  0  0999 V2000
  190.6090  172.7330  142.6480 C   0  0  0  0  0  2  0  0  0  0  0  0
  186.8400  176.9470  143.1850 C   0  0  0  0  0  0  0  0  0  0  0  0
  186.4170  178.3180  147.8550 C   0  0  0  0  0  3  0  0  0  0  0  0
  185.1470  178.9050  147.5240 N   0  0  0  0  0  0  0  0  0  0  0  0
  185.1970  177.5080  141.3890 C   0  0  1  0  0  3  0  0  0  0  0  0
  183.7700  177.9390  141.2730 C   0  0  0  0  0  0  0  0  0  0  0  0
  188.4740  175.1200  142.7240 C   0  0  0  0  0  0  0  0  0  0  0  0
  188.6900  176.3780  144.8590 C   0  0  0  0  0  2  0  0  0  0  0  0
  181.8420  178.7950  141.8600 N   0  0  0  0  0  0  0  0  0  0  0  0
  189.7730  174.0860  144.6100 C   0  0  0  0  0  2  0  0  0  0  0  0
  187.1500  177.6970  146.9310 C   0  0  0  0  0  3  0  0  0  0  0  0
  187.3450  176.9950  144.5800 C   0  0  0  0  0  0  0  0  0  0  0  0
  186.6460  177.6140  145.5470 C   0  0  0  0  0  0  0  0  0  0  0  0
  184.8310  178.1420  143.9220 C   0  0  0  0  0  0  0  0  0  0  0  0
  181.8340  178.4680  140.5490 C   0  0  0  0  0  3  0  0  0  0  0  0
  189.1340  172.7420  142.2490 C   0  0  0  0  0  2  0  0  0  0  0  0
  188.9310  175.1640  144.0020 C   0  0  0  0  0  0  0  0  0  0  0  0
  183.0190  177.9370  140.1520 N   0  0  0  0  0  0  0  0  0  0  0  0
  188.7050  174.0420  141.8510 O   0  0  0  0  0  0  0  0  0  0  0  0
  190.9640  173.7760  143.7070 C   0  0  1  0  0  3  0  0  0  0  0  0
  184.6530  178.8610  146.3210 C   0  0  0  0  0  3  0  0  0  0  0  0
  185.3690  178.2130  145.2550 N   0  0  0  0  0  0  0  0  0  0  0  0
  183.5930  178.5940  143.6590 C   0  0  0  0  0  3  0  0  0  0  0  0
  187.7220  176.2930  142.1540 C   0  0  0  0  0  2  0  0  0  0  0  0
  185.9980  178.3740  140.6410 O   0  0  0  0  0  1  0  0  0  0  0  0
  180.7470  179.3780  142.6140 C   0  0  0  0  0  1  0  0  0  0  0  0
  185.6610  177.5070  142.8430 C   0  0  0  0  0  0  0  0  0  0  0  0
  183.0590  178.4660  142.3050 C   0  0  0  0  0  0  0  0  0  0  0  0
  192.0830  173.2920  144.5010 N   0  0  0  0  0  2  0  0  0  0  0  0
  193.1230  174.1520  144.9700 C   0  0  0  0  0  0  0  0  0  0  0  0
  193.1200  175.3790  144.6850 O   0  0  0  0  0  0  0  0  0  0  0  0
  194.2240  173.5920  145.7960 C   0  0  0  0  0  1  0  0  0  0  0  0
  1 20  1  0  0  0  0
  2 12  1  0  0  0  0
  4  3  1  0  0  0  0
  5 25  1  6  0  0  0
  5 27  1  0  0  0  0
  6  5  1  0  0  0  0
  6 28  2  0  0  0  0
  7 17  2  0  0  0  0
  9 28  1  0  0  0  0
  9 26  1  0  0  0  0
 11  3  2  0  0  0  0
 12  8  1  0  0  0  0
 12 13  2  0  0  0  0
 13 11  1  0  0  0  0
 14 22  1  0  0  0  0
 15  9  1  0  0  0  0
 16  1  1  0  0  0  0
 17 10  1  0  0  0  0
 17  8  1  0  0  0  0
 18 15  2  0  0  0  0
 18  6  1  0  0  0  0
 19 16  1  0  0  0  0
 19  7  1  0  0  0  0
 20 29  1  1  0  0  0
 20 10  1  0  0  0  0
 21  4  2  0  0  0  0
 22 13  1  0  0  0  0
 22 21  1  0  0  0  0
 23 14  2  0  0  0  0
 24  7  1  0  0  0  0
 24  2  1  0  0  0  0
 27  2  2  0  0  0  0
 27 14  1  0  0  0  0
 28 23  1  0  0  0  0
 29 30  1  0  0  0  0
 30 32  1  0  0  0  0
 31 30  2  0  0  0  0
M  END
>  <MODEL>
1

>  <REMARK>
 VINA RESULT:      -9.1      0.000      0.000
  Name = 
  1 active torsions:
  status: ('A' for Active; 'I' for Inactive)
    1  A    between atoms: C_20  and  N_29
                            x       y       z     vdW  Elec       q    Type
                         _______ _______ _______ _____ _____    ______ ____

>  <TORSDO>
F 1

$$$$
=
 OpenBabel11112416363D

 32 37  0  0  1  0  0  0  0  0999 V2000
  184.8300  178.7340  144.6460 C   0  0  0  0  0  2  0  0  0  0  0  0
  189.8260  176.3270  143.4250 C   0  0  0  0  0  0  0  0  0  0  0  0
  189.2320  172.5020  140.4430 C   0  0  0  0  0  3  0  0  0  0  0  0
  190.5240  172.0290  140.8610 N   0  0  0  0  0  0  0  0  0  0  0  0
  191.8880  176.7750  144.7600 C   0  0  0  0  0  0  0  0  0  0  0  0
  193.0790  176.0240  145.2680 C   0  0  0  0  0  0  0  0  0  0  0  0
  187.7490  177.5500  144.0640 C   0  0  0  0  0  0  0  0  0  0  0  0
  187.6840  176.1010  142.0430 C   0  0  0  0  0  2  0  0  0  0  0  0
  194.5910  174.4470  145.4030 N   0  0  0  0  0  0  0  0  0  0  0  0
  185.5180  176.7840  143.1960 C   0  0  0  0  0  2  0  0  0  0  0  0
  188.7200  173.6310  140.9360 C   0  0  0  0  0  3  0  0  0  0  0  0
  189.0200  175.5440  142.4540 C   0  0  0  0  0  0  0  0  0  0  0  0
  189.4950  174.4020  141.9240 C   0  0  0  0  0  0  0  0  0  0  0  0
  191.5690  174.6080  143.2930 C   0  0  2  0  0  3  0  0  0  0  0  0
  194.8730  175.4470  146.2670 C   0  0  0  0  0  3  0  0  0  0  0  0
  185.8590  178.1440  145.6100 C   0  0  0  0  0  2  0  0  0  0  0  0
  187.0150  176.8290  143.1770 C   0  0  0  0  0  0  0  0  0  0  0  0
  193.9550  176.4450  146.2040 N   0  0  0  0  0  0  0  0  0  0  0  0
  187.1870  178.2940  145.1170 O   0  0  0  0  0  0  0  0  0  0  0  0
  184.9490  178.2000  143.2190 C   0  0  1  0  0  3  0  0  0  0  0  0
  191.2510  172.6680  141.7300 C   0  0  0  0  0  3  0  0  0  0  0  0
  190.7850  173.8960  142.3190 N   0  0  0  0  0  0  0  0  0  0  0  0
  192.7200  174.0900  143.7550 C   0  0  0  0  0  3  0  0  0  0  0  0
  189.2440  177.6280  143.9130 C   0  0  0  0  0  2  0  0  0  0  0  0
  192.3230  177.9210  144.0910 O   0  0  0  0  0  1  0  0  0  0  0  0
  195.3550  173.2280  145.2110 C   0  0  0  0  0  1  0  0  0  0  0  0
  191.0490  175.9160  143.8180 C   0  0  0  0  0  0  0  0  0  0  0  0
  193.4690  174.8180  144.7780 C   0  0  0  0  0  0  0  0  0  0  0  0
  183.6390  178.2240  142.5860 N   0  0  0  0  0  2  0  0  0  0  0  0
  183.4710  178.2890  141.1690 C   0  0  0  0  0  0  0  0  0  0  0  0
  184.4700  178.3530  140.4050 O   0  0  0  0  0  0  0  0  0  0  0  0
  182.1020  178.2870  140.5910 C   0  0  0  0  0  1  0  0  0  0  0  0
  1 16  1  0  0  0  0
  2 27  2  0  0  0  0
  2 24  1  0  0  0  0
  3  4  1  0  0  0  0
  3 11  2  0  0  0  0
  4 21  2  0  0  0  0
  5  6  2  0  0  0  0
  6 18  1  0  0  0  0
  7 19  1  0  0  0  0
  8 12  1  0  0  0  0
  8 17  1  0  0  0  0
  9 15  1  0  0  0  0
 10 20  1  0  0  0  0
 11 13  1  0  0  0  0
 12  2  1  0  0  0  0
 13 22  1  0  0  0  0
 13 12  2  0  0  0  0
 14 23  1  1  0  0  0
 14 27  1  0  0  0  0
 17 10  1  0  0  0  0
 17  7  2  0  0  0  0
 18 15  2  0  0  0  0
 19 16  1  0  0  0  0
 20 29  1  1  0  0  0
 20  1  1  0  0  0  0
 21 22  1  0  0  0  0
 22 14  1  0  0  0  0
 23 28  2  0  0  0  0
 24  7  1  0  0  0  0
 25  5  1  0  0  0  0
 26  9  1  0  0  0  0
 27  5  1  0  0  0  0
 28  6  1  0  0  0  0
 28  9  1  0  0  0  0
 30 29  1  0  0  0  0
 31 30  2  0  0  0  0
 32 30  1  0  0  0  0
M  END
>  <MODEL>
2

>  <REMARK>
 VINA RESULT:      -8.8      2.115      9.073
  Name = 
  1 active torsions:
  status: ('A' for Active; 'I' for Inactive)
    1  A    between atoms: C_20  and  N_29
                            x       y       z     vdW  Elec       q    Type
                         _______ _______ _______ _____ _____    ______ ____

>  <TORSDO>
F 1

$$$$
=
 OpenBabel11112416363D

 32 37  0  0  1  0  0  0  0  0999 V2000
  195.4680  174.9410  146.1340 C   0  0  0  0  0  2  0  0  0  0  0  0
  189.9080  175.4500  145.0990 C   0  0  0  0  0  0  0  0  0  0  0  0
  188.9210  174.5410  140.4010 C   0  0  0  0  0  3  0  0  0  0  0  0
  187.6820  175.2500  140.5670 N   0  0  0  0  0  0  0  0  0  0  0  0
  188.3560  176.6130  146.6720 C   0  0  0  0  0  0  0  0  0  0  0  0
  187.1680  177.5200  146.6080 C   0  0  0  0  0  0  0  0  0  0  0  0
  192.3000  175.2510  145.7740 C   0  0  0  0  0  0  0  0  0  0  0  0
  191.5760  174.1360  143.6710 C   0  0  0  0  0  2  0  0  0  0  0  0
  185.4010  178.5130  145.7800 N   0  0  0  0  0  0  0  0  0  0  0  0
  194.0420  174.6320  144.0720 C   0  0  0  0  0  2  0  0  0  0  0  0
  189.7770  174.4040  141.4140 C   0  0  0  0  0  3  0  0  0  0  0  0
  190.2730  174.8820  143.7760 C   0  0  0  0  0  0  0  0  0  0  0  0
  189.4420  174.9900  142.7250 C   0  0  0  0  0  0  0  0  0  0  0  0
  187.8310  176.2950  144.1090 C   0  0  2  0  0  3  0  0  0  0  0  0
  185.5580  178.8370  147.0820 C   0  0  0  0  0  3  0  0  0  0  0  0
  194.5720  176.1600  146.3460 C   0  0  0  0  0  2  0  0  0  0  0  0
  192.6310  174.7350  144.5610 C   0  0  0  0  0  0  0  0  0  0  0  0
  186.6440  178.2320  147.6270 N   0  0  0  0  0  0  0  0  0  0  0  0
  193.2390  175.7810  146.6770 O   0  0  0  0  0  0  0  0  0  0  0  0
  194.9140  173.9420  145.1180 C   0  0  1  0  0  3  0  0  0  0  0  0
  187.3350  175.7880  141.7000 C   0  0  0  0  0  3  0  0  0  0  0  0
  188.1910  175.6930  142.8520 N   0  0  0  0  0  0  0  0  0  0  0  0
  186.7240  177.0510  144.2120 C   0  0  0  0  0  3  0  0  0  0  0  0
  190.8680  175.2220  146.2360 C   0  0  0  0  0  2  0  0  0  0  0  0
  188.0610  175.5330  147.5060 O   0  0  0  0  0  1  0  0  0  0  0  0
  184.3530  178.9800  144.8910 C   0  0  0  0  0  1  0  0  0  0  0  0
  188.7420  176.1020  145.2870 C   0  0  0  0  0  0  0  0  0  0  0  0
  186.4100  177.6850  145.4920 C   0  0  0  0  0  0  0  0  0  0  0  0
  196.0190  173.2510  144.4720 N   0  0  0  0  0  2  0  0  0  0  0  0
  196.5560  172.0240  144.9710 C   0  0  0  0  0  0  0  0  0  0  0  0
  196.0980  171.5020  146.0220 O   0  0  0  0  0  0  0  0  0  0  0  0
  197.6710  171.3610  144.2470 C   0  0  0  0  0  1  0  0  0  0  0  0
  1 16  1  0  0  0  0
  2 27  2  0  0  0  0
  2 24  1  0  0  0  0
  3  4  1  0  0  0  0
  3 11  2  0  0  0  0
  4 21  2  0  0  0  0
  5 25  1  0  0  0  0
  6  5  2  0  0  0  0
  6 18  1  0  0  0  0
  7 24  1  0  0  0  0
  7 19  1  0  0  0  0
  8 12  1  0  0  0  0
  8 17  1  0  0  0  0
  9 15  1  0  0  0  0
 10 17  1  0  0  0  0
 10 20  1  0  0  0  0
 11 13  1  0  0  0  0
 12  2  1  0  0  0  0
 13 22  1  0  0  0  0
 13 12  2  0  0  0  0
 14 23  1  6  0  0  0
 14 27  1  0  0  0  0
 15 18  2  0  0  0  0
 16 19  1  0  0  0  0
 17  7  2  0  0  0  0
 20 29  1  6  0  0  0
 20  1  1  0  0  0  0
 21 22  1  0  0  0  0
 22 14  1  0  0  0  0
 23 28  2  0  0  0  0
 26  9  1  0  0  0  0
 27  5  1  0  0  0  0
 28  9  1  0  0  0  0
 28  6  1  0  0  0  0
 29 30  1  0  0  0  0
 30 31  2  0  0  0  0
 32 30  1  0  0  0  0
M  END
>  <MODEL>
3

>  <REMARK>
 VINA RESULT:      -8.4      2.938      5.636
  Name = 
  1 active torsions:
  status: ('A' for Active; 'I' for Inactive)
    1  A    between atoms: C_20  and  N_29
                            x       y       z     vdW  Elec       q    Type
                         _______ _______ _______ _____ _____    ______ ____

>  <TORSDO>
F 1

$$$$
=
 OpenBabel11112416363D

 32 37  0  0  1  0  0  0  0  0999 V2000
  194.9410  175.6660  146.1380 C   0  0  0  0  0  2  0  0  0  0  0  0
  189.8300  175.4360  143.6740 C   0  0  0  0  0  0  0  0  0  0  0  0
  190.0090  172.8480  139.5340 C   0  0  0  0  0  3  0  0  0  0  0  0
  188.7910  173.4930  139.1270 N   0  0  0  0  0  0  0  0  0  0  0  0
  187.9760  176.9900  144.2940 C   0  0  0  0  0  0  0  0  0  0  0  0
  186.8720  177.7410  143.6200 C   0  0  0  0  0  0  0  0  0  0  0  0
  191.9730  175.6360  144.9340 C   0  0  0  0  0  0  0  0  0  0  0  0
  191.7560  173.8010  143.2680 C   0  0  0  0  0  2  0  0  0  0  0  0
  185.3980  178.2630  142.0870 N   0  0  0  0  0  0  0  0  0  0  0  0
  194.0610  174.5540  144.0470 C   0  0  0  0  0  2  0  0  0  0  0  0
  190.5820  173.1340  140.7030 C   0  0  0  0  0  3  0  0  0  0  0  0
  190.4930  174.4560  142.7770 C   0  0  0  0  0  0  0  0  0  0  0  0
  189.9520  174.1290  141.5900 C   0  0  0  0  0  0  0  0  0  0  0  0
  188.0920  175.7440  141.9730 C   0  0  2  0  0  3  0  0  0  0  0  0
  185.2380  179.0410  143.1800 C   0  0  0  0  0  3  0  0  0  0  0  0
  194.0610  176.8240  145.6710 C   0  0  0  0  0  2  0  0  0  0  0  0
  192.5770  174.7410  144.1090 C   0  0  0  0  0  0  0  0  0  0  0  0
  186.1350  178.7380  144.1530 N   0  0  0  0  0  0  0  0  0  0  0  0
  192.6750  176.5090  145.7830 O   0  0  0  0  0  0  0  0  0  0  0  0
  194.6230  174.3380  145.4490 C   0  0  1  0  0  3  0  0  0  0  0  0
  188.1920  174.3790  139.8680 C   0  0  0  0  0  3  0  0  0  0  0  0
  188.7330  174.7550  141.1470 N   0  0  0  0  0  0  0  0  0  0  0  0
  187.0190  176.4190  141.5250 C   0  0  0  0  0  3  0  0  0  0  0  0
  190.4710  175.6890  145.0130 C   0  0  0  0  0  2  0  0  0  0  0  0
  187.4480  176.2650  145.3630 O   0  0  0  0  0  1  0  0  0  0  0  0
  184.6180  178.3180  140.8630 C   0  0  0  0  0  1  0  0  0  0  0  0
  188.6760  176.0410  143.3250 C   0  0  0  0  0  0  0  0  0  0  0  0
  186.4200  177.4490  142.3710 C   0  0  0  0  0  0  0  0  0  0  0  0
  195.8310  173.5290  145.3860 N   0  0  0  0  0  2  0  0  0  0  0  0
  195.8130  172.1080  145.5390 C   0  0  0  0  0  0  0  0  0  0  0  0
  194.7340  171.4990  145.7630 O   0  0  0  0  0  0  0  0  0  0  0  0
  197.0830  171.3430  145.4410 C   0  0  0  0  0  1  0  0  0  0  0  0
  2 24  1  0  0  0  0
  3 11  2  0  0  0  0
  4  3  1  0  0  0  0
  4 21  2  0  0  0  0
  5 25  1  0  0  0  0
  6 18  1  0  0  0  0
  6  5  2  0  0  0  0
  7 24  1  0  0  0  0
  7 19  1  0  0  0  0
  8 17  1  0  0  0  0
  9 28  1  0  0  0  0
  9 15  1  0  0  0  0
 10 17  1  0  0  0  0
 10 20  1  0  0  0  0
 11 13  1  0  0  0  0
 12  8  1  0  0  0  0
 12  2  1  0  0  0  0
 13 12  2  0  0  0  0
 14 23  1  6  0  0  0
 14 27  1  0  0  0  0
 15 18  2  0  0  0  0
 16 19  1  0  0  0  0
 16  1  1  0  0  0  0
 17  7  2  0  0  0  0
 20 29  1  6  0  0  0
 20  1  1  0  0  0  0
 21 22  1  0  0  0  0
 22 13  1  0  0  0  0
 22 14  1  0  0  0  0
 23 28  2  0  0  0  0
 26  9  1  0  0  0  0
 27  2  2  0  0  0  0
 27  5  1  0  0  0  0
 28  6  1  0  0  0  0
 29 30  1  0  0  0  0
 30 31  2  0  0  0  0
 32 30  1  0  0  0  0
M  END
>  <MODEL>
4

>  <REMARK>
 VINA RESULT:      -8.3      2.551      5.515
  Name = 
  1 active torsions:
  status: ('A' for Active; 'I' for Inactive)
    1  A    between atoms: C_20  and  N_29
                            x       y       z     vdW  Elec       q    Type
                         _______ _______ _______ _____ _____    ______ ____

>  <TORSDO>
F 1

$$$$
=
 OpenBabel11112416363D

 32 37  0  0  1  0  0  0  0  0999 V2000
  189.4990  172.3700  138.5590 C   0  0  0  0  0  2  0  0  0  0  0  0
  188.6710  175.9790  142.8640 C   0  0  0  0  0  0  0  0  0  0  0  0
  191.7390  175.0290  146.5460 C   0  0  0  0  0  3  0  0  0  0  0  0
  190.8500  175.7470  147.4180 N   0  0  0  0  0  0  0  0  0  0  0  0
  186.6070  177.3710  143.0640 C   0  0  1  0  0  3  0  0  0  0  0  0
  185.6840  177.8570  144.1360 C   0  0  0  0  0  0  0  0  0  0  0  0
  188.8890  174.5210  140.8530 C   0  0  0  0  0  0  0  0  0  0  0  0
  190.8030  174.6290  142.4380 C   0  0  0  0  0  2  0  0  0  0  0  0
  184.9930  178.4090  146.1390 N   0  0  0  0  0  0  0  0  0  0  0  0
  190.6000  172.6810  140.8110 C   0  0  0  0  0  2  0  0  0  0  0  0
  191.4650  174.8840  145.2490 C   0  0  0  0  0  3  0  0  0  0  0  0
  189.9040  175.3520  143.4050 C   0  0  0  0  0  0  0  0  0  0  0  0
  190.2280  175.4740  144.7050 C   0  0  0  0  0  0  0  0  0  0  0  0
  188.1360  176.7630  145.1240 C   0  0  0  0  0  0  0  0  0  0  0  0
  184.0630  178.7310  145.2140 C   0  0  0  0  0  3  0  0  0  0  0  0
  188.2190  172.6160  139.3570 C   0  0  0  0  0  2  0  0  0  0  0  0
  190.0150  173.9470  141.3530 C   0  0  0  0  0  0  0  0  0  0  0  0
  184.4640  178.4050  143.9580 N   0  0  0  0  0  0  0  0  0  0  0  0
  188.1320  173.9660  139.8060 O   0  0  0  0  0  0  0  0  0  0  0  0
  190.7710  172.7850  139.2980 C   0  0  1  0  0  3  0  0  0  0  0  0
  189.7450  176.2870  146.9930 C   0  0  0  0  0  3  0  0  0  0  0  0
  189.3620  176.1860  145.6090 N   0  0  0  0  0  0  0  0  0  0  0  0
  187.2630  177.3300  145.9760 C   0  0  0  0  0  3  0  0  0  0  0  0
  188.4240  175.8500  141.3840 C   0  0  0  0  0  2  0  0  0  0  0  0
  187.0150  178.4560  142.2860 O   0  0  0  0  0  1  0  0  0  0  0  0
  184.8940  178.6120  147.5730 C   0  0  0  0  0  1  0  0  0  0  0  0
  187.8300  176.6750  143.6570 C   0  0  0  0  0  0  0  0  0  0  0  0
  186.0070  177.8670  145.4560 C   0  0  0  0  0  0  0  0  0  0  0  0
  191.8760  171.9470  138.8590 N   0  0  0  0  0  2  0  0  0  0  0  0
  193.2040  172.4480  138.6960 C   0  0  0  0  0  0  0  0  0  0  0  0
  193.4640  173.6630  138.9080 O   0  0  0  0  0  0  0  0  0  0  0  0
  194.2900  171.5280  138.2660 C   0  0  0  0  0  1  0  0  0  0  0  0
  1 20  1  0  0  0  0
  1 16  1  0  0  0  0
  2 12  1  0  0  0  0
  2 27  2  0  0  0  0
  3  4  1  0  0  0  0
  5 25  1  1  0  0  0
  5 27  1  0  0  0  0
  5  6  1  0  0  0  0
  6 28  2  0  0  0  0
  7 17  2  0  0  0  0
  7 24  1  0  0  0  0
  8 12  1  0  0  0  0
  9 26  1  0  0  0  0
 10 17  1  0  0  0  0
 11  3  2  0  0  0  0
 12 13  2  0  0  0  0
 13 11  1  0  0  0  0
 13 22  1  0  0  0  0
 14 22  1  0  0  0  0
 14 23  2  0  0  0  0
 15  9  1  0  0  0  0
 16 19  1  0  0  0  0
 17  8  1  0  0  0  0
 18  6  1  0  0  0  0
 18 15  2  0  0  0  0
 19  7  1  0  0  0  0
 20 29  1  6  0  0  0
 20 10  1  0  0  0  0
 21  4  2  0  0  0  0
 22 21  1  0  0  0  0
 24  2  1  0  0  0  0
 27 14  1  0  0  0  0
 28 23  1  0  0  0  0
 28  9  1  0  0  0  0
 30 29  1  0  0  0  0
 30 31  2  0  0  0  0
 32 30  1  0  0  0  0
M  END
>  <MODEL>
5

>  <REMARK>
 VINA RESULT:      -8.1      2.743      4.558
  Name = 
  1 active torsions:
  status: ('A' for Active; 'I' for Inactive)
    1  A    between atoms: C_20  and  N_29
                            x       y       z     vdW  Elec       q    Type
                         _______ _______ _______ _____ _____    ______ ____

>  <TORSDO>
F 1

$$$$
=
 OpenBabel11112416363D

 32 37  0  0  1  0  0  0  0  0999 V2000
  185.9040  177.8890  142.1780 C   0  0  0  0  0  2  0  0  0  0  0  0
  190.8730  175.1970  142.7390 C   0  0  0  0  0  0  0  0  0  0  0  0
  193.0850  176.4770  146.9030 C   0  0  0  0  0  3  0  0  0  0  0  0
  194.3240  176.0140  146.3390 N   0  0  0  0  0  0  0  0  0  0  0  0
  192.0080  174.0710  140.8210 C   0  0  1  0  0  3  0  0  0  0  0  0
  193.3960  173.8740  140.3000 C   0  0  0  0  0  0  0  0  0  0  0  0
  188.6520  176.2480  142.3110 C   0  0  0  0  0  0  0  0  0  0  0  0
  189.5150  176.2340  144.6440 C   0  0  0  0  0  2  0  0  0  0  0  0
  195.5820  173.7560  140.3110 N   0  0  0  0  0  0  0  0  0  0  0  0
  187.6880  177.8740  143.9670 C   0  0  0  0  0  2  0  0  0  0  0  0
  191.9470  176.4160  146.2110 C   0  0  0  0  0  3  0  0  0  0  0  0
  190.8460  175.7850  144.1030 C   0  0  0  0  0  0  0  0  0  0  0  0
  191.9650  175.8630  144.8430 C   0  0  0  0  0  0  0  0  0  0  0  0
  193.2920  174.8800  142.9760 C   0  0  0  0  0  0  0  0  0  0  0  0
  195.0940  173.3680  139.1120 C   0  0  0  0  0  3  0  0  0  0  0  0
  187.1080  177.9140  141.2370 C   0  0  0  0  0  2  0  0  0  0  0  0
  188.6330  176.7870  143.5580 C   0  0  0  0  0  0  0  0  0  0  0  0
  193.7380  173.4260  139.0740 N   0  0  0  0  0  0  0  0  0  0  0  0
  187.8210  176.6800  141.2630 O   0  0  0  0  0  0  0  0  0  0  0  0
  186.2550  177.4880  143.6110 C   0  0  1  0  0  3  0  0  0  0  0  0
  194.3990  175.5190  145.1380 C   0  0  0  0  0  3  0  0  0  0  0  0
  193.2250  175.4110  144.3120 N   0  0  0  0  0  0  0  0  0  0  0  0
  194.4760  174.5610  142.4250 C   0  0  0  0  0  3  0  0  0  0  0  0
  189.5600  175.0860  142.0100 C   0  0  0  0  0  2  0  0  0  0  0  0
  191.3720  172.8300  140.9040 O   0  0  0  0  0  1  0  0  0  0  0  0
  196.9800  173.8200  140.6970 C   0  0  0  0  0  1  0  0  0  0  0  0
  192.0180  174.7370  142.1940 C   0  0  0  0  0  0  0  0  0  0  0  0
  194.5130  174.0670  141.0500 C   0  0  0  0  0  0  0  0  0  0  0  0
  185.3220  178.1230  144.5290 N   0  0  0  0  0  2  0  0  0  0  0  0
  185.0130  177.5750  145.8120 C   0  0  0  0  0  0  0  0  0  0  0  0
  185.5280  176.4900  146.1900 O   0  0  0  0  0  0  0  0  0  0  0  0
  184.0660  178.2910  146.7080 C   0  0  0  0  0  1  0  0  0  0  0  0
  1 20  1  0  0  0  0
  2 12  1  0  0  0  0
  4  3  1  0  0  0  0
  5 25  1  1  0  0  0
  5 27  1  0  0  0  0
  6  5  1  0  0  0  0
  6 28  2  0  0  0  0
  7 17  2  0  0  0  0
  9 26  1  0  0  0  0
  9 28  1  0  0  0  0
 11  3  2  0  0  0  0
 12  8  1  0  0  0  0
 12 13  2  0  0  0  0
 13 11  1  0  0  0  0
 14 22  1  0  0  0  0
 15  9  1  0  0  0  0
 16 19  1  0  0  0  0
 16  1  1  0  0  0  0
 17 10  1  0  0  0  0
 17  8  1  0  0  0  0
 18 15  2  0  0  0  0
 18  6  1  0  0  0  0
 19  7  1  0  0  0  0
 20 10  1  0  0  0  0
 20 29  1  1  0  0  0
 21  4  2  0  0  0  0
 22 13  1  0  0  0  0
 22 21  1  0  0  0  0
 23 14  2  0  0  0  0
 24  7  1  0  0  0  0
 24  2  1  0  0  0  0
 27  2  2  0  0  0  0
 27 14  1  0  0  0  0
 28 23  1  0  0  0  0
 29 30  1  0  0  0  0
 30 31  2  0  0  0  0
 30 32  1  0  0  0  0
M  END
>  <MODEL>
6

>  <REMARK>
 VINA RESULT:      -7.8      3.083      8.666
  Name = 
  1 active torsions:
  status: ('A' for Active; 'I' for Inactive)
    1  A    between atoms: C_20  and  N_29
                            x       y       z     vdW  Elec       q    Type
                         _______ _______ _______ _____ _____    ______ ____

>  <TORSDO>
F 1

$$$$
=
 OpenBabel11112416363D

 32 37  0  0  1  0  0  0  0  0999 V2000
  178.2880  179.0130  141.3870 C   0  0  0  0  0  2  0  0  0  0  0  0
  183.7310  178.4440  142.9030 C   0  0  0  0  0  0  0  0  0  0  0  0
  186.4480  176.9800  139.1160 C   0  0  0  0  0  3  0  0  0  0  0  0
  187.4410  176.5340  140.0540 N   0  0  0  0  0  0  0  0  0  0  0  0
  184.4480  178.3200  145.2920 C   0  0  0  0  0  0  0  0  0  0  0  0
  185.4500  177.5850  146.1240 C   0  0  0  0  0  0  0  0  0  0  0  0
  181.3040  178.7850  142.4420 C   0  0  0  0  0  0  0  0  0  0  0  0
  182.8740  178.7630  140.5130 C   0  0  0  0  0  2  0  0  0  0  0  0
  187.2500  176.4370  146.6100 N   0  0  0  0  0  0  0  0  0  0  0  0
  180.3860  178.3600  140.1420 C   0  0  0  0  0  2  0  0  0  0  0  0
  185.3120  177.5410  139.5300 C   0  0  0  0  0  3  0  0  0  0  0  0
  183.9430  178.2580  141.4450 C   0  0  0  0  0  0  0  0  0  0  0  0
  185.0750  177.7030  140.9760 C   0  0  0  0  0  0  0  0  0  0  0  0
  185.8950  177.3660  143.3060 C   0  0  2  0  0  3  0  0  0  0  0  0
  186.5950  176.7890  147.7380 C   0  0  0  0  0  3  0  0  0  0  0  0
  178.8800  178.1230  142.4790 C   0  0  0  0  0  2  0  0  0  0  0  0
  181.5010  178.6100  141.1100 C   0  0  0  0  0  0  0  0  0  0  0  0
  185.4750  177.5070  147.4710 N   0  0  0  0  0  0  0  0  0  0  0  0
  180.0430  178.7070  143.0600 O   0  0  0  0  0  0  0  0  0  0  0  0
  179.2960  179.4140  140.3100 C   0  0  1  0  0  3  0  0  0  0  0  0
  187.2850  176.6510  141.3410 C   0  0  0  0  0  3  0  0  0  0  0  0
  186.0920  177.2430  141.8860 N   0  0  0  0  0  0  0  0  0  0  0  0
  186.7820  176.8390  144.1680 C   0  0  0  0  0  3  0  0  0  0  0  0
  182.4650  179.1370  143.3330 C   0  0  0  0  0  2  0  0  0  0  0  0
  184.5630  179.6890  145.5440 O   0  0  0  0  0  1  0  0  0  0  0  0
  188.4770  175.6660  146.5250 C   0  0  0  0  0  1  0  0  0  0  0  0
  184.6550  178.0520  143.8040 C   0  0  0  0  0  0  0  0  0  0  0  0
  186.5290  176.9430  145.6040 C   0  0  0  0  0  0  0  0  0  0  0  0
  178.5970  179.6190  139.0510 N   0  0  0  0  0  2  0  0  0  0  0  0
  178.4380  180.9100  138.4600 C   0  0  0  0  0  0  0  0  0  0  0  0
  178.8860  181.9390  139.0320 O   0  0  0  0  0  0  0  0  0  0  0  0
  177.7320  181.0410  137.1590 C   0  0  0  0  0  1  0  0  0  0  0  0
  1 16  1  0  0  0  0
  2 24  1  0  0  0  0
  2 27  2  0  0  0  0
  3 11  2  0  0  0  0
  3  4  1  0  0  0  0
  4 21  2  0  0  0  0
  5 25  1  0  0  0  0
  5  6  2  0  0  0  0
  6 18  1  0  0  0  0
  7 19  1  0  0  0  0
  7 24  1  0  0  0  0
  8 17  1  0  0  0  0
  8 12  1  0  0  0  0
  9 15  1  0  0  0  0
 10 20  1  0  0  0  0
 10 17  1  0  0  0  0
 11 13  1  0  0  0  0
 12  2  1  0  0  0  0
 13 12  2  0  0  0  0
 13 22  1  0  0  0  0
 14 27  1  0  0  0  0
 14 23  1  1  0  0  0
 16 19  1  0  0  0  0
 17  7  2  0  0  0  0
 18 15  2  0  0  0  0
 20 29  1  6  0  0  0
 20  1  1  0  0  0  0
 21 22  1  0  0  0  0
 22 14  1  0  0  0  0
 23 28  2  0  0  0  0
 26  9  1  0  0  0  0
 27  5  1  0  0  0  0
 28  6  1  0  0  0  0
 28  9  1  0  0  0  0
 30 31  2  0  0  0  0
 30 29  1  0  0  0  0
 32 30  1  0  0  0  0
M  END
>  <MODEL>
7

>  <REMARK>
 VINA RESULT:      -7.6      3.645      9.536
  Name = 
  1 active torsions:
  status: ('A' for Active; 'I' for Inactive)
    1  A    between atoms: C_20  and  N_29
                            x       y       z     vdW  Elec       q    Type
                         _______ _______ _______ _____ _____    ______ ____

>  <TORSDO>
F 1

$$$$
=
 OpenBabel11112416363D

 32 37  0  0  1  0  0  0  0  0999 V2000
  191.6180  171.0630  140.5280 C   0  0  0  0  0  2  0  0  0  0  0  0
  189.4190  175.6800  142.9970 C   0  0  0  0  0  0  0  0  0  0  0  0
  191.4680  176.4620  147.3630 C   0  0  0  0  0  3  0  0  0  0  0  0
  190.3300  177.2710  147.7060 N   0  0  0  0  0  0  0  0  0  0  0  0
  187.2790  176.7150  142.2310 C   0  0  1  0  0  3  0  0  0  0  0  0
  186.0730  177.3660  142.8300 C   0  0  0  0  0  0  0  0  0  0  0  0
  190.2670  173.7090  141.7260 C   0  0  0  0  0  0  0  0  0  0  0  0
  191.6820  174.6240  143.5570 C   0  0  0  0  0  2  0  0  0  0  0  0
  184.8390  178.4130  144.3050 N   0  0  0  0  0  0  0  0  0  0  0  0
  192.0600  172.2510  142.7130 C   0  0  0  0  0  2  0  0  0  0  0  0
  191.5580  175.8680  146.1720 C   0  0  0  0  0  3  0  0  0  0  0  0
  190.5090  175.4660  143.9830 C   0  0  0  0  0  0  0  0  0  0  0  0
  190.4680  176.0470  145.1950 C   0  0  0  0  0  0  0  0  0  0  0  0
  188.2500  177.0520  144.6590 C   0  0  0  0  0  0  0  0  0  0  0  0
  184.1650  178.2680  143.1430 C   0  0  0  0  0  3  0  0  0  0  0  0
  190.1580  171.3440  140.8820 C   0  0  0  0  0  2  0  0  0  0  0  0
  191.2600  173.5140  142.6330 C   0  0  0  0  0  0  0  0  0  0  0  0
  184.9060  177.6250  142.2040 N   0  0  0  0  0  0  0  0  0  0  0  0
  189.8560  172.7350  140.7990 O   0  0  0  0  0  0  0  0  0  0  0  0
  192.6160  171.8900  141.3380 C   0  0  1  0  0  3  0  0  0  0  0  0
  189.3400  177.4620  146.8840 C   0  0  0  0  0  3  0  0  0  0  0  0
  189.3440  176.8630  145.5750 N   0  0  0  0  0  0  0  0  0  0  0  0
  187.1450  177.7150  145.0400 C   0  0  0  0  0  3  0  0  0  0  0  0
  189.5820  175.0460  141.6400 C   0  0  0  0  0  2  0  0  0  0  0  0
  187.7970  177.5450  141.2340 O   0  0  0  0  0  1  0  0  0  0  0  0
  184.3500  179.0460  145.5170 C   0  0  0  0  0  1  0  0  0  0  0  0
  188.3500  176.4500  143.2860 C   0  0  0  0  0  0  0  0  0  0  0  0
  186.0340  177.8490  144.0990 C   0  0  0  0  0  0  0  0  0  0  0  0
  193.8560  171.1430  141.4790 N   0  0  0  0  0  2  0  0  0  0  0  0
  195.1340  171.7800  141.5480 C   0  0  0  0  0  0  0  0  0  0  0  0
  195.2340  173.0330  141.4630 O   0  0  0  0  0  0  0  0  0  0  0  0
  196.3580  170.9540  141.7140 C   0  0  0  0  0  1  0  0  0  0  0  0
  1 16  1  0  0  0  0
  1 20  1  0  0  0  0
  2 27  2  0  0  0  0
  2 12  1  0  0  0  0
  3  4  1  0  0  0  0
  5 25  1  6  0  0  0
  5  6  1  0  0  0  0
  5 27  1  0  0  0  0
  6 28  2  0  0  0  0
  7 17  2  0  0  0  0
  8 12  1  0  0  0  0
  9 26  1  0  0  0  0
 11  3  2  0  0  0  0
 12 13  2  0  0  0  0
 13 22  1  0  0  0  0
 13 11  1  0  0  0  0
 14 23  2  0  0  0  0
 14 22  1  0  0  0  0
 15  9  1  0  0  0  0
 17 10  1  0  0  0  0
 17  8  1  0  0  0  0
 18  6  1  0  0  0  0
 18 15  2  0  0  0  0
 19 16  1  0  0  0  0
 19  7  1  0  0  0  0
 20 29  1  1  0  0  0
 20 10  1  0  0  0  0
 21  4  2  0  0  0  0
 22 21  1  0  0  0  0
 24  7  1  0  0  0  0
 24  2  1  0  0  0  0
 27 14  1  0  0  0  0
 28  9  1  0  0  0  0
 28 23  1  0  0  0  0
 29 30  1  0  0  0  0
 30 32  1  0  0  0  0
 31 30  2  0  0  0  0
M  END
>  <MODEL>
8

>  <REMARK>
 VINA RESULT:      -7.5      2.616      3.750
  Name = 
  1 active torsions:
  status: ('A' for Active; 'I' for Inactive)
    1  A    between atoms: C_20  and  N_29
                            x       y       z     vdW  Elec       q    Type
                         _______ _______ _______ _____ _____    ______ ____

>  <TORSDO>
F 1

$$$$
=
 OpenBabel11112416363D

 32 37  0  0  1  0  0  0  0  0999 V2000
  185.9390  176.8170  142.4360 C   0  0  0  0  0  2  0  0  0  0  0  0
  190.8500  174.1590  143.4710 C   0  0  0  0  0  0  0  0  0  0  0  0
  193.3930  176.4880  146.9320 C   0  0  0  0  0  3  0  0  0  0  0  0
  194.5730  175.8190  146.4570 N   0  0  0  0  0  0  0  0  0  0  0  0
  191.8100  172.4660  141.9060 C   0  0  1  0  0  3  0  0  0  0  0  0
  193.1500  172.0560  141.3850 C   0  0  0  0  0  0  0  0  0  0  0  0
  188.6380  175.1500  142.8840 C   0  0  0  0  0  0  0  0  0  0  0  0
  189.6640  175.7750  145.0620 C   0  0  0  0  0  2  0  0  0  0  0  0
  195.3270  171.8360  141.3000 N   0  0  0  0  0  0  0  0  0  0  0  0
  187.8450  177.2350  144.0400 C   0  0  0  0  0  2  0  0  0  0  0  0
  192.2070  176.2850  146.3580 C   0  0  0  0  0  3  0  0  0  0  0  0
  190.9380  175.1210  144.5990 C   0  0  0  0  0  0  0  0  0  0  0  0
  192.1100  175.3560  145.2160 C   0  0  0  0  0  0  0  0  0  0  0  0
  193.2690  173.8050  143.6460 C   0  0  0  0  0  0  0  0  0  0  0  0
  194.7430  171.1400  140.3000 C   0  0  0  0  0  3  0  0  0  0  0  0
  187.0720  176.5050  141.4600 C   0  0  0  0  0  2  0  0  0  0  0  0
  188.7240  176.0300  143.9150 C   0  0  0  0  0  0  0  0  0  0  0  0
  193.3910  171.2530  140.3270 N   0  0  0  0  0  0  0  0  0  0  0  0
  187.7470  175.2980  141.8060 O   0  0  0  0  0  0  0  0  0  0  0  0
  186.3790  176.8350  143.9000 C   0  0  1  0  0  3  0  0  0  0  0  0
  194.5470  174.9910  145.4530 C   0  0  0  0  0  3  0  0  0  0  0  0
  193.3140  174.7060  144.7680 N   0  0  0  0  0  0  0  0  0  0  0  0
  194.4000  173.2790  143.1450 C   0  0  0  0  0  3  0  0  0  0  0  0
  189.4850  173.9060  142.8860 C   0  0  0  0  0  2  0  0  0  0  0  0
  191.1440  171.3380  142.3900 O   0  0  0  0  0  1  0  0  0  0  0  0
  196.7510  171.9400  141.5660 C   0  0  0  0  0  1  0  0  0  0  0  0
  191.9380  173.5030  143.0180 C   0  0  0  0  0  0  0  0  0  0  0  0
  194.3240  172.4030  141.9770 C   0  0  0  0  0  0  0  0  0  0  0  0
  185.5340  177.7570  144.6440 N   0  0  0  0  0  2  0  0  0  0  0  0
  185.1200  177.5060  145.9880 C   0  0  0  0  0  0  0  0  0  0  0  0
  185.4590  176.4470  146.5790 O   0  0  0  0  0  0  0  0  0  0  0  0
  184.2750  178.5040  146.6950 C   0  0  0  0  0  1  0  0  0  0  0  0
  1 20  1  0  0  0  0
  2 12  1  0  0  0  0
  4  3  1  0  0  0  0
  5 25  1  1  0  0  0
  5 27  1  0  0  0  0
  6  5  1  0  0  0  0
  6 28  2  0  0  0  0
  7 24  1  0  0  0  0
  7 17  2  0  0  0  0
  9 26  1  0  0  0  0
  9 28  1  0  0  0  0
 11  3  2  0  0  0  0
 12  8  1  0  0  0  0
 12 13  2  0  0  0  0
 13 11  1  0  0  0  0
 14 22  1  0  0  0  0
 15 18  2  0  0  0  0
 15  9  1  0  0  0  0
 16 19  1  0  0  0  0
 16  1  1  0  0  0  0
 17 10  1  0  0  0  0
 17  8  1  0  0  0  0
 18  6  1  0  0  0  0
 19  7  1  0  0  0  0
 20 10  1  0  0  0  0
 20 29  1  1  0  0  0
 21  4  2  0  0  0  0
 22 13  1  0  0  0  0
 22 21  1  0  0  0  0
 23 14  2  0  0  0  0
 24  2  1  0  0  0  0
 27  2  2  0  0  0  0
 27 14  1  0  0  0  0
 28 23  1  0  0  0  0
 29 30  1  0  0  0  0
 30 31  2  0  0  0  0
 30 32  1  0  0  0  0
M  END
>  <MODEL>
9

>  <REMARK>
 VINA RESULT:      -7.5      2.742      8.890
  Name = 
  1 active torsions:
  status: ('A' for Active; 'I' for Inactive)
    1  A    between atoms: C_20  and  N_29
                            x       y       z     vdW  Elec       q    Type
                         _______ _______ _______ _____ _____    ______ ____

>  <TORSDO>
F 1

$$$$
