=
 OpenBabel11112416223D

 30 35  0  0  1  0  0  0  0  0999 V2000
  186.8340  177.7770  143.8760 C   0  0  0  0  0  0  0  0  0  0  0  0
  184.8670  178.5930  145.2460 N   0  0  0  0  0  0  0  0  0  0  0  0
  188.9790  176.6740  147.3970 N   0  0  0  0  0  0  0  0  0  0  0  0
  187.9700  177.0290  143.8740 C   0  0  0  0  0  0  0  0  0  0  0  0
  186.2590  178.1950  142.5500 C   0  0  0  0  0  2  0  0  0  0  0  0
  188.0530  175.9170  140.4070 O   0  0  0  0  0  0  0  0  0  0  0  0
  190.9100  176.8150  143.2860 C   0  0  1  0  0  3  0  0  0  0  0  0
  187.6570  176.4780  141.4660 C   0  0  0  0  0  0  0  0  0  0  0  0
  191.0560  176.5240  144.7300 N   0  0  2  0  0  0  0  0  0  0  0  0
  189.9460  175.9970  146.8670 C   0  0  0  0  0  0  0  0  0  0  0  0
  186.2680  177.0440  141.5480 C   0  0  2  0  0  3  0  0  0  0  0  0
  188.5020  176.5090  142.6310 N   0  0  0  0  0  0  0  0  0  0  0  0
  184.2530  178.7830  146.5290 C   0  0  0  0  0  3  0  0  0  0  0  0
  192.1710  175.5880  144.8100 C   0  0  0  0  0  2  0  0  0  0  0  0
  192.2700  176.6160  142.6440 C   0  0  0  0  0  2  0  0  0  0  0  0
  184.1380  178.9290  144.1560 O   0  0  0  0  0  1  0  0  0  0  0  0
  188.1940  177.1480  146.3160 C   0  0  0  0  0  0  0  0  0  0  0  0
  184.9100  178.4850  147.6490 C   0  0  0  0  0  3  0  0  0  0  0  0
  186.3350  178.4600  145.1540 C   0  0  1  0  0  3  0  0  0  0  0  0
  188.6620  176.7570  145.1510 C   0  0  0  0  0  0  0  0  0  0  0  0
  190.9560  175.2910  147.7020 C   0  0  0  0  0  1  0  0  0  0  0  0
  189.8750  175.9150  145.3620 C   0  0  1  0  0  3  0  0  0  0  0  0
  193.1200  175.9320  143.6870 C   0  0  0  0  0  2  0  0  0  0  0  0
  189.8980  174.6170  142.8580 O   0  0  0  0  0  1  0  0  0  0  0  0
  186.2660  177.9240  147.5830 C   0  0  0  0  0  3  0  0  0  0  0  0
  186.9170  177.8510  146.4200 C   0  0  0  0  0  0  0  0  0  0  0  0
  189.8630  175.9730  142.5190 C   0  0  2  0  0  3  0  0  0  0  0  0
  185.7870  177.5450  140.1900 C   0  0  0  0  0  2  0  0  0  0  0  0
  183.4320  177.9450  140.1600 O   0  0  0  0  0  1  0  0  0  0  0  0
  184.6690  178.5620  140.3460 C   0  0  0  0  0  2  0  0  0  0  0  0
  2 13  1  0  0  0  0
  4  1  2  0  0  0  0
  4 20  1  0  0  0  0
  5  1  1  0  0  0  0
  6  8  2  0  0  0  0
  7 15  1  6  0  0  0
  7  9  1  0  0  0  0
  8 11  1  0  0  0  0
  8 12  1  0  0  0  0
  9 14  1  6  0  0  0
  9 22  1  0  0  0  0
 10  3  2  0  0  0  0
 10 21  1  0  0  0  0
 11 28  1  6  0  0  0
 11  5  1  0  0  0  0
 12  4  1  0  0  0  0
 13 18  2  0  0  0  0
 15 23  1  0  0  0  0
 16  2  1  0  0  0  0
 17 26  1  0  0  0  0
 17  3  1  0  0  0  0
 19  1  1  6  0  0  0
 19  2  1  0  0  0  0
 19 26  1  0  0  0  0
 20 17  2  0  0  0  0
 22 20  1  6  0  0  0
 22 10  1  0  0  0  0
 23 14  1  0  0  0  0
 25 18  1  0  0  0  0
 26 25  2  0  0  0  0
 27 12  1  0  0  0  0
 27 24  1  1  0  0  0
 27  7  1  0  0  0  0
 28 30  1  0  0  0  0
 29 30  1  0  0  0  0
M  END
>  <MODEL>
1

>  <REMARK>
 VINA RESULT:      -8.7      0.000      0.000
  Name = 
  2 active torsions:
  status: ('A' for Active; 'I' for Inactive)
    1  A    between atoms: C_11  and  C_28
    2  A    between atoms: C_28  and  C_30
                            x       y       z     vdW  Elec       q    Type
                         _______ _______ _______ _____ _____    ______ ____

>  <TORSDO>
F 2

$$$$
=
 OpenBabel11112416223D

 30 35  0  0  1  0  0  0  0  0999 V2000
  187.7140  176.3770  145.2770 C   0  0  0  0  0  0  0  0  0  0  0  0
  186.2120  178.0200  146.4840 N   0  0  0  0  0  0  0  0  0  0  0  0
  186.0120  177.4130  141.5030 N   0  0  0  0  0  0  0  0  0  0  0  0
  188.2300  175.9960  144.0780 C   0  0  0  0  0  0  0  0  0  0  0  0
  188.3480  175.8300  146.5270 C   0  0  0  0  0  2  0  0  0  0  0  0
  191.4400  174.6260  145.1160 O   0  0  0  0  0  0  0  0  0  0  0  0
  188.7360  173.8200  142.0680 C   0  0  1  0  0  3  0  0  0  0  0  0
  190.3080  175.1800  145.1800 C   0  0  0  0  0  0  0  0  0  0  0  0
  187.9360  174.6530  141.1420 N   0  0  2  0  0  0  0  0  0  0  0  0
  186.8480  176.8220  140.7110 C   0  0  0  0  0  0  0  0  0  0  0  0
  189.8710  175.8660  146.4430 C   0  0  2  0  0  3  0  0  0  0  0  0
  189.4580  175.2300  144.0190 N   0  0  0  0  0  0  0  0  0  0  0  0
  185.1940  179.0310  146.4280 C   0  0  0  0  0  3  0  0  0  0  0  0
  188.5300  174.4270  139.8300 C   0  0  0  0  0  2  0  0  0  0  0  0
  189.2990  172.6630  141.2640 C   0  0  0  0  0  2  0  0  0  0  0  0
  186.7440  177.7470  147.6980 O   0  0  0  0  0  1  0  0  0  0  0  0
  186.4400  177.1100  142.8200 C   0  0  0  0  0  0  0  0  0  0  0  0
  184.6150  179.3510  145.2710 C   0  0  0  0  0  3  0  0  0  0  0  0
  186.3430  177.0570  145.3730 C   0  0  1  0  0  3  0  0  0  0  0  0
  187.5220  176.3650  142.8340 C   0  0  0  0  0  0  0  0  0  0  0  0
  186.7540  176.9590  139.2320 C   0  0  0  0  0  1  0  0  0  0  0  0
  187.9560  176.0950  141.4320 C   0  0  1  0  0  3  0  0  0  0  0  0
  189.0480  173.0080  139.8160 C   0  0  0  0  0  2  0  0  0  0  0  0
  190.6300  175.3820  141.9740 O   0  0  0  0  0  1  0  0  0  0  0  0
  185.0380  178.6930  144.0270 C   0  0  0  0  0  3  0  0  0  0  0  0
  185.8870  177.6640  144.0560 C   0  0  0  0  0  0  0  0  0  0  0  0
  189.8940  174.5330  142.8050 C   0  0  2  0  0  3  0  0  0  0  0  0
  190.4670  175.1960  147.6780 C   0  0  0  0  0  2  0  0  0  0  0  0
  191.0870  177.3880  148.3980 O   0  0  0  0  0  1  0  0  0  0  0  0
  191.5370  176.0710  148.3120 C   0  0  0  0  0  2  0  0  0  0  0  0
  1 19  1  0  0  0  0
  1  5  1  0  0  0  0
  2 16  1  0  0  0  0
  3 17  1  0  0  0  0
  4  1  2  0  0  0  0
  6  8  2  0  0  0  0
  7 15  1  6  0  0  0
  7 27  1  0  0  0  0
  8 11  1  0  0  0  0
  9 14  1  6  0  0  0
  9 22  1  0  0  0  0
  9  7  1  0  0  0  0
 10  3  2  0  0  0  0
 11  5  1  0  0  0  0
 11 28  1  1  0  0  0
 12  4  1  0  0  0  0
 12  8  1  0  0  0  0
 13  2  1  0  0  0  0
 17 20  2  0  0  0  0
 17 26  1  0  0  0  0
 18 13  2  0  0  0  0
 19 26  1  6  0  0  0
 19  2  1  0  0  0  0
 20  4  1  0  0  0  0
 21 10  1  0  0  0  0
 22 10  1  6  0  0  0
 22 20  1  0  0  0  0
 23 14  1  0  0  0  0
 23 15  1  0  0  0  0
 25 26  2  0  0  0  0
 25 18  1  0  0  0  0
 27 24  1  6  0  0  0
 27 12  1  0  0  0  0
 28 30  1  0  0  0  0
 30 29  1  0  0  0  0
M  END
>  <MODEL>
2

>  <REMARK>
 VINA RESULT:      -8.3      2.444      5.452
  Name = 
  2 active torsions:
  status: ('A' for Active; 'I' for Inactive)
    1  A    between atoms: C_11  and  C_28
    2  A    between atoms: C_28  and  C_30
                            x       y       z     vdW  Elec       q    Type
                         _______ _______ _______ _____ _____    ______ ____

>  <TORSDO>
F 2

$$$$
=
 OpenBabel11112416223D

 30 35  0  0  1  0  0  0  0  0999 V2000
  188.5070  176.3400  143.1750 C   0  0  0  0  0  0  0  0  0  0  0  0
  186.1300  177.1650  143.4550 N   0  0  0  0  0  0  0  0  0  0  0  0
  189.5090  177.5180  147.1520 N   0  0  0  0  0  0  0  0  0  0  0  0
  189.6560  175.9820  143.8100 C   0  0  0  0  0  0  0  0  0  0  0  0
  188.3480  175.9570  141.7290 C   0  0  0  0  0  2  0  0  0  0  0  0
  190.9660  173.4870  141.5030 O   0  0  0  0  0  0  0  0  0  0  0  0
  192.6330  176.2690  144.0990 C   0  0  1  0  0  3  0  0  0  0  0  0
  190.1940  174.3460  142.0120 C   0  0  0  0  0  0  0  0  0  0  0  0
  192.3370  176.7070  145.4820 N   0  0  2  0  0  0  0  0  0  0  0  0
  190.6610  176.9420  147.2730 C   0  0  0  0  0  0  0  0  0  0  0  0
  188.8010  174.5210  141.4780 C   0  0  2  0  0  3  0  0  0  0  0  0
  190.6110  175.1100  143.1590 N   0  0  0  0  0  0  0  0  0  0  0  0
  185.1190  177.7520  144.2870 C   0  0  0  0  0  3  0  0  0  0  0  0
  193.4590  176.2200  146.2750 C   0  0  0  0  0  2  0  0  0  0  0  0
  194.1400  176.1500  143.9750 C   0  0  0  0  0  2  0  0  0  0  0  0
  185.7580  176.7790  142.2120 O   0  0  0  0  0  1  0  0  0  0  0  0
  189.0690  177.2410  145.8340 C   0  0  0  0  0  0  0  0  0  0  0  0
  185.4080  178.1670  145.5200 C   0  0  0  0  0  3  0  0  0  0  0  0
  187.5540  177.3770  143.7800 C   0  0  1  0  0  3  0  0  0  0  0  0
  189.9240  176.4980  145.1680 C   0  0  0  0  0  0  0  0  0  0  0  0
  191.4170  176.9650  148.5550 C   0  0  0  0  0  1  0  0  0  0  0  0
  191.0870  176.1750  146.0450 C   0  0  1  0  0  3  0  0  0  0  0  0
  194.6770  176.2460  145.3830 C   0  0  0  0  0  2  0  0  0  0  0  0
  192.0510  173.9390  144.6210 O   0  0  0  0  0  1  0  0  0  0  0  0
  186.7650  177.9950  146.0580 C   0  0  0  0  0  3  0  0  0  0  0  0
  187.7590  177.5710  145.2740 C   0  0  0  0  0  0  0  0  0  0  0  0
  191.9840  174.9400  143.6470 C   0  0  2  0  0  3  0  0  0  0  0  0
  188.7320  174.2170  139.9840 C   0  0  0  0  0  2  0  0  0  0  0  0
  188.9950  172.0570  138.9980 O   0  0  0  0  0  1  0  0  0  0  0  0
  188.1140  172.8520  139.7310 C   0  0  0  0  0  2  0  0  0  0  0  0
  1  4  2  0  0  0  0
  2 19  1  0  0  0  0
  2 13  1  0  0  0  0
  3 10  2  0  0  0  0
  4 20  1  0  0  0  0
  5  1  1  0  0  0  0
  6  8  2  0  0  0  0
  7 15  1  1  0  0  0
  7  9  1  0  0  0  0
  8 12  1  0  0  0  0
  9 22  1  0  0  0  0
  9 14  1  1  0  0  0
 10 21  1  0  0  0  0
 11 28  1  6  0  0  0
 11  5  1  0  0  0  0
 11  8  1  0  0  0  0
 12 27  1  0  0  0  0
 12  4  1  0  0  0  0
 13 18  2  0  0  0  0
 15 23  1  0  0  0  0
 16  2  1  0  0  0  0
 17  3  1  0  0  0  0
 18 25  1  0  0  0  0
 19  1  1  1  0  0  0
 19 26  1  0  0  0  0
 20 17  2  0  0  0  0
 22 20  1  6  0  0  0
 22 10  1  0  0  0  0
 23 14  1  0  0  0  0
 26 17  1  0  0  0  0
 26 25  2  0  0  0  0
 27  7  1  0  0  0  0
 27 24  1  1  0  0  0
 29 30  1  0  0  0  0
 30 28  1  0  0  0  0
M  END
>  <MODEL>
3

>  <REMARK>
 VINA RESULT:      -8.1      1.983      3.074
  Name = 
  2 active torsions:
  status: ('A' for Active; 'I' for Inactive)
    1  A    between atoms: C_11  and  C_28
    2  A    between atoms: C_28  and  C_30
                            x       y       z     vdW  Elec       q    Type
                         _______ _______ _______ _____ _____    ______ ____

>  <TORSDO>
F 2

$$$$
=
 OpenBabel11112416223D

 30 35  0  0  1  0  0  0  0  0999 V2000
  189.9010  174.4550  144.0300 C   0  0  0  0  0  0  0  0  0  0  0  0
  192.1570  173.3050  144.0190 N   0  0  0  0  0  0  0  0  0  0  0  0
  190.9160  176.6710  147.5330 N   0  0  0  0  0  0  0  0  0  0  0  0
  189.1730  175.4990  144.5100 C   0  0  0  0  0  0  0  0  0  0  0  0
  189.3520  173.6880  142.8580 C   0  0  0  0  0  2  0  0  0  0  0  0
  186.8580  176.0460  141.7520 O   0  0  0  0  0  0  0  0  0  0  0  0
  186.6890  176.4920  145.8780 C   0  0  1  0  0  3  0  0  0  0  0  0
  187.8050  175.5600  142.4300 C   0  0  0  0  0  0  0  0  0  0  0  0
  187.6110  177.0290  146.9040 N   0  0  2  0  0  0  0  0  0  0  0  0
  189.9380  177.5170  147.5540 C   0  0  0  0  0  0  0  0  0  0  0  0
  188.7900  174.6230  141.7910 C   0  0  2  0  0  3  0  0  0  0  0  0
  187.9970  175.9600  143.8000 N   0  0  0  0  0  0  0  0  0  0  0  0
  193.4580  173.1370  144.6020 C   0  0  0  0  0  3  0  0  0  0  0  0
  186.9770  178.2560  147.3690 C   0  0  0  0  0  2  0  0  0  0  0  0
  185.2960  176.9880  146.2180 C   0  0  0  0  0  2  0  0  0  0  0  0
  191.8900  172.6050  142.8920 O   0  0  0  0  0  1  0  0  0  0  0  0
  190.6790  175.8250  146.4210 C   0  0  0  0  0  0  0  0  0  0  0  0
  193.7930  173.7850  145.7170 C   0  0  0  0  0  3  0  0  0  0  0  0
  191.0580  173.8560  144.8370 C   0  0  1  0  0  3  0  0  0  0  0  0
  189.5880  176.1560  145.7660 C   0  0  0  0  0  0  0  0  0  0  0  0
  189.8710  178.6110  148.5610 C   0  0  0  0  0  1  0  0  0  0  0  0
  188.9620  177.3440  146.4160 C   0  0  1  0  0  3  0  0  0  0  0  0
  185.4840  178.0460  147.2790 C   0  0  0  0  0  2  0  0  0  0  0  0
  187.3750  178.1950  144.2450 O   0  0  0  0  0  1  0  0  0  0  0  0
  192.8410  174.7090  146.3490 C   0  0  0  0  0  3  0  0  0  0  0  0
  191.5830  174.7960  145.9100 C   0  0  0  0  0  0  0  0  0  0  0  0
  187.0090  176.8550  144.4090 C   0  0  2  0  0  3  0  0  0  0  0  0
  188.1420  173.8010  140.6810 C   0  0  0  0  0  2  0  0  0  0  0  0
  187.9670  174.4080  138.3770 O   0  0  0  0  0  1  0  0  0  0  0  0
  188.8670  173.9970  139.3600 C   0  0  0  0  0  2  0  0  0  0  0  0
  1  4  2  0  0  0  0
  2 13  1  0  0  0  0
  2 19  1  0  0  0  0
  3 10  2  0  0  0  0
  4 20  1  0  0  0  0
  5  1  1  0  0  0  0
  6  8  2  0  0  0  0
  7 15  1  1  0  0  0
  7  9  1  0  0  0  0
  8 12  1  0  0  0  0
  9 14  1  6  0  0  0
 10 21  1  0  0  0  0
 11 28  1  6  0  0  0
 11  8  1  0  0  0  0
 11  5  1  0  0  0  0
 12 27  1  0  0  0  0
 12  4  1  0  0  0  0
 13 18  2  0  0  0  0
 15 23  1  0  0  0  0
 16  2  1  0  0  0  0
 17  3  1  0  0  0  0
 18 25  1  0  0  0  0
 19  1  1  6  0  0  0
 19 26  1  0  0  0  0
 20 17  2  0  0  0  0
 22 20  1  6  0  0  0
 22  9  1  0  0  0  0
 22 10  1  0  0  0  0
 23 14  1  0  0  0  0
 26 25  2  0  0  0  0
 26 17  1  0  0  0  0
 27 24  1  1  0  0  0
 27  7  1  0  0  0  0
 29 30  1  0  0  0  0
 30 28  1  0  0  0  0
M  END
>  <MODEL>
4

>  <REMARK>
 VINA RESULT:      -7.8      2.332      5.758
  Name = 
  2 active torsions:
  status: ('A' for Active; 'I' for Inactive)
    1  A    between atoms: C_11  and  C_28
    2  A    between atoms: C_28  and  C_30
                            x       y       z     vdW  Elec       q    Type
                         _______ _______ _______ _____ _____    ______ ____

>  <TORSDO>
F 2

$$$$
=
 OpenBabel11112416223D

 30 35  0  0  1  0  0  0  0  0999 V2000
  189.0990  176.5590  144.9590 C   0  0  0  0  0  0  0  0  0  0  0  0
  190.2240  177.1300  147.1540 N   0  0  0  0  0  0  0  0  0  0  0  0
  191.5940  173.1360  144.4360 N   0  0  0  0  0  0  0  0  0  0  0  0
  188.8880  175.5980  144.0190 C   0  0  0  0  0  0  0  0  0  0  0  0
  188.2110  177.7730  144.9420 C   0  0  0  0  0  2  0  0  0  0  0  0
  185.5720  176.5190  142.8280 O   0  0  0  0  0  0  0  0  0  0  0  0
  188.9360  174.7670  141.1320 C   0  0  1  0  0  3  0  0  0  0  0  0
  186.6390  176.5340  143.5020 C   0  0  0  0  0  0  0  0  0  0  0  0
  189.9000  173.7320  141.5690 N   0  0  2  0  0  0  0  0  0  0  0  0
  190.9850  172.5640  143.4480 C   0  0  0  0  0  0  0  0  0  0  0  0
  186.7490  177.3940  144.7280 C   0  0  2  0  0  3  0  0  0  0  0  0
  187.7340  175.6670  143.1480 N   0  0  0  0  0  0  0  0  0  0  0  0
  191.1920  176.8080  148.1640 C   0  0  0  0  0  3  0  0  0  0  0  0
  189.6340  172.5880  140.7060 C   0  0  0  0  0  2  0  0  0  0  0  0
  188.6140  174.4990  139.6740 C   0  0  0  0  0  2  0  0  0  0  0  0
  189.4340  178.2060  147.3780 O   0  0  0  0  0  1  0  0  0  0  0  0
  190.8830  174.3350  144.6930 C   0  0  0  0  0  0  0  0  0  0  0  0
  192.0130  175.7690  148.0130 C   0  0  0  0  0  3  0  0  0  0  0  0
  190.3860  176.5890  145.7900 C   0  0  1  0  0  3  0  0  0  0  0  0
  189.8520  174.4860  143.8920 C   0  0  0  0  0  0  0  0  0  0  0  0
  191.4150  171.2380  142.9260 C   0  0  0  0  0  1  0  0  0  0  0  0
  189.7650  173.3140  142.9720 C   0  0  1  0  0  3  0  0  0  0  0  0
  189.1820  173.1340  139.3720 C   0  0  0  0  0  2  0  0  0  0  0  0
  187.0630  173.6020  142.2160 O   0  0  0  0  0  1  0  0  0  0  0  0
  191.9120  174.9150  146.8220 C   0  0  0  0  0  3  0  0  0  0  0  0
  191.1140  175.2540  145.8070 C   0  0  0  0  0  0  0  0  0  0  0  0
  187.6150  174.8550  141.9320 C   0  0  2  0  0  3  0  0  0  0  0  0
  185.9050  178.6590  144.6010 C   0  0  0  0  0  2  0  0  0  0  0  0
  184.0680  178.3670  146.0990 O   0  0  0  0  0  1  0  0  0  0  0  0
  185.2800  179.0360  145.9340 C   0  0  0  0  0  2  0  0  0  0  0  0
  2 16  1  0  0  0  0
  2 13  1  0  0  0  0
  3 17  1  0  0  0  0
  4  1  2  0  0  0  0
  5  1  1  0  0  0  0
  6  8  2  0  0  0  0
  7 15  1  6  0  0  0
  7  9  1  0  0  0  0
  7 27  1  0  0  0  0
  8 11  1  0  0  0  0
  9 14  1  6  0  0  0
  9 22  1  0  0  0  0
 10  3  2  0  0  0  0
 11 28  1  6  0  0  0
 11  5  1  0  0  0  0
 12  8  1  0  0  0  0
 12  4  1  0  0  0  0
 17 26  1  0  0  0  0
 18 13  2  0  0  0  0
 19  1  1  1  0  0  0
 19 26  1  0  0  0  0
 19  2  1  0  0  0  0
 20  4  1  0  0  0  0
 20 17  2  0  0  0  0
 21 10  1  0  0  0  0
 22 10  1  1  0  0  0
 22 20  1  0  0  0  0
 23 15  1  0  0  0  0
 23 14  1  0  0  0  0
 25 18  1  0  0  0  0
 26 25  2  0  0  0  0
 27 24  1  1  0  0  0
 27 12  1  0  0  0  0
 28 30  1  0  0  0  0
 30 29  1  0  0  0  0
M  END
>  <MODEL>
5

>  <REMARK>
 VINA RESULT:      -7.3      2.572      4.798
  Name = 
  2 active torsions:
  status: ('A' for Active; 'I' for Inactive)
    1  A    between atoms: C_11  and  C_28
    2  A    between atoms: C_28  and  C_30
                            x       y       z     vdW  Elec       q    Type
                         _______ _______ _______ _____ _____    ______ ____

>  <TORSDO>
F 2

$$$$
=
 OpenBabel11112416223D

 30 35  0  0  1  0  0  0  0  0999 V2000
  187.4330  176.4220  141.6380 C   0  0  0  0  0  0  0  0  0  0  0  0
  185.2720  177.7210  141.8680 N   0  0  0  0  0  0  0  0  0  0  0  0
  187.9780  176.3490  145.8700 N   0  0  0  0  0  0  0  0  0  0  0  0
  188.3560  175.6520  142.2750 C   0  0  0  0  0  0  0  0  0  0  0  0
  187.4420  176.4400  140.1340 C   0  0  0  0  0  2  0  0  0  0  0  0
  189.4780  173.5220  139.5420 O   0  0  0  0  0  0  0  0  0  0  0  0
  191.2350  175.1170  142.9520 C   0  0  1  0  0  3  0  0  0  0  0  0
  188.8300  174.4020  140.1740 C   0  0  0  0  0  0  0  0  0  0  0  0
  190.8100  175.2780  144.3610 N   0  0  2  0  0  0  0  0  0  0  0  0
  188.9440  175.4940  145.9570 C   0  0  0  0  0  0  0  0  0  0  0  0
  187.6160  175.0370  139.5580 C   0  0  2  0  0  3  0  0  0  0  0  0
  189.2010  174.7480  141.5220 N   0  0  0  0  0  0  0  0  0  0  0  0
  184.2830  178.3280  142.7130 C   0  0  0  0  0  3  0  0  0  0  0  0
  191.6540  174.3570  145.1120 C   0  0  0  0  0  2  0  0  0  0  0  0
  192.6820  174.6600  142.9650 C   0  0  0  0  0  2  0  0  0  0  0  0
  185.0420  177.7410  140.5350 O   0  0  0  0  0  1  0  0  0  0  0  0
  187.7170  176.5070  144.4860 C   0  0  0  0  0  0  0  0  0  0  0  0
  184.4410  178.3570  144.0360 C   0  0  0  0  0  3  0  0  0  0  0  0
  186.6330  177.4910  142.3910 C   0  0  1  0  0  3  0  0  0  0  0  0
  188.4950  175.7530  143.7430 C   0  0  0  0  0  0  0  0  0  0  0  0
  189.4620  175.0280  147.2730 C   0  0  0  0  0  1  0  0  0  0  0  0
  189.3990  174.9550  144.6220 C   0  0  1  0  0  3  0  0  0  0  0  0
  192.9820  174.2880  144.3970 C   0  0  0  0  0  2  0  0  0  0  0  0
  190.0930  172.9490  142.7660 O   0  0  0  0  0  1  0  0  0  0  0  0
  185.6210  177.7340  144.6510 C   0  0  0  0  0  3  0  0  0  0  0  0
  186.6200  177.2730  143.8960 C   0  0  0  0  0  0  0  0  0  0  0  0
  190.4040  174.1340  142.0930 C   0  0  2  0  0  3  0  0  0  0  0  0
  187.7370  175.1180  138.0400 C   0  0  0  0  0  2  0  0  0  0  0  0
  187.1150  176.5480  136.2290 O   0  0  0  0  0  1  0  0  0  0  0  0
  186.6810  176.0420  137.4550 C   0  0  0  0  0  2  0  0  0  0  0  0
  1  4  2  0  0  0  0
  2 19  1  0  0  0  0
  2 13  1  0  0  0  0
  3 10  2  0  0  0  0
  4 20  1  0  0  0  0
  5  1  1  0  0  0  0
  6  8  2  0  0  0  0
  7 15  1  1  0  0  0
  7  9  1  0  0  0  0
  8 12  1  0  0  0  0
  9 22  1  0  0  0  0
  9 14  1  1  0  0  0
 10 21  1  0  0  0  0
 11 28  1  6  0  0  0
 11  5  1  0  0  0  0
 11  8  1  0  0  0  0
 12 27  1  0  0  0  0
 12  4  1  0  0  0  0
 13 18  2  0  0  0  0
 15 23  1  0  0  0  0
 16  2  1  0  0  0  0
 17  3  1  0  0  0  0
 18 25  1  0  0  0  0
 19  1  1  6  0  0  0
 19 26  1  0  0  0  0
 20 17  2  0  0  0  0
 22 20  1  6  0  0  0
 22 10  1  0  0  0  0
 23 14  1  0  0  0  0
 26 17  1  0  0  0  0
 26 25  2  0  0  0  0
 27 24  1  1  0  0  0
 27  7  1  0  0  0  0
 29 30  1  0  0  0  0
 30 28  1  0  0  0  0
M  END
>  <MODEL>
6

>  <REMARK>
 VINA RESULT:      -7.3      2.062      2.795
  Name = 
  2 active torsions:
  status: ('A' for Active; 'I' for Inactive)
    1  A    between atoms: C_11  and  C_28
    2  A    between atoms: C_28  and  C_30
                            x       y       z     vdW  Elec       q    Type
                         _______ _______ _______ _____ _____    ______ ____

>  <TORSDO>
F 2

$$$$
=
 OpenBabel11112416223D

 30 35  0  0  1  0  0  0  0  0999 V2000
  189.2990  175.4800  142.6050 C   0  0  0  0  0  0  0  0  0  0  0  0
  187.1800  176.2690  143.7470 N   0  0  0  0  0  0  0  0  0  0  0  0
  191.7060  176.9150  145.8250 N   0  0  0  0  0  0  0  0  0  0  0  0
  190.6180  175.1860  142.7610 C   0  0  0  0  0  0  0  0  0  0  0  0
  188.6110  175.0090  141.3540 C   0  0  0  0  0  2  0  0  0  0  0  0
  191.0430  172.5870  140.2460 O   0  0  0  0  0  0  0  0  0  0  0  0
  193.4610  175.5540  141.8600 C   0  0  1  0  0  3  0  0  0  0  0  0
  190.4900  173.4580  140.9730 C   0  0  0  0  0  0  0  0  0  0  0  0
  193.7020  176.0680  143.2270 N   0  0  2  0  0  0  0  0  0  0  0  0
  192.8390  176.3710  145.5160 C   0  0  0  0  0  0  0  0  0  0  0  0
  188.9920  173.5710  141.0140 C   0  0  2  0  0  3  0  0  0  0  0  0
  191.2840  174.2980  141.8320 N   0  0  0  0  0  0  0  0  0  0  0  0
  186.5440  176.8820  144.8780 C   0  0  0  0  0  3  0  0  0  0  0  0
  195.0630  175.6530  143.5450 C   0  0  0  0  0  2  0  0  0  0  0  0
  194.8070  175.4610  141.1670 C   0  0  0  0  0  2  0  0  0  0  0  0
  186.3750  175.8010  142.7640 O   0  0  0  0  0  1  0  0  0  0  0  0
  190.8030  176.5500  144.7940 C   0  0  0  0  0  0  0  0  0  0  0  0
  187.2690  177.3750  145.8820 C   0  0  0  0  0  3  0  0  0  0  0  0
  188.6090  176.5300  143.4840 C   0  0  1  0  0  3  0  0  0  0  0  0
  191.3670  175.7880  143.8840 C   0  0  0  0  0  0  0  0  0  0  0  0
  194.0300  176.4880  146.4020 C   0  0  0  0  0  1  0  0  0  0  0  0
  192.7910  175.5430  144.2560 C   0  0  1  0  0  3  0  0  0  0  0  0
  195.8410  175.6520  142.2500 C   0  0  0  0  0  2  0  0  0  0  0  0
  193.2260  173.2480  142.6750 O   0  0  0  0  0  1  0  0  0  0  0  0
  188.7340  177.2660  145.8580 C   0  0  0  0  0  3  0  0  0  0  0  0
  189.3660  176.8180  144.7710 C   0  0  0  0  0  0  0  0  0  0  0  0
  192.7450  174.1870  141.7570 C   0  0  2  0  0  3  0  0  0  0  0  0
  188.3660  173.1770  139.6790 C   0  0  0  0  0  2  0  0  0  0  0  0
  189.0050  174.1130  137.5760 O   0  0  0  0  0  1  0  0  0  0  0  0
  188.2810  174.3700  138.7410 C   0  0  0  0  0  2  0  0  0  0  0  0
  1  4  2  0  0  0  0
  2 13  1  0  0  0  0
  4 20  1  0  0  0  0
  5  1  1  0  0  0  0
  6  8  2  0  0  0  0
  7 15  1  1  0  0  0
  7  9  1  0  0  0  0
  8 11  1  0  0  0  0
  8 12  1  0  0  0  0
  9 14  1  1  0  0  0
  9 22  1  0  0  0  0
 10  3  2  0  0  0  0
 10 21  1  0  0  0  0
 11 28  1  6  0  0  0
 11  5  1  0  0  0  0
 12  4  1  0  0  0  0
 13 18  2  0  0  0  0
 15 23  1  0  0  0  0
 16  2  1  0  0  0  0
 17  3  1  0  0  0  0
 19  1  1  1  0  0  0
 19  2  1  0  0  0  0
 19 26  1  0  0  0  0
 20 17  2  0  0  0  0
 22 20  1  6  0  0  0
 22 10  1  0  0  0  0
 23 14  1  0  0  0  0
 25 18  1  0  0  0  0
 26 17  1  0  0  0  0
 26 25  2  0  0  0  0
 27 12  1  0  0  0  0
 27  7  1  0  0  0  0
 27 24  1  1  0  0  0
 29 30  1  0  0  0  0
 30 28  1  0  0  0  0
M  END
>  <MODEL>
7

>  <REMARK>
 VINA RESULT:      -7.3      2.594      3.839
  Name = 
  2 active torsions:
  status: ('A' for Active; 'I' for Inactive)
    1  A    between atoms: C_11  and  C_28
    2  A    between atoms: C_28  and  C_30
                            x       y       z     vdW  Elec       q    Type
                         _______ _______ _______ _____ _____    ______ ____

>  <TORSDO>
F 2

$$$$
=
 OpenBabel11112416223D

 30 35  0  0  1  0  0  0  0  0999 V2000
  188.1300  176.2140  142.2000 C   0  0  0  0  0  0  0  0  0  0  0  0
  186.3620  177.1110  140.6250 N   0  0  0  0  0  0  0  0  0  0  0  0
  186.5130  178.4340  145.4660 N   0  0  0  0  0  0  0  0  0  0  0  0
  188.4920  176.0330  143.4990 C   0  0  0  0  0  0  0  0  0  0  0  0
  188.8770  175.4480  141.1430 C   0  0  0  0  0  2  0  0  0  0  0  0
  190.4650  172.9830  143.2430 O   0  0  0  0  0  0  0  0  0  0  0  0
  190.5480  176.3550  145.6670 C   0  0  1  0  0  3  0  0  0  0  0  0
  189.7350  173.9570  142.9100 C   0  0  0  0  0  0  0  0  0  0  0  0
  189.5180  177.1620  146.3590 N   0  0  2  0  0  0  0  0  0  0  0  0
  187.1680  177.9010  146.4460 C   0  0  0  0  0  0  0  0  0  0  0  0
  189.0920  173.9940  141.5530 C   0  0  2  0  0  3  0  0  0  0  0  0
  189.4460  175.0040  143.8560 N   0  0  0  0  0  0  0  0  0  0  0  0
  185.1930  177.9160  140.4140 C   0  0  0  0  0  3  0  0  0  0  0  0
  189.7320  176.9010  147.7770 C   0  0  0  0  0  2  0  0  0  0  0  0
  191.7130  176.1900  146.6240 C   0  0  0  0  0  2  0  0  0  0  0  0
  186.8210  176.4000  139.5680 O   0  0  0  0  0  1  0  0  0  0  0  0
  186.9910  177.8090  144.2880 C   0  0  0  0  0  0  0  0  0  0  0  0
  184.6860  178.6520  141.4020 C   0  0  0  0  0  3  0  0  0  0  0  0
  187.2390  177.3880  141.7790 C   0  0  1  0  0  3  0  0  0  0  0  0
  187.9070  176.9010  144.5420 C   0  0  0  0  0  0  0  0  0  0  0  0
  186.8960  178.2700  147.8620 C   0  0  0  0  0  1  0  0  0  0  0  0
  188.1290  176.8200  146.0150 C   0  0  1  0  0  3  0  0  0  0  0  0
  191.2120  176.6650  147.9660 C   0  0  0  0  0  2  0  0  0  0  0  0
  189.3260  174.2670  146.0980 O   0  0  0  0  0  1  0  0  0  0  0  0
  185.3000  178.6200  142.7360 C   0  0  0  0  0  3  0  0  0  0  0  0
  186.4570  177.9850  142.9380 C   0  0  0  0  0  0  0  0  0  0  0  0
  190.1040  174.9600  145.1660 C   0  0  2  0  0  3  0  0  0  0  0  0
  189.9530  173.2890  140.5080 C   0  0  0  0  0  2  0  0  0  0  0  0
  188.1870  172.7070  139.0080 O   0  0  0  0  0  1  0  0  0  0  0  0
  189.3640  173.4490  139.1160 C   0  0  0  0  0  2  0  0  0  0  0  0
  1  4  2  0  0  0  0
  2 19  1  0  0  0  0
  3 10  2  0  0  0  0
  4 12  1  0  0  0  0
  4 20  1  0  0  0  0
  5 11  1  0  0  0  0
  5  1  1  0  0  0  0
  7  9  1  0  0  0  0
  7 15  1  1  0  0  0
  8  6  2  0  0  0  0
  8 12  1  0  0  0  0
  9 14  1  1  0  0  0
 10 21  1  0  0  0  0
 11 28  1  6  0  0  0
 11  8  1  0  0  0  0
 12 27  1  0  0  0  0
 13  2  1  0  0  0  0
 13 18  2  0  0  0  0
 14 23  1  0  0  0  0
 15 23  1  0  0  0  0
 16  2  1  0  0  0  0
 17 20  2  0  0  0  0
 17  3  1  0  0  0  0
 18 25  1  0  0  0  0
 19  1  1  1  0  0  0
 19 26  1  0  0  0  0
 22 20  1  6  0  0  0
 22  9  1  0  0  0  0
 22 10  1  0  0  0  0
 25 26  2  0  0  0  0
 26 17  1  0  0  0  0
 27  7  1  0  0  0  0
 27 24  1  1  0  0  0
 29 30  1  0  0  0  0
 30 28  1  0  0  0  0
M  END
>  <MODEL>
8

>  <REMARK>
 VINA RESULT:      -7.3      2.078      4.299
  Name = 
  2 active torsions:
  status: ('A' for Active; 'I' for Inactive)
    1  A    between atoms: C_11  and  C_28
    2  A    between atoms: C_28  and  C_30
                            x       y       z     vdW  Elec       q    Type
                         _______ _______ _______ _____ _____    ______ ____

>  <TORSDO>
F 2

$$$$
=
 OpenBabel11112416223D

 30 35  0  0  1  0  0  0  0  0999 V2000
  187.3460  176.6390  143.7410 C   0  0  0  0  0  0  0  0  0  0  0  0
  185.7260  178.1610  142.5280 N   0  0  0  0  0  0  0  0  0  0  0  0
  188.5800  174.8370  140.0740 N   0  0  0  0  0  0  0  0  0  0  0  0
  188.4240  175.8180  143.6190 C   0  0  0  0  0  0  0  0  0  0  0  0
  186.9560  177.0980  145.1190 C   0  0  0  0  0  2  0  0  0  0  0  0
  189.9920  176.2580  146.8760 O   0  0  0  0  0  0  0  0  0  0  0  0
  189.6960  173.1460  144.1410 C   0  0  1  0  0  3  0  0  0  0  0  0
  189.1820  176.4000  145.9180 C   0  0  0  0  0  0  0  0  0  0  0  0
  189.8050  173.0440  142.6680 N   0  0  2  0  0  0  0  0  0  0  0  0
  189.6110  174.1740  140.4870 C   0  0  0  0  0  0  0  0  0  0  0  0
  188.1770  177.5150  145.9350 C   0  0  2  0  0  3  0  0  0  0  0  0
  189.2670  175.5430  144.7640 N   0  0  0  0  0  0  0  0  0  0  0  0
  185.1560  178.6220  141.2940 C   0  0  0  0  0  3  0  0  0  0  0  0
  191.0390  172.3030  142.4370 C   0  0  0  0  0  2  0  0  0  0  0  0
  190.4310  171.9590  144.7330 C   0  0  0  0  0  2  0  0  0  0  0  0
  185.3270  178.7830  143.6620 O   0  0  0  0  0  1  0  0  0  0  0  0
  188.0320  175.4640  141.2210 C   0  0  0  0  0  0  0  0  0  0  0  0
  185.4900  178.0550  140.1350 C   0  0  0  0  0  3  0  0  0  0  0  0
  186.3560  176.8270  142.5860 C   0  0  1  0  0  3  0  0  0  0  0  0
  188.7230  175.2040  142.3090 C   0  0  0  0  0  0  0  0  0  0  0  0
  190.4860  173.4230  139.5450 C   0  0  0  0  0  1  0  0  0  0  0  0
  189.8830  174.3320  141.9620 C   0  0  1  0  0  3  0  0  0  0  0  0
  191.2020  171.3420  143.5910 C   0  0  0  0  0  2  0  0  0  0  0  0
  191.4640  174.8500  144.2400 O   0  0  0  0  0  1  0  0  0  0  0  0
  186.4780  176.9670  140.1040 C   0  0  0  0  0  3  0  0  0  0  0  0
  186.9330  176.4280  141.2370 C   0  0  0  0  0  0  0  0  0  0  0  0
  190.2400  174.4460  144.7800 C   0  0  2  0  0  3  0  0  0  0  0  0
  187.7470  177.8600  147.3580 C   0  0  0  0  0  2  0  0  0  0  0  0
  185.9530  179.4140  147.6250 O   0  0  0  0  0  1  0  0  0  0  0  0
  186.2430  178.0620  147.4420 C   0  0  0  0  0  2  0  0  0  0  0  0
  1  5  1  0  0  0  0
  2 19  1  0  0  0  0
  2 16  1  0  0  0  0
  3 10  2  0  0  0  0
  3 17  1  0  0  0  0
  4  1  2  0  0  0  0
  4 12  1  0  0  0  0
  5 11  1  0  0  0  0
  7 15  1  1  0  0  0
  7 27  1  0  0  0  0
  8 11  1  0  0  0  0
  8  6  2  0  0  0  0
  9 14  1  1  0  0  0
  9  7  1  0  0  0  0
 11 28  1  1  0  0  0
 12 27  1  0  0  0  0
 12  8  1  0  0  0  0
 13  2  1  0  0  0  0
 14 23  1  0  0  0  0
 17 26  1  0  0  0  0
 17 20  2  0  0  0  0
 18 13  2  0  0  0  0
 19 26  1  6  0  0  0
 19  1  1  0  0  0  0
 20  4  1  0  0  0  0
 21 10  1  0  0  0  0
 22 10  1  6  0  0  0
 22 20  1  0  0  0  0
 22  9  1  0  0  0  0
 23 15  1  0  0  0  0
 25 18  1  0  0  0  0
 25 26  2  0  0  0  0
 27 24  1  6  0  0  0
 28 30  1  0  0  0  0
 30 29  1  0  0  0  0
M  END
>  <MODEL>
9

>  <REMARK>
 VINA RESULT:      -7.2      2.449      5.209
  Name = 
  2 active torsions:
  status: ('A' for Active; 'I' for Inactive)
    1  A    between atoms: C_11  and  C_28
    2  A    between atoms: C_28  and  C_30
                            x       y       z     vdW  Elec       q    Type
                         _______ _______ _______ _____ _____    ______ ____

>  <TORSDO>
F 2

$$$$
