=
 OpenBabel11112416353D

 32 37  0  0  1  0  0  0  0  0999 V2000
  184.7860  177.9730  145.7080 C   0  0  0  0  0  2  0  0  0  0  0  0
  189.5770  176.4630  144.6220 C   0  0  1  0  0  3  0  0  0  0  0  0
  188.5690  172.8690  141.1760 C   0  0  0  0  0  2  0  0  0  0  0  0
  189.3220  171.8940  142.0580 C   0  0  0  0  0  2  0  0  0  0  0  0
  191.8910  176.2980  145.7570 C   0  0  0  0  0  0  0  0  0  0  0  0
  192.9470  175.3940  146.3180 C   0  0  2  0  0  3  0  0  0  0  0  0
  187.5220  177.3020  145.6840 N   0  0  1  0  0  0  0  0  0  0  0  0
  187.4920  176.5630  143.3000 C   0  0  0  0  0  2  0  0  0  0  0  0
  194.6300  174.0330  145.3650 C   0  0  0  0  0  0  0  0  0  0  0  0
  185.4000  177.4910  144.3890 C   0  0  2  0  0  3  0  0  0  0  0  0
  188.0000  173.9810  142.0480 C   0  0  0  0  0  2  0  0  0  0  0  0
  188.7550  175.8850  143.5590 N   0  0  0  0  0  0  0  0  0  0  0  0
  189.0290  174.5990  142.9710 C   0  0  0  0  0  0  0  0  0  0  0  0
  191.1150  174.5270  144.2650 C   0  0  0  0  0  0  0  0  0  0  0  0
  195.3160  175.0470  146.0750 N   0  0  0  0  0  2  0  0  0  0  0  0
  185.2980  177.1630  146.8880 C   0  0  0  0  0  2  0  0  0  0  0  0
  186.7030  176.6920  144.6110 C   0  0  2  0  0  3  0  0  0  0  0  0
  194.3330  176.0410  146.5130 C   0  0  0  0  0  2  0  0  0  0  0  0
  186.8250  177.2820  146.9820 C   0  0  0  0  0  2  0  0  0  0  0  0
  190.5160  172.6110  142.6740 C   0  0  0  0  0  2  0  0  0  0  0  0
  190.1460  173.9250  143.3220 C   0  0  0  0  0  0  0  0  0  0  0  0
  192.3950  173.8900  144.4510 N   0  0  0  0  0  2  0  0  0  0  0  0
  188.7380  176.5110  145.8950 C   0  0  0  0  0  2  0  0  0  0  0  0
  191.8160  177.5010  146.1290 O   0  0  0  0  0  0  0  0  0  0  0  0
  195.2080  173.0960  144.7530 O   0  0  0  0  0  0  0  0  0  0  0  0
  190.8660  175.7180  144.8550 C   0  0  0  0  0  0  0  0  0  0  0  0
  193.2170  174.2700  145.3820 C   0  0  2  0  0  3  0  0  0  0  0  0
  185.6190  178.6000  143.5600 O   0  0  0  0  0  0  0  0  0  0  0  0
  184.5390  178.6530  142.7420 N   0  0  0  0  0  2  0  0  0  0  0  0
  184.6250  178.2910  141.3640 C   0  0  0  0  0  0  0  0  0  0  0  0
  185.7260  177.9410  140.8630 O   0  0  0  0  0  0  0  0  0  0  0  0
  183.4080  178.3330  140.5130 C   0  0  0  0  0  1  0  0  0  0  0  0
  1 16  1  0  0  0  0
  2 26  1  0  0  0  0
  2 23  1  1  0  0  0
  3 11  1  0  0  0  0
  3  4  1  0  0  0  0
  4 20  1  0  0  0  0
  5 24  2  0  0  0  0
  5  6  1  0  0  0  0
  6 18  1  6  0  0  0
  7 23  1  1  0  0  0
  7 19  1  0  0  0  0
  8 12  1  0  0  0  0
  9 27  1  0  0  0  0
  9 15  1  0  0  0  0
 10 28  1  6  0  0  0
 10 17  1  0  0  0  0
 10  1  1  0  0  0  0
 11 13  1  0  0  0  0
 12  2  1  0  0  0  0
 13 21  2  0  0  0  0
 13 12  1  0  0  0  0
 14 22  1  0  0  0  0
 14 26  2  0  0  0  0
 15 18  1  0  0  0  0
 16 19  1  0  0  0  0
 17  8  1  6  0  0  0
 17  7  1  0  0  0  0
 20 21  1  0  0  0  0
 21 14  1  0  0  0  0
 25  9  2  0  0  0  0
 26  5  1  0  0  0  0
 27 22  1  6  0  0  0
 27  6  1  0  0  0  0
 29 28  1  0  0  0  0
 30 29  1  0  0  0  0
 31 30  2  0  0  0  0
 32 30  1  0  0  0  0
M  END
>  <MODEL>
1

>  <REMARK>
 VINA RESULT:      -8.4      0.000      0.000
  Name = 
  2 active torsions:
  status: ('A' for Active; 'I' for Inactive)
    1  A    between atoms: C_10  and  O_20
    2  A    between atoms: O_20  and  N_29
                            x       y       z     vdW  Elec       q    Type
                         _______ _______ _______ _____ _____    ______ ____

>  <TORSDO>
F 2

$$$$
=
 OpenBabel11112416353D

 32 37  0  0  1  0  0  0  0  0999 V2000
  191.4640  172.4100  139.7290 C   0  0  0  0  0  2  0  0  0  0  0  0
  188.8430  175.9340  142.3990 C   0  0  1  0  0  3  0  0  0  0  0  0
  190.9030  175.2210  146.9880 C   0  0  0  0  0  2  0  0  0  0  0  0
  189.5060  174.9560  147.5100 C   0  0  0  0  0  2  0  0  0  0  0  0
  186.5380  177.0990  142.3840 C   0  0  0  0  0  0  0  0  0  0  0  0
  185.2070  177.2480  143.0590 C   0  0  2  0  0  3  0  0  0  0  0  0
  189.5900  174.2250  140.7960 N   0  0  1  0  0  0  0  0  0  0  0  0
  191.1230  175.0050  142.6040 C   0  0  0  0  0  2  0  0  0  0  0  0
  184.4560  178.3940  144.9870 C   0  0  0  0  0  0  0  0  0  0  0  0
  191.9000  173.2940  140.9030 C   0  0  2  0  0  3  0  0  0  0  0  0
  190.9510  174.8590  145.5090 C   0  0  0  0  0  2  0  0  0  0  0  0
  189.9520  175.5550  143.2740 N   0  0  0  0  0  0  0  0  0  0  0  0
  189.8280  175.4810  144.7080 C   0  0  0  0  0  0  0  0  0  0  0  0
  187.5750  176.4360  144.4930 C   0  0  0  0  0  0  0  0  0  0  0  0
  183.8170  179.0250  143.8940 N   0  0  0  0  0  2  0  0  0  0  0  0
  190.0480  171.8930  139.9200 C   0  0  0  0  0  2  0  0  0  0  0  0
  190.6950  173.8380  141.7020 C   0  0  2  0  0  3  0  0  0  0  0  0
  184.4020  178.5000  142.6580 C   0  0  0  0  0  2  0  0  0  0  0  0
  189.0710  173.0690  140.0430 C   0  0  0  0  0  2  0  0  0  0  0  0
  188.5330  175.8930  146.8070 C   0  0  0  0  0  2  0  0  0  0  0  0
  188.6810  175.8770  145.3020 C   0  0  0  0  0  0  0  0  0  0  0  0
  186.4590  177.0500  145.1680 N   0  0  0  0  0  2  0  0  0  0  0  0
  188.4490  174.7110  141.5760 C   0  0  0  0  0  2  0  0  0  0  0  0
  186.6710  177.3900  141.1650 O   0  0  0  0  0  0  0  0  0  0  0  0
  184.2640  178.7160  146.1900 O   0  0  0  0  0  0  0  0  0  0  0  0
  187.6550  176.4860  143.1440 C   0  0  0  0  0  0  0  0  0  0  0  0
  185.3870  177.4070  144.5270 C   0  0  2  0  0  3  0  0  0  0  0  0
  192.6980  174.3370  140.4130 O   0  0  0  0  0  0  0  0  0  0  0  0
  193.9690  173.9990  140.7430 N   0  0  0  0  0  2  0  0  0  0  0  0
  194.8260  174.9020  141.4430 C   0  0  0  0  0  0  0  0  0  0  0  0
  194.4270  176.0570  141.7450 O   0  0  0  0  0  0  0  0  0  0  0  0
  196.2010  174.4760  141.8130 C   0  0  0  0  0  1  0  0  0  0  0  0
  1 16  1  0  0  0  0
  1 10  1  0  0  0  0
  2 23  1  1  0  0  0
  2 26  1  0  0  0  0
  2 12  1  0  0  0  0
  3  4  1  0  0  0  0
  5  6  1  0  0  0  0
  5 26  1  0  0  0  0
  6 18  1  6  0  0  0
  6 27  1  0  0  0  0
  7 19  1  1  0  0  0
  7 23  1  0  0  0  0
  7 17  1  0  0  0  0
  8 12  1  0  0  0  0
  9 25  2  0  0  0  0
 10 28  1  6  0  0  0
 10 17  1  0  0  0  0
 11  3  1  0  0  0  0
 12 13  1  0  0  0  0
 13 21  2  0  0  0  0
 13 11  1  0  0  0  0
 14 22  1  0  0  0  0
 14 21  1  0  0  0  0
 15  9  1  0  0  0  0
 16 19  1  0  0  0  0
 17  8  1  6  0  0  0
 18 15  1  0  0  0  0
 20  4  1  0  0  0  0
 21 20  1  0  0  0  0
 24  5  2  0  0  0  0
 26 14  2  0  0  0  0
 27  9  1  6  0  0  0
 27 22  1  0  0  0  0
 28 29  1  0  0  0  0
 29 30  1  0  0  0  0
 30 31  2  0  0  0  0
 30 32  1  0  0  0  0
M  END
>  <MODEL>
2

>  <REMARK>
 VINA RESULT:      -8.3      2.384      8.005
  Name = 
  2 active torsions:
  status: ('A' for Active; 'I' for Inactive)
    1  A    between atoms: C_10  and  O_20
    2  A    between atoms: O_20  and  N_29
                            x       y       z     vdW  Elec       q    Type
                         _______ _______ _______ _____ _____    ______ ____

>  <TORSDO>
F 2

$$$$
=
 OpenBabel11112416353D

 32 37  0  0  1  0  0  0  0  0999 V2000
  192.1280  174.5970  144.2910 C   0  0  0  0  0  2  0  0  0  0  0  0
  187.9640  177.4770  143.4070 C   0  0  1  0  0  3  0  0  0  0  0  0
  186.6920  178.6140  148.1930 C   0  0  0  0  0  2  0  0  0  0  0  0
  185.3350  178.0000  147.9170 C   0  0  0  0  0  2  0  0  0  0  0  0
  186.0700  177.7140  141.6670 C   0  0  0  0  0  0  0  0  0  0  0  0
  184.6110  177.5330  141.3740 C   0  0  2  0  0  3  0  0  0  0  0  0
  189.7830  175.8240  143.3220 N   0  0  1  0  0  0  0  0  0  0  0  0
  189.6860  177.4890  145.1780 C   0  0  0  0  0  2  0  0  0  0  0  0
  182.6560  178.7490  141.9210 C   0  0  0  0  0  0  0  0  0  0  0  0
  191.5900  175.8220  145.0390 C   0  0  2  0  0  3  0  0  0  0  0  0
  187.7210  177.9630  147.2770 C   0  0  0  0  0  2  0  0  0  0  0  0
  188.2970  177.7270  144.8100 N   0  0  0  0  0  0  0  0  0  0  0  0
  187.2970  177.9450  145.8240 C   0  0  0  0  0  0  0  0  0  0  0  0
  185.5990  177.9640  144.0500 C   0  0  0  0  0  0  0  0  0  0  0  0
  182.7850  178.8440  140.5150 N   0  0  0  0  0  2  0  0  0  0  0  0
  191.0020  173.6710  143.8630 C   0  0  0  0  0  2  0  0  0  0  0  0
  190.0940  176.0730  144.7480 C   0  0  2  0  0  3  0  0  0  0  0  0
  184.0880  178.2910  140.1380 C   0  0  0  0  0  2  0  0  0  0  0  0
  190.0250  174.4200  142.9470 C   0  0  0  0  0  2  0  0  0  0  0  0
  184.9210  178.3420  146.4920 C   0  0  0  0  0  2  0  0  0  0  0  0
  185.9960  178.0350  145.4740 C   0  0  0  0  0  0  0  0  0  0  0  0
  184.2400  178.2810  143.6890 N   0  0  0  0  0  2  0  0  0  0  0  0
  188.3550  176.0410  143.0760 C   0  0  0  0  0  2  0  0  0  0  0  0
  186.9100  177.7450  140.7280 O   0  0  0  0  0  0  0  0  0  0  0  0
  181.7010  179.2490  142.5700 O   0  0  0  0  0  0  0  0  0  0  0  0
  186.5130  177.7280  143.0830 C   0  0  0  0  0  0  0  0  0  0  0  0
  183.7890  178.0780  142.4880 C   0  0  2  0  0  3  0  0  0  0  0  0
  192.3680  176.9380  144.6990 O   0  0  0  0  0  0  0  0  0  0  0  0
  193.5100  176.4300  144.1730 N   0  0  0  0  0  2  0  0  0  0  0  0
  194.7910  176.7480  144.7180 C   0  0  0  0  0  0  0  0  0  0  0  0
  194.8930  177.5420  145.6900 O   0  0  0  0  0  0  0  0  0  0  0  0
  196.0140  176.1420  144.1300 C   0  0  0  0  0  1  0  0  0  0  0  0
  1 10  1  0  0  0  0
  2 23  1  1  0  0  0
  2 12  1  0  0  0  0
  4  3  1  0  0  0  0
  5 26  1  0  0  0  0
  6 18  1  6  0  0  0
  6  5  1  0  0  0  0
  6 27  1  0  0  0  0
  7 19  1  1  0  0  0
  7 17  1  0  0  0  0
  9 25  2  0  0  0  0
 10 28  1  6  0  0  0
 11  3  1  0  0  0  0
 12  8  1  0  0  0  0
 12 13  1  0  0  0  0
 13 11  1  0  0  0  0
 14 21  1  0  0  0  0
 15  9  1  0  0  0  0
 16  1  1  0  0  0  0
 17 10  1  0  0  0  0
 17  8  1  6  0  0  0
 18 15  1  0  0  0  0
 19 16  1  0  0  0  0
 20  4  1  0  0  0  0
 21 13  2  0  0  0  0
 21 20  1  0  0  0  0
 22 14  1  0  0  0  0
 23  7  1  0  0  0  0
 24  5  2  0  0  0  0
 26  2  1  0  0  0  0
 26 14  2  0  0  0  0
 27  9  1  6  0  0  0
 27 22  1  0  0  0  0
 29 28  1  0  0  0  0
 29 30  1  0  0  0  0
 30 31  2  0  0  0  0
 32 30  1  0  0  0  0
M  END
>  <MODEL>
3

>  <REMARK>
 VINA RESULT:      -8.2      1.876      8.608
  Name = 
  2 active torsions:
  status: ('A' for Active; 'I' for Inactive)
    1  A    between atoms: C_10  and  O_20
    2  A    between atoms: O_20  and  N_29
                            x       y       z     vdW  Elec       q    Type
                         _______ _______ _______ _____ _____    ______ ____

>  <TORSDO>
F 2

$$$$
=
 OpenBabel11112416353D

 32 37  0  0  1  0  0  0  0  0999 V2000
  185.3130  177.5580  145.4130 C   0  0  0  0  0  2  0  0  0  0  0  0
  189.9750  176.5250  143.5120 C   0  0  1  0  0  3  0  0  0  0  0  0
  188.7260  172.9800  140.0940 C   0  0  0  0  0  2  0  0  0  0  0  0
  189.6910  172.0460  140.7970 C   0  0  0  0  0  2  0  0  0  0  0  0
  192.4470  176.5290  144.2580 C   0  0  0  0  0  0  0  0  0  0  0  0
  193.6520  175.7040  144.6010 C   0  0  2  0  0  3  0  0  0  0  0  0
  188.0560  177.1370  144.9240 N   0  0  1  0  0  0  0  0  0  0  0  0
  187.7030  176.4840  142.5420 C   0  0  0  0  0  2  0  0  0  0  0  0
  195.2660  174.5350  143.3280 C   0  0  0  0  0  0  0  0  0  0  0  0
  185.7440  177.1810  143.9920 C   0  0  2  0  0  3  0  0  0  0  0  0
  188.2150  174.0040  141.0990 C   0  0  0  0  0  2  0  0  0  0  0  0
  189.0430  175.9130  142.5640 N   0  0  0  0  0  0  0  0  0  0  0  0
  189.3250  174.6790  141.8770 C   0  0  0  0  0  0  0  0  0  0  0  0
  191.5910  174.7490  142.8220 C   0  0  0  0  0  0  0  0  0  0  0  0
  195.9700  175.5800  143.9710 N   0  0  0  0  0  2  0  0  0  0  0  0
  186.0740  176.7560  146.4550 C   0  0  0  0  0  2  0  0  0  0  0  0
  187.1280  176.4950  143.9650 C   0  0  2  0  0  3  0  0  0  0  0  0
  194.9920  176.4650  144.6070 C   0  0  0  0  0  2  0  0  0  0  0  0
  187.5810  177.0080  146.3130 C   0  0  0  0  0  2  0  0  0  0  0  0
  190.9050  172.8450  141.2520 C   0  0  0  0  0  2  0  0  0  0  0  0
  190.5360  174.0960  142.0150 C   0  0  0  0  0  0  0  0  0  0  0  0
  192.9320  174.2230  142.7720 N   0  0  0  0  0  2  0  0  0  0  0  0
  189.3510  176.4520  144.9020 C   0  0  0  0  0  2  0  0  0  0  0  0
  192.3340  177.7050  144.6970 O   0  0  0  0  0  0  0  0  0  0  0  0
  195.8130  173.6760  142.5870 O   0  0  0  0  0  0  0  0  0  0  0  0
  191.3420  175.8910  143.5020 C   0  0  0  0  0  0  0  0  0  0  0  0
  193.8590  174.6430  143.5790 C   0  0  2  0  0  3  0  0  0  0  0  0
  185.7340  178.3340  143.1940 O   0  0  0  0  0  0  0  0  0  0  0  0
  184.5260  178.3310  142.5790 N   0  0  0  0  0  2  0  0  0  0  0  0
  184.4100  178.2830  141.1560 C   0  0  0  0  0  0  0  0  0  0  0  0
  185.4390  178.2760  140.4310 O   0  0  0  0  0  0  0  0  0  0  0  0
  183.0650  178.2490  140.5260 C   0  0  0  0  0  1  0  0  0  0  0  0
  1 16  1  0  0  0  0
  2 23  1  1  0  0  0
  3  4  1  0  0  0  0
  3 11  1  0  0  0  0
  4 20  1  0  0  0  0
  5  6  1  0  0  0  0
  5 24  2  0  0  0  0
  6 18  1  6  0  0  0
  7 23  1  1  0  0  0
  7 19  1  0  0  0  0
  8 12  1  0  0  0  0
  9 27  1  0  0  0  0
  9 15  1  0  0  0  0
 10 28  1  6  0  0  0
 10  1  1  0  0  0  0
 11 13  1  0  0  0  0
 12  2  1  0  0  0  0
 13 21  2  0  0  0  0
 13 12  1  0  0  0  0
 14 26  2  0  0  0  0
 15 18  1  0  0  0  0
 17  8  1  6  0  0  0
 17 10  1  0  0  0  0
 17  7  1  0  0  0  0
 19 16  1  0  0  0  0
 20 21  1  0  0  0  0
 21 14  1  0  0  0  0
 22 14  1  0  0  0  0
 25  9  2  0  0  0  0
 26  2  1  0  0  0  0
 26  5  1  0  0  0  0
 27 22  1  6  0  0  0
 27  6  1  0  0  0  0
 29 28  1  0  0  0  0
 30 29  1  0  0  0  0
 31 30  2  0  0  0  0
 32 30  1  0  0  0  0
M  END
>  <MODEL>
4

>  <REMARK>
 VINA RESULT:      -8.1      1.332      1.355
  Name = 
  2 active torsions:
  status: ('A' for Active; 'I' for Inactive)
    1  A    between atoms: C_10  and  O_20
    2  A    between atoms: O_20  and  N_29
                            x       y       z     vdW  Elec       q    Type
                         _______ _______ _______ _____ _____    ______ ____

>  <TORSDO>
F 2

$$$$
=
 OpenBabel11112416353D

 32 37  0  0  1  0  0  0  0  0999 V2000
  194.7970  174.9560  145.7040 C   0  0  0  0  0  2  0  0  0  0  0  0
  189.7380  175.5820  145.0510 C   0  0  1  0  0  3  0  0  0  0  0  0
  189.1690  173.2490  140.5740 C   0  0  0  0  0  2  0  0  0  0  0  0
  188.5820  174.5410  140.0410 C   0  0  0  0  0  2  0  0  0  0  0  0
  187.8640  177.2420  145.6860 C   0  0  0  0  0  0  0  0  0  0  0  0
  186.9060  178.2910  145.2050 C   0  0  2  0  0  3  0  0  0  0  0  0
  192.1100  175.8040  145.6610 N   0  0  1  0  0  0  0  0  0  0  0  0
  191.3300  173.8250  144.3570 C   0  0  0  0  0  2  0  0  0  0  0  0
  184.8440  178.2350  144.0490 C   0  0  0  0  0  0  0  0  0  0  0  0
  193.7590  174.0370  145.0510 C   0  0  2  0  0  3  0  0  0  0  0  0
  190.1200  173.5770  141.7180 C   0  0  0  0  0  2  0  0  0  0  0  0
  190.1190  174.5770  144.0590 N   0  0  0  0  0  0  0  0  0  0  0  0
  189.5060  174.4920  142.7570 C   0  0  0  0  0  0  0  0  0  0  0  0
  187.9090  176.2150  143.4700 C   0  0  0  0  0  0  0  0  0  0  0  0
  184.5480  178.7500  145.3330 N   0  0  0  0  0  2  0  0  0  0  0  0
  194.5490  176.4120  145.3490 C   0  0  0  0  0  2  0  0  0  0  0  0
  192.4820  174.8010  144.6380 C   0  0  2  0  0  3  0  0  0  0  0  0
  185.7450  178.6120  146.1660 C   0  0  0  0  0  2  0  0  0  0  0  0
  193.1510  176.8360  145.8180 C   0  0  0  0  0  2  0  0  0  0  0  0
  187.7360  175.1820  141.1320 C   0  0  0  0  0  2  0  0  0  0  0  0
  188.4610  175.2920  142.4540 C   0  0  0  0  0  0  0  0  0  0  0  0
  186.6660  176.8910  143.1950 N   0  0  0  0  0  2  0  0  0  0  0  0
  190.9140  176.5350  145.2340 C   0  0  0  0  0  2  0  0  0  0  0  0
  188.2120  177.2020  146.8970 O   0  0  0  0  0  0  0  0  0  0  0  0
  183.9860  178.0960  143.1370 O   0  0  0  0  0  0  0  0  0  0  0  0
  188.4850  176.3370  144.6880 C   0  0  0  0  0  0  0  0  0  0  0  0
  186.2170  177.8340  143.9680 C   0  0  2  0  0  3  0  0  0  0  0  0
  193.4600  172.9900  145.9350 O   0  0  0  0  0  0  0  0  0  0  0  0
  194.4530  172.0830  145.7620 N   0  0  0  0  0  2  0  0  0  0  0  0
  194.2360  170.8610  145.0570 C   0  0  0  0  0  0  0  0  0  0  0  0
  193.0960  170.5790  144.6020 O   0  0  0  0  0  0  0  0  0  0  0  0
  195.3620  169.9110  144.8630 C   0  0  0  0  0  1  0  0  0  0  0  0
  2 23  1  6  0  0  0
  3 11  1  0  0  0  0
  4  3  1  0  0  0  0
  4 20  1  0  0  0  0
  5 24  2  0  0  0  0
  6  5  1  0  0  0  0
  6 18  1  1  0  0  0
  7 23  1  6  0  0  0
  7 19  1  0  0  0  0
  9 15  1  0  0  0  0
 10  1  1  0  0  0  0
 10 28  1  1  0  0  0
 11 13  1  0  0  0  0
 12  8  1  0  0  0  0
 12  2  1  0  0  0  0
 13 12  1  0  0  0  0
 14 26  2  0  0  0  0
 15 18  1  0  0  0  0
 16  1  1  0  0  0  0
 16 19  1  0  0  0  0
 17  8  1  1  0  0  0
 17 10  1  0  0  0  0
 17  7  1  0  0  0  0
 20 21  1  0  0  0  0
 21 13  2  0  0  0  0
 21 14  1  0  0  0  0
 22 14  1  0  0  0  0
 25  9  2  0  0  0  0
 26  2  1  0  0  0  0
 26  5  1  0  0  0  0
 27 22  1  1  0  0  0
 27  9  1  0  0  0  0
 27  6  1  0  0  0  0
 29 28  1  0  0  0  0
 30 29  1  0  0  0  0
 31 30  2  0  0  0  0
 32 30  1  0  0  0  0
M  END
>  <MODEL>
5

>  <REMARK>
 VINA RESULT:      -7.9      1.930      7.713
  Name = 
  2 active torsions:
  status: ('A' for Active; 'I' for Inactive)
    1  A    between atoms: C_10  and  O_20
    2  A    between atoms: O_20  and  N_29
                            x       y       z     vdW  Elec       q    Type
                         _______ _______ _______ _____ _____    ______ ____

>  <TORSDO>
F 2

$$$$
=
 OpenBabel11112416353D

 32 37  0  0  1  0  0  0  0  0999 V2000
  186.2380  177.7400  141.8270 C   0  0  0  0  0  2  0  0  0  0  0  0
  189.3060  174.1040  143.7700 C   0  0  1  0  0  3  0  0  0  0  0  0
  191.4810  176.7500  147.5220 C   0  0  0  0  0  2  0  0  0  0  0  0
  192.8220  176.4160  146.9010 C   0  0  0  0  0  2  0  0  0  0  0  0
  190.5930  172.0010  143.0010 C   0  0  0  0  0  0  0  0  0  0  0  0
  191.9320  171.3840  142.7270 C   0  0  2  0  0  3  0  0  0  0  0  0
  187.9310  175.5430  142.3250 N   0  0  1  0  0  0  0  0  0  0  0  0
  188.1350  176.0390  144.7630 C   0  0  0  0  0  2  0  0  0  0  0  0
  193.6480  170.4920  144.0880 C   0  0  0  0  0  0  0  0  0  0  0  0
  186.6690  177.4730  143.2730 C   0  0  2  0  0  3  0  0  0  0  0  0
  190.4190  176.7420  146.4290 C   0  0  0  0  0  2  0  0  0  0  0  0
  189.2970  175.1610  144.7810 N   0  0  0  0  0  0  0  0  0  0  0  0
  190.4500  175.4900  145.5790 C   0  0  0  0  0  0  0  0  0  0  0  0
  191.5920  173.5440  144.6090 C   0  0  0  0  0  0  0  0  0  0  0  0
  193.1460  169.4000  143.3420 N   0  0  0  0  0  2  0  0  0  0  0  0
  187.3900  177.5360  140.8580 C   0  0  0  0  0  2  0  0  0  0  0  0
  187.9480  176.6120  143.3510 C   0  0  2  0  0  3  0  0  0  0  0  0
  191.9430  169.8460  142.6350 C   0  0  0  0  0  2  0  0  0  0  0  0
  187.9130  176.0970  140.9600 C   0  0  0  0  0  2  0  0  0  0  0  0
  192.7730  174.9940  146.3600 C   0  0  0  0  0  2  0  0  0  0  0  0
  191.5670  174.7360  145.4850 C   0  0  0  0  0  0  0  0  0  0  0  0
  192.7110  172.6390  144.6950 N   0  0  0  0  0  2  0  0  0  0  0  0
  189.1660  174.7580  142.3990 C   0  0  0  0  0  2  0  0  0  0  0  0
  189.5540  171.5410  142.4540 O   0  0  0  0  0  0  0  0  0  0  0  0
  194.6050  170.4020  144.9020 O   0  0  0  0  0  0  0  0  0  0  0  0
  190.5340  173.2320  143.8260 C   0  0  0  0  0  0  0  0  0  0  0  0
  192.8720  171.6720  143.8430 C   0  0  2  0  0  3  0  0  0  0  0  0
  185.6060  176.8670  143.9570 O   0  0  0  0  0  0  0  0  0  0  0  0
  185.1260  177.8230  144.7900 N   0  0  0  0  0  2  0  0  0  0  0  0
  184.9400  177.5770  146.1840 C   0  0  0  0  0  0  0  0  0  0  0  0
  185.1900  176.4440  146.6720 O   0  0  0  0  0  0  0  0  0  0  0  0
  184.4410  178.6650  147.0650 C   0  0  0  0  0  1  0  0  0  0  0  0
  1 10  1  0  0  0  0
  2 23  1  6  0  0  0
  2 26  1  0  0  0  0
  2 12  1  0  0  0  0
  4  3  1  0  0  0  0
  5 26  1  0  0  0  0
  6 18  1  1  0  0  0
  6  5  1  0  0  0  0
  6 27  1  0  0  0  0
  7 19  1  6  0  0  0
  7 23  1  0  0  0  0
  7 17  1  0  0  0  0
  8 12  1  0  0  0  0
  9 25  2  0  0  0  0
 10 17  1  0  0  0  0
 10 28  1  1  0  0  0
 11  3  1  0  0  0  0
 12 13  1  0  0  0  0
 13 11  1  0  0  0  0
 14 22  1  0  0  0  0
 14 21  1  0  0  0  0
 15  9  1  0  0  0  0
 16 19  1  0  0  0  0
 16  1  1  0  0  0  0
 17  8  1  1  0  0  0
 18 15  1  0  0  0  0
 20  4  1  0  0  0  0
 21 13  2  0  0  0  0
 21 20  1  0  0  0  0
 24  5  2  0  0  0  0
 26 14  2  0  0  0  0
 27  9  1  1  0  0  0
 27 22  1  0  0  0  0
 28 29  1  0  0  0  0
 29 30  1  0  0  0  0
 30 31  2  0  0  0  0
 30 32  1  0  0  0  0
M  END
>  <MODEL>
6

>  <REMARK>
 VINA RESULT:      -7.9      2.313      4.706
  Name = 
  2 active torsions:
  status: ('A' for Active; 'I' for Inactive)
    1  A    between atoms: C_10  and  O_20
    2  A    between atoms: O_20  and  N_29
                            x       y       z     vdW  Elec       q    Type
                         _______ _______ _______ _____ _____    ______ ____

>  <TORSDO>
F 2

$$$$
=
 OpenBabel11112416353D

 32 37  0  0  1  0  0  0  0  0999 V2000
  191.5760  171.8770  140.6820 C   0  0  0  0  0  2  0  0  0  0  0  0
  189.3170  175.8270  143.0720 C   0  0  1  0  0  3  0  0  0  0  0  0
  192.6300  176.5280  146.8590 C   0  0  0  0  0  2  0  0  0  0  0  0
  191.4790  176.3310  147.8250 C   0  0  0  0  0  2  0  0  0  0  0  0
  186.9560  176.7960  143.4660 C   0  0  0  0  0  0  0  0  0  0  0  0
  185.8530  177.0420  144.4510 C   0  0  2  0  0  3  0  0  0  0  0  0
  189.8300  173.7940  141.7850 N   0  0  1  0  0  0  0  0  0  0  0  0
  191.6730  175.1330  142.8030 C   0  0  0  0  0  2  0  0  0  0  0  0
  185.5030  178.6230  146.1750 C   0  0  0  0  0  0  0  0  0  0  0  0
  192.1880  173.0730  141.4190 C   0  0  2  0  0  3  0  0  0  0  0  0
  192.3230  175.7780  145.5690 C   0  0  0  0  0  2  0  0  0  0  0  0
  190.6650  175.7710  143.6380 N   0  0  0  0  0  0  0  0  0  0  0  0
  190.9480  176.0860  145.0160 C   0  0  0  0  0  0  0  0  0  0  0  0
  188.6120  176.8030  145.2610 C   0  0  0  0  0  0  0  0  0  0  0  0
  184.5090  178.8900  145.2050 N   0  0  0  0  0  2  0  0  0  0  0  0
  190.3530  171.3440  141.4100 C   0  0  0  0  0  2  0  0  0  0  0  0
  191.1830  173.7400  142.3840 C   0  0  2  0  0  3  0  0  0  0  0  0
  184.8020  178.0830  144.0180 C   0  0  0  0  0  2  0  0  0  0  0  0
  189.2920  172.4460  141.5290 C   0  0  0  0  0  2  0  0  0  0  0  0
  190.2310  176.9760  147.2390 C   0  0  0  0  0  2  0  0  0  0  0  0
  189.9630  176.5570  145.8110 C   0  0  0  0  0  0  0  0  0  0  0  0
  187.6480  177.5080  146.0690 N   0  0  0  0  0  2  0  0  0  0  0  0
  188.8890  174.4030  142.7290 C   0  0  0  0  0  2  0  0  0  0  0  0
  186.7100  176.7500  142.2300 O   0  0  0  0  0  0  0  0  0  0  0  0
  185.6050  179.2490  147.2630 O   0  0  0  0  0  0  0  0  0  0  0  0
  188.3120  176.4860  143.9810 C   0  0  0  0  0  0  0  0  0  0  0  0
  186.4030  177.6080  145.7120 C   0  0  2  0  0  3  0  0  0  0  0  0
  192.6680  173.9900  140.4730 O   0  0  0  0  0  0  0  0  0  0  0  0
  192.1800  173.5620  139.2820 N   0  0  0  0  0  2  0  0  0  0  0  0
  192.6020  174.1440  138.0480 C   0  0  0  0  0  0  0  0  0  0  0  0
  193.4210  175.0990  138.0390 O   0  0  0  0  0  0  0  0  0  0  0  0
  192.0650  173.6200  136.7650 C   0  0  0  0  0  1  0  0  0  0  0  0
  1 16  1  0  0  0  0
  1 10  1  0  0  0  0
  2 23  1  1  0  0  0
  2 12  1  0  0  0  0
  2 26  1  0  0  0  0
  3  4  1  0  0  0  0
  5 26  1  0  0  0  0
  5  6  1  0  0  0  0
  6 18  1  6  0  0  0
  6 27  1  0  0  0  0
  7 19  1  1  0  0  0
  7 17  1  0  0  0  0
  7 23  1  0  0  0  0
  8 12  1  0  0  0  0
  9 25  2  0  0  0  0
 10 28  1  6  0  0  0
 10 17  1  0  0  0  0
 11  3  1  0  0  0  0
 12 13  1  0  0  0  0
 13 11  1  0  0  0  0
 13 21  2  0  0  0  0
 14 21  1  0  0  0  0
 14 22  1  0  0  0  0
 15  9  1  0  0  0  0
 16 19  1  0  0  0  0
 17  8  1  6  0  0  0
 18 15  1  0  0  0  0
 20  4  1  0  0  0  0
 21 20  1  0  0  0  0
 24  5  2  0  0  0  0
 26 14  2  0  0  0  0
 27 22  1  6  0  0  0
 27  9  1  0  0  0  0
 29 28  1  0  0  0  0
 30 29  1  0  0  0  0
 31 30  2  0  0  0  0
 32 30  1  0  0  0  0
M  END
>  <MODEL>
7

>  <REMARK>
 VINA RESULT:      -7.9      2.736      7.564
  Name = 
  2 active torsions:
  status: ('A' for Active; 'I' for Inactive)
    1  A    between atoms: C_10  and  O_20
    2  A    between atoms: O_20  and  N_29
                            x       y       z     vdW  Elec       q    Type
                         _______ _______ _______ _____ _____    ______ ____

>  <TORSDO>
F 2

$$$$
=
 OpenBabel11112416353D

 32 37  0  0  1  0  0  0  0  0999 V2000
  187.3510  178.1050  143.0230 C   0  0  0  0  0  2  0  0  0  0  0  0
  190.2660  174.0100  144.0910 C   0  0  1  0  0  3  0  0  0  0  0  0
  193.8700  176.2450  146.8870 C   0  0  0  0  0  2  0  0  0  0  0  0
  194.8880  175.7060  145.9030 C   0  0  0  0  0  2  0  0  0  0  0  0
  190.9130  171.7330  143.0570 C   0  0  0  0  0  0  0  0  0  0  0  0
  191.9900  170.9130  142.4140 C   0  0  2  0  0  3  0  0  0  0  0  0
  188.7530  175.6620  143.0750 N   0  0  1  0  0  0  0  0  0  0  0  0
  189.7710  176.1000  145.3110 C   0  0  0  0  0  2  0  0  0  0  0  0
  193.8820  169.7470  143.2250 C   0  0  0  0  0  0  0  0  0  0  0  0
  188.1580  177.7620  144.2790 C   0  0  2  0  0  3  0  0  0  0  0  0
  192.5360  176.4160  146.1710 C   0  0  0  0  0  2  0  0  0  0  0  0
  190.7310  175.0470  145.0110 N   0  0  0  0  0  0  0  0  0  0  0  0
  192.1110  175.1810  145.4060 C   0  0  0  0  0  0  0  0  0  0  0  0
  192.5840  173.0850  144.2170 C   0  0  0  0  0  0  0  0  0  0  0  0
  193.0120  168.7550  142.7130 N   0  0  0  0  0  2  0  0  0  0  0  0
  188.1030  177.7260  141.7580 C   0  0  0  0  0  2  0  0  0  0  0  0
  189.2500  176.7060  143.9990 C   0  0  2  0  0  3  0  0  0  0  0  0
  191.7340  169.3930  142.3880 C   0  0  0  0  0  2  0  0  0  0  0  0
  188.4030  176.2210  141.7570 C   0  0  0  0  0  2  0  0  0  0  0  0
  194.4550  174.3140  145.4630 C   0  0  0  0  0  2  0  0  0  0  0  0
  193.0140  174.2590  145.0080 C   0  0  0  0  0  0  0  0  0  0  0  0
  193.5200  172.0110  143.9970 N   0  0  0  0  0  2  0  0  0  0  0  0
  189.8150  174.6890  142.8020 C   0  0  0  0  0  2  0  0  0  0  0  0
  189.6980  171.4500  142.8720 O   0  0  0  0  0  0  0  0  0  0  0  0
  195.0170  169.4980  143.7110 O   0  0  0  0  0  0  0  0  0  0  0  0
  191.3020  172.9520  143.8070 C   0  0  0  0  0  0  0  0  0  0  0  0
  193.2610  171.0380  143.1770 C   0  0  2  0  0  3  0  0  0  0  0  0
  187.2770  177.3280  145.2790 O   0  0  0  0  0  0  0  0  0  0  0  0
  186.2060  178.1550  145.1950 N   0  0  0  0  0  2  0  0  0  0  0  0
  184.9760  177.8580  145.8560 C   0  0  0  0  0  0  0  0  0  0  0  0
  184.8450  176.7920  146.5130 O   0  0  0  0  0  0  0  0  0  0  0  0
  183.8390  178.8100  145.7620 C   0  0  0  0  0  1  0  0  0  0  0  0
  1 10  1  0  0  0  0
  2 23  1  6  0  0  0
  2 12  1  0  0  0  0
  4  3  1  0  0  0  0
  5 26  1  0  0  0  0
  6 18  1  1  0  0  0
  6  5  1  0  0  0  0
  6 27  1  0  0  0  0
  7 19  1  6  0  0  0
  7 17  1  0  0  0  0
  9 25  2  0  0  0  0
 10 28  1  1  0  0  0
 11  3  1  0  0  0  0
 12  8  1  0  0  0  0
 12 13  1  0  0  0  0
 13 11  1  0  0  0  0
 14 21  1  0  0  0  0
 15  9  1  0  0  0  0
 16  1  1  0  0  0  0
 17 10  1  0  0  0  0
 17  8  1  1  0  0  0
 18 15  1  0  0  0  0
 19 16  1  0  0  0  0
 20  4  1  0  0  0  0
 21 13  2  0  0  0  0
 21 20  1  0  0  0  0
 22 14  1  0  0  0  0
 23  7  1  0  0  0  0
 24  5  2  0  0  0  0
 26  2  1  0  0  0  0
 26 14  2  0  0  0  0
 27  9  1  1  0  0  0
 27 22  1  0  0  0  0
 29 28  1  0  0  0  0
 29 30  1  0  0  0  0
 30 31  2  0  0  0  0
 32 30  1  0  0  0  0
M  END
>  <MODEL>
8

>  <REMARK>
 VINA RESULT:      -7.7      2.414      4.943
  Name = 
  2 active torsions:
  status: ('A' for Active; 'I' for Inactive)
    1  A    between atoms: C_10  and  O_20
    2  A    between atoms: O_20  and  N_29
                            x       y       z     vdW  Elec       q    Type
                         _______ _______ _______ _____ _____    ______ ____

>  <TORSDO>
F 2

$$$$
=
 OpenBabel11112416353D

 32 37  0  0  1  0  0  0  0  0999 V2000
  188.0040  176.0410  146.8840 C   0  0  0  0  0  2  0  0  0  0  0  0
  192.0380  175.9010  143.7030 C   0  0  1  0  0  3  0  0  0  0  0  0
  189.9120  173.5270  139.7460 C   0  0  0  0  0  2  0  0  0  0  0  0
  190.9950  172.4750  139.8700 C   0  0  0  0  0  2  0  0  0  0  0  0
  194.6180  175.8050  143.8020 C   0  0  0  0  0  0  0  0  0  0  0  0
  195.8490  174.9810  143.5710 C   0  0  2  0  0  3  0  0  0  0  0  0
  190.5360  175.9400  145.6500 N   0  0  1  0  0  0  0  0  0  0  0  0
  189.5990  176.0400  143.3390 C   0  0  0  0  0  2  0  0  0  0  0  0
  197.0770  174.3530  141.6500 C   0  0  0  0  0  0  0  0  0  0  0  0
  188.0680  176.1470  145.3560 C   0  0  2  0  0  3  0  0  0  0  0  0
  189.6850  174.1610  141.1130 C   0  0  0  0  0  2  0  0  0  0  0  0
  190.8900  175.5630  142.8610 N   0  0  0  0  0  0  0  0  0  0  0  0
  190.9670  174.6190  141.7760 C   0  0  0  0  0  0  0  0  0  0  0  0
  193.3950  174.5150  142.1270 C   0  0  0  0  0  0  0  0  0  0  0  0
  197.9410  175.1840  142.4010 N   0  0  0  0  0  2  0  0  0  0  0  0
  188.9760  174.9980  147.4090 C   0  0  0  0  0  2  0  0  0  0  0  0
  189.3870  175.5780  144.7880 C   0  0  2  0  0  3  0  0  0  0  0  0
  197.1680  175.7740  143.4960 C   0  0  0  0  0  2  0  0  0  0  0  0
  190.4090  175.3620  146.9990 C   0  0  0  0  0  2  0  0  0  0  0  0
  192.3020  173.1570  140.2490 C   0  0  0  0  0  2  0  0  0  0  0  0
  192.1600  174.0890  141.4310 C   0  0  0  0  0  0  0  0  0  0  0  0
  194.6710  174.1040  141.5970 N   0  0  0  0  0  2  0  0  0  0  0  0
  191.7700  175.3670  145.1060 C   0  0  0  0  0  2  0  0  0  0  0  0
  194.6420  176.7810  144.6010 O   0  0  0  0  0  0  0  0  0  0  0  0
  197.4070  173.7960  140.5690 O   0  0  0  0  0  0  0  0  0  0  0  0
  193.3460  175.3750  143.1690 C   0  0  0  0  0  0  0  0  0  0  0  0
  195.7760  174.3020  142.2500 C   0  0  2  0  0  3  0  0  0  0  0  0
  187.8930  177.4880  144.9870 O   0  0  0  0  0  0  0  0  0  0  0  0
  186.7870  177.8990  145.6550 N   0  0  0  0  0  2  0  0  0  0  0  0
  185.7270  178.5910  144.9940 C   0  0  0  0  0  0  0  0  0  0  0  0
  185.8100  178.8650  143.7680 O   0  0  0  0  0  0  0  0  0  0  0  0
  184.5190  178.9940  145.7600 C   0  0  0  0  0  1  0  0  0  0  0  0
  1 16  1  0  0  0  0
  2 23  1  1  0  0  0
  3  4  1  0  0  0  0
  3 11  1  0  0  0  0
  4 20  1  0  0  0  0
  5 24  2  0  0  0  0
  6 18  1  6  0  0  0
  6  5  1  0  0  0  0
  7 23  1  6  0  0  0
  7 19  1  0  0  0  0
  9 27  1  0  0  0  0
  9 15  1  0  0  0  0
 10 28  1  1  0  0  0
 10  1  1  0  0  0  0
 11 13  1  0  0  0  0
 12  8  1  0  0  0  0
 12  2  1  0  0  0  0
 13 12  1  0  0  0  0
 14 26  2  0  0  0  0
 15 18  1  0  0  0  0
 17  8  1  6  0  0  0
 17 10  1  0  0  0  0
 17  7  1  0  0  0  0
 19 16  1  0  0  0  0
 20 21  1  0  0  0  0
 21 13  2  0  0  0  0
 21 14  1  0  0  0  0
 22 14  1  0  0  0  0
 25  9  2  0  0  0  0
 26  2  1  0  0  0  0
 26  5  1  0  0  0  0
 27 22  1  6  0  0  0
 27  6  1  0  0  0  0
 28 29  1  0  0  0  0
 30 29  1  0  0  0  0
 30 32  1  0  0  0  0
 31 30  2  0  0  0  0
M  END
>  <MODEL>
9

>  <REMARK>
 VINA RESULT:      -7.4      2.598      3.487
  Name = 
  2 active torsions:
  status: ('A' for Active; 'I' for Inactive)
    1  A    between atoms: C_10  and  O_20
    2  A    between atoms: O_20  and  N_29
                            x       y       z     vdW  Elec       q    Type
                         _______ _______ _______ _____ _____    ______ ____

>  <TORSDO>
F 2

$$$$
