=
 OpenBabel11112417003D

 31 35  0  0  1  0  0  0  0  0999 V2000
  185.7550  178.0830  140.8610 C   0  0  0  0  0  0  0  0  0  0  0  0
  187.9810  177.7590  143.8810 N   0  0  0  0  0  0  0  0  0  0  0  0
  187.1540  177.7980  145.0720 C   0  0  0  0  0  0  0  0  0  0  0  0
  191.0960  174.0370  141.8630 O   0  0  0  0  0  0  0  0  0  0  0  0
  191.6350  174.5110  142.8980 C   0  0  0  0  0  0  0  0  0  0  0  0
  185.0610  178.3150  146.2010 C   0  0  0  0  0  0  0  0  0  0  0  0
  187.4210  177.6050  142.5600 C   0  0  0  0  0  0  0  0  0  0  0  0
  186.3940  177.2030  139.9820 C   0  0  0  0  0  3  0  0  0  0  0  0
  185.8400  178.2890  145.0400 C   0  0  0  0  0  3  0  0  0  0  0  0
  189.8820  176.3510  143.1840 C   0  0  0  0  0  0  0  0  0  0  0  0
  184.6360  178.7380  140.4680 F   0  0  0  0  0  0  0  0  0  0  0  0
  189.0530  176.7640  146.3460 C   0  0  0  0  0  2  0  0  0  0  0  0
  183.6710  178.8400  146.1490 C   0  0  0  0  0  1  0  0  0  0  0  0
  189.2530  176.0440  142.0840 N   0  0  0  0  0  0  0  0  0  0  0  0
  189.4420  177.5580  143.9840 C   0  0  2  0  0  3  0  0  0  0  0  0
  191.0710  175.6470  143.5650 N   0  0  0  0  0  2  0  0  0  0  0  0
  186.2650  178.2830  142.1470 C   0  0  0  0  0  3  0  0  0  0  0  0
  185.5860  177.8450  147.4060 C   0  0  0  0  0  3  0  0  0  0  0  0
  188.0700  176.7370  141.6650 C   0  0  0  0  0  0  0  0  0  0  0  0
  187.5500  176.5290  140.3840 C   0  0  0  0  0  3  0  0  0  0  0  0
  189.9650  177.5620  145.4280 C   0  0  0  0  0  2  0  0  0  0  0  0
  187.6780  177.3370  146.2950 C   0  0  0  0  0  0  0  0  0  0  0  0
  186.8920  177.3520  147.4510 C   0  0  0  0  0  3  0  0  0  0  0  0
  194.0020  175.3650  145.7140 C   0  0  1  0  0  3  0  0  0  0  0  0
  192.6670  173.4010  144.8960 C   0  0  0  0  0  2  0  0  0  0  0  0
  194.3810  175.1650  141.8850 C   0  0  0  0  0  1  0  0  0  0  0  0
  193.9920  176.5450  146.6610 C   0  0  0  0  0  1  0  0  0  0  0  0
  192.6950  174.5890  145.8590 C   0  0  0  0  0  2  0  0  0  0  0  0
  194.1530  174.6890  143.3090 C   0  0  2  0  0  3  0  0  0  0  0  0
  192.8690  173.8480  143.4440 C   0  0  2  0  0  3  0  0  0  0  0  0
  194.1710  175.8660  144.2830 C   0  0  0  0  0  2  0  0  0  0  0  0
  1 17  1  0  0  0  0
  2 15  1  0  0  0  0
  2  3  1  0  0  0  0
  3 22  1  0  0  0  0
  4  5  2  0  0  0  0
  5 16  1  0  0  0  0
  6 18  2  0  0  0  0
  7  2  1  0  0  0  0
  8 20  1  0  0  0  0
  8  1  2  0  0  0  0
  9  3  2  0  0  0  0
  9  6  1  0  0  0  0
 10 16  1  0  0  0  0
 10 15  1  0  0  0  0
 11  1  1  0  0  0  0
 13  6  1  0  0  0  0
 14 10  2  0  0  0  0
 15 21  1  1  0  0  0
 17  7  2  0  0  0  0
 18 23  1  0  0  0  0
 19 14  1  0  0  0  0
 19  7  1  0  0  0  0
 20 19  2  0  0  0  0
 21 12  1  0  0  0  0
 22 12  1  0  0  0  0
 22 23  2  0  0  0  0
 24 28  1  0  0  0  0
 24 27  1  1  0  0  0
 25 28  1  0  0  0  0
 29 26  1  6  0  0  0
 29 30  1  0  0  0  0
 29 31  1  0  0  0  0
 30  5  1  1  0  0  0
 30 25  1  0  0  0  0
 31 24  1  0  0  0  0
M  END
>  <MODEL>
1

>  <REMARK>
 VINA RESULT:      -9.8      0.000      0.000
  Name = 
  1 active torsions:
  status: ('A' for Active; 'I' for Inactive)
    1  A    between atoms: C_5  and  C_30
                            x       y       z     vdW  Elec       q    Type
                         _______ _______ _______ _____ _____    ______ ____

>  <TORSDO>
F 1

$$$$
=
 OpenBabel11112417003D

 31 35  0  0  1  0  0  0  0  0999 V2000
  184.9730  177.9380  146.8420 C   0  0  0  0  0  0  0  0  0  0  0  0
  186.7710  176.5490  143.8390 N   0  0  0  0  0  0  0  0  0  0  0  0
  186.1280  177.0530  142.6410 C   0  0  0  0  0  0  0  0  0  0  0  0
  191.6200  177.1650  145.7740 O   0  0  0  0  0  0  0  0  0  0  0  0
  191.6700  176.4190  144.7610 C   0  0  0  0  0  0  0  0  0  0  0  0
  184.2390  178.0830  141.5050 C   0  0  0  0  0  0  0  0  0  0  0  0
  186.4890  177.0860  145.1480 C   0  0  0  0  0  0  0  0  0  0  0  0
  186.0550  178.1630  147.7000 C   0  0  0  0  0  3  0  0  0  0  0  0
  184.8370  177.6020  142.6730 C   0  0  0  0  0  3  0  0  0  0  0  0
  189.1280  176.2820  144.5130 C   0  0  0  0  0  0  0  0  0  0  0  0
  183.7170  178.2450  147.2420 F   0  0  0  0  0  0  0  0  0  0  0  0
  188.2000  176.4570  141.3560 C   0  0  0  0  0  2  0  0  0  0  0  0
  182.8700  178.6610  141.5570 C   0  0  0  0  0  1  0  0  0  0  0  0
  188.8980  176.9710  145.5950 N   0  0  0  0  0  0  0  0  0  0  0  0
  187.9680  175.6850  143.7460 C   0  0  2  0  0  3  0  0  0  0  0  0
  190.4700  175.9630  144.1230 N   0  0  0  0  0  2  0  0  0  0  0  0
  185.1890  177.4030  145.5690 C   0  0  0  0  0  3  0  0  0  0  0  0
  184.9270  178.0250  140.2920 C   0  0  0  0  0  3  0  0  0  0  0  0
  187.5690  177.2970  146.0220 C   0  0  0  0  0  0  0  0  0  0  0  0
  187.3520  177.8440  147.2900 C   0  0  0  0  0  3  0  0  0  0  0  0
  188.3250  175.2790  142.3100 C   0  0  0  0  0  2  0  0  0  0  0  0
  186.8090  176.9890  141.4100 C   0  0  0  0  0  0  0  0  0  0  0  0
  186.2130  177.4830  140.2450 C   0  0  0  0  0  3  0  0  0  0  0  0
  193.4030  173.1030  144.2410 C   0  0  1  0  0  3  0  0  0  0  0  0
  192.8740  175.1860  142.9390 C   0  0  0  0  0  2  0  0  0  0  0  0
  194.0960  176.1440  146.5030 C   0  0  0  0  0  1  0  0  0  0  0  0
  192.9260  171.7030  144.5610 C   0  0  0  0  0  1  0  0  0  0  0  0
  192.4290  173.7590  143.2630 C   0  0  0  0  0  2  0  0  0  0  0  0
  193.9430  175.3420  145.2230 C   0  0  2  0  0  3  0  0  0  0  0  0
  193.0140  176.0330  144.2080 C   0  0  2  0  0  3  0  0  0  0  0  0
  193.4920  173.9140  145.5300 C   0  0  0  0  0  2  0  0  0  0  0  0
  1 11  1  0  0  0  0
  1  8  1  0  0  0  0
  2  7  1  0  0  0  0
  3  9  1  0  0  0  0
  3  2  1  0  0  0  0
  5  4  2  0  0  0  0
  6 13  1  0  0  0  0
  6  9  2  0  0  0  0
  7 17  1  0  0  0  0
  7 19  2  0  0  0  0
 10 14  2  0  0  0  0
 12 22  1  0  0  0  0
 12 21  1  0  0  0  0
 14 19  1  0  0  0  0
 15 21  1  6  0  0  0
 15  2  1  0  0  0  0
 15 10  1  0  0  0  0
 16 10  1  0  0  0  0
 16  5  1  0  0  0  0
 17  1  2  0  0  0  0
 18  6  1  0  0  0  0
 19 20  1  0  0  0  0
 20  8  2  0  0  0  0
 22  3  2  0  0  0  0
 23 18  2  0  0  0  0
 23 22  1  0  0  0  0
 24 27  1  1  0  0  0
 24 31  1  0  0  0  0
 25 28  1  0  0  0  0
 25 30  1  0  0  0  0
 28 24  1  0  0  0  0
 29 31  1  0  0  0  0
 29 26  1  1  0  0  0
 30  5  1  1  0  0  0
 30 29  1  0  0  0  0
M  END
>  <MODEL>
2

>  <REMARK>
 VINA RESULT:      -8.8      2.022      4.442
  Name = 
  1 active torsions:
  status: ('A' for Active; 'I' for Inactive)
    1  A    between atoms: C_5  and  C_30
                            x       y       z     vdW  Elec       q    Type
                         _______ _______ _______ _____ _____    ______ ____

>  <TORSDO>
F 1

$$$$
=
 OpenBabel11112417003D

 31 35  0  0  1  0  0  0  0  0999 V2000
  193.8390  174.2830  144.4090 C   0  0  0  0  0  0  0  0  0  0  0  0
  190.5530  175.4860  143.0180 N   0  0  0  0  0  0  0  0  0  0  0  0
  190.2470  174.7190  141.8250 C   0  0  0  0  0  0  0  0  0  0  0  0
  188.1240  175.9200  147.6590 O   0  0  0  0  0  0  0  0  0  0  0  0
  187.4430  176.5100  146.7790 C   0  0  0  0  0  0  0  0  0  0  0  0
  190.9150  173.2530  140.0010 C   0  0  0  0  0  0  0  0  0  0  0  0
  191.6070  175.1060  143.9270 C   0  0  0  0  0  0  0  0  0  0  0  0
  193.5730  174.3560  145.7800 C   0  0  0  0  0  3  0  0  0  0  0  0
  191.2330  173.9860  141.1470 C   0  0  0  0  0  3  0  0  0  0  0  0
  189.2120  176.2110  144.9550 C   0  0  0  0  0  0  0  0  0  0  0  0
  195.0450  173.8440  143.9760 F   0  0  0  0  0  0  0  0  0  0  0  0
  187.8540  175.4390  142.0550 C   0  0  0  0  0  2  0  0  0  0  0  0
  191.9710  172.4830  139.2950 C   0  0  0  0  0  1  0  0  0  0  0  0
  190.0750  175.6590  145.7610 N   0  0  0  0  0  0  0  0  0  0  0  0
  189.6060  176.5030  143.5240 C   0  0  2  0  0  3  0  0  0  0  0  0
  187.9480  176.6760  145.4480 N   0  0  0  0  0  2  0  0  0  0  0  0
  192.8590  174.6550  143.4840 C   0  0  0  0  0  3  0  0  0  0  0  0
  189.6030  173.2410  139.5210 C   0  0  0  0  0  3  0  0  0  0  0  0
  191.3530  175.1950  145.3060 C   0  0  0  0  0  0  0  0  0  0  0  0
  192.3310  174.8100  146.2290 C   0  0  0  0  0  3  0  0  0  0  0  0
  188.4090  176.7470  142.5940 C   0  0  0  0  0  2  0  0  0  0  0  0
  188.9310  174.7090  141.3260 C   0  0  0  0  0  0  0  0  0  0  0  0
  188.6110  173.9650  140.1860 C   0  0  0  0  0  3  0  0  0  0  0  0
  185.0920  178.9850  145.1620 C   0  0  1  0  0  3  0  0  0  0  0  0
  185.0420  176.6420  146.0670 C   0  0  0  0  0  2  0  0  0  0  0  0
  187.0350  178.9400  148.4900 C   0  0  0  0  0  1  0  0  0  0  0  0
  185.2720  179.8100  143.9060 C   0  0  0  0  0  1  0  0  0  0  0  0
  185.1970  177.5020  144.8120 C   0  0  0  0  0  2  0  0  0  0  0  0
  186.0150  178.5250  147.4430 C   0  0  2  0  0  3  0  0  0  0  0  0
  186.0730  177.0160  147.1360 C   0  0  2  0  0  3  0  0  0  0  0  0
  186.1620  179.3710  146.1790 C   0  0  0  0  0  2  0  0  0  0  0  0
  1  8  1  0  0  0  0
  2 15  1  0  0  0  0
  2  7  1  0  0  0  0
  3  2  1  0  0  0  0
  5  4  2  0  0  0  0
  6  9  1  0  0  0  0
  7 19  2  0  0  0  0
  8 20  2  0  0  0  0
  9  3  2  0  0  0  0
 10 16  1  0  0  0  0
 10 14  2  0  0  0  0
 11  1  1  0  0  0  0
 12 21  1  0  0  0  0
 13  6  1  0  0  0  0
 15 21  1  6  0  0  0
 15 10  1  0  0  0  0
 16  5  1  0  0  0  0
 17  7  1  0  0  0  0
 17  1  2  0  0  0  0
 18  6  2  0  0  0  0
 18 23  1  0  0  0  0
 19 14  1  0  0  0  0
 19 20  1  0  0  0  0
 22  3  1  0  0  0  0
 22 12  1  0  0  0  0
 23 22  2  0  0  0  0
 24 27  1  6  0  0  0
 24 31  1  0  0  0  0
 25 30  1  0  0  0  0
 28 24  1  0  0  0  0
 28 25  1  0  0  0  0
 29 26  1  1  0  0  0
 30  5  1  6  0  0  0
 30 29  1  0  0  0  0
 31 29  1  0  0  0  0
M  END
>  <MODEL>
3

>  <REMARK>
 VINA RESULT:      -8.7      3.076      7.812
  Name = 
  1 active torsions:
  status: ('A' for Active; 'I' for Inactive)
    1  A    between atoms: C_5  and  C_30
                            x       y       z     vdW  Elec       q    Type
                         _______ _______ _______ _____ _____    ______ ____

>  <TORSDO>
F 1

$$$$
=
 OpenBabel11112417003D

 31 35  0  0  1  0  0  0  0  0999 V2000
  184.7000  178.5000  146.2170 C   0  0  0  0  0  0  0  0  0  0  0  0
  186.9130  176.4140  143.9960 N   0  0  0  0  0  0  0  0  0  0  0  0
  186.6890  176.8070  142.6180 C   0  0  0  0  0  0  0  0  0  0  0  0
  191.1570  176.6390  147.0890 O   0  0  0  0  0  0  0  0  0  0  0  0
  191.3250  175.7430  146.2210 C   0  0  0  0  0  0  0  0  0  0  0  0
  185.3550  177.9000  140.9010 C   0  0  0  0  0  0  0  0  0  0  0  0
  186.4130  177.1860  145.1080 C   0  0  0  0  0  0  0  0  0  0  0  0
  185.5570  178.7040  147.3040 C   0  0  0  0  0  3  0  0  0  0  0  0
  185.5490  177.5310  142.2350 C   0  0  0  0  0  3  0  0  0  0  0  0
  188.9420  175.9280  145.3100 C   0  0  0  0  0  0  0  0  0  0  0  0
  183.4590  179.0410  146.2230 F   0  0  0  0  0  0  0  0  0  0  0  0
  188.8750  175.7290  142.0220 C   0  0  0  0  0  2  0  0  0  0  0  0
  184.1420  178.6660  140.5130 C   0  0  0  0  0  1  0  0  0  0  0  0
  188.5760  176.8050  146.2020 N   0  0  0  0  0  0  0  0  0  0  0  0
  187.9220  175.3870  144.3320 C   0  0  2  0  0  3  0  0  0  0  0  0
  190.2600  175.3650  145.3390 N   0  0  0  0  0  2  0  0  0  0  0  0
  185.1270  177.7450  145.1210 C   0  0  0  0  0  3  0  0  0  0  0  0
  186.3020  177.5550  139.9350 C   0  0  0  0  0  3  0  0  0  0  0  0
  187.2620  177.3780  146.2120 C   0  0  0  0  0  0  0  0  0  0  0  0
  186.8370  178.1440  147.3010 C   0  0  0  0  0  3  0  0  0  0  0  0
  188.5480  174.7110  143.1030 C   0  0  0  0  0  2  0  0  0  0  0  0
  187.6310  176.4540  141.6340 C   0  0  0  0  0  0  0  0  0  0  0  0
  187.4410  176.8360  140.3030 C   0  0  0  0  0  3  0  0  0  0  0  0
  193.9730  175.7370  143.5270 C   0  0  1  0  0  3  0  0  0  0  0  0
  193.7930  176.1310  146.0020 C   0  0  0  0  0  2  0  0  0  0  0  0
  191.6790  173.0200  145.0130 C   0  0  0  0  0  1  0  0  0  0  0  0
  193.9780  176.4160  142.1750 C   0  0  0  0  0  1  0  0  0  0  0  0
  193.8240  176.7910  144.6220 C   0  0  0  0  0  2  0  0  0  0  0  0
  192.7820  174.0630  144.9580 C   0  0  2  0  0  3  0  0  0  0  0  0
  192.6740  175.0890  146.1020 C   0  0  2  0  0  3  0  0  0  0  0  0
  192.8220  174.7370  143.5870 C   0  0  0  0  0  2  0  0  0  0  0  0
  1 11  1  0  0  0  0
  1  8  1  0  0  0  0
  2 15  1  0  0  0  0
  2  7  1  0  0  0  0
  3  2  1  0  0  0  0
  5  4  2  0  0  0  0
  6  9  2  0  0  0  0
  7 17  1  0  0  0  0
  7 19  2  0  0  0  0
  9  3  1  0  0  0  0
 10 16  1  0  0  0  0
 10 14  2  0  0  0  0
 12 21  1  0  0  0  0
 13  6  1  0  0  0  0
 14 19  1  0  0  0  0
 15 21  1  6  0  0  0
 15 10  1  0  0  0  0
 16  5  1  0  0  0  0
 17  1  2  0  0  0  0
 18 23  2  0  0  0  0
 18  6  1  0  0  0  0
 19 20  1  0  0  0  0
 20  8  2  0  0  0  0
 22 12  1  0  0  0  0
 22  3  2  0  0  0  0
 23 22  1  0  0  0  0
 24 27  1  6  0  0  0
 24 31  1  0  0  0  0
 24 28  1  0  0  0  0
 25 30  1  0  0  0  0
 28 25  1  0  0  0  0
 29 26  1  6  0  0  0
 29 30  1  0  0  0  0
 30  5  1  6  0  0  0
 31 29  1  0  0  0  0
M  END
>  <MODEL>
4

>  <REMARK>
 VINA RESULT:      -8.6      1.935      4.472
  Name = 
  1 active torsions:
  status: ('A' for Active; 'I' for Inactive)
    1  A    between atoms: C_5  and  C_30
                            x       y       z     vdW  Elec       q    Type
                         _______ _______ _______ _____ _____    ______ ____

>  <TORSDO>
F 1

$$$$
=
 OpenBabel11112417003D

 31 35  0  0  1  0  0  0  0  0999 V2000
  185.3690  178.3190  140.8430 C   0  0  0  0  0  0  0  0  0  0  0  0
  187.8070  177.7370  143.6540 N   0  0  0  0  0  0  0  0  0  0  0  0
  187.0700  177.6860  144.9020 C   0  0  0  0  0  0  0  0  0  0  0  0
  190.7150  174.1640  141.1210 O   0  0  0  0  0  0  0  0  0  0  0  0
  191.3340  174.5490  142.1480 C   0  0  0  0  0  0  0  0  0  0  0  0
  185.0730  178.1280  146.2210 C   0  0  0  0  0  0  0  0  0  0  0  0
  187.1490  177.6930  142.3710 C   0  0  0  0  0  0  0  0  0  0  0  0
  185.9300  177.5070  139.8520 C   0  0  0  0  0  3  0  0  0  0  0  0
  185.7640  178.1890  145.0080 C   0  0  0  0  0  3  0  0  0  0  0  0
  189.6320  176.3750  142.7090 C   0  0  0  0  0  0  0  0  0  0  0  0
  184.2340  179.0120  140.5880 F   0  0  0  0  0  0  0  0  0  0  0  0
  189.0430  176.5390  145.9460 C   0  0  0  0  0  2  0  0  0  0  0  0
  183.6910  178.6660  146.3150 C   0  0  0  0  0  1  0  0  0  0  0  0
  188.9200  176.1620  141.6380 N   0  0  0  0  0  0  0  0  0  0  0  0
  189.2690  177.5170  143.6320 C   0  0  2  0  0  3  0  0  0  0  0  0
  190.8360  175.6330  142.9440 N   0  0  0  0  0  2  0  0  0  0  0  0
  185.9750  178.4110  142.1000 C   0  0  0  0  0  3  0  0  0  0  0  0
  185.6790  177.5590  147.3430 C   0  0  0  0  0  3  0  0  0  0  0  0
  187.7180  176.8950  141.3640 C   0  0  0  0  0  0  0  0  0  0  0  0
  187.1030  176.7940  140.1130 C   0  0  0  0  0  3  0  0  0  0  0  0
  189.8960  177.4010  145.0290 C   0  0  0  0  0  2  0  0  0  0  0  0
  187.6760  177.1250  146.0430 C   0  0  0  0  0  0  0  0  0  0  0  0
  186.9780  177.0540  147.2520 C   0  0  0  0  0  3  0  0  0  0  0  0
  192.3040  170.9030  142.3260 C   0  0  1  0  0  3  0  0  0  0  0  0
  193.1900  173.0520  141.3720 C   0  0  0  0  0  2  0  0  0  0  0  0
  191.8480  173.6700  144.9690 C   0  0  0  0  0  1  0  0  0  0  0  0
  191.4850  169.6690  142.0140 C   0  0  0  0  0  1  0  0  0  0  0  0
  192.3860  171.7830  141.0810 C   0  0  0  0  0  2  0  0  0  0  0  0
  192.4490  172.9320  143.7850 C   0  0  2  0  0  3  0  0  0  0  0  0
  192.5960  173.8360  142.5470 C   0  0  2  0  0  3  0  0  0  0  0  0
  191.6520  171.6650  143.4760 C   0  0  0  0  0  2  0  0  0  0  0  0
  1 17  1  0  0  0  0
  2  3  1  0  0  0  0
  3  9  2  0  0  0  0
  3 22  1  0  0  0  0
  4  5  2  0  0  0  0
  5 16  1  0  0  0  0
  6 13  1  0  0  0  0
  6 18  2  0  0  0  0
  7  2  1  0  0  0  0
  8 20  1  0  0  0  0
  8  1  2  0  0  0  0
  9  6  1  0  0  0  0
 10 16  1  0  0  0  0
 10 15  1  0  0  0  0
 11  1  1  0  0  0  0
 12 22  1  0  0  0  0
 14 10  2  0  0  0  0
 15  2  1  0  0  0  0
 15 21  1  1  0  0  0
 17  7  2  0  0  0  0
 19 14  1  0  0  0  0
 19  7  1  0  0  0  0
 20 19  2  0  0  0  0
 21 12  1  0  0  0  0
 22 23  2  0  0  0  0
 23 18  1  0  0  0  0
 24 27  1  6  0  0  0
 24 31  1  0  0  0  0
 25 30  1  0  0  0  0
 28 25  1  0  0  0  0
 28 24  1  0  0  0  0
 29 26  1  1  0  0  0
 30  5  1  6  0  0  0
 30 29  1  0  0  0  0
 31 29  1  0  0  0  0
M  END
>  <MODEL>
5

>  <REMARK>
 VINA RESULT:      -8.4      1.400      2.591
  Name = 
  1 active torsions:
  status: ('A' for Active; 'I' for Inactive)
    1  A    between atoms: C_5  and  C_30
                            x       y       z     vdW  Elec       q    Type
                         _______ _______ _______ _____ _____    ______ ____

>  <TORSDO>
F 1

$$$$
=
 OpenBabel11112417003D

 31 35  0  0  1  0  0  0  0  0999 V2000
  187.4640  175.2890  139.0720 C   0  0  0  0  0  0  0  0  0  0  0  0
  188.2810  176.8340  142.4080 N   0  0  0  0  0  0  0  0  0  0  0  0
  187.0560  177.3470  142.9930 C   0  0  0  0  0  0  0  0  0  0  0  0
  191.6270  173.0810  143.9410 O   0  0  0  0  0  0  0  0  0  0  0  0
  191.7480  174.0790  144.7000 C   0  0  0  0  0  0  0  0  0  0  0  0
  184.7370  178.0600  142.8050 C   0  0  0  0  0  0  0  0  0  0  0  0
  188.2780  175.9640  141.2580 C   0  0  0  0  0  0  0  0  0  0  0  0
  188.3250  174.1870  139.0890 C   0  0  0  0  0  3  0  0  0  0  0  0
  185.9060  177.5670  142.2190 C   0  0  0  0  0  3  0  0  0  0  0  0
  190.1810  175.5490  143.3130 C   0  0  0  0  0  0  0  0  0  0  0  0
  186.6490  175.4960  138.0110 F   0  0  0  0  0  0  0  0  0  0  0  0
  188.2060  177.3670  145.2230 C   0  0  0  0  0  2  0  0  0  0  0  0
  183.5290  178.2880  141.9710 C   0  0  0  0  0  1  0  0  0  0  0  0
  190.0160  174.6490  142.3850 N   0  0  0  0  0  0  0  0  0  0  0  0
  189.5610  176.9190  143.1440 C   0  0  2  0  0  3  0  0  0  0  0  0
  191.0610  175.3050  144.4180 N   0  0  0  0  0  2  0  0  0  0  0  0
  187.4380  176.1750  140.1540 C   0  0  0  0  0  3  0  0  0  0  0  0
  184.7030  178.3350  144.1730 C   0  0  0  0  0  3  0  0  0  0  0  0
  189.1550  174.8650  141.2590 C   0  0  0  0  0  0  0  0  0  0  0  0
  189.1690  173.9740  140.1820 C   0  0  0  0  0  3  0  0  0  0  0  0
  189.4680  177.7170  144.4520 C   0  0  0  0  0  2  0  0  0  0  0  0
  187.0140  177.6380  144.3700 C   0  0  0  0  0  0  0  0  0  0  0  0
  185.8400  178.1190  144.9560 C   0  0  0  0  0  3  0  0  0  0  0  0
  194.3970  176.2910  146.2340 C   0  0  1  0  0  3  0  0  0  0  0  0
  192.3100  175.0790  146.9300 C   0  0  0  0  0  2  0  0  0  0  0  0
  194.4540  172.7860  144.6360 C   0  0  0  0  0  1  0  0  0  0  0  0
  194.9410  177.6210  145.7570 C   0  0  0  0  0  1  0  0  0  0  0  0
  192.8930  176.4150  146.4680 C   0  0  0  0  0  2  0  0  0  0  0  0
  194.1180  173.8760  145.6390 C   0  0  2  0  0  3  0  0  0  0  0  0
  192.6080  173.9590  145.9280 C   0  0  2  0  0  3  0  0  0  0  0  0
  194.6890  175.2200  145.1880 C   0  0  0  0  0  2  0  0  0  0  0  0
  1  8  2  0  0  0  0
  1 17  1  0  0  0  0
  2  3  1  0  0  0  0
  2 15  1  0  0  0  0
  3 22  1  0  0  0  0
  4  5  2  0  0  0  0
  6 18  2  0  0  0  0
  7 19  1  0  0  0  0
  7  2  1  0  0  0  0
  8 20  1  0  0  0  0
  9  6  1  0  0  0  0
  9  3  2  0  0  0  0
 10 16  1  0  0  0  0
 11  1  1  0  0  0  0
 13  6  1  0  0  0  0
 14 10  2  0  0  0  0
 15 10  1  0  0  0  0
 15 21  1  1  0  0  0
 16  5  1  0  0  0  0
 17  7  2  0  0  0  0
 18 23  1  0  0  0  0
 19 14  1  0  0  0  0
 20 19  2  0  0  0  0
 21 12  1  0  0  0  0
 22 23  2  0  0  0  0
 22 12  1  0  0  0  0
 24 27  1  6  0  0  0
 24 28  1  0  0  0  0
 28 25  1  0  0  0  0
 29 26  1  6  0  0  0
 29 30  1  0  0  0  0
 30  5  1  6  0  0  0
 30 25  1  0  0  0  0
 31 29  1  0  0  0  0
 31 24  1  0  0  0  0
M  END
>  <MODEL>
6

>  <REMARK>
 VINA RESULT:      -8.3      1.707      2.580
  Name = 
  1 active torsions:
  status: ('A' for Active; 'I' for Inactive)
    1  A    between atoms: C_5  and  C_30
                            x       y       z     vdW  Elec       q    Type
                         _______ _______ _______ _____ _____    ______ ____

>  <TORSDO>
F 1

$$$$
=
 OpenBabel11112417003D

 31 35  0  0  1  0  0  0  0  0999 V2000
  185.4370  178.2620  140.8090 C   0  0  0  0  0  0  0  0  0  0  0  0
  187.8500  177.8230  143.6670 N   0  0  0  0  0  0  0  0  0  0  0  0
  187.0990  177.7970  144.9070 C   0  0  0  0  0  0  0  0  0  0  0  0
  190.8640  174.2330  141.2870 O   0  0  0  0  0  0  0  0  0  0  0  0
  191.4620  174.6640  142.3080 C   0  0  0  0  0  0  0  0  0  0  0  0
  185.0770  178.2390  146.1870 C   0  0  0  0  0  0  0  0  0  0  0  0
  187.2100  177.7240  142.3780 C   0  0  0  0  0  0  0  0  0  0  0  0
  186.0270  177.4300  139.8520 C   0  0  0  0  0  3  0  0  0  0  0  0
  185.7820  178.2750  144.9800 C   0  0  0  0  0  3  0  0  0  0  0  0
  189.7160  176.4700  142.7880 C   0  0  0  0  0  0  0  0  0  0  0  0
  184.2910  178.9210  140.5180 F   0  0  0  0  0  0  0  0  0  0  0  0
  189.0820  176.7270  146.0110 C   0  0  0  0  0  2  0  0  0  0  0  0
  183.6820  178.7500  146.2460 C   0  0  0  0  0  1  0  0  0  0  0  0
  189.0220  176.2080  141.7160 N   0  0  0  0  0  0  0  0  0  0  0  0
  189.3170  177.6340  143.6690 C   0  0  2  0  0  3  0  0  0  0  0  0
  190.9320  175.7630  143.0610 N   0  0  0  0  0  2  0  0  0  0  0  0
  186.0250  178.4070  142.0690 C   0  0  0  0  0  3  0  0  0  0  0  0
  185.6800  177.7200  147.3340 C   0  0  0  0  0  3  0  0  0  0  0  0
  187.8090  176.9050  141.4040 C   0  0  0  0  0  0  0  0  0  0  0  0
  187.2120  176.7510  140.1500 C   0  0  0  0  0  3  0  0  0  0  0  0
  189.9290  177.5770  145.0760 C   0  0  0  0  0  2  0  0  0  0  0  0
  187.7020  177.2870  146.0730 C   0  0  0  0  0  0  0  0  0  0  0  0
  186.9900  177.2400  147.2750 C   0  0  0  0  0  3  0  0  0  0  0  0
  194.9770  174.6190  140.9260 C   0  0  1  0  0  3  0  0  0  0  0  0
  193.8100  175.0170  143.1150 C   0  0  0  0  0  2  0  0  0  0  0  0
  192.2420  171.9360  141.3360 C   0  0  0  0  0  1  0  0  0  0  0  0
  195.5410  175.2970  139.6960 C   0  0  0  0  0  1  0  0  0  0  0  0
  194.4090  175.6750  141.8710 C   0  0  0  0  0  2  0  0  0  0  0  0
  193.2850  172.9630  141.7400 C   0  0  2  0  0  3  0  0  0  0  0  0
  192.7340  173.9910  142.7450 C   0  0  2  0  0  3  0  0  0  0  0  0
  193.8880  173.6350  140.5070 C   0  0  0  0  0  2  0  0  0  0  0  0
  1 17  1  0  0  0  0
  2 15  1  0  0  0  0
  2  3  1  0  0  0  0
  3  9  2  0  0  0  0
  3 22  1  0  0  0  0
  4  5  2  0  0  0  0
  5 16  1  0  0  0  0
  6 13  1  0  0  0  0
  6 18  2  0  0  0  0
  7  2  1  0  0  0  0
  8 20  1  0  0  0  0
  8  1  2  0  0  0  0
  9  6  1  0  0  0  0
 10 16  1  0  0  0  0
 10 15  1  0  0  0  0
 11  1  1  0  0  0  0
 12 22  1  0  0  0  0
 14 10  2  0  0  0  0
 15 21  1  1  0  0  0
 17  7  2  0  0  0  0
 19 14  1  0  0  0  0
 19  7  1  0  0  0  0
 20 19  2  0  0  0  0
 21 12  1  0  0  0  0
 22 23  2  0  0  0  0
 23 18  1  0  0  0  0
 24 27  1  6  0  0  0
 24 28  1  0  0  0  0
 28 25  1  0  0  0  0
 29 26  1  6  0  0  0
 29 30  1  0  0  0  0
 30  5  1  6  0  0  0
 30 25  1  0  0  0  0
 31 24  1  0  0  0  0
 31 29  1  0  0  0  0
M  END
>  <MODEL>
7

>  <REMARK>
 VINA RESULT:      -8.2      1.168      2.189
  Name = 
  1 active torsions:
  status: ('A' for Active; 'I' for Inactive)
    1  A    between atoms: C_5  and  C_30
                            x       y       z     vdW  Elec       q    Type
                         _______ _______ _______ _____ _____    ______ ____

>  <TORSDO>
F 1

$$$$
=
 OpenBabel11112417003D

 31 35  0  0  1  0  0  0  0  0999 V2000
  190.3990  171.7320  141.9400 C   0  0  0  0  0  0  0  0  0  0  0  0
  189.7960  174.5630  144.3500 N   0  0  0  0  0  0  0  0  0  0  0  0
  191.0490  174.8880  145.0040 C   0  0  0  0  0  0  0  0  0  0  0  0
  186.6470  177.3220  141.1720 O   0  0  0  0  0  0  0  0  0  0  0  0
  186.5610  177.7820  142.3410 C   0  0  0  0  0  0  0  0  0  0  0  0
  193.3340  174.3360  145.6350 C   0  0  0  0  0  0  0  0  0  0  0  0
  189.7330  173.7010  143.1950 C   0  0  0  0  0  0  0  0  0  0  0  0
  189.5630  172.1180  140.8860 C   0  0  0  0  0  3  0  0  0  0  0  0
  192.1350  173.9990  145.0000 C   0  0  0  0  0  3  0  0  0  0  0  0
  187.9930  175.9280  143.3680 C   0  0  0  0  0  0  0  0  0  0  0  0
  191.1300  170.5970  141.8430 F   0  0  0  0  0  0  0  0  0  0  0  0
  190.0650  177.1070  145.6420 C   0  0  0  0  0  2  0  0  0  0  0  0
  194.4740  173.3820  145.6210 C   0  0  0  0  0  1  0  0  0  0  0  0
  188.1080  175.2750  142.2460 N   0  0  0  0  0  0  0  0  0  0  0  0
  188.5720  175.3400  144.6370 C   0  0  2  0  0  3  0  0  0  0  0  0
  187.2010  177.1200  143.4410 N   0  0  0  0  0  2  0  0  0  0  0  0
  190.4850  172.5220  143.0910 C   0  0  0  0  0  3  0  0  0  0  0  0
  193.4620  175.5680  146.2780 C   0  0  0  0  0  3  0  0  0  0  0  0
  188.8810  174.0720  142.1400 C   0  0  0  0  0  0  0  0  0  0  0  0
  188.8060  173.2880  140.9860 C   0  0  0  0  0  3  0  0  0  0  0  0
  188.7430  176.3660  145.7670 C   0  0  0  0  0  2  0  0  0  0  0  0
  191.1850  176.1240  145.6660 C   0  0  0  0  0  0  0  0  0  0  0  0
  192.3900  176.4630  146.2890 C   0  0  0  0  0  3  0  0  0  0  0  0
  184.4490  179.0630  145.1990 C   0  0  1  0  0  3  0  0  0  0  0  0
  186.3550  179.8400  143.7590 C   0  0  0  0  0  2  0  0  0  0  0  0
  183.6810  178.0780  141.5530 C   0  0  0  0  0  1  0  0  0  0  0  0
  184.0950  178.4000  146.5130 C   0  0  0  0  0  1  0  0  0  0  0  0
  185.9660  179.1930  145.0900 C   0  0  0  0  0  2  0  0  0  0  0  0
  184.2730  178.8650  142.7100 C   0  0  2  0  0  3  0  0  0  0  0  0
  185.7950  179.0560  142.5680 C   0  0  2  0  0  3  0  0  0  0  0  0
  183.9000  178.2270  144.0470 C   0  0  0  0  0  2  0  0  0  0  0  0
  1 17  1  0  0  0  0
  2 15  1  0  0  0  0
  2  3  1  0  0  0  0
  3 22  1  0  0  0  0
  4  5  2  0  0  0  0
  5 16  1  0  0  0  0
  6 18  2  0  0  0  0
  7  2  1  0  0  0  0
  8 20  1  0  0  0  0
  8  1  2  0  0  0  0
  9  3  2  0  0  0  0
  9  6  1  0  0  0  0
 10 16  1  0  0  0  0
 10 15  1  0  0  0  0
 11  1  1  0  0  0  0
 12 22  1  0  0  0  0
 12 21  1  0  0  0  0
 13  6  1  0  0  0  0
 14 10  2  0  0  0  0
 15 21  1  1  0  0  0
 17  7  2  0  0  0  0
 18 23  1  0  0  0  0
 19 14  1  0  0  0  0
 19  7  1  0  0  0  0
 20 19  2  0  0  0  0
 22 23  2  0  0  0  0
 24 27  1  1  0  0  0
 25 28  1  0  0  0  0
 28 24  1  0  0  0  0
 29 26  1  6  0  0  0
 29 31  1  0  0  0  0
 30  5  1  1  0  0  0
 30 29  1  0  0  0  0
 30 25  1  0  0  0  0
 31 24  1  0  0  0  0
M  END
>  <MODEL>
8

>  <REMARK>
 VINA RESULT:      -8.1      2.835      7.252
  Name = 
  1 active torsions:
  status: ('A' for Active; 'I' for Inactive)
    1  A    between atoms: C_5  and  C_30
                            x       y       z     vdW  Elec       q    Type
                         _______ _______ _______ _____ _____    ______ ____

>  <TORSDO>
F 1

$$$$
=
 OpenBabel11112417003D

 31 35  0  0  1  0  0  0  0  0999 V2000
  192.3220  169.5600  142.9680 C   0  0  0  0  0  0  0  0  0  0  0  0
  192.4460  172.7970  144.8880 N   0  0  0  0  0  0  0  0  0  0  0  0
  193.8260  173.0760  145.2360 C   0  0  0  0  0  0  0  0  0  0  0  0
  188.9770  175.3500  141.8750 O   0  0  0  0  0  0  0  0  0  0  0  0
  189.1610  176.0020  142.9370 C   0  0  0  0  0  0  0  0  0  0  0  0
  196.1350  172.3690  145.5390 C   0  0  0  0  0  0  0  0  0  0  0  0
  192.0840  171.7710  143.9400 C   0  0  0  0  0  0  0  0  0  0  0  0
  191.3310  169.8630  142.0280 C   0  0  0  0  0  3  0  0  0  0  0  0
  194.8110  172.0770  145.2000 C   0  0  0  0  0  3  0  0  0  0  0  0
  190.6060  174.1860  144.0120 C   0  0  0  0  0  0  0  0  0  0  0  0
  192.9220  168.3460  142.9510 F   0  0  0  0  0  0  0  0  0  0  0  0
  193.1770  175.4690  145.6240 C   0  0  0  0  0  2  0  0  0  0  0  0
  197.1650  171.2990  145.4960 C   0  0  0  0  0  1  0  0  0  0  0  0
  190.4430  173.3490  143.0250 N   0  0  0  0  0  0  0  0  0  0  0  0
  191.3720  173.7490  145.2420 C   0  0  2  0  0  3  0  0  0  0  0  0
  189.9470  175.4580  144.0050 N   0  0  0  0  0  2  0  0  0  0  0  0
  192.6990  170.5110  143.9200 C   0  0  0  0  0  3  0  0  0  0  0  0
  196.4910  173.6670  145.9130 C   0  0  0  0  0  3  0  0  0  0  0  0
  191.0750  172.0630  143.0050 C   0  0  0  0  0  0  0  0  0  0  0  0
  190.7090  171.1140  142.0460 C   0  0  0  0  0  3  0  0  0  0  0  0
  191.8480  174.9180  146.1160 C   0  0  0  0  0  2  0  0  0  0  0  0
  194.1930  174.3780  145.6260 C   0  0  0  0  0  0  0  0  0  0  0  0
  195.5210  174.6710  145.9510 C   0  0  0  0  0  3  0  0  0  0  0  0
  186.3470  177.4310  145.0110 C   0  0  1  0  0  3  0  0  0  0  0  0
  188.7470  177.9400  144.4730 C   0  0  0  0  0  2  0  0  0  0  0  0
  186.8680  176.9080  141.2290 C   0  0  0  0  0  1  0  0  0  0  0  0
  185.4320  176.7440  146.0020 C   0  0  0  0  0  1  0  0  0  0  0  0
  187.7960  177.2750  145.4680 C   0  0  0  0  0  2  0  0  0  0  0  0
  187.0920  177.4710  142.6220 C   0  0  2  0  0  3  0  0  0  0  0  0
  188.5660  177.3770  143.0590 C   0  0  2  0  0  3  0  0  0  0  0  0
  186.1530  176.8110  143.6300 C   0  0  0  0  0  2  0  0  0  0  0  0
  1 17  1  0  0  0  0
  2  3  1  0  0  0  0
  2 15  1  0  0  0  0
  3 22  1  0  0  0  0
  4  5  2  0  0  0  0
  5 16  1  0  0  0  0
  6 18  2  0  0  0  0
  7  2  1  0  0  0  0
  8 20  1  0  0  0  0
  8  1  2  0  0  0  0
  9  3  2  0  0  0  0
  9  6  1  0  0  0  0
 10 15  1  0  0  0  0
 11  1  1  0  0  0  0
 12 22  1  0  0  0  0
 12 21  1  0  0  0  0
 13  6  1  0  0  0  0
 14 10  2  0  0  0  0
 15 21  1  6  0  0  0
 16 10  1  0  0  0  0
 17  7  2  0  0  0  0
 18 23  1  0  0  0  0
 19 14  1  0  0  0  0
 19  7  1  0  0  0  0
 20 19  2  0  0  0  0
 22 23  2  0  0  0  0
 24 28  1  0  0  0  0
 24 27  1  1  0  0  0
 25 28  1  0  0  0  0
 29 26  1  6  0  0  0
 29 30  1  0  0  0  0
 29 31  1  0  0  0  0
 30  5  1  1  0  0  0
 30 25  1  0  0  0  0
 31 24  1  0  0  0  0
M  END
>  <MODEL>
9

>  <REMARK>
 VINA RESULT:      -8.1      3.395      8.087
  Name = 
  1 active torsions:
  status: ('A' for Active; 'I' for Inactive)
    1  A    between atoms: C_5  and  C_30
                            x       y       z     vdW  Elec       q    Type
                         _______ _______ _______ _____ _____    ______ ____

>  <TORSDO>
F 1

$$$$
