=
 OpenBabel11112418053D

 34 40  0  0  1  0  0  0  0  0999 V2000
  189.5260  174.7630  142.9950 C   0  0  1  0  0  3  0  0  0  0  0  0
  191.7720  173.8390  143.0980 C   0  0  0  0  0  2  0  0  0  0  0  0
  185.5450  179.2770  145.1170 C   0  0  0  0  0  0  0  0  0  0  0  0
  187.2940  175.9160  142.9210 C   0  0  2  0  0  3  0  0  0  0  0  0
  186.3410  176.8560  145.0900 C   0  0  2  0  0  3  0  0  0  0  0  0
  185.5050  177.9340  147.2770 C   0  0  0  0  0  1  0  0  0  0  0  0
  186.1780  180.1690  145.6600 O   0  0  0  0  0  0  0  0  0  0  0  0
  184.1810  178.2910  143.2440 C   0  0  0  0  0  2  0  0  0  0  0  0
  190.7260  174.5070  144.9950 C   0  0  2  0  0  3  0  0  0  0  0  0
  192.3160  175.7550  147.4880 C   0  0  0  0  0  2  0  0  0  0  0  0
  187.7490  176.8630  145.6960 C   0  0  0  0  0  2  0  0  0  0  0  0
  185.0700  177.1000  142.8430 C   0  0  0  0  0  2  0  0  0  0  0  0
  189.9460  175.5870  145.7660 C   0  0  1  0  0  3  0  0  0  0  0  0
  192.7980  173.6260  144.2070 C   0  0  0  0  0  2  0  0  0  0  0  0
  186.4330  177.0210  143.5490 C   0  0  2  0  0  3  0  0  0  0  0  0
  184.9460  179.5170  143.7560 C   0  0  0  0  0  2  0  0  0  0  0  0
  192.9000  175.3090  146.1340 C   0  0  1  0  0  3  0  0  0  0  0  0
  188.6670  175.8770  143.6060 C   0  0  1  0  0  3  0  0  0  0  0  0
  185.4360  177.9130  145.7550 C   0  0  1  0  0  3  0  0  0  0  0  0
  188.5500  175.6980  145.1260 C   0  0  2  0  0  3  0  0  0  0  0  0
  188.1090  175.0510  140.9800 C   0  0  0  0  0  2  0  0  0  0  0  0
  191.1300  174.9160  147.9720 C   0  0  0  0  0  2  0  0  0  0  0  0
  187.4760  176.1760  141.5450 O   0  0  0  0  0  0  0  0  0  0  0  0
  189.8150  175.2640  147.2630 C   0  0  0  0  0  2  0  0  0  0  0  0
  192.1250  174.1430  145.4690 C   0  0  1  0  0  3  0  0  0  0  0  0
  189.5530  174.9490  141.4780 C   0  0  0  0  0  2  0  0  0  0  0  0
  190.8580  174.8610  143.5890 N   0  0  2  0  0  0  0  0  0  0  0  0
  193.0560  176.5390  145.2420 C   0  0  0  0  0  2  0  0  0  0  0  0
  194.4070  176.8410  145.0570 O   0  0  0  0  0  0  0  0  0  0  0  0
  196.4460  176.7730  142.7020 O   0  0  0  0  0  0  0  0  0  0  0  0
  196.2580  175.4290  144.6380 C   0  0  0  0  0  2  0  0  0  0  0  0
  194.8800  175.8400  144.2070 C   0  0  2  0  0  3  0  0  0  0  0  0
  197.1440  175.8440  143.4870 C   0  0  0  0  0  2  0  0  0  0  0  0
  195.0970  176.4160  142.8260 C   0  0  0  0  0  2  0  0  0  0  0  0
  1 26  1  6  0  0  0
  1 27  1  0  0  0  0
  1 18  1  0  0  0  0
  2 27  1  0  0  0  0
  2 14  1  0  0  0  0
  3  7  2  0  0  0  0
  3 19  1  0  0  0  0
  4 23  1  6  0  0  0
  4 15  1  0  0  0  0
  4 18  1  0  0  0  0
  5 11  1  1  0  0  0
  5 19  1  0  0  0  0
  8 16  1  0  0  0  0
  9 25  1  0  0  0  0
  9 13  1  0  0  0  0
 10 22  1  0  0  0  0
 12  8  1  0  0  0  0
 12 15  1  0  0  0  0
 13 24  1  0  0  0  0
 14 25  1  0  0  0  0
 15  5  1  0  0  0  0
 16  3  1  0  0  0  0
 17 10  1  0  0  0  0
 18 20  1  0  0  0  0
 19  6  1  0  0  0  0
 20 11  1  0  0  0  0
 20 13  1  0  0  0  0
 21 26  1  0  0  0  0
 21 23  1  0  0  0  0
 24 22  1  0  0  0  0
 25 17  1  0  0  0  0
 27  9  1  0  0  0  0
 28 17  1  0  0  0  0
 29 28  1  0  0  0  0
 30 34  1  0  0  0  0
 30 33  1  0  0  0  0
 32 31  1  0  0  0  0
 32 29  1  0  0  0  0
 33 31  1  0  0  0  0
 34 32  1  0  0  0  0
M  END
>  <MODEL>
1

>  <REMARK>
 VINA RESULT:      -8.4      0.000      0.000
  Name = 
  3 active torsions:
  status: ('A' for Active; 'I' for Inactive)
    1  A    between atoms: C_17  and  C_28
    2  A    between atoms: C_28  and  O_29
    3  A    between atoms: O_29  and  C_32
                            x       y       z     vdW  Elec       q    Type
                         _______ _______ _______ _____ _____    ______ ____

>  <TORSDO>
F 3

$$$$
=
 OpenBabel11112418053D

 34 40  0  0  1  0  0  0  0  0999 V2000
  192.4140  176.3730  146.3020 C   0  0  1  0  0  3  0  0  0  0  0  0
  194.6190  175.3550  146.4150 C   0  0  0  0  0  2  0  0  0  0  0  0
  186.8100  176.5640  143.2560 C   0  0  0  0  0  0  0  0  0  0  0  0
  190.0600  177.2320  146.1140 C   0  0  2  0  0  3  0  0  0  0  0  0
  189.0810  177.5900  143.7880 C   0  0  2  0  0  3  0  0  0  0  0  0
  188.0850  177.7730  141.4180 C   0  0  0  0  0  1  0  0  0  0  0  0
  186.6860  175.5760  142.5490 O   0  0  0  0  0  0  0  0  0  0  0  0
  186.2940  177.9750  145.2780 C   0  0  0  0  0  2  0  0  0  0  0  0
  193.7290  175.9270  144.4100 C   0  0  2  0  0  3  0  0  0  0  0  0
  194.3080  174.2580  141.7310 C   0  0  0  0  0  2  0  0  0  0  0  0
  190.1290  176.6330  143.2090 C   0  0  0  0  0  2  0  0  0  0  0  0
  187.6880  178.0630  145.9240 C   0  0  0  0  0  2  0  0  0  0  0  0
  192.5470  175.8810  143.4250 C   0  0  1  0  0  3  0  0  0  0  0  0
  195.6440  174.8910  145.3840 C   0  0  0  0  0  2  0  0  0  0  0  0
  188.7830  177.2100  145.2640 C   0  0  2  0  0  3  0  0  0  0  0  0
  186.0170  176.6640  144.5330 C   0  0  0  0  0  2  0  0  0  0  0  0
  194.8110  173.9480  143.1540 C   0  0  1  0  0  3  0  0  0  0  0  0
  191.1290  176.3410  145.4660 C   0  0  1  0  0  3  0  0  0  0  0  0
  187.8130  177.6370  142.9120 C   0  0  1  0  0  3  0  0  0  0  0  0
  191.4170  176.7470  144.0140 C   0  0  2  0  0  3  0  0  0  0  0  0
  190.9280  176.9550  148.2000 C   0  0  0  0  0  2  0  0  0  0  0  0
  194.1800  175.7510  141.4170 C   0  0  0  0  0  2  0  0  0  0  0  0
  189.7810  176.7440  147.4090 O   0  0  0  0  0  0  0  0  0  0  0  0
  192.9250  176.3900  142.0260 C   0  0  0  0  0  2  0  0  0  0  0  0
  195.0150  175.2060  144.0350 C   0  0  1  0  0  3  0  0  0  0  0  0
  192.0610  176.0290  147.7490 C   0  0  0  0  0  2  0  0  0  0  0  0
  193.3430  175.4080  145.7150 N   0  0  2  0  0  0  0  0  0  0  0  0
  193.8950  172.8960  143.7760 C   0  0  0  0  0  2  0  0  0  0  0  0
  192.9600  172.4470  142.8410 O   0  0  0  0  0  0  0  0  0  0  0  0
  190.0560  173.0320  143.8060 O   0  0  0  0  0  0  0  0  0  0  0  0
  190.9750  171.1700  142.6770 C   0  0  0  0  0  2  0  0  0  0  0  0
  192.0220  171.7370  143.5920 C   0  0  2  0  0  3  0  0  0  0  0  0
  189.7080  171.8860  143.0760 C   0  0  0  0  0  2  0  0  0  0  0  0
  191.2470  172.6980  144.4640 C   0  0  0  0  0  2  0  0  0  0  0  0
  1 26  1  1  0  0  0
  3 16  1  0  0  0  0
  4 23  1  1  0  0  0
  5 11  1  6  0  0  0
  5 15  1  0  0  0  0
  6 19  1  0  0  0  0
  7  3  2  0  0  0  0
  8 12  1  0  0  0  0
  9 27  1  0  0  0  0
 10 17  1  0  0  0  0
 11 20  1  0  0  0  0
 13 20  1  0  0  0  0
 13  9  1  0  0  0  0
 14  2  1  0  0  0  0
 15 12  1  0  0  0  0
 15  4  1  0  0  0  0
 16  8  1  0  0  0  0
 17 28  1  0  0  0  0
 17 25  1  0  0  0  0
 18  4  1  0  0  0  0
 18  1  1  0  0  0  0
 19  3  1  0  0  0  0
 19  5  1  0  0  0  0
 20 18  1  0  0  0  0
 22 10  1  0  0  0  0
 22 24  1  0  0  0  0
 23 21  1  0  0  0  0
 24 13  1  0  0  0  0
 25  9  1  0  0  0  0
 25 14  1  0  0  0  0
 26 21  1  0  0  0  0
 27  1  1  0  0  0  0
 27  2  1  0  0  0  0
 29 32  1  0  0  0  0
 29 28  1  0  0  0  0
 30 34  1  0  0  0  0
 31 33  1  0  0  0  0
 31 32  1  0  0  0  0
 32 34  1  0  0  0  0
 33 30  1  0  0  0  0
M  END
>  <MODEL>
2

>  <REMARK>
 VINA RESULT:      -8.3      2.330      5.077
  Name = 
  3 active torsions:
  status: ('A' for Active; 'I' for Inactive)
    1  A    between atoms: C_17  and  C_28
    2  A    between atoms: C_28  and  O_29
    3  A    between atoms: O_29  and  C_32
                            x       y       z     vdW  Elec       q    Type
                         _______ _______ _______ _____ _____    ______ ____

>  <TORSDO>
F 3

$$$$
=
 OpenBabel11112418053D

 34 40  0  0  1  0  0  0  0  0999 V2000
  192.3810  176.5160  146.3310 C   0  0  1  0  0  3  0  0  0  0  0  0
  194.6170  175.5770  146.4950 C   0  0  0  0  0  2  0  0  0  0  0  0
  186.8160  176.4500  143.2070 C   0  0  0  0  0  0  0  0  0  0  0  0
  190.0010  177.2890  146.0940 C   0  0  2  0  0  3  0  0  0  0  0  0
  189.0430  177.5650  143.7480 C   0  0  2  0  0  3  0  0  0  0  0  0
  188.0750  177.6650  141.3610 C   0  0  0  0  0  1  0  0  0  0  0  0
  186.7370  175.4440  142.5190 O   0  0  0  0  0  0  0  0  0  0  0  0
  186.2240  177.8830  145.1920 C   0  0  0  0  0  2  0  0  0  0  0  0
  193.7360  176.0770  144.4670 C   0  0  2  0  0  3  0  0  0  0  0  0
  194.4100  174.3750  141.8310 C   0  0  0  0  0  2  0  0  0  0  0  0
  190.1310  176.6330  143.2030 C   0  0  0  0  0  2  0  0  0  0  0  0
  187.6050  178.0330  145.8540 C   0  0  0  0  0  2  0  0  0  0  0  0
  192.5700  175.9700  143.4670 C   0  0  1  0  0  3  0  0  0  0  0  0
  195.6720  175.1280  145.4880 C   0  0  0  0  0  2  0  0  0  0  0  0
  188.7370  177.2050  145.2270 C   0  0  2  0  0  3  0  0  0  0  0  0
  186.0020  176.5480  144.4700 C   0  0  0  0  0  2  0  0  0  0  0  0
  194.9030  174.1120  143.2660 C   0  0  1  0  0  3  0  0  0  0  0  0
  191.1090  176.4230  145.4790 C   0  0  1  0  0  3  0  0  0  0  0  0
  187.7870  177.5500  142.8530 C   0  0  1  0  0  3  0  0  0  0  0  0
  191.4030  176.8080  144.0220 C   0  0  2  0  0  3  0  0  0  0  0  0
  190.8480  177.0850  148.1970 C   0  0  0  0  0  2  0  0  0  0  0  0
  194.2350  175.8560  141.4840 C   0  0  0  0  0  2  0  0  0  0  0  0
  189.7200  176.8180  147.3950 O   0  0  0  0  0  0  0  0  0  0  0  0
  192.9510  176.4630  142.0620 C   0  0  0  0  0  2  0  0  0  0  0  0
  195.0510  175.3940  144.1240 C   0  0  1  0  0  3  0  0  0  0  0  0
  192.0190  176.1890  147.7800 C   0  0  0  0  0  2  0  0  0  0  0  0
  193.3500  175.5720  145.7770 N   0  0  2  0  0  0  0  0  0  0  0  0
  194.0150  173.0420  143.8980 C   0  0  0  0  0  2  0  0  0  0  0  0
  194.6960  171.8240  143.9750 O   0  0  0  0  0  0  0  0  0  0  0  0
  195.6280  169.3780  145.6650 O   0  0  0  0  0  0  0  0  0  0  0  0
  196.2810  171.6500  145.7220 C   0  0  0  0  0  2  0  0  0  0  0  0
  194.8300  171.5800  145.3430 C   0  0  2  0  0  3  0  0  0  0  0  0
  196.6180  170.2430  146.1550 C   0  0  0  0  0  2  0  0  0  0  0  0
  194.4560  170.1450  145.6350 C   0  0  0  0  0  2  0  0  0  0  0  0
  1 26  1  1  0  0  0
  3 16  1  0  0  0  0
  4 23  1  1  0  0  0
  5 11  1  6  0  0  0
  5 15  1  0  0  0  0
  6 19  1  0  0  0  0
  7  3  2  0  0  0  0
  8 12  1  0  0  0  0
  9 27  1  0  0  0  0
 10 17  1  0  0  0  0
 11 20  1  0  0  0  0
 13 20  1  0  0  0  0
 13  9  1  0  0  0  0
 14  2  1  0  0  0  0
 15 12  1  0  0  0  0
 15  4  1  0  0  0  0
 16  8  1  0  0  0  0
 17 28  1  0  0  0  0
 17 25  1  0  0  0  0
 18  4  1  0  0  0  0
 18  1  1  0  0  0  0
 19  3  1  0  0  0  0
 19  5  1  0  0  0  0
 20 18  1  0  0  0  0
 22 10  1  0  0  0  0
 22 24  1  0  0  0  0
 23 21  1  0  0  0  0
 24 13  1  0  0  0  0
 25  9  1  0  0  0  0
 25 14  1  0  0  0  0
 26 21  1  0  0  0  0
 27  1  1  0  0  0  0
 27  2  1  0  0  0  0
 28 29  1  0  0  0  0
 29 32  1  0  0  0  0
 30 33  1  0  0  0  0
 31 33  1  0  0  0  0
 32 34  1  0  0  0  0
 32 31  1  0  0  0  0
 34 30  1  0  0  0  0
M  END
>  <MODEL>
3

>  <REMARK>
 VINA RESULT:      -8.0      2.765      4.943
  Name = 
  3 active torsions:
  status: ('A' for Active; 'I' for Inactive)
    1  A    between atoms: C_17  and  C_28
    2  A    between atoms: C_28  and  O_29
    3  A    between atoms: O_29  and  C_32
                            x       y       z     vdW  Elec       q    Type
                         _______ _______ _______ _____ _____    ______ ____

>  <TORSDO>
F 3

$$$$
=
 OpenBabel11112418053D

 34 40  0  0  1  0  0  0  0  0999 V2000
  190.5160  174.8920  142.3500 C   0  0  1  0  0  3  0  0  0  0  0  0
  189.2960  176.8770  143.0440 C   0  0  0  0  0  2  0  0  0  0  0  0
  193.1120  169.3550  144.1730 C   0  0  0  0  0  0  0  0  0  0  0  0
  191.6660  172.7300  141.7860 C   0  0  2  0  0  3  0  0  0  0  0  0
  193.3560  171.7840  143.4440 C   0  0  2  0  0  3  0  0  0  0  0  0
  194.9260  170.7910  145.2300 C   0  0  0  0  0  1  0  0  0  0  0  0
  192.6910  169.0400  145.2750 O   0  0  0  0  0  0  0  0  0  0  0  0
  193.2690  169.1450  141.6680 C   0  0  0  0  0  2  0  0  0  0  0  0
  190.9780  176.0650  144.3290 C   0  0  2  0  0  3  0  0  0  0  0  0
  190.9530  176.2780  147.5310 C   0  0  0  0  0  2  0  0  0  0  0  0
  192.7230  172.6300  144.5570 C   0  0  0  0  0  2  0  0  0  0  0  0
  192.7960  170.5440  141.2360 C   0  0  0  0  0  2  0  0  0  0  0  0
  191.6390  174.8750  145.0470 C   0  0  1  0  0  3  0  0  0  0  0  0
  189.3200  177.7800  144.2740 C   0  0  0  0  0  2  0  0  0  0  0  0
  192.2870  171.4520  142.3680 C   0  0  2  0  0  3  0  0  0  0  0  0
  192.6210  168.6190  142.9540 C   0  0  0  0  0  2  0  0  0  0  0  0
  189.8570  176.7440  146.5540 C   0  0  1  0  0  3  0  0  0  0  0  0
  191.1230  173.6050  142.9230 C   0  0  1  0  0  3  0  0  0  0  0  0
  194.0470  170.5290  144.0130 C   0  0  1  0  0  3  0  0  0  0  0  0
  192.2010  173.9330  143.9660 C   0  0  2  0  0  3  0  0  0  0  0  0
  190.1880  173.5750  140.2740 C   0  0  0  0  0  2  0  0  0  0  0  0
  192.3800  176.4160  146.9940 C   0  0  0  0  0  2  0  0  0  0  0  0
  190.6020  172.3930  140.9200 O   0  0  0  0  0  0  0  0  0  0  0  0
  192.7610  175.3110  146.0010 C   0  0  0  0  0  2  0  0  0  0  0  0
  190.3980  177.1910  145.1720 C   0  0  1  0  0  3  0  0  0  0  0  0
  189.5010  174.5110  141.2720 C   0  0  0  0  0  2  0  0  0  0  0  0
  189.8990  175.6180  143.4590 N   0  0  2  0  0  0  0  0  0  0  0  0
  188.7790  175.6650  146.4790 C   0  0  0  0  0  2  0  0  0  0  0  0
  187.6660  176.0320  147.2390 O   0  0  0  0  0  0  0  0  0  0  0  0
  184.8180  177.0000  146.4260 O   0  0  0  0  0  0  0  0  0  0  0  0
  186.5430  178.0760  147.6330 C   0  0  0  0  0  2  0  0  0  0  0  0
  187.1690  177.1750  146.6090 C   0  0  2  0  0  3  0  0  0  0  0  0
  185.0790  178.0940  147.2640 C   0  0  0  0  0  2  0  0  0  0  0  0
  186.0100  176.7910  145.7190 C   0  0  0  0  0  2  0  0  0  0  0  0
  1 26  1  6  0  0  0
  1 18  1  0  0  0  0
  1 27  1  0  0  0  0
  2 27  1  0  0  0  0
  2 14  1  0  0  0  0
  3  7  2  0  0  0  0
  4 23  1  6  0  0  0
  4 15  1  0  0  0  0
  4 18  1  0  0  0  0
  5 19  1  0  0  0  0
  5 11  1  1  0  0  0
  8 16  1  0  0  0  0
  9 13  1  0  0  0  0
  9 25  1  0  0  0  0
 12  8  1  0  0  0  0
 12 15  1  0  0  0  0
 13 24  1  0  0  0  0
 14 25  1  0  0  0  0
 15  5  1  0  0  0  0
 16  3  1  0  0  0  0
 17 10  1  0  0  0  0
 18 20  1  0  0  0  0
 19  3  1  0  0  0  0
 19  6  1  0  0  0  0
 20 11  1  0  0  0  0
 20 13  1  0  0  0  0
 21 23  1  0  0  0  0
 21 26  1  0  0  0  0
 22 10  1  0  0  0  0
 24 22  1  0  0  0  0
 25 17  1  0  0  0  0
 27  9  1  0  0  0  0
 28 17  1  0  0  0  0
 28 29  1  0  0  0  0
 30 33  1  0  0  0  0
 32 29  1  0  0  0  0
 32 31  1  0  0  0  0
 33 31  1  0  0  0  0
 34 30  1  0  0  0  0
 34 32  1  0  0  0  0
M  END
>  <MODEL>
4

>  <REMARK>
 VINA RESULT:      -7.7      2.879      7.822
  Name = 
  3 active torsions:
  status: ('A' for Active; 'I' for Inactive)
    1  A    between atoms: C_17  and  C_28
    2  A    between atoms: C_28  and  O_29
    3  A    between atoms: O_29  and  C_32
                            x       y       z     vdW  Elec       q    Type
                         _______ _______ _______ _____ _____    ______ ____

>  <TORSDO>
F 3

$$$$
=
 OpenBabel11112418053D

 34 40  0  0  1  0  0  0  0  0999 V2000
  192.6680  175.4910  145.1910 C   0  0  1  0  0  3  0  0  0  0  0  0
  190.5880  176.0160  146.3340 C   0  0  0  0  0  2  0  0  0  0  0  0
  195.6350  174.9230  139.5700 C   0  0  0  0  0  0  0  0  0  0  0  0
  194.7620  175.0960  143.8580 C   0  0  2  0  0  3  0  0  0  0  0  0
  194.5690  173.8700  141.6310 C   0  0  2  0  0  3  0  0  0  0  0  0
  194.2940  172.7770  139.3140 C   0  0  0  0  0  1  0  0  0  0  0  0
  194.9770  175.4630  138.6950 O   0  0  0  0  0  0  0  0  0  0  0  0
  197.5890  174.7550  141.1520 C   0  0  0  0  0  2  0  0  0  0  0  0
  190.5690  174.7400  144.4600 C   0  0  2  0  0  3  0  0  0  0  0  0
  188.1460  174.8090  142.3570 C   0  0  0  0  0  2  0  0  0  0  0  0
  193.0790  174.2290  141.5730 C   0  0  0  0  0  2  0  0  0  0  0  0
  196.8560  174.7270  142.5050 C   0  0  0  0  0  2  0  0  0  0  0  0
  190.9960  174.5330  142.9960 C   0  0  1  0  0  3  0  0  0  0  0  0
  189.1110  175.7400  146.0620 C   0  0  0  0  0  2  0  0  0  0  0  0
  195.3360  174.9490  142.4420 C   0  0  2  0  0  3  0  0  0  0  0  0
  196.8940  175.5850  140.0650 C   0  0  0  0  0  2  0  0  0  0  0  0
  188.2990  175.6540  143.6350 C   0  0  1  0  0  3  0  0  0  0  0  0
  193.2520  175.3610  143.7790 C   0  0  1  0  0  3  0  0  0  0  0  0
  195.1530  173.6500  140.2220 C   0  0  1  0  0  3  0  0  0  0  0  0
  192.5140  174.2730  142.9870 C   0  0  2  0  0  3  0  0  0  0  0  0
  194.9610  176.1590  145.8610 C   0  0  0  0  0  2  0  0  0  0  0  0
  188.7300  173.3970  142.4590 C   0  0  0  0  0  2  0  0  0  0  0  0
  195.3830  176.1790  144.5170 O   0  0  0  0  0  0  0  0  0  0  0  0
  190.2570  173.3640  142.3260 C   0  0  0  0  0  2  0  0  0  0  0  0
  189.0930  174.9480  144.7630 C   0  0  1  0  0  3  0  0  0  0  0  0
  193.4800  176.5360  145.9580 C   0  0  0  0  0  2  0  0  0  0  0  0
  191.2640  175.8740  145.0530 N   0  0  2  0  0  0  0  0  0  0  0  0
  188.8550  177.0240  143.2500 C   0  0  0  0  0  2  0  0  0  0  0  0
  188.2990  178.0210  144.0530 O   0  0  0  0  0  0  0  0  0  0  0  0
  185.8060  179.5250  145.1650 O   0  0  0  0  0  0  0  0  0  0  0  0
  186.3500  178.8190  142.9750 C   0  0  0  0  0  2  0  0  0  0  0  0
  186.9200  177.8300  143.9500 C   0  0  2  0  0  3  0  0  0  0  0  0
  185.4540  179.6940  143.8190 C   0  0  0  0  0  2  0  0  0  0  0  0
  186.2630  178.2030  145.2590 C   0  0  0  0  0  2  0  0  0  0  0  0
  1 26  1  1  0  0  0
  3 16  1  0  0  0  0
  3 19  1  0  0  0  0
  4 23  1  6  0  0  0
  5 11  1  6  0  0  0
  5 15  1  0  0  0  0
  6 19  1  0  0  0  0
  7  3  2  0  0  0  0
  8 12  1  0  0  0  0
  9 25  1  0  0  0  0
  9 27  1  0  0  0  0
 10 22  1  0  0  0  0
 10 17  1  0  0  0  0
 11 20  1  0  0  0  0
 13  9  1  0  0  0  0
 14  2  1  0  0  0  0
 15 12  1  0  0  0  0
 15  4  1  0  0  0  0
 16  8  1  0  0  0  0
 17 25  1  0  0  0  0
 18  4  1  0  0  0  0
 18  1  1  0  0  0  0
 19  5  1  0  0  0  0
 20 13  1  0  0  0  0
 20 18  1  0  0  0  0
 21 26  1  0  0  0  0
 23 21  1  0  0  0  0
 24 22  1  0  0  0  0
 24 13  1  0  0  0  0
 25 14  1  0  0  0  0
 27  1  1  0  0  0  0
 27  2  1  0  0  0  0
 28 17  1  0  0  0  0
 28 29  1  0  0  0  0
 30 34  1  0  0  0  0
 31 33  1  0  0  0  0
 31 32  1  0  0  0  0
 32 29  1  0  0  0  0
 32 34  1  0  0  0  0
 33 30  1  0  0  0  0
M  END
>  <MODEL>
5

>  <REMARK>
 VINA RESULT:      -7.6      2.092      8.496
  Name = 
  3 active torsions:
  status: ('A' for Active; 'I' for Inactive)
    1  A    between atoms: C_17  and  C_28
    2  A    between atoms: C_28  and  O_29
    3  A    between atoms: O_29  and  C_32
                            x       y       z     vdW  Elec       q    Type
                         _______ _______ _______ _____ _____    ______ ____

>  <TORSDO>
F 3

$$$$
=
 OpenBabel11112418053D

 34 40  0  0  1  0  0  0  0  0999 V2000
  189.6290  174.1490  141.2830 C   0  0  1  0  0  3  0  0  0  0  0  0
  187.7970  175.7470  141.3000 C   0  0  0  0  0  2  0  0  0  0  0  0
  194.3280  171.4310  144.6380 C   0  0  0  0  0  0  0  0  0  0  0  0
  191.4770  172.4570  141.4750 C   0  0  2  0  0  3  0  0  0  0  0  0
  193.5390  173.0630  142.8470 C   0  0  2  0  0  3  0  0  0  0  0  0
  195.5210  173.6620  144.3800 C   0  0  0  0  0  1  0  0  0  0  0  0
  194.1600  171.6350  145.8300 O   0  0  0  0  0  0  0  0  0  0  0  0
  194.3350  169.9930  142.5700 C   0  0  0  0  0  2  0  0  0  0  0  0
  189.7670  176.2610  142.2960 C   0  0  2  0  0  3  0  0  0  0  0  0
  189.9390  178.1040  144.9180 C   0  0  0  0  0  2  0  0  0  0  0  0
  192.7270  174.1390  143.5770 C   0  0  0  0  0  2  0  0  0  0  0  0
  193.3180  170.7490  141.6960 C   0  0  0  0  0  2  0  0  0  0  0  0
  190.8990  175.8770  143.2660 C   0  0  1  0  0  3  0  0  0  0  0  0
  187.5730  177.1220  141.9230 C   0  0  0  0  0  2  0  0  0  0  0  0
  192.5960  171.9220  142.3800 C   0  0  2  0  0  3  0  0  0  0  0  0
  194.0580  170.0600  144.0760 C   0  0  0  0  0  2  0  0  0  0  0  0
  188.6680  177.6460  144.1780 C   0  0  1  0  0  3  0  0  0  0  0  0
  190.7370  173.5970  142.1880 C   0  0  1  0  0  3  0  0  0  0  0  0
  194.7120  172.5580  143.7110 C   0  0  1  0  0  3  0  0  0  0  0  0
  191.6880  174.7200  142.6260 C   0  0  2  0  0  3  0  0  0  0  0  0
  189.6620  171.9100  140.2160 C   0  0  0  0  0  2  0  0  0  0  0  0
  191.1470  178.3480  144.0080 C   0  0  0  0  0  2  0  0  0  0  0  0
  190.5590  171.4240  141.1880 O   0  0  0  0  0  0  0  0  0  0  0  0
  191.8410  177.0530  143.5670 C   0  0  0  0  0  2  0  0  0  0  0  0
  188.8700  177.4350  142.6560 C   0  0  1  0  0  3  0  0  0  0  0  0
  188.7530  172.9830  140.8220 C   0  0  0  0  0  2  0  0  0  0  0  0
  188.8770  175.1330  142.0600 N   0  0  2  0  0  0  0  0  0  0  0  0
  188.0940  176.4300  144.9020 C   0  0  0  0  0  2  0  0  0  0  0  0
  186.7110  176.5570  145.0510 O   0  0  0  0  0  0  0  0  0  0  0  0
  184.2200  178.2280  145.8950 O   0  0  0  0  0  0  0  0  0  0  0  0
  186.2810  177.8450  146.9880 C   0  0  0  0  0  2  0  0  0  0  0  0
  186.5230  177.8640  145.5070 C   0  0  2  0  0  3  0  0  0  0  0  0
  184.8620  178.3410  147.1360 C   0  0  0  0  0  2  0  0  0  0  0  0
  185.2320  178.4090  144.9430 C   0  0  0  0  0  2  0  0  0  0  0  0
  1 26  1  1  0  0  0
  1 27  1  0  0  0  0
  1 18  1  0  0  0  0
  2 14  1  0  0  0  0
  2 27  1  0  0  0  0
  3  7  2  0  0  0  0
  4 23  1  1  0  0  0
  4 18  1  0  0  0  0
  4 15  1  0  0  0  0
  5 11  1  1  0  0  0
  5 19  1  0  0  0  0
  8 16  1  0  0  0  0
  9 25  1  0  0  0  0
  9 13  1  0  0  0  0
 12 15  1  0  0  0  0
 12  8  1  0  0  0  0
 13 24  1  0  0  0  0
 14 25  1  0  0  0  0
 15  5  1  0  0  0  0
 16  3  1  0  0  0  0
 17 28  1  0  0  0  0
 17 10  1  0  0  0  0
 18 20  1  0  0  0  0
 19  6  1  0  0  0  0
 19  3  1  0  0  0  0
 20 13  1  0  0  0  0
 20 11  1  0  0  0  0
 21 26  1  0  0  0  0
 21 23  1  0  0  0  0
 22 10  1  0  0  0  0
 24 22  1  0  0  0  0
 25 17  1  0  0  0  0
 27  9  1  0  0  0  0
 28 29  1  0  0  0  0
 29 32  1  0  0  0  0
 30 33  1  0  0  0  0
 31 33  1  0  0  0  0
 32 31  1  0  0  0  0
 34 32  1  0  0  0  0
 34 30  1  0  0  0  0
M  END
>  <MODEL>
6

>  <REMARK>
 VINA RESULT:      -7.6      2.605      8.019
  Name = 
  3 active torsions:
  status: ('A' for Active; 'I' for Inactive)
    1  A    between atoms: C_17  and  C_28
    2  A    between atoms: C_28  and  O_29
    3  A    between atoms: O_29  and  C_32
                            x       y       z     vdW  Elec       q    Type
                         _______ _______ _______ _____ _____    ______ ____

>  <TORSDO>
F 3

$$$$
=
 OpenBabel11112418053D

 34 40  0  0  1  0  0  0  0  0999 V2000
  189.8430  172.6300  143.1070 C   0  0  1  0  0  3  0  0  0  0  0  0
  190.0960  173.5650  145.3360 C   0  0  0  0  0  2  0  0  0  0  0  0
  189.9530  173.7750  136.8300 C   0  0  0  0  0  0  0  0  0  0  0  0
  189.7340  171.8050  140.7350 C   0  0  2  0  0  3  0  0  0  0  0  0
  188.6610  173.3070  138.9760 C   0  0  2  0  0  3  0  0  0  0  0  0
  187.7210  174.9330  137.2120 C   0  0  0  0  0  1  0  0  0  0  0  0
  190.4950  174.8470  136.6110 O   0  0  0  0  0  0  0  0  0  0  0  0
  189.8440  171.2590  136.8460 C   0  0  0  0  0  2  0  0  0  0  0  0
  188.9640  174.7100  143.7410 C   0  0  2  0  0  3  0  0  0  0  0  0
  188.9700  177.9160  143.5940 C   0  0  0  0  0  2  0  0  0  0  0  0
  188.8900  174.5200  139.8860 C   0  0  0  0  0  2  0  0  0  0  0  0
  189.6520  170.9940  138.3500 C   0  0  0  0  0  2  0  0  0  0  0  0
  188.9030  175.2790  142.3110 C   0  0  1  0  0  3  0  0  0  0  0  0
  189.7110  174.8850  146.0000 C   0  0  0  0  0  2  0  0  0  0  0  0
  189.7430  172.2290  139.2600 C   0  0  2  0  0  3  0  0  0  0  0  0
  190.6860  172.4970  136.5180 C   0  0  0  0  0  2  0  0  0  0  0  0
  189.7310  177.0240  144.5930 C   0  0  1  0  0  3  0  0  0  0  0  0
  189.8690  173.0450  141.6300 C   0  0  1  0  0  3  0  0  0  0  0  0
  188.5980  173.7180  137.4920 C   0  0  1  0  0  3  0  0  0  0  0  0
  188.7810  174.0880  141.3420 C   0  0  2  0  0  3  0  0  0  0  0  0
  190.6620  170.4330  142.2960 C   0  0  0  0  0  2  0  0  0  0  0  0
  187.6120  177.3610  143.1560 C   0  0  0  0  0  2  0  0  0  0  0  0
  190.8180  170.9360  140.9890 O   0  0  0  0  0  0  0  0  0  0  0  0
  187.7250  176.2450  142.1100 C   0  0  0  0  0  2  0  0  0  0  0  0
  189.0170  175.6850  144.9070 C   0  0  1  0  0  3  0  0  0  0  0  0
  190.8970  171.5430  143.3240 C   0  0  0  0  0  2  0  0  0  0  0  0
  190.1090  173.8260  143.9040 N   0  0  2  0  0  0  0  0  0  0  0  0
  191.1680  176.8610  144.1040 C   0  0  0  0  0  2  0  0  0  0  0  0
  192.0700  177.1730  145.1240 O   0  0  0  0  0  0  0  0  0  0  0  0
  194.5920  175.9310  146.4680 O   0  0  0  0  0  0  0  0  0  0  0  0
  193.3140  175.2290  144.6070 C   0  0  0  0  0  2  0  0  0  0  0  0
  193.3060  176.7290  144.6510 C   0  0  2  0  0  3  0  0  0  0  0  0
  194.3560  174.8340  145.6260 C   0  0  0  0  0  2  0  0  0  0  0  0
  194.3780  177.0590  145.6650 C   0  0  0  0  0  2  0  0  0  0  0  0
  1 26  1  6  0  0  0
  1 27  1  0  0  0  0
  2 14  1  0  0  0  0
  3 19  1  0  0  0  0
  4 23  1  6  0  0  0
  4 18  1  0  0  0  0
  5 15  1  0  0  0  0
  5 11  1  1  0  0  0
  6 19  1  0  0  0  0
  7  3  2  0  0  0  0
  8 12  1  0  0  0  0
  9 27  1  0  0  0  0
  9 25  1  0  0  0  0
 10 17  1  0  0  0  0
 11 20  1  0  0  0  0
 12 15  1  0  0  0  0
 13  9  1  0  0  0  0
 15  4  1  0  0  0  0
 16  3  1  0  0  0  0
 16  8  1  0  0  0  0
 17 25  1  0  0  0  0
 18  1  1  0  0  0  0
 19  5  1  0  0  0  0
 20 18  1  0  0  0  0
 20 13  1  0  0  0  0
 21 26  1  0  0  0  0
 22 10  1  0  0  0  0
 23 21  1  0  0  0  0
 24 13  1  0  0  0  0
 24 22  1  0  0  0  0
 25 14  1  0  0  0  0
 27  2  1  0  0  0  0
 28 17  1  0  0  0  0
 28 29  1  0  0  0  0
 31 32  1  0  0  0  0
 31 33  1  0  0  0  0
 32 29  1  0  0  0  0
 32 34  1  0  0  0  0
 33 30  1  0  0  0  0
 34 30  1  0  0  0  0
M  END
>  <MODEL>
7

>  <REMARK>
 VINA RESULT:      -7.5      3.046      6.248
  Name = 
  3 active torsions:
  status: ('A' for Active; 'I' for Inactive)
    1  A    between atoms: C_17  and  C_28
    2  A    between atoms: C_28  and  O_29
    3  A    between atoms: O_29  and  C_32
                            x       y       z     vdW  Elec       q    Type
                         _______ _______ _______ _____ _____    ______ ____

>  <TORSDO>
F 3

$$$$
=
 OpenBabel11112418053D

 34 40  0  0  1  0  0  0  0  0999 V2000
  190.6070  173.2760  141.9530 C   0  0  1  0  0  3  0  0  0  0  0  0
  188.2460  173.8460  142.0580 C   0  0  0  0  0  2  0  0  0  0  0  0
  196.3760  174.0680  144.5640 C   0  0  0  0  0  0  0  0  0  0  0  0
  193.0510  172.7000  142.0630 C   0  0  2  0  0  3  0  0  0  0  0  0
  194.7020  174.5350  142.7000 C   0  0  2  0  0  3  0  0  0  0  0  0
  196.3060  176.3820  143.5100 C   0  0  0  0  0  1  0  0  0  0  0  0
  196.2650  174.5500  145.6800 O   0  0  0  0  0  0  0  0  0  0  0  0
  196.8450  172.1940  142.9480 C   0  0  0  0  0  2  0  0  0  0  0  0
  189.8200  175.4440  142.3860 C   0  0  2  0  0  3  0  0  0  0  0  0
  189.3730  177.9150  144.3840 C   0  0  0  0  0  2  0  0  0  0  0  0
  193.5590  175.3300  143.3410 C   0  0  0  0  0  2  0  0  0  0  0  0
  195.4990  172.1170  142.2060 C   0  0  0  0  0  2  0  0  0  0  0  0
  191.0970  175.9160  143.1040 C   0  0  1  0  0  3  0  0  0  0  0  0
  187.4580  175.1120  142.3830 C   0  0  0  0  0  2  0  0  0  0  0  0
  194.3820  173.0170  142.7590 C   0  0  2  0  0  3  0  0  0  0  0  0
  196.7410  172.6140  144.4190 C   0  0  0  0  0  2  0  0  0  0  0  0
  188.4070  176.7460  144.1100 C   0  0  1  0  0  3  0  0  0  0  0  0
  191.9370  173.5750  142.6560 C   0  0  1  0  0  3  0  0  0  0  0  0
  196.0610  174.8880  143.3360 C   0  0  1  0  0  3  0  0  0  0  0  0
  192.2700  175.0710  142.5720 C   0  0  2  0  0  3  0  0  0  0  0  0
  191.5970  171.0570  141.4570 C   0  0  0  0  0  2  0  0  0  0  0  0
  190.2020  178.3470  143.1710 C   0  0  0  0  0  2  0  0  0  0  0  0
  192.7200  171.3420  142.2600 O   0  0  0  0  0  0  0  0  0  0  0  0
  191.3810  177.4090  142.8820 C   0  0  0  0  0  2  0  0  0  0  0  0
  188.5140  176.1670  142.6770 C   0  0  1  0  0  3  0  0  0  0  0  0
  190.3580  171.7680  142.0060 C   0  0  0  0  0  2  0  0  0  0  0  0
  189.5650  174.0340  142.6450 N   0  0  2  0  0  0  0  0  0  0  0  0
  188.5770  175.7050  145.2150 C   0  0  0  0  0  2  0  0  0  0  0  0
  188.9890  176.3140  146.4020 O   0  0  0  0  0  0  0  0  0  0  0  0
  191.5120  174.5300  146.0040 O   0  0  0  0  0  0  0  0  0  0  0  0
  190.7920  175.8180  147.8510 C   0  0  0  0  0  2  0  0  0  0  0  0
  189.5820  175.2870  147.1390 C   0  0  2  0  0  3  0  0  0  0  0  0
  191.9460  175.0760  147.2200 C   0  0  0  0  0  2  0  0  0  0  0  0
  190.1510  174.2560  146.1930 C   0  0  0  0  0  2  0  0  0  0  0  0
  1 26  1  1  0  0  0
  1 27  1  0  0  0  0
  1 18  1  0  0  0  0
  2 14  1  0  0  0  0
  2 27  1  0  0  0  0
  3  7  2  0  0  0  0
  4 23  1  1  0  0  0
  4 18  1  0  0  0  0
  4 15  1  0  0  0  0
  5 15  1  0  0  0  0
  5 19  1  0  0  0  0
  5 11  1  1  0  0  0
  8 16  1  0  0  0  0
  9 27  1  0  0  0  0
  9 25  1  0  0  0  0
  9 13  1  0  0  0  0
 12 15  1  0  0  0  0
 12  8  1  0  0  0  0
 14 25  1  0  0  0  0
 16  3  1  0  0  0  0
 17 10  1  0  0  0  0
 17 28  1  0  0  0  0
 19  6  1  0  0  0  0
 19  3  1  0  0  0  0
 20 18  1  0  0  0  0
 20 13  1  0  0  0  0
 20 11  1  0  0  0  0
 21 26  1  0  0  0  0
 21 23  1  0  0  0  0
 22 10  1  0  0  0  0
 24 13  1  0  0  0  0
 24 22  1  0  0  0  0
 25 17  1  0  0  0  0
 28 29  1  0  0  0  0
 29 32  1  0  0  0  0
 30 34  1  0  0  0  0
 30 33  1  0  0  0  0
 32 31  1  0  0  0  0
 33 31  1  0  0  0  0
 34 32  1  0  0  0  0
M  END
>  <MODEL>
8

>  <REMARK>
 VINA RESULT:      -7.4      2.540      7.463
  Name = 
  3 active torsions:
  status: ('A' for Active; 'I' for Inactive)
    1  A    between atoms: C_17  and  C_28
    2  A    between atoms: C_28  and  O_29
    3  A    between atoms: O_29  and  C_32
                            x       y       z     vdW  Elec       q    Type
                         _______ _______ _______ _____ _____    ______ ____

>  <TORSDO>
F 3

$$$$
=
 OpenBabel11112418053D

 34 40  0  0  1  0  0  0  0  0999 V2000
  190.6010  172.9690  140.8480 C   0  0  1  0  0  3  0  0  0  0  0  0
  192.4800  171.7860  139.8580 C   0  0  0  0  0  2  0  0  0  0  0  0
  188.7250  177.2680  145.1750 C   0  0  0  0  0  0  0  0  0  0  0  0
  188.7930  174.3640  141.8980 C   0  0  2  0  0  3  0  0  0  0  0  0
  188.9320  174.8500  144.3960 C   0  0  2  0  0  3  0  0  0  0  0  0
  189.2120  175.4500  146.8870 C   0  0  0  0  0  1  0  0  0  0  0  0
  189.6840  177.9170  145.5610 O   0  0  0  0  0  0  0  0  0  0  0  0
  186.5890  176.9430  143.8800 C   0  0  0  0  0  2  0  0  0  0  0  0
  192.3770  172.0880  142.1020 C   0  0  2  0  0  3  0  0  0  0  0  0
  195.0010  172.4850  143.9070 C   0  0  0  0  0  2  0  0  0  0  0  0
  190.4330  174.5390  144.3650 C   0  0  0  0  0  2  0  0  0  0  0  0
  186.9980  175.7890  142.9460 C   0  0  0  0  0  2  0  0  0  0  0  0
  192.1820  173.0310  143.3040 C   0  0  1  0  0  3  0  0  0  0  0  0
  193.7760  171.1850  140.3940 C   0  0  0  0  0  2  0  0  0  0  0  0
  188.4770  175.3760  143.0080 C   0  0  2  0  0  3  0  0  0  0  0  0
  187.7270  177.9040  144.2440 C   0  0  0  0  0  2  0  0  0  0  0  0
  194.9340  172.3190  142.3770 C   0  0  1  0  0  3  0  0  0  0  0  0
  190.2820  173.9940  141.9440 C   0  0  1  0  0  3  0  0  0  0  0  0
  188.5790  175.8120  145.5480 C   0  0  1  0  0  3  0  0  0  0  0  0
  190.7040  173.4630  143.3210 C   0  0  2  0  0  3  0  0  0  0  0  0
  188.6290  173.9110  139.6730 C   0  0  0  0  0  2  0  0  0  0  0  0
  193.9330  171.7020  144.6750 C   0  0  0  0  0  2  0  0  0  0  0  0
  188.5000  174.9300  140.6380 O   0  0  0  0  0  0  0  0  0  0  0  0
  192.5520  172.3680  144.6400 C   0  0  0  0  0  2  0  0  0  0  0  0
  193.7430  171.4540  141.8920 C   0  0  1  0  0  3  0  0  0  0  0  0
  190.1000  173.5170  139.5110 C   0  0  0  0  0  2  0  0  0  0  0  0
  192.0480  172.7580  140.8530 N   0  0  2  0  0  0  0  0  0  0  0  0
  194.9980  173.7020  141.7330 C   0  0  0  0  0  2  0  0  0  0  0  0
  196.1620  174.3690  142.1220 O   0  0  0  0  0  0  0  0  0  0  0  0
  194.1540  175.9680  143.8890 O   0  0  0  0  0  0  0  0  0  0  0  0
  196.4370  176.3390  143.4020 C   0  0  0  0  0  2  0  0  0  0  0  0
  195.7900  175.7130  142.2020 C   0  0  2  0  0  3  0  0  0  0  0  0
  195.2790  176.6960  144.3030 C   0  0  0  0  0  2  0  0  0  0  0  0
  194.3130  175.8060  142.5060 C   0  0  0  0  0  2  0  0  0  0  0  0
  1 26  1  6  0  0  0
  1 27  1  0  0  0  0
  1 18  1  0  0  0  0
  2 14  1  0  0  0  0
  2 27  1  0  0  0  0
  3 19  1  0  0  0  0
  3  7  2  0  0  0  0
  4 23  1  6  0  0  0
  4 18  1  0  0  0  0
  4 15  1  0  0  0  0
  5 11  1  6  0  0  0
  5 19  1  0  0  0  0
  8 16  1  0  0  0  0
  9 13  1  0  0  0  0
 10 22  1  0  0  0  0
 12 15  1  0  0  0  0
 12  8  1  0  0  0  0
 13 20  1  0  0  0  0
 13 24  1  0  0  0  0
 14 25  1  0  0  0  0
 15  5  1  0  0  0  0
 16  3  1  0  0  0  0
 17 10  1  0  0  0  0
 18 20  1  0  0  0  0
 19  6  1  0  0  0  0
 20 11  1  0  0  0  0
 21 23  1  0  0  0  0
 24 22  1  0  0  0  0
 25  9  1  0  0  0  0
 25 17  1  0  0  0  0
 26 21  1  0  0  0  0
 27  9  1  0  0  0  0
 28 29  1  0  0  0  0
 28 17  1  0  0  0  0
 29 32  1  0  0  0  0
 30 33  1  0  0  0  0
 31 33  1  0  0  0  0
 32 34  1  0  0  0  0
 32 31  1  0  0  0  0
 34 30  1  0  0  0  0
M  END
>  <MODEL>
9

>  <REMARK>
 VINA RESULT:      -7.3      2.133      3.644
  Name = 
  3 active torsions:
  status: ('A' for Active; 'I' for Inactive)
    1  A    between atoms: C_17  and  C_28
    2  A    between atoms: C_28  and  O_29
    3  A    between atoms: O_29  and  C_32
                            x       y       z     vdW  Elec       q    Type
                         _______ _______ _______ _____ _____    ______ ____

>  <TORSDO>
F 3

$$$$
