=
 OpenBabel11112417483D

 34 40  0  0  1  0  0  0  0  0999 V2000
  189.6360  174.0690  143.4490 C   0  0  0  0  0  0  0  0  0  0  0  0
  191.7180  172.6110  143.4270 C   0  0  0  0  0  2  0  0  0  0  0  0
  185.5840  177.8170  145.9240 C   0  0  1  0  0  3  0  0  0  0  0  0
  187.9160  175.7720  143.2880 C   0  0  0  0  0  0  0  0  0  0  0  0
  187.9170  177.7740  144.8420 C   0  0  1  0  0  3  0  0  0  0  0  0
  187.2860  176.3320  146.6910 O   0  0  0  0  0  1  0  0  0  0  0  0
  184.9630  178.3590  147.1950 C   0  0  0  0  0  1  0  0  0  0  0  0
  185.0440  177.8620  143.7690 C   0  0  0  0  0  2  0  0  0  0  0  0
  191.3900  174.1580  145.2640 C   0  0  2  0  0  3  0  0  0  0  0  0
  194.0970  175.5680  146.3500 C   0  0  0  0  0  2  0  0  0  0  0  0
  189.4110  177.4910  145.0270 C   0  0  0  0  0  2  0  0  0  0  0  0
  186.2970  177.6610  142.9240 C   0  0  0  0  0  2  0  0  0  0  0  0
  191.1760  175.6830  145.2630 C   0  0  1  0  0  3  0  0  0  0  0  0
  192.9330  172.5100  144.3320 C   0  0  0  0  0  2  0  0  0  0  0  0
  187.3550  177.0290  143.7090 N   0  0  0  0  0  0  0  0  0  0  0  0
  185.3250  178.6940  144.8610 O   0  0  0  0  0  0  0  0  0  0  0  0
  193.9150  174.7220  145.0940 C   0  0  2  0  0  3  0  0  0  0  0  0
  189.0760  175.2710  143.9110 C   0  0  0  0  0  0  0  0  0  0  0  0
  187.0870  177.5970  146.1320 C   0  0  2  0  0  3  0  0  0  0  0  0
  189.6780  175.9840  145.1030 C   0  0  2  0  0  3  0  0  0  0  0  0
  187.8960  173.9260  141.7840 C   0  0  0  0  0  3  0  0  0  0  0  0
  193.1350  176.7450  146.3790 C   0  0  0  0  0  2  0  0  0  0  0  0
  187.3640  175.0890  142.2460 N   0  0  0  0  0  0  0  0  0  0  0  0
  191.6970  176.2880  146.5600 C   0  0  0  0  0  2  0  0  0  0  0  0
  192.8400  173.6500  145.3480 C   0  0  1  0  0  3  0  0  0  0  0  0
  189.0440  173.3980  142.3740 C   0  0  0  0  0  3  0  0  0  0  0  0
  190.8360  173.5710  144.0580 N   0  0  0  0  0  0  0  0  0  0  0  0
  195.1420  174.1240  144.7850 O   0  0  0  0  0  0  0  0  0  0  0  0
  195.9820  174.4610  145.8490 C   0  0  0  0  0  2  0  0  0  0  0  0
  197.4890  171.3750  144.9080 C   0  0  0  0  0  2  0  0  0  0  0  0
  197.9310  173.6210  144.5400 C   0  0  0  0  0  2  0  0  0  0  0  0
  197.1910  173.5420  145.8650 C   0  0  2  0  0  3  0  0  0  0  0  0
  197.8020  172.3380  143.8650 N   0  0  0  0  0  2  0  0  0  0  0  0
  196.7330  172.1120  145.9840 C   0  0  0  0  0  2  0  0  0  0  0  0
  1 18  1  0  0  0  0
  1 27  1  0  0  0  0
  2 27  1  0  0  0  0
  2 14  1  0  0  0  0
  3 19  1  0  0  0  0
  3  7  1  1  0  0  0
  4 15  1  0  0  0  0
  4 18  2  0  0  0  0
  5 11  1  1  0  0  0
  5 19  1  0  0  0  0
  8 16  1  0  0  0  0
  9 27  1  6  0  0  0
  9 25  1  0  0  0  0
 10 22  1  0  0  0  0
 12 15  1  0  0  0  0
 12  8  1  0  0  0  0
 13  9  1  0  0  0  0
 13 24  1  1  0  0  0
 15  5  1  0  0  0  0
 16  3  1  0  0  0  0
 17 28  1  1  0  0  0
 17 25  1  0  0  0  0
 17 10  1  0  0  0  0
 18 20  1  0  0  0  0
 19  6  1  6  0  0  0
 20 11  1  6  0  0  0
 20 13  1  0  0  0  0
 21 23  2  0  0  0  0
 21 26  1  0  0  0  0
 22 24  1  0  0  0  0
 23  4  1  0  0  0  0
 25 14  1  6  0  0  0
 26  1  2  0  0  0  0
 28 29  1  0  0  0  0
 30 34  1  0  0  0  0
 31 32  1  0  0  0  0
 32 29  1  6  0  0  0
 32 34  1  0  0  0  0
 33 31  1  0  0  0  0
 33 30  1  0  0  0  0
M  END
>  <MODEL>
1

>  <REMARK>
 VINA RESULT:      -9.1      0.000      0.000
  Name = 
  3 active torsions:
  status: ('A' for Active; 'I' for Inactive)
    1  A    between atoms: C_17  and  O_28
    2  A    between atoms: O_28  and  C_29
    3  A    between atoms: C_29  and  C_32
                            x       y       z     vdW  Elec       q    Type
                         _______ _______ _______ _____ _____    ______ ____

>  <TORSDO>
F 3

$$$$
=
 OpenBabel11112417483D

 34 40  0  0  1  0  0  0  0  0999 V2000
  189.8720  174.0630  143.4310 C   0  0  0  0  0  0  0  0  0  0  0  0
  191.9310  172.5870  143.2290 C   0  0  0  0  0  2  0  0  0  0  0  0
  186.0070  177.7370  146.2880 C   0  0  1  0  0  3  0  0  0  0  0  0
  188.1660  175.7870  143.4400 C   0  0  0  0  0  0  0  0  0  0  0  0
  188.2760  177.7190  145.0770 C   0  0  1  0  0  3  0  0  0  0  0  0
  187.7310  176.2030  146.8940 O   0  0  0  0  0  1  0  0  0  0  0  0
  185.4650  178.2280  147.6140 C   0  0  0  0  0  1  0  0  0  0  0  0
  185.3500  177.8820  144.1710 C   0  0  0  0  0  2  0  0  0  0  0  0
  191.7240  174.0550  145.1470 C   0  0  2  0  0  3  0  0  0  0  0  0
  194.5040  175.3890  146.1410 C   0  0  0  0  0  2  0  0  0  0  0  0
  189.7750  177.4140  145.1660 C   0  0  0  0  0  2  0  0  0  0  0  0
  186.5520  177.7060  143.2490 C   0  0  0  0  0  2  0  0  0  0  0  0
  191.5290  175.5810  145.2240 C   0  0  1  0  0  3  0  0  0  0  0  0
  193.1930  172.4350  144.0590 C   0  0  0  0  0  2  0  0  0  0  0  0
  187.6440  177.0300  143.9450 N   0  0  0  0  0  0  0  0  0  0  0  0
  185.7010  178.6620  145.2810 O   0  0  0  0  0  0  0  0  0  0  0  0
  194.2430  174.6020  144.8610 C   0  0  2  0  0  3  0  0  0  0  0  0
  189.3520  175.2490  143.9750 C   0  0  0  0  0  0  0  0  0  0  0  0
  187.5180  177.4930  146.4030 C   0  0  2  0  0  3  0  0  0  0  0  0
  190.0280  175.9030  145.1610 C   0  0  2  0  0  3  0  0  0  0  0  0
  188.0410  174.0100  141.8610 C   0  0  0  0  0  3  0  0  0  0  0  0
  193.5590  176.5730  146.2740 C   0  0  0  0  0  2  0  0  0  0  0  0
  187.5490  175.1560  142.4010 N   0  0  0  0  0  0  0  0  0  0  0  0
  192.1270  176.1220  146.5150 C   0  0  0  0  0  2  0  0  0  0  0  0
  193.1710  173.5300  145.1280 C   0  0  1  0  0  3  0  0  0  0  0  0
  189.2130  173.4450  142.3620 C   0  0  0  0  0  3  0  0  0  0  0  0
  191.0970  173.5270  143.9500 N   0  0  0  0  0  0  0  0  0  0  0  0
  195.4430  174.0060  144.4590 O   0  0  0  0  0  0  0  0  0  0  0  0
  196.4340  174.9310  144.7990 C   0  0  0  0  0  2  0  0  0  0  0  0
  196.5320  175.4090  141.2720 C   0  0  0  0  0  2  0  0  0  0  0  0
  196.8370  176.7480  143.1400 C   0  0  0  0  0  2  0  0  0  0  0  0
  197.2110  175.3370  143.5600 C   0  0  2  0  0  3  0  0  0  0  0  0
  196.1410  176.6770  141.8630 N   0  0  0  0  0  2  0  0  0  0  0  0
  196.8110  174.4540  142.4060 C   0  0  0  0  0  2  0  0  0  0  0  0
  1 27  1  0  0  0  0
  1 18  1  0  0  0  0
  2 27  1  0  0  0  0
  2 14  1  0  0  0  0
  3 19  1  0  0  0  0
  3  7  1  1  0  0  0
  4 15  1  0  0  0  0
  4 18  2  0  0  0  0
  5 11  1  1  0  0  0
  5 19  1  0  0  0  0
  8 16  1  0  0  0  0
  9 27  1  6  0  0  0
  9 13  1  0  0  0  0
 10 22  1  0  0  0  0
 12 15  1  0  0  0  0
 12  8  1  0  0  0  0
 13 24  1  1  0  0  0
 15  5  1  0  0  0  0
 16  3  1  0  0  0  0
 17 28  1  1  0  0  0
 17 25  1  0  0  0  0
 17 10  1  0  0  0  0
 18 20  1  0  0  0  0
 19  6  1  6  0  0  0
 20 11  1  6  0  0  0
 20 13  1  0  0  0  0
 21 26  1  0  0  0  0
 21 23  2  0  0  0  0
 22 24  1  0  0  0  0
 23  4  1  0  0  0  0
 25 14  1  6  0  0  0
 25  9  1  0  0  0  0
 26  1  2  0  0  0  0
 28 29  1  0  0  0  0
 30 33  1  0  0  0  0
 30 34  1  0  0  0  0
 31 32  1  0  0  0  0
 32 29  1  1  0  0  0
 33 31  1  0  0  0  0
 34 32  1  0  0  0  0
M  END
>  <MODEL>
2

>  <REMARK>
 VINA RESULT:      -8.8      1.452      1.733
  Name = 
  3 active torsions:
  status: ('A' for Active; 'I' for Inactive)
    1  A    between atoms: C_17  and  O_28
    2  A    between atoms: O_28  and  C_29
    3  A    between atoms: C_29  and  C_32
                            x       y       z     vdW  Elec       q    Type
                         _______ _______ _______ _____ _____    ______ ____

>  <TORSDO>
F 3

$$$$
=
 OpenBabel11112417483D

 34 40  0  0  1  0  0  0  0  0999 V2000
  192.1830  176.2010  145.8480 C   0  0  0  0  0  0  0  0  0  0  0  0
  189.9090  176.5400  146.9320 C   0  0  0  0  0  2  0  0  0  0  0  0
  196.1180  173.6520  142.0250 C   0  0  1  0  0  3  0  0  0  0  0  0
  194.2360  176.2260  144.5550 C   0  0  0  0  0  0  0  0  0  0  0  0
  194.2680  175.4340  142.1470 C   0  0  1  0  0  3  0  0  0  0  0  0
  193.9570  173.1470  142.9010 O   0  0  0  0  0  1  0  0  0  0  0  0
  196.4510  172.4610  141.1490 C   0  0  0  0  0  1  0  0  0  0  0  0
  197.2600  175.3820  142.8250 C   0  0  0  0  0  2  0  0  0  0  0  0
  190.0510  175.2470  144.8860 C   0  0  2  0  0  3  0  0  0  0  0  0
  187.5740  175.6680  142.8410 C   0  0  0  0  0  2  0  0  0  0  0  0
  192.7630  175.7240  142.1480 C   0  0  0  0  0  2  0  0  0  0  0  0
  196.3000  176.5220  143.1500 C   0  0  0  0  0  2  0  0  0  0  0  0
  190.6210  175.6180  143.5050 C   0  0  1  0  0  3  0  0  0  0  0  0
  188.4960  176.1440  146.5430 C   0  0  0  0  0  2  0  0  0  0  0  0
  194.9380  176.0200  143.3150 N   0  0  0  0  0  0  0  0  0  0  0  0
  196.8830  174.7580  141.6280 O   0  0  0  0  0  0  0  0  0  0  0  0
  187.9050  176.4690  144.0970 C   0  0  2  0  0  3  0  0  0  0  0  0
  192.8590  175.9430  144.6440 C   0  0  0  0  0  0  0  0  0  0  0  0
  194.6130  173.9420  141.9580 C   0  0  2  0  0  3  0  0  0  0  0  0
  192.1270  175.3110  143.4790 C   0  0  2  0  0  3  0  0  0  0  0  0
  194.2450  177.0120  146.8030 C   0  0  0  0  0  3  0  0  0  0  0  0
  188.7420  175.6420  141.8680 C   0  0  0  0  0  2  0  0  0  0  0  0
  194.8850  176.7520  145.6320 N   0  0  0  0  0  0  0  0  0  0  0  0
  189.9070  174.8320  142.4140 C   0  0  0  0  0  2  0  0  0  0  0  0
  188.5620  175.5440  145.1370 C   0  0  1  0  0  3  0  0  0  0  0  0
  192.8820  176.7450  146.9300 C   0  0  0  0  0  3  0  0  0  0  0  0
  190.7740  175.9460  145.9330 N   0  0  0  0  0  0  0  0  0  0  0  0
  186.7150  177.0070  144.6000 O   0  0  0  0  0  0  0  0  0  0  0  0
  186.6690  178.3080  144.0960 C   0  0  0  0  0  2  0  0  0  0  0  0
  183.7410  178.6940  146.0860 C   0  0  0  0  0  2  0  0  0  0  0  0
  186.0280  178.8190  146.4500 C   0  0  0  0  0  2  0  0  0  0  0  0
  185.8070  179.1810  144.9920 C   0  0  2  0  0  3  0  0  0  0  0  0
  184.8000  178.2340  146.9690 N   0  0  0  0  0  2  0  0  0  0  0  0
  184.3530  178.8930  144.7220 C   0  0  0  0  0  2  0  0  0  0  0  0
  1 27  1  0  0  0  0
  1 26  1  0  0  0  0
  3  7  1  6  0  0  0
  4 18  1  0  0  0  0
  4 23  2  0  0  0  0
  5 11  1  1  0  0  0
  5 15  1  0  0  0  0
  8 12  1  0  0  0  0
  9 25  1  0  0  0  0
  9 27  1  1  0  0  0
 10 17  1  0  0  0  0
 12 15  1  0  0  0  0
 13 24  1  6  0  0  0
 13  9  1  0  0  0  0
 14  2  1  0  0  0  0
 15  4  1  0  0  0  0
 16  3  1  0  0  0  0
 16  8  1  0  0  0  0
 17 28  1  1  0  0  0
 17 25  1  0  0  0  0
 18  1  2  0  0  0  0
 19  3  1  0  0  0  0
 19  5  1  0  0  0  0
 19  6  1  1  0  0  0
 20 11  1  6  0  0  0
 20 13  1  0  0  0  0
 20 18  1  0  0  0  0
 21 26  2  0  0  0  0
 22 24  1  0  0  0  0
 22 10  1  0  0  0  0
 23 21  1  0  0  0  0
 25 14  1  1  0  0  0
 27  2  1  0  0  0  0
 29 28  1  0  0  0  0
 30 33  1  0  0  0  0
 31 33  1  0  0  0  0
 32 29  1  6  0  0  0
 32 31  1  0  0  0  0
 34 32  1  0  0  0  0
 34 30  1  0  0  0  0
M  END
>  <MODEL>
3

>  <REMARK>
 VINA RESULT:      -8.2      2.532      9.029
  Name = 
  3 active torsions:
  status: ('A' for Active; 'I' for Inactive)
    1  A    between atoms: C_17  and  O_28
    2  A    between atoms: O_28  and  C_29
    3  A    between atoms: C_29  and  C_32
                            x       y       z     vdW  Elec       q    Type
                         _______ _______ _______ _____ _____    ______ ____

>  <TORSDO>
F 3

$$$$
=
 OpenBabel11112417483D

 34 40  0  0  1  0  0  0  0  0999 V2000
  191.9920  175.7490  145.8160 C   0  0  0  0  0  0  0  0  0  0  0  0
  190.0660  177.2030  146.6100 C   0  0  0  0  0  2  0  0  0  0  0  0
  194.5020  170.8430  143.3180 C   0  0  1  0  0  3  0  0  0  0  0  0
  193.8160  174.6150  144.6880 C   0  0  0  0  0  0  0  0  0  0  0  0
  193.3770  173.0770  142.7210 C   0  0  1  0  0  3  0  0  0  0  0  0
  192.3800  171.4510  144.2240 O   0  0  0  0  0  1  0  0  0  0  0  0
  194.3400  169.3860  142.9380 C   0  0  0  0  0  1  0  0  0  0  0  0
  196.2220  172.2370  143.5010 C   0  0  0  0  0  2  0  0  0  0  0  0
  189.5910  175.3160  145.1650 C   0  0  2  0  0  3  0  0  0  0  0  0
  187.2350  175.8250  143.0000 C   0  0  0  0  0  2  0  0  0  0  0  0
  192.0620  173.8480  142.5550 C   0  0  0  0  0  2  0  0  0  0  0  0
  195.7330  173.6750  143.3590 C   0  0  0  0  0  2  0  0  0  0  0  0
  190.1330  174.9640  143.7670 C   0  0  1  0  0  3  0  0  0  0  0  0
  188.5740  177.2090  146.3270 C   0  0  0  0  0  2  0  0  0  0  0  0
  194.3010  173.7630  143.6330 N   0  0  0  0  0  0  0  0  0  0  0  0
  195.5580  171.4070  142.5890 O   0  0  0  0  0  0  0  0  0  0  0  0
  187.9210  176.8460  143.9020 C   0  0  2  0  0  3  0  0  0  0  0  0
  192.4370  174.8720  144.8120 C   0  0  0  0  0  0  0  0  0  0  0  0
  193.1820  171.5900  143.0890 C   0  0  2  0  0  3  0  0  0  0  0  0
  191.4400  174.1690  143.9170 C   0  0  2  0  0  3  0  0  0  0  0  0
  194.2800  176.0780  146.5080 C   0  0  0  0  0  3  0  0  0  0  0  0
  188.2400  175.0630  142.1500 C   0  0  0  0  0  2  0  0  0  0  0  0
  194.6930  175.2250  145.5340 N   0  0  0  0  0  0  0  0  0  0  0  0
  189.1060  174.1440  142.9970 C   0  0  0  0  0  2  0  0  0  0  0  0
  188.3150  176.1740  145.2300 C   0  0  1  0  0  3  0  0  0  0  0  0
  192.9220  176.3590  146.6630 C   0  0  0  0  0  3  0  0  0  0  0  0
  190.5920  176.0400  145.9260 N   0  0  0  0  0  0  0  0  0  0  0  0
  187.0290  177.8990  144.1300 O   0  0  0  0  0  0  0  0  0  0  0  0
  185.7600  177.3200  144.0450 C   0  0  0  0  0  2  0  0  0  0  0  0
  185.0590  178.2040  147.4220 C   0  0  0  0  0  2  0  0  0  0  0  0
  185.3230  179.3500  145.4240 C   0  0  0  0  0  2  0  0  0  0  0  0
  184.8290  177.9610  145.0570 C   0  0  2  0  0  3  0  0  0  0  0  0
  185.7420  179.3350  146.8180 N   0  0  0  0  0  2  0  0  0  0  0  0
  184.8620  177.1710  146.3400 C   0  0  0  0  0  2  0  0  0  0  0  0
  1 27  1  0  0  0  0
  1 26  1  0  0  0  0
  3  7  1  6  0  0  0
  4 18  1  0  0  0  0
  4 23  2  0  0  0  0
  5 11  1  1  0  0  0
  5 19  1  0  0  0  0
  5 15  1  0  0  0  0
  9 25  1  0  0  0  0
  9 27  1  1  0  0  0
 10 17  1  0  0  0  0
 12  8  1  0  0  0  0
 12 15  1  0  0  0  0
 13 24  1  1  0  0  0
 13 20  1  0  0  0  0
 13  9  1  0  0  0  0
 14  2  1  0  0  0  0
 15  4  1  0  0  0  0
 16  3  1  0  0  0  0
 16  8  1  0  0  0  0
 17 28  1  1  0  0  0
 17 25  1  0  0  0  0
 18  1  2  0  0  0  0
 19  3  1  0  0  0  0
 19  6  1  1  0  0  0
 20 11  1  6  0  0  0
 20 18  1  0  0  0  0
 21 26  2  0  0  0  0
 22 24  1  0  0  0  0
 22 10  1  0  0  0  0
 23 21  1  0  0  0  0
 25 14  1  1  0  0  0
 27  2  1  0  0  0  0
 29 28  1  0  0  0  0
 31 33  1  0  0  0  0
 32 29  1  6  0  0  0
 32 31  1  0  0  0  0
 32 34  1  0  0  0  0
 33 30  1  0  0  0  0
 34 30  1  0  0  0  0
M  END
>  <MODEL>
4

>  <REMARK>
 VINA RESULT:      -8.2      2.127      8.920
  Name = 
  3 active torsions:
  status: ('A' for Active; 'I' for Inactive)
    1  A    between atoms: C_17  and  O_28
    2  A    between atoms: O_28  and  C_29
    3  A    between atoms: C_29  and  C_32
                            x       y       z     vdW  Elec       q    Type
                         _______ _______ _______ _____ _____    ______ ____

>  <TORSDO>
F 3

$$$$
=
 OpenBabel11112417483D

 34 40  0  0  1  0  0  0  0  0999 V2000
  190.5560  173.0330  142.9840 C   0  0  0  0  0  0  0  0  0  0  0  0
  188.3430  174.0640  142.2770 C   0  0  0  0  0  2  0  0  0  0  0  0
  196.3150  173.1270  144.8330 C   0  0  1  0  0  3  0  0  0  0  0  0
  192.4760  172.0160  144.0620 C   0  0  0  0  0  0  0  0  0  0  0  0
  193.9000  173.3300  145.6950 C   0  0  1  0  0  3  0  0  0  0  0  0
  194.7680  174.6600  143.8580 O   0  0  0  0  0  1  0  0  0  0  0  0
  197.6010  173.9200  144.9470 C   0  0  0  0  0  1  0  0  0  0  0  0
  195.7670  170.9850  145.0400 C   0  0  0  0  0  2  0  0  0  0  0  0
  190.0060  175.4730  143.3370 C   0  0  2  0  0  3  0  0  0  0  0  0
  188.8060  177.7180  145.3400 C   0  0  0  0  0  2  0  0  0  0  0  0
  192.6720  174.2290  145.8710 C   0  0  0  0  0  2  0  0  0  0  0  0
  194.2840  170.8660  145.3780 C   0  0  0  0  0  2  0  0  0  0  0  0
  190.7140  175.3370  144.6980 C   0  0  1  0  0  3  0  0  0  0  0  0
  187.7410  175.4500  142.4240 C   0  0  0  0  0  2  0  0  0  0  0  0
  193.5680  172.0820  144.9970 N   0  0  0  0  0  0  0  0  0  0  0  0
  196.3380  172.0570  145.7380 O   0  0  0  0  0  0  0  0  0  0  0  0
  188.0720  176.5510  144.6860 C   0  0  2  0  0  3  0  0  0  0  0  0
  191.6480  173.1370  143.8610 C   0  0  0  0  0  0  0  0  0  0  0  0
  195.1130  174.0510  145.0670 C   0  0  2  0  0  3  0  0  0  0  0  0
  191.9630  174.4560  144.5330 C   0  0  2  0  0  3  0  0  0  0  0  0
  191.1450  170.7320  142.5610 C   0  0  0  0  0  3  0  0  0  0  0  0
  190.0130  177.2480  146.1350 C   0  0  0  0  0  2  0  0  0  0  0  0
  192.1990  170.8500  143.4110 N   0  0  0  0  0  0  0  0  0  0  0  0
  191.1070  176.7100  145.2260 C   0  0  0  0  0  2  0  0  0  0  0  0
  188.6890  176.2680  143.3050 C   0  0  1  0  0  3  0  0  0  0  0  0
  190.3020  171.8200  142.3360 C   0  0  0  0  0  3  0  0  0  0  0  0
  189.6900  174.1620  142.8000 N   0  0  0  0  0  0  0  0  0  0  0  0
  186.7220  176.8960  144.5600 O   0  0  0  0  0  0  0  0  0  0  0  0
  186.6710  178.2590  144.8610 C   0  0  0  0  0  2  0  0  0  0  0  0
  185.2550  178.4430  141.5990 C   0  0  0  0  0  2  0  0  0  0  0  0
  184.4340  178.2630  143.7600 C   0  0  0  0  0  2  0  0  0  0  0  0
  185.7710  178.9750  143.8690 C   0  0  2  0  0  3  0  0  0  0  0  0
  184.3250  177.6910  142.4260 N   0  0  0  0  0  2  0  0  0  0  0  0
  186.3810  178.8970  142.4940 C   0  0  0  0  0  2  0  0  0  0  0  0
  1 18  1  0  0  0  0
  2 14  1  0  0  0  0
  2 27  1  0  0  0  0
  3  7  1  1  0  0  0
  3 19  1  0  0  0  0
  3 16  1  0  0  0  0
  4 15  1  0  0  0  0
  5 11  1  6  0  0  0
  8 12  1  0  0  0  0
  8 16  1  0  0  0  0
  9 27  1  1  0  0  0
  9 13  1  0  0  0  0
 10 22  1  0  0  0  0
 13 24  1  6  0  0  0
 15 12  1  0  0  0  0
 15  5  1  0  0  0  0
 17 28  1  6  0  0  0
 17 10  1  0  0  0  0
 18  4  2  0  0  0  0
 18 20  1  0  0  0  0
 19  6  1  6  0  0  0
 19  5  1  0  0  0  0
 20 13  1  0  0  0  0
 20 11  1  1  0  0  0
 21 23  2  0  0  0  0
 23  4  1  0  0  0  0
 24 22  1  0  0  0  0
 25 14  1  6  0  0  0
 25  9  1  0  0  0  0
 25 17  1  0  0  0  0
 26 21  1  0  0  0  0
 26  1  2  0  0  0  0
 27  1  1  0  0  0  0
 28 29  1  0  0  0  0
 30 33  1  0  0  0  0
 30 34  1  0  0  0  0
 31 32  1  0  0  0  0
 32 29  1  1  0  0  0
 33 31  1  0  0  0  0
 34 32  1  0  0  0  0
M  END
>  <MODEL>
5

>  <REMARK>
 VINA RESULT:      -8.2      1.731      8.568
  Name = 
  3 active torsions:
  status: ('A' for Active; 'I' for Inactive)
    1  A    between atoms: C_17  and  O_28
    2  A    between atoms: O_28  and  C_29
    3  A    between atoms: C_29  and  C_32
                            x       y       z     vdW  Elec       q    Type
                         _______ _______ _______ _____ _____    ______ ____

>  <TORSDO>
F 3

$$$$
=
 OpenBabel11112417483D

 34 40  0  0  1  0  0  0  0  0999 V2000
  190.3200  176.5730  145.7990 C   0  0  0  0  0  0  0  0  0  0  0  0
  192.6390  175.8120  146.5070 C   0  0  0  0  0  2  0  0  0  0  0  0
  185.9550  177.9170  141.8320 C   0  0  1  0  0  3  0  0  0  0  0  0
  187.9880  176.8740  145.2010 C   0  0  0  0  0  0  0  0  0  0  0  0
  187.0690  175.9340  143.0330 C   0  0  1  0  0  3  0  0  0  0  0  0
  188.3190  177.6010  141.7870 O   0  0  0  0  0  1  0  0  0  0  0  0
  185.6030  178.2910  140.4070 C   0  0  0  0  0  1  0  0  0  0  0  0
  184.8810  177.9520  143.7760 C   0  0  0  0  0  2  0  0  0  0  0  0
  191.9350  175.4490  144.2160 C   0  0  2  0  0  3  0  0  0  0  0  0
  192.9550  172.6670  142.9080 C   0  0  0  0  0  2  0  0  0  0  0  0
  188.2540  174.9640  143.0800 C   0  0  0  0  0  2  0  0  0  0  0  0
  185.5190  176.9490  144.7320 C   0  0  0  0  0  2  0  0  0  0  0  0
  190.7130  174.7030  143.6500 C   0  0  1  0  0  3  0  0  0  0  0  0
  193.7580  175.0720  145.7980 C   0  0  0  0  0  2  0  0  0  0  0  0
  186.8820  176.6310  144.3120 N   0  0  0  0  0  0  0  0  0  0  0  0
  184.8180  177.4170  142.4830 O   0  0  0  0  0  0  0  0  0  0  0  0
  193.0340  173.1060  144.3670 C   0  0  2  0  0  3  0  0  0  0  0  0
  189.2670  176.3700  144.8920 C   0  0  0  0  0  0  0  0  0  0  0  0
  187.1090  176.9060  141.8340 C   0  0  2  0  0  3  0  0  0  0  0  0
  189.5200  175.6700  143.5740 C   0  0  2  0  0  3  0  0  0  0  0  0
  188.8000  177.7440  147.2630 C   0  0  0  0  0  3  0  0  0  0  0  0
  191.5300  172.7200  142.3820 C   0  0  0  0  0  2  0  0  0  0  0  0
  187.7930  177.5410  146.3730 N   0  0  0  0  0  0  0  0  0  0  0  0
  191.0290  174.1510  142.2670 C   0  0  0  0  0  2  0  0  0  0  0  0
  193.2210  174.6320  144.4340 C   0  0  1  0  0  3  0  0  0  0  0  0
  190.0800  177.2590  146.9940 C   0  0  0  0  0  3  0  0  0  0  0  0
  191.6160  176.0340  145.5060 N   0  0  0  0  0  0  0  0  0  0  0  0
  194.1160  172.4510  144.9640 O   0  0  0  0  0  0  0  0  0  0  0  0
  194.9210  172.0420  143.8990 C   0  0  0  0  0  2  0  0  0  0  0  0
  197.5540  174.1650  145.0130 C   0  0  0  0  0  2  0  0  0  0  0  0
  196.5680  172.2040  145.7630 C   0  0  0  0  0  2  0  0  0  0  0  0
  196.3850  172.2250  144.2550 C   0  0  2  0  0  3  0  0  0  0  0  0
  196.9900  173.5300  146.1920 N   0  0  0  0  0  2  0  0  0  0  0  0
  196.8420  173.5910  143.8130 C   0  0  0  0  0  2  0  0  0  0  0  0
  1 26  1  0  0  0  0
  3  7  1  6  0  0  0
  3 19  1  0  0  0  0
  3 16  1  0  0  0  0
  4 23  2  0  0  0  0
  5 11  1  1  0  0  0
  5 15  1  0  0  0  0
  8 12  1  0  0  0  0
  9 25  1  0  0  0  0
  9 27  1  1  0  0  0
 10 17  1  0  0  0  0
 13 24  1  6  0  0  0
 13  9  1  0  0  0  0
 14  2  1  0  0  0  0
 15 12  1  0  0  0  0
 15  4  1  0  0  0  0
 16  8  1  0  0  0  0
 17 25  1  0  0  0  0
 17 28  1  6  0  0  0
 18  4  1  0  0  0  0
 18  1  2  0  0  0  0
 19  6  1  1  0  0  0
 19  5  1  0  0  0  0
 20 11  1  1  0  0  0
 20 13  1  0  0  0  0
 20 18  1  0  0  0  0
 22 10  1  0  0  0  0
 23 21  1  0  0  0  0
 24 22  1  0  0  0  0
 25 14  1  1  0  0  0
 26 21  2  0  0  0  0
 27  1  1  0  0  0  0
 27  2  1  0  0  0  0
 29 28  1  0  0  0  0
 30 33  1  0  0  0  0
 31 33  1  0  0  0  0
 32 29  1  1  0  0  0
 32 31  1  0  0  0  0
 34 32  1  0  0  0  0
 34 30  1  0  0  0  0
M  END
>  <MODEL>
6

>  <REMARK>
 VINA RESULT:      -8.0      1.758      3.625
  Name = 
  3 active torsions:
  status: ('A' for Active; 'I' for Inactive)
    1  A    between atoms: C_17  and  O_28
    2  A    between atoms: O_28  and  C_29
    3  A    between atoms: C_29  and  C_32
                            x       y       z     vdW  Elec       q    Type
                         _______ _______ _______ _____ _____    ______ ____

>  <TORSDO>
F 3

$$$$
=
 OpenBabel11112417483D

 34 40  0  0  1  0  0  0  0  0999 V2000
  189.8630  174.6450  142.2150 C   0  0  0  0  0  0  0  0  0  0  0  0
  187.5460  175.6630  142.4490 C   0  0  0  0  0  2  0  0  0  0  0  0
  195.8560  174.3970  143.0020 C   0  0  1  0  0  3  0  0  0  0  0  0
  191.9570  173.4280  142.3480 C   0  0  0  0  0  0  0  0  0  0  0  0
  193.6290  173.9100  144.1920 C   0  0  1  0  0  3  0  0  0  0  0  0
  194.1410  176.0470  143.1600 O   0  0  0  0  0  1  0  0  0  0  0  0
  197.1310  175.1560  143.3080 C   0  0  0  0  0  1  0  0  0  0  0  0
  195.3830  172.3850  142.1890 C   0  0  0  0  0  2  0  0  0  0  0  0
  189.3510  176.5310  143.8150 C   0  0  2  0  0  3  0  0  0  0  0  0
  188.4900  177.3770  146.8220 C   0  0  0  0  0  2  0  0  0  0  0  0
  192.4380  174.4800  144.9700 C   0  0  0  0  0  2  0  0  0  0  0  0
  193.9850  171.9690  142.6350 C   0  0  0  0  0  2  0  0  0  0  0  0
  190.2890  175.8180  144.8060 C   0  0  1  0  0  3  0  0  0  0  0  0
  186.9600  176.7320  143.3540 C   0  0  0  0  0  2  0  0  0  0  0  0
  193.1960  173.1360  143.0210 N   0  0  0  0  0  0  0  0  0  0  0  0
  196.0540  173.0290  143.2370 O   0  0  0  0  0  0  0  0  0  0  0  0
  187.6700  176.6120  145.7880 C   0  0  2  0  0  3  0  0  0  0  0  0
  191.0910  174.4150  142.8570 C   0  0  0  0  0  0  0  0  0  0  0  0
  194.7010  174.9630  143.8380 C   0  0  2  0  0  3  0  0  0  0  0  0
  191.5010  175.2600  144.0440 C   0  0  2  0  0  3  0  0  0  0  0  0
  190.4010  172.9170  140.6200 C   0  0  0  0  0  3  0  0  0  0  0  0
  189.8260  176.7010  147.0900 C   0  0  0  0  0  2  0  0  0  0  0  0
  191.5870  172.7090  141.2510 N   0  0  0  0  0  0  0  0  0  0  0  0
  190.7490  176.7890  145.8850 C   0  0  0  0  0  2  0  0  0  0  0  0
  188.0370  177.1040  144.3760 C   0  0  1  0  0  3  0  0  0  0  0  0
  189.5160  173.8850  141.0940 C   0  0  0  0  0  3  0  0  0  0  0  0
  188.9630  175.6270  142.7490 N   0  0  0  0  0  0  0  0  0  0  0  0
  186.3140  176.8380  146.0490 O   0  0  0  0  0  0  0  0  0  0  0  0
  186.2940  177.9160  146.9370 C   0  0  0  0  0  2  0  0  0  0  0  0
  184.8760  179.7910  144.2630 C   0  0  0  0  0  2  0  0  0  0  0  0
  184.0850  178.2910  145.8450 C   0  0  0  0  0  2  0  0  0  0  0  0
  185.3010  178.9610  146.4620 C   0  0  2  0  0  3  0  0  0  0  0  0
  184.0660  178.5940  144.4210 N   0  0  0  0  0  2  0  0  0  0  0  0
  185.9190  179.7710  145.3520 C   0  0  0  0  0  2  0  0  0  0  0  0
  1 27  1  0  0  0  0
  1 18  1  0  0  0  0
  2 27  1  0  0  0  0
  2 14  1  0  0  0  0
  3 16  1  0  0  0  0
  3  7  1  1  0  0  0
  3 19  1  0  0  0  0
  4 18  2  0  0  0  0
  4 15  1  0  0  0  0
  5 11  1  6  0  0  0
  8 12  1  0  0  0  0
  8 16  1  0  0  0  0
  9 27  1  6  0  0  0
  9 25  1  0  0  0  0
  9 13  1  0  0  0  0
 10 22  1  0  0  0  0
 12 15  1  0  0  0  0
 13 24  1  1  0  0  0
 15  5  1  0  0  0  0
 17 28  1  1  0  0  0
 17 10  1  0  0  0  0
 18 20  1  0  0  0  0
 19  6  1  6  0  0  0
 19  5  1  0  0  0  0
 20 13  1  0  0  0  0
 20 11  1  1  0  0  0
 21 26  1  0  0  0  0
 21 23  2  0  0  0  0
 23  4  1  0  0  0  0
 24 22  1  0  0  0  0
 25 14  1  6  0  0  0
 25 17  1  0  0  0  0
 26  1  2  0  0  0  0
 28 29  1  0  0  0  0
 30 33  1  0  0  0  0
 30 34  1  0  0  0  0
 31 32  1  0  0  0  0
 32 29  1  6  0  0  0
 33 31  1  0  0  0  0
 34 32  1  0  0  0  0
M  END
>  <MODEL>
7

>  <REMARK>
 VINA RESULT:      -7.9      2.046      8.476
  Name = 
  3 active torsions:
  status: ('A' for Active; 'I' for Inactive)
    1  A    between atoms: C_17  and  O_28
    2  A    between atoms: O_28  and  C_29
    3  A    between atoms: C_29  and  C_32
                            x       y       z     vdW  Elec       q    Type
                         _______ _______ _______ _____ _____    ______ ____

>  <TORSDO>
F 3

$$$$
=
 OpenBabel11112417483D

 34 40  0  0  1  0  0  0  0  0999 V2000
  190.4650  176.5570  145.2100 C   0  0  0  0  0  0  0  0  0  0  0  0
  192.8550  175.7870  145.5970 C   0  0  0  0  0  2  0  0  0  0  0  0
  185.6620  178.0810  141.8620 C   0  0  1  0  0  3  0  0  0  0  0  0
  188.0780  176.8600  144.9020 C   0  0  0  0  0  0  0  0  0  0  0  0
  186.9210  176.0440  142.7990 C   0  0  1  0  0  3  0  0  0  0  0  0
  188.0070  177.8030  141.5270 O   0  0  0  0  0  1  0  0  0  0  0  0
  185.1450  178.5380  140.5130 C   0  0  0  0  0  1  0  0  0  0  0  0
  184.8180  177.9790  143.9150 C   0  0  0  0  0  2  0  0  0  0  0  0
  191.8950  175.5570  143.3840 C   0  0  2  0  0  3  0  0  0  0  0  0
  192.7780  172.8770  141.7930 C   0  0  0  0  0  2  0  0  0  0  0  0
  188.1110  175.0900  142.6480 C   0  0  0  0  0  2  0  0  0  0  0  0
  185.5700  176.9280  144.7250 C   0  0  0  0  0  2  0  0  0  0  0  0
  190.6210  174.8300  142.9150 C   0  0  1  0  0  3  0  0  0  0  0  0
  193.8910  175.1090  144.7190 C   0  0  0  0  0  2  0  0  0  0  0  0
  186.8780  176.6560  144.1330 N   0  0  0  0  0  0  0  0  0  0  0  0
  184.6110  177.5250  142.6060 O   0  0  0  0  0  0  0  0  0  0  0  0
  193.0210  173.2250  143.2590 C   0  0  2  0  0  3  0  0  0  0  0  0
  189.3150  176.3950  144.4180 C   0  0  0  0  0  0  0  0  0  0  0  0
  186.8160  177.0890  141.6680 C   0  0  2  0  0  3  0  0  0  0  0  0
  189.4210  175.7820  143.0380 C   0  0  2  0  0  3  0  0  0  0  0  0
  189.1150  177.6110  146.9090 C   0  0  0  0  0  3  0  0  0  0  0  0
  191.3010  172.9420  141.4390 C   0  0  0  0  0  2  0  0  0  0  0  0
  188.0140  177.4490  146.1290 N   0  0  0  0  0  0  0  0  0  0  0  0
  190.7790  174.3700  141.4730 C   0  0  0  0  0  2  0  0  0  0  0  0
  193.2030  174.7470  143.4000 C   0  0  1  0  0  3  0  0  0  0  0  0
  190.3600  177.1630  146.4650 C   0  0  0  0  0  3  0  0  0  0  0  0
  191.7220  176.0550  144.7360 N   0  0  0  0  0  0  0  0  0  0  0  0
  194.1700  172.5510  143.6850 O   0  0  0  0  0  0  0  0  0  0  0  0
  193.7000  171.5320  144.5180 C   0  0  0  0  0  2  0  0  0  0  0  0
  196.3900  169.9830  146.2620 C   0  0  0  0  0  2  0  0  0  0  0  0
  195.8990  172.1280  145.5300 C   0  0  0  0  0  2  0  0  0  0  0  0
  194.5640  171.4390  145.7620 C   0  0  2  0  0  3  0  0  0  0  0  0
  196.9450  171.1160  145.5410 N   0  0  0  0  0  2  0  0  0  0  0  0
  194.8990  169.9960  146.0330 C   0  0  0  0  0  2  0  0  0  0  0  0
  1 26  1  0  0  0  0
  3  7  1  6  0  0  0
  3 16  1  0  0  0  0
  4 23  2  0  0  0  0
  5 11  1  6  0  0  0
  5 15  1  0  0  0  0
  8 12  1  0  0  0  0
  9 25  1  0  0  0  0
  9 27  1  1  0  0  0
 10 17  1  0  0  0  0
 13 24  1  6  0  0  0
 13 20  1  0  0  0  0
 13  9  1  0  0  0  0
 14  2  1  0  0  0  0
 15 12  1  0  0  0  0
 15  4  1  0  0  0  0
 16  8  1  0  0  0  0
 17 25  1  0  0  0  0
 17 28  1  6  0  0  0
 18  4  1  0  0  0  0
 18  1  2  0  0  0  0
 19  6  1  1  0  0  0
 19  3  1  0  0  0  0
 19  5  1  0  0  0  0
 20 11  1  1  0  0  0
 20 18  1  0  0  0  0
 22 24  1  0  0  0  0
 22 10  1  0  0  0  0
 23 21  1  0  0  0  0
 25 14  1  1  0  0  0
 26 21  2  0  0  0  0
 27  1  1  0  0  0  0
 27  2  1  0  0  0  0
 28 29  1  0  0  0  0
 31 33  1  0  0  0  0
 31 32  1  0  0  0  0
 32 29  1  6  0  0  0
 32 34  1  0  0  0  0
 33 30  1  0  0  0  0
 34 30  1  0  0  0  0
M  END
>  <MODEL>
8

>  <REMARK>
 VINA RESULT:      -7.7      1.924      3.730
  Name = 
  3 active torsions:
  status: ('A' for Active; 'I' for Inactive)
    1  A    between atoms: C_17  and  O_28
    2  A    between atoms: O_28  and  C_29
    3  A    between atoms: C_29  and  C_32
                            x       y       z     vdW  Elec       q    Type
                         _______ _______ _______ _____ _____    ______ ____

>  <TORSDO>
F 3

$$$$
=
 OpenBabel11112417483D

 34 40  0  0  1  0  0  0  0  0999 V2000
  192.3770  176.2060  146.0630 C   0  0  0  0  0  0  0  0  0  0  0  0
  194.8170  175.4980  146.0460 C   0  0  0  0  0  2  0  0  0  0  0  0
  187.1690  178.0200  143.5760 C   0  0  1  0  0  3  0  0  0  0  0  0
  189.9620  176.4400  146.0800 C   0  0  0  0  0  0  0  0  0  0  0  0
  188.5880  175.9210  144.0140 C   0  0  1  0  0  3  0  0  0  0  0  0
  189.4650  177.9130  142.9380 O   0  0  0  0  0  1  0  0  0  0  0  0
  186.4830  178.6640  142.3890 C   0  0  0  0  0  1  0  0  0  0  0  0
  186.5780  177.5470  145.6650 C   0  0  0  0  0  2  0  0  0  0  0  0
  193.6080  175.5850  143.9470 C   0  0  2  0  0  3  0  0  0  0  0  0
  194.3730  173.2430  141.8440 C   0  0  0  0  0  2  0  0  0  0  0  0
  189.7790  175.0620  143.5740 C   0  0  0  0  0  2  0  0  0  0  0  0
  187.4500  176.4160  146.2000 C   0  0  0  0  0  2  0  0  0  0  0  0
  192.3090  174.8830  143.5100 C   0  0  1  0  0  3  0  0  0  0  0  0
  195.7610  175.0220  144.9560 C   0  0  0  0  0  2  0  0  0  0  0  0
  188.6860  176.3060  145.4280 N   0  0  0  0  0  0  0  0  0  0  0  0
  186.2300  177.3010  144.3300 O   0  0  0  0  0  0  0  0  0  0  0  0
  194.7780  173.3600  143.3100 C   0  0  2  0  0  3  0  0  0  0  0  0
  191.1470  176.1190  145.3900 C   0  0  0  0  0  0  0  0  0  0  0  0
  188.3190  177.1290  143.0910 C   0  0  2  0  0  3  0  0  0  0  0  0
  191.1050  175.7440  143.9240 C   0  0  2  0  0  3  0  0  0  0  0  0
  191.2090  176.9050  148.0550 C   0  0  0  0  0  3  0  0  0  0  0  0
  192.8630  173.2940  141.6730 C   0  0  0  0  0  2  0  0  0  0  0  0
  190.0280  176.8190  147.3880 N   0  0  0  0  0  0  0  0  0  0  0  0
  192.3080  174.6710  142.0030 C   0  0  0  0  0  2  0  0  0  0  0  0
  194.9320  174.8460  143.6820 C   0  0  1  0  0  3  0  0  0  0  0  0
  192.4040  176.5950  147.4060 C   0  0  0  0  0  3  0  0  0  0  0  0
  193.5830  175.8480  145.3740 N   0  0  0  0  0  0  0  0  0  0  0  0
  195.9880  172.6810  143.4870 O   0  0  0  0  0  0  0  0  0  0  0  0
  195.6220  171.3820  143.8460 C   0  0  0  0  0  2  0  0  0  0  0  0
  195.3820  169.3640  146.7700 C   0  0  0  0  0  2  0  0  0  0  0  0
  196.8160  171.0170  146.0040 C   0  0  0  0  0  2  0  0  0  0  0  0
  195.4700  171.2850  145.3540 C   0  0  2  0  0  3  0  0  0  0  0  0
  196.7880  169.6830  146.5860 N   0  0  0  0  0  2  0  0  0  0  0  0
  194.6150  170.0920  145.6950 C   0  0  0  0  0  2  0  0  0  0  0  0
  1 26  1  0  0  0  0
  3  7  1  6  0  0  0
  3 16  1  0  0  0  0
  4 23  2  0  0  0  0
  5 11  1  6  0  0  0
  5 15  1  0  0  0  0
  8 12  1  0  0  0  0
  9 27  1  1  0  0  0
 10 17  1  0  0  0  0
 13 24  1  6  0  0  0
 13 20  1  0  0  0  0
 13  9  1  0  0  0  0
 14  2  1  0  0  0  0
 15  4  1  0  0  0  0
 15 12  1  0  0  0  0
 16  8  1  0  0  0  0
 17 28  1  6  0  0  0
 17 25  1  0  0  0  0
 18  1  2  0  0  0  0
 18  4  1  0  0  0  0
 19  6  1  1  0  0  0
 19  3  1  0  0  0  0
 19  5  1  0  0  0  0
 20 11  1  1  0  0  0
 20 18  1  0  0  0  0
 22 10  1  0  0  0  0
 22 24  1  0  0  0  0
 23 21  1  0  0  0  0
 25  9  1  0  0  0  0
 25 14  1  1  0  0  0
 26 21  2  0  0  0  0
 27  2  1  0  0  0  0
 27  1  1  0  0  0  0
 28 29  1  0  0  0  0
 31 33  1  0  0  0  0
 32 29  1  6  0  0  0
 32 34  1  0  0  0  0
 32 31  1  0  0  0  0
 33 30  1  0  0  0  0
 34 30  1  0  0  0  0
M  END
>  <MODEL>
9

>  <REMARK>
 VINA RESULT:      -7.6      2.203      3.946
  Name = 
  3 active torsions:
  status: ('A' for Active; 'I' for Inactive)
    1  A    between atoms: C_17  and  O_28
    2  A    between atoms: O_28  and  C_29
    3  A    between atoms: C_29  and  C_32
                            x       y       z     vdW  Elec       q    Type
                         _______ _______ _______ _____ _____    ______ ____

>  <TORSDO>
F 3

$$$$
