=
 OpenBabel11112417413D

 28 32  0  0  1  0  0  0  0  0999 V2000
  186.9230  178.1630  144.6240 C   0  0  0  0  0  0  0  0  0  0  0  0
  190.3890  177.8740  145.2460 O   0  0  0  0  0  1  0  0  0  0  0  0
  188.0170  173.5570  141.1650 O   0  0  0  0  0  0  0  0  0  0  0  0
  185.5760  177.6230  147.0240 C   0  0  0  0  0  3  0  0  0  0  0  0
  189.9150  174.0500  142.5860 C   0  0  2  0  0  3  0  0  0  0  0  0
  187.5620  178.4470  143.4180 O   0  0  0  0  0  0  0  0  0  0  0  0
  189.5480  177.6410  147.4490 C   0  0  0  0  0  1  0  0  0  0  0  0
  190.2590  176.9600  146.2960 C   0  0  1  0  0  0  0  0  0  0  0  0
  192.3200  175.5250  146.1320 C   0  0  0  0  0  0  0  0  0  0  0  0
  189.4700  175.6980  145.8490 C   0  0  2  0  0  3  0  0  0  0  0  0
  186.1980  177.4750  140.0790 C   0  0  0  0  0  1  0  0  0  0  0  0
  188.8330  176.0760  143.5180 C   0  0  1  0  0  3  0  0  0  0  0  0
  191.7300  174.6980  145.3260 N   0  0  0  0  0  0  0  0  0  0  0  0
  191.5880  176.5810  146.7530 N   0  0  0  0  0  2  0  0  0  0  0  0
  187.0610  177.3540  141.3160 C   0  0  2  0  0  3  0  0  0  0  0  0
  187.2730  177.0210  145.3850 C   0  0  0  0  0  0  0  0  0  0  0  0
  188.5670  174.2960  142.0250 C   0  0  0  0  0  0  0  0  0  0  0  0
  193.6920  175.3370  146.4540 N   0  0  0  0  0  1  0  0  0  0  0  0
  186.7280  176.0520  142.0370 C   0  0  0  0  0  2  0  0  0  0  0  0
  186.5770  176.7610  146.5750 C   0  0  0  0  0  3  0  0  0  0  0  0
  185.9090  179.0170  145.0790 C   0  0  0  0  0  3  0  0  0  0  0  0
  185.2410  178.7520  146.2750 C   0  0  0  0  0  3  0  0  0  0  0  0
  186.8230  178.5680  142.2110 C   0  0  0  0  0  2  0  0  0  0  0  0
  190.1270  175.2440  143.5260 C   0  0  1  0  0  3  0  0  0  0  0  0
  187.9420  175.4380  142.5680 N   0  0  0  0  0  0  0  0  0  0  0  0
  190.3140  174.7730  144.9620 C   0  0  2  0  0  3  0  0  0  0  0  0
  190.9550  174.0920  141.4830 C   0  0  0  0  0  1  0  0  0  0  0  0
  188.2760  175.9810  144.9340 C   0  0  2  0  0  3  0  0  0  0  0  0
  1 21  2  0  0  0  0
  1 16  1  0  0  0  0
  2  8  1  0  0  0  0
  3 17  2  0  0  0  0
  5 27  1  6  0  0  0
  5 24  1  0  0  0  0
  6  1  1  0  0  0  0
  8 14  1  0  0  0  0
  8  7  1  1  0  0  0
  9 18  1  0  0  0  0
  9 14  1  0  0  0  0
 10  8  1  0  0  0  0
 11 15  1  0  0  0  0
 12 24  1  0  0  0  0
 12 28  1  0  0  0  0
 13  9  2  0  0  0  0
 15 19  1  0  0  0  0
 15 23  1  0  0  0  0
 16 20  2  0  0  0  0
 17 25  1  0  0  0  0
 17  5  1  0  0  0  0
 19 25  1  0  0  0  0
 20  4  1  0  0  0  0
 21 22  1  0  0  0  0
 22  4  2  0  0  0  0
 23  6  1  0  0  0  0
 24 26  1  0  0  0  0
 25 12  1  0  0  0  0
 26 13  1  0  0  0  0
 26 10  1  0  0  0  0
 28 16  1  0  0  0  0
 28 10  1  0  0  0  0
M  END
>  <MODEL>
1

>  <REMARK>
 VINA RESULT:      -9.2      0.000      0.000
  Name = 
  0 active torsions:
  status: ('A' for Active; 'I' for Inactive)
                            x       y       z     vdW  Elec       q    Type
                         _______ _______ _______ _____ _____    ______ ____

>  <TORSDO>
F 0

$$$$
=
 OpenBabel11112417413D

 28 32  0  0  1  0  0  0  0  0999 V2000
  190.3010  175.3850  143.6610 C   0  0  0  0  0  0  0  0  0  0  0  0
  188.2960  177.6210  141.8010 O   0  0  0  0  0  1  0  0  0  0  0  0
  186.4290  176.7280  147.8530 O   0  0  0  0  0  0  0  0  0  0  0  0
  190.0490  172.8430  142.5040 C   0  0  0  0  0  3  0  0  0  0  0  0
  185.6990  177.5530  145.6960 C   0  0  2  0  0  3  0  0  0  0  0  0
  190.4580  176.6370  144.2540 O   0  0  0  0  0  0  0  0  0  0  0  0
  188.1030  175.6730  140.4640 C   0  0  0  0  0  1  0  0  0  0  0  0
  187.3830  176.6530  141.3710 C   0  0  1  0  0  0  0  0  0  0  0  0
  185.1970  177.8880  141.2050 C   0  0  0  0  0  0  0  0  0  0  0  0
  186.7500  175.9030  142.5750 C   0  0  2  0  0  3  0  0  0  0  0  0
  190.8630  177.1440  147.9330 C   0  0  0  0  0  1  0  0  0  0  0  0
  187.7930  176.8270  144.5860 C   0  0  1  0  0  3  0  0  0  0  0  0
  184.9080  177.6270  142.4420 N   0  0  0  0  0  0  0  0  0  0  0  0
  186.3450  177.3050  140.5880 N   0  0  0  0  0  2  0  0  0  0  0  0
  190.1280  177.0830  146.6120 C   0  0  2  0  0  3  0  0  0  0  0  0
  189.0160  174.8780  143.3540 C   0  0  0  0  0  0  0  0  0  0  0  0
  186.6510  176.9020  146.6250 C   0  0  0  0  0  0  0  0  0  0  0  0
  184.3260  178.7080  140.4370 N   0  0  0  0  0  1  0  0  0  0  0  0
  189.0360  176.0220  146.6910 C   0  0  0  0  0  2  0  0  0  0  0  0
  188.9100  173.5980  142.7890 C   0  0  0  0  0  3  0  0  0  0  0  0
  191.4380  174.6140  143.3800 C   0  0  0  0  0  3  0  0  0  0  0  0
  191.3140  173.3510  142.7990 C   0  0  0  0  0  3  0  0  0  0  0  0
  191.1280  176.7760  145.4990 C   0  0  0  0  0  2  0  0  0  0  0  0
  186.4600  177.5620  144.3640 C   0  0  1  0  0  3  0  0  0  0  0  0
  187.8360  176.4710  145.9910 N   0  0  0  0  0  0  0  0  0  0  0  0
  185.7100  176.7610  143.3090 C   0  0  2  0  0  3  0  0  0  0  0  0
  185.4390  178.9820  146.1330 C   0  0  0  0  0  1  0  0  0  0  0  0
  187.7240  175.5800  143.7120 C   0  0  2  0  0  3  0  0  0  0  0  0
  1  6  1  0  0  0  0
  4 20  2  0  0  0  0
  4 22  1  0  0  0  0
  5 27  1  1  0  0  0
  5 17  1  0  0  0  0
  6 23  1  0  0  0  0
  8  7  1  6  0  0  0
  8  2  1  0  0  0  0
  8 10  1  0  0  0  0
  9 13  2  0  0  0  0
 10 26  1  0  0  0  0
 10 28  1  0  0  0  0
 12 25  1  0  0  0  0
 13 26  1  0  0  0  0
 14  9  1  0  0  0  0
 14  8  1  0  0  0  0
 15 19  1  0  0  0  0
 15 11  1  0  0  0  0
 16  1  2  0  0  0  0
 16 28  1  0  0  0  0
 17  3  2  0  0  0  0
 18  9  1  0  0  0  0
 20 16  1  0  0  0  0
 21  1  1  0  0  0  0
 22 21  2  0  0  0  0
 23 15  1  0  0  0  0
 24 12  1  0  0  0  0
 24  5  1  0  0  0  0
 25 17  1  0  0  0  0
 25 19  1  0  0  0  0
 26 24  1  0  0  0  0
 28 12  1  0  0  0  0
M  END
>  <MODEL>
2

>  <REMARK>
 VINA RESULT:      -8.9      2.157      6.507
  Name = 
  0 active torsions:
  status: ('A' for Active; 'I' for Inactive)
                            x       y       z     vdW  Elec       q    Type
                         _______ _______ _______ _____ _____    ______ ____

>  <TORSDO>
F 0

$$$$
=
 OpenBabel11112417413D

 28 32  0  0  1  0  0  0  0  0999 V2000
  187.8920  177.4610  144.6370 C   0  0  0  0  0  0  0  0  0  0  0  0
  191.3910  177.1880  145.0430 O   0  0  0  0  0  1  0  0  0  0  0  0
  188.7960  172.8830  141.0870 O   0  0  0  0  0  0  0  0  0  0  0  0
  186.6970  176.8990  147.1110 C   0  0  0  0  0  3  0  0  0  0  0  0
  190.7750  173.3780  142.3920 C   0  0  2  0  0  3  0  0  0  0  0  0
  188.4540  177.7570  143.3950 O   0  0  0  0  0  0  0  0  0  0  0  0
  190.6870  176.9370  147.2920 C   0  0  0  0  0  1  0  0  0  0  0  0
  191.3300  176.2670  146.0930 C   0  0  1  0  0  0  0  0  0  0  0  0
  193.3840  174.8450  145.7940 C   0  0  0  0  0  0  0  0  0  0  0  0
  190.5210  175.0040  145.6880 C   0  0  2  0  0  3  0  0  0  0  0  0
  186.8930  176.7980  140.1400 C   0  0  0  0  0  1  0  0  0  0  0  0
  189.7410  175.3920  143.4020 C   0  0  1  0  0  3  0  0  0  0  0  0
  192.7510  174.0200  145.0200 N   0  0  0  0  0  0  0  0  0  0  0  0
  192.6860  175.8930  146.4650 N   0  0  0  0  0  2  0  0  0  0  0  0
  187.8310  176.6740  141.3210 C   0  0  2  0  0  3  0  0  0  0  0  0
  188.2940  176.3170  145.3670 C   0  0  0  0  0  0  0  0  0  0  0  0
  189.3940  173.6200  141.9170 C   0  0  0  0  0  0  0  0  0  0  0  0
  194.7740  174.6620  146.0300 N   0  0  0  0  0  1  0  0  0  0  0  0
  187.5500  175.3660  142.0530 C   0  0  0  0  0  2  0  0  0  0  0  0
  187.6730  176.0450  146.5950 C   0  0  0  0  0  3  0  0  0  0  0  0
  186.9020  178.3070  145.1590 C   0  0  0  0  0  3  0  0  0  0  0  0
  186.3110  178.0300  146.3920 C   0  0  0  0  0  3  0  0  0  0  0  0
  187.6410  177.8810  142.2370 C   0  0  0  0  0  2  0  0  0  0  0  0
  191.0380  174.5680  143.3260 C   0  0  1  0  0  3  0  0  0  0  0  0
  188.7970  174.7550  142.5050 N   0  0  0  0  0  0  0  0  0  0  0  0
  191.3140  174.0880  144.7440 C   0  0  2  0  0  3  0  0  0  0  0  0
  191.7450  173.4330  141.2280 C   0  0  0  0  0  1  0  0  0  0  0  0
  189.2730  175.2860  144.8480 C   0  0  2  0  0  3  0  0  0  0  0  0
  1 21  2  0  0  0  0
  1 16  1  0  0  0  0
  2  8  1  0  0  0  0
  3 17  2  0  0  0  0
  5 27  1  6  0  0  0
  5 24  1  0  0  0  0
  6  1  1  0  0  0  0
  8 14  1  0  0  0  0
  8  7  1  1  0  0  0
  9 18  1  0  0  0  0
  9 14  1  0  0  0  0
 10  8  1  0  0  0  0
 11 15  1  0  0  0  0
 12 28  1  0  0  0  0
 13  9  2  0  0  0  0
 15 19  1  0  0  0  0
 15 23  1  0  0  0  0
 16 20  2  0  0  0  0
 17  5  1  0  0  0  0
 17 25  1  0  0  0  0
 19 25  1  0  0  0  0
 20  4  1  0  0  0  0
 21 22  1  0  0  0  0
 22  4  2  0  0  0  0
 23  6  1  0  0  0  0
 24 12  1  0  0  0  0
 24 26  1  0  0  0  0
 25 12  1  0  0  0  0
 26 13  1  0  0  0  0
 26 10  1  0  0  0  0
 28 16  1  0  0  0  0
 28 10  1  0  0  0  0
M  END
>  <MODEL>
3

>  <REMARK>
 VINA RESULT:      -8.4      1.061      1.197
  Name = 
  0 active torsions:
  status: ('A' for Active; 'I' for Inactive)
                            x       y       z     vdW  Elec       q    Type
                         _______ _______ _______ _____ _____    ______ ____

>  <TORSDO>
F 0

$$$$
=
 OpenBabel11112417413D

 28 32  0  0  1  0  0  0  0  0999 V2000
  190.4340  174.7250  141.9330 C   0  0  0  0  0  0  0  0  0  0  0  0
  188.8120  177.8470  142.2600 O   0  0  0  0  0  1  0  0  0  0  0  0
  190.3600  175.0250  147.7880 O   0  0  0  0  0  0  0  0  0  0  0  0
  188.6210  172.9380  140.7570 C   0  0  0  0  0  3  0  0  0  0  0  0
  188.9710  176.7510  146.8090 C   0  0  2  0  0  3  0  0  0  0  0  0
  191.3630  175.5900  142.5090 O   0  0  0  0  0  0  0  0  0  0  0  0
  187.1790  176.6540  141.0240 C   0  0  0  0  0  1  0  0  0  0  0  0
  187.5210  177.3170  142.3450 C   0  0  1  0  0  0  0  0  0  0  0  0
  186.2920  178.9070  143.8590 C   0  0  0  0  0  0  0  0  0  0  0  0
  187.4100  176.2890  143.5050 C   0  0  2  0  0  3  0  0  0  0  0  0
  193.8590  174.5280  145.0770 C   0  0  0  0  0  1  0  0  0  0  0  0
  189.6380  176.1360  144.5030 C   0  0  1  0  0  3  0  0  0  0  0  0
  186.6460  178.2420  144.9140 N   0  0  0  0  0  0  0  0  0  0  0  0
  186.5810  178.4070  142.5540 N   0  0  0  0  0  2  0  0  0  0  0  0
  192.5730  175.1310  144.5560 C   0  0  2  0  0  3  0  0  0  0  0  0
  189.1130  174.6320  142.4350 C   0  0  0  0  0  0  0  0  0  0  0  0
  189.9260  175.6210  146.7660 C   0  0  0  0  0  0  0  0  0  0  0  0
  185.5500  180.1120  144.0020 N   0  0  0  0  0  1  0  0  0  0  0  0
  191.3880  174.3510  145.1170 C   0  0  0  0  0  2  0  0  0  0  0  0
  188.2260  173.7210  141.8430 C   0  0  0  0  0  3  0  0  0  0  0  0
  190.8230  173.9260  140.8490 C   0  0  0  0  0  3  0  0  0  0  0  0
  189.9200  173.0400  140.2600 C   0  0  0  0  0  3  0  0  0  0  0  0
  192.5910  175.1010  143.0290 C   0  0  0  0  0  2  0  0  0  0  0  0
  188.8170  177.1370  145.3320 C   0  0  1  0  0  3  0  0  0  0  0  0
  190.2930  175.2570  145.4520 N   0  0  0  0  0  0  0  0  0  0  0  0
  187.3720  176.9710  144.8800 C   0  0  2  0  0  3  0  0  0  0  0  0
  189.5750  177.9160  147.5700 C   0  0  0  0  0  1  0  0  0  0  0  0
  188.6240  175.3690  143.6630 C   0  0  2  0  0  3  0  0  0  0  0  0
  1 16  1  0  0  0  0
  1  6  1  0  0  0  0
  2  8  1  0  0  0  0
  4 20  1  0  0  0  0
  5 27  1  1  0  0  0
  6 23  1  0  0  0  0
  8  7  1  6  0  0  0
  8 14  1  0  0  0  0
  8 10  1  0  0  0  0
  9 18  1  0  0  0  0
  9 13  2  0  0  0  0
 10 28  1  0  0  0  0
 10 26  1  0  0  0  0
 12 24  1  0  0  0  0
 12 25  1  0  0  0  0
 14  9  1  0  0  0  0
 15 11  1  0  0  0  0
 15 19  1  0  0  0  0
 16 28  1  0  0  0  0
 17  5  1  0  0  0  0
 17  3  2  0  0  0  0
 19 25  1  0  0  0  0
 20 16  2  0  0  0  0
 21  1  2  0  0  0  0
 22  4  2  0  0  0  0
 22 21  1  0  0  0  0
 23 15  1  0  0  0  0
 24  5  1  0  0  0  0
 25 17  1  0  0  0  0
 26 13  1  0  0  0  0
 26 24  1  0  0  0  0
 28 12  1  0  0  0  0
M  END
>  <MODEL>
4

>  <REMARK>
 VINA RESULT:      -8.3      2.119      6.200
  Name = 
  0 active torsions:
  status: ('A' for Active; 'I' for Inactive)
                            x       y       z     vdW  Elec       q    Type
                         _______ _______ _______ _____ _____    ______ ____

>  <TORSDO>
F 0

$$$$
=
 OpenBabel11112417413D

 28 32  0  0  1  0  0  0  0  0999 V2000
  186.5010  176.7980  143.5410 C   0  0  0  0  0  0  0  0  0  0  0  0
  188.5910  173.9540  143.3830 O   0  0  0  0  0  1  0  0  0  0  0  0
  190.1180  178.1660  147.9480 O   0  0  0  0  0  0  0  0  0  0  0  0
  186.8390  178.2420  141.1610 C   0  0  0  0  0  3  0  0  0  0  0  0
  190.9630  176.2830  146.6800 C   0  0  2  0  0  3  0  0  0  0  0  0
  186.3010  176.0980  144.7310 O   0  0  0  0  0  0  0  0  0  0  0  0
  188.8760  174.8050  141.1890 C   0  0  0  0  0  1  0  0  0  0  0  0
  189.5350  174.5310  142.5280 C   0  0  1  0  0  0  0  0  0  0  0  0
  191.7170  173.4760  143.2040 C   0  0  0  0  0  0  0  0  0  0  0  0
  190.1040  175.8480  143.1250 C   0  0  2  0  0  3  0  0  0  0  0  0
  185.6830  177.7550  148.0220 C   0  0  0  0  0  1  0  0  0  0  0  0
  188.9420  176.1980  145.2480 C   0  0  1  0  0  3  0  0  0  0  0  0
  191.9370  174.3990  144.0870 N   0  0  0  0  0  0  0  0  0  0  0  0
  190.6110  173.5770  142.3080 N   0  0  0  0  0  2  0  0  0  0  0  0
  186.4930  177.0750  146.9390 C   0  0  2  0  0  3  0  0  0  0  0  0
  187.8060  177.0750  143.0670 C   0  0  0  0  0  0  0  0  0  0  0  0
  189.9650  177.3210  147.0260 C   0  0  0  0  0  0  0  0  0  0  0  0
  192.6240  172.3880  143.0820 N   0  0  0  0  0  1  0  0  0  0  0  0
  187.5870  178.0220  146.4580 C   0  0  0  0  0  2  0  0  0  0  0  0
  187.9540  177.8120  141.8830 C   0  0  0  0  0  3  0  0  0  0  0  0
  185.3880  177.2440  142.8140 C   0  0  0  0  0  3  0  0  0  0  0  0
  185.5560  177.9590  141.6280 C   0  0  0  0  0  3  0  0  0  0  0  0
  185.5600  176.6720  145.7990 C   0  0  0  0  0  2  0  0  0  0  0  0
  190.2790  175.5010  145.5510 C   0  0  1  0  0  3  0  0  0  0  0  0
  188.8210  177.2870  146.1990 N   0  0  0  0  0  0  0  0  0  0  0  0
  191.0940  175.5830  144.2680 C   0  0  2  0  0  3  0  0  0  0  0  0
  191.1870  175.3610  147.8620 C   0  0  0  0  0  1  0  0  0  0  0  0
  189.0700  176.7320  143.8260 C   0  0  2  0  0  3  0  0  0  0  0  0
  1  6  1  0  0  0  0
  4 22  2  0  0  0  0
  4 20  1  0  0  0  0
  5 17  1  0  0  0  0
  5 27  1  1  0  0  0
  6 23  1  0  0  0  0
  8  7  1  6  0  0  0
  8 10  1  0  0  0  0
  8  2  1  0  0  0  0
  9 13  2  0  0  0  0
 10 28  1  0  0  0  0
 10 26  1  0  0  0  0
 12 24  1  0  0  0  0
 12 25  1  0  0  0  0
 13 26  1  0  0  0  0
 14  8  1  0  0  0  0
 14  9  1  0  0  0  0
 15 11  1  0  0  0  0
 16  1  1  0  0  0  0
 16 28  1  0  0  0  0
 17  3  2  0  0  0  0
 18  9  1  0  0  0  0
 19 15  1  0  0  0  0
 20 16  2  0  0  0  0
 21  1  2  0  0  0  0
 22 21  1  0  0  0  0
 23 15  1  0  0  0  0
 24  5  1  0  0  0  0
 25 19  1  0  0  0  0
 25 17  1  0  0  0  0
 26 24  1  0  0  0  0
 28 12  1  0  0  0  0
M  END
>  <MODEL>
5

>  <REMARK>
 VINA RESULT:      -7.9      1.771      4.680
  Name = 
  0 active torsions:
  status: ('A' for Active; 'I' for Inactive)
                            x       y       z     vdW  Elec       q    Type
                         _______ _______ _______ _____ _____    ______ ____

>  <TORSDO>
F 0

$$$$
=
 OpenBabel11112417413D

 28 32  0  0  1  0  0  0  0  0999 V2000
  190.3010  174.5060  143.9220 C   0  0  0  0  0  0  0  0  0  0  0  0
  187.7770  175.6850  146.0960 O   0  0  0  0  0  1  0  0  0  0  0  0
  186.9550  177.2080  139.9380 O   0  0  0  0  0  0  0  0  0  0  0  0
  192.6950  175.7920  144.6130 C   0  0  0  0  0  3  0  0  0  0  0  0
  186.2510  177.7640  142.1880 C   0  0  2  0  0  3  0  0  0  0  0  0
  189.1310  173.8400  143.5610 O   0  0  0  0  0  0  0  0  0  0  0  0
  189.6810  176.7100  147.0680 C   0  0  0  0  0  1  0  0  0  0  0  0
  188.3740  176.9280  146.3290 C   0  0  1  0  0  0  0  0  0  0  0  0
  186.4360  178.4990  146.6560 C   0  0  0  0  0  0  0  0  0  0  0  0
  188.6320  177.6870  144.9980 C   0  0  2  0  0  3  0  0  0  0  0  0
  188.2650  172.9520  140.0370 C   0  0  0  0  0  1  0  0  0  0  0  0
  187.8850  176.2010  143.2040 C   0  0  1  0  0  3  0  0  0  0  0  0
  186.3750  178.7540  145.3860 N   0  0  0  0  0  0  0  0  0  0  0  0
  187.5010  177.7120  147.1880 N   0  0  0  0  0  2  0  0  0  0  0  0
  188.2390  173.7700  141.3100 C   0  0  2  0  0  3  0  0  0  0  0  0
  190.3170  175.9100  144.1060 C   0  0  0  0  0  0  0  0  0  0  0  0
  187.0680  177.0470  141.1830 C   0  0  0  0  0  0  0  0  0  0  0  0
  185.4720  179.0640  147.5340 N   0  0  0  0  0  1  0  0  0  0  0  0
  188.7750  175.1690  141.0210 C   0  0  0  0  0  2  0  0  0  0  0  0
  191.5280  176.5360  144.4370 C   0  0  0  0  0  3  0  0  0  0  0  0
  191.4820  173.7700  144.0920 C   0  0  0  0  0  3  0  0  0  0  0  0
  192.6730  174.4090  144.4400 C   0  0  0  0  0  3  0  0  0  0  0  0
  189.0710  173.0600  142.3750 C   0  0  0  0  0  2  0  0  0  0  0  0
  186.7370  177.1760  143.5190 C   0  0  1  0  0  3  0  0  0  0  0  0
  188.0120  176.1700  141.7600 N   0  0  0  0  0  0  0  0  0  0  0  0
  187.3400  178.2620  144.4000 C   0  0  2  0  0  3  0  0  0  0  0  0
  184.7830  177.4310  142.0010 C   0  0  0  0  0  1  0  0  0  0  0  0
  189.1270  176.8080  143.8460 C   0  0  2  0  0  3  0  0  0  0  0  0
  1 21  2  0  0  0  0
  1 16  1  0  0  0  0
  2  8  1  0  0  0  0
  3 17  2  0  0  0  0
  5 27  1  6  0  0  0
  5 24  1  0  0  0  0
  6  1  1  0  0  0  0
  8  7  1  1  0  0  0
  8 14  1  0  0  0  0
  9 14  1  0  0  0  0
  9 18  1  0  0  0  0
 10  8  1  0  0  0  0
 11 15  1  0  0  0  0
 12 24  1  0  0  0  0
 12 28  1  0  0  0  0
 13  9  2  0  0  0  0
 15 23  1  0  0  0  0
 16 20  2  0  0  0  0
 17 25  1  0  0  0  0
 17  5  1  0  0  0  0
 19 15  1  0  0  0  0
 19 25  1  0  0  0  0
 20  4  1  0  0  0  0
 21 22  1  0  0  0  0
 22  4  2  0  0  0  0
 23  6  1  0  0  0  0
 24 26  1  0  0  0  0
 25 12  1  0  0  0  0
 26 10  1  0  0  0  0
 26 13  1  0  0  0  0
 28 16  1  0  0  0  0
 28 10  1  0  0  0  0
M  END
>  <MODEL>
6

>  <REMARK>
 VINA RESULT:      -7.9      2.414      5.086
  Name = 
  0 active torsions:
  status: ('A' for Active; 'I' for Inactive)
                            x       y       z     vdW  Elec       q    Type
                         _______ _______ _______ _____ _____    ______ ____

>  <TORSDO>
F 0

$$$$
=
 OpenBabel11112417413D

 28 32  0  0  1  0  0  0  0  0999 V2000
  193.0740  174.3770  145.3150 C   0  0  0  0  0  0  0  0  0  0  0  0
  189.7890  174.7270  146.5660 O   0  0  0  0  0  1  0  0  0  0  0  0
  190.1850  173.8950  140.2360 O   0  0  0  0  0  0  0  0  0  0  0  0
  194.4200  176.7980  145.7550 C   0  0  0  0  0  3  0  0  0  0  0  0
  188.7110  174.6330  142.0110 C   0  0  2  0  0  3  0  0  0  0  0  0
  192.4390  173.1560  145.0910 O   0  0  0  0  0  0  0  0  0  0  0  0
  190.7380  176.7700  147.3040 C   0  0  0  0  0  1  0  0  0  0  0  0
  189.7260  176.1120  146.3850 C   0  0  1  0  0  0  0  0  0  0  0  0
  187.3060  176.5630  145.8620 C   0  0  0  0  0  0  0  0  0  0  0  0
  190.0110  176.5000  144.9080 C   0  0  2  0  0  3  0  0  0  0  0  0
  193.0510  171.0290  142.0820 C   0  0  0  0  0  1  0  0  0  0  0  0
  190.4840  174.4110  143.7280 C   0  0  1  0  0  3  0  0  0  0  0  0
  187.5060  176.3950  144.5930 N   0  0  0  0  0  0  0  0  0  0  0  0
  188.4030  176.5740  146.7760 N   0  0  0  0  0  2  0  0  0  0  0  0
  192.3310  172.0450  142.9420 C   0  0  2  0  0  3  0  0  0  0  0  0
  192.4560  175.6000  144.9590 C   0  0  0  0  0  0  0  0  0  0  0  0
  189.9980  174.1590  141.4540 C   0  0  0  0  0  0  0  0  0  0  0  0
  185.9890  176.8050  146.3420 N   0  0  0  0  0  1  0  0  0  0  0  0
  192.2980  173.3860  142.2160 C   0  0  0  0  0  2  0  0  0  0  0  0
  193.1520  176.7990  145.1730 C   0  0  0  0  0  3  0  0  0  0  0  0
  194.3540  174.3870  145.8890 C   0  0  0  0  0  3  0  0  0  0  0  0
  195.0210  175.5920  146.1130 C   0  0  0  0  0  3  0  0  0  0  0  0
  193.0450  172.1540  144.2880 C   0  0  0  0  0  2  0  0  0  0  0  0
  188.9990  174.7480  143.5140 C   0  0  1  0  0  3  0  0  0  0  0  0
  191.0150  174.0490  142.4270 N   0  0  0  0  0  0  0  0  0  0  0  0
  188.8230  176.1840  143.9880 C   0  0  2  0  0  3  0  0  0  0  0  0
  187.6310  173.5930  141.7870 C   0  0  0  0  0  1  0  0  0  0  0  0
  191.1270  175.6950  144.2390 C   0  0  2  0  0  3  0  0  0  0  0  0
  1 21  1  0  0  0  0
  3 17  2  0  0  0  0
  4 22  1  0  0  0  0
  5 27  1  1  0  0  0
  5 24  1  0  0  0  0
  6  1  1  0  0  0  0
  8  2  1  0  0  0  0
  8 14  1  0  0  0  0
  8  7  1  1  0  0  0
  9 18  1  0  0  0  0
  9 14  1  0  0  0  0
 10  8  1  0  0  0  0
 11 15  1  0  0  0  0
 12 28  1  0  0  0  0
 13  9  2  0  0  0  0
 15 23  1  0  0  0  0
 16 20  1  0  0  0  0
 16  1  2  0  0  0  0
 17  5  1  0  0  0  0
 17 25  1  0  0  0  0
 19 25  1  0  0  0  0
 19 15  1  0  0  0  0
 20  4  2  0  0  0  0
 21 22  2  0  0  0  0
 23  6  1  0  0  0  0
 24 12  1  0  0  0  0
 24 26  1  0  0  0  0
 25 12  1  0  0  0  0
 26 13  1  0  0  0  0
 26 10  1  0  0  0  0
 28 10  1  0  0  0  0
 28 16  1  0  0  0  0
M  END
>  <MODEL>
7

>  <REMARK>
 VINA RESULT:      -7.5      2.565      5.747
  Name = 
  0 active torsions:
  status: ('A' for Active; 'I' for Inactive)
                            x       y       z     vdW  Elec       q    Type
                         _______ _______ _______ _____ _____    ______ ____

>  <TORSDO>
F 0

$$$$
=
 OpenBabel11112417413D

 28 32  0  0  1  0  0  0  0  0999 V2000
  188.8680  176.6250  144.7460 C   0  0  0  0  0  0  0  0  0  0  0  0
  192.3920  176.6970  144.9920 O   0  0  0  0  0  1  0  0  0  0  0  0
  190.0430  171.9890  141.3540 O   0  0  0  0  0  0  0  0  0  0  0  0
  187.8430  176.0710  147.2960 C   0  0  0  0  0  3  0  0  0  0  0  0
  192.0230  172.7260  142.5390 C   0  0  2  0  0  3  0  0  0  0  0  0
  189.3440  176.9130  143.4670 O   0  0  0  0  0  0  0  0  0  0  0  0
  191.8160  176.4880  147.2820 C   0  0  0  0  0  1  0  0  0  0  0  0
  192.4660  175.8250  146.0830 C   0  0  1  0  0  0  0  0  0  0  0  0
  194.6300  174.5860  145.7450 C   0  0  0  0  0  0  0  0  0  0  0  0
  191.7630  174.4740  145.7710 C   0  0  2  0  0  3  0  0  0  0  0  0
  187.7380  175.6610  140.3350 C   0  0  0  0  0  1  0  0  0  0  0  0
  190.8490  174.6800  143.5120 C   0  0  1  0  0  3  0  0  0  0  0  0
  194.0440  173.6710  145.0380 N   0  0  0  0  0  0  0  0  0  0  0  0
  193.8660  175.5960  146.4040 N   0  0  0  0  0  2  0  0  0  0  0  0
  188.7350  175.6810  141.4730 C   0  0  2  0  0  3  0  0  0  0  0  0
  189.4090  175.5580  145.5040 C   0  0  0  0  0  0  0  0  0  0  0  0
  190.6050  172.8160  142.1220 C   0  0  0  0  0  0  0  0  0  0  0  0
  196.0400  174.5450  145.9210 N   0  0  0  0  0  1  0  0  0  0  0  0
  188.6120  174.3870  142.2730 C   0  0  0  0  0  2  0  0  0  0  0  0
  188.8720  175.2880  146.7710 C   0  0  0  0  0  3  0  0  0  0  0  0
  187.8270  177.3980  145.2790 C   0  0  0  0  0  3  0  0  0  0  0  0
  187.3200  177.1260  146.5500 C   0  0  0  0  0  3  0  0  0  0  0  0
  188.4730  176.9060  142.3450 C   0  0  0  0  0  2  0  0  0  0  0  0
  192.2130  173.9770  143.4070 C   0  0  1  0  0  3  0  0  0  0  0  0
  189.9300  173.9170  142.6890 N   0  0  0  0  0  0  0  0  0  0  0  0
  192.5960  173.5930  144.8290 C   0  0  2  0  0  3  0  0  0  0  0  0
  192.9310  172.8160  141.3280 C   0  0  0  0  0  1  0  0  0  0  0  0
  190.4570  174.5990  144.9820 C   0  0  2  0  0  3  0  0  0  0  0  0
  1 21  2  0  0  0  0
  1 16  1  0  0  0  0
  2  8  1  0  0  0  0
  3 17  2  0  0  0  0
  5 27  1  6  0  0  0
  5 24  1  0  0  0  0
  6  1  1  0  0  0  0
  8 14  1  0  0  0  0
  8  7  1  1  0  0  0
  9 18  1  0  0  0  0
  9 14  1  0  0  0  0
 10  8  1  0  0  0  0
 11 15  1  0  0  0  0
 12 28  1  0  0  0  0
 13  9  2  0  0  0  0
 15 19  1  0  0  0  0
 15 23  1  0  0  0  0
 16 20  2  0  0  0  0
 17  5  1  0  0  0  0
 17 25  1  0  0  0  0
 19 25  1  0  0  0  0
 20  4  1  0  0  0  0
 21 22  1  0  0  0  0
 22  4  2  0  0  0  0
 23  6  1  0  0  0  0
 24 12  1  0  0  0  0
 24 26  1  0  0  0  0
 25 12  1  0  0  0  0
 26 13  1  0  0  0  0
 26 10  1  0  0  0  0
 28 16  1  0  0  0  0
 28 10  1  0  0  0  0
M  END
>  <MODEL>
8

>  <REMARK>
 VINA RESULT:      -7.3      1.806      2.513
  Name = 
  0 active torsions:
  status: ('A' for Active; 'I' for Inactive)
                            x       y       z     vdW  Elec       q    Type
                         _______ _______ _______ _____ _____    ______ ____

>  <TORSDO>
F 0

$$$$
=
 OpenBabel11112417413D

 28 32  0  0  1  0  0  0  0  0999 V2000
  188.8820  175.9960  144.7630 C   0  0  0  0  0  0  0  0  0  0  0  0
  189.1170  172.5440  144.0440 O   0  0  0  0  0  1  0  0  0  0  0  0
  194.6270  175.3270  145.7210 O   0  0  0  0  0  0  0  0  0  0  0  0
  188.1610  177.3160  142.3960 C   0  0  0  0  0  3  0  0  0  0  0  0
  193.6850  173.3620  144.6650 C   0  0  2  0  0  3  0  0  0  0  0  0
  189.2290  175.3700  145.9590 O   0  0  0  0  0  0  0  0  0  0  0  0
  188.2530  173.3430  141.9860 C   0  0  0  0  0  1  0  0  0  0  0  0
  189.4370  172.7130  142.6930 C   0  0  1  0  0  0  0  0  0  0  0  0
  190.9410  170.7660  142.1620 C   0  0  0  0  0  0  0  0  0  0  0  0
  190.7000  173.6030  142.5210 C   0  0  2  0  0  3  0  0  0  0  0  0
  191.5120  176.8860  148.4970 C   0  0  0  0  0  1  0  0  0  0  0  0
  191.3820  174.2700  144.7730 C   0  0  1  0  0  3  0  0  0  0  0  0
  191.9970  171.4350  142.5070 N   0  0  0  0  0  0  0  0  0  0  0  0
  189.6650  171.4040  142.1000 N   0  0  0  0  0  2  0  0  0  0  0  0
  191.1200  176.0020  147.3330 C   0  0  2  0  0  3  0  0  0  0  0  0
  189.5720  175.7090  143.5600 C   0  0  0  0  0  0  0  0  0  0  0  0
  193.6210  174.7030  145.2890 C   0  0  0  0  0  0  0  0  0  0  0  0
  191.0650  169.4030  141.7760 N   0  0  0  0  0  1  0  0  0  0  0  0
  191.9190  176.4090  146.0990 C   0  0  0  0  0  2  0  0  0  0  0  0
  189.2070  176.3910  142.3900 C   0  0  0  0  0  3  0  0  0  0  0  0
  187.8390  176.9340  144.7590 C   0  0  0  0  0  3  0  0  0  0  0  0
  187.4770  177.5870  143.5800 C   0  0  0  0  0  3  0  0  0  0  0  0
  189.6170  176.1300  147.0950 C   0  0  0  0  0  2  0  0  0  0  0  0
  192.2130  173.0400  144.3720 C   0  0  1  0  0  3  0  0  0  0  0  0
  192.3130  175.2300  145.3340 N   0  0  0  0  0  0  0  0  0  0  0  0
  191.9900  172.8510  142.8780 C   0  0  2  0  0  3  0  0  0  0  0  0
  194.2310  172.3510  145.6540 C   0  0  0  0  0  1  0  0  0  0  0  0
  190.7760  174.7960  143.4760 C   0  0  2  0  0  3  0  0  0  0  0  0
  1  6  1  0  0  0  0
  4 22  1  0  0  0  0
  5 17  1  0  0  0  0
  5 27  1  1  0  0  0
  6 23  1  0  0  0  0
  8  7  1  6  0  0  0
  8  2  1  0  0  0  0
  9 13  2  0  0  0  0
 10  8  1  0  0  0  0
 10 26  1  0  0  0  0
 10 28  1  0  0  0  0
 12 25  1  0  0  0  0
 13 26  1  0  0  0  0
 14  9  1  0  0  0  0
 14  8  1  0  0  0  0
 15 11  1  0  0  0  0
 16  1  2  0  0  0  0
 17 25  1  0  0  0  0
 17  3  2  0  0  0  0
 18  9  1  0  0  0  0
 19 15  1  0  0  0  0
 20  4  2  0  0  0  0
 20 16  1  0  0  0  0
 21  1  1  0  0  0  0
 22 21  2  0  0  0  0
 23 15  1  0  0  0  0
 24  5  1  0  0  0  0
 24 12  1  0  0  0  0
 25 19  1  0  0  0  0
 26 24  1  0  0  0  0
 28 16  1  0  0  0  0
 28 12  1  0  0  0  0
M  END
>  <MODEL>
9

>  <REMARK>
 VINA RESULT:      -7.2      2.646      5.591
  Name = 
  0 active torsions:
  status: ('A' for Active; 'I' for Inactive)
                            x       y       z     vdW  Elec       q    Type
                         _______ _______ _______ _____ _____    ______ ____

>  <TORSDO>
F 0

$$$$
