=
 OpenBabel11112417043D

 31 35  0  0  1  0  0  0  0  0999 V2000
  184.7860  178.2180  146.8200 C   0  0  0  0  0  0  0  0  0  0  0  0
  187.3760  175.8900  145.2840 C   0  0  2  0  0  3  0  0  0  0  0  0
  187.4590  176.2570  143.8070 C   0  0  0  0  0  0  0  0  0  0  0  0
  186.4220  177.2260  141.8270 C   0  0  0  0  0  0  0  0  0  0  0  0
  186.7610  176.9770  146.1400 C   0  0  0  0  0  0  0  0  0  0  0  0
  185.5730  179.0340  147.6360 C   0  0  0  0  0  3  0  0  0  0  0  0
  186.4030  176.9520  143.1950 C   0  0  0  0  0  3  0  0  0  0  0  0
  189.6360  176.6160  146.1480 C   0  0  2  0  0  3  0  0  0  0  0  0
  183.4500  178.4230  146.7460 F   0  0  0  0  0  0  0  0  0  0  0  0
  189.6920  175.0460  143.5700 C   0  0  0  0  0  2  0  0  0  0  0  0
  185.3770  177.9290  141.2450 O   0  0  0  0  0  1  0  0  0  0  0  0
  189.0100  177.5170  147.2110 C   0  0  0  0  0  2  0  0  0  0  0  0
  188.7220  175.4160  145.8630 C   0  0  2  0  0  3  0  0  0  0  0  0
  185.3780  177.1940  146.0790 C   0  0  0  0  0  3  0  0  0  0  0  0
  187.4900  176.7900  141.0430 C   0  0  0  0  0  3  0  0  0  0  0  0
  187.5540  177.7990  146.9730 C   0  0  0  0  0  0  0  0  0  0  0  0
  186.9510  178.8170  147.7190 C   0  0  0  0  0  3  0  0  0  0  0  0
  189.3660  174.4020  144.9150 C   0  0  0  0  0  2  0  0  0  0  0  0
  188.5200  175.7840  142.9950 C   0  0  0  0  0  0  0  0  0  0  0  0
  188.5360  176.0730  141.6270 C   0  0  0  0  0  3  0  0  0  0  0  0
  192.1160  177.1380  144.8430 O   0  0  0  0  0  0  0  0  0  0  0  0
  192.1490  176.4670  145.9100 C   0  0  0  0  0  0  0  0  0  0  0  0
  190.9410  176.1630  146.6100 N   0  0  0  0  0  2  0  0  0  0  0  0
  195.4630  176.1590  144.3940 C   0  0  0  0  0  0  0  0  0  0  0  0
  194.5260  177.0590  146.5120 C   0  0  0  0  0  2  0  0  0  0  0  0
  192.9980  173.7160  145.6820 O   0  0  0  0  0  1  0  0  0  0  0  0
  196.5280  176.1020  143.8030 O   0  0  0  0  0  0  0  0  0  0  0  0
  195.0710  177.4070  145.1240 C   0  0  0  0  0  2  0  0  0  0  0  0
  193.9790  174.7060  145.7400 C   0  0  2  0  0  3  0  0  0  0  0  0
  193.4530  175.9620  146.4570 C   0  0  2  0  0  3  0  0  0  0  0  0
  194.5040  175.0120  144.3370 C   0  0  0  0  0  2  0  0  0  0  0  0
  1  6  1  0  0  0  0
  2  3  1  6  0  0  0
  2 13  1  0  0  0  0
  2  5  1  0  0  0  0
  4  7  2  0  0  0  0
  5 16  2  0  0  0  0
  6 17  2  0  0  0  0
  7  3  1  0  0  0  0
  8 23  1  1  0  0  0
  8 12  1  0  0  0  0
  9  1  1  0  0  0  0
 10 18  1  0  0  0  0
 11  4  1  0  0  0  0
 13 18  1  6  0  0  0
 13  8  1  0  0  0  0
 14  5  1  0  0  0  0
 14  1  2  0  0  0  0
 15 20  2  0  0  0  0
 15  4  1  0  0  0  0
 16 12  1  0  0  0  0
 16 17  1  0  0  0  0
 19 10  1  0  0  0  0
 19  3  2  0  0  0  0
 20 19  1  0  0  0  0
 21 22  2  0  0  0  0
 22 23  1  0  0  0  0
 24 28  1  0  0  0  0
 27 24  2  0  0  0  0
 28 25  1  0  0  0  0
 29 26  1  6  0  0  0
 29 30  1  0  0  0  0
 30 22  1  6  0  0  0
 30 25  1  0  0  0  0
 31 24  1  0  0  0  0
 31 29  1  0  0  0  0
M  END
>  <MODEL>
1

>  <REMARK>
 VINA RESULT:      -9.2      0.000      0.000
  Name = 
  2 active torsions:
  status: ('A' for Active; 'I' for Inactive)
    1  A    between atoms: C_5  and  C_30
    2  A    between atoms: C_10  and  N_16
                            x       y       z     vdW  Elec       q    Type
                         _______ _______ _______ _____ _____    ______ ____

>  <TORSDO>
F 2

$$$$
=
 OpenBabel11112417043D

 31 35  0  0  1  0  0  0  0  0999 V2000
  184.8240  177.8530  146.7820 C   0  0  0  0  0  0  0  0  0  0  0  0
  187.1800  176.0150  144.4250 C   0  0  2  0  0  3  0  0  0  0  0  0
  186.9660  176.6240  143.0440 C   0  0  0  0  0  0  0  0  0  0  0  0
  185.5300  177.8220  141.4820 C   0  0  0  0  0  0  0  0  0  0  0  0
  186.6890  176.8970  145.5540 C   0  0  0  0  0  0  0  0  0  0  0  0
  185.7130  178.5820  147.5750 C   0  0  0  0  0  3  0  0  0  0  0  0
  185.7830  177.3270  142.7620 C   0  0  0  0  0  3  0  0  0  0  0  0
  189.5270  176.7620  144.9860 C   0  0  2  0  0  3  0  0  0  0  0  0
  183.4900  177.9640  146.9850 F   0  0  0  0  0  0  0  0  0  0  0  0
  189.1660  175.6440  142.2040 C   0  0  0  0  0  2  0  0  0  0  0  0
  184.3630  178.5280  141.2280 O   0  0  0  0  0  1  0  0  0  0  0  0
  189.0730  177.4250  146.2840 C   0  0  0  0  0  2  0  0  0  0  0  0
  188.6310  175.5580  144.6620 C   0  0  2  0  0  3  0  0  0  0  0  0
  185.3110  177.0130  145.7790 C   0  0  0  0  0  3  0  0  0  0  0  0
  186.4500  177.6040  140.4560 C   0  0  0  0  0  3  0  0  0  0  0  0
  187.5880  177.6290  146.3630 C   0  0  0  0  0  0  0  0  0  0  0  0
  187.0900  178.4610  147.3710 C   0  0  0  0  0  3  0  0  0  0  0  0
  189.1290  174.7660  143.4520 C   0  0  0  0  0  2  0  0  0  0  0  0
  187.8740  176.3740  141.9860 C   0  0  0  0  0  0  0  0  0  0  0  0
  187.6190  176.8840  140.7100 C   0  0  0  0  0  3  0  0  0  0  0  0
  191.7460  177.9500  143.6470 O   0  0  0  0  0  0  0  0  0  0  0  0
  191.9820  176.9870  144.4250 C   0  0  0  0  0  0  0  0  0  0  0  0
  190.9160  176.3410  145.1210 N   0  0  0  0  0  2  0  0  0  0  0  0
  193.3020  173.6490  145.1260 C   0  0  0  0  0  0  0  0  0  0  0  0
  193.8080  175.4910  143.5370 C   0  0  0  0  0  2  0  0  0  0  0  0
  193.2520  176.8330  147.0140 O   0  0  0  0  0  1  0  0  0  0  0  0
  193.6430  172.5000  145.3520 O   0  0  0  0  0  0  0  0  0  0  0  0
  193.1410  174.1250  143.7140 C   0  0  0  0  0  2  0  0  0  0  0  0
  193.6490  175.9260  146.0300 C   0  0  2  0  0  3  0  0  0  0  0  0
  193.3860  176.4910  144.6230 C   0  0  2  0  0  3  0  0  0  0  0  0
  192.9700  174.5750  146.2540 C   0  0  0  0  0  2  0  0  0  0  0  0
  1  9  1  0  0  0  0
  1  6  1  0  0  0  0
  2  3  1  6  0  0  0
  2 13  1  0  0  0  0
  2  5  1  0  0  0  0
  4  7  2  0  0  0  0
  5 14  1  0  0  0  0
  5 16  2  0  0  0  0
  7  3  1  0  0  0  0
  8 23  1  1  0  0  0
  8 12  1  0  0  0  0
 10 18  1  0  0  0  0
 11  4  1  0  0  0  0
 12 16  1  0  0  0  0
 13 18  1  6  0  0  0
 13  8  1  0  0  0  0
 14  1  2  0  0  0  0
 15 20  2  0  0  0  0
 15  4  1  0  0  0  0
 16 17  1  0  0  0  0
 17  6  2  0  0  0  0
 19 10  1  0  0  0  0
 19  3  2  0  0  0  0
 20 19  1  0  0  0  0
 21 22  2  0  0  0  0
 22 23  1  0  0  0  0
 24 27  2  0  0  0  0
 24 31  1  0  0  0  0
 25 28  1  0  0  0  0
 25 30  1  0  0  0  0
 28 24  1  0  0  0  0
 29 31  1  0  0  0  0
 29 26  1  1  0  0  0
 30 22  1  1  0  0  0
 30 29  1  0  0  0  0
M  END
>  <MODEL>
2

>  <REMARK>
 VINA RESULT:      -9.1      1.360      1.928
  Name = 
  2 active torsions:
  status: ('A' for Active; 'I' for Inactive)
    1  A    between atoms: C_5  and  C_30
    2  A    between atoms: C_10  and  N_16
                            x       y       z     vdW  Elec       q    Type
                         _______ _______ _______ _____ _____    ______ ____

>  <TORSDO>
F 2

$$$$
=
 OpenBabel11112417043D

 31 35  0  0  1  0  0  0  0  0999 V2000
  185.9640  178.2580  140.7790 C   0  0  0  0  0  0  0  0  0  0  0  0
  188.2570  178.0370  143.8080 C   0  0  2  0  0  3  0  0  0  0  0  0
  187.3570  177.7630  145.0080 C   0  0  0  0  0  0  0  0  0  0  0  0
  185.1600  177.8960  146.0540 C   0  0  0  0  0  0  0  0  0  0  0  0
  187.6070  177.7070  142.4820 C   0  0  0  0  0  0  0  0  0  0  0  0
  186.3030  177.1040  140.0700 C   0  0  0  0  0  3  0  0  0  0  0  0
  185.9860  178.0620  144.9410 C   0  0  0  0  0  3  0  0  0  0  0  0
  189.5550  175.8790  143.6050 C   0  0  2  0  0  3  0  0  0  0  0  0
  185.0010  179.0840  140.3060 F   0  0  0  0  0  0  0  0  0  0  0  0
  189.3490  176.9930  146.4030 C   0  0  0  0  0  2  0  0  0  0  0  0
  183.8060  178.1810  145.9610 O   0  0  0  0  0  1  0  0  0  0  0  0
  189.1180  175.6800  142.1550 C   0  0  0  0  0  2  0  0  0  0  0  0
  189.6420  177.3760  143.9330 C   0  0  2  0  0  3  0  0  0  0  0  0
  186.6150  178.5580  141.9770 C   0  0  0  0  0  3  0  0  0  0  0  0
  185.6980  177.4470  147.2590 C   0  0  0  0  0  3  0  0  0  0  0  0
  187.9550  176.5440  141.7580 C   0  0  0  0  0  0  0  0  0  0  0  0
  187.3030  176.2570  140.5540 C   0  0  0  0  0  3  0  0  0  0  0  0
  190.2180  177.6370  145.3270 C   0  0  0  0  0  2  0  0  0  0  0  0
  187.9000  177.3450  146.2480 C   0  0  0  0  0  0  0  0  0  0  0  0
  187.0630  177.1710  147.3550 C   0  0  0  0  0  3  0  0  0  0  0  0
  190.0150  173.5940  145.2450 O   0  0  0  0  0  0  0  0  0  0  0  0
  191.0060  174.0870  144.6420 C   0  0  0  0  0  0  0  0  0  0  0  0
  190.8460  175.2370  143.8100 N   0  0  0  0  0  2  0  0  0  0  0  0
  194.3480  175.5150  144.2350 C   0  0  0  0  0  0  0  0  0  0  0  0
  193.1700  174.1380  145.9350 C   0  0  0  0  0  2  0  0  0  0  0  0
  192.4560  172.8760  142.4570 O   0  0  0  0  0  1  0  0  0  0  0  0
  195.4160  176.0830  144.0810 O   0  0  0  0  0  0  0  0  0  0  0  0
  193.6650  175.5390  145.5680 C   0  0  0  0  0  2  0  0  0  0  0  0
  193.1880  173.4590  143.4920 C   0  0  2  0  0  3  0  0  0  0  0  0
  192.3730  173.4850  144.7970 C   0  0  2  0  0  3  0  0  0  0  0  0
  193.6720  174.8490  143.0780 C   0  0  0  0  0  2  0  0  0  0  0  0
  1 14  1  0  0  0  0
  2  5  1  6  0  0  0
  2 13  1  0  0  0  0
  2  3  1  0  0  0  0
  3 19  1  0  0  0  0
  4 15  2  0  0  0  0
  6 17  1  0  0  0  0
  6  1  2  0  0  0  0
  7  3  2  0  0  0  0
  7  4  1  0  0  0  0
  8 23  1  6  0  0  0
  8 13  1  0  0  0  0
  9  1  1  0  0  0  0
 11  4  1  0  0  0  0
 12  8  1  0  0  0  0
 13 18  1  1  0  0  0
 14  5  2  0  0  0  0
 15 20  1  0  0  0  0
 16 12  1  0  0  0  0
 16  5  1  0  0  0  0
 17 16  2  0  0  0  0
 18 10  1  0  0  0  0
 19 10  1  0  0  0  0
 19 20  2  0  0  0  0
 22 21  2  0  0  0  0
 23 22  1  0  0  0  0
 24 28  1  0  0  0  0
 27 24  2  0  0  0  0
 28 25  1  0  0  0  0
 29 26  1  6  0  0  0
 29 30  1  0  0  0  0
 30 22  1  6  0  0  0
 30 25  1  0  0  0  0
 31 29  1  0  0  0  0
 31 24  1  0  0  0  0
M  END
>  <MODEL>
3

>  <REMARK>
 VINA RESULT:      -8.8      2.182      4.289
  Name = 
  2 active torsions:
  status: ('A' for Active; 'I' for Inactive)
    1  A    between atoms: C_5  and  C_30
    2  A    between atoms: C_10  and  N_16
                            x       y       z     vdW  Elec       q    Type
                         _______ _______ _______ _____ _____    ______ ____

>  <TORSDO>
F 2

$$$$
=
 OpenBabel11112417043D

 31 35  0  0  1  0  0  0  0  0999 V2000
  194.5210  176.4330  145.1330 C   0  0  0  0  0  0  0  0  0  0  0  0
  191.1030  176.8790  143.5200 C   0  0  2  0  0  3  0  0  0  0  0  0
  190.8440  175.6150  142.7080 C   0  0  0  0  0  0  0  0  0  0  0  0
  191.7120  173.6780  141.5120 C   0  0  0  0  0  0  0  0  0  0  0  0
  192.1710  176.7060  144.5780 C   0  0  0  0  0  0  0  0  0  0  0  0
  194.1910  176.2990  146.4840 C   0  0  0  0  0  3  0  0  0  0  0  0
  191.9170  174.7950  142.3230 C   0  0  0  0  0  3  0  0  0  0  0  0
  189.3810  176.7020  145.3590 C   0  0  2  0  0  3  0  0  0  0  0  0
  195.8150  176.3610  144.7420 F   0  0  0  0  0  0  0  0  0  0  0  0
  188.3500  176.1370  142.5790 C   0  0  0  0  0  2  0  0  0  0  0  0
  192.7830  172.8710  141.1570 O   0  0  0  0  0  1  0  0  0  0  0  0
  190.4450  176.8050  146.4500 C   0  0  0  0  0  2  0  0  0  0  0  0
  189.8190  177.4860  144.1140 C   0  0  2  0  0  3  0  0  0  0  0  0
  193.5150  176.6380  144.1870 C   0  0  0  0  0  3  0  0  0  0  0  0
  190.4300  173.3750  141.0550 C   0  0  0  0  0  3  0  0  0  0  0  0
  191.8410  176.5780  145.9470 C   0  0  0  0  0  0  0  0  0  0  0  0
  192.8570  176.3820  146.8880 C   0  0  0  0  0  3  0  0  0  0  0  0
  188.7270  177.5410  143.0430 C   0  0  0  0  0  2  0  0  0  0  0  0
  189.5520  175.3210  142.2060 C   0  0  0  0  0  0  0  0  0  0  0  0
  189.3540  174.1940  141.4030 C   0  0  0  0  0  3  0  0  0  0  0  0
  187.8120  175.4890  147.4070 O   0  0  0  0  0  0  0  0  0  0  0  0
  187.3840  176.5630  146.9040 C   0  0  0  0  0  0  0  0  0  0  0  0
  188.1180  177.2190  145.8690 N   0  0  0  0  0  2  0  0  0  0  0  0
  185.1290  178.9850  145.3470 C   0  0  0  0  0  0  0  0  0  0  0  0
  184.9090  176.7800  146.4710 C   0  0  0  0  0  2  0  0  0  0  0  0
  187.2400  179.0370  148.3880 O   0  0  0  0  0  1  0  0  0  0  0  0
  184.4400  179.7910  144.7450 O   0  0  0  0  0  0  0  0  0  0  0  0
  184.9390  177.5150  145.1290 C   0  0  0  0  0  2  0  0  0  0  0  0
  186.1580  178.6900  147.5780 C   0  0  2  0  0  3  0  0  0  0  0  0
  186.0910  177.1660  147.3720 C   0  0  2  0  0  3  0  0  0  0  0  0
  186.2200  179.4560  146.2570 C   0  0  0  0  0  2  0  0  0  0  0  0
  1  6  1  0  0  0  0
  2  3  1  1  0  0  0
  2 13  1  0  0  0  0
  2  5  1  0  0  0  0
  4  7  2  0  0  0  0
  5 16  2  0  0  0  0
  6 17  2  0  0  0  0
  7  3  1  0  0  0  0
  8 23  1  1  0  0  0
  8 12  1  0  0  0  0
  9  1  1  0  0  0  0
 10 18  1  0  0  0  0
 11  4  1  0  0  0  0
 13 18  1  6  0  0  0
 13  8  1  0  0  0  0
 14  5  1  0  0  0  0
 14  1  2  0  0  0  0
 15 20  2  0  0  0  0
 15  4  1  0  0  0  0
 16 12  1  0  0  0  0
 16 17  1  0  0  0  0
 19 10  1  0  0  0  0
 19  3  2  0  0  0  0
 20 19  1  0  0  0  0
 22 21  2  0  0  0  0
 23 22  1  0  0  0  0
 24 31  1  0  0  0  0
 25 30  1  0  0  0  0
 27 24  2  0  0  0  0
 28 24  1  0  0  0  0
 28 25  1  0  0  0  0
 29 26  1  1  0  0  0
 30 22  1  6  0  0  0
 30 29  1  0  0  0  0
 31 29  1  0  0  0  0
M  END
>  <MODEL>
4

>  <REMARK>
 VINA RESULT:      -8.5      3.339      7.149
  Name = 
  2 active torsions:
  status: ('A' for Active; 'I' for Inactive)
    1  A    between atoms: C_5  and  C_30
    2  A    between atoms: C_10  and  N_16
                            x       y       z     vdW  Elec       q    Type
                         _______ _______ _______ _____ _____    ______ ____

>  <TORSDO>
F 2

$$$$
=
 OpenBabel11112417043D

 31 35  0  0  1  0  0  0  0  0999 V2000
  185.4880  178.3390  141.0510 C   0  0  0  0  0  0  0  0  0  0  0  0
  188.3020  178.1000  143.6020 C   0  0  2  0  0  3  0  0  0  0  0  0
  187.6780  177.5480  144.8790 C   0  0  0  0  0  0  0  0  0  0  0  0
  185.7090  177.2160  146.2750 C   0  0  0  0  0  0  0  0  0  0  0  0
  187.4700  177.8400  142.3650 C   0  0  0  0  0  0  0  0  0  0  0  0
  185.8390  177.3460  140.1350 C   0  0  0  0  0  3  0  0  0  0  0  0
  186.2910  177.6410  145.0790 C   0  0  0  0  0  3  0  0  0  0  0  0
  189.8080  176.2070  142.8760 C   0  0  2  0  0  3  0  0  0  0  0  0
  184.3570  179.0610  140.8680 F   0  0  0  0  0  0  0  0  0  0  0  0
  189.9730  176.9250  145.8040 C   0  0  0  0  0  2  0  0  0  0  0  0
  184.3350  177.3010  146.4470 O   0  0  0  0  0  1  0  0  0  0  0  0
  189.1440  176.1230  141.5030 C   0  0  0  0  0  2  0  0  0  0  0  0
  189.7610  177.6480  143.4020 C   0  0  2  0  0  3  0  0  0  0  0  0
  186.3020  178.5860  142.1590 C   0  0  0  0  0  3  0  0  0  0  0  0
  186.5090  176.7100  147.2980 C   0  0  0  0  0  3  0  0  0  0  0  0
  187.8280  176.8410  141.4310 C   0  0  0  0  0  0  0  0  0  0  0  0
  187.0110  176.6080  140.3200 C   0  0  0  0  0  3  0  0  0  0  0  0
  190.5410  177.8210  144.7070 C   0  0  0  0  0  2  0  0  0  0  0  0
  188.4860  177.0690  145.9400 C   0  0  0  0  0  0  0  0  0  0  0  0
  187.8930  176.6350  147.1290 C   0  0  0  0  0  3  0  0  0  0  0  0
  190.8760  173.8970  144.1620 O   0  0  0  0  0  0  0  0  0  0  0  0
  191.6560  174.5740  143.4390 C   0  0  0  0  0  0  0  0  0  0  0  0
  191.1870  175.7470  142.7720 N   0  0  0  0  0  2  0  0  0  0  0  0
  193.7290  172.1800  145.2680 C   0  0  0  0  0  0  0  0  0  0  0  0
  193.2430  172.6940  142.8860 C   0  0  0  0  0  2  0  0  0  0  0  0
  193.8250  175.8570  144.8500 O   0  0  0  0  0  1  0  0  0  0  0  0
  194.3340  171.3570  145.9340 O   0  0  0  0  0  0  0  0  0  0  0  0
  192.9560  171.7520  144.0580 C   0  0  0  0  0  2  0  0  0  0  0  0
  193.9730  174.5170  144.4910 C   0  0  2  0  0  3  0  0  0  0  0  0
  193.0930  174.1710  143.2760 C   0  0  2  0  0  3  0  0  0  0  0  0
  193.6900  173.6150  145.6920 C   0  0  0  0  0  2  0  0  0  0  0  0
  1 14  1  0  0  0  0
  2  5  1  6  0  0  0
  2  3  1  0  0  0  0
  3  7  2  0  0  0  0
  3 19  1  0  0  0  0
  4 11  1  0  0  0  0
  4 15  2  0  0  0  0
  6 17  1  0  0  0  0
  6  1  2  0  0  0  0
  7  4  1  0  0  0  0
  8 23  1  6  0  0  0
  8 13  1  0  0  0  0
  9  1  1  0  0  0  0
 10 19  1  0  0  0  0
 12  8  1  0  0  0  0
 13  2  1  0  0  0  0
 13 18  1  1  0  0  0
 14  5  2  0  0  0  0
 16 12  1  0  0  0  0
 16  5  1  0  0  0  0
 17 16  2  0  0  0  0
 18 10  1  0  0  0  0
 19 20  2  0  0  0  0
 20 15  1  0  0  0  0
 22 21  2  0  0  0  0
 23 22  1  0  0  0  0
 24 31  1  0  0  0  0
 24 27  2  0  0  0  0
 25 30  1  0  0  0  0
 25 28  1  0  0  0  0
 28 24  1  0  0  0  0
 29 26  1  1  0  0  0
 29 31  1  0  0  0  0
 30 22  1  1  0  0  0
 30 29  1  0  0  0  0
M  END
>  <MODEL>
5

>  <REMARK>
 VINA RESULT:      -8.1      2.404      4.630
  Name = 
  2 active torsions:
  status: ('A' for Active; 'I' for Inactive)
    1  A    between atoms: C_5  and  C_30
    2  A    between atoms: C_10  and  N_16
                            x       y       z     vdW  Elec       q    Type
                         _______ _______ _______ _____ _____    ______ ____

>  <TORSDO>
F 2

$$$$
=
 OpenBabel11112417043D

 31 35  0  0  1  0  0  0  0  0999 V2000
  193.6820  172.4060  141.1010 C   0  0  0  0  0  0  0  0  0  0  0  0
  191.5590  173.3140  144.1260 C   0  0  2  0  0  3  0  0  0  0  0  0
  192.3740  174.3130  144.9380 C   0  0  0  0  0  0  0  0  0  0  0  0
  194.5420  175.2400  145.5530 C   0  0  0  0  0  0  0  0  0  0  0  0
  192.0190  173.1890  142.6890 C   0  0  0  0  0  0  0  0  0  0  0  0
  192.9700  172.9960  140.0560 C   0  0  0  0  0  3  0  0  0  0  0  0
  193.7660  174.3910  144.7630 C   0  0  0  0  0  3  0  0  0  0  0  0
  189.6430  174.7340  143.2920 C   0  0  2  0  0  3  0  0  0  0  0  0
  194.8360  171.7450  140.8460 F   0  0  0  0  0  0  0  0  0  0  0  0
  190.2990  175.0570  146.2210 C   0  0  0  0  0  2  0  0  0  0  0  0
  195.9130  175.3140  145.3530 O   0  0  0  0  0  1  0  0  0  0  0  0
  189.9370  174.3850  141.8340 C   0  0  0  0  0  2  0  0  0  0  0  0
  190.0420  173.5680  144.2080 C   0  0  2  0  0  3  0  0  0  0  0  0
  193.2070  172.5000  142.4100 C   0  0  0  0  0  3  0  0  0  0  0  0
  193.9400  176.0120  146.5470 C   0  0  0  0  0  3  0  0  0  0  0  0
  191.2940  173.7780  141.6280 C   0  0  0  0  0  0  0  0  0  0  0  0
  191.7750  173.6710  140.3190 C   0  0  0  0  0  3  0  0  0  0  0  0
  189.6340  173.8020  145.6640 C   0  0  0  0  0  2  0  0  0  0  0  0
  191.7780  175.0710  145.9760 C   0  0  0  0  0  0  0  0  0  0  0  0
  192.5620  175.9280  146.7550 C   0  0  0  0  0  3  0  0  0  0  0  0
  188.5530  177.3010  143.8830 O   0  0  0  0  0  0  0  0  0  0  0  0
  187.7450  176.3460  143.7280 C   0  0  0  0  0  0  0  0  0  0  0  0
  188.2240  175.0330  143.4380 N   0  0  0  0  0  2  0  0  0  0  0  0
  185.7680  179.4020  144.0950 C   0  0  0  0  0  0  0  0  0  0  0  0
  185.6870  177.3610  142.6800 C   0  0  0  0  0  2  0  0  0  0  0  0
  186.3890  176.4750  146.2750 O   0  0  0  0  0  1  0  0  0  0  0  0
  185.1990  180.4750  144.2080 O   0  0  0  0  0  0  0  0  0  0  0  0
  186.0650  178.8440  142.7370 C   0  0  0  0  0  2  0  0  0  0  0  0
  185.8510  177.1920  145.2050 C   0  0  2  0  0  3  0  0  0  0  0  0
  186.2650  176.5680  143.8600 C   0  0  2  0  0  3  0  0  0  0  0  0
  186.2420  178.6670  145.3090 C   0  0  0  0  0  2  0  0  0  0  0  0
  1 14  1  0  0  0  0
  2  5  1  6  0  0  0
  2 13  1  0  0  0  0
  2  3  1  0  0  0  0
  3 19  1  0  0  0  0
  4 15  2  0  0  0  0
  6 17  1  0  0  0  0
  6  1  2  0  0  0  0
  7  3  2  0  0  0  0
  7  4  1  0  0  0  0
  8 23  1  6  0  0  0
  8 13  1  0  0  0  0
  9  1  1  0  0  0  0
 11  4  1  0  0  0  0
 12  8  1  0  0  0  0
 13 18  1  1  0  0  0
 14  5  2  0  0  0  0
 15 20  1  0  0  0  0
 16 12  1  0  0  0  0
 16  5  1  0  0  0  0
 17 16  2  0  0  0  0
 18 10  1  0  0  0  0
 19 10  1  0  0  0  0
 19 20  2  0  0  0  0
 22 21  2  0  0  0  0
 23 22  1  0  0  0  0
 24 27  2  0  0  0  0
 24 31  1  0  0  0  0
 25 28  1  0  0  0  0
 25 30  1  0  0  0  0
 28 24  1  0  0  0  0
 29 31  1  0  0  0  0
 29 26  1  1  0  0  0
 30 22  1  6  0  0  0
 30 29  1  0  0  0  0
M  END
>  <MODEL>
6

>  <REMARK>
 VINA RESULT:      -7.9      3.673      8.255
  Name = 
  2 active torsions:
  status: ('A' for Active; 'I' for Inactive)
    1  A    between atoms: C_5  and  C_30
    2  A    between atoms: C_10  and  N_16
                            x       y       z     vdW  Elec       q    Type
                         _______ _______ _______ _____ _____    ______ ____

>  <TORSDO>
F 2

$$$$
=
 OpenBabel11112417043D

 31 35  0  0  1  0  0  0  0  0999 V2000
  185.4950  177.5830  142.1990 C   0  0  0  0  0  0  0  0  0  0  0  0
  188.2630  175.1430  143.1290 C   0  0  2  0  0  3  0  0  0  0  0  0
  188.8410  174.6290  141.8160 C   0  0  0  0  0  0  0  0  0  0  0  0
  188.5660  174.1880  139.4350 C   0  0  0  0  0  0  0  0  0  0  0  0
  187.4880  176.4340  142.9810 C   0  0  0  0  0  0  0  0  0  0  0  0
  186.0370  178.8060  142.5980 C   0  0  0  0  0  3  0  0  0  0  0  0
  188.0900  174.7250  140.6330 C   0  0  0  0  0  3  0  0  0  0  0  0
  190.1740  176.5050  144.0640 C   0  0  2  0  0  3  0  0  0  0  0  0
  184.2710  177.5410  141.6200 F   0  0  0  0  0  0  0  0  0  0  0  0
  190.9380  173.7850  142.9990 C   0  0  0  0  0  2  0  0  0  0  0  0
  187.8160  174.3080  138.2740 O   0  0  0  0  0  1  0  0  0  0  0  0
  189.3090  177.7580  144.1760 C   0  0  0  0  0  2  0  0  0  0  0  0
  189.3150  175.2460  144.2490 C   0  0  2  0  0  3  0  0  0  0  0  0
  186.2170  176.4030  142.3920 C   0  0  0  0  0  3  0  0  0  0  0  0
  189.7940  173.5270  139.4070 C   0  0  0  0  0  3  0  0  0  0  0  0
  188.0300  177.6730  143.3930 C   0  0  0  0  0  0  0  0  0  0  0  0
  187.2950  178.8480  143.2030 C   0  0  0  0  0  3  0  0  0  0  0  0
  190.1520  173.9670  144.2940 C   0  0  0  0  0  2  0  0  0  0  0  0
  190.0680  173.9210  141.7840 C   0  0  0  0  0  0  0  0  0  0  0  0
  190.5430  173.3970  140.5780 C   0  0  0  0  0  3  0  0  0  0  0  0
  192.9650  176.7190  143.5200 O   0  0  0  0  0  0  0  0  0  0  0  0
  192.6090  176.6710  144.7280 C   0  0  0  0  0  0  0  0  0  0  0  0
  191.2270  176.5550  145.0700 N   0  0  0  0  0  2  0  0  0  0  0  0
  195.8950  175.1010  145.0650 C   0  0  0  0  0  0  0  0  0  0  0  0
  194.9420  177.3740  145.3780 C   0  0  0  0  0  2  0  0  0  0  0  0
  192.6910  174.7550  146.8880 O   0  0  0  0  0  1  0  0  0  0  0  0
  196.9770  174.5400  145.0800 O   0  0  0  0  0  0  0  0  0  0  0  0
  195.7590  176.4640  144.4570 C   0  0  0  0  0  2  0  0  0  0  0  0
  193.8880  175.3530  146.4900 C   0  0  2  0  0  3  0  0  0  0  0  0
  193.6290  176.7180  145.8290 C   0  0  2  0  0  3  0  0  0  0  0  0
  194.6760  174.4060  145.5850 C   0  0  0  0  0  2  0  0  0  0  0  0
  1 14  2  0  0  0  0
  1  6  1  0  0  0  0
  2  3  1  6  0  0  0
  2 13  1  0  0  0  0
  4  7  1  0  0  0  0
  5  2  1  0  0  0  0
  5 16  2  0  0  0  0
  6 17  2  0  0  0  0
  7  3  2  0  0  0  0
  8 12  1  0  0  0  0
  8 13  1  0  0  0  0
  8 23  1  1  0  0  0
  9  1  1  0  0  0  0
 10 18  1  0  0  0  0
 11  4  1  0  0  0  0
 13 18  1  6  0  0  0
 14  5  1  0  0  0  0
 15  4  2  0  0  0  0
 15 20  1  0  0  0  0
 16 12  1  0  0  0  0
 17 16  1  0  0  0  0
 19  3  1  0  0  0  0
 19 10  1  0  0  0  0
 20 19  2  0  0  0  0
 21 22  2  0  0  0  0
 22 23  1  0  0  0  0
 24 27  2  0  0  0  0
 24 31  1  0  0  0  0
 25 30  1  0  0  0  0
 28 24  1  0  0  0  0
 28 25  1  0  0  0  0
 29 26  1  6  0  0  0
 30 22  1  6  0  0  0
 30 29  1  0  0  0  0
 31 29  1  0  0  0  0
M  END
>  <MODEL>
7

>  <REMARK>
 VINA RESULT:      -7.9      2.565      3.080
  Name = 
  2 active torsions:
  status: ('A' for Active; 'I' for Inactive)
    1  A    between atoms: C_5  and  C_30
    2  A    between atoms: C_10  and  N_16
                            x       y       z     vdW  Elec       q    Type
                         _______ _______ _______ _____ _____    ______ ____

>  <TORSDO>
F 2

$$$$
=
 OpenBabel11112417043D

 31 35  0  0  1  0  0  0  0  0999 V2000
  185.9360  178.9940  142.9780 C   0  0  0  0  0  0  0  0  0  0  0  0
  189.0800  176.9240  143.5400 C   0  0  2  0  0  3  0  0  0  0  0  0
  188.8750  176.1810  144.8550 C   0  0  0  0  0  0  0  0  0  0  0  0
  187.7820  176.0280  147.0280 C   0  0  0  0  0  0  0  0  0  0  0  0
  187.7910  177.4250  142.9260 C   0  0  0  0  0  0  0  0  0  0  0  0
  185.3540  178.3500  141.8850 C   0  0  0  0  0  3  0  0  0  0  0  0
  187.9290  176.6450  145.7840 C   0  0  0  0  0  3  0  0  0  0  0  0
  189.0490  175.0470  141.8500 C   0  0  2  0  0  3  0  0  0  0  0  0
  185.3230  180.0610  143.5420 F   0  0  0  0  0  0  0  0  0  0  0  0
  190.7500  174.5440  144.2930 C   0  0  0  0  0  2  0  0  0  0  0  0
  186.8300  176.4910  147.9240 O   0  0  0  0  0  1  0  0  0  0  0  0
  187.9160  175.6950  141.0580 C   0  0  0  0  0  2  0  0  0  0  0  0
  189.9130  176.1240  142.5210 C   0  0  2  0  0  3  0  0  0  0  0  0
  187.1500  178.5340  143.4930 C   0  0  0  0  0  3  0  0  0  0  0  0
  188.5960  174.9490  147.3710 C   0  0  0  0  0  3  0  0  0  0  0  0
  187.2040  176.7800  141.8130 C   0  0  0  0  0  0  0  0  0  0  0  0
  185.9920  177.2540  141.2990 C   0  0  0  0  0  3  0  0  0  0  0  0
  191.1490  175.5390  143.2070 C   0  0  0  0  0  2  0  0  0  0  0  0
  189.7230  175.1090  145.2290 C   0  0  0  0  0  0  0  0  0  0  0  0
  189.5610  174.4900  146.4730 C   0  0  0  0  0  3  0  0  0  0  0  0
  189.3200  172.2120  141.9950 O   0  0  0  0  0  0  0  0  0  0  0  0
  189.9430  172.8110  141.0780 C   0  0  0  0  0  0  0  0  0  0  0  0
  189.8570  174.2310  140.9530 N   0  0  0  0  0  2  0  0  0  0  0  0
  192.0820  173.9200  138.3260 C   0  0  0  0  0  0  0  0  0  0  0  0
  192.2900  172.3770  140.2630 C   0  0  0  0  0  2  0  0  0  0  0  0
  188.9890  171.8940  138.5110 O   0  0  0  0  0  1  0  0  0  0  0  0
  192.7720  174.3880  137.4360 O   0  0  0  0  0  0  0  0  0  0  0  0
  192.6380  173.7610  139.7080 C   0  0  0  0  0  2  0  0  0  0  0  0
  190.3480  172.1840  138.6440 C   0  0  2  0  0  3  0  0  0  0  0  0
  190.7990  172.0470  140.1090 C   0  0  2  0  0  3  0  0  0  0  0  0
  190.6510  173.5660  138.0670 C   0  0  0  0  0  2  0  0  0  0  0  0
  1 14  1  0  0  0  0
  1  9  1  0  0  0  0
  2  5  1  6  0  0  0
  2  3  1  0  0  0  0
  3 19  2  0  0  0  0
  3  7  1  0  0  0  0
  4 15  1  0  0  0  0
  4 11  1  0  0  0  0
  5 14  2  0  0  0  0
  6  1  2  0  0  0  0
  7  4  2  0  0  0  0
  8 23  1  6  0  0  0
  8 13  1  0  0  0  0
 10 19  1  0  0  0  0
 12 16  1  0  0  0  0
 12  8  1  0  0  0  0
 13 18  1  1  0  0  0
 13  2  1  0  0  0  0
 16  5  1  0  0  0  0
 17 16  2  0  0  0  0
 17  6  1  0  0  0  0
 18 10  1  0  0  0  0
 19 20  1  0  0  0  0
 20 15  2  0  0  0  0
 22 21  2  0  0  0  0
 23 22  1  0  0  0  0
 24 28  1  0  0  0  0
 27 24  2  0  0  0  0
 28 25  1  0  0  0  0
 29 26  1  1  0  0  0
 29 30  1  0  0  0  0
 30 25  1  0  0  0  0
 30 22  1  1  0  0  0
 31 24  1  0  0  0  0
 31 29  1  0  0  0  0
M  END
>  <MODEL>
8

>  <REMARK>
 VINA RESULT:      -7.7      3.734      5.761
  Name = 
  2 active torsions:
  status: ('A' for Active; 'I' for Inactive)
    1  A    between atoms: C_5  and  C_30
    2  A    between atoms: C_10  and  N_16
                            x       y       z     vdW  Elec       q    Type
                         _______ _______ _______ _____ _____    ______ ____

>  <TORSDO>
F 2

$$$$
=
 OpenBabel11112417043D

 31 35  0  0  1  0  0  0  0  0999 V2000
  192.5580  172.8620  141.8520 C   0  0  0  0  0  0  0  0  0  0  0  0
  191.8380  174.1780  145.3490 C   0  0  2  0  0  3  0  0  0  0  0  0
  192.7800  175.3570  145.5670 C   0  0  0  0  0  0  0  0  0  0  0  0
  194.8550  176.5100  145.0160 C   0  0  0  0  0  0  0  0  0  0  0  0
  191.6490  173.8200  143.8910 C   0  0  0  0  0  0  0  0  0  0  0  0
  191.3930  173.2070  141.1640 C   0  0  0  0  0  3  0  0  0  0  0  0
  193.9370  175.4850  144.7800 C   0  0  0  0  0  3  0  0  0  0  0  0
  189.5770  175.3030  145.2720 C   0  0  2  0  0  3  0  0  0  0  0  0
  193.5680  172.2370  141.2020 F   0  0  0  0  0  0  0  0  0  0  0  0
  191.3770  176.1960  147.5250 C   0  0  0  0  0  2  0  0  0  0  0  0
  195.9830  176.6290  144.2170 O   0  0  0  0  0  1  0  0  0  0  0  0
  189.2610  174.7120  143.9000 C   0  0  0  0  0  2  0  0  0  0  0  0
  190.4850  174.3510  146.0640 C   0  0  2  0  0  3  0  0  0  0  0  0
  192.6830  173.1650  143.2090 C   0  0  0  0  0  3  0  0  0  0  0  0
  194.6390  177.4120  146.0570 C   0  0  0  0  0  3  0  0  0  0  0  0
  190.4670  174.1610  143.1950 C   0  0  0  0  0  0  0  0  0  0  0  0
  190.3480  173.8450  141.8370 C   0  0  0  0  0  3  0  0  0  0  0  0
  190.7140  174.8220  147.5020 C   0  0  0  0  0  2  0  0  0  0  0  0
  192.5910  176.2540  146.6460 C   0  0  0  0  0  0  0  0  0  0  0  0
  193.5100  177.2850  146.8680 C   0  0  0  0  0  3  0  0  0  0  0  0
  188.6860  177.8320  146.2390 O   0  0  0  0  0  0  0  0  0  0  0  0
  187.9420  176.8350  146.4440 C   0  0  0  0  0  0  0  0  0  0  0  0
  188.3330  175.5370  145.9930 N   0  0  0  0  0  2  0  0  0  0  0  0
  184.9130  178.7260  145.6530 C   0  0  0  0  0  0  0  0  0  0  0  0
  185.4560  176.4160  146.3890 C   0  0  0  0  0  2  0  0  0  0  0  0
  187.4430  178.9490  148.3470 O   0  0  0  0  0  1  0  0  0  0  0  0
  183.9500  179.3840  145.2980 O   0  0  0  0  0  0  0  0  0  0  0  0
  185.0640  177.3040  145.2050 C   0  0  0  0  0  2  0  0  0  0  0  0
  186.3580  178.4290  147.6400 C   0  0  2  0  0  3  0  0  0  0  0  0
  186.6420  176.9880  147.1790 C   0  0  2  0  0  3  0  0  0  0  0  0
  185.9940  179.3530  146.4780 C   0  0  0  0  0  2  0  0  0  0  0  0
  1 14  1  0  0  0  0
  2  5  1  6  0  0  0
  2  3  1  0  0  0  0
  2 13  1  0  0  0  0
  3 19  1  0  0  0  0
  4 15  2  0  0  0  0
  6 17  1  0  0  0  0
  6  1  2  0  0  0  0
  7  4  1  0  0  0  0
  7  3  2  0  0  0  0
  8 23  1  1  0  0  0
  8 13  1  0  0  0  0
  9  1  1  0  0  0  0
 11  4  1  0  0  0  0
 12  8  1  0  0  0  0
 13 18  1  1  0  0  0
 14  5  2  0  0  0  0
 15 20  1  0  0  0  0
 16  5  1  0  0  0  0
 16 12  1  0  0  0  0
 17 16  2  0  0  0  0
 18 10  1  0  0  0  0
 19 20  2  0  0  0  0
 19 10  1  0  0  0  0
 21 22  2  0  0  0  0
 23 22  1  0  0  0  0
 24 31  1  0  0  0  0
 25 30  1  0  0  0  0
 27 24  2  0  0  0  0
 28 24  1  0  0  0  0
 28 25  1  0  0  0  0
 29 26  1  6  0  0  0
 30 22  1  6  0  0  0
 30 29  1  0  0  0  0
 31 29  1  0  0  0  0
M  END
>  <MODEL>
9

>  <REMARK>
 VINA RESULT:      -7.6      3.264      7.936
  Name = 
  2 active torsions:
  status: ('A' for Active; 'I' for Inactive)
    1  A    between atoms: C_5  and  C_30
    2  A    between atoms: C_10  and  N_16
                            x       y       z     vdW  Elec       q    Type
                         _______ _______ _______ _____ _____    ______ ____

>  <TORSDO>
F 2

$$$$
