=
 OpenBabel11112417103D

 37 43  0  0  1  0  0  0  0  0999 V2000
  193.3070  174.9410  143.9420 C   0  0  0  0  0  2  0  0  0  0  0  0
  191.7660  170.6310  141.6600 C   0  0  0  0  0  0  0  0  0  0  0  0
  189.9120  174.2630  142.4760 C   0  0  1  0  0  3  0  0  0  0  0  0
  194.7930  175.1240  144.2600 C   0  0  2  0  0  3  0  0  0  0  0  0
  190.5510  176.2180  145.6300 O   0  0  0  0  0  0  0  0  0  0  0  0
  190.1580  172.2130  140.9640 C   0  0  1  0  0  3  0  0  0  0  0  0
  190.1180  174.5140  143.9680 C   0  0  2  0  0  3  0  0  0  0  0  0
  194.2260  176.2830  146.5130 C   0  0  2  0  0  3  0  0  0  0  0  0
  190.1550  172.8010  142.3760 C   0  0  1  0  0  3  0  0  0  0  0  0
  190.4140  176.0020  144.2530 C   0  0  1  0  0  3  0  0  0  0  0  0
  189.7820  173.2790  139.9180 C   0  0  0  0  0  2  0  0  0  0  0  0
  195.1190  175.2920  145.7510 C   0  0  0  0  0  2  0  0  0  0  0  0
  191.4620  172.6850  143.0510 C   0  0  2  0  0  3  0  0  0  0  0  0
  193.1500  170.1140  141.3260 C   0  0  0  0  0  1  0  0  0  0  0  0
  188.0780  175.9750  142.0450 C   0  0  0  0  0  2  0  0  0  0  0  0
  188.5670  174.1420  140.3550 C   0  0  0  0  0  2  0  0  0  0  0  0
  191.8250  171.2170  143.1000 C   0  0  0  0  0  2  0  0  0  0  0  0
  192.7300  175.8980  146.6060 C   0  0  1  0  0  3  0  0  0  0  0  0
  191.8120  176.8020  145.7760 C   0  0  0  0  0  2  0  0  0  0  0  0
  188.5570  174.5400  141.8520 C   0  0  1  0  0  3  0  0  0  0  0  0
  191.2340  173.4640  144.3430 C   0  0  1  0  0  3  0  0  0  0  0  0
  191.4010  171.5910  140.6600 O   0  0  0  0  0  0  0  0  0  0  0  0
  189.3530  176.9730  143.6890 C   0  0  1  0  0  3  0  0  0  0  0  0
  190.8160  169.4410  141.6380 C   0  0  0  0  0  1  0  0  0  0  0  0
  192.4750  174.4000  146.3560 C   0  0  0  0  0  2  0  0  0  0  0  0
  194.4230  177.5910  146.0610 O   0  0  0  0  0  1  0  0  0  0  0  0
  192.5850  173.9620  144.8840 C   0  0  2  0  0  3  0  0  0  0  0  0
  189.1360  176.8720  142.2910 O   0  0  0  0  0  0  0  0  0  0  0  0
  187.9110  176.4510  145.6790 C   0  0  0  0  0  3  0  0  0  0  0  0
  188.1320  177.2360  144.5430 C   0  0  0  0  0  0  0  0  0  0  0  0
  187.2360  178.2680  144.2280 C   0  0  0  0  0  3  0  0  0  0  0  0
  185.0080  179.7910  144.6380 Cl  0  0  0  0  0  0  0  0  0  0  0  0
  185.9030  177.7130  146.1700 C   0  0  0  0  0  3  0  0  0  0  0  0
  186.1240  178.5040  145.0400 C   0  0  0  0  0  0  0  0  0  0  0  0
  186.7970  176.6870  146.4910 C   0  0  0  0  0  3  0  0  0  0  0  0
  196.6790  176.0110  143.5130 C   0  0  0  0  0  1  0  0  0  0  0  0
  195.2970  176.2060  143.5330 O   0  0  0  0  0  0  0  0  0  0  0  0
  1  4  1  0  0  0  0
  1 27  1  0  0  0  0
  2 17  1  0  0  0  0
  3  7  1  0  0  0  0
  4 12  1  0  0  0  0
  5 19  1  0  0  0  0
  6  9  1  0  0  0  0
  7 10  1  0  0  0  0
  7 21  1  0  0  0  0
  8 18  1  0  0  0  0
  9  3  1  0  0  0  0
  9 13  1  0  0  0  0
 10  5  1  0  0  0  0
 11 16  1  0  0  0  0
 11  6  1  0  0  0  0
 12  8  1  0  0  0  0
 13 17  1  0  0  0  0
 13 21  1  0  0  0  0
 14  2  1  0  0  0  0
 15 28  1  0  0  0  0
 16 20  1  0  0  0  0
 19 18  1  0  0  0  0
 20 15  1  0  0  0  0
 20  3  1  0  0  0  0
 21 27  1  0  0  0  0
 22  6  1  0  0  0  0
 22  2  1  0  0  0  0
 23 10  1  0  0  0  0
 23 30  1  0  0  0  0
 24  2  1  0  0  0  0
 25 18  1  0  0  0  0
 26  8  1  0  0  0  0
 27 25  1  0  0  0  0
 28 23  1  0  0  0  0
 29 35  1  0  0  0  0
 30 29  2  0  0  0  0
 31 30  1  0  0  0  0
 31 34  2  0  0  0  0
 32 34  1  0  0  0  0
 33 35  2  0  0  0  0
 34 33  1  0  0  0  0
 36 37  1  0  0  0  0
 37  4  1  0  0  0  0
M  END
>  <MODEL>
1

>  <REMARK>
 VINA RESULT:      -9.6      0.000      0.000
  Name = 
  2 active torsions:
  status: ('A' for Active; 'I' for Inactive)
    1  A    between atoms: C_4  and  O_37
    2  A    between atoms: C_23  and  C_30
                            x       y       z     vdW  Elec       q    Type
                         _______ _______ _______ _____ _____    ______ ____

>  <TORSDO>
F 2

$$$$
=
 OpenBabel11112417103D

 37 43  0  0  1  0  0  0  0  0999 V2000
  192.5150  172.6010  142.4710 C   0  0  0  0  0  2  0  0  0  0  0  0
  196.5590  175.6510  143.1770 C   0  0  0  0  0  0  0  0  0  0  0  0
  192.6800  175.6400  144.6770 C   0  0  1  0  0  3  0  0  0  0  0  0
  192.7030  171.2760  141.7280 C   0  0  2  0  0  3  0  0  0  0  0  0
  189.6960  174.6290  142.6160 O   0  0  0  0  0  0  0  0  0  0  0  0
  195.1600  176.1790  145.0050 C   0  0  1  0  0  3  0  0  0  0  0  0
  191.7600  175.5670  143.4620 C   0  0  2  0  0  3  0  0  0  0  0  0
  190.4110  171.5530  140.5380 C   0  0  2  0  0  3  0  0  0  0  0  0
  193.9500  176.1140  144.0710 C   0  0  1  0  0  3  0  0  0  0  0  0
  190.5520  174.6430  143.7240 C   0  0  1  0  0  3  0  0  0  0  0  0
  194.7640  175.8360  146.4520 C   0  0  0  0  0  2  0  0  0  0  0  0
  191.8870  171.1390  140.4340 C   0  0  0  0  0  2  0  0  0  0  0  0
  194.1200  175.1420  142.9750 C   0  0  2  0  0  3  0  0  0  0  0  0
  197.6040  174.6510  142.7280 C   0  0  0  0  0  1  0  0  0  0  0  0
  190.9630  176.3420  146.4220 C   0  0  0  0  0  2  0  0  0  0  0  0
  193.4520  176.5410  146.8950 C   0  0  0  0  0  2  0  0  0  0  0  0
  195.3560  175.5370  142.1970 C   0  0  0  0  0  2  0  0  0  0  0  0
  190.1580  173.0450  140.8610 C   0  0  1  0  0  3  0  0  0  0  0  0
  189.5900  173.2810  142.2640 C   0  0  0  0  0  2  0  0  0  0  0  0
  192.3420  176.5850  145.8150 C   0  0  1  0  0  3  0  0  0  0  0  0
  192.7500  175.1610  142.3030 C   0  0  1  0  0  3  0  0  0  0  0  0
  196.2230  175.3560  144.5400 O   0  0  0  0  0  0  0  0  0  0  0  0
  189.7410  175.0100  144.9880 C   0  0  1  0  0  3  0  0  0  0  0  0
  197.1750  177.0380  143.0620 C   0  0  0  0  0  1  0  0  0  0  0  0
  191.3680  173.9440  140.5500 C   0  0  0  0  0  2  0  0  0  0  0  0
  189.7020  170.6880  141.3770 O   0  0  0  0  0  1  0  0  0  0  0  0
  192.5300  173.8360  141.5530 C   0  0  2  0  0  3  0  0  0  0  0  0
  190.4920  175.0350  146.1900 O   0  0  0  0  0  0  0  0  0  0  0  0
  188.7920  177.0250  143.8250 C   0  0  0  0  0  3  0  0  0  0  0  0
  188.6710  176.0690  144.8390 C   0  0  0  0  0  0  0  0  0  0  0  0
  187.5520  176.0920  145.6840 C   0  0  0  0  0  3  0  0  0  0  0  0
  185.1760  177.0940  146.5790 Cl  0  0  0  0  0  0  0  0  0  0  0  0
  186.6950  178.0260  144.5090 C   0  0  0  0  0  3  0  0  0  0  0  0
  186.5680  177.0700  145.5190 C   0  0  0  0  0  0  0  0  0  0  0  0
  187.8070  178.0040  143.6610 C   0  0  0  0  0  3  0  0  0  0  0  0
  192.2720  170.7990  143.8460 C   0  0  0  0  0  1  0  0  0  0  0  0
  192.4190  170.2130  142.5880 O   0  0  0  0  0  0  0  0  0  0  0  0
  2 22  1  0  0  0  0
  3 20  1  0  0  0  0
  4  1  1  0  0  0  0
  4 37  1  0  0  0  0
  5 10  1  0  0  0  0
  6 11  1  0  0  0  0
  7 10  1  0  0  0  0
  7  3  1  0  0  0  0
  8 18  1  0  0  0  0
  8 26  1  0  0  0  0
  9  3  1  0  0  0  0
  9  6  1  0  0  0  0
 10 23  1  0  0  0  0
 11 16  1  0  0  0  0
 12  8  1  0  0  0  0
 12  4  1  0  0  0  0
 13  9  1  0  0  0  0
 14  2  1  0  0  0  0
 17 13  1  0  0  0  0
 17  2  1  0  0  0  0
 18 19  1  0  0  0  0
 19  5  1  0  0  0  0
 20 15  1  0  0  0  0
 20 16  1  0  0  0  0
 21 13  1  0  0  0  0
 21  7  1  0  0  0  0
 22  6  1  0  0  0  0
 23 28  1  0  0  0  0
 24  2  1  0  0  0  0
 25 18  1  0  0  0  0
 25 27  1  0  0  0  0
 27 21  1  0  0  0  0
 27  1  1  0  0  0  0
 28 15  1  0  0  0  0
 29 30  1  0  0  0  0
 30 23  1  0  0  0  0
 30 31  2  0  0  0  0
 33 34  2  0  0  0  0
 34 31  1  0  0  0  0
 34 32  1  0  0  0  0
 35 29  2  0  0  0  0
 35 33  1  0  0  0  0
 37 36  1  0  0  0  0
M  END
>  <MODEL>
2

>  <REMARK>
 VINA RESULT:      -8.5      1.513      5.607
  Name = 
  2 active torsions:
  status: ('A' for Active; 'I' for Inactive)
    1  A    between atoms: C_4  and  O_37
    2  A    between atoms: C_23  and  C_30
                            x       y       z     vdW  Elec       q    Type
                         _______ _______ _______ _____ _____    ______ ____

>  <TORSDO>
F 2

$$$$
=
 OpenBabel11112417103D

 37 43  0  0  1  0  0  0  0  0999 V2000
  191.4320  173.3950  141.7590 C   0  0  0  0  0  2  0  0  0  0  0  0
  189.6930  176.5000  145.4320 C   0  0  0  0  0  0  0  0  0  0  0  0
  193.2230  174.3620  144.9190 C   0  0  1  0  0  3  0  0  0  0  0  0
  190.6690  173.3090  140.4340 C   0  0  2  0  0  3  0  0  0  0  0  0
  193.3310  170.9480  143.3340 O   0  0  0  0  0  0  0  0  0  0  0  0
  192.0150  176.4160  145.8530 C   0  0  1  0  0  3  0  0  0  0  0  0
  192.8040  172.9230  144.6300 C   0  0  2  0  0  3  0  0  0  0  0  0
  191.1110  170.7550  140.2810 C   0  0  2  0  0  3  0  0  0  0  0  0
  191.9960  174.9170  145.5440 C   0  0  1  0  0  3  0  0  0  0  0  0
  193.7010  172.2820  143.5490 C   0  0  1  0  0  3  0  0  0  0  0  0
  193.3930  177.0290  145.5440 C   0  0  0  0  0  2  0  0  0  0  0  0
  190.1210  171.9150  140.0940 C   0  0  0  0  0  2  0  0  0  0  0  0
  190.9780  174.5490  144.5420 C   0  0  2  0  0  3  0  0  0  0  0  0
  188.6630  177.2090  144.5790 C   0  0  0  0  0  1  0  0  0  0  0  0
  195.6780  173.9510  145.4560 C   0  0  0  0  0  2  0  0  0  0  0  0
  194.5670  176.1530  146.0640 C   0  0  0  0  0  2  0  0  0  0  0  0
  189.6300  174.9870  145.0740 C   0  0  0  0  0  2  0  0  0  0  0  0
  191.5850  170.5100  141.7340 C   0  0  1  0  0  3  0  0  0  0  0  0
  193.0570  170.8690  141.9670 C   0  0  0  0  0  2  0  0  0  0  0  0
  194.3750  174.6280  145.8700 C   0  0  1  0  0  3  0  0  0  0  0  0
  191.2670  173.0690  144.3090 C   0  0  1  0  0  3  0  0  0  0  0  0
  190.9690  177.1020  145.1750 O   0  0  0  0  0  0  0  0  0  0  0  0
  195.2120  172.3460  143.8650 C   0  0  1  0  0  3  0  0  0  0  0  0
  189.2900  176.6910  146.8880 C   0  0  0  0  0  1  0  0  0  0  0  0
  190.6480  171.1280  142.7870 C   0  0  0  0  0  2  0  0  0  0  0  0
  192.1690  170.8410  139.3720 O   0  0  0  0  0  1  0  0  0  0  0  0
  190.7440  172.6580  142.9220 C   0  0  2  0  0  3  0  0  0  0  0  0
  195.7200  173.6520  144.0800 O   0  0  0  0  0  0  0  0  0  0  0  0
  197.1240  170.8820  144.5820 C   0  0  0  0  0  3  0  0  0  0  0  0
  195.7830  171.2480  144.7360 C   0  0  0  0  0  0  0  0  0  0  0  0
  194.9980  170.6120  145.7090 C   0  0  0  0  0  3  0  0  0  0  0  0
  194.5630  168.8210  147.7220 Cl  0  0  0  0  0  0  0  0  0  0  0  0
  196.8880  169.2450  146.3520 C   0  0  0  0  0  3  0  0  0  0  0  0
  195.5500  169.6120  146.5130 C   0  0  0  0  0  0  0  0  0  0  0  0
  197.6760  169.8810  145.3870 C   0  0  0  0  0  3  0  0  0  0  0  0
  192.6660  174.1660  140.0170 C   0  0  0  0  0  1  0  0  0  0  0  0
  191.4790  173.7730  139.3960 O   0  0  0  0  0  0  0  0  0  0  0  0
  1 27  1  0  0  0  0
  2 24  1  0  0  0  0
  3  9  1  0  0  0  0
  3 20  1  0  0  0  0
  4  1  1  0  0  0  0
  5 10  1  0  0  0  0
  7  3  1  0  0  0  0
  8 18  1  0  0  0  0
  9  6  1  0  0  0  0
 10 23  1  0  0  0  0
 10  7  1  0  0  0  0
 11  6  1  0  0  0  0
 11 16  1  0  0  0  0
 12  8  1  0  0  0  0
 12  4  1  0  0  0  0
 13 17  1  0  0  0  0
 13  9  1  0  0  0  0
 14  2  1  0  0  0  0
 15 20  1  0  0  0  0
 17  2  1  0  0  0  0
 18 19  1  0  0  0  0
 18 25  1  0  0  0  0
 19  5  1  0  0  0  0
 20 16  1  0  0  0  0
 21 13  1  0  0  0  0
 21  7  1  0  0  0  0
 22  2  1  0  0  0  0
 22  6  1  0  0  0  0
 23 28  1  0  0  0  0
 23 30  1  0  0  0  0
 25 27  1  0  0  0  0
 26  8  1  0  0  0  0
 27 21  1  0  0  0  0
 28 15  1  0  0  0  0
 29 30  2  0  0  0  0
 29 35  1  0  0  0  0
 30 31  1  0  0  0  0
 31 34  2  0  0  0  0
 33 34  1  0  0  0  0
 34 32  1  0  0  0  0
 35 33  2  0  0  0  0
 37 36  1  0  0  0  0
 37  4  1  0  0  0  0
M  END
>  <MODEL>
3

>  <REMARK>
 VINA RESULT:      -8.2      3.526      8.055
  Name = 
  2 active torsions:
  status: ('A' for Active; 'I' for Inactive)
    1  A    between atoms: C_4  and  O_37
    2  A    between atoms: C_23  and  C_30
                            x       y       z     vdW  Elec       q    Type
                         _______ _______ _______ _____ _____    ______ ____

>  <TORSDO>
F 2

$$$$
=
 OpenBabel11112417103D

 37 43  0  0  1  0  0  0  0  0999 V2000
  190.5240  173.5230  142.8310 C   0  0  0  0  0  2  0  0  0  0  0  0
  194.7210  175.8750  144.5650 C   0  0  0  0  0  0  0  0  0  0  0  0
  190.6680  176.2460  145.4180 C   0  0  1  0  0  3  0  0  0  0  0  0
  190.6770  172.2740  141.9580 C   0  0  2  0  0  3  0  0  0  0  0  0
  187.9890  175.8990  142.7950 O   0  0  0  0  0  0  0  0  0  0  0  0
  193.0990  176.3910  146.2020 C   0  0  1  0  0  3  0  0  0  0  0  0
  189.9710  176.4380  144.0730 C   0  0  2  0  0  3  0  0  0  0  0  0
  188.6790  173.0010  140.4680 C   0  0  2  0  0  3  0  0  0  0  0  0
  192.0720  176.6000  145.0880 C   0  0  1  0  0  3  0  0  0  0  0  0
  188.6330  175.6700  144.0170 C   0  0  1  0  0  3  0  0  0  0  0  0
  192.4180  175.9490  147.5110 C   0  0  0  0  0  2  0  0  0  0  0  0
  190.0900  172.3970  140.5450 C   0  0  0  0  0  2  0  0  0  0  0  0
  192.3110  175.7400  143.9140 C   0  0  2  0  0  3  0  0  0  0  0  0
  195.7000  174.7930  144.1590 C   0  0  0  0  0  1  0  0  0  0  0  0
  188.7700  176.9860  146.9460 C   0  0  0  0  0  2  0  0  0  0  0  0
  191.1430  176.7780  147.8290 C   0  0  0  0  0  2  0  0  0  0  0  0
  193.7020  176.0410  143.4010 C   0  0  0  0  0  2  0  0  0  0  0  0
  188.5550  174.4690  140.9410 C   0  0  1  0  0  3  0  0  0  0  0  0
  187.7830  174.6270  142.2550 C   0  0  0  0  0  2  0  0  0  0  0  0
  190.2520  177.0980  146.6030 C   0  0  1  0  0  3  0  0  0  0  0  0
  191.0920  176.0270  143.0430 C   0  0  1  0  0  3  0  0  0  0  0  0
  194.1200  175.4820  145.8070 O   0  0  0  0  0  0  0  0  0  0  0  0
  187.6650  176.0060  145.1730 C   0  0  1  0  0  3  0  0  0  0  0  0
  195.5100  177.1650  144.7340 C   0  0  0  0  0  1  0  0  0  0  0  0
  189.9000  175.2180  140.9470 C   0  0  0  0  0  2  0  0  0  0  0  0
  187.7360  172.1580  141.0620 O   0  0  0  0  0  1  0  0  0  0  0  0
  190.8480  174.8370  142.0990 C   0  0  2  0  0  3  0  0  0  0  0  0
  188.1920  175.7920  146.4720 O   0  0  0  0  0  0  0  0  0  0  0  0
  187.1150  178.1860  144.0510 C   0  0  0  0  0  3  0  0  0  0  0  0
  186.7730  177.2160  144.9990 C   0  0  0  0  0  0  0  0  0  0  0  0
  185.6000  177.3660  145.7530 C   0  0  0  0  0  3  0  0  0  0  0  0
  183.3230  178.6660  146.5120 Cl  0  0  0  0  0  0  0  0  0  0  0  0
  185.1300  179.4530  144.6210 C   0  0  0  0  0  3  0  0  0  0  0  0
  184.7830  178.4830  145.5640 C   0  0  0  0  0  0  0  0  0  0  0  0
  186.2970  179.3040  143.8630 C   0  0  0  0  0  3  0  0  0  0  0  0
  190.7140  170.0620  142.0130 C   0  0  0  0  0  1  0  0  0  0  0  0
  190.1220  171.1730  142.6140 O   0  0  0  0  0  0  0  0  0  0  0  0
  2 24  1  0  0  0  0
  2 22  1  0  0  0  0
  3 20  1  0  0  0  0
  4 37  1  0  0  0  0
  4  1  1  0  0  0  0
  5 10  1  0  0  0  0
  6 11  1  0  0  0  0
  7  3  1  0  0  0  0
  8 12  1  0  0  0  0
  8 18  1  0  0  0  0
  8 26  1  0  0  0  0
  9  3  1  0  0  0  0
  9  6  1  0  0  0  0
 10  7  1  0  0  0  0
 10 23  1  0  0  0  0
 11 16  1  0  0  0  0
 12  4  1  0  0  0  0
 13  9  1  0  0  0  0
 14  2  1  0  0  0  0
 17 13  1  0  0  0  0
 17  2  1  0  0  0  0
 18 25  1  0  0  0  0
 18 19  1  0  0  0  0
 19  5  1  0  0  0  0
 20 15  1  0  0  0  0
 20 16  1  0  0  0  0
 21 13  1  0  0  0  0
 21  7  1  0  0  0  0
 22  6  1  0  0  0  0
 23 28  1  0  0  0  0
 25 27  1  0  0  0  0
 27  1  1  0  0  0  0
 27 21  1  0  0  0  0
 28 15  1  0  0  0  0
 29 30  1  0  0  0  0
 30 23  1  0  0  0  0
 30 31  2  0  0  0  0
 33 34  2  0  0  0  0
 34 31  1  0  0  0  0
 34 32  1  0  0  0  0
 35 29  2  0  0  0  0
 35 33  1  0  0  0  0
 36 37  1  0  0  0  0
M  END
>  <MODEL>
4

>  <REMARK>
 VINA RESULT:      -8.2      1.532      5.666
  Name = 
  2 active torsions:
  status: ('A' for Active; 'I' for Inactive)
    1  A    between atoms: C_4  and  O_37
    2  A    between atoms: C_23  and  C_30
                            x       y       z     vdW  Elec       q    Type
                         _______ _______ _______ _____ _____    ______ ____

>  <TORSDO>
F 2

$$$$
=
 OpenBabel11112417103D

 37 43  0  0  1  0  0  0  0  0999 V2000
  193.7150  174.6310  142.1500 C   0  0  0  0  0  2  0  0  0  0  0  0
  191.4700  170.8800  139.4940 C   0  0  0  0  0  0  0  0  0  0  0  0
  190.0290  174.1930  141.5550 C   0  0  1  0  0  3  0  0  0  0  0  0
  195.2370  174.7830  142.0820 C   0  0  2  0  0  3  0  0  0  0  0  0
  191.5660  175.4310  144.7610 O   0  0  0  0  0  0  0  0  0  0  0  0
  189.7860  172.5300  139.6250 C   0  0  1  0  0  3  0  0  0  0  0  0
  190.6420  174.1190  142.9510 C   0  0  2  0  0  3  0  0  0  0  0  0
  195.3430  175.4060  144.6000 C   0  0  2  0  0  3  0  0  0  0  0  0
  190.1870  172.7960  141.0770 C   0  0  1  0  0  3  0  0  0  0  0  0
  191.0520  175.5160  143.4610 C   0  0  1  0  0  3  0  0  0  0  0  0
  189.1750  173.7880  138.9780 C   0  0  0  0  0  2  0  0  0  0  0  0
  195.9620  174.6300  143.4270 C   0  0  0  0  0  2  0  0  0  0  0  0
  191.6230  172.5730  141.3280 C   0  0  2  0  0  3  0  0  0  0  0  0
  192.6930  170.4880  138.6920 C   0  0  0  0  0  1  0  0  0  0  0  0
  188.2040  175.9060  142.0230 C   0  0  0  0  0  2  0  0  0  0  0  0
  188.1540  174.5000  139.9070 C   0  0  0  0  0  2  0  0  0  0  0  0
  191.9380  171.1400  140.9560 C   0  0  0  0  0  2  0  0  0  0  0  0
  193.9170  174.9680  145.0120 C   0  0  1  0  0  3  0  0  0  0  0  0
  192.8380  176.0040  144.6810 C   0  0  0  0  0  2  0  0  0  0  0  0
  188.5650  174.5610  141.3990 C   0  0  1  0  0  3  0  0  0  0  0  0
  191.7820  173.0450  142.7700 C   0  0  1  0  0  3  0  0  0  0  0  0
  190.8780  172.0250  138.8660 O   0  0  0  0  0  0  0  0  0  0  0  0
  189.9110  176.5570  143.4330 C   0  0  1  0  0  3  0  0  0  0  0  0
  190.5110  169.6980  139.4740 C   0  0  0  0  0  1  0  0  0  0  0  0
  193.5540  173.5540  144.5210 C   0  0  0  0  0  2  0  0  0  0  0  0
  195.4520  176.7860  144.4080 O   0  0  0  0  0  1  0  0  0  0  0  0
  193.2450  173.4500  143.0170 C   0  0  2  0  0  3  0  0  0  0  0  0
  189.3190  176.7570  142.1600 O   0  0  0  0  0  0  0  0  0  0  0  0
  189.1330  175.6470  145.6410 C   0  0  0  0  0  3  0  0  0  0  0  0
  188.9780  176.5930  144.6230 C   0  0  0  0  0  0  0  0  0  0  0  0
  187.9800  177.5730  144.7330 C   0  0  0  0  0  3  0  0  0  0  0  0
  185.8950  178.8200  145.9770 Cl  0  0  0  0  0  0  0  0  0  0  0  0
  187.2940  176.6460  146.8610 C   0  0  0  0  0  3  0  0  0  0  0  0
  187.1400  177.5970  145.8490 C   0  0  0  0  0  0  0  0  0  0  0  0
  188.2910  175.6710  146.7580 C   0  0  0  0  0  3  0  0  0  0  0  0
  196.8600  175.8490  141.0210 C   0  0  0  0  0  1  0  0  0  0  0  0
  195.5590  176.0100  141.4990 O   0  0  0  0  0  0  0  0  0  0  0  0
  1 27  1  0  0  0  0
  2 17  1  0  0  0  0
  3  7  1  0  0  0  0
  4  1  1  0  0  0  0
  4 12  1  0  0  0  0
  6  9  1  0  0  0  0
  7 10  1  0  0  0  0
  8 18  1  0  0  0  0
  9 13  1  0  0  0  0
  9  3  1  0  0  0  0
 10  5  1  0  0  0  0
 11  6  1  0  0  0  0
 11 16  1  0  0  0  0
 12  8  1  0  0  0  0
 13 21  1  0  0  0  0
 14  2  1  0  0  0  0
 15 28  1  0  0  0  0
 16 20  1  0  0  0  0
 17 13  1  0  0  0  0
 19  5  1  0  0  0  0
 19 18  1  0  0  0  0
 20  3  1  0  0  0  0
 20 15  1  0  0  0  0
 21  7  1  0  0  0  0
 21 27  1  0  0  0  0
 22  2  1  0  0  0  0
 22  6  1  0  0  0  0
 23 10  1  0  0  0  0
 23 30  1  0  0  0  0
 24  2  1  0  0  0  0
 25 18  1  0  0  0  0
 26  8  1  0  0  0  0
 27 25  1  0  0  0  0
 28 23  1  0  0  0  0
 29 35  1  0  0  0  0
 30 31  1  0  0  0  0
 30 29  2  0  0  0  0
 31 34  2  0  0  0  0
 34 32  1  0  0  0  0
 34 33  1  0  0  0  0
 35 33  2  0  0  0  0
 36 37  1  0  0  0  0
 37  4  1  0  0  0  0
M  END
>  <MODEL>
5

>  <REMARK>
 VINA RESULT:      -8.1      1.419      1.756
  Name = 
  2 active torsions:
  status: ('A' for Active; 'I' for Inactive)
    1  A    between atoms: C_4  and  O_37
    2  A    between atoms: C_23  and  C_30
                            x       y       z     vdW  Elec       q    Type
                         _______ _______ _______ _____ _____    ______ ____

>  <TORSDO>
F 2

$$$$
=
 OpenBabel11112417103D

 37 43  0  0  1  0  0  0  0  0999 V2000
  191.6420  172.9090  142.7170 C   0  0  0  0  0  2  0  0  0  0  0  0
  194.4120  176.1450  145.5490 C   0  0  0  0  0  0  0  0  0  0  0  0
  190.3970  175.9910  144.4740 C   0  0  1  0  0  3  0  0  0  0  0  0
  192.2650  171.5810  142.2810 C   0  0  2  0  0  3  0  0  0  0  0  0
  189.2320  174.8140  141.0920 O   0  0  0  0  0  0  0  0  0  0  0  0
  192.1910  176.6440  146.1780 C   0  0  1  0  0  3  0  0  0  0  0  0
  190.3740  175.8570  142.9540 C   0  0  2  0  0  3  0  0  0  0  0  0
  191.1120  171.7360  139.9600 C   0  0  2  0  0  3  0  0  0  0  0  0
  191.7680  176.5090  144.7140 C   0  0  1  0  0  3  0  0  0  0  0  0
  189.2680  174.8850  142.4910 C   0  0  1  0  0  3  0  0  0  0  0  0
  191.0250  176.3090  147.1260 C   0  0  0  0  0  2  0  0  0  0  0  0
  192.3750  171.3860  140.7620 C   0  0  0  0  0  2  0  0  0  0  0  0
  192.5760  175.5260  143.9690 C   0  0  2  0  0  3  0  0  0  0  0  0
  195.5450  175.1840  145.8420 C   0  0  0  0  0  1  0  0  0  0  0  0
  187.9640  176.6470  144.8420 C   0  0  0  0  0  2  0  0  0  0  0  0
  189.6880  176.9630  146.6820 C   0  0  0  0  0  2  0  0  0  0  0  0
  194.0230  175.9620  144.0530 C   0  0  0  0  0  2  0  0  0  0  0  0
  190.6800  173.2210  140.0110 C   0  0  1  0  0  3  0  0  0  0  0  0
  189.3870  173.4570  140.7990 C   0  0  0  0  0  2  0  0  0  0  0  0
  189.4290  176.9400  145.1550 C   0  0  1  0  0  3  0  0  0  0  0  0
  191.8670  175.4740  142.6180 C   0  0  1  0  0  3  0  0  0  0  0  0
  193.3440  175.8590  146.4620 O   0  0  0  0  0  0  0  0  0  0  0  0
  187.8590  175.2380  143.0180 C   0  0  1  0  0  3  0  0  0  0  0  0
  194.9420  177.5550  145.7630 C   0  0  0  0  0  1  0  0  0  0  0  0
  191.8180  174.1670  140.4380 C   0  0  0  0  0  2  0  0  0  0  0  0
  190.0670  170.8570  140.2540 O   0  0  0  0  0  1  0  0  0  0  0  0
  192.1650  174.1280  141.9370 C   0  0  2  0  0  3  0  0  0  0  0  0
  187.7540  175.3170  144.4300 O   0  0  0  0  0  0  0  0  0  0  0  0
  187.4970  176.6210  140.9510 C   0  0  0  0  0  3  0  0  0  0  0  0
  187.0570  176.2470  142.2250 C   0  0  0  0  0  0  0  0  0  0  0  0
  185.8700  176.7920  142.7360 C   0  0  0  0  0  3  0  0  0  0  0  0
  183.6590  178.3890  142.6270 Cl  0  0  0  0  0  0  0  0  0  0  0  0
  185.5830  178.0860  140.7110 C   0  0  0  0  0  3  0  0  0  0  0  0
  185.1370  177.7100  141.9810 C   0  0  0  0  0  0  0  0  0  0  0  0
  186.7630  177.5410  140.1950 C   0  0  0  0  0  3  0  0  0  0  0  0
  192.3790  169.4070  142.6840 C   0  0  0  0  0  1  0  0  0  0  0  0
  191.5550  170.5210  142.8510 O   0  0  0  0  0  0  0  0  0  0  0  0
  2 24  1  0  0  0  0
  2 14  1  0  0  0  0
  2 22  1  0  0  0  0
  3  9  1  0  0  0  0
  3 20  1  0  0  0  0
  4  1  1  0  0  0  0
  4 37  1  0  0  0  0
  5 10  1  0  0  0  0
  6 22  1  0  0  0  0
  6 11  1  0  0  0  0
  7  3  1  0  0  0  0
  8 18  1  0  0  0  0
  8 26  1  0  0  0  0
  8 12  1  0  0  0  0
  9  6  1  0  0  0  0
 10  7  1  0  0  0  0
 10 23  1  0  0  0  0
 12  4  1  0  0  0  0
 13 17  1  0  0  0  0
 13  9  1  0  0  0  0
 15 20  1  0  0  0  0
 16 11  1  0  0  0  0
 17  2  1  0  0  0  0
 18 25  1  0  0  0  0
 18 19  1  0  0  0  0
 19  5  1  0  0  0  0
 20 16  1  0  0  0  0
 21  7  1  0  0  0  0
 21 13  1  0  0  0  0
 23 28  1  0  0  0  0
 25 27  1  0  0  0  0
 27 21  1  0  0  0  0
 27  1  1  0  0  0  0
 28 15  1  0  0  0  0
 29 30  1  0  0  0  0
 30 31  2  0  0  0  0
 30 23  1  0  0  0  0
 33 34  2  0  0  0  0
 34 32  1  0  0  0  0
 34 31  1  0  0  0  0
 35 33  1  0  0  0  0
 35 29  2  0  0  0  0
 36 37  1  0  0  0  0
M  END
>  <MODEL>
6

>  <REMARK>
 VINA RESULT:      -7.8      1.790      5.688
  Name = 
  2 active torsions:
  status: ('A' for Active; 'I' for Inactive)
    1  A    between atoms: C_4  and  O_37
    2  A    between atoms: C_23  and  C_30
                            x       y       z     vdW  Elec       q    Type
                         _______ _______ _______ _____ _____    ______ ____

>  <TORSDO>
F 2

$$$$
=
 OpenBabel11112417103D

 37 43  0  0  1  0  0  0  0  0999 V2000
  194.4900  174.9330  143.4660 C   0  0  0  0  0  2  0  0  0  0  0  0
  190.3170  175.9700  146.2350 C   0  0  0  0  0  0  0  0  0  0  0  0
  191.0210  173.6070  142.8870 C   0  0  1  0  0  3  0  0  0  0  0  0
  195.8600  175.3690  143.9930 C   0  0  2  0  0  3  0  0  0  0  0  0
  193.4420  174.5810  140.1720 O   0  0  0  0  0  0  0  0  0  0  0  0
  189.7000  174.0320  145.0370 C   0  0  1  0  0  3  0  0  0  0  0  0
  191.7260  174.5080  141.8770 C   0  0  2  0  0  3  0  0  0  0  0  0
  196.6450  175.9920  141.5980 C   0  0  2  0  0  3  0  0  0  0  0  0
  190.3990  174.5990  143.8000 C   0  0  1  0  0  3  0  0  0  0  0  0
  192.8410  173.7500  141.1270 C   0  0  1  0  0  3  0  0  0  0  0  0
  189.6920  172.4920  145.0130 C   0  0  0  0  0  2  0  0  0  0  0  0
  196.6150  176.3550  143.0910 C   0  0  0  0  0  2  0  0  0  0  0  0
  191.5610  175.4450  144.1310 C   0  0  2  0  0  3  0  0  0  0  0  0
  191.0500  176.4150  147.4840 C   0  0  0  0  0  1  0  0  0  0  0  0
  190.3660  171.7090  141.3210 C   0  0  0  0  0  2  0  0  0  0  0  0
  189.3070  171.9190  143.6210 C   0  0  0  0  0  2  0  0  0  0  0  0
  191.0720  176.5720  145.0140 C   0  0  0  0  0  2  0  0  0  0  0  0
  195.2710  175.9750  140.8880 C   0  0  1  0  0  3  0  0  0  0  0  0
  194.8010  174.5700  140.4940 C   0  0  0  0  0  2  0  0  0  0  0  0
  189.9210  172.6740  142.4160 C   0  0  1  0  0  3  0  0  0  0  0  0
  192.1510  175.7460  142.7570 C   0  0  1  0  0  3  0  0  0  0  0  0
  190.2730  174.5370  146.2370 O   0  0  0  0  0  0  0  0  0  0  0  0
  192.3670  172.4480  140.4420 C   0  0  1  0  0  3  0  0  0  0  0  0
  188.9120  176.5540  146.2980 C   0  0  0  0  0  1  0  0  0  0  0  0
  194.1920  176.7740  141.6410 C   0  0  0  0  0  2  0  0  0  0  0  0
  197.3850  174.8270  141.3760 O   0  0  0  0  0  1  0  0  0  0  0  0
  193.6430  176.0880  142.9050 C   0  0  2  0  0  3  0  0  0  0  0  0
  191.7600  171.5060  141.3110 O   0  0  0  0  0  0  0  0  0  0  0  0
  192.3430  171.8660  137.9980 C   0  0  0  0  0  3  0  0  0  0  0  0
  191.7680  172.5740  139.0580 C   0  0  0  0  0  0  0  0  0  0  0  0
  190.6340  173.3660  138.8290 C   0  0  0  0  0  3  0  0  0  0  0  0
  188.6750  174.4500  137.2670 Cl  0  0  0  0  0  0  0  0  0  0  0  0
  190.6680  172.7510  136.4890 C   0  0  0  0  0  3  0  0  0  0  0  0
  190.0880  173.4550  137.5460 C   0  0  0  0  0  0  0  0  0  0  0  0
  191.7960  171.9550  136.7140 C   0  0  0  0  0  3  0  0  0  0  0  0
  195.7890  173.1570  144.0490 C   0  0  0  0  0  1  0  0  0  0  0  0
  196.6480  174.2410  144.2370 O   0  0  0  0  0  0  0  0  0  0  0  0
  1  4  1  0  0  0  0
  2 22  1  0  0  0  0
  2 24  1  0  0  0  0
  2 14  1  0  0  0  0
  3  9  1  0  0  0  0
  4 37  1  0  0  0  0
  5 19  1  0  0  0  0
  5 10  1  0  0  0  0
  6 22  1  0  0  0  0
  7 21  1  0  0  0  0
  7  3  1  0  0  0  0
  8 12  1  0  0  0  0
  9 13  1  0  0  0  0
  9  6  1  0  0  0  0
 10  7  1  0  0  0  0
 11  6  1  0  0  0  0
 12  4  1  0  0  0  0
 13 17  1  0  0  0  0
 15 20  1  0  0  0  0
 16 11  1  0  0  0  0
 17  2  1  0  0  0  0
 18  8  1  0  0  0  0
 18 25  1  0  0  0  0
 19 18  1  0  0  0  0
 20  3  1  0  0  0  0
 20 16  1  0  0  0  0
 21 27  1  0  0  0  0
 21 13  1  0  0  0  0
 23 10  1  0  0  0  0
 23 28  1  0  0  0  0
 25 27  1  0  0  0  0
 26  8  1  0  0  0  0
 27  1  1  0  0  0  0
 28 15  1  0  0  0  0
 29 30  1  0  0  0  0
 30 23  1  0  0  0  0
 31 30  2  0  0  0  0
 32 34  1  0  0  0  0
 33 35  1  0  0  0  0
 33 34  2  0  0  0  0
 34 31  1  0  0  0  0
 35 29  2  0  0  0  0
 36 37  1  0  0  0  0
M  END
>  <MODEL>
7

>  <REMARK>
 VINA RESULT:      -7.5      2.760      6.306
  Name = 
  2 active torsions:
  status: ('A' for Active; 'I' for Inactive)
    1  A    between atoms: C_4  and  O_37
    2  A    between atoms: C_23  and  C_30
                            x       y       z     vdW  Elec       q    Type
                         _______ _______ _______ _____ _____    ______ ____

>  <TORSDO>
F 2

$$$$
=
 OpenBabel11112417103D

 37 43  0  0  1  0  0  0  0  0999 V2000
  192.5440  175.4130  142.3010 C   0  0  0  0  0  2  0  0  0  0  0  0
  190.2930  172.1570  139.0630 C   0  0  0  0  0  0  0  0  0  0  0  0
  188.8870  175.2610  141.4460 C   0  0  1  0  0  3  0  0  0  0  0  0
  194.0730  175.4860  142.3400 C   0  0  2  0  0  3  0  0  0  0  0  0
  190.2750  175.9990  144.8670 O   0  0  0  0  0  0  0  0  0  0  0  0
  188.6860  173.8700  139.3080 C   0  0  1  0  0  3  0  0  0  0  0  0
  189.4050  174.9780  142.8530 C   0  0  2  0  0  3  0  0  0  0  0  0
  194.0490  175.7820  144.9190 C   0  0  2  0  0  3  0  0  0  0  0  0
  189.0070  173.9280  140.8020 C   0  0  1  0  0  3  0  0  0  0  0  0
  189.8500  176.2760  143.5620 C   0  0  1  0  0  3  0  0  0  0  0  0
  188.1790  175.2300  138.7950 C   0  0  0  0  0  2  0  0  0  0  0  0
  194.7020  175.1260  143.6930 C   0  0  0  0  0  2  0  0  0  0  0  0
  190.4110  173.5950  141.1040 C   0  0  2  0  0  3  0  0  0  0  0  0
  191.5430  171.8000  138.2870 C   0  0  0  0  0  1  0  0  0  0  0  0
  187.1210  177.0020  142.0260 C   0  0  0  0  0  2  0  0  0  0  0  0
  187.1370  175.8770  139.7480 C   0  0  0  0  0  2  0  0  0  0  0  0
  190.6790  172.2050  140.5700 C   0  0  0  0  0  2  0  0  0  0  0  0
  192.5800  175.3770  145.1890 C   0  0  1  0  0  3  0  0  0  0  0  0
  191.5760  176.5060  144.9330 C   0  0  0  0  0  2  0  0  0  0  0  0
  187.4550  175.7280  141.2560 C   0  0  1  0  0  3  0  0  0  0  0  0
  190.5010  173.8730  142.6020 C   0  0  1  0  0  3  0  0  0  0  0  0
  189.7980  173.4030  138.5530 O   0  0  0  0  0  0  0  0  0  0  0  0
  188.7640  177.3750  143.6030 C   0  0  1  0  0  3  0  0  0  0  0  0
  189.2810  171.0420  138.8360 C   0  0  0  0  0  1  0  0  0  0  0  0
  192.1810  174.0580  144.5020 C   0  0  0  0  0  2  0  0  0  0  0  0
  194.2370  177.1670  144.9120 O   0  0  0  0  0  1  0  0  0  0  0  0
  191.9630  174.1610  142.9810 C   0  0  2  0  0  3  0  0  0  0  0  0
  188.2640  177.7650  142.3340 O   0  0  0  0  0  0  0  0  0  0  0  0
  188.0110  176.4760  145.8250 C   0  0  0  0  0  3  0  0  0  0  0  0
  187.7600  177.3130  144.7330 C   0  0  0  0  0  0  0  0  0  0  0  0
  186.5990  178.0990  144.7140 C   0  0  0  0  0  3  0  0  0  0  0  0
  184.2440  179.0190  145.7430 Cl  0  0  0  0  0  0  0  0  0  0  0  0
  185.9440  177.1970  146.8620 C   0  0  0  0  0  3  0  0  0  0  0  0
  185.6930  178.0390  145.7760 C   0  0  0  0  0  0  0  0  0  0  0  0
  187.1040  176.4160  146.8870 C   0  0  0  0  0  3  0  0  0  0  0  0
  195.5410  176.5240  141.0500 C   0  0  0  0  0  1  0  0  0  0  0  0
  194.4910  176.7570  141.9390 O   0  0  0  0  0  0  0  0  0  0  0  0
  1  4  1  0  0  0  0
  1 27  1  0  0  0  0
  2 17  1  0  0  0  0
  3  7  1  0  0  0  0
  4 12  1  0  0  0  0
  5 19  1  0  0  0  0
  6  9  1  0  0  0  0
  7 10  1  0  0  0  0
  8 18  1  0  0  0  0
  9 13  1  0  0  0  0
  9  3  1  0  0  0  0
 10 23  1  0  0  0  0
 10  5  1  0  0  0  0
 11  6  1  0  0  0  0
 11 16  1  0  0  0  0
 12  8  1  0  0  0  0
 13 21  1  0  0  0  0
 14  2  1  0  0  0  0
 15 28  1  0  0  0  0
 16 20  1  0  0  0  0
 17 13  1  0  0  0  0
 19 18  1  0  0  0  0
 20  3  1  0  0  0  0
 20 15  1  0  0  0  0
 21  7  1  0  0  0  0
 21 27  1  0  0  0  0
 22  2  1  0  0  0  0
 22  6  1  0  0  0  0
 23 30  1  0  0  0  0
 24  2  1  0  0  0  0
 25 18  1  0  0  0  0
 26  8  1  0  0  0  0
 27 25  1  0  0  0  0
 28 23  1  0  0  0  0
 29 35  1  0  0  0  0
 30 29  2  0  0  0  0
 31 30  1  0  0  0  0
 31 34  2  0  0  0  0
 32 34  1  0  0  0  0
 33 35  2  0  0  0  0
 34 33  1  0  0  0  0
 36 37  1  0  0  0  0
 37  4  1  0  0  0  0
M  END
>  <MODEL>
8

>  <REMARK>
 VINA RESULT:      -7.3      1.530      2.017
  Name = 
  2 active torsions:
  status: ('A' for Active; 'I' for Inactive)
    1  A    between atoms: C_4  and  O_37
    2  A    between atoms: C_23  and  C_30
                            x       y       z     vdW  Elec       q    Type
                         _______ _______ _______ _____ _____    ______ ____

>  <TORSDO>
F 2

$$$$
=
 OpenBabel11112417103D

 37 43  0  0  1  0  0  0  0  0999 V2000
  191.9430  175.6000  145.1330 C   0  0  0  0  0  2  0  0  0  0  0  0
  187.6980  177.4170  142.9330 C   0  0  0  0  0  0  0  0  0  0  0  0
  190.1460  174.1430  142.1700 C   0  0  1  0  0  3  0  0  0  0  0  0
  192.3940  176.1830  146.4750 C   0  0  2  0  0  3  0  0  0  0  0  0
  193.8860  174.2480  142.5890 O   0  0  0  0  0  0  0  0  0  0  0  0
  187.8170  175.2010  142.1260 C   0  0  1  0  0  3  0  0  0  0  0  0
  191.5660  174.6950  142.0690 C   0  0  2  0  0  3  0  0  0  0  0  0
  194.8860  176.0450  145.7620 C   0  0  2  0  0  3  0  0  0  0  0  0
  189.3290  175.3650  141.9590 C   0  0  1  0  0  3  0  0  0  0  0  0
  192.5870  173.7480  142.7360 C   0  0  1  0  0  3  0  0  0  0  0  0
  187.4410  173.7290  142.3740 C   0  0  0  0  0  2  0  0  0  0  0  0
  193.7770  176.8480  146.4580 C   0  0  0  0  0  2  0  0  0  0  0  0
  189.9230  176.2770  142.9540 C   0  0  2  0  0  3  0  0  0  0  0  0
  187.2260  178.2270  144.1220 C   0  0  0  0  0  1  0  0  0  0  0  0
  190.5460  171.8530  141.1300 C   0  0  0  0  0  2  0  0  0  0  0  0
  188.1880  172.7540  141.4220 C   0  0  0  0  0  2  0  0  0  0  0  0
  189.2370  177.6190  142.8150 C   0  0  0  0  0  2  0  0  0  0  0  0
  194.6840  175.8040  144.2460 C   0  0  1  0  0  3  0  0  0  0  0  0
  194.3810  174.3440  143.8930 C   0  0  0  0  0  2  0  0  0  0  0  0
  189.6750  173.1050  141.1680 C   0  0  1  0  0  3  0  0  0  0  0  0
  191.4160  176.1450  142.6710 C   0  0  1  0  0  3  0  0  0  0  0  0
  187.3090  176.0530  143.1460 O   0  0  0  0  0  0  0  0  0  0  0  0
  192.5380  172.2970  142.2070 C   0  0  1  0  0  3  0  0  0  0  0  0
  187.0180  177.9850  141.6950 C   0  0  0  0  0  1  0  0  0  0  0  0
  193.6910  176.7900  143.6050 C   0  0  0  0  0  2  0  0  0  0  0  0
  195.1770  174.8710  146.4630 O   0  0  0  0  0  1  0  0  0  0  0  0
  192.2110  176.5230  143.9320 C   0  0  2  0  0  3  0  0  0  0  0  0
  191.2740  171.6640  142.3210 O   0  0  0  0  0  0  0  0  0  0  0  0
  194.1790  170.8730  140.9450 C   0  0  0  0  0  3  0  0  0  0  0  0
  193.3360  171.9880  140.9590 C   0  0  0  0  0  0  0  0  0  0  0  0
  193.2240  172.7870  139.8110 C   0  0  0  0  0  3  0  0  0  0  0  0
  193.8160  173.4780  137.2380 Cl  0  0  0  0  0  0  0  0  0  0  0  0
  194.8040  171.3630  138.6570 C   0  0  0  0  0  3  0  0  0  0  0  0
  193.9580  172.4750  138.6650 C   0  0  0  0  0  0  0  0  0  0  0  0
  194.9140  170.5610  139.7970 C   0  0  0  0  0  3  0  0  0  0  0  0
  191.0760  175.2910  148.0130 C   0  0  0  0  0  1  0  0  0  0  0  0
  192.3510  175.1890  147.4550 O   0  0  0  0  0  0  0  0  0  0  0  0
  1  4  1  0  0  0  0
  2 22  1  0  0  0  0
  2 14  1  0  0  0  0
  4 37  1  0  0  0  0
  5 10  1  0  0  0  0
  5 19  1  0  0  0  0
  6 11  1  0  0  0  0
  6 22  1  0  0  0  0
  7  3  1  0  0  0  0
  7 21  1  0  0  0  0
  7 10  1  0  0  0  0
  8 12  1  0  0  0  0
  8 26  1  0  0  0  0
  9  6  1  0  0  0  0
  9  3  1  0  0  0  0
  9 13  1  0  0  0  0
 12  4  1  0  0  0  0
 15 20  1  0  0  0  0
 15 28  1  0  0  0  0
 16 11  1  0  0  0  0
 17  2  1  0  0  0  0
 17 13  1  0  0  0  0
 18  8  1  0  0  0  0
 19 18  1  0  0  0  0
 20 16  1  0  0  0  0
 20  3  1  0  0  0  0
 21 13  1  0  0  0  0
 21 27  1  0  0  0  0
 23 28  1  0  0  0  0
 23 10  1  0  0  0  0
 24  2  1  0  0  0  0
 25 27  1  0  0  0  0
 25 18  1  0  0  0  0
 27  1  1  0  0  0  0
 29 30  1  0  0  0  0
 30 23  1  0  0  0  0
 31 30  2  0  0  0  0
 32 34  1  0  0  0  0
 33 34  2  0  0  0  0
 33 35  1  0  0  0  0
 34 31  1  0  0  0  0
 35 29  2  0  0  0  0
 37 36  1  0  0  0  0
M  END
>  <MODEL>
9

>  <REMARK>
 VINA RESULT:      -7.2      2.823      6.546
  Name = 
  2 active torsions:
  status: ('A' for Active; 'I' for Inactive)
    1  A    between atoms: C_4  and  O_37
    2  A    between atoms: C_23  and  C_30
                            x       y       z     vdW  Elec       q    Type
                         _______ _______ _______ _____ _____    ______ ____

>  <TORSDO>
F 2

$$$$
