=
 OpenBabel11112417593D

 34 41  0  0  1  0  0  0  0  0999 V2000
  187.5280  177.7730  145.7360 C   0  0  0  0  0  0  0  0  0  0  0  0
  185.0770  178.5010  145.8210 C   0  0  0  0  0  3  0  0  0  0  0  0
  192.1660  174.1160  144.6700 C   0  0  2  0  0  3  0  0  0  0  0  0
  189.8610  177.0640  145.5150 C   0  0  0  0  0  0  0  0  0  0  0  0
  190.7440  176.5030  143.3780 C   0  0  0  0  0  0  0  0  0  0  0  0
  191.6740  174.4580  142.2510 C   0  0  0  0  0  2  0  0  0  0  0  0
  192.5020  173.6540  143.2680 C   0  0  0  0  0  2  0  0  0  0  0  0
  193.0740  175.3170  144.8460 C   0  0  1  0  0  3  0  0  0  0  0  0
  186.1380  177.8990  143.7750 C   0  0  0  0  0  0  0  0  0  0  0  0
  184.7660  177.9130  140.9690 C   0  0  0  0  0  3  0  0  0  0  0  0
  189.5040  176.7760  142.8060 C   0  0  0  0  0  3  0  0  0  0  0  0
  192.2240  176.4380  145.4270 C   0  0  0  0  0  2  0  0  0  0  0  0
  187.1860  177.4770  142.9810 N   0  0  0  0  0  0  0  0  0  0  0  0
  184.1000  178.6210  144.6650 C   0  0  0  0  0  3  0  0  0  0  0  0
  190.9210  176.6430  144.7430 N   0  0  0  0  0  0  0  0  0  0  0  0
  193.2750  174.0830  145.7000 C   0  0  0  0  0  2  0  0  0  0  0  0
  184.2140  178.2450  142.1240 C   0  0  0  0  0  0  0  0  0  0  0  0
  188.5980  177.3450  144.9220 C   0  0  0  0  0  0  0  0  0  0  0  0
  191.8010  175.9820  142.4370 C   0  0  0  0  0  2  0  0  0  0  0  0
  188.4130  177.2070  143.5780 C   0  0  0  0  0  0  0  0  0  0  0  0
  188.9360  177.6470  147.7000 C   0  0  0  0  0  3  0  0  0  0  0  0
  186.1200  177.4550  140.7090 C   0  0  0  0  0  3  0  0  0  0  0  0
  190.0020  177.2230  146.9080 C   0  0  0  0  0  3  0  0  0  0  0  0
  187.1260  177.2750  141.5530 C   0  0  0  0  0  3  0  0  0  0  0  0
  184.8820  178.2230  143.4430 C   0  0  0  0  0  0  0  0  0  0  0  0
  187.7030  177.9210  147.1160 C   0  0  0  0  0  3  0  0  0  0  0  0
  186.3070  178.0430  145.1360 C   0  0  0  0  0  0  0  0  0  0  0  0
  182.7900  178.6940  142.0500 C   0  0  0  0  0  2  0  0  0  0  0  0
  182.1600  178.2310  140.7460 C   0  0  0  0  0  2  0  0  0  0  0  0
  179.0110  177.5730  141.2310 O   0  0  0  0  0  0  0  0  0  0  0  0
  180.3030  179.4550  141.8320 C   0  0  0  0  0  2  0  0  0  0  0  0
  180.8260  178.9240  140.5280 C   0  0  2  0  0  3  0  0  0  0  0  0
  178.9900  178.7330  142.0180 C   0  0  0  0  0  2  0  0  0  0  0  0
  179.7910  177.9030  140.1130 C   0  0  0  0  0  2  0  0  0  0  0  0
  1 26  1  0  0  0  0
  3  7  1  6  0  0  0
  3  8  1  0  0  0  0
  3 16  1  0  0  0  0
  4 23  2  0  0  0  0
  5 15  1  0  0  0  0
  6 19  1  0  0  0  0
  6  7  1  0  0  0  0
  8 12  1  1  0  0  0
  8 16  1  0  0  0  0
  9 27  1  0  0  0  0
 10 17  2  0  0  0  0
 11  5  2  0  0  0  0
 11 20  1  0  0  0  0
 13 20  1  0  0  0  0
 13  9  1  0  0  0  0
 14  2  2  0  0  0  0
 15 12  1  0  0  0  0
 15  4  1  0  0  0  0
 17 25  1  0  0  0  0
 18  4  1  0  0  0  0
 18  1  1  0  0  0  0
 19  5  1  0  0  0  0
 20 18  2  0  0  0  0
 22 10  1  0  0  0  0
 22 24  2  0  0  0  0
 23 21  1  0  0  0  0
 24 13  1  0  0  0  0
 25  9  2  0  0  0  0
 25 14  1  0  0  0  0
 26 21  2  0  0  0  0
 27  1  2  0  0  0  0
 27  2  1  0  0  0  0
 28 17  1  0  0  0  0
 29 28  1  0  0  0  0
 30 33  1  0  0  0  0
 31 33  1  0  0  0  0
 32 29  1  1  0  0  0
 32 31  1  0  0  0  0
 34 32  1  0  0  0  0
 34 30  1  0  0  0  0
M  END
>  <MODEL>
1

>  <REMARK>
 VINA RESULT:      -9.0      0.000      0.000
  Name = 
  3 active torsions:
  status: ('A' for Active; 'I' for Inactive)
    1  A    between atoms: C_17  and  C_28
    2  A    between atoms: C_28  and  C_29
    3  A    between atoms: C_29  and  C_32
                            x       y       z     vdW  Elec       q    Type
                         _______ _______ _______ _____ _____    ______ ____

>  <TORSDO>
F 3

$$$$
=
 OpenBabel11112417593D

 34 41  0  0  1  0  0  0  0  0999 V2000
  189.9770  174.7300  142.2060 C   0  0  0  0  0  0  0  0  0  0  0  0
  187.4650  175.2060  142.2730 C   0  0  0  0  0  3  0  0  0  0  0  0
  195.8400  176.0150  142.1670 C   0  0  2  0  0  3  0  0  0  0  0  0
  192.3930  174.3330  142.2690 C   0  0  0  0  0  0  0  0  0  0  0  0
  193.6790  175.0770  144.1270 C   0  0  0  0  0  0  0  0  0  0  0  0
  195.5390  176.7160  144.5390 C   0  0  0  0  0  2  0  0  0  0  0  0
  196.5080  176.6900  143.3450 C   0  0  0  0  0  2  0  0  0  0  0  0
  196.1000  174.5460  142.4400 C   0  0  1  0  0  3  0  0  0  0  0  0
  188.9170  175.8740  144.0380 C   0  0  0  0  0  0  0  0  0  0  0  0
  188.0230  177.3720  146.6300 C   0  0  0  0  0  3  0  0  0  0  0  0
  192.5230  175.5930  144.7070 C   0  0  0  0  0  3  0  0  0  0  0  0
  194.7820  173.8130  142.2360 C   0  0  0  0  0  2  0  0  0  0  0  0
  190.1300  176.0030  144.6860 N   0  0  0  0  0  0  0  0  0  0  0  0
  186.6790  175.9150  143.3620 C   0  0  0  0  0  3  0  0  0  0  0  0
  193.6130  174.4490  142.8960 N   0  0  0  0  0  0  0  0  0  0  0  0
  196.7190  175.2140  141.2310 C   0  0  0  0  0  2  0  0  0  0  0  0
  187.2470  176.9800  145.6320 C   0  0  0  0  0  0  0  0  0  0  0  0
  191.2140  174.8590  142.8710 C   0  0  0  0  0  0  0  0  0  0  0  0
  194.9610  175.3300  144.8800 C   0  0  0  0  0  2  0  0  0  0  0  0
  191.2710  175.4830  144.0830 C   0  0  0  0  0  0  0  0  0  0  0  0
  191.0530  173.5760  140.3710 C   0  0  0  0  0  3  0  0  0  0  0  0
  189.4600  177.2230  146.7750 C   0  0  0  0  0  3  0  0  0  0  0  0
  192.2830  173.6970  141.0170 C   0  0  0  0  0  3  0  0  0  0  0  0
  190.3350  176.6500  145.9600 C   0  0  0  0  0  3  0  0  0  0  0  0
  187.6960  176.2780  144.4100 C   0  0  0  0  0  0  0  0  0  0  0  0
  189.9040  174.0910  140.9640 C   0  0  0  0  0  3  0  0  0  0  0  0
  188.8430  175.2480  142.8130 C   0  0  0  0  0  0  0  0  0  0  0  0
  185.7910  177.2750  145.7960 C   0  0  0  0  0  2  0  0  0  0  0  0
  185.5850  178.7480  146.1100 C   0  0  0  0  0  2  0  0  0  0  0  0
  185.9050  179.3320  142.9260 O   0  0  0  0  0  0  0  0  0  0  0  0
  184.1260  178.3750  144.1460 C   0  0  0  0  0  2  0  0  0  0  0  0
  184.7790  179.4160  145.0090 C   0  0  2  0  0  3  0  0  0  0  0  0
  184.7050  178.6240  142.7740 C   0  0  0  0  0  2  0  0  0  0  0  0
  185.7180  180.1310  144.0630 C   0  0  0  0  0  2  0  0  0  0  0  0
  1 27  2  0  0  0  0
  1 18  1  0  0  0  0
  2 27  1  0  0  0  0
  2 14  2  0  0  0  0
  3 16  1  6  0  0  0
  3  8  1  0  0  0  0
  3  7  1  0  0  0  0
  4 18  1  0  0  0  0
  4 15  1  0  0  0  0
  5 11  2  0  0  0  0
  5 19  1  0  0  0  0
  6 19  1  0  0  0  0
  7  6  1  0  0  0  0
  8 16  1  6  0  0  0
  9 25  2  0  0  0  0
  9 13  1  0  0  0  0
 10 22  1  0  0  0  0
 12  8  1  0  0  0  0
 12 15  1  0  0  0  0
 13 24  1  0  0  0  0
 14 25  1  0  0  0  0
 15  5  1  0  0  0  0
 17 28  1  0  0  0  0
 17 10  2  0  0  0  0
 18 20  2  0  0  0  0
 20 13  1  0  0  0  0
 20 11  1  0  0  0  0
 21 26  2  0  0  0  0
 21 23  1  0  0  0  0
 23  4  2  0  0  0  0
 24 22  2  0  0  0  0
 25 17  1  0  0  0  0
 26  1  1  0  0  0  0
 27  9  1  0  0  0  0
 28 29  1  0  0  0  0
 30 34  1  0  0  0  0
 31 32  1  0  0  0  0
 32 29  1  1  0  0  0
 33 30  1  0  0  0  0
 33 31  1  0  0  0  0
 34 32  1  0  0  0  0
M  END
>  <MODEL>
2

>  <REMARK>
 VINA RESULT:      -9.0      2.625      5.371
  Name = 
  3 active torsions:
  status: ('A' for Active; 'I' for Inactive)
    1  A    between atoms: C_17  and  C_28
    2  A    between atoms: C_28  and  C_29
    3  A    between atoms: C_29  and  C_32
                            x       y       z     vdW  Elec       q    Type
                         _______ _______ _______ _____ _____    ______ ____

>  <TORSDO>
F 3

$$$$
=
 OpenBabel11112417593D

 34 41  0  0  1  0  0  0  0  0999 V2000
  189.9330  176.3210  146.3390 C   0  0  0  0  0  0  0  0  0  0  0  0
  187.5020  176.8990  146.8830 C   0  0  0  0  0  3  0  0  0  0  0  0
  194.4530  173.6020  143.4740 C   0  0  2  0  0  3  0  0  0  0  0  0
  192.2410  175.8190  145.6900 C   0  0  0  0  0  0  0  0  0  0  0  0
  192.9930  176.2970  143.4850 C   0  0  0  0  0  0  0  0  0  0  0  0
  193.8300  174.9950  141.5040 C   0  0  0  0  0  2  0  0  0  0  0  0
  194.7020  173.8290  141.9980 C   0  0  0  0  0  2  0  0  0  0  0  0
  195.3860  174.6060  144.1230 C   0  0  1  0  0  3  0  0  0  0  0  0
  188.4370  177.3010  144.7300 C   0  0  0  0  0  0  0  0  0  0  0  0
  186.9100  178.5660  142.3160 C   0  0  0  0  0  3  0  0  0  0  0  0
  191.7270  176.7820  143.1690 C   0  0  0  0  0  3  0  0  0  0  0  0
  194.5860  175.3320  145.1950 C   0  0  0  0  0  2  0  0  0  0  0  0
  189.4330  177.2980  143.7730 N   0  0  0  0  0  0  0  0  0  0  0  0
  186.4630  177.5160  145.9640 C   0  0  0  0  0  3  0  0  0  0  0  0
  193.2490  175.8060  144.7530 N   0  0  0  0  0  0  0  0  0  0  0  0
  195.6170  173.1220  144.3130 C   0  0  0  0  0  2  0  0  0  0  0  0
  186.4280  178.3320  143.5260 C   0  0  0  0  0  0  0  0  0  0  0  0
  190.9490  176.3220  145.3610 C   0  0  0  0  0  0  0  0  0  0  0  0
  193.9880  176.2720  142.3510 C   0  0  0  0  0  2  0  0  0  0  0  0
  190.6880  176.8040  144.1120 C   0  0  0  0  0  0  0  0  0  0  0  0
  191.4480  175.3380  147.9500 C   0  0  0  0  0  3  0  0  0  0  0  0
  188.2400  178.2920  141.8010 C   0  0  0  0  0  3  0  0  0  0  0  0
  192.4620  175.3330  146.9940 C   0  0  0  0  0  3  0  0  0  0  0  0
  189.2890  177.7630  142.4140 C   0  0  0  0  0  3  0  0  0  0  0  0
  187.1690  177.7250  144.6520 C   0  0  0  0  0  0  0  0  0  0  0  0
  190.1880  175.8310  147.6250 C   0  0  0  0  0  3  0  0  0  0  0  0
  188.6850  176.8170  145.9960 C   0  0  0  0  0  0  0  0  0  0  0  0
  185.0080  178.7470  143.7430 C   0  0  0  0  0  2  0  0  0  0  0  0
  184.0780  177.9160  142.8730 C   0  0  0  0  0  2  0  0  0  0  0  0
  182.5190  177.5490  140.0420 O   0  0  0  0  0  0  0  0  0  0  0  0
  181.8760  178.6580  142.0230 C   0  0  0  0  0  2  0  0  0  0  0  0
  183.3630  178.8010  141.8680 C   0  0  2  0  0  3  0  0  0  0  0  0
  181.4190  178.1350  140.6830 C   0  0  0  0  0  2  0  0  0  0  0  0
  183.6300  178.2910  140.4690 C   0  0  0  0  0  2  0  0  0  0  0  0
  1 26  1  0  0  0  0
  3  7  1  6  0  0  0
  3  8  1  0  0  0  0
  3 16  1  0  0  0  0
  4 23  2  0  0  0  0
  5 15  1  0  0  0  0
  6  7  1  0  0  0  0
  6 19  1  0  0  0  0
  8 16  1  1  0  0  0
  8 12  1  0  0  0  0
  9 27  1  0  0  0  0
 10 17  2  0  0  0  0
 11  5  2  0  0  0  0
 11 20  1  0  0  0  0
 13 20  1  0  0  0  0
 13  9  1  0  0  0  0
 14  2  2  0  0  0  0
 15 12  1  0  0  0  0
 15  4  1  0  0  0  0
 17 28  1  0  0  0  0
 17 25  1  0  0  0  0
 18  4  1  0  0  0  0
 18  1  1  0  0  0  0
 19  5  1  0  0  0  0
 20 18  2  0  0  0  0
 22 10  1  0  0  0  0
 22 24  2  0  0  0  0
 23 21  1  0  0  0  0
 24 13  1  0  0  0  0
 25  9  2  0  0  0  0
 25 14  1  0  0  0  0
 26 21  2  0  0  0  0
 27  1  2  0  0  0  0
 27  2  1  0  0  0  0
 29 28  1  0  0  0  0
 30 34  1  0  0  0  0
 30 33  1  0  0  0  0
 32 31  1  0  0  0  0
 32 29  1  1  0  0  0
 33 31  1  0  0  0  0
 34 32  1  0  0  0  0
M  END
>  <MODEL>
3

>  <REMARK>
 VINA RESULT:      -8.9      1.690      2.749
  Name = 
  3 active torsions:
  status: ('A' for Active; 'I' for Inactive)
    1  A    between atoms: C_17  and  C_28
    2  A    between atoms: C_28  and  C_29
    3  A    between atoms: C_29  and  C_32
                            x       y       z     vdW  Elec       q    Type
                         _______ _______ _______ _____ _____    ______ ____

>  <TORSDO>
F 3

$$$$
=
 OpenBabel11112417593D

 34 41  0  0  1  0  0  0  0  0999 V2000
  191.1180  176.3190  146.0120 C   0  0  0  0  0  0  0  0  0  0  0  0
  193.5840  175.7510  146.3860 C   0  0  0  0  0  3  0  0  0  0  0  0
  186.3750  178.8060  143.3020 C   0  0  2  0  0  3  0  0  0  0  0  0
  188.7650  176.7950  145.5300 C   0  0  0  0  0  0  0  0  0  0  0  0
  187.8010  176.0990  143.4700 C   0  0  0  0  0  0  0  0  0  0  0  0
  186.7930  177.1960  141.4460 C   0  0  0  0  0  2  0  0  0  0  0  0
  185.9840  178.4270  141.8900 C   0  0  0  0  0  2  0  0  0  0  0  0
  185.4970  177.8980  144.1410 C   0  0  1  0  0  3  0  0  0  0  0  0
  192.4440  175.1400  144.3860 C   0  0  0  0  0  0  0  0  0  0  0  0
  193.7210  173.5910  141.9920 C   0  0  0  0  0  3  0  0  0  0  0  0
  189.0260  175.5560  143.0920 C   0  0  0  0  0  3  0  0  0  0  0  0
  186.3890  177.2750  145.2060 C   0  0  0  0  0  2  0  0  0  0  0  0
  191.3620  175.0600  143.5320 N   0  0  0  0  0  0  0  0  0  0  0  0
  194.5250  175.0180  145.4460 C   0  0  0  0  0  3  0  0  0  0  0  0
  187.6720  176.7280  144.6950 N   0  0  0  0  0  0  0  0  0  0  0  0
  185.3010  179.3980  144.1890 C   0  0  0  0  0  2  0  0  0  0  0  0
  194.3190  173.9440  143.1190 C   0  0  0  0  0  0  0  0  0  0  0  0
  190.0140  176.2340  145.1380 C   0  0  0  0  0  0  0  0  0  0  0  0
  186.7020  176.0220  142.4380 C   0  0  0  0  0  2  0  0  0  0  0  0
  190.1500  175.6140  143.9310 C   0  0  0  0  0  0  0  0  0  0  0  0
  189.7740  177.5000  147.6410 C   0  0  0  0  0  3  0  0  0  0  0  0
  192.3510  173.8350  141.5770 C   0  0  0  0  0  3  0  0  0  0  0  0
  188.6740  177.4230  146.7880 C   0  0  0  0  0  3  0  0  0  0  0  0
  191.3710  174.4490  142.2240 C   0  0  0  0  0  3  0  0  0  0  0  0
  193.6940  174.6840  144.2370 C   0  0  0  0  0  0  0  0  0  0  0  0
  190.9920  176.9490  147.2540 C   0  0  0  0  0  3  0  0  0  0  0  0
  192.3230  175.7630  145.6100 C   0  0  0  0  0  0  0  0  0  0  0  0
  195.7480  173.5260  143.2470 C   0  0  0  0  0  2  0  0  0  0  0  0
  196.4400  173.5980  141.8950 C   0  0  0  0  0  2  0  0  0  0  0  0
  196.2700  176.8460  141.9470 O   0  0  0  0  0  0  0  0  0  0  0  0
  197.5640  175.3500  143.2340 C   0  0  0  0  0  2  0  0  0  0  0  0
  197.4070  174.7690  141.8580 C   0  0  2  0  0  3  0  0  0  0  0  0
  197.0860  176.7740  143.0850 C   0  0  0  0  0  2  0  0  0  0  0  0
  196.7970  175.8980  141.0570 C   0  0  0  0  0  2  0  0  0  0  0  0
  1 26  1  0  0  0  0
  3  7  1  6  0  0  0
  3  8  1  0  0  0  0
  3 16  1  0  0  0  0
  4 23  2  0  0  0  0
  5 15  1  0  0  0  0
  6  7  1  0  0  0  0
  6 19  1  0  0  0  0
  8 16  1  1  0  0  0
  8 12  1  0  0  0  0
  9 27  1  0  0  0  0
 10 17  2  0  0  0  0
 11  5  2  0  0  0  0
 11 20  1  0  0  0  0
 13 20  1  0  0  0  0
 13  9  1  0  0  0  0
 14  2  2  0  0  0  0
 15 12  1  0  0  0  0
 15  4  1  0  0  0  0
 17 28  1  0  0  0  0
 17 25  1  0  0  0  0
 18  4  1  0  0  0  0
 18  1  1  0  0  0  0
 19  5  1  0  0  0  0
 20 18  2  0  0  0  0
 22 10  1  0  0  0  0
 22 24  2  0  0  0  0
 23 21  1  0  0  0  0
 24 13  1  0  0  0  0
 25  9  2  0  0  0  0
 25 14  1  0  0  0  0
 26 21  2  0  0  0  0
 27  1  2  0  0  0  0
 27  2  1  0  0  0  0
 29 28  1  0  0  0  0
 30 33  1  0  0  0  0
 32 29  1  1  0  0  0
 32 31  1  0  0  0  0
 33 31  1  0  0  0  0
 34 32  1  0  0  0  0
 34 30  1  0  0  0  0
M  END
>  <MODEL>
4

>  <REMARK>
 VINA RESULT:      -8.9      3.893      9.553
  Name = 
  3 active torsions:
  status: ('A' for Active; 'I' for Inactive)
    1  A    between atoms: C_17  and  C_28
    2  A    between atoms: C_28  and  C_29
    3  A    between atoms: C_29  and  C_32
                            x       y       z     vdW  Elec       q    Type
                         _______ _______ _______ _____ _____    ______ ____

>  <TORSDO>
F 3

$$$$
=
 OpenBabel11112417593D

 34 41  0  0  1  0  0  0  0  0999 V2000
  190.9080  176.7330  146.1020 C   0  0  0  0  0  0  0  0  0  0  0  0
  193.3350  176.6400  146.9030 C   0  0  0  0  0  3  0  0  0  0  0  0
  186.2650  178.5430  142.7550 C   0  0  2  0  0  3  0  0  0  0  0  0
  188.6280  176.7770  145.2090 C   0  0  0  0  0  0  0  0  0  0  0  0
  188.2200  176.1900  142.9400 C   0  0  0  0  0  0  0  0  0  0  0  0
  187.3540  177.3270  140.8720 C   0  0  0  0  0  2  0  0  0  0  0  0
  186.2220  178.2910  141.2640 C   0  0  0  0  0  2  0  0  0  0  0  0
  185.4860  177.3650  143.3100 C   0  0  1  0  0  3  0  0  0  0  0  0
  192.7290  176.0900  144.6660 C   0  0  0  0  0  0  0  0  0  0  0  0
  194.7210  175.1860  142.4360 C   0  0  0  0  0  3  0  0  0  0  0  0
  189.5840  175.9690  142.7630 C   0  0  0  0  0  3  0  0  0  0  0  0
  186.2980  176.7980  144.4650 C   0  0  0  0  0  2  0  0  0  0  0  0
  191.8580  175.9090  143.6100 N   0  0  0  0  0  0  0  0  0  0  0  0
  194.5660  176.2530  146.1030 C   0  0  0  0  0  3  0  0  0  0  0  0
  187.7410  176.6030  144.1700 N   0  0  0  0  0  0  0  0  0  0  0  0
  184.9470  178.7720  143.4640 C   0  0  0  0  0  2  0  0  0  0  0  0
  195.0180  175.4940  143.6880 C   0  0  0  0  0  0  0  0  0  0  0  0
  190.0200  176.5450  145.0210 C   0  0  0  0  0  0  0  0  0  0  0  0
  187.3640  176.0330  141.7080 C   0  0  0  0  0  2  0  0  0  0  0  0
  190.5020  176.1410  143.8110 C   0  0  0  0  0  0  0  0  0  0  0  0
  189.0680  177.3740  147.5370 C   0  0  0  0  0  3  0  0  0  0  0  0
  193.4250  175.1980  141.7820 C   0  0  0  0  0  3  0  0  0  0  0  0
  188.1790  177.1920  146.4790 C   0  0  0  0  0  3  0  0  0  0  0  0
  192.2330  175.5000  142.2770 C   0  0  0  0  0  3  0  0  0  0  0  0
  194.0570  175.9270  144.7260 C   0  0  0  0  0  0  0  0  0  0  0  0
  190.4280  177.1450  147.3490 C   0  0  0  0  0  3  0  0  0  0  0  0
  192.2590  176.4990  145.8960 C   0  0  0  0  0  0  0  0  0  0  0  0
  196.4610  175.3650  144.0570 C   0  0  0  0  0  2  0  0  0  0  0  0
  197.0420  174.0890  143.4710 C   0  0  0  0  0  2  0  0  0  0  0  0
  196.4770  172.3130  146.1380 O   0  0  0  0  0  0  0  0  0  0  0  0
  197.8230  171.8730  144.2500 C   0  0  0  0  0  2  0  0  0  0  0  0
  197.8590  173.3510  144.5170 C   0  0  2  0  0  3  0  0  0  0  0  0
  197.1910  171.2940  145.4920 C   0  0  0  0  0  2  0  0  0  0  0  0
  197.1910  173.4900  145.8670 C   0  0  0  0  0  2  0  0  0  0  0  0
  1 26  1  0  0  0  0
  3  7  1  6  0  0  0
  3  8  1  0  0  0  0
  3 16  1  0  0  0  0
  4 23  2  0  0  0  0
  5 15  1  0  0  0  0
  6  7  1  0  0  0  0
  6 19  1  0  0  0  0
  8 16  1  1  0  0  0
  8 12  1  0  0  0  0
  9 25  2  0  0  0  0
  9 27  1  0  0  0  0
 10 17  2  0  0  0  0
 11  5  2  0  0  0  0
 11 20  1  0  0  0  0
 13 20  1  0  0  0  0
 13  9  1  0  0  0  0
 14  2  2  0  0  0  0
 15 12  1  0  0  0  0
 15  4  1  0  0  0  0
 17 28  1  0  0  0  0
 17 25  1  0  0  0  0
 18  4  1  0  0  0  0
 18  1  1  0  0  0  0
 19  5  1  0  0  0  0
 20 18  2  0  0  0  0
 22 24  2  0  0  0  0
 22 10  1  0  0  0  0
 23 21  1  0  0  0  0
 24 13  1  0  0  0  0
 25 14  1  0  0  0  0
 26 21  2  0  0  0  0
 27  1  2  0  0  0  0
 27  2  1  0  0  0  0
 29 28  1  0  0  0  0
 31 32  1  0  0  0  0
 31 33  1  0  0  0  0
 32 29  1  6  0  0  0
 32 34  1  0  0  0  0
 33 30  1  0  0  0  0
 34 30  1  0  0  0  0
M  END
>  <MODEL>
5

>  <REMARK>
 VINA RESULT:      -8.8      4.026     10.005
  Name = 
  3 active torsions:
  status: ('A' for Active; 'I' for Inactive)
    1  A    between atoms: C_17  and  C_28
    2  A    between atoms: C_28  and  C_29
    3  A    between atoms: C_29  and  C_32
                            x       y       z     vdW  Elec       q    Type
                         _______ _______ _______ _____ _____    ______ ____

>  <TORSDO>
F 3

$$$$
=
 OpenBabel11112417593D

 34 41  0  0  1  0  0  0  0  0999 V2000
  192.5830  175.6890  145.0630 C   0  0  0  0  0  0  0  0  0  0  0  0
  190.8820  177.5990  145.1030 C   0  0  0  0  0  3  0  0  0  0  0  0
  194.6920  170.1540  146.0370 C   0  0  2  0  0  3  0  0  0  0  0  0
  194.1220  173.7880  144.9440 C   0  0  0  0  0  0  0  0  0  0  0  0
  193.5050  171.8220  143.7560 C   0  0  0  0  0  0  0  0  0  0  0  0
  193.0760  169.4050  144.2950 C   0  0  0  0  0  2  0  0  0  0  0  0
  194.0690  168.9450  145.3750 C   0  0  0  0  0  2  0  0  0  0  0  0
  195.8340  170.4910  145.0970 C   0  0  1  0  0  3  0  0  0  0  0  0
  190.4460  175.5520  143.9670 C   0  0  0  0  0  0  0  0  0  0  0  0
  187.8300  174.8960  142.3890 C   0  0  0  0  0  3  0  0  0  0  0  0
  192.2830  172.4100  143.4390 C   0  0  0  0  0  3  0  0  0  0  0  0
  195.7790  171.9920  144.8480 C   0  0  0  0  0  2  0  0  0  0  0  0
  190.7300  174.2730  143.5290 N   0  0  0  0  0  0  0  0  0  0  0  0
  189.5090  177.6370  144.4560 C   0  0  0  0  0  3  0  0  0  0  0  0
  194.4280  172.5150  144.5200 N   0  0  0  0  0  0  0  0  0  0  0  0
  196.1240  170.0320  146.5100 C   0  0  0  0  0  2  0  0  0  0  0  0
  188.1120  176.0210  143.0260 C   0  0  0  0  0  0  0  0  0  0  0  0
  192.8720  174.3840  144.6130 C   0  0  0  0  0  0  0  0  0  0  0  0
  193.6900  170.3980  143.2910 C   0  0  0  0  0  2  0  0  0  0  0  0
  191.9560  173.7070  143.8630 C   0  0  0  0  0  0  0  0  0  0  0  0
  194.7370  175.8170  146.1580 C   0  0  0  0  0  3  0  0  0  0  0  0
  188.6380  173.6950  142.2670 C   0  0  0  0  0  3  0  0  0  0  0  0
  195.0370  174.5280  145.7200 C   0  0  0  0  0  3  0  0  0  0  0  0
  189.8480  173.4410  142.7450 C   0  0  0  0  0  3  0  0  0  0  0  0
  189.3560  176.3050  143.7740 C   0  0  0  0  0  0  0  0  0  0  0  0
  193.5140  176.3960  145.8310 C   0  0  0  0  0  3  0  0  0  0  0  0
  191.3610  176.2490  144.7260 C   0  0  0  0  0  0  0  0  0  0  0  0
  187.0630  177.0830  142.9490 C   0  0  0  0  0  2  0  0  0  0  0  0
  185.9400  176.7850  143.9300 C   0  0  0  0  0  2  0  0  0  0  0  0
  184.0780  179.0410  145.3530 O   0  0  0  0  0  0  0  0  0  0  0  0
  185.1940  177.1700  146.2580 C   0  0  0  0  0  2  0  0  0  0  0  0
  186.0260  177.7100  145.1310 C   0  0  2  0  0  3  0  0  0  0  0  0
  184.1710  178.2500  146.5060 C   0  0  0  0  0  2  0  0  0  0  0  0
  185.3660  179.0300  144.7970 C   0  0  0  0  0  2  0  0  0  0  0  0
  1 26  1  0  0  0  0
  3  7  1  6  0  0  0
  3 16  1  0  0  0  0
  4 23  2  0  0  0  0
  5 15  1  0  0  0  0
  6  7  1  0  0  0  0
  8 12  1  1  0  0  0
  8  3  1  0  0  0  0
  8 16  1  0  0  0  0
  9 27  1  0  0  0  0
 10 17  2  0  0  0  0
 11  5  2  0  0  0  0
 11 20  1  0  0  0  0
 13 20  1  0  0  0  0
 13  9  1  0  0  0  0
 14  2  2  0  0  0  0
 15 12  1  0  0  0  0
 15  4  1  0  0  0  0
 17 25  1  0  0  0  0
 18  4  1  0  0  0  0
 18  1  1  0  0  0  0
 19  5  1  0  0  0  0
 19  6  1  0  0  0  0
 20 18  2  0  0  0  0
 22 10  1  0  0  0  0
 22 24  2  0  0  0  0
 23 21  1  0  0  0  0
 24 13  1  0  0  0  0
 25  9  2  0  0  0  0
 25 14  1  0  0  0  0
 26 21  2  0  0  0  0
 27  1  2  0  0  0  0
 27  2  1  0  0  0  0
 28 17  1  0  0  0  0
 28 29  1  0  0  0  0
 30 33  1  0  0  0  0
 31 33  1  0  0  0  0
 32 29  1  6  0  0  0
 32 31  1  0  0  0  0
 34 32  1  0  0  0  0
 34 30  1  0  0  0  0
M  END
>  <MODEL>
6

>  <REMARK>
 VINA RESULT:      -8.7      3.282      5.595
  Name = 
  3 active torsions:
  status: ('A' for Active; 'I' for Inactive)
    1  A    between atoms: C_17  and  C_28
    2  A    between atoms: C_28  and  C_29
    3  A    between atoms: C_29  and  C_32
                            x       y       z     vdW  Elec       q    Type
                         _______ _______ _______ _____ _____    ______ ____

>  <TORSDO>
F 3

$$$$
=
 OpenBabel11112417593D

 34 41  0  0  1  0  0  0  0  0999 V2000
  193.9750  175.4120  145.6050 C   0  0  0  0  0  0  0  0  0  0  0  0
  192.3060  175.8310  147.4990 C   0  0  0  0  0  3  0  0  0  0  0  0
  196.0490  173.0290  140.5020 C   0  0  2  0  0  3  0  0  0  0  0  0
  195.4770  175.0660  143.7030 C   0  0  0  0  0  0  0  0  0  0  0  0
  194.7700  175.6280  141.5020 C   0  0  0  0  0  0  0  0  0  0  0  0
  194.3330  174.4170  139.3440 C   0  0  0  0  0  2  0  0  0  0  0  0
  195.3740  173.2980  139.1740 C   0  0  0  0  0  2  0  0  0  0  0  0
  197.1450  174.0770  140.5310 C   0  0  1  0  0  3  0  0  0  0  0  0
  191.7810  176.3280  145.2300 C   0  0  0  0  0  0  0  0  0  0  0  0
  189.0780  177.5390  144.2360 C   0  0  0  0  0  3  0  0  0  0  0  0
  193.5420  176.0400  142.0130 C   0  0  0  0  0  3  0  0  0  0  0  0
  197.1000  174.7320  141.9040 C   0  0  0  0  0  2  0  0  0  0  0  0
  192.0230  176.4030  143.8720 N   0  0  0  0  0  0  0  0  0  0  0  0
  190.9020  176.3990  147.3950 C   0  0  0  0  0  3  0  0  0  0  0  0
  195.7410  175.1320  142.3540 N   0  0  0  0  0  0  0  0  0  0  0  0
  197.5020  172.6060  140.4750 C   0  0  0  0  0  2  0  0  0  0  0  0
  189.4090  177.2540  145.4850 C   0  0  0  0  0  0  0  0  0  0  0  0
  194.2200  175.4930  144.2190 C   0  0  0  0  0  0  0  0  0  0  0  0
  194.9090  175.6850  140.0010 C   0  0  0  0  0  2  0  0  0  0  0  0
  193.2560  175.9810  143.3870 C   0  0  0  0  0  0  0  0  0  0  0  0
  196.1840  174.4970  145.9710 C   0  0  0  0  0  3  0  0  0  0  0  0
  189.8610  177.3570  143.0270 C   0  0  0  0  0  3  0  0  0  0  0  0
  196.4410  174.5710  144.6030 C   0  0  0  0  0  3  0  0  0  0  0  0
  191.0900  176.8830  142.8810 C   0  0  0  0  0  3  0  0  0  0  0  0
  190.6940  176.6740  145.9310 C   0  0  0  0  0  0  0  0  0  0  0  0
  194.9550  174.9170  146.4710 C   0  0  0  0  0  3  0  0  0  0  0  0
  192.7450  175.8370  146.0840 C   0  0  0  0  0  0  0  0  0  0  0  0
  188.3730  177.5770  146.5140 C   0  0  0  0  0  2  0  0  0  0  0  0
  187.2200  176.5890  146.4270 C   0  0  0  0  0  2  0  0  0  0  0  0
  185.5670  179.3700  146.7670 O   0  0  0  0  0  0  0  0  0  0  0  0
  184.8170  177.1720  146.3490 C   0  0  0  0  0  2  0  0  0  0  0  0
  186.0320  177.0920  147.2270 C   0  0  2  0  0  3  0  0  0  0  0  0
  184.4390  178.6330  146.3810 C   0  0  0  0  0  2  0  0  0  0  0  0
  186.2740  178.5270  147.6390 C   0  0  0  0  0  2  0  0  0  0  0  0
  1 27  2  0  0  0  0
  1 26  1  0  0  0  0
  3  7  1  6  0  0  0
  3  8  1  0  0  0  0
  4 18  1  0  0  0  0
  4 23  2  0  0  0  0
  5 11  2  0  0  0  0
  5 15  1  0  0  0  0
  6 19  1  0  0  0  0
  7  6  1  0  0  0  0
  8 16  1  1  0  0  0
  8 12  1  0  0  0  0
  9 25  2  0  0  0  0
  9 27  1  0  0  0  0
 10 17  2  0  0  0  0
 11 20  1  0  0  0  0
 12 15  1  0  0  0  0
 13  9  1  0  0  0  0
 14  2  2  0  0  0  0
 15  4  1  0  0  0  0
 16  3  1  0  0  0  0
 17 25  1  0  0  0  0
 17 28  1  0  0  0  0
 18  1  1  0  0  0  0
 19  5  1  0  0  0  0
 20 13  1  0  0  0  0
 20 18  2  0  0  0  0
 21 26  2  0  0  0  0
 22 10  1  0  0  0  0
 23 21  1  0  0  0  0
 24 22  2  0  0  0  0
 24 13  1  0  0  0  0
 25 14  1  0  0  0  0
 27  2  1  0  0  0  0
 29 28  1  0  0  0  0
 30 34  1  0  0  0  0
 31 33  1  0  0  0  0
 31 32  1  0  0  0  0
 32 29  1  6  0  0  0
 32 34  1  0  0  0  0
 33 30  1  0  0  0  0
M  END
>  <MODEL>
7

>  <REMARK>
 VINA RESULT:      -8.6      3.809      6.524
  Name = 
  3 active torsions:
  status: ('A' for Active; 'I' for Inactive)
    1  A    between atoms: C_17  and  C_28
    2  A    between atoms: C_28  and  C_29
    3  A    between atoms: C_29  and  C_32
                            x       y       z     vdW  Elec       q    Type
                         _______ _______ _______ _____ _____    ______ ____

>  <TORSDO>
F 3

$$$$
=
 OpenBabel11112417593D

 34 41  0  0  1  0  0  0  0  0999 V2000
  187.1260  176.3920  140.5560 C   0  0  0  0  0  0  0  0  0  0  0  0
  187.7900  174.9470  138.5520 C   0  0  0  0  0  3  0  0  0  0  0  0
  184.9380  177.5890  146.0150 C   0  0  2  0  0  3  0  0  0  0  0  0
  186.5840  177.7040  142.5510 C   0  0  0  0  0  0  0  0  0  0  0  0
  187.6440  177.2210  144.6250 C   0  0  0  0  0  0  0  0  0  0  0  0
  186.9500  176.4180  146.9030 C   0  0  0  0  0  2  0  0  0  0  0  0
  185.5910  177.0400  147.2650 C   0  0  0  0  0  2  0  0  0  0  0  0
  185.5630  178.9660  145.8950 C   0  0  1  0  0  3  0  0  0  0  0  0
  188.7410  174.6150  140.7110 C   0  0  0  0  0  0  0  0  0  0  0  0
  190.8820  172.4520  141.4160 C   0  0  0  0  0  3  0  0  0  0  0  0
  188.3530  176.1920  144.0110 C   0  0  0  0  0  3  0  0  0  0  0  0
  186.0000  179.1340  144.4480 C   0  0  0  0  0  2  0  0  0  0  0  0
  188.9230  174.8700  142.0550 N   0  0  0  0  0  0  0  0  0  0  0  0
  188.7880  173.8030  138.5180 C   0  0  0  0  0  3  0  0  0  0  0  0
  186.7480  177.9770  143.8900 N   0  0  0  0  0  0  0  0  0  0  0  0
  184.0790  178.8270  146.1620 C   0  0  0  0  0  2  0  0  0  0  0  0
  190.3350  172.6710  140.2310 C   0  0  0  0  0  0  0  0  0  0  0  0
  187.3160  176.6530  141.9290 C   0  0  0  0  0  0  0  0  0  0  0  0
  187.8610  177.3730  146.1100 C   0  0  0  0  0  2  0  0  0  0  0  0
  188.1980  175.9010  142.6460 C   0  0  0  0  0  0  0  0  0  0  0  0
  185.5080  178.1850  140.4110 C   0  0  0  0  0  3  0  0  0  0  0  0
  190.6280  173.1350  142.6720 C   0  0  0  0  0  3  0  0  0  0  0  0
  185.6850  178.4550  141.7670 C   0  0  0  0  0  3  0  0  0  0  0  0
  189.8090  174.1440  142.9330 C   0  0  0  0  0  3  0  0  0  0  0  0
  189.3160  173.6970  139.9230 C   0  0  0  0  0  0  0  0  0  0  0  0
  186.2260  177.1580  139.8070 C   0  0  0  0  0  3  0  0  0  0  0  0
  187.8520  175.3660  139.9710 C   0  0  0  0  0  0  0  0  0  0  0  0
  190.8270  171.7940  139.1250 C   0  0  0  0  0  2  0  0  0  0  0  0
  190.5830  170.3320  139.4640 C   0  0  0  0  0  2  0  0  0  0  0  0
  191.1770  169.9990  136.2830 O   0  0  0  0  0  0  0  0  0  0  0  0
  190.7610  168.3820  137.9510 C   0  0  0  0  0  2  0  0  0  0  0  0
  189.9630  169.6110  138.2810 C   0  0  2  0  0  3  0  0  0  0  0  0
  191.2300  168.6210  136.5370 C   0  0  0  0  0  2  0  0  0  0  0  0
  190.0950  170.4690  137.0430 C   0  0  0  0  0  2  0  0  0  0  0  0
  1 18  1  0  0  0  0
  2 27  1  0  0  0  0
  3 16  1  1  0  0  0
  3  7  1  0  0  0  0
  4 15  1  0  0  0  0
  5 19  1  0  0  0  0
  6  7  1  0  0  0  0
  8 12  1  6  0  0  0
  8  3  1  0  0  0  0
  8 16  1  0  0  0  0
  9 13  1  0  0  0  0
 10 22  1  0  0  0  0
 11  5  2  0  0  0  0
 13 20  1  0  0  0  0
 13 24  1  0  0  0  0
 14  2  2  0  0  0  0
 14 25  1  0  0  0  0
 15 12  1  0  0  0  0
 15  5  1  0  0  0  0
 17 10  2  0  0  0  0
 18  4  1  0  0  0  0
 18 20  2  0  0  0  0
 19  6  1  0  0  0  0
 20 11  1  0  0  0  0
 21 23  1  0  0  0  0
 22 24  2  0  0  0  0
 23  4  2  0  0  0  0
 25 17  1  0  0  0  0
 25  9  2  0  0  0  0
 26 21  2  0  0  0  0
 26  1  1  0  0  0  0
 27  1  2  0  0  0  0
 27  9  1  0  0  0  0
 28 29  1  0  0  0  0
 28 17  1  0  0  0  0
 30 33  1  0  0  0  0
 30 34  1  0  0  0  0
 31 32  1  0  0  0  0
 32 29  1  1  0  0  0
 33 31  1  0  0  0  0
 34 32  1  0  0  0  0
M  END
>  <MODEL>
8

>  <REMARK>
 VINA RESULT:      -8.5      4.223      8.668
  Name = 
  3 active torsions:
  status: ('A' for Active; 'I' for Inactive)
    1  A    between atoms: C_17  and  C_28
    2  A    between atoms: C_28  and  C_29
    3  A    between atoms: C_29  and  C_32
                            x       y       z     vdW  Elec       q    Type
                         _______ _______ _______ _____ _____    ______ ____

>  <TORSDO>
F 3

$$$$
=
 OpenBabel11112417593D

 34 41  0  0  1  0  0  0  0  0999 V2000
  192.1420  176.4170  145.5820 C   0  0  0  0  0  0  0  0  0  0  0  0
  189.9160  176.7490  146.7970 C   0  0  0  0  0  3  0  0  0  0  0  0
  196.3100  173.5010  142.3960 C   0  0  2  0  0  3  0  0  0  0  0  0
  194.2010  176.0790  144.3000 C   0  0  0  0  0  0  0  0  0  0  0  0
  194.0940  175.5750  141.9770 C   0  0  0  0  0  0  0  0  0  0  0  0
  194.7260  173.6590  140.4790 C   0  0  0  0  0  2  0  0  0  0  0  0
  196.0420  173.0400  140.9800 C   0  0  0  0  0  2  0  0  0  0  0  0
  196.9940  174.8380  142.1830 C   0  0  1  0  0  3  0  0  0  0  0  0
  190.0140  176.2370  144.4740 C   0  0  0  0  0  0  0  0  0  0  0  0
  187.5350  175.9140  142.6000 C   0  0  0  0  0  3  0  0  0  0  0  0
  192.7040  175.6230  142.0410 C   0  0  0  0  0  3  0  0  0  0  0  0
  196.3320  175.8330  143.1250 C   0  0  0  0  0  2  0  0  0  0  0  0
  190.6400  175.9540  143.2750 N   0  0  0  0  0  0  0  0  0  0  0  0
  188.5160  176.6630  146.2170 C   0  0  0  0  0  3  0  0  0  0  0  0
  194.8460  175.7990  143.1170 N   0  0  0  0  0  0  0  0  0  0  0  0
  197.7550  173.6890  142.8080 C   0  0  0  0  0  2  0  0  0  0  0  0
  187.5220  176.2030  143.8910 C   0  0  0  0  0  0  0  0  0  0  0  0
  192.7790  176.1300  144.3560 C   0  0  0  0  0  0  0  0  0  0  0  0
  194.6770  175.1890  140.6400 C   0  0  0  0  0  2  0  0  0  0  0  0
  192.0290  175.9080  143.2390 C   0  0  0  0  0  0  0  0  0  0  0  0
  194.2880  176.5990  146.6850 C   0  0  0  0  0  3  0  0  0  0  0  0
  188.6770  175.6670  141.7370 C   0  0  0  0  0  3  0  0  0  0  0  0
  194.9310  176.3170  145.4810 C   0  0  0  0  0  3  0  0  0  0  0  0
  189.9710  175.6840  142.0250 C   0  0  0  0  0  3  0  0  0  0  0  0
  188.7100  176.3430  144.7600 C   0  0  0  0  0  0  0  0  0  0  0  0
  192.8980  176.6490  146.7360 C   0  0  0  0  0  3  0  0  0  0  0  0
  190.7570  176.4630  145.6130 C   0  0  0  0  0  0  0  0  0  0  0  0
  186.1680  176.4160  144.4880 C   0  0  0  0  0  2  0  0  0  0  0  0
  185.7430  177.8660  144.3240 C   0  0  0  0  0  2  0  0  0  0  0  0
  185.7180  177.4550  147.5510 O   0  0  0  0  0  0  0  0  0  0  0  0
  185.5660  179.4150  146.2460 C   0  0  0  0  0  2  0  0  0  0  0  0
  184.8870  178.3030  145.5000 C   0  0  2  0  0  3  0  0  0  0  0  0
  185.7700  178.8540  147.6310 C   0  0  0  0  0  2  0  0  0  0  0  0
  184.8150  177.1820  146.5130 C   0  0  0  0  0  2  0  0  0  0  0  0
  1 27  2  0  0  0  0
  1 26  1  0  0  0  0
  3  7  1  6  0  0  0
  3 16  1  0  0  0  0
  4 18  1  0  0  0  0
  4 23  2  0  0  0  0
  5 11  2  0  0  0  0
  5 15  1  0  0  0  0
  6 19  1  0  0  0  0
  6  7  1  0  0  0  0
  8  3  1  0  0  0  0
  8 16  1  1  0  0  0
  8 12  1  0  0  0  0
  9 25  2  0  0  0  0
  9 27  1  0  0  0  0
 10 17  2  0  0  0  0
 11 20  1  0  0  0  0
 13  9  1  0  0  0  0
 14  2  2  0  0  0  0
 15 12  1  0  0  0  0
 15  4  1  0  0  0  0
 17 28  1  0  0  0  0
 17 25  1  0  0  0  0
 18  1  1  0  0  0  0
 19  5  1  0  0  0  0
 20 13  1  0  0  0  0
 20 18  2  0  0  0  0
 21 26  2  0  0  0  0
 22 24  2  0  0  0  0
 22 10  1  0  0  0  0
 23 21  1  0  0  0  0
 24 13  1  0  0  0  0
 25 14  1  0  0  0  0
 27  2  1  0  0  0  0
 29 28  1  0  0  0  0
 30 33  1  0  0  0  0
 31 33  1  0  0  0  0
 32 29  1  6  0  0  0
 32 31  1  0  0  0  0
 32 34  1  0  0  0  0
 34 30  1  0  0  0  0
M  END
>  <MODEL>
9

>  <REMARK>
 VINA RESULT:      -8.5      3.386      5.142
  Name = 
  3 active torsions:
  status: ('A' for Active; 'I' for Inactive)
    1  A    between atoms: C_17  and  C_28
    2  A    between atoms: C_28  and  C_29
    3  A    between atoms: C_29  and  C_32
                            x       y       z     vdW  Elec       q    Type
                         _______ _______ _______ _____ _____    ______ ____

>  <TORSDO>
F 3

$$$$
