=
 OpenBabel11112416523D

 31 35  0  0  1  0  0  0  0  0999 V2000
  196.6260  170.6430  145.7070 C   0  0  0  0  0  0  0  0  0  0  0  0
  195.9120  174.3770  145.4840 C   0  0  2  0  0  3  0  0  0  0  0  0
  196.1340  174.8150  144.0470 C   0  0  0  0  0  0  0  0  0  0  0  0
  197.1620  174.4790  141.8690 C   0  0  0  0  0  0  0  0  0  0  0  0
  195.7170  172.8870  145.6050 C   0  0  0  0  0  0  0  0  0  0  0  0
  195.3310  170.1160  145.6740 C   0  0  0  0  0  3  0  0  0  0  0  0
  196.9320  174.0530  143.1780 C   0  0  0  0  0  3  0  0  0  0  0  0
  193.3900  174.5170  145.7540 C   0  0  0  0  0  0  0  0  0  0  0  0
  197.7470  169.7710  145.7680 N   0  0  0  0  0  1  0  0  0  0  0  0
  194.8470  176.8470  144.4420 O   0  0  0  0  0  0  0  0  0  0  0  0
  197.9410  173.7090  141.0160 O   0  0  0  0  0  1  0  0  0  0  0  0
  193.2840  173.2320  145.5630 N   0  0  0  0  0  0  0  0  0  0  0  0
  194.7250  175.1190  146.1450 C   0  0  2  0  0  3  0  0  0  0  0  0
  192.2200  175.3430  145.7210 N   0  0  0  0  0  2  0  0  0  0  0  0
  196.8200  172.0270  145.6670 C   0  0  0  0  0  3  0  0  0  0  0  0
  196.6100  175.6790  141.4150 C   0  0  0  0  0  3  0  0  0  0  0  0
  194.4160  172.3560  145.5890 C   0  0  0  0  0  0  0  0  0  0  0  0
  194.2270  170.9710  145.6150 C   0  0  0  0  0  3  0  0  0  0  0  0
  194.8040  176.6160  145.8480 C   0  0  0  0  0  2  0  0  0  0  0  0
  195.6080  176.0430  143.5910 C   0  0  0  0  0  0  0  0  0  0  0  0
  195.8350  176.4590  142.2760 C   0  0  0  0  0  3  0  0  0  0  0  0
  189.9690  174.8360  146.4840 C   0  0  0  0  0  1  0  0  0  0  0  0
  190.9060  174.8760  145.2930 C   0  0  1  0  0  3  0  0  0  0  0  0
  187.9550  177.3910  144.0090 C   0  0  0  0  0  0  0  0  0  0  0  0
  190.2280  177.1160  144.6260 O   0  0  0  0  0  0  0  0  0  0  0  0
  188.9420  173.9230  143.1370 O   0  0  0  0  0  1  0  0  0  0  0  0
  186.7380  178.2360  143.9010 C   0  0  0  0  0  1  0  0  0  0  0  0
  189.0720  177.8980  144.5200 C   0  0  0  0  0  2  0  0  0  0  0  0
  189.0100  175.2260  143.6120 C   0  0  0  0  0  0  0  0  0  0  0  0
  190.3130  175.7550  144.1830 C   0  0  0  0  0  0  0  0  0  0  0  0
  187.9280  176.0000  143.5390 C   0  0  0  0  0  3  0  0  0  0  0  0
  1  9  1  0  0  0  0
  2  3  1  6  0  0  0
  2  5  1  0  0  0  0
  2 13  1  0  0  0  0
  4  7  1  0  0  0  0
  5 15  1  0  0  0  0
  6  1  1  0  0  0  0
  7  3  2  0  0  0  0
  8 13  1  0  0  0  0
 10 19  1  0  0  0  0
 11  4  1  0  0  0  0
 12 17  1  0  0  0  0
 12  8  2  0  0  0  0
 13 19  1  6  0  0  0
 14  8  1  0  0  0  0
 15  1  2  0  0  0  0
 16  4  2  0  0  0  0
 16 21  1  0  0  0  0
 17  5  2  0  0  0  0
 17 18  1  0  0  0  0
 18  6  2  0  0  0  0
 20  3  1  0  0  0  0
 20 10  1  0  0  0  0
 21 20  2  0  0  0  0
 23 14  1  0  0  0  0
 23 22  1  1  0  0  0
 24 28  1  0  0  0  0
 26 29  1  0  0  0  0
 27 24  1  0  0  0  0
 28 25  1  0  0  0  0
 29 30  2  0  0  0  0
 30 25  1  0  0  0  0
 30 23  1  0  0  0  0
 31 29  1  0  0  0  0
 31 24  2  0  0  0  0
M  END
>  <MODEL>
1

>  <REMARK>
 VINA RESULT:      -7.9      0.000      0.000
  Name = 
  2 active torsions:
  status: ('A' for Active; 'I' for Inactive)
    1  A    between atoms: C_5  and  N_16
    2  A    between atoms: C_5  and  C_30
                            x       y       z     vdW  Elec       q    Type
                         _______ _______ _______ _____ _____    ______ ____

>  <TORSDO>
F 2

$$$$
=
 OpenBabel11112416523D

 31 35  0  0  1  0  0  0  0  0999 V2000
  186.5150  177.8320  146.8750 C   0  0  0  0  0  0  0  0  0  0  0  0
  189.6260  177.5450  144.6990 C   0  0  2  0  0  3  0  0  0  0  0  0
  190.5850  176.5770  145.3710 C   0  0  0  0  0  0  0  0  0  0  0  0
  191.3910  175.4410  147.3650 C   0  0  0  0  0  0  0  0  0  0  0  0
  188.2130  177.3960  145.2030 C   0  0  0  0  0  0  0  0  0  0  0  0
  185.6330  176.9800  146.2040 C   0  0  0  0  0  3  0  0  0  0  0  0
  190.4850  176.3050  146.7450 C   0  0  0  0  0  3  0  0  0  0  0  0
  188.8150  176.2490  142.6700 C   0  0  0  0  0  0  0  0  0  0  0  0
  186.1020  178.4820  148.0710 N   0  0  0  0  0  1  0  0  0  0  0  0
  191.7990  176.2880  143.2770 O   0  0  0  0  0  0  0  0  0  0  0  0
  191.2730  175.1690  148.7210 O   0  0  0  0  0  1  0  0  0  0  0  0
  187.7210  175.9240  143.2980 N   0  0  0  0  0  0  0  0  0  0  0  0
  189.6510  177.4170  143.1570 C   0  0  2  0  0  3  0  0  0  0  0  0
  189.1610  175.5890  141.4470 N   0  0  0  0  0  2  0  0  0  0  0  0
  187.8060  178.0360  146.3800 C   0  0  0  0  0  3  0  0  0  0  0  0
  192.4160  174.8520  146.6220 C   0  0  0  0  0  3  0  0  0  0  0  0
  187.3200  176.5520  144.5200 C   0  0  0  0  0  0  0  0  0  0  0  0
  186.0350  176.3410  145.0270 C   0  0  0  0  0  3  0  0  0  0  0  0
  191.0920  177.3570  142.6520 C   0  0  0  0  0  2  0  0  0  0  0  0
  191.6440  176.0040  144.6360 C   0  0  0  0  0  0  0  0  0  0  0  0
  192.5420  175.1340  145.2600 C   0  0  0  0  0  3  0  0  0  0  0  0
  188.2170  174.5870  139.4440 C   0  0  0  0  0  1  0  0  0  0  0  0
  188.4630  174.4170  140.9310 C   0  0  1  0  0  3  0  0  0  0  0  0
  190.9710  172.2490  143.3170 C   0  0  0  0  0  0  0  0  0  0  0  0
  188.7930  172.5170  142.4160 O   0  0  0  0  0  0  0  0  0  0  0  0
  191.3250  173.8440  139.9860 O   0  0  0  0  0  1  0  0  0  0  0  0
  191.8710  171.7860  144.4040 C   0  0  0  0  0  1  0  0  0  0  0  0
  189.6570  172.0900  143.4320 C   0  0  0  0  0  2  0  0  0  0  0  0
  190.7470  173.2810  141.1160 C   0  0  0  0  0  0  0  0  0  0  0  0
  189.2400  173.1190  141.1920 C   0  0  0  0  0  0  0  0  0  0  0  0
  191.5330  172.8700  142.1110 C   0  0  0  0  0  3  0  0  0  0  0  0
  1  9  1  0  0  0  0
  2  5  1  1  0  0  0
  2  3  1  0  0  0  0
  3  7  1  0  0  0  0
  4 11  1  0  0  0  0
  5 15  2  0  0  0  0
  6  1  2  0  0  0  0
  7  4  2  0  0  0  0
  8 13  1  0  0  0  0
  8 12  2  0  0  0  0
 10 20  1  0  0  0  0
 12 17  1  0  0  0  0
 13 19  1  1  0  0  0
 13  2  1  0  0  0  0
 14  8  1  0  0  0  0
 15  1  1  0  0  0  0
 16  4  1  0  0  0  0
 17 18  2  0  0  0  0
 17  5  1  0  0  0  0
 18  6  1  0  0  0  0
 19 10  1  0  0  0  0
 20 21  1  0  0  0  0
 20  3  2  0  0  0  0
 21 16  2  0  0  0  0
 23 22  1  6  0  0  0
 23 30  1  0  0  0  0
 23 14  1  0  0  0  0
 24 28  1  0  0  0  0
 24 27  1  0  0  0  0
 25 28  1  0  0  0  0
 26 29  1  0  0  0  0
 29 30  2  0  0  0  0
 29 31  1  0  0  0  0
 30 25  1  0  0  0  0
 31 24  2  0  0  0  0
M  END
>  <MODEL>
2

>  <REMARK>
 VINA RESULT:      -7.8      4.157      7.554
  Name = 
  2 active torsions:
  status: ('A' for Active; 'I' for Inactive)
    1  A    between atoms: C_5  and  N_16
    2  A    between atoms: C_5  and  C_30
                            x       y       z     vdW  Elec       q    Type
                         _______ _______ _______ _____ _____    ______ ____

>  <TORSDO>
F 2

$$$$
=
 OpenBabel11112416523D

 31 35  0  0  1  0  0  0  0  0999 V2000
  190.9290  171.2980  142.7570 C   0  0  0  0  0  0  0  0  0  0  0  0
  190.8030  173.6900  145.7170 C   0  0  2  0  0  3  0  0  0  0  0  0
  192.0810  174.5120  145.7140 C   0  0  0  0  0  0  0  0  0  0  0  0
  194.4090  174.7990  145.0730 C   0  0  0  0  0  0  0  0  0  0  0  0
  190.5290  173.0540  144.3780 C   0  0  0  0  0  0  0  0  0  0  0  0
  190.1260  171.9690  141.8290 C   0  0  0  0  0  3  0  0  0  0  0  0
  193.2270  174.0570  145.0420 C   0  0  0  0  0  3  0  0  0  0  0  0
  189.0250  175.3750  145.0440 C   0  0  0  0  0  0  0  0  0  0  0  0
  191.5470  170.0670  142.4030 N   0  0  0  0  0  1  0  0  0  0  0  0
  191.0490  176.1660  147.1770 O   0  0  0  0  0  0  0  0  0  0  0  0
  195.5310  174.3450  144.3930 O   0  0  0  0  0  1  0  0  0  0  0  0
  189.0570  174.9410  143.8160 N   0  0  0  0  0  0  0  0  0  0  0  0
  189.5760  174.5190  146.1680 C   0  0  2  0  0  3  0  0  0  0  0  0
  188.3520  176.6020  145.3510 N   0  0  0  0  0  2  0  0  0  0  0  0
  191.1360  171.8410  144.0290 C   0  0  0  0  0  3  0  0  0  0  0  0
  194.4650  175.9970  145.7880 C   0  0  0  0  0  3  0  0  0  0  0  0
  189.7090  173.7190  143.4510 C   0  0  0  0  0  0  0  0  0  0  0  0
  189.5160  173.1790  142.1760 C   0  0  0  0  0  3  0  0  0  0  0  0
  189.9150  175.3340  147.4150 C   0  0  0  0  0  2  0  0  0  0  0  0
  192.1560  175.7070  146.4620 C   0  0  0  0  0  0  0  0  0  0  0  0
  193.3400  176.4490  146.4810 C   0  0  0  0  0  3  0  0  0  0  0  0
  188.9720  177.9040  143.3940 C   0  0  0  0  0  1  0  0  0  0  0  0
  187.8490  177.5270  144.3410 C   0  0  1  0  0  3  0  0  0  0  0  0
  184.9320  177.9930  141.5210 C   0  0  0  0  0  0  0  0  0  0  0  0
  186.9640  176.9450  142.1500 O   0  0  0  0  0  0  0  0  0  0  0  0
  184.9090  177.6300  145.2130 O   0  0  0  0  0  1  0  0  0  0  0  0
  184.0220  178.5240  140.4730 C   0  0  0  0  0  1  0  0  0  0  0  0
  186.0950  177.4530  141.1760 C   0  0  0  0  0  2  0  0  0  0  0  0
  185.3310  177.5700  143.8910 C   0  0  0  0  0  0  0  0  0  0  0  0
  186.6700  176.9390  143.5540 C   0  0  0  0  0  0  0  0  0  0  0  0
  184.5390  178.0520  142.9340 C   0  0  0  0  0  3  0  0  0  0  0  0
  1 15  1  0  0  0  0
  2  5  1  6  0  0  0
  2 13  1  0  0  0  0
  3  2  1  0  0  0  0
  3 20  1  0  0  0  0
  4 16  2  0  0  0  0
  6 18  1  0  0  0  0
  6  1  2  0  0  0  0
  7  4  1  0  0  0  0
  7  3  2  0  0  0  0
  8 14  1  0  0  0  0
  8 13  1  0  0  0  0
  9  1  1  0  0  0  0
 10 19  1  0  0  0  0
 11  4  1  0  0  0  0
 12  8  2  0  0  0  0
 13 19  1  1  0  0  0
 15  5  2  0  0  0  0
 16 21  1  0  0  0  0
 17 12  1  0  0  0  0
 17  5  1  0  0  0  0
 18 17  2  0  0  0  0
 20 21  2  0  0  0  0
 20 10  1  0  0  0  0
 23 22  1  6  0  0  0
 23 14  1  0  0  0  0
 24 31  2  0  0  0  0
 25 30  1  0  0  0  0
 27 24  1  0  0  0  0
 28 24  1  0  0  0  0
 28 25  1  0  0  0  0
 29 26  1  0  0  0  0
 30 29  2  0  0  0  0
 30 23  1  0  0  0  0
 31 29  1  0  0  0  0
M  END
>  <MODEL>
3

>  <REMARK>
 VINA RESULT:      -7.6      3.097      4.972
  Name = 
  2 active torsions:
  status: ('A' for Active; 'I' for Inactive)
    1  A    between atoms: C_5  and  N_16
    2  A    between atoms: C_5  and  C_30
                            x       y       z     vdW  Elec       q    Type
                         _______ _______ _______ _____ _____    ______ ____

>  <TORSDO>
F 2

$$$$
=
 OpenBabel11112416523D

 31 35  0  0  1  0  0  0  0  0999 V2000
  195.2330  175.5040  144.7710 C   0  0  0  0  0  0  0  0  0  0  0  0
  191.9550  176.5630  143.1480 C   0  0  2  0  0  3  0  0  0  0  0  0
  191.2680  175.3170  142.6150 C   0  0  0  0  0  0  0  0  0  0  0  0
  191.3720  173.0160  141.8330 C   0  0  0  0  0  0  0  0  0  0  0  0
  193.0000  176.2410  144.1860 C   0  0  0  0  0  0  0  0  0  0  0  0
  194.8780  175.4990  146.1240 C   0  0  0  0  0  3  0  0  0  0  0  0
  192.0020  174.1470  142.3570 C   0  0  0  0  0  3  0  0  0  0  0  0
  190.5020  177.2290  145.1230 C   0  0  0  0  0  0  0  0  0  0  0  0
  196.5470  175.1260  144.3800 N   0  0  0  0  0  1  0  0  0  0  0  0
  189.1460  176.5090  142.4930 O   0  0  0  0  0  0  0  0  0  0  0  0
  192.1050  171.8620  141.5960 O   0  0  0  0  0  1  0  0  0  0  0  0
  191.3390  176.6650  145.9470 N   0  0  0  0  0  0  0  0  0  0  0  0
  190.9450  177.5880  143.7180 C   0  0  2  0  0  3  0  0  0  0  0  0
  189.2050  177.6270  145.5820 N   0  0  0  0  0  2  0  0  0  0  0  0
  194.2940  175.8690  143.8010 C   0  0  0  0  0  3  0  0  0  0  0  0
  190.0060  173.0450  141.5460 C   0  0  0  0  0  3  0  0  0  0  0  0
  192.6500  176.2510  145.5470 C   0  0  0  0  0  0  0  0  0  0  0  0
  193.5880  175.8730  146.5120 C   0  0  0  0  0  3  0  0  0  0  0  0
  189.7690  177.7640  142.7580 C   0  0  0  0  0  2  0  0  0  0  0  0
  189.8960  175.3490  142.2900 C   0  0  0  0  0  0  0  0  0  0  0  0
  189.2700  174.2100  141.7740 C   0  0  0  0  0  3  0  0  0  0  0  0
  189.1310  178.2760  147.9230 C   0  0  0  0  0  1  0  0  0  0  0  0
  188.6610  177.2720  146.8880 C   0  0  1  0  0  3  0  0  0  0  0  0
  185.1120  178.3650  145.1860 C   0  0  0  0  0  0  0  0  0  0  0  0
  186.6690  176.6350  145.6420 O   0  0  0  0  0  0  0  0  0  0  0  0
  186.7910  179.1850  148.3910 O   0  0  0  0  0  1  0  0  0  0  0  0
  184.0590  178.9620  144.3250 C   0  0  0  0  0  1  0  0  0  0  0  0
  185.6770  177.2140  144.8410 C   0  0  0  0  0  2  0  0  0  0  0  0
  186.4530  178.5190  147.2200 C   0  0  0  0  0  0  0  0  0  0  0  0
  187.1270  177.2040  146.8770 C   0  0  0  0  0  0  0  0  0  0  0  0
  185.5200  179.0410  146.4240 C   0  0  0  0  0  3  0  0  0  0  0  0
  1  6  1  0  0  0  0
  2  3  1  1  0  0  0
  2 13  1  0  0  0  0
  2  5  1  0  0  0  0
  4  7  2  0  0  0  0
  5 17  2  0  0  0  0
  6 18  2  0  0  0  0
  7  3  1  0  0  0  0
  8 14  1  0  0  0  0
  8 12  2  0  0  0  0
  9  1  1  0  0  0  0
 10 19  1  0  0  0  0
 11  4  1  0  0  0  0
 13 19  1  6  0  0  0
 13  8  1  0  0  0  0
 14 23  1  0  0  0  0
 15  5  1  0  0  0  0
 15  1  2  0  0  0  0
 16 21  2  0  0  0  0
 16  4  1  0  0  0  0
 17 12  1  0  0  0  0
 17 18  1  0  0  0  0
 20 10  1  0  0  0  0
 20  3  2  0  0  0  0
 21 20  1  0  0  0  0
 23 22  1  1  0  0  0
 24 31  2  0  0  0  0
 25 30  1  0  0  0  0
 27 24  1  0  0  0  0
 28 24  1  0  0  0  0
 28 25  1  0  0  0  0
 29 26  1  0  0  0  0
 30 23  1  0  0  0  0
 30 29  2  0  0  0  0
 31 29  1  0  0  0  0
M  END
>  <MODEL>
4

>  <REMARK>
 VINA RESULT:      -7.6      3.264      5.116
  Name = 
  2 active torsions:
  status: ('A' for Active; 'I' for Inactive)
    1  A    between atoms: C_5  and  N_16
    2  A    between atoms: C_5  and  C_30
                            x       y       z     vdW  Elec       q    Type
                         _______ _______ _______ _____ _____    ______ ____

>  <TORSDO>
F 2

$$$$
=
 OpenBabel11112416523D

 31 35  0  0  1  0  0  0  0  0999 V2000
  185.9390  177.9410  140.8710 C   0  0  0  0  0  0  0  0  0  0  0  0
  188.6110  178.0670  143.5810 C   0  0  2  0  0  3  0  0  0  0  0  0
  188.0140  177.5020  144.8590 C   0  0  0  0  0  0  0  0  0  0  0  0
  186.0800  176.9720  146.2350 C   0  0  0  0  0  0  0  0  0  0  0  0
  187.8320  177.6590  142.3560 C   0  0  0  0  0  0  0  0  0  0  0  0
  186.3160  176.7910  140.1700 C   0  0  0  0  0  3  0  0  0  0  0  0
  186.6220  177.4580  145.0440 C   0  0  0  0  0  3  0  0  0  0  0  0
  190.2640  176.2750  142.8690 C   0  0  0  0  0  0  0  0  0  0  0  0
  184.7800  178.6660  140.4760 N   0  0  0  0  0  1  0  0  0  0  0  0
  190.2440  177.1660  145.7810 O   0  0  0  0  0  0  0  0  0  0  0  0
  184.7020  176.9200  146.3990 O   0  0  0  0  0  1  0  0  0  0  0  0
  189.4040  175.8010  142.0140 N   0  0  0  0  0  0  0  0  0  0  0  0
  190.1000  177.6820  143.4120 C   0  0  2  0  0  3  0  0  0  0  0  0
  191.4360  175.5200  143.1990 N   0  0  0  0  0  2  0  0  0  0  0  0
  186.6920  178.3720  141.9670 C   0  0  0  0  0  3  0  0  0  0  0  0
  186.9210  176.5380  147.2610 C   0  0  0  0  0  3  0  0  0  0  0  0
  188.2190  176.5130  141.6410 C   0  0  0  0  0  0  0  0  0  0  0  0
  187.4550  176.0770  140.5540 C   0  0  0  0  0  3  0  0  0  0  0  0
  190.8560  177.8980  144.7220 C   0  0  0  0  0  2  0  0  0  0  0  0
  188.8560  177.0940  145.9140 C   0  0  0  0  0  0  0  0  0  0  0  0
  188.3070  176.6000  147.1010 C   0  0  0  0  0  3  0  0  0  0  0  0
  192.9250  174.0520  141.9600 C   0  0  0  0  0  1  0  0  0  0  0  0
  191.6550  174.1380  142.7850 C   0  0  1  0  0  3  0  0  0  0  0  0
  193.8200  171.4920  145.0190 C   0  0  0  0  0  0  0  0  0  0  0  0
  192.7640  173.6120  144.8860 O   0  0  0  0  0  0  0  0  0  0  0  0
  190.9240  171.1590  142.7250 O   0  0  0  0  0  1  0  0  0  0  0  0
  194.8830  170.6100  145.5650 C   0  0  0  0  0  1  0  0  0  0  0  0
  193.7620  172.7670  145.3880 C   0  0  0  0  0  2  0  0  0  0  0  0
  191.8530  171.7190  143.5910 C   0  0  0  0  0  0  0  0  0  0  0  0
  191.7370  173.1810  143.9820 C   0  0  0  0  0  0  0  0  0  0  0  0
  192.8250  170.9520  144.0840 C   0  0  0  0  0  3  0  0  0  0  0  0
  1 15  1  0  0  0  0
  2  5  1  6  0  0  0
  2  3  1  0  0  0  0
  3  7  2  0  0  0  0
  3 20  1  0  0  0  0
  4 11  1  0  0  0  0
  4 16  2  0  0  0  0
  6 18  1  0  0  0  0
  6  1  2  0  0  0  0
  7  4  1  0  0  0  0
  8 14  1  0  0  0  0
  8 13  1  0  0  0  0
  9  1  1  0  0  0  0
 10 20  1  0  0  0  0
 12  8  2  0  0  0  0
 13  2  1  0  0  0  0
 13 19  1  1  0  0  0
 15  5  2  0  0  0  0
 17 12  1  0  0  0  0
 17  5  1  0  0  0  0
 18 17  2  0  0  0  0
 19 10  1  0  0  0  0
 20 21  2  0  0  0  0
 21 16  1  0  0  0  0
 23 22  1  1  0  0  0
 23 14  1  0  0  0  0
 23 30  1  0  0  0  0
 24 28  1  0  0  0  0
 24 27  1  0  0  0  0
 25 28  1  0  0  0  0
 26 29  1  0  0  0  0
 29 30  2  0  0  0  0
 29 31  1  0  0  0  0
 30 25  1  0  0  0  0
 31 24  2  0  0  0  0
M  END
>  <MODEL>
5

>  <REMARK>
 VINA RESULT:      -7.6      3.284      8.917
  Name = 
  2 active torsions:
  status: ('A' for Active; 'I' for Inactive)
    1  A    between atoms: C_5  and  N_16
    2  A    between atoms: C_5  and  C_30
                            x       y       z     vdW  Elec       q    Type
                         _______ _______ _______ _____ _____    ______ ____

>  <TORSDO>
F 2

$$$$
=
 OpenBabel11112416523D

 31 35  0  0  1  0  0  0  0  0999 V2000
  193.1990  172.0900  141.2370 C   0  0  0  0  0  0  0  0  0  0  0  0
  191.5650  173.1930  144.4950 C   0  0  2  0  0  3  0  0  0  0  0  0
  192.4730  174.2160  145.1560 C   0  0  0  0  0  0  0  0  0  0  0  0
  194.6750  175.2030  145.4640 C   0  0  0  0  0  0  0  0  0  0  0  0
  191.8610  173.0280  143.0260 C   0  0  0  0  0  0  0  0  0  0  0  0
  192.4930  172.8580  140.3050 C   0  0  0  0  0  3  0  0  0  0  0  0
  193.8370  174.2850  144.8270 C   0  0  0  0  0  3  0  0  0  0  0  0
  189.5830  174.5830  143.7260 C   0  0  0  0  0  0  0  0  0  0  0  0
  194.2420  171.2280  140.8020 N   0  0  0  0  0  1  0  0  0  0  0  0
  190.6320  174.9810  146.5570 O   0  0  0  0  0  0  0  0  0  0  0  0
  196.0180  175.2710  145.1190 O   0  0  0  0  0  1  0  0  0  0  0  0
  190.0670  174.6300  142.5170 N   0  0  0  0  0  0  0  0  0  0  0  0
  190.0670  173.5240  144.6980 C   0  0  2  0  0  3  0  0  0  0  0  0
  188.5030  175.4470  144.0980 N   0  0  0  0  0  2  0  0  0  0  0  0
  192.8880  172.1790  142.5970 C   0  0  0  0  0  3  0  0  0  0  0  0
  194.1640  176.0520  146.4470 C   0  0  0  0  0  3  0  0  0  0  0  0
  191.1410  173.7870  142.0870 C   0  0  0  0  0  0  0  0  0  0  0  0
  191.4640  173.7050  140.7290 C   0  0  0  0  0  3  0  0  0  0  0  0
  189.7980  173.8970  146.1550 C   0  0  0  0  0  2  0  0  0  0  0  0
  191.9730  175.0540  146.1740 C   0  0  0  0  0  0  0  0  0  0  0  0
  192.8150  175.9770  146.8010 C   0  0  0  0  0  3  0  0  0  0  0  0
  186.8140  176.0650  142.4630 C   0  0  0  0  0  1  0  0  0  0  0  0
  188.0120  176.5390  143.2640 C   0  0  1  0  0  3  0  0  0  0  0  0
  185.3820  178.4350  145.7480 C   0  0  0  0  0  0  0  0  0  0  0  0
  187.5090  177.4220  145.4750 O   0  0  0  0  0  0  0  0  0  0  0  0
  186.4270  178.9520  142.2260 O   0  0  0  0  0  1  0  0  0  0  0  0
  184.2220  178.7930  146.6030 C   0  0  0  0  0  1  0  0  0  0  0  0
  186.4060  177.7650  146.2660 C   0  0  0  0  0  2  0  0  0  0  0  0
  186.4410  178.5370  143.5510 C   0  0  0  0  0  0  0  0  0  0  0  0
  187.6380  177.7760  144.0910 C   0  0  0  0  0  0  0  0  0  0  0  0
  185.4050  178.8340  144.3350 C   0  0  0  0  0  3  0  0  0  0  0  0
  1 15  1  0  0  0  0
  2  5  1  6  0  0  0
  2 13  1  0  0  0  0
  2  3  1  0  0  0  0
  3 20  1  0  0  0  0
  4 16  2  0  0  0  0
  6 18  1  0  0  0  0
  6  1  2  0  0  0  0
  7  3  2  0  0  0  0
  7  4  1  0  0  0  0
  8 14  1  0  0  0  0
  8 13  1  0  0  0  0
  9  1  1  0  0  0  0
 11  4  1  0  0  0  0
 12  8  2  0  0  0  0
 13 19  1  1  0  0  0
 15  5  2  0  0  0  0
 16 21  1  0  0  0  0
 17 12  1  0  0  0  0
 17  5  1  0  0  0  0
 18 17  2  0  0  0  0
 19 10  1  0  0  0  0
 20 10  1  0  0  0  0
 20 21  2  0  0  0  0
 23 22  1  1  0  0  0
 23 30  1  0  0  0  0
 23 14  1  0  0  0  0
 24 28  1  0  0  0  0
 24 27  1  0  0  0  0
 25 28  1  0  0  0  0
 26 29  1  0  0  0  0
 29 30  2  0  0  0  0
 29 31  1  0  0  0  0
 30 25  1  0  0  0  0
 31 24  2  0  0  0  0
M  END
>  <MODEL>
6

>  <REMARK>
 VINA RESULT:      -7.5      3.079      4.767
  Name = 
  2 active torsions:
  status: ('A' for Active; 'I' for Inactive)
    1  A    between atoms: C_5  and  N_16
    2  A    between atoms: C_5  and  C_30
                            x       y       z     vdW  Elec       q    Type
                         _______ _______ _______ _____ _____    ______ ____

>  <TORSDO>
F 2

$$$$
=
 OpenBabel11112416523D

 31 35  0  0  1  0  0  0  0  0999 V2000
  193.8530  170.3570  144.7200 C   0  0  0  0  0  0  0  0  0  0  0  0
  194.0810  174.0020  145.8000 C   0  0  2  0  0  3  0  0  0  0  0  0
  195.0420  174.7130  144.8620 C   0  0  0  0  0  0  0  0  0  0  0  0
  196.8950  174.6500  143.2880 C   0  0  0  0  0  0  0  0  0  0  0  0
  193.5630  172.7110  145.2190 C   0  0  0  0  0  0  0  0  0  0  0  0
  192.6550  170.3610  143.9980 C   0  0  0  0  0  3  0  0  0  0  0  0
  195.9900  173.9890  144.1210 C   0  0  0  0  0  3  0  0  0  0  0  0
  191.8190  174.9570  145.1500 C   0  0  0  0  0  0  0  0  0  0  0  0
  194.6130  169.1600  144.8280 N   0  0  0  0  0  1  0  0  0  0  0  0
  194.1510  176.8740  145.5490 O   0  0  0  0  0  0  0  0  0  0  0  0
  197.8170  173.9220  142.5490 O   0  0  0  0  0  1  0  0  0  0  0  0
  191.5660  173.9040  144.4260 N   0  0  0  0  0  0  0  0  0  0  0  0
  192.8960  174.9050  146.2160 C   0  0  2  0  0  3  0  0  0  0  0  0
  190.9950  176.1220  145.0300 N   0  0  0  0  0  2  0  0  0  0  0  0
  194.3110  171.5320  145.3250 C   0  0  0  0  0  3  0  0  0  0  0  0
  196.8740  176.0430  143.1980 C   0  0  0  0  0  3  0  0  0  0  0  0
  192.3520  172.7090  144.5070 C   0  0  0  0  0  0  0  0  0  0  0  0
  191.9050  171.5360  143.8920 C   0  0  0  0  0  3  0  0  0  0  0  0
  193.3990  176.2930  146.6110 C   0  0  0  0  0  2  0  0  0  0  0  0
  195.0500  176.1220  144.7910 C   0  0  0  0  0  0  0  0  0  0  0  0
  195.9530  176.7770  143.9490 C   0  0  0  0  0  3  0  0  0  0  0  0
  189.0480  175.1010  143.9930 C   0  0  0  0  0  1  0  0  0  0  0  0
  189.9810  176.2970  143.9960 C   0  0  1  0  0  3  0  0  0  0  0  0
  186.3940  178.1390  144.6470 C   0  0  0  0  0  0  0  0  0  0  0  0
  188.5500  177.5980  145.4740 O   0  0  0  0  0  0  0  0  0  0  0  0
  188.6880  177.9260  141.7400 O   0  0  0  0  0  1  0  0  0  0  0  0
  184.9580  178.4400  144.8820 C   0  0  0  0  0  1  0  0  0  0  0  0
  187.1940  177.8790  145.6760 C   0  0  0  0  0  2  0  0  0  0  0  0
  188.2200  177.8910  143.0470 C   0  0  0  0  0  0  0  0  0  0  0  0
  189.1790  177.5920  144.1840 C   0  0  0  0  0  0  0  0  0  0  0  0
  186.9330  178.1440  143.2810 C   0  0  0  0  0  3  0  0  0  0  0  0
  1  9  1  0  0  0  0
  1 15  1  0  0  0  0
  2  3  1  6  0  0  0
  2 13  1  0  0  0  0
  4  7  1  0  0  0  0
  5 15  2  0  0  0  0
  5  2  1  0  0  0  0
  6  1  2  0  0  0  0
  7  3  2  0  0  0  0
  8 13  1  0  0  0  0
 10 19  1  0  0  0  0
 11  4  1  0  0  0  0
 12 17  1  0  0  0  0
 12  8  2  0  0  0  0
 13 19  1  6  0  0  0
 14  8  1  0  0  0  0
 16  4  2  0  0  0  0
 16 21  1  0  0  0  0
 17  5  1  0  0  0  0
 18  6  1  0  0  0  0
 18 17  2  0  0  0  0
 20  3  1  0  0  0  0
 20 10  1  0  0  0  0
 21 20  2  0  0  0  0
 23 22  1  1  0  0  0
 23 30  1  0  0  0  0
 23 14  1  0  0  0  0
 24 27  1  0  0  0  0
 24 28  1  0  0  0  0
 25 28  1  0  0  0  0
 26 29  1  0  0  0  0
 29 31  1  0  0  0  0
 29 30  2  0  0  0  0
 30 25  1  0  0  0  0
 31 24  2  0  0  0  0
M  END
>  <MODEL>
7

>  <REMARK>
 VINA RESULT:      -7.4      1.708      2.256
  Name = 
  2 active torsions:
  status: ('A' for Active; 'I' for Inactive)
    1  A    between atoms: C_5  and  N_16
    2  A    between atoms: C_5  and  C_30
                            x       y       z     vdW  Elec       q    Type
                         _______ _______ _______ _____ _____    ______ ____

>  <TORSDO>
F 2

$$$$
=
 OpenBabel11112416523D

 31 35  0  0  1  0  0  0  0  0999 V2000
  187.1800  177.3010  141.5570 C   0  0  0  0  0  0  0  0  0  0  0  0
  188.7770  174.4970  143.5790 C   0  0  2  0  0  3  0  0  0  0  0  0
  189.3810  173.4990  142.6060 C   0  0  0  0  0  0  0  0  0  0  0  0
  189.4720  172.4930  140.3930 C   0  0  0  0  0  0  0  0  0  0  0  0
  188.5300  175.8410  142.9410 C   0  0  0  0  0  0  0  0  0  0  0  0
  188.1650  178.2910  141.6380 C   0  0  0  0  0  3  0  0  0  0  0  0
  188.9400  173.4370  141.2740 C   0  0  0  0  0  3  0  0  0  0  0  0
  190.8140  175.6010  144.6200 C   0  0  0  0  0  0  0  0  0  0  0  0
  185.9950  177.5380  140.8070 N   0  0  0  0  0  1  0  0  0  0  0  0
  190.7630  172.5650  144.3830 O   0  0  0  0  0  0  0  0  0  0  0  0
  189.0380  172.4520  139.0750 O   0  0  0  0  0  1  0  0  0  0  0  0
  190.6900  176.6200  143.8180 N   0  0  0  0  0  0  0  0  0  0  0  0
  189.6410  174.6680  144.8510 C   0  0  2  0  0  3  0  0  0  0  0  0
  192.0150  175.4340  145.3830 N   0  0  0  0  0  2  0  0  0  0  0  0
  187.3630  176.0750  142.2030 C   0  0  0  0  0  3  0  0  0  0  0  0
  190.4410  171.5900  140.8360 C   0  0  0  0  0  3  0  0  0  0  0  0
  189.5120  176.8420  143.0350 C   0  0  0  0  0  0  0  0  0  0  0  0
  189.3300  178.0610  142.3760 C   0  0  0  0  0  3  0  0  0  0  0  0
  190.0720  173.3040  145.3880 C   0  0  0  0  0  2  0  0  0  0  0  0
  190.3340  172.5610  143.0540 C   0  0  0  0  0  0  0  0  0  0  0  0
  190.8700  171.6240  142.1650 C   0  0  0  0  0  3  0  0  0  0  0  0
  193.9380  176.4000  146.5130 C   0  0  0  0  0  1  0  0  0  0  0  0
  193.2200  176.2330  145.1870 C   0  0  1  0  0  3  0  0  0  0  0  0
  193.7340  174.2620  141.6470 C   0  0  0  0  0  0  0  0  0  0  0  0
  194.0040  176.2680  142.8840 O   0  0  0  0  0  0  0  0  0  0  0  0
  194.2090  173.3290  145.2060 O   0  0  0  0  0  1  0  0  0  0  0  0
  193.5290  173.5580  140.3550 C   0  0  0  0  0  1  0  0  0  0  0  0
  193.8080  175.5880  141.6760 C   0  0  0  0  0  2  0  0  0  0  0  0
  194.0680  174.1000  144.0600 C   0  0  0  0  0  0  0  0  0  0  0  0
  194.1640  175.6120  144.1490 C   0  0  0  0  0  0  0  0  0  0  0  0
  193.8690  173.4920  142.8900 C   0  0  0  0  0  3  0  0  0  0  0  0
  1  6  2  0  0  0  0
  1 15  1  0  0  0  0
  2  3  1  6  0  0  0
  2 13  1  0  0  0  0
  3 20  1  0  0  0  0
  4 16  2  0  0  0  0
  4  7  1  0  0  0  0
  5 17  1  0  0  0  0
  5  2  1  0  0  0  0
  6 18  1  0  0  0  0
  7  3  2  0  0  0  0
  8 13  1  0  0  0  0
  8 14  1  0  0  0  0
  9  1  1  0  0  0  0
 10 19  1  0  0  0  0
 11  4  1  0  0  0  0
 12  8  2  0  0  0  0
 13 19  1  6  0  0  0
 15  5  2  0  0  0  0
 16 21  1  0  0  0  0
 17 12  1  0  0  0  0
 18 17  2  0  0  0  0
 20 10  1  0  0  0  0
 21 20  2  0  0  0  0
 23 14  1  0  0  0  0
 23 22  1  1  0  0  0
 24 28  1  0  0  0  0
 24 31  2  0  0  0  0
 25 30  1  0  0  0  0
 27 24  1  0  0  0  0
 28 25  1  0  0  0  0
 29 30  2  0  0  0  0
 29 26  1  0  0  0  0
 30 23  1  0  0  0  0
 31 29  1  0  0  0  0
M  END
>  <MODEL>
8

>  <REMARK>
 VINA RESULT:      -7.3      2.997      7.504
  Name = 
  2 active torsions:
  status: ('A' for Active; 'I' for Inactive)
    1  A    between atoms: C_5  and  N_16
    2  A    between atoms: C_5  and  C_30
                            x       y       z     vdW  Elec       q    Type
                         _______ _______ _______ _____ _____    ______ ____

>  <TORSDO>
F 2

$$$$
=
 OpenBabel11112416523D

 31 35  0  0  1  0  0  0  0  0999 V2000
  190.0890  172.4710  138.2460 C   0  0  0  0  0  0  0  0  0  0  0  0
  190.7820  173.3600  141.8830 C   0  0  2  0  0  3  0  0  0  0  0  0
  191.9570  174.3220  141.9180 C   0  0  0  0  0  0  0  0  0  0  0  0
  193.9560  175.2560  140.8950 C   0  0  0  0  0  0  0  0  0  0  0  0
  190.1340  173.2970  140.5230 C   0  0  0  0  0  0  0  0  0  0  0  0
  189.0080  173.3120  137.9610 C   0  0  0  0  0  3  0  0  0  0  0  0
  192.8570  174.3960  140.8420 C   0  0  0  0  0  3  0  0  0  0  0  0
  188.8090  174.8260  142.5230 C   0  0  0  0  0  0  0  0  0  0  0  0
  190.6210  171.6290  137.2310 N   0  0  0  0  0  1  0  0  0  0  0  0
  191.3590  175.0090  144.1780 O   0  0  0  0  0  0  0  0  0  0  0  0
  194.8300  175.3320  139.8190 O   0  0  0  0  0  1  0  0  0  0  0  0
  188.4780  174.9530  141.2690 N   0  0  0  0  0  0  0  0  0  0  0  0
  189.7200  173.6950  142.9580 C   0  0  2  0  0  3  0  0  0  0  0  0
  188.2110  175.6750  143.5090 N   0  0  0  0  0  2  0  0  0  0  0  0
  190.6560  172.4670  139.5240 C   0  0  0  0  0  3  0  0  0  0  0  0
  194.1780  176.0400  142.0290 C   0  0  0  0  0  3  0  0  0  0  0  0
  189.0380  174.1290  140.2400 C   0  0  0  0  0  0  0  0  0  0  0  0
  188.4830  174.1400  138.9570 C   0  0  0  0  0  3  0  0  0  0  0  0
  190.3930  173.9670  144.3030 C   0  0  0  0  0  2  0  0  0  0  0  0
  192.2080  175.0920  143.0740 C   0  0  0  0  0  0  0  0  0  0  0  0
  193.3050  175.9570  143.1160 C   0  0  0  0  0  3  0  0  0  0  0  0
  185.9420  176.3800  142.9970 C   0  0  0  0  0  1  0  0  0  0  0  0
  187.3780  176.8300  143.1910 C   0  0  1  0  0  3  0  0  0  0  0  0
  185.9560  178.3980  146.6840 C   0  0  0  0  0  0  0  0  0  0  0  0
  187.7350  177.3160  145.5480 O   0  0  0  0  0  0  0  0  0  0  0  0
  185.8550  179.4920  143.1400 O   0  0  0  0  0  1  0  0  0  0  0  0
  185.1910  178.6660  147.9280 C   0  0  0  0  0  1  0  0  0  0  0  0
  187.0000  177.5770  146.7110 C   0  0  0  0  0  2  0  0  0  0  0  0
  186.2470  178.8380  144.3000 C   0  0  0  0  0  0  0  0  0  0  0  0
  187.4500  177.9130  144.2750 C   0  0  0  0  0  0  0  0  0  0  0  0
  185.5680  179.0510  145.4270 C   0  0  0  0  0  3  0  0  0  0  0  0
  1 15  1  0  0  0  0
  2  5  1  6  0  0  0
  2  3  1  0  0  0  0
  2 13  1  0  0  0  0
  3 20  1  0  0  0  0
  4 16  2  0  0  0  0
  6  1  2  0  0  0  0
  6 18  1  0  0  0  0
  7  4  1  0  0  0  0
  7  3  2  0  0  0  0
  8 13  1  0  0  0  0
  8 14  1  0  0  0  0
  9  1  1  0  0  0  0
 10 19  1  0  0  0  0
 11  4  1  0  0  0  0
 12  8  2  0  0  0  0
 13 19  1  1  0  0  0
 15  5  2  0  0  0  0
 16 21  1  0  0  0  0
 17  5  1  0  0  0  0
 17 12  1  0  0  0  0
 18 17  2  0  0  0  0
 20 21  2  0  0  0  0
 20 10  1  0  0  0  0
 23 22  1  1  0  0  0
 23 14  1  0  0  0  0
 23 30  1  0  0  0  0
 24 28  1  0  0  0  0
 24 27  1  0  0  0  0
 25 28  1  0  0  0  0
 26 29  1  0  0  0  0
 29 31  1  0  0  0  0
 30 29  2  0  0  0  0
 30 25  1  0  0  0  0
 31 24  2  0  0  0  0
M  END
>  <MODEL>
9

>  <REMARK>
 VINA RESULT:      -7.3      4.116      6.029
  Name = 
  2 active torsions:
  status: ('A' for Active; 'I' for Inactive)
    1  A    between atoms: C_5  and  N_16
    2  A    between atoms: C_5  and  C_30
                            x       y       z     vdW  Elec       q    Type
                         _______ _______ _______ _____ _____    ______ ____

>  <TORSDO>
F 2

$$$$
