=
 OpenBabel11112416183D

 30 35  0  0  1  0  0  0  0  0999 V2000
  187.8850  177.3100  145.4670 C   0  0  0  0  0  0  0  0  0  0  0  0
  185.9280  178.4410  146.5700 C   0  0  0  0  0  0  0  0  0  0  0  0
  185.9060  177.2780  141.7650 N   0  0  0  0  0  0  0  0  0  0  0  0
  188.4390  176.7080  144.2990 C   0  0  0  0  0  0  0  0  0  0  0  0
  188.6810  177.3740  146.6170 C   0  0  0  0  0  3  0  0  0  0  0  0
  191.7820  175.6850  145.5540 O   0  0  0  0  0  1  0  0  0  0  0  0
  189.2970  174.3500  142.5350 C   0  0  1  0  0  3  0  0  0  0  0  0
  190.5040  176.2330  145.5060 C   0  0  0  0  0  0  0  0  0  0  0  0
  188.3480  174.9290  141.5640 N   0  0  2  0  0  0  0  0  0  0  0  0
  186.8210  176.7720  140.9990 C   0  0  0  0  0  0  0  0  0  0  0  0
  189.9840  176.8590  146.6450 C   0  0  0  0  0  0  0  0  0  0  0  0
  189.7320  176.1350  144.3340 C   0  0  0  0  0  0  0  0  0  0  0  0
  184.6390  178.9720  146.4610 C   0  0  0  0  0  3  0  0  0  0  0  0
  188.9720  174.7060  140.2670 C   0  0  0  0  0  2  0  0  0  0  0  0
  190.0670  173.2480  141.8270 C   0  0  0  0  0  2  0  0  0  0  0  0
  186.5500  178.5060  147.8110 O   0  0  0  0  0  1  0  0  0  0  0  0
  186.4270  177.2690  143.0820 C   0  0  0  0  0  0  0  0  0  0  0  0
  183.9520  178.9410  145.2500 C   0  0  0  0  0  3  0  0  0  0  0  0
  186.5590  177.8550  145.4360 C   0  0  0  0  0  0  0  0  0  0  0  0
  187.6800  176.7260  143.1200 C   0  0  0  0  0  0  0  0  0  0  0  0
  186.6350  176.6790  139.5240 C   0  0  0  0  0  1  0  0  0  0  0  0
  188.0900  176.3720  141.7210 C   0  0  1  0  0  3  0  0  0  0  0  0
  189.7520  173.4140  140.3600 C   0  0  0  0  0  2  0  0  0  0  0  0
  191.4020  175.5200  142.7590 O   0  0  0  0  0  0  0  0  0  0  0  0
  184.5460  178.3710  144.1280 C   0  0  0  0  0  3  0  0  0  0  0  0
  185.8310  177.8260  144.2110 C   0  0  0  0  0  0  0  0  0  0  0  0
  190.2290  175.3480  143.1890 C   0  0  0  0  0  0  0  0  0  0  0  0
  190.7870  176.9410  147.8310 N   0  0  0  0  0  0  0  0  0  0  0  0
  191.6330  177.9660  149.8420 C   0  0  0  0  0  1  0  0  0  0  0  0
  190.7700  177.9590  148.6330 C   0  0  0  0  0  3  0  0  0  0  0  0
  1  5  1  0  0  0  0
  2 16  1  0  0  0  0
  3 17  1  0  0  0  0
  4 12  1  0  0  0  0
  4  1  2  0  0  0  0
  5 11  2  0  0  0  0
  7 15  1  6  0  0  0
  7 27  1  0  0  0  0
  8  6  1  0  0  0  0
  8 11  1  0  0  0  0
  9 14  1  6  0  0  0
  9 22  1  0  0  0  0
  9  7  1  0  0  0  0
 10  3  2  0  0  0  0
 11 28  1  0  0  0  0
 12  8  2  0  0  0  0
 13  2  1  0  0  0  0
 14 23  1  0  0  0  0
 17 20  2  0  0  0  0
 17 26  1  0  0  0  0
 18 13  2  0  0  0  0
 19  1  1  0  0  0  0
 19  2  2  0  0  0  0
 20  4  1  0  0  0  0
 21 10  1  0  0  0  0
 22 10  1  6  0  0  0
 22 20  1  0  0  0  0
 23 15  1  0  0  0  0
 24 27  2  0  0  0  0
 25 26  2  0  0  0  0
 25 18  1  0  0  0  0
 26 19  1  0  0  0  0
 27 12  1  0  0  0  0
 28 30  2  0  0  0  0
 30 29  1  0  0  0  0
M  END
>  <MODEL>
1

>  <REMARK>
 VINA RESULT:      -8.6      0.000      0.000
  Name = 
  1 active torsions:
  status: ('A' for Active; 'I' for Inactive)
    1  A    between atoms: C_11  and  N_28
                            x       y       z     vdW  Elec       q    Type
                         _______ _______ _______ _____ _____    ______ ____

>  <TORSDO>
F 1

$$$$
=
 OpenBabel11112416183D

 30 35  0  0  1  0  0  0  0  0999 V2000
  188.3230  175.9200  143.7430 C   0  0  0  0  0  0  0  0  0  0  0  0
  186.0840  177.0460  143.9500 C   0  0  0  0  0  0  0  0  0  0  0  0
  189.5860  177.5420  147.4030 N   0  0  0  0  0  0  0  0  0  0  0  0
  189.6360  175.7250  144.2640 C   0  0  0  0  0  0  0  0  0  0  0  0
  187.9670  175.2320  142.5770 C   0  0  0  0  0  3  0  0  0  0  0  0
  191.0600  173.4120  141.7290 O   0  0  0  0  0  1  0  0  0  0  0  0
  192.6710  176.1540  144.3660 C   0  0  1  0  0  3  0  0  0  0  0  0
  190.1610  174.2260  142.4130 C   0  0  0  0  0  0  0  0  0  0  0  0
  192.4010  176.6480  145.7310 N   0  0  2  0  0  0  0  0  0  0  0  0
  190.7560  176.9980  147.5250 C   0  0  0  0  0  0  0  0  0  0  0  0
  188.8610  174.3790  141.9170 C   0  0  0  0  0  0  0  0  0  0  0  0
  190.5650  174.9100  143.5740 C   0  0  0  0  0  0  0  0  0  0  0  0
  185.2270  177.8760  144.6790 C   0  0  0  0  0  3  0  0  0  0  0  0
  193.5430  176.1940  146.5150 C   0  0  0  0  0  2  0  0  0  0  0  0
  194.1780  176.0410  144.2060 C   0  0  0  0  0  2  0  0  0  0  0  0
  185.6040  176.5090  142.7610 O   0  0  0  0  0  1  0  0  0  0  0  0
  189.0760  177.1320  146.1470 C   0  0  0  0  0  0  0  0  0  0  0  0
  185.6390  178.4520  145.8780 C   0  0  0  0  0  3  0  0  0  0  0  0
  187.3980  176.7770  144.4260 C   0  0  0  0  0  0  0  0  0  0  0  0
  189.9650  176.3370  145.4810 C   0  0  0  0  0  0  0  0  0  0  0  0
  191.5660  177.1690  148.7630 C   0  0  0  0  0  1  0  0  0  0  0  0
  191.1680  176.1330  146.3530 C   0  0  1  0  0  3  0  0  0  0  0  0
  194.7440  176.1900  145.5970 C   0  0  0  0  0  2  0  0  0  0  0  0
  192.5770  173.7530  144.0890 O   0  0  0  0  0  0  0  0  0  0  0  0
  186.9200  178.2070  146.3640 C   0  0  0  0  0  3  0  0  0  0  0  0
  187.7990  177.3860  145.6510 C   0  0  0  0  0  0  0  0  0  0  0  0
  191.9750  174.8590  144.0070 C   0  0  0  0  0  0  0  0  0  0  0  0
  188.4750  173.6780  140.7270 N   0  0  0  0  0  0  0  0  0  0  0  0
  188.1910  173.3750  138.3540 C   0  0  0  0  0  1  0  0  0  0  0  0
  188.6180  174.1660  139.5360 C   0  0  0  0  0  3  0  0  0  0  0  0
  1  4  1  0  0  0  0
  1 19  1  0  0  0  0
  2 19  2  0  0  0  0
  2 13  1  0  0  0  0
  3 10  2  0  0  0  0
  4 20  1  0  0  0  0
  5  1  2  0  0  0  0
  6  8  1  0  0  0  0
  7 15  1  1  0  0  0
  7  9  1  0  0  0  0
  8 12  1  0  0  0  0
  9 22  1  0  0  0  0
  9 14  1  1  0  0  0
 10 21  1  0  0  0  0
 11  8  2  0  0  0  0
 11  5  1  0  0  0  0
 12 27  1  0  0  0  0
 12  4  2  0  0  0  0
 13 18  2  0  0  0  0
 15 23  1  0  0  0  0
 16  2  1  0  0  0  0
 17  3  1  0  0  0  0
 18 25  1  0  0  0  0
 19 26  1  0  0  0  0
 20 17  2  0  0  0  0
 22 20  1  6  0  0  0
 22 10  1  0  0  0  0
 23 14  1  0  0  0  0
 26 17  1  0  0  0  0
 26 25  2  0  0  0  0
 27 24  2  0  0  0  0
 27  7  1  0  0  0  0
 28 11  1  0  0  0  0
 29 30  1  0  0  0  0
 30 28  2  0  0  0  0
M  END
>  <MODEL>
2

>  <REMARK>
 VINA RESULT:      -8.6      2.064      5.730
  Name = 
  1 active torsions:
  status: ('A' for Active; 'I' for Inactive)
    1  A    between atoms: C_11  and  N_28
                            x       y       z     vdW  Elec       q    Type
                         _______ _______ _______ _____ _____    ______ ____

>  <TORSDO>
F 1

$$$$
=
 OpenBabel11112416183D

 30 35  0  0  1  0  0  0  0  0999 V2000
  188.3170  175.7680  141.8060 C   0  0  0  0  0  0  0  0  0  0  0  0
  189.9440  173.9230  141.2790 C   0  0  0  0  0  0  0  0  0  0  0  0
  189.7270  176.0170  145.7520 N   0  0  0  0  0  0  0  0  0  0  0  0
  187.7490  176.6450  142.7760 C   0  0  0  0  0  0  0  0  0  0  0  0
  187.8530  175.8540  140.4880 C   0  0  0  0  0  3  0  0  0  0  0  0
  185.2520  178.4580  140.7090 O   0  0  0  0  0  1  0  0  0  0  0  0
  185.5840  177.5870  144.7340 C   0  0  1  0  0  3  0  0  0  0  0  0
  186.2750  177.5890  141.0800 C   0  0  0  0  0  0  0  0  0  0  0  0
  186.6570  177.4630  145.7410 N   0  0  2  0  0  0  0  0  0  0  0  0
  189.0300  177.0120  146.2030 C   0  0  0  0  0  0  0  0  0  0  0  0
  186.8550  176.7610  140.1120 C   0  0  0  0  0  0  0  0  0  0  0  0
  186.7010  177.5250  142.4190 C   0  0  0  0  0  0  0  0  0  0  0  0
  190.9660  173.0730  141.7110 C   0  0  0  0  0  3  0  0  0  0  0  0
  186.4230  178.5680  146.6610 C   0  0  0  0  0  2  0  0  0  0  0  0
  184.4020  178.2700  145.4000 C   0  0  0  0  0  2  0  0  0  0  0  0
  189.5370  173.8220  139.9540 O   0  0  0  0  0  1  0  0  0  0  0  0
  189.2820  175.7730  144.4300 C   0  0  0  0  0  0  0  0  0  0  0  0
  191.4240  173.1160  143.0250 C   0  0  0  0  0  3  0  0  0  0  0  0
  189.3530  174.8500  142.1830 C   0  0  0  0  0  0  0  0  0  0  0  0
  188.2760  176.6270  144.0760 C   0  0  0  0  0  0  0  0  0  0  0  0
  189.2730  177.5800  147.5570 C   0  0  0  0  0  1  0  0  0  0  0  0
  188.0290  177.5720  145.2140 C   0  0  1  0  0  3  0  0  0  0  0  0
  184.9300  178.8000  146.7110 C   0  0  0  0  0  2  0  0  0  0  0  0
  185.7350  179.5170  143.2840 O   0  0  0  0  0  0  0  0  0  0  0  0
  190.8610  174.0110  143.9300 C   0  0  0  0  0  3  0  0  0  0  0  0
  189.8330  174.8690  143.5250 C   0  0  0  0  0  0  0  0  0  0  0  0
  185.9870  178.2930  143.4570 C   0  0  0  0  0  0  0  0  0  0  0  0
  186.3980  176.8390  138.7540 N   0  0  0  0  0  0  0  0  0  0  0  0
  186.2610  176.1680  136.4440 C   0  0  0  0  0  1  0  0  0  0  0  0
  186.7800  176.0190  137.8270 C   0  0  0  0  0  3  0  0  0  0  0  0
  1 19  2  0  0  0  0
  1  4  1  0  0  0  0
  2 13  2  0  0  0  0
  2 19  1  0  0  0  0
  3 10  2  0  0  0  0
  4 20  2  0  0  0  0
  5  1  1  0  0  0  0
  6  8  1  0  0  0  0
  7 15  1  1  0  0  0
  7  9  1  0  0  0  0
  8 12  2  0  0  0  0
  9 14  1  1  0  0  0
 10 21  1  0  0  0  0
 11  5  2  0  0  0  0
 11  8  1  0  0  0  0
 12  4  1  0  0  0  0
 12 27  1  0  0  0  0
 13 18  1  0  0  0  0
 14 23  1  0  0  0  0
 15 23  1  0  0  0  0
 16  2  1  0  0  0  0
 17  3  1  0  0  0  0
 18 25  2  0  0  0  0
 19 26  1  0  0  0  0
 20 17  1  0  0  0  0
 22 20  1  6  0  0  0
 22  9  1  0  0  0  0
 22 10  1  0  0  0  0
 24 27  2  0  0  0  0
 26 25  1  0  0  0  0
 26 17  2  0  0  0  0
 27  7  1  0  0  0  0
 28 11  1  0  0  0  0
 29 30  1  0  0  0  0
 30 28  2  0  0  0  0
M  END
>  <MODEL>
3

>  <REMARK>
 VINA RESULT:      -8.3      2.236      7.460
  Name = 
  1 active torsions:
  status: ('A' for Active; 'I' for Inactive)
    1  A    between atoms: C_11  and  N_28
                            x       y       z     vdW  Elec       q    Type
                         _______ _______ _______ _____ _____    ______ ____

>  <TORSDO>
F 1

$$$$
=
 OpenBabel11112416183D

 30 35  0  0  1  0  0  0  0  0999 V2000
  190.0500  175.1410  143.5940 C   0  0  0  0  0  0  0  0  0  0  0  0
  192.1330  173.7310  143.5730 C   0  0  0  0  0  0  0  0  0  0  0  0
  191.0050  176.6680  147.3860 N   0  0  0  0  0  0  0  0  0  0  0  0
  189.1950  176.0330  144.3060 C   0  0  0  0  0  0  0  0  0  0  0  0
  189.6950  174.7900  142.2860 C   0  0  0  0  0  3  0  0  0  0  0  0
  186.5060  176.5770  141.8020 O   0  0  0  0  0  1  0  0  0  0  0  0
  186.7010  176.7860  145.9240 C   0  0  1  0  0  3  0  0  0  0  0  0
  187.6800  176.1260  142.3970 C   0  0  0  0  0  0  0  0  0  0  0  0
  187.6790  177.1920  146.9530 N   0  0  2  0  0  0  0  0  0  0  0  0
  190.0400  177.5150  147.5620 C   0  0  0  0  0  0  0  0  0  0  0  0
  188.5340  175.2820  141.6760 C   0  0  0  0  0  0  0  0  0  0  0  0
  187.9920  176.4910  143.7200 C   0  0  0  0  0  0  0  0  0  0  0  0
  193.2970  173.3100  144.2230 C   0  0  0  0  0  3  0  0  0  0  0  0
  187.0920  178.3770  147.5660 C   0  0  0  0  0  2  0  0  0  0  0  0
  185.3310  177.2620  146.3760 C   0  0  0  0  0  2  0  0  0  0  0  0
  191.8810  173.2180  142.3050 O   0  0  0  0  0  1  0  0  0  0  0  0
  190.7520  176.0140  146.1550 C   0  0  0  0  0  0  0  0  0  0  0  0
  193.6140  173.7790  145.4960 C   0  0  0  0  0  3  0  0  0  0  0  0
  191.2500  174.6490  144.2070 C   0  0  0  0  0  0  0  0  0  0  0  0
  189.5960  176.4590  145.5800 C   0  0  0  0  0  0  0  0  0  0  0  0
  190.0130  178.4270  148.7390 C   0  0  0  0  0  1  0  0  0  0  0  0
  189.0180  177.5410  146.4450 C   0  0  1  0  0  3  0  0  0  0  0  0
  185.5910  178.2040  147.5260 C   0  0  0  0  0  2  0  0  0  0  0  0
  186.4790  178.2940  144.0460 O   0  0  0  0  0  0  0  0  0  0  0  0
  192.7660  174.6750  146.1390 C   0  0  0  0  0  3  0  0  0  0  0  0
  191.5910  175.1060  145.5140 C   0  0  0  0  0  0  0  0  0  0  0  0
  187.0190  177.2580  144.5210 C   0  0  0  0  0  0  0  0  0  0  0  0
  188.1910  174.9180  140.3320 N   0  0  0  0  0  0  0  0  0  0  0  0
  188.1910  173.5170  138.3710 C   0  0  0  0  0  1  0  0  0  0  0  0
  188.5900  173.8210  139.7690 C   0  0  0  0  0  3  0  0  0  0  0  0
  1 19  1  0  0  0  0
  1  4  1  0  0  0  0
  2 19  2  0  0  0  0
  2 13  1  0  0  0  0
  3 10  2  0  0  0  0
  4 20  1  0  0  0  0
  5  1  2  0  0  0  0
  6  8  1  0  0  0  0
  7 15  1  1  0  0  0
  7  9  1  0  0  0  0
  8 12  1  0  0  0  0
  9 14  1  6  0  0  0
 10 21  1  0  0  0  0
 11  5  1  0  0  0  0
 11  8  2  0  0  0  0
 12  4  2  0  0  0  0
 12 27  1  0  0  0  0
 13 18  2  0  0  0  0
 15 23  1  0  0  0  0
 16  2  1  0  0  0  0
 17  3  1  0  0  0  0
 18 25  1  0  0  0  0
 19 26  1  0  0  0  0
 20 17  2  0  0  0  0
 22 20  1  6  0  0  0
 22  9  1  0  0  0  0
 22 10  1  0  0  0  0
 23 14  1  0  0  0  0
 24 27  2  0  0  0  0
 26 25  2  0  0  0  0
 26 17  1  0  0  0  0
 27  7  1  0  0  0  0
 28 11  1  0  0  0  0
 29 30  1  0  0  0  0
 30 28  2  0  0  0  0
M  END
>  <MODEL>
4

>  <REMARK>
 VINA RESULT:      -8.2      2.082      7.345
  Name = 
  1 active torsions:
  status: ('A' for Active; 'I' for Inactive)
    1  A    between atoms: C_11  and  N_28
                            x       y       z     vdW  Elec       q    Type
                         _______ _______ _______ _____ _____    ______ ____

>  <TORSDO>
F 1

$$$$
=
 OpenBabel11112416183D

 30 35  0  0  1  0  0  0  0  0999 V2000
  188.7760  176.4830  145.4950 C   0  0  0  0  0  0  0  0  0  0  0  0
  186.7150  177.8780  145.8590 C   0  0  0  0  0  0  0  0  0  0  0  0
  187.4830  175.4010  141.6500 N   0  0  0  0  0  0  0  0  0  0  0  0
  189.4950  175.5750  144.6640 C   0  0  0  0  0  0  0  0  0  0  0  0
  189.3580  176.8710  146.7080 C   0  0  0  0  0  3  0  0  0  0  0  0
  192.5080  174.9530  146.7470 O   0  0  0  0  0  1  0  0  0  0  0  0
  190.5300  172.8150  143.8170 C   0  0  1  0  0  3  0  0  0  0  0  0
  191.2870  175.4650  146.3140 C   0  0  0  0  0  0  0  0  0  0  0  0
  189.7970  173.0940  142.5650 N   0  0  2  0  0  0  0  0  0  0  0  0
  188.4910  174.7000  141.2380 C   0  0  0  0  0  0  0  0  0  0  0  0
  190.6070  176.3870  147.1170 C   0  0  0  0  0  0  0  0  0  0  0  0
  190.7310  175.0370  145.0950 C   0  0  0  0  0  0  0  0  0  0  0  0
  185.4950  178.3560  145.3720 C   0  0  0  0  0  3  0  0  0  0  0  0
  190.6290  172.5140  141.5190 C   0  0  0  0  0  2  0  0  0  0  0  0
  191.3550  171.5590  143.5980 C   0  0  0  0  0  2  0  0  0  0  0  0
  187.1110  178.2930  147.1260 O   0  0  0  0  0  1  0  0  0  0  0  0
  187.7620  175.7670  142.9900 C   0  0  0  0  0  0  0  0  0  0  0  0
  185.0310  177.9820  144.1130 C   0  0  0  0  0  3  0  0  0  0  0  0
  187.5050  176.9960  145.0710 C   0  0  0  0  0  0  0  0  0  0  0  0
  188.9580  175.2580  143.4080 C   0  0  0  0  0  0  0  0  0  0  0  0
  188.5630  174.1930  139.8400 C   0  0  0  0  0  1  0  0  0  0  0  0
  189.5900  174.5220  142.2640 C   0  0  1  0  0  3  0  0  0  0  0  0
  191.3130  171.3020  142.1110 C   0  0  0  0  0  2  0  0  0  0  0  0
  192.6190  174.0030  144.0880 O   0  0  0  0  0  0  0  0  0  0  0  0
  185.7840  177.1180  143.3230 C   0  0  0  0  0  3  0  0  0  0  0  0
  187.0050  176.6200  143.7890 C   0  0  0  0  0  0  0  0  0  0  0  0
  191.3810  173.9590  144.3260 C   0  0  0  0  0  0  0  0  0  0  0  0
  191.1910  176.8030  148.3600 N   0  0  0  0  0  0  0  0  0  0  0  0
  191.5670  178.2900  150.2190 C   0  0  0  0  0  1  0  0  0  0  0  0
  190.9190  177.9330  148.9310 C   0  0  0  0  0  3  0  0  0  0  0  0
  1  5  1  0  0  0  0
  2 16  1  0  0  0  0
  3 17  1  0  0  0  0
  4 12  1  0  0  0  0
  4  1  2  0  0  0  0
  5 11  2  0  0  0  0
  7 15  1  6  0  0  0
  7 27  1  0  0  0  0
  8  6  1  0  0  0  0
  8 11  1  0  0  0  0
  9 14  1  6  0  0  0
  9  7  1  0  0  0  0
 10  3  2  0  0  0  0
 11 28  1  0  0  0  0
 12  8  2  0  0  0  0
 13  2  1  0  0  0  0
 14 23  1  0  0  0  0
 17 20  2  0  0  0  0
 17 26  1  0  0  0  0
 18 13  2  0  0  0  0
 19  1  1  0  0  0  0
 19  2  2  0  0  0  0
 20  4  1  0  0  0  0
 21 10  1  0  0  0  0
 22 10  1  6  0  0  0
 22  9  1  0  0  0  0
 22 20  1  0  0  0  0
 23 15  1  0  0  0  0
 24 27  2  0  0  0  0
 25 26  2  0  0  0  0
 25 18  1  0  0  0  0
 26 19  1  0  0  0  0
 27 12  1  0  0  0  0
 28 30  2  0  0  0  0
 30 29  1  0  0  0  0
M  END
>  <MODEL>
5

>  <REMARK>
 VINA RESULT:      -8.2      1.356      1.965
  Name = 
  1 active torsions:
  status: ('A' for Active; 'I' for Inactive)
    1  A    between atoms: C_11  and  N_28
                            x       y       z     vdW  Elec       q    Type
                         _______ _______ _______ _____ _____    ______ ____

>  <TORSDO>
F 1

$$$$
=
 OpenBabel11112416183D

 30 35  0  0  1  0  0  0  0  0999 V2000
  187.4920  176.5740  142.2250 C   0  0  0  0  0  0  0  0  0  0  0  0
  185.8590  178.4510  142.5990 C   0  0  0  0  0  0  0  0  0  0  0  0
  188.4370  176.4510  146.3130 N   0  0  0  0  0  0  0  0  0  0  0  0
  188.4840  175.7030  142.7630 C   0  0  0  0  0  0  0  0  0  0  0  0
  187.1670  176.4460  140.8690 C   0  0  0  0  0  3  0  0  0  0  0  0
  189.4440  173.7760  139.7360 O   0  0  0  0  0  1  0  0  0  0  0  0
  191.3520  174.7450  143.2700 C   0  0  1  0  0  3  0  0  0  0  0  0
  188.7950  174.6810  140.5710 C   0  0  0  0  0  0  0  0  0  0  0  0
  190.9960  174.9200  144.6920 N   0  0  2  0  0  0  0  0  0  0  0  0
  189.2560  175.4470  146.3480 C   0  0  0  0  0  0  0  0  0  0  0  0
  187.7930  175.5040  140.0430 C   0  0  0  0  0  0  0  0  0  0  0  0
  189.1620  174.7870  141.9250 C   0  0  0  0  0  0  0  0  0  0  0  0
  185.2430  179.3390  143.4860 C   0  0  0  0  0  3  0  0  0  0  0  0
  191.6790  173.8290  145.3760 C   0  0  0  0  0  2  0  0  0  0  0  0
  192.6990  174.0440  143.2150 C   0  0  0  0  0  2  0  0  0  0  0  0
  185.4860  178.5120  141.2610 O   0  0  0  0  0  1  0  0  0  0  0  0
  188.0990  176.6530  144.9520 C   0  0  0  0  0  0  0  0  0  0  0  0
  185.5680  179.3380  144.8400 C   0  0  0  0  0  3  0  0  0  0  0  0
  186.8340  177.5280  143.0710 C   0  0  0  0  0  0  0  0  0  0  0  0
  188.7430  175.7640  144.1400 C   0  0  0  0  0  0  0  0  0  0  0  0
  189.7770  174.9160  147.6380 C   0  0  0  0  0  1  0  0  0  0  0  0
  189.5560  174.8380  144.9950 C   0  0  1  0  0  3  0  0  0  0  0  0
  192.9590  173.5570  144.6200 C   0  0  0  0  0  2  0  0  0  0  0  0
  190.4190  172.7880  142.1970 O   0  0  0  0  0  0  0  0  0  0  0  0
  186.5210  178.4470  145.3260 C   0  0  0  0  0  3  0  0  0  0  0  0
  187.1570  177.5520  144.4590 C   0  0  0  0  0  0  0  0  0  0  0  0
  190.3140  174.0220  142.4380 C   0  0  0  0  0  0  0  0  0  0  0  0
  187.4410  175.3830  138.6580 N   0  0  0  0  0  0  0  0  0  0  0  0
  186.3730  176.0410  136.6000 C   0  0  0  0  0  1  0  0  0  0  0  0
  186.6910  176.2380  138.0370 C   0  0  0  0  0  3  0  0  0  0  0  0
  1  4  1  0  0  0  0
  1 19  1  0  0  0  0
  2 19  2  0  0  0  0
  2 13  1  0  0  0  0
  3 10  2  0  0  0  0
  4 20  1  0  0  0  0
  5  1  2  0  0  0  0
  6  8  1  0  0  0  0
  7 15  1  1  0  0  0
  7  9  1  0  0  0  0
  8 12  1  0  0  0  0
  9 22  1  0  0  0  0
  9 14  1  1  0  0  0
 10 21  1  0  0  0  0
 11  8  2  0  0  0  0
 11  5  1  0  0  0  0
 12 27  1  0  0  0  0
 12  4  2  0  0  0  0
 13 18  2  0  0  0  0
 15 23  1  0  0  0  0
 16  2  1  0  0  0  0
 17  3  1  0  0  0  0
 18 25  1  0  0  0  0
 19 26  1  0  0  0  0
 20 17  2  0  0  0  0
 22 20  1  6  0  0  0
 22 10  1  0  0  0  0
 23 14  1  0  0  0  0
 24 27  2  0  0  0  0
 26 17  1  0  0  0  0
 26 25  2  0  0  0  0
 27  7  1  0  0  0  0
 28 11  1  0  0  0  0
 29 30  1  0  0  0  0
 30 28  2  0  0  0  0
M  END
>  <MODEL>
6

>  <REMARK>
 VINA RESULT:      -8.1      2.384      5.703
  Name = 
  1 active torsions:
  status: ('A' for Active; 'I' for Inactive)
    1  A    between atoms: C_11  and  N_28
                            x       y       z     vdW  Elec       q    Type
                         _______ _______ _______ _____ _____    ______ ____

>  <TORSDO>
F 1

$$$$
=
 OpenBabel11112416183D

 30 35  0  0  1  0  0  0  0  0999 V2000
  188.2330  175.8070  141.8750 C   0  0  0  0  0  0  0  0  0  0  0  0
  186.6380  176.9460  140.2980 C   0  0  0  0  0  0  0  0  0  0  0  0
  186.7820  178.0470  145.1150 N   0  0  0  0  0  0  0  0  0  0  0  0
  188.7780  175.7090  143.1880 C   0  0  0  0  0  0  0  0  0  0  0  0
  188.7070  174.9250  140.8960 C   0  0  0  0  0  3  0  0  0  0  0  0
  191.2680  172.9930  142.7150 O   0  0  0  0  0  1  0  0  0  0  0  0
  190.9110  176.1590  145.3460 C   0  0  1  0  0  3  0  0  0  0  0  0
  190.2550  173.9120  142.4560 C   0  0  0  0  0  0  0  0  0  0  0  0
  189.8300  176.8820  146.0460 N   0  0  2  0  0  0  0  0  0  0  0  0
  187.4600  177.5360  146.0940 C   0  0  0  0  0  0  0  0  0  0  0  0
  189.6960  173.9730  141.1740 C   0  0  0  0  0  0  0  0  0  0  0  0
  189.8170  174.7890  143.4650 C   0  0  0  0  0  0  0  0  0  0  0  0
  185.6250  177.8880  140.0980 C   0  0  0  0  0  3  0  0  0  0  0  0
  190.0400  176.5760  147.4550 C   0  0  0  0  0  2  0  0  0  0  0  0
  192.0760  176.0240  146.3110 C   0  0  0  0  0  2  0  0  0  0  0  0
  187.0590  176.2080  139.1970 O   0  0  0  0  0  1  0  0  0  0  0  0
  187.2430  177.4230  143.9300 C   0  0  0  0  0  0  0  0  0  0  0  0
  185.1530  178.6660  141.1530 C   0  0  0  0  0  3  0  0  0  0  0  0
  187.2060  176.7680  141.5900 C   0  0  0  0  0  0  0  0  0  0  0  0
  188.2390  176.5260  144.1930 C   0  0  0  0  0  0  0  0  0  0  0  0
  187.1960  177.9230  147.5070 C   0  0  0  0  0  1  0  0  0  0  0  0
  188.4620  176.4800  145.6760 C   0  0  1  0  0  3  0  0  0  0  0  0
  191.5290  176.4150  147.6630 C   0  0  0  0  0  2  0  0  0  0  0  0
  190.7450  173.7460  145.3880 O   0  0  0  0  0  0  0  0  0  0  0  0
  185.6940  178.5130  142.4260 C   0  0  0  0  0  3  0  0  0  0  0  0
  186.7140  177.5820  142.6520 C   0  0  0  0  0  0  0  0  0  0  0  0
  190.5090  174.8190  144.7670 C   0  0  0  0  0  0  0  0  0  0  0  0
  190.1640  173.0730  140.1600 N   0  0  0  0  0  0  0  0  0  0  0  0
  189.9450  171.3860  138.4530 C   0  0  0  0  0  1  0  0  0  0  0  0
  189.3810  172.2890  139.4880 C   0  0  0  0  0  3  0  0  0  0  0  0
  1  4  1  0  0  0  0
  2 19  1  0  0  0  0
  3 10  2  0  0  0  0
  4 12  1  0  0  0  0
  4 20  2  0  0  0  0
  5 11  2  0  0  0  0
  5  1  1  0  0  0  0
  7  9  1  0  0  0  0
  7 15  1  1  0  0  0
  8  6  1  0  0  0  0
  8 12  2  0  0  0  0
  9 14  1  1  0  0  0
 10 21  1  0  0  0  0
 11  8  1  0  0  0  0
 12 27  1  0  0  0  0
 13  2  2  0  0  0  0
 13 18  1  0  0  0  0
 14 23  1  0  0  0  0
 15 23  1  0  0  0  0
 16  2  1  0  0  0  0
 17 20  1  0  0  0  0
 17  3  1  0  0  0  0
 18 25  2  0  0  0  0
 19  1  2  0  0  0  0
 19 26  1  0  0  0  0
 22 20  1  6  0  0  0
 22  9  1  0  0  0  0
 22 10  1  0  0  0  0
 25 26  1  0  0  0  0
 26 17  2  0  0  0  0
 27  7  1  0  0  0  0
 27 24  2  0  0  0  0
 28 11  1  0  0  0  0
 29 30  1  0  0  0  0
 30 28  2  0  0  0  0
M  END
>  <MODEL>
7

>  <REMARK>
 VINA RESULT:      -7.9      2.139      5.867
  Name = 
  1 active torsions:
  status: ('A' for Active; 'I' for Inactive)
    1  A    between atoms: C_11  and  N_28
                            x       y       z     vdW  Elec       q    Type
                         _______ _______ _______ _____ _____    ______ ____

>  <TORSDO>
F 1

$$$$
=
 OpenBabel11112416183D

 30 35  0  0  1  0  0  0  0  0999 V2000
  189.1720  174.9800  141.6670 C   0  0  0  0  0  0  0  0  0  0  0  0
  189.3040  173.7000  139.5060 C   0  0  0  0  0  0  0  0  0  0  0  0
  192.9480  173.5740  142.8450 N   0  0  0  0  0  0  0  0  0  0  0  0
  189.7510  175.2870  142.9330 C   0  0  0  0  0  0  0  0  0  0  0  0
  187.9640  175.6010  141.3260 C   0  0  0  0  0  3  0  0  0  0  0  0
  187.2100  177.6140  144.3220 O   0  0  0  0  0  1  0  0  0  0  0  0
  190.0240  175.0840  145.9810 C   0  0  1  0  0  3  0  0  0  0  0  0
  187.8760  176.7590  143.4480 C   0  0  0  0  0  0  0  0  0  0  0  0
  191.3900  174.6170  145.6740 N   0  0  2  0  0  0  0  0  0  0  0  0
  193.1090  174.2060  143.9650 C   0  0  0  0  0  0  0  0  0  0  0  0
  187.3210  176.4950  142.1910 C   0  0  0  0  0  0  0  0  0  0  0  0
  189.0800  176.1450  143.8370 C   0  0  0  0  0  0  0  0  0  0  0  0
  190.0180  172.8340  138.6730 C   0  0  0  0  0  3  0  0  0  0  0  0
  192.2150  175.1790  146.7370 C   0  0  0  0  0  2  0  0  0  0  0  0
  189.9360  175.3020  147.4820 C   0  0  0  0  0  2  0  0  0  0  0  0
  188.0730  174.1610  139.0530 O   0  0  0  0  0  1  0  0  0  0  0  0
  191.6530  173.9040  142.3740 C   0  0  0  0  0  0  0  0  0  0  0  0
  191.2570  172.3280  139.0600 C   0  0  0  0  0  3  0  0  0  0  0  0
  189.8360  174.0790  140.7700 C   0  0  0  0  0  0  0  0  0  0  0  0
  191.0050  174.7400  143.2390 C   0  0  0  0  0  0  0  0  0  0  0  0
  194.3920  174.1350  144.7170 C   0  0  0  0  0  1  0  0  0  0  0  0
  191.9290  175.0610  144.3760 C   0  0  1  0  0  3  0  0  0  0  0  0
  191.3600  175.2400  147.9820 C   0  0  0  0  0  2  0  0  0  0  0  0
  189.6550  177.4620  145.7300 O   0  0  0  0  0  0  0  0  0  0  0  0
  191.7980  172.6820  140.2920 C   0  0  0  0  0  3  0  0  0  0  0  0
  191.1020  173.5420  141.1480 C   0  0  0  0  0  0  0  0  0  0  0  0
  189.5830  176.3130  145.2140 C   0  0  0  0  0  0  0  0  0  0  0  0
  186.0870  177.1270  141.8200 N   0  0  0  0  0  0  0  0  0  0  0  0
  184.5890  178.3270  140.3640 C   0  0  0  0  0  1  0  0  0  0  0  0
  185.8960  177.6930  140.6710 C   0  0  0  0  0  3  0  0  0  0  0  0
  1  4  1  0  0  0  0
  2 19  1  0  0  0  0
  3 10  2  0  0  0  0
  4 20  1  0  0  0  0
  4 12  2  0  0  0  0
  5  1  2  0  0  0  0
  5 11  1  0  0  0  0
  7 15  1  1  0  0  0
  8 12  1  0  0  0  0
  8  6  1  0  0  0  0
  9  7  1  0  0  0  0
  9 14  1  1  0  0  0
 10 22  1  0  0  0  0
 10 21  1  0  0  0  0
 11  8  2  0  0  0  0
 12 27  1  0  0  0  0
 13 18  1  0  0  0  0
 13  2  2  0  0  0  0
 14 23  1  0  0  0  0
 15 23  1  0  0  0  0
 16  2  1  0  0  0  0
 17  3  1  0  0  0  0
 17 20  2  0  0  0  0
 18 25  2  0  0  0  0
 19 26  2  0  0  0  0
 19  1  1  0  0  0  0
 22 20  1  6  0  0  0
 22  9  1  0  0  0  0
 25 26  1  0  0  0  0
 26 17  1  0  0  0  0
 27 24  2  0  0  0  0
 27  7  1  0  0  0  0
 28 11  1  0  0  0  0
 29 30  1  0  0  0  0
 30 28  2  0  0  0  0
M  END
>  <MODEL>
8

>  <REMARK>
 VINA RESULT:      -7.6      2.538      7.209
  Name = 
  1 active torsions:
  status: ('A' for Active; 'I' for Inactive)
    1  A    between atoms: C_11  and  N_28
                            x       y       z     vdW  Elec       q    Type
                         _______ _______ _______ _____ _____    ______ ____

>  <TORSDO>
F 1

$$$$
=
 OpenBabel11112416183D

 30 35  0  0  1  0  0  0  0  0999 V2000
  188.4870  175.8510  142.1020 C   0  0  0  0  0  0  0  0  0  0  0  0
  186.5850  177.4620  141.7670 C   0  0  0  0  0  0  0  0  0  0  0  0
  189.1550  177.2940  145.9860 N   0  0  0  0  0  0  0  0  0  0  0  0
  189.5520  175.3850  142.9270 C   0  0  0  0  0  0  0  0  0  0  0  0
  188.2790  175.2150  140.8720 C   0  0  0  0  0  3  0  0  0  0  0  0
  190.9820  172.7080  140.7850 O   0  0  0  0  0  1  0  0  0  0  0  0
  192.4850  175.1200  143.7830 C   0  0  1  0  0  3  0  0  0  0  0  0
  190.1550  173.7320  141.2390 C   0  0  0  0  0  0  0  0  0  0  0  0
  192.0100  175.7170  145.0470 N   0  0  2  0  0  0  0  0  0  0  0  0
  190.1030  176.5050  146.3850 C   0  0  0  0  0  0  0  0  0  0  0  0
  189.0870  174.1550  140.4400 C   0  0  0  0  0  0  0  0  0  0  0  0
  190.4090  174.3530  142.4750 C   0  0  0  0  0  0  0  0  0  0  0  0
  185.7910  178.4940  142.2750 C   0  0  0  0  0  3  0  0  0  0  0  0
  192.7900  175.0490  146.0820 C   0  0  0  0  0  2  0  0  0  0  0  0
  193.9180  174.6620  143.9990 C   0  0  0  0  0  2  0  0  0  0  0  0
  186.3010  177.0000  140.4870 O   0  0  0  0  0  1  0  0  0  0  0  0
  188.8870  176.9590  144.6360 C   0  0  0  0  0  0  0  0  0  0  0  0
  186.0180  179.0110  143.5490 C   0  0  0  0  0  3  0  0  0  0  0  0
  187.6450  176.9230  142.5480 C   0  0  0  0  0  0  0  0  0  0  0  0
  189.7050  175.9570  144.1980 C   0  0  0  0  0  0  0  0  0  0  0  0
  190.6030  176.5380  147.7870 C   0  0  0  0  0  1  0  0  0  0  0  0
  190.5790  175.5210  145.3370 C   0  0  1  0  0  3  0  0  0  0  0  0
  194.1450  174.7360  145.4890 C   0  0  0  0  0  2  0  0  0  0  0  0
  191.9130  172.7930  143.4510 O   0  0  0  0  0  0  0  0  0  0  0  0
  187.0500  178.5020  144.3320 C   0  0  0  0  0  3  0  0  0  0  0  0
  187.8640  177.4750  143.8440 C   0  0  0  0  0  0  0  0  0  0  0  0
  191.6190  174.0020  143.2420 C   0  0  0  0  0  0  0  0  0  0  0  0
  188.8520  173.5110  139.1800 N   0  0  0  0  0  0  0  0  0  0  0  0
  189.1070  173.1740  136.8070 C   0  0  0  0  0  1  0  0  0  0  0  0
  189.4020  173.8950  138.0710 C   0  0  0  0  0  3  0  0  0  0  0  0
  1 19  2  0  0  0  0
  1  4  1  0  0  0  0
  2 13  2  0  0  0  0
  2 19  1  0  0  0  0
  3 10  2  0  0  0  0
  4 20  2  0  0  0  0
  5  1  1  0  0  0  0
  6  8  1  0  0  0  0
  7 15  1  1  0  0  0
  7  9  1  0  0  0  0
  8 12  2  0  0  0  0
  9 22  1  0  0  0  0
  9 14  1  1  0  0  0
 10 21  1  0  0  0  0
 11  5  2  0  0  0  0
 11  8  1  0  0  0  0
 12  4  1  0  0  0  0
 12 27  1  0  0  0  0
 13 18  1  0  0  0  0
 15 23  1  0  0  0  0
 16  2  1  0  0  0  0
 17  3  1  0  0  0  0
 18 25  2  0  0  0  0
 19 26  1  0  0  0  0
 20 17  1  0  0  0  0
 22 20  1  6  0  0  0
 22 10  1  0  0  0  0
 23 14  1  0  0  0  0
 26 25  1  0  0  0  0
 26 17  2  0  0  0  0
 27 24  2  0  0  0  0
 27  7  1  0  0  0  0
 28 11  1  0  0  0  0
 29 30  1  0  0  0  0
 30 28  2  0  0  0  0
M  END
>  <MODEL>
9

>  <REMARK>
 VINA RESULT:      -7.6      2.443      5.969
  Name = 
  1 active torsions:
  status: ('A' for Active; 'I' for Inactive)
    1  A    between atoms: C_11  and  N_28
                            x       y       z     vdW  Elec       q    Type
                         _______ _______ _______ _____ _____    ______ ____

>  <TORSDO>
F 1

$$$$
