=
 OpenBabel11112417133D

 37 43  0  0  1  0  0  0  0  0999 V2000
  195.9630  174.1600  143.7570 C   0  0  0  0  0  2  0  0  0  0  0  0
  193.6230  169.4060  143.9760 C   0  0  0  0  0  0  0  0  0  0  0  0
  192.3920  173.4240  142.9560 C   0  0  1  0  0  3  0  0  0  0  0  0
  196.8200  175.3120  144.0160 N   0  0  0  0  0  0  0  0  0  0  0  0
  192.4500  174.9110  146.6100 C   0  0  0  0  0  2  0  0  0  0  0  0
  191.9080  170.9340  142.9150 C   0  0  1  0  0  3  0  0  0  0  0  0
  192.9750  174.0750  144.2120 C   0  0  1  0  0  3  0  0  0  0  0  0
  195.1770  176.8380  145.0380 C   0  0  0  0  0  0  0  0  0  0  0  0
  192.9900  172.0230  142.9010 C   0  0  2  0  0  3  0  0  0  0  0  0
  191.9090  174.5960  145.2070 C   0  0  2  0  0  3  0  0  0  0  0  0
  191.0070  171.1270  141.7800 N   0  0  0  0  0  2  0  0  0  0  0  0
  195.9950  176.4970  143.8210 C   0  0  0  0  0  2  0  0  0  0  0  0
  194.0100  171.8710  143.9600 N   0  0  2  0  0  0  0  0  0  0  0  0
  194.9500  169.0180  143.3540 C   0  0  0  0  0  1  0  0  0  0  0  0
  190.2160  174.7830  142.7410 C   0  0  0  0  0  2  0  0  0  0  0  0
  190.3090  172.4260  141.8410 C   0  0  0  0  0  2  0  0  0  0  0  0
  193.7990  170.6880  144.8080 C   0  0  0  0  0  2  0  0  0  0  0  0
  194.6310  175.8270  145.9040 N   0  0  0  0  0  0  0  0  0  0  0  0
  193.4080  176.1050  146.6490 C   0  0  0  0  0  2  0  0  0  0  0  0
  190.8480  173.3970  142.9090 C   0  0  1  0  0  3  0  0  0  0  0  0
  193.9300  173.0440  144.8260 C   0  0  1  0  0  3  0  0  0  0  0  0
  192.5760  169.5690  142.8610 C   0  0  0  0  0  2  0  0  0  0  0  0
  191.1180  175.7930  144.6370 C   0  0  1  0  0  3  0  0  0  0  0  0
  193.1790  168.2910  144.8990 C   0  0  0  0  0  1  0  0  0  0  0  0
  195.3740  174.6100  146.2180 C   0  0  0  0  0  2  0  0  0  0  0  0
  194.8830  178.0470  145.2300 O   0  0  0  0  0  0  0  0  0  0  0  0
  195.3370  173.6190  145.0520 C   0  0  2  0  0  3  0  0  0  0  0  0
  191.0340  175.8280  143.2220 O   0  0  0  0  0  0  0  0  0  0  0  0
  189.4480  175.3010  146.4380 C   0  0  0  0  0  3  0  0  0  0  0  0
  189.8130  176.0760  145.3320 C   0  0  0  0  0  0  0  0  0  0  0  0
  188.9740  177.1160  144.9070 C   0  0  0  0  0  3  0  0  0  0  0  0
  186.9450  178.3980  145.1530 O   0  0  0  0  0  1  0  0  0  0  0  0
  187.4120  176.5890  146.6800 C   0  0  0  0  0  3  0  0  0  0  0  0
  187.7750  177.3690  145.5790 C   0  0  0  0  0  0  0  0  0  0  0  0
  188.2490  175.5550  147.1100 C   0  0  0  0  0  3  0  0  0  0  0  0
  197.3270  176.0080  141.8530 O   0  0  0  0  0  1  0  0  0  0  0  0
  197.8250  175.3340  142.9680 C   0  0  0  0  0  2  0  0  0  0  0  0
  1  4  1  0  0  0  0
  1 27  1  0  0  0  0
  2 17  1  0  0  0  0
  2 24  1  0  0  0  0
  3  7  1  0  0  0  0
  5 19  1  0  0  0  0
  7 21  1  0  0  0  0
  7 10  1  0  0  0  0
  8 26  2  0  0  0  0
  8 18  1  0  0  0  0
  9  6  1  0  0  0  0
  9  3  1  0  0  0  0
  9 13  1  0  0  0  0
 10  5  1  0  0  0  0
 11 16  1  0  0  0  0
 11  6  1  0  0  0  0
 12  4  1  0  0  0  0
 12  8  1  0  0  0  0
 13 17  1  0  0  0  0
 13 21  1  0  0  0  0
 14  2  1  0  0  0  0
 15 20  1  0  0  0  0
 15 28  1  0  0  0  0
 16 20  1  0  0  0  0
 18 25  1  0  0  0  0
 18 19  1  0  0  0  0
 20  3  1  0  0  0  0
 21 27  1  0  0  0  0
 22  6  1  0  0  0  0
 22  2  1  0  0  0  0
 23 10  1  0  0  0  0
 23 30  1  0  0  0  0
 27 25  1  0  0  0  0
 28 23  1  0  0  0  0
 29 35  1  0  0  0  0
 30 29  2  0  0  0  0
 31 30  1  0  0  0  0
 31 34  2  0  0  0  0
 32 34  1  0  0  0  0
 33 35  2  0  0  0  0
 34 33  1  0  0  0  0
 36 37  1  0  0  0  0
 37  4  1  0  0  0  0
M  END
>  <MODEL>
1

>  <REMARK>
 VINA RESULT:      -8.2      0.000      0.000
  Name = 
  2 active torsions:
  status: ('A' for Active; 'I' for Inactive)
    1  A    between atoms: N_4  and  C_37
    2  A    between atoms: C_23  and  C_30
                            x       y       z     vdW  Elec       q    Type
                         _______ _______ _______ _____ _____    ______ ____

>  <TORSDO>
F 2

$$$$
=
 OpenBabel11112417133D

 37 43  0  0  1  0  0  0  0  0999 V2000
  194.4580  174.8490  143.7050 C   0  0  0  0  0  2  0  0  0  0  0  0
  191.1540  171.3060  141.5470 C   0  0  0  0  0  0  0  0  0  0  0  0
  190.9130  175.4640  142.7080 C   0  0  1  0  0  3  0  0  0  0  0  0
  195.5080  175.4870  144.4920 N   0  0  0  0  0  0  0  0  0  0  0  0
  190.9110  174.8970  146.6120 C   0  0  0  0  0  2  0  0  0  0  0  0
  189.9200  173.5120  141.4300 C   0  0  1  0  0  3  0  0  0  0  0  0
  191.4890  175.2540  144.1100 C   0  0  1  0  0  3  0  0  0  0  0  0
  194.1300  176.6480  146.1720 C   0  0  0  0  0  0  0  0  0  0  0  0
  191.2040  174.1770  141.9450 C   0  0  2  0  0  3  0  0  0  0  0  0
  190.4610  175.4510  145.2510 C   0  0  2  0  0  3  0  0  0  0  0  0
  189.2010  174.4430  140.5630 N   0  0  0  0  0  2  0  0  0  0  0  0
  194.9770  176.7690  144.9350 C   0  0  0  0  0  2  0  0  0  0  0  0
  192.0540  173.2890  142.7650 N   0  0  2  0  0  0  0  0  0  0  0  0
  192.4260  170.9760  140.7890 C   0  0  0  0  0  1  0  0  0  0  0  0
  189.1080  177.2190  143.2460 C   0  0  0  0  0  2  0  0  0  0  0  0
  188.7920  175.6660  141.2820 C   0  0  0  0  0  2  0  0  0  0  0  0
  191.5120  171.9300  142.9070 C   0  0  0  0  0  2  0  0  0  0  0  0
  193.2970  175.5020  146.4230 N   0  0  0  0  0  0  0  0  0  0  0  0
  192.0900  175.6540  147.2290 C   0  0  0  0  0  2  0  0  0  0  0  0
  189.4120  175.8270  142.6820 C   0  0  1  0  0  3  0  0  0  0  0  0
  192.1360  173.8640  144.1050 C   0  0  1  0  0  3  0  0  0  0  0  0
  190.2860  172.2370  140.6840 C   0  0  0  0  0  2  0  0  0  0  0  0
  190.0040  176.9210  145.3760 C   0  0  1  0  0  3  0  0  0  0  0  0
  190.3920  170.0210  141.7920 C   0  0  0  0  0  1  0  0  0  0  0  0
  193.7290  174.1530  146.0690 C   0  0  0  0  0  2  0  0  0  0  0  0
  194.0800  177.6350  146.9520 O   0  0  0  0  0  0  0  0  0  0  0  0
  193.6020  173.9050  144.5630 C   0  0  2  0  0  3  0  0  0  0  0  0
  190.0750  177.6670  144.1720 O   0  0  0  0  0  0  0  0  0  0  0  0
  187.6470  176.2600  145.9070 C   0  0  0  0  0  3  0  0  0  0  0  0
  188.7250  177.1210  146.1420 C   0  0  0  0  0  0  0  0  0  0  0  0
  188.6050  178.1350  147.1040 C   0  0  0  0  0  3  0  0  0  0  0  0
  187.2950  179.2980  148.7630 O   0  0  0  0  0  1  0  0  0  0  0  0
  186.3360  177.4320  147.5710 C   0  0  0  0  0  3  0  0  0  0  0  0
  187.4120  178.2910  147.8140 C   0  0  0  0  0  0  0  0  0  0  0  0
  186.4540  176.4160  146.6180 C   0  0  0  0  0  3  0  0  0  0  0  0
  196.7900  177.1660  143.5130 O   0  0  0  0  0  1  0  0  0  0  0  0
  196.5970  175.7860  143.5790 C   0  0  0  0  0  2  0  0  0  0  0  0
  1  4  1  0  0  0  0
  1 27  1  0  0  0  0
  2 24  1  0  0  0  0
  2 17  1  0  0  0  0
  3  7  1  0  0  0  0
  4 12  1  0  0  0  0
  5 19  1  0  0  0  0
  6  9  1  0  0  0  0
  7 10  1  0  0  0  0
  8 18  1  0  0  0  0
  8 26  2  0  0  0  0
  9  3  1  0  0  0  0
  9 13  1  0  0  0  0
 10 23  1  0  0  0  0
 10  5  1  0  0  0  0
 11 16  1  0  0  0  0
 11  6  1  0  0  0  0
 12  8  1  0  0  0  0
 13 17  1  0  0  0  0
 13 21  1  0  0  0  0
 14  2  1  0  0  0  0
 15 28  1  0  0  0  0
 16 20  1  0  0  0  0
 18 19  1  0  0  0  0
 20  3  1  0  0  0  0
 20 15  1  0  0  0  0
 21  7  1  0  0  0  0
 21 27  1  0  0  0  0
 22  6  1  0  0  0  0
 22  2  1  0  0  0  0
 23 30  1  0  0  0  0
 25 18  1  0  0  0  0
 27 25  1  0  0  0  0
 28 23  1  0  0  0  0
 29 30  2  0  0  0  0
 29 35  1  0  0  0  0
 30 31  1  0  0  0  0
 31 34  2  0  0  0  0
 33 34  1  0  0  0  0
 34 32  1  0  0  0  0
 35 33  2  0  0  0  0
 36 37  1  0  0  0  0
 37  4  1  0  0  0  0
M  END
>  <MODEL>
2

>  <REMARK>
 VINA RESULT:      -8.2      1.972      2.609
  Name = 
  2 active torsions:
  status: ('A' for Active; 'I' for Inactive)
    1  A    between atoms: N_4  and  C_37
    2  A    between atoms: C_23  and  C_30
                            x       y       z     vdW  Elec       q    Type
                         _______ _______ _______ _____ _____    ______ ____

>  <TORSDO>
F 2

$$$$
=
 OpenBabel11112417133D

 37 43  0  0  1  0  0  0  0  0999 V2000
  191.6380  172.5700  143.1000 C   0  0  0  0  0  2  0  0  0  0  0  0
  194.9320  176.2750  144.9810 C   0  0  0  0  0  0  0  0  0  0  0  0
  190.8480  175.0800  145.7470 C   0  0  1  0  0  3  0  0  0  0  0  0
  190.9410  171.6250  142.2330 N   0  0  0  0  0  0  0  0  0  0  0  0
  189.2860  176.4430  142.3910 C   0  0  0  0  0  2  0  0  0  0  0  0
  192.8970  176.3830  146.4800 C   0  0  1  0  0  3  0  0  0  0  0  0
  190.4230  175.0750  144.2780 C   0  0  1  0  0  3  0  0  0  0  0  0
  188.8000  172.8110  141.9520 C   0  0  0  0  0  0  0  0  0  0  0  0
  192.3710  175.1480  145.7370 C   0  0  2  0  0  3  0  0  0  0  0  0
  189.4350  176.2070  143.9020 C   0  0  2  0  0  3  0  0  0  0  0  0
  192.4170  176.3640  147.8610 N   0  0  0  0  0  2  0  0  0  0  0  0
  189.5350  171.6740  142.6090 C   0  0  0  0  0  2  0  0  0  0  0  0
  192.8690  175.0220  144.3510 N   0  0  2  0  0  0  0  0  0  0  0  0
  195.8850  175.1000  144.8860 C   0  0  0  0  0  1  0  0  0  0  0  0
  188.7150  176.0560  146.8070 C   0  0  0  0  0  2  0  0  0  0  0  0
  190.9440  176.4130  147.9360 C   0  0  0  0  0  2  0  0  0  0  0  0
  193.7930  176.0980  143.9630 C   0  0  0  0  0  2  0  0  0  0  0  0
  189.4260  174.0800  141.6910 N   0  0  0  0  0  0  0  0  0  0  0  0
  188.6080  175.2870  141.6490 C   0  0  0  0  0  2  0  0  0  0  0  0
  190.2240  176.2150  146.5890 C   0  0  1  0  0  3  0  0  0  0  0  0
  191.7170  175.0970  143.4560 C   0  0  1  0  0  3  0  0  0  0  0  0
  194.4170  176.3870  146.4250 C   0  0  0  0  0  2  0  0  0  0  0  0
  188.0570  176.0220  144.5720 C   0  0  1  0  0  3  0  0  0  0  0  0
  195.6910  177.5400  144.6380 C   0  0  0  0  0  1  0  0  0  0  0  0
  190.8190  174.1690  141.2630 C   0  0  0  0  0  2  0  0  0  0  0  0
  187.5700  172.6660  141.7260 O   0  0  0  0  0  0  0  0  0  0  0  0
  191.7770  173.9480  142.4370 C   0  0  2  0  0  3  0  0  0  0  0  0
  188.0830  175.3030  145.7930 O   0  0  0  0  0  0  0  0  0  0  0  0
  186.8680  177.8990  143.4140 C   0  0  0  0  0  3  0  0  0  0  0  0
  187.2040  177.2620  144.6140 C   0  0  0  0  0  0  0  0  0  0  0  0
  186.7200  177.7700  145.8280 C   0  0  0  0  0  3  0  0  0  0  0  0
  185.4410  179.4160  147.0430 O   0  0  0  0  0  1  0  0  0  0  0  0
  185.5880  179.5500  144.6380 C   0  0  0  0  0  3  0  0  0  0  0  0
  185.9160  178.9130  145.8390 C   0  0  0  0  0  0  0  0  0  0  0  0
  186.0640  179.0410  143.4250 C   0  0  0  0  0  3  0  0  0  0  0  0
  190.8170  169.3480  141.7600 O   0  0  0  0  0  1  0  0  0  0  0  0
  191.4160  170.2990  142.5870 C   0  0  0  0  0  2  0  0  0  0  0  0
  2 22  1  0  0  0  0
  3 20  1  0  0  0  0
  4 37  1  0  0  0  0
  4 12  1  0  0  0  0
  4  1  1  0  0  0  0
  5 10  1  0  0  0  0
  6 11  1  0  0  0  0
  7  3  1  0  0  0  0
  8 12  1  0  0  0  0
  9  3  1  0  0  0  0
  9  6  1  0  0  0  0
 10  7  1  0  0  0  0
 10 23  1  0  0  0  0
 11 16  1  0  0  0  0
 13  9  1  0  0  0  0
 14  2  1  0  0  0  0
 17 13  1  0  0  0  0
 17  2  1  0  0  0  0
 18  8  1  0  0  0  0
 19 18  1  0  0  0  0
 19  5  1  0  0  0  0
 20 15  1  0  0  0  0
 20 16  1  0  0  0  0
 21  7  1  0  0  0  0
 21 13  1  0  0  0  0
 22  6  1  0  0  0  0
 23 30  1  0  0  0  0
 23 28  1  0  0  0  0
 24  2  1  0  0  0  0
 25 18  1  0  0  0  0
 25 27  1  0  0  0  0
 26  8  2  0  0  0  0
 27  1  1  0  0  0  0
 27 21  1  0  0  0  0
 28 15  1  0  0  0  0
 29 35  2  0  0  0  0
 29 30  1  0  0  0  0
 30 31  2  0  0  0  0
 31 34  1  0  0  0  0
 33 34  2  0  0  0  0
 34 32  1  0  0  0  0
 35 33  1  0  0  0  0
 36 37  1  0  0  0  0
M  END
>  <MODEL>
3

>  <REMARK>
 VINA RESULT:      -8.0      2.817      5.972
  Name = 
  2 active torsions:
  status: ('A' for Active; 'I' for Inactive)
    1  A    between atoms: N_4  and  C_37
    2  A    between atoms: C_23  and  C_30
                            x       y       z     vdW  Elec       q    Type
                         _______ _______ _______ _____ _____    ______ ____

>  <TORSDO>
F 2

$$$$
=
 OpenBabel11112417133D

 37 43  0  0  1  0  0  0  0  0999 V2000
  188.9190  173.4210  141.0990 C   0  0  0  0  0  2  0  0  0  0  0  0
  187.6670  176.6400  145.1230 C   0  0  0  0  0  0  0  0  0  0  0  0
  191.2140  175.8330  142.7860 C   0  0  1  0  0  3  0  0  0  0  0  0
  188.9910  172.2890  140.1810 N   0  0  0  0  0  0  0  0  0  0  0  0
  192.0080  172.2730  144.2890 C   0  0  0  0  0  2  0  0  0  0  0  0
  189.9940  177.3410  144.4200 C   0  0  1  0  0  3  0  0  0  0  0  0
  191.1440  174.3130  142.9410 C   0  0  1  0  0  3  0  0  0  0  0  0
  191.1970  171.3830  140.8000 C   0  0  0  0  0  0  0  0  0  0  0  0
  189.8600  176.3590  143.2490 C   0  0  2  0  0  3  0  0  0  0  0  0
  192.2660  173.7150  143.8270 C   0  0  2  0  0  3  0  0  0  0  0  0
  190.8450  178.4620  144.0240 N   0  0  0  0  0  2  0  0  0  0  0  0
  190.3890  172.1550  139.7930 C   0  0  0  0  0  2  0  0  0  0  0  0
  188.9480  175.2280  143.5140 N   0  0  2  0  0  0  0  0  0  0  0  0
  186.4190  176.7820  144.2730 C   0  0  0  0  0  1  0  0  0  0  0  0
  193.7610  176.1640  142.9640 C   0  0  0  0  0  2  0  0  0  0  0  0
  192.2100  178.0240  143.6730 C   0  0  0  0  0  2  0  0  0  0  0  0
  188.3260  175.2780  144.8450 C   0  0  0  0  0  2  0  0  0  0  0  0
  190.9420  171.4660  142.2140 N   0  0  0  0  0  0  0  0  0  0  0  0
  192.0360  171.2450  143.1540 C   0  0  0  0  0  2  0  0  0  0  0  0
  192.3840  176.4990  143.5450 C   0  0  1  0  0  3  0  0  0  0  0  0
  189.7330  173.9970  143.4500 C   0  0  1  0  0  3  0  0  0  0  0  0
  188.6090  177.8190  144.8290 C   0  0  0  0  0  2  0  0  0  0  0  0
  193.6570  173.8460  143.1700 C   0  0  1  0  0  3  0  0  0  0  0  0
  187.2650  176.6920  146.5820 C   0  0  0  0  0  1  0  0  0  0  0  0
  189.5830  171.5580  142.7400 C   0  0  0  0  0  2  0  0  0  0  0  0
  192.1910  170.7320  140.3850 O   0  0  0  0  0  0  0  0  0  0  0  0
  189.0140  172.9690  142.5640 C   0  0  2  0  0  3  0  0  0  0  0  0
  193.7880  174.9340  142.2710 O   0  0  0  0  0  0  0  0  0  0  0  0
  194.8450  174.4560  145.2890 C   0  0  0  0  0  3  0  0  0  0  0  0
  194.8180  173.6940  144.1160 C   0  0  0  0  0  0  0  0  0  0  0  0
  195.8540  172.7860  143.8540 C   0  0  0  0  0  3  0  0  0  0  0  0
  197.9390  171.7540  144.4930 O   0  0  0  0  0  1  0  0  0  0  0  0
  196.9390  173.4190  145.9240 C   0  0  0  0  0  3  0  0  0  0  0  0
  196.9130  172.6510  144.7560 C   0  0  0  0  0  0  0  0  0  0  0  0
  195.9040  174.3210  146.1910 C   0  0  0  0  0  3  0  0  0  0  0  0
  188.2010  174.0620  138.8950 O   0  0  0  0  0  1  0  0  0  0  0  0
  188.2660  172.6710  138.9820 C   0  0  0  0  0  2  0  0  0  0  0  0
  1 27  1  0  0  0  0
  2 24  1  0  0  0  0
  3  7  1  0  0  0  0
  3  9  1  0  0  0  0
  3 20  1  0  0  0  0
  4  1  1  0  0  0  0
  6 22  1  0  0  0  0
  7 21  1  0  0  0  0
  7 10  1  0  0  0  0
  8 18  1  0  0  0  0
  9 13  1  0  0  0  0
  9  6  1  0  0  0  0
 10  5  1  0  0  0  0
 11  6  1  0  0  0  0
 12  4  1  0  0  0  0
 12  8  1  0  0  0  0
 13 17  1  0  0  0  0
 14  2  1  0  0  0  0
 15 20  1  0  0  0  0
 16 11  1  0  0  0  0
 17  2  1  0  0  0  0
 18 25  1  0  0  0  0
 18 19  1  0  0  0  0
 19  5  1  0  0  0  0
 20 16  1  0  0  0  0
 21 13  1  0  0  0  0
 22  2  1  0  0  0  0
 23 10  1  0  0  0  0
 23 30  1  0  0  0  0
 26  8  2  0  0  0  0
 27 25  1  0  0  0  0
 27 21  1  0  0  0  0
 28 15  1  0  0  0  0
 28 23  1  0  0  0  0
 29 35  1  0  0  0  0
 30 29  2  0  0  0  0
 31 30  1  0  0  0  0
 31 34  2  0  0  0  0
 32 34  1  0  0  0  0
 33 35  2  0  0  0  0
 34 33  1  0  0  0  0
 36 37  1  0  0  0  0
 37  4  1  0  0  0  0
M  END
>  <MODEL>
4

>  <REMARK>
 VINA RESULT:      -7.9      2.818      7.523
  Name = 
  2 active torsions:
  status: ('A' for Active; 'I' for Inactive)
    1  A    between atoms: N_4  and  C_37
    2  A    between atoms: C_23  and  C_30
                            x       y       z     vdW  Elec       q    Type
                         _______ _______ _______ _____ _____    ______ ____

>  <TORSDO>
F 2

$$$$
=
 OpenBabel11112417133D

 37 43  0  0  1  0  0  0  0  0999 V2000
  188.7810  174.4690  140.5910 C   0  0  0  0  0  2  0  0  0  0  0  0
  188.6410  177.0910  145.1970 C   0  0  0  0  0  0  0  0  0  0  0  0
  191.7150  175.2900  142.7480 C   0  0  1  0  0  3  0  0  0  0  0  0
  188.4520  173.6110  139.4570 N   0  0  0  0  0  0  0  0  0  0  0  0
  190.7930  171.5230  143.4740 C   0  0  0  0  0  2  0  0  0  0  0  0
  191.1000  176.8390  144.6600 C   0  0  1  0  0  3  0  0  0  0  0  0
  190.9970  173.9490  142.5810 C   0  0  1  0  0  3  0  0  0  0  0  0
  190.0040  171.7450  139.8750 C   0  0  0  0  0  0  0  0  0  0  0  0
  190.6720  176.2500  143.3090 C   0  0  2  0  0  3  0  0  0  0  0  0
  191.6760  172.7720  143.3240 C   0  0  2  0  0  3  0  0  0  0  0  0
  192.3760  177.5360  144.5070 N   0  0  0  0  0  2  0  0  0  0  0  0
  189.6920  172.9640  139.0500 C   0  0  0  0  0  2  0  0  0  0  0  0
  189.3480  175.5960  143.3300 N   0  0  2  0  0  0  0  0  0  0  0  0
  187.6520  177.9150  144.3950 C   0  0  0  0  0  1  0  0  0  0  0  0
  194.1360  174.4500  142.9930 C   0  0  0  0  0  2  0  0  0  0  0  0
  193.4550  176.6270  144.0750 C   0  0  0  0  0  2  0  0  0  0  0  0
  188.6870  175.6570  144.6420 C   0  0  0  0  0  2  0  0  0  0  0  0
  189.6800  171.6610  141.2740 N   0  0  0  0  0  0  0  0  0  0  0  0
  190.4890  170.8180  142.1490 C   0  0  0  0  0  2  0  0  0  0  0  0
  192.9810  175.2300  143.6310 C   0  0  1  0  0  3  0  0  0  0  0  0
  189.5440  174.1830  143.0110 C   0  0  1  0  0  3  0  0  0  0  0  0
  190.0140  177.7810  145.1580 C   0  0  0  0  0  2  0  0  0  0  0  0
  193.0460  172.4100  142.7100 C   0  0  1  0  0  3  0  0  0  0  0  0
  188.1680  177.0360  146.6350 C   0  0  0  0  0  1  0  0  0  0  0  0
  188.4450  172.2290  141.8060 C   0  0  0  0  0  2  0  0  0  0  0  0
  190.6650  170.8190  139.3330 O   0  0  0  0  0  0  0  0  0  0  0  0
  188.5420  173.7530  141.9280 C   0  0  2  0  0  3  0  0  0  0  0  0
  193.7050  173.4830  142.0580 O   0  0  0  0  0  0  0  0  0  0  0  0
  193.8450  171.7530  144.9910 C   0  0  0  0  0  3  0  0  0  0  0  0
  193.9430  171.5980  143.6040 C   0  0  0  0  0  0  0  0  0  0  0  0
  194.8530  170.6720  143.0730 C   0  0  0  0  0  3  0  0  0  0  0  0
  196.5660  169.0050  143.3950 O   0  0  0  0  0  1  0  0  0  0  0  0
  195.5670  170.0810  145.3100 C   0  0  0  0  0  3  0  0  0  0  0  0
  195.6640  169.9170  143.9250 C   0  0  0  0  0  0  0  0  0  0  0  0
  194.6560  170.9980  145.8430 C   0  0  0  0  0  3  0  0  0  0  0  0
  188.7320  174.1040  137.1980 O   0  0  0  0  0  1  0  0  0  0  0  0
  188.0690  174.4870  138.3630 C   0  0  0  0  0  2  0  0  0  0  0  0
  1 27  1  0  0  0  0
  2 24  1  0  0  0  0
  3  9  1  0  0  0  0
  3 20  1  0  0  0  0
  4  1  1  0  0  0  0
  6 22  1  0  0  0  0
  7  3  1  0  0  0  0
  7 21  1  0  0  0  0
  7 10  1  0  0  0  0
  8 18  1  0  0  0  0
  9 13  1  0  0  0  0
  9  6  1  0  0  0  0
 10  5  1  0  0  0  0
 11  6  1  0  0  0  0
 12  4  1  0  0  0  0
 12  8  1  0  0  0  0
 13 17  1  0  0  0  0
 14  2  1  0  0  0  0
 15 20  1  0  0  0  0
 16 11  1  0  0  0  0
 17  2  1  0  0  0  0
 18 25  1  0  0  0  0
 18 19  1  0  0  0  0
 19  5  1  0  0  0  0
 20 16  1  0  0  0  0
 21 13  1  0  0  0  0
 22  2  1  0  0  0  0
 23 10  1  0  0  0  0
 23 30  1  0  0  0  0
 25 27  1  0  0  0  0
 26  8  2  0  0  0  0
 27 21  1  0  0  0  0
 28 23  1  0  0  0  0
 28 15  1  0  0  0  0
 29 35  1  0  0  0  0
 30 29  2  0  0  0  0
 31 30  1  0  0  0  0
 31 34  2  0  0  0  0
 32 34  1  0  0  0  0
 33 35  2  0  0  0  0
 34 33  1  0  0  0  0
 36 37  1  0  0  0  0
 37  4  1  0  0  0  0
M  END
>  <MODEL>
5

>  <REMARK>
 VINA RESULT:      -7.7      2.937      7.830
  Name = 
  2 active torsions:
  status: ('A' for Active; 'I' for Inactive)
    1  A    between atoms: N_4  and  C_37
    2  A    between atoms: C_23  and  C_30
                            x       y       z     vdW  Elec       q    Type
                         _______ _______ _______ _____ _____    ______ ____

>  <TORSDO>
F 2

$$$$
=
 OpenBabel11112417133D

 37 43  0  0  1  0  0  0  0  0999 V2000
  191.1650  173.1050  141.4110 C   0  0  0  0  0  2  0  0  0  0  0  0
  189.7160  174.9790  146.1550 C   0  0  0  0  0  0  0  0  0  0  0  0
  193.4360  173.8100  144.2880 C   0  0  1  0  0  3  0  0  0  0  0  0
  191.1920  172.4070  140.1300 N   0  0  0  0  0  0  0  0  0  0  0  0
  192.7940  169.9170  144.2790 C   0  0  0  0  0  2  0  0  0  0  0  0
  192.2460  175.0000  146.1850 C   0  0  1  0  0  3  0  0  0  0  0  0
  192.9240  172.4600  143.7830 C   0  0  1  0  0  3  0  0  0  0  0  0
  192.8070  170.6220  140.6560 C   0  0  0  0  0  0  0  0  0  0  0  0
  192.1970  174.5920  144.7060 C   0  0  2  0  0  3  0  0  0  0  0  0
  193.5450  171.2380  144.5050 C   0  0  2  0  0  3  0  0  0  0  0  0
  193.4400  175.8070  146.4300 N   0  0  0  0  0  2  0  0  0  0  0  0
  192.5550  171.9250  139.9470 C   0  0  0  0  0  2  0  0  0  0  0  0
  190.9800  173.8430  144.3300 N   0  0  2  0  0  0  0  0  0  0  0  0
  188.8470  175.8370  145.2570 C   0  0  0  0  0  1  0  0  0  0  0  0
  195.8190  173.1300  144.9860 C   0  0  0  0  0  2  0  0  0  0  0  0
  194.6810  175.0590  146.1500 C   0  0  0  0  0  2  0  0  0  0  0  0
  190.0410  173.6540  145.4450 C   0  0  0  0  0  2  0  0  0  0  0  0
  192.1900  170.3030  141.9160 N   0  0  0  0  0  0  0  0  0  0  0  0
  192.8710  169.4010  142.8390 C   0  0  0  0  0  2  0  0  0  0  0  0
  194.4730  173.7140  145.4290 C   0  0  1  0  0  3  0  0  0  0  0  0
  191.3950  172.5140  143.8850 C   0  0  1  0  0  3  0  0  0  0  0  0
  190.9800  175.7700  146.5310 C   0  0  0  0  0  2  0  0  0  0  0  0
  195.0480  171.0800  144.1910 C   0  0  1  0  0  3  0  0  0  0  0  0
  188.9430  174.6700  147.4200 C   0  0  0  0  0  1  0  0  0  0  0  0
  190.8130  170.6880  142.2110 C   0  0  0  0  0  2  0  0  0  0  0  0
  193.6680  169.8430  140.1700 O   0  0  0  0  0  0  0  0  0  0  0  0
  190.7130  172.1780  142.5500 C   0  0  2  0  0  3  0  0  0  0  0  0
  195.7150  172.2860  143.8590 O   0  0  0  0  0  0  0  0  0  0  0  0
  197.1640  169.9590  144.9270 C   0  0  0  0  0  3  0  0  0  0  0  0
  195.8080  170.2120  145.1580 C   0  0  0  0  0  0  0  0  0  0  0  0
  195.1870  169.6780  146.2970 C   0  0  0  0  0  3  0  0  0  0  0  0
  195.2990  168.3580  148.3130 O   0  0  0  0  0  1  0  0  0  0  0  0
  197.2710  168.6330  146.9510 C   0  0  0  0  0  3  0  0  0  0  0  0
  195.9170  168.8880  147.1890 C   0  0  0  0  0  0  0  0  0  0  0  0
  197.8950  169.1700  145.8200 C   0  0  0  0  0  3  0  0  0  0  0  0
  189.6390  173.8280  139.1340 O   0  0  0  0  0  1  0  0  0  0  0  0
  190.9690  173.4070  139.1000 C   0  0  0  0  0  2  0  0  0  0  0  0
  1 27  1  0  0  0  0
  2 22  1  0  0  0  0
  2 24  1  0  0  0  0
  3  9  1  0  0  0  0
  3 20  1  0  0  0  0
  4  1  1  0  0  0  0
  5 10  1  0  0  0  0
  6 11  1  0  0  0  0
  6 22  1  0  0  0  0
  7 21  1  0  0  0  0
  7  3  1  0  0  0  0
  7 10  1  0  0  0  0
  8 18  1  0  0  0  0
  9  6  1  0  0  0  0
 12  4  1  0  0  0  0
 12  8  1  0  0  0  0
 13  9  1  0  0  0  0
 13 17  1  0  0  0  0
 14  2  1  0  0  0  0
 15 20  1  0  0  0  0
 16 11  1  0  0  0  0
 17  2  1  0  0  0  0
 18 25  1  0  0  0  0
 18 19  1  0  0  0  0
 19  5  1  0  0  0  0
 20 16  1  0  0  0  0
 21 13  1  0  0  0  0
 23 10  1  0  0  0  0
 23 30  1  0  0  0  0
 25 27  1  0  0  0  0
 26  8  2  0  0  0  0
 27 21  1  0  0  0  0
 28 23  1  0  0  0  0
 28 15  1  0  0  0  0
 29 30  2  0  0  0  0
 29 35  1  0  0  0  0
 30 31  1  0  0  0  0
 31 34  2  0  0  0  0
 33 34  1  0  0  0  0
 34 32  1  0  0  0  0
 35 33  2  0  0  0  0
 37 36  1  0  0  0  0
 37  4  1  0  0  0  0
M  END
>  <MODEL>
6

>  <REMARK>
 VINA RESULT:      -7.6      2.974      7.554
  Name = 
  2 active torsions:
  status: ('A' for Active; 'I' for Inactive)
    1  A    between atoms: N_4  and  C_37
    2  A    between atoms: C_23  and  C_30
                            x       y       z     vdW  Elec       q    Type
                         _______ _______ _______ _____ _____    ______ ____

>  <TORSDO>
F 2

$$$$
=
 OpenBabel11112417133D

 37 43  0  0  1  0  0  0  0  0999 V2000
  188.4930  175.5520  143.3590 C   0  0  0  0  0  2  0  0  0  0  0  0
  189.6470  172.8210  138.9620 C   0  0  0  0  0  0  0  0  0  0  0  0
  190.8840  172.6970  143.1030 C   0  0  1  0  0  3  0  0  0  0  0  0
  188.1380  176.6120  144.2960 N   0  0  0  0  0  0  0  0  0  0  0  0
  193.0500  175.9940  143.0810 C   0  0  0  0  0  2  0  0  0  0  0  0
  190.7920  171.5650  140.8350 C   0  0  1  0  0  3  0  0  0  0  0  0
  191.1890  174.1920  143.2060 C   0  0  1  0  0  3  0  0  0  0  0  0
  190.3260  176.9740  145.3710 C   0  0  0  0  0  0  0  0  0  0  0  0
  190.0950  172.5230  141.8100 C   0  0  2  0  0  3  0  0  0  0  0  0
  192.6960  174.5220  143.3430 C   0  0  2  0  0  3  0  0  0  0  0  0
  190.9740  170.2630  141.4760 N   0  0  0  0  0  2  0  0  0  0  0  0
  188.9410  176.3970  145.4930 C   0  0  0  0  0  2  0  0  0  0  0  0
  189.7830  173.8470  141.2320 N   0  0  2  0  0  0  0  0  0  0  0  0
  188.1460  172.9650  138.7970 C   0  0  0  0  0  1  0  0  0  0  0  0
  192.8270  171.7660  144.5120 C   0  0  0  0  0  2  0  0  0  0  0  0
  191.8290  170.3510  142.6760 C   0  0  0  0  0  2  0  0  0  0  0  0
  190.1830  173.9780  139.8230 C   0  0  0  0  0  2  0  0  0  0  0  0
  191.0450  176.9870  144.1250 N   0  0  0  0  0  0  0  0  0  0  0  0
  192.5030  176.9590  144.1380 C   0  0  0  0  0  2  0  0  0  0  0  0
  192.1310  171.7860  143.1470 C   0  0  1  0  0  3  0  0  0  0  0  0
  190.5300  174.8500  141.9880 C   0  0  1  0  0  3  0  0  0  0  0  0
  189.9530  171.4440  139.5720 C   0  0  0  0  0  2  0  0  0  0  0  0
  193.2750  174.0460  144.6930 C   0  0  1  0  0  3  0  0  0  0  0  0
  190.2920  172.9010  137.5950 C   0  0  0  0  0  1  0  0  0  0  0  0
  190.3670  177.2370  142.8560 C   0  0  0  0  0  2  0  0  0  0  0  0
  190.9000  177.3570  146.4240 O   0  0  0  0  0  0  0  0  0  0  0  0
  189.5930  176.0010  142.3870 C   0  0  2  0  0  3  0  0  0  0  0  0
  192.6020  172.9380  145.2680 O   0  0  0  0  0  0  0  0  0  0  0  0
  195.4320  174.0090  145.9650 C   0  0  0  0  0  3  0  0  0  0  0  0
  194.7750  173.9340  144.7320 C   0  0  0  0  0  0  0  0  0  0  0  0
  195.5190  173.7310  143.5610 C   0  0  0  0  0  3  0  0  0  0  0  0
  197.6450  173.4160  142.4640 O   0  0  0  0  0  1  0  0  0  0  0  0
  197.5630  173.6950  144.8590 C   0  0  0  0  0  3  0  0  0  0  0  0
  196.9110  173.6140  143.6250 C   0  0  0  0  0  0  0  0  0  0  0  0
  196.8230  173.8920  146.0290 C   0  0  0  0  0  3  0  0  0  0  0  0
  185.9410  176.4160  143.5520 O   0  0  0  0  0  1  0  0  0  0  0  0
  186.7570  176.3890  144.6830 C   0  0  0  0  0  2  0  0  0  0  0  0
  1  4  1  0  0  0  0
  2 22  1  0  0  0  0
  2 17  1  0  0  0  0
  3 20  1  0  0  0  0
  3  7  1  0  0  0  0
  4 37  1  0  0  0  0
  4 12  1  0  0  0  0
  5 10  1  0  0  0  0
  5 19  1  0  0  0  0
  6 11  1  0  0  0  0
  6  9  1  0  0  0  0
  7 10  1  0  0  0  0
  8 12  1  0  0  0  0
  8 26  2  0  0  0  0
  9  3  1  0  0  0  0
 10 23  1  0  0  0  0
 11 16  1  0  0  0  0
 13  9  1  0  0  0  0
 13 21  1  0  0  0  0
 14  2  1  0  0  0  0
 15 28  1  0  0  0  0
 16 20  1  0  0  0  0
 17 13  1  0  0  0  0
 18 19  1  0  0  0  0
 18  8  1  0  0  0  0
 20 15  1  0  0  0  0
 21 27  1  0  0  0  0
 21  7  1  0  0  0  0
 22  6  1  0  0  0  0
 23 30  1  0  0  0  0
 23 28  1  0  0  0  0
 24  2  1  0  0  0  0
 25 18  1  0  0  0  0
 27 25  1  0  0  0  0
 27  1  1  0  0  0  0
 29 35  1  0  0  0  0
 30 29  2  0  0  0  0
 31 34  2  0  0  0  0
 31 30  1  0  0  0  0
 32 34  1  0  0  0  0
 33 35  2  0  0  0  0
 34 33  1  0  0  0  0
 36 37  1  0  0  0  0
M  END
>  <MODEL>
7

>  <REMARK>
 VINA RESULT:      -7.4      2.391      6.579
  Name = 
  2 active torsions:
  status: ('A' for Active; 'I' for Inactive)
    1  A    between atoms: N_4  and  C_37
    2  A    between atoms: C_23  and  C_30
                            x       y       z     vdW  Elec       q    Type
                         _______ _______ _______ _____ _____    ______ ____

>  <TORSDO>
F 2

$$$$
=
 OpenBabel11112417133D

 37 43  0  0  1  0  0  0  0  0999 V2000
  189.9270  173.6310  140.8550 C   0  0  0  0  0  2  0  0  0  0  0  0
  189.2940  176.0520  145.5300 C   0  0  0  0  0  0  0  0  0  0  0  0
  192.6560  174.8280  143.1020 C   0  0  1  0  0  3  0  0  0  0  0  0
  189.7570  172.7690  139.6890 N   0  0  0  0  0  0  0  0  0  0  0  0
  192.3190  170.9420  143.6980 C   0  0  0  0  0  2  0  0  0  0  0  0
  191.7720  176.2010  145.0430 C   0  0  1  0  0  3  0  0  0  0  0  0
  192.1590  173.3980  142.8810 C   0  0  1  0  0  3  0  0  0  0  0  0
  191.5730  171.1540  140.0900 C   0  0  0  0  0  0  0  0  0  0  0  0
  191.4660  175.5970  143.6660 C   0  0  2  0  0  3  0  0  0  0  0  0
  192.9990  172.3170  143.6050 C   0  0  2  0  0  3  0  0  0  0  0  0
  192.9260  177.0920  144.9400 N   0  0  0  0  0  2  0  0  0  0  0  0
  191.0900  172.3350  139.2930 C   0  0  0  0  0  2  0  0  0  0  0  0
  190.2600  174.7440  143.6380 N   0  0  2  0  0  0  0  0  0  0  0  0
  188.2040  176.7370  144.7290 C   0  0  0  0  0  1  0  0  0  0  0  0
  195.1730  174.3670  143.3800 C   0  0  0  0  0  2  0  0  0  0  0  0
  194.1420  176.3760  144.5070 C   0  0  0  0  0  2  0  0  0  0  0  0
  189.5730  174.6610  144.9350 C   0  0  0  0  0  2  0  0  0  0  0  0
  191.2400  170.9760  141.4780 N   0  0  0  0  0  0  0  0  0  0  0  0
  192.1530  170.2410  142.3470 C   0  0  0  0  0  2  0  0  0  0  0  0
  193.9000  174.9370  144.0120 C   0  0  1  0  0  3  0  0  0  0  0  0
  190.6800  173.3900  143.2830 C   0  0  1  0  0  3  0  0  0  0  0  0
  190.5440  176.9470  145.5420 C   0  0  0  0  0  2  0  0  0  0  0  0
  194.4200  172.1930  143.0130 C   0  0  1  0  0  3  0  0  0  0  0  0
  188.8080  175.8770  146.9530 C   0  0  0  0  0  1  0  0  0  0  0  0
  189.9210  171.3290  141.9970 C   0  0  0  0  0  2  0  0  0  0  0  0
  192.3790  170.3600  139.5380 O   0  0  0  0  0  0  0  0  0  0  0  0
  189.7770  172.8440  142.1650 C   0  0  2  0  0  3  0  0  0  0  0  0
  194.9160  173.3750  142.4080 O   0  0  0  0  0  0  0  0  0  0  0  0
  195.5100  171.8840  145.2470 C   0  0  0  0  0  3  0  0  0  0  0  0
  195.4160  171.5010  143.9050 C   0  0  0  0  0  0  0  0  0  0  0  0
  196.2290  170.4660  143.4200 C   0  0  0  0  0  3  0  0  0  0  0  0
  197.9400  168.8060  143.7880 O   0  0  0  0  0  1  0  0  0  0  0  0
  197.2290  170.2180  145.6110 C   0  0  0  0  0  3  0  0  0  0  0  0
  197.1340  169.8280  144.2720 C   0  0  0  0  0  0  0  0  0  0  0  0
  196.4160  171.2460  146.0990 C   0  0  0  0  0  3  0  0  0  0  0  0
  188.2710  174.4620  139.0990 O   0  0  0  0  0  1  0  0  0  0  0  0
  189.2620  173.6090  138.6130 C   0  0  0  0  0  2  0  0  0  0  0  0
  1 27  1  0  0  0  0
  2 22  1  0  0  0  0
  2 24  1  0  0  0  0
  3  9  1  0  0  0  0
  3 20  1  0  0  0  0
  4  1  1  0  0  0  0
  6 22  1  0  0  0  0
  7  3  1  0  0  0  0
  7 21  1  0  0  0  0
  7 10  1  0  0  0  0
  8 18  1  0  0  0  0
  9  6  1  0  0  0  0
 10  5  1  0  0  0  0
 11  6  1  0  0  0  0
 12  4  1  0  0  0  0
 12  8  1  0  0  0  0
 13  9  1  0  0  0  0
 13 17  1  0  0  0  0
 14  2  1  0  0  0  0
 15 20  1  0  0  0  0
 16 11  1  0  0  0  0
 17  2  1  0  0  0  0
 18 25  1  0  0  0  0
 18 19  1  0  0  0  0
 19  5  1  0  0  0  0
 20 16  1  0  0  0  0
 21 13  1  0  0  0  0
 23 10  1  0  0  0  0
 23 30  1  0  0  0  0
 25 27  1  0  0  0  0
 26  8  2  0  0  0  0
 27 21  1  0  0  0  0
 28 23  1  0  0  0  0
 28 15  1  0  0  0  0
 29 35  1  0  0  0  0
 30 29  2  0  0  0  0
 31 30  1  0  0  0  0
 31 34  2  0  0  0  0
 32 34  1  0  0  0  0
 33 35  2  0  0  0  0
 34 33  1  0  0  0  0
 37 36  1  0  0  0  0
 37  4  1  0  0  0  0
M  END
>  <MODEL>
8

>  <REMARK>
 VINA RESULT:      -7.3      2.637      7.676
  Name = 
  2 active torsions:
  status: ('A' for Active; 'I' for Inactive)
    1  A    between atoms: N_4  and  C_37
    2  A    between atoms: C_23  and  C_30
                            x       y       z     vdW  Elec       q    Type
                         _______ _______ _______ _____ _____    ______ ____

>  <TORSDO>
F 2

$$$$
=
 OpenBabel11112417133D

 37 43  0  0  1  0  0  0  0  0999 V2000
  195.2160  173.8650  142.0270 C   0  0  0  0  0  2  0  0  0  0  0  0
  192.0580  169.7010  141.1330 C   0  0  0  0  0  0  0  0  0  0  0  0
  191.5030  173.9570  141.6540 C   0  0  1  0  0  3  0  0  0  0  0  0
  196.2990  174.7280  142.4860 N   0  0  0  0  0  0  0  0  0  0  0  0
  192.2560  174.0930  145.5240 C   0  0  0  0  0  2  0  0  0  0  0  0
  190.5550  171.7240  140.9130 C   0  0  1  0  0  3  0  0  0  0  0  0
  192.3370  174.0540  142.9320 C   0  0  1  0  0  3  0  0  0  0  0  0
  195.1020  176.0330  144.1990 C   0  0  0  0  0  0  0  0  0  0  0  0
  191.8150  172.5880  141.0590 C   0  0  2  0  0  3  0  0  0  0  0  0
  191.5090  174.3520  144.2060 C   0  0  2  0  0  3  0  0  0  0  0  0
  189.5830  172.4150  140.0680 N   0  0  0  0  0  2  0  0  0  0  0  0
  195.6970  176.0130  142.8170 C   0  0  0  0  0  2  0  0  0  0  0  0
  192.9000  171.9440  141.8270 N   0  0  2  0  0  0  0  0  0  0  0  0
  193.2080  169.3630  140.2040 C   0  0  0  0  0  1  0  0  0  0  0  0
  189.6140  175.6010  142.2500 C   0  0  0  0  0  2  0  0  0  0  0  0
  189.1560  173.7010  140.6520 C   0  0  0  0  0  2  0  0  0  0  0  0
  192.5670  170.5860  142.2830 C   0  0  0  0  0  2  0  0  0  0  0  0
  194.4760  174.8760  144.7830 N   0  0  0  0  0  0  0  0  0  0  0  0
  193.4210  175.0550  145.7740 C   0  0  0  0  0  2  0  0  0  0  0  0
  189.9860  174.1660  141.8630 C   0  0  1  0  0  3  0  0  0  0  0  0
  193.1420  172.7520  143.0200 C   0  0  1  0  0  3  0  0  0  0  0  0
  190.9410  170.3780  140.3200 C   0  0  0  0  0  2  0  0  0  0  0  0
  190.9000  175.7700  144.1850 C   0  0  1  0  0  3  0  0  0  0  0  0
  191.5180  168.4130  141.7190 C   0  0  0  0  0  1  0  0  0  0  0  0
  195.0060  173.5330  144.5670 C   0  0  0  0  0  2  0  0  0  0  0  0
  195.0650  177.1340  144.8090 O   0  0  0  0  0  0  0  0  0  0  0  0
  194.6500  173.0120  143.1720 C   0  0  2  0  0  3  0  0  0  0  0  0
  190.6640  176.2950  142.8900 O   0  0  0  0  0  0  0  0  0  0  0  0
  189.6080  175.1080  146.2270 C   0  0  0  0  0  3  0  0  0  0  0  0
  189.7590  175.9820  145.1450 C   0  0  0  0  0  0  0  0  0  0  0  0
  188.8660  177.0520  144.9870 C   0  0  0  0  0  3  0  0  0  0  0  0
  186.9410  178.2950  145.7400 O   0  0  0  0  0  1  0  0  0  0  0  0
  187.6740  176.3580  146.9770 C   0  0  0  0  0  3  0  0  0  0  0  0
  187.8250  177.2370  145.9010 C   0  0  0  0  0  0  0  0  0  0  0  0
  188.5670  175.2930  147.1400 C   0  0  0  0  0  3  0  0  0  0  0  0
  196.7100  176.0700  140.6280 O   0  0  0  0  0  1  0  0  0  0  0  0
  197.1640  174.9620  141.3440 C   0  0  0  0  0  2  0  0  0  0  0  0
  1  4  1  0  0  0  0
  1 27  1  0  0  0  0
  2 24  1  0  0  0  0
  2 17  1  0  0  0  0
  3 20  1  0  0  0  0
  3  7  1  0  0  0  0
  4 12  1  0  0  0  0
  5 19  1  0  0  0  0
  6  9  1  0  0  0  0
  7 21  1  0  0  0  0
  7 10  1  0  0  0  0
  8 18  1  0  0  0  0
  8 26  2  0  0  0  0
  9  3  1  0  0  0  0
  9 13  1  0  0  0  0
 10  5  1  0  0  0  0
 11 16  1  0  0  0  0
 11  6  1  0  0  0  0
 12  8  1  0  0  0  0
 13 17  1  0  0  0  0
 13 21  1  0  0  0  0
 14  2  1  0  0  0  0
 15 28  1  0  0  0  0
 16 20  1  0  0  0  0
 18 19  1  0  0  0  0
 20 15  1  0  0  0  0
 21 27  1  0  0  0  0
 22  6  1  0  0  0  0
 22  2  1  0  0  0  0
 23 10  1  0  0  0  0
 23 30  1  0  0  0  0
 25 18  1  0  0  0  0
 27 25  1  0  0  0  0
 28 23  1  0  0  0  0
 29 35  1  0  0  0  0
 30 29  2  0  0  0  0
 31 30  1  0  0  0  0
 31 34  2  0  0  0  0
 32 34  1  0  0  0  0
 33 35  2  0  0  0  0
 34 33  1  0  0  0  0
 36 37  1  0  0  0  0
 37  4  1  0  0  0  0
M  END
>  <MODEL>
9

>  <REMARK>
 VINA RESULT:      -7.2      1.495      1.859
  Name = 
  2 active torsions:
  status: ('A' for Active; 'I' for Inactive)
    1  A    between atoms: N_4  and  C_37
    2  A    between atoms: C_23  and  C_30
                            x       y       z     vdW  Elec       q    Type
                         _______ _______ _______ _____ _____    ______ ____

>  <TORSDO>
F 2

$$$$
