=
 OpenBabel11112417163D

 37 45  0  0  1  0  0  0  0  0999 V2000
  191.1950  174.1280  140.7390 C   0  0  1  0  0  3  0  0  0  0  0  0
  194.9800  174.5660  143.3880 C   0  0  0  0  0  0  0  0  0  0  0  0
  191.4800  176.0470  145.1790 C   0  0  2  0  0  3  0  0  0  0  0  0
  190.4510  173.1630  139.8000 C   0  0  2  0  0  3  0  0  0  0  0  0
  187.9440  176.0140  143.3010 C   0  0  0  0  0  2  0  0  0  0  0  0
  193.8400  175.6910  145.3690 C   0  0  1  0  0  3  0  0  0  0  0  0
  190.3450  175.5560  144.3120 C   0  0  1  0  0  3  0  0  0  0  0  0
  188.1830  172.9690  140.9340 C   0  0  0  0  0  0  0  0  0  0  0  0
  192.5460  175.0160  144.9650 C   0  0  2  0  0  3  0  0  0  0  0  0
  189.1120  176.5320  144.2060 C   0  0  2  0  0  3  0  0  0  0  0  0
  193.7840  175.9880  146.8480 C   0  0  0  0  0  3  0  0  0  0  0  0
  189.3520  172.4350  140.3540 O   0  0  0  0  0  0  0  0  0  0  0  0
  192.4450  174.6040  143.5000 C   0  0  2  0  0  3  0  0  0  0  0  0
  195.1330  173.0780  143.1670 C   0  0  0  0  0  1  0  0  0  0  0  0
  190.6080  177.6130  146.8490 C   0  0  0  0  0  3  0  0  0  0  0  0
  192.5990  176.2930  147.4340 C   0  0  0  0  0  3  0  0  0  0  0  0
  193.6810  175.0390  142.7050 C   0  0  0  0  0  2  0  0  0  0  0  0
  187.9850  174.4400  141.2290 C   0  0  1  0  0  3  0  0  0  0  0  0
  188.2800  174.7130  142.6350 C   0  0  1  0  0  3  0  0  0  0  0  0
  191.2640  176.2810  146.6800 C   0  0  2  0  0  3  0  0  0  0  0  0
  191.1480  175.2530  143.0060 C   0  0  1  0  0  3  0  0  0  0  0  0
  195.0250  174.8550  144.9110 C   0  0  0  0  0  2  0  0  0  0  0  0
  188.5600  176.8810  145.6210 C   0  0  1  0  0  3  0  0  0  0  0  0
  196.1450  175.2630  142.7330 C   0  0  0  0  0  1  0  0  0  0  0  0
  189.2320  175.1290  141.6100 N   0  0  1  0  0  0  0  0  0  0  0  0
  187.2480  172.1770  141.2270 O   0  0  0  0  0  0  0  0  0  0  0  0
  190.3950  174.3670  142.0020 C   0  0  1  0  0  3  0  0  0  0  0  0
  189.3970  177.8840  146.3590 C   0  0  0  0  0  3  0  0  0  0  0  0
  192.7720  172.6910  139.7360 F   0  0  0  0  0  0  0  0  0  0  0  0
  191.6730  172.7030  140.5760 C   0  0  1  0  0  3  0  0  0  0  0  0
  186.2190  176.6610  146.4790 C   0  0  0  0  0  3  0  0  0  0  0  0
  187.1260  177.3370  145.6540 C   0  0  0  0  0  0  0  0  0  0  0  0
  186.6880  178.4310  144.8890 C   0  0  0  0  0  3  0  0  0  0  0  0
  184.8990  179.9270  144.1520 N   0  0  0  0  0  1  0  0  0  0  0  0
  184.4490  178.1610  145.7790 C   0  0  0  0  0  3  0  0  0  0  0  0
  185.3500  178.8360  144.9470 C   0  0  0  0  0  0  0  0  0  0  0  0
  184.8820  177.0730  146.5400 C   0  0  0  0  0  3  0  0  0  0  0  0
  1 27  1  0  0  0  0
  2 22  1  0  0  0  0
  3 20  1  0  0  0  0
  4 12  1  0  0  0  0
  4 30  1  0  0  0  0
  4  1  1  0  0  0  0
  5 10  1  0  0  0  0
  6 11  1  0  0  0  0
  7  3  1  0  0  0  0
  8 26  2  0  0  0  0
  8 18  1  0  0  0  0
  9  3  1  0  0  0  0
  9  6  1  0  0  0  0
 10  7  1  0  0  0  0
 10 23  1  0  0  0  0
 11 16  2  0  0  0  0
 12  8  1  0  0  0  0
 13  9  1  0  0  0  0
 14  2  1  0  0  0  0
 17  2  1  0  0  0  0
 17 13  1  0  0  0  0
 18 25  1  0  0  0  0
 18 19  1  0  0  0  0
 19  5  1  0  0  0  0
 20 15  1  0  0  0  0
 20 16  1  0  0  0  0
 21 13  1  0  0  0  0
 21  7  1  0  0  0  0
 22  6  1  0  0  0  0
 23 32  1  0  0  0  0
 23 28  1  0  0  0  0
 24  2  1  0  0  0  0
 25 27  1  0  0  0  0
 25 19  1  0  0  0  0
 27 21  1  0  0  0  0
 28 15  2  0  0  0  0
 29 30  1  0  0  0  0
 30  1  1  0  0  0  0
 31 37  1  0  0  0  0
 32 31  2  0  0  0  0
 33 36  2  0  0  0  0
 33 32  1  0  0  0  0
 34 36  1  0  0  0  0
 35 37  2  0  0  0  0
 36 35  1  0  0  0  0
M  END
>  <MODEL>
1

>  <REMARK>
 VINA RESULT:      -9.1      0.000      0.000
  Name = 
  1 active torsions:
  status: ('A' for Active; 'I' for Inactive)
    1  A    between atoms: C_23  and  C_30
                            x       y       z     vdW  Elec       q    Type
                         _______ _______ _______ _____ _____    ______ ____

>  <TORSDO>
F 1

$$$$
=
 OpenBabel11112417163D

 37 45  0  0  1  0  0  0  0  0999 V2000
  189.5940  175.4500  145.4840 C   0  0  1  0  0  3  0  0  0  0  0  0
  186.2630  178.2520  147.0920 C   0  0  0  0  0  0  0  0  0  0  0  0
  185.9970  177.4990  142.9680 C   0  0  2  0  0  3  0  0  0  0  0  0
  190.3790  174.1620  145.7910 C   0  0  2  0  0  3  0  0  0  0  0  0
  188.6700  175.2290  141.0370 C   0  0  0  0  0  2  0  0  0  0  0  0
  185.0800  178.6300  144.8690 C   0  0  1  0  0  3  0  0  0  0  0  0
  186.9580  176.3650  142.7030 C   0  0  1  0  0  3  0  0  0  0  0  0
  189.8960  172.7480  143.7340 C   0  0  0  0  0  0  0  0  0  0  0  0
  185.6060  177.2900  144.3990 C   0  0  2  0  0  3  0  0  0  0  0  0
  187.6720  176.4070  141.2980 C   0  0  2  0  0  3  0  0  0  0  0  0
  183.8230  178.9490  144.0960 C   0  0  0  0  0  3  0  0  0  0  0  0
  189.9560  172.9700  145.1250 O   0  0  0  0  0  0  0  0  0  0  0  0
  186.8590  176.7870  145.1080 C   0  0  2  0  0  3  0  0  0  0  0  0
  185.9940  177.1340  148.0750 C   0  0  0  0  0  1  0  0  0  0  0  0
  185.1540  178.3650  140.8370 C   0  0  0  0  0  3  0  0  0  0  0  0
  183.6950  178.5360  142.8100 C   0  0  0  0  0  3  0  0  0  0  0  0
  187.3800  177.8070  146.1260 C   0  0  0  0  0  2  0  0  0  0  0  0
  190.1050  173.8320  142.6980 C   0  0  1  0  0  3  0  0  0  0  0  0
  188.8130  174.3350  142.2310 C   0  0  1  0  0  3  0  0  0  0  0  0
  184.7460  177.6750  142.0980 C   0  0  2  0  0  3  0  0  0  0  0  0
  187.8510  176.4980  143.9770 C   0  0  1  0  0  3  0  0  0  0  0  0
  184.9360  178.6280  146.3830 C   0  0  0  0  0  2  0  0  0  0  0  0
  186.6240  176.4680  140.1460 C   0  0  1  0  0  3  0  0  0  0  0  0
  186.7500  179.4510  147.8640 C   0  0  0  0  0  1  0  0  0  0  0  0
  189.6160  175.1540  143.1340 N   0  0  1  0  0  0  0  0  0  0  0  0
  189.6510  171.5810  143.3260 O   0  0  0  0  0  0  0  0  0  0  0  0
  188.7200  175.2640  144.2610 C   0  0  1  0  0  3  0  0  0  0  0  0
  186.0100  177.8260  139.9680 C   0  0  0  0  0  3  0  0  0  0  0  0
  189.6720  175.1570  147.8220 F   0  0  0  0  0  0  0  0  0  0  0  0
  189.2010  174.5790  146.6570 C   0  0  1  0  0  3  0  0  0  0  0  0
  186.8220  176.7420  137.6670 C   0  0  0  0  0  3  0  0  0  0  0  0
  187.1140  175.9850  138.8080 C   0  0  0  0  0  0  0  0  0  0  0  0
  187.8680  174.8050  138.6860 C   0  0  0  0  0  3  0  0  0  0  0  0
  189.0550  173.1780  137.3000 N   0  0  0  0  0  1  0  0  0  0  0  0
  188.0270  175.1510  136.2920 C   0  0  0  0  0  3  0  0  0  0  0  0
  188.3160  174.3870  137.4280 C   0  0  0  0  0  0  0  0  0  0  0  0
  187.2780  176.3250  136.4100 C   0  0  0  0  0  3  0  0  0  0  0  0
  1  4  1  0  0  0  0
  1 30  1  0  0  0  0
  2 24  1  0  0  0  0
  2 14  1  0  0  0  0
  3  9  1  0  0  0  0
  4 30  1  0  0  0  0
  5 10  1  0  0  0  0
  5 19  1  0  0  0  0
  6 22  1  0  0  0  0
  7  3  1  0  0  0  0
  7 21  1  0  0  0  0
  8 12  1  0  0  0  0
  9  6  1  0  0  0  0
  9 13  1  0  0  0  0
 10  7  1  0  0  0  0
 11  6  1  0  0  0  0
 12  4  1  0  0  0  0
 13 17  1  0  0  0  0
 15 20  1  0  0  0  0
 16 11  2  0  0  0  0
 17  2  1  0  0  0  0
 18 25  1  0  0  0  0
 18  8  1  0  0  0  0
 19 18  1  0  0  0  0
 19 25  1  0  0  0  0
 20 16  1  0  0  0  0
 20  3  1  0  0  0  0
 21 27  1  0  0  0  0
 21 13  1  0  0  0  0
 22  2  1  0  0  0  0
 23 10  1  0  0  0  0
 25 27  1  0  0  0  0
 26  8  2  0  0  0  0
 27  1  1  0  0  0  0
 28 23  1  0  0  0  0
 28 15  2  0  0  0  0
 30 29  1  0  0  0  0
 31 32  1  0  0  0  0
 32 23  1  0  0  0  0
 33 32  2  0  0  0  0
 34 36  1  0  0  0  0
 35 37  1  0  0  0  0
 35 36  2  0  0  0  0
 36 33  1  0  0  0  0
 37 31  2  0  0  0  0
M  END
>  <MODEL>
2

>  <REMARK>
 VINA RESULT:      -9.1      3.287      7.509
  Name = 
  1 active torsions:
  status: ('A' for Active; 'I' for Inactive)
    1  A    between atoms: C_23  and  C_30
                            x       y       z     vdW  Elec       q    Type
                         _______ _______ _______ _____ _____    ______ ____

>  <TORSDO>
F 1

$$$$
=
 OpenBabel11112417163D

 37 45  0  0  1  0  0  0  0  0999 V2000
  191.6690  173.7710  140.8090 C   0  0  1  0  0  3  0  0  0  0  0  0
  194.1960  173.7540  144.7000 C   0  0  0  0  0  0  0  0  0  0  0  0
  190.4580  175.6240  145.1190 C   0  0  2  0  0  3  0  0  0  0  0  0
  191.2360  172.9040  139.6140 C   0  0  2  0  0  3  0  0  0  0  0  0
  187.9120  176.0120  142.0540 C   0  0  0  0  0  2  0  0  0  0  0  0
  192.5200  174.9960  146.1610 C   0  0  1  0  0  3  0  0  0  0  0  0
  189.6900  175.2730  143.8670 C   0  0  1  0  0  3  0  0  0  0  0  0
  188.7020  172.9700  139.8050 C   0  0  0  0  0  0  0  0  0  0  0  0
  191.4100  174.4780  145.2700 C   0  0  2  0  0  3  0  0  0  0  0  0
  188.6990  176.3870  143.3540 C   0  0  2  0  0  3  0  0  0  0  0  0
  191.9410  175.2900  147.5240 C   0  0  0  0  0  3  0  0  0  0  0  0
  189.9390  172.3060  139.6810 O   0  0  0  0  0  0  0  0  0  0  0  0
  191.8260  174.0870  143.8570 C   0  0  2  0  0  3  0  0  0  0  0  0
  194.2630  172.2590  144.4810 C   0  0  0  0  0  1  0  0  0  0  0  0
  189.1920  177.2740  146.4140 C   0  0  0  0  0  3  0  0  0  0  0  0
  190.6630  175.7290  147.6380 C   0  0  0  0  0  3  0  0  0  0  0  0
  193.3100  174.3780  143.6040 C   0  0  0  0  0  2  0  0  0  0  0  0
  188.5640  174.4530  140.0750 C   0  0  1  0  0  3  0  0  0  0  0  0
  188.3340  174.6840  141.5010 C   0  0  1  0  0  3  0  0  0  0  0  0
  189.7180  175.8760  146.4390 C   0  0  2  0  0  3  0  0  0  0  0  0
  190.8890  174.8840  142.9440 C   0  0  1  0  0  3  0  0  0  0  0  0
  193.6940  174.0290  146.1420 C   0  0  0  0  0  2  0  0  0  0  0  0
  187.6930  176.7910  144.4740 C   0  0  1  0  0  3  0  0  0  0  0  0
  195.5890  174.3130  144.5640 C   0  0  0  0  0  1  0  0  0  0  0  0
  189.6410  174.9910  140.9280 N   0  0  1  0  0  0  0  0  0  0  0  0
  187.6460  172.2910  139.6890 O   0  0  0  0  0  0  0  0  0  0  0  0
  190.4810  174.0960  141.6900 C   0  0  1  0  0  3  0  0  0  0  0  0
  188.2920  177.6870  145.5200 C   0  0  0  0  0  3  0  0  0  0  0  0
  193.3450  172.1650  140.4020 F   0  0  0  0  0  0  0  0  0  0  0  0
  192.0190  172.3010  140.7690 C   0  0  1  0  0  3  0  0  0  0  0  0
  185.4740  177.8520  144.9330 C   0  0  0  0  0  3  0  0  0  0  0  0
  186.4110  177.4110  143.9900 C   0  0  0  0  0  0  0  0  0  0  0  0
  186.1460  177.5680  142.6190 C   0  0  0  0  0  3  0  0  0  0  0  0
  184.6640  178.2910  140.8120 N   0  0  0  0  0  1  0  0  0  0  0  0
  184.0170  178.6010  143.1470 C   0  0  0  0  0  3  0  0  0  0  0  0
  184.9460  178.1560  142.2010 C   0  0  0  0  0  0  0  0  0  0  0  0
  184.2780  178.4460  144.5110 C   0  0  0  0  0  3  0  0  0  0  0  0
  1 27  1  0  0  0  0
  2 22  1  0  0  0  0
  3  9  1  0  0  0  0
  3 20  1  0  0  0  0
  4 12  1  0  0  0  0
  4 30  1  0  0  0  0
  4  1  1  0  0  0  0
  5 10  1  0  0  0  0
  6 11  1  0  0  0  0
  7  3  1  0  0  0  0
  8 18  1  0  0  0  0
  9  6  1  0  0  0  0
 10  7  1  0  0  0  0
 10 23  1  0  0  0  0
 11 16  2  0  0  0  0
 12  8  1  0  0  0  0
 13  9  1  0  0  0  0
 14  2  1  0  0  0  0
 15 20  1  0  0  0  0
 17 13  1  0  0  0  0
 17  2  1  0  0  0  0
 18 25  1  0  0  0  0
 18 19  1  0  0  0  0
 19  5  1  0  0  0  0
 20 16  1  0  0  0  0
 21 13  1  0  0  0  0
 21  7  1  0  0  0  0
 22  6  1  0  0  0  0
 23 28  1  0  0  0  0
 24  2  1  0  0  0  0
 25 19  1  0  0  0  0
 25 27  1  0  0  0  0
 26  8  2  0  0  0  0
 27 21  1  0  0  0  0
 28 15  2  0  0  0  0
 29 30  1  0  0  0  0
 30  1  1  0  0  0  0
 32 23  1  0  0  0  0
 32 31  2  0  0  0  0
 33 32  1  0  0  0  0
 34 36  1  0  0  0  0
 35 37  2  0  0  0  0
 36 33  2  0  0  0  0
 36 35  1  0  0  0  0
 37 31  1  0  0  0  0
M  END
>  <MODEL>
3

>  <REMARK>
 VINA RESULT:      -8.6      1.417      1.677
  Name = 
  1 active torsions:
  status: ('A' for Active; 'I' for Inactive)
    1  A    between atoms: C_23  and  C_30
                            x       y       z     vdW  Elec       q    Type
                         _______ _______ _______ _____ _____    ______ ____

>  <TORSDO>
F 1

$$$$
=
 OpenBabel11112417163D

 37 45  0  0  1  0  0  0  0  0999 V2000
  189.3640  172.9680  140.4030 C   0  0  1  0  0  3  0  0  0  0  0  0
  187.3890  176.6010  142.5090 C   0  0  0  0  0  0  0  0  0  0  0  0
  190.9440  175.3130  144.3370 C   0  0  2  0  0  3  0  0  0  0  0  0
  189.7180  172.3820  139.0250 C   0  0  2  0  0  3  0  0  0  0  0  0
  193.0110  172.1560  142.9960 C   0  0  0  0  0  2  0  0  0  0  0  0
  189.1120  176.8530  144.3670 C   0  0  1  0  0  3  0  0  0  0  0  0
  191.5710  174.3450  143.3620 C   0  0  1  0  0  3  0  0  0  0  0  0
  192.2370  172.0850  139.2110 C   0  0  0  0  0  0  0  0  0  0  0  0
  190.1400  176.2170  143.4550 C   0  0  2  0  0  3  0  0  0  0  0  0
  192.3700  173.1550  144.0180 C   0  0  2  0  0  3  0  0  0  0  0  0
  189.8340  177.7210  145.3700 C   0  0  0  0  0  3  0  0  0  0  0  0
  191.0660  172.5480  138.5760 O   0  0  0  0  0  0  0  0  0  0  0  0
  189.5810  175.3330  142.3450 C   0  0  2  0  0  3  0  0  0  0  0  0
  187.4430  177.2420  141.1400 C   0  0  0  0  0  1  0  0  0  0  0  0
  192.2010  175.2740  146.4400 C   0  0  0  0  0  3  0  0  0  0  0  0
  191.0660  177.3640  145.8110 C   0  0  0  0  0  3  0  0  0  0  0  0
  188.0550  175.2120  142.4340 C   0  0  0  0  0  2  0  0  0  0  0  0
  192.2600  171.4800  140.5990 C   0  0  1  0  0  3  0  0  0  0  0  0
  192.6540  172.4910  141.5800 C   0  0  1  0  0  3  0  0  0  0  0  0
  191.8240  176.1410  145.2820 C   0  0  2  0  0  3  0  0  0  0  0  0
  190.3050  173.9940  142.5160 C   0  0  1  0  0  3  0  0  0  0  0  0
  188.0480  177.5560  143.5380 C   0  0  0  0  0  2  0  0  0  0  0  0
  193.4690  173.6920  144.9830 C   0  0  1  0  0  3  0  0  0  0  0  0
  185.9410  176.4160  142.8860 C   0  0  0  0  0  1  0  0  0  0  0  0
  191.2580  172.0690  141.5060 N   0  0  1  0  0  0  0  0  0  0  0  0
  193.3300  172.1830  138.5910 O   0  0  0  0  0  0  0  0  0  0  0  0
  190.6200  173.3210  141.1720 C   0  0  1  0  0  3  0  0  0  0  0  0
  192.9290  174.1660  146.3010 C   0  0  0  0  0  3  0  0  0  0  0  0
  187.8160  173.7810  138.8210 F   0  0  0  0  0  0  0  0  0  0  0  0
  189.1600  173.7910  139.1510 C   0  0  1  0  0  3  0  0  0  0  0  0
  195.9160  173.1680  144.9820 C   0  0  0  0  0  3  0  0  0  0  0  0
  194.6080  172.7440  145.2460 C   0  0  0  0  0  0  0  0  0  0  0  0
  194.3850  171.4560  145.7630 C   0  0  0  0  0  3  0  0  0  0  0  0
  195.2390  169.2870  146.5010 N   0  0  0  0  0  1  0  0  0  0  0  0
  196.7720  171.0330  145.7450 C   0  0  0  0  0  3  0  0  0  0  0  0
  195.4660  170.6010  146.0040 C   0  0  0  0  0  0  0  0  0  0  0  0
  196.9960  172.3120  145.2310 C   0  0  0  0  0  3  0  0  0  0  0  0
  1 27  1  0  0  0  0
  2 24  1  0  0  0  0
  2 22  1  0  0  0  0
  3 20  1  0  0  0  0
  4 30  1  0  0  0  0
  4  1  1  0  0  0  0
  5 10  1  0  0  0  0
  6 11  1  0  0  0  0
  7 10  1  0  0  0  0
  7  3  1  0  0  0  0
  8 18  1  0  0  0  0
  9  3  1  0  0  0  0
  9  6  1  0  0  0  0
 10 23  1  0  0  0  0
 11 16  2  0  0  0  0
 12  4  1  0  0  0  0
 12  8  1  0  0  0  0
 13 17  1  0  0  0  0
 13 21  1  0  0  0  0
 13  9  1  0  0  0  0
 14  2  1  0  0  0  0
 17  2  1  0  0  0  0
 18 25  1  0  0  0  0
 18 19  1  0  0  0  0
 19  5  1  0  0  0  0
 20 16  1  0  0  0  0
 20 15  1  0  0  0  0
 21  7  1  0  0  0  0
 22  6  1  0  0  0  0
 23 32  1  0  0  0  0
 23 28  1  0  0  0  0
 25 19  1  0  0  0  0
 26  8  2  0  0  0  0
 27 25  1  0  0  0  0
 27 21  1  0  0  0  0
 28 15  2  0  0  0  0
 29 30  1  0  0  0  0
 30  1  1  0  0  0  0
 31 37  2  0  0  0  0
 31 32  1  0  0  0  0
 32 33  2  0  0  0  0
 33 36  1  0  0  0  0
 35 36  2  0  0  0  0
 36 34  1  0  0  0  0
 37 35  1  0  0  0  0
M  END
>  <MODEL>
4

>  <REMARK>
 VINA RESULT:      -8.5      2.834      6.970
  Name = 
  1 active torsions:
  status: ('A' for Active; 'I' for Inactive)
    1  A    between atoms: C_23  and  C_30
                            x       y       z     vdW  Elec       q    Type
                         _______ _______ _______ _____ _____    ______ ____

>  <TORSDO>
F 1

$$$$
=
 OpenBabel11112417163D

 37 45  0  0  1  0  0  0  0  0999 V2000
  191.0460  174.9590  142.3870 C   0  0  1  0  0  3  0  0  0  0  0  0
  191.9440  176.3600  146.7180 C   0  0  0  0  0  0  0  0  0  0  0  0
  188.1400  177.4780  145.3320 C   0  0  2  0  0  3  0  0  0  0  0  0
  191.1810  173.7680  141.4210 C   0  0  2  0  0  3  0  0  0  0  0  0
  186.8800  176.6170  141.6310 C   0  0  0  0  0  2  0  0  0  0  0  0
  189.7250  177.5410  147.1260 C   0  0  1  0  0  3  0  0  0  0  0  0
  187.9300  176.6970  144.0570 C   0  0  1  0  0  3  0  0  0  0  0  0
  188.7640  173.3620  140.7460 C   0  0  0  0  0  0  0  0  0  0  0  0
  189.0850  176.6160  146.1120 C   0  0  2  0  0  3  0  0  0  0  0  0
  187.0860  177.4360  142.9490 C   0  0  2  0  0  3  0  0  0  0  0  0
  188.6560  178.0210  148.0780 C   0  0  0  0  0  3  0  0  0  0  0  0
  190.0230  172.9520  141.2310 O   0  0  0  0  0  0  0  0  0  0  0  0
  190.0330  176.0000  145.0890 C   0  0  2  0  0  3  0  0  0  0  0  0
  192.2460  174.9010  146.9760 C   0  0  0  0  0  1  0  0  0  0  0  0
  186.3160  179.0920  145.6060 C   0  0  0  0  0  3  0  0  0  0  0  0
  187.3870  178.2050  147.6350 C   0  0  0  0  0  3  0  0  0  0  0  0
  191.4650  176.5190  145.2610 C   0  0  0  0  0  2  0  0  0  0  0  0
  188.3790  174.8070  140.5150 C   0  0  1  0  0  3  0  0  0  0  0  0
  187.6150  175.3120  141.6550 C   0  0  1  0  0  3  0  0  0  0  0  0
  186.9420  177.8740  146.2050 C   0  0  2  0  0  3  0  0  0  0  0  0
  189.4190  176.3560  143.7310 C   0  0  1  0  0  3  0  0  0  0  0  0
  190.9180  176.8550  147.7710 C   0  0  0  0  0  2  0  0  0  0  0  0
  185.7010  177.8770  143.5120 C   0  0  1  0  0  3  0  0  0  0  0  0
  193.2210  177.1430  146.8880 C   0  0  0  0  0  1  0  0  0  0  0  0
  189.0010  175.7350  141.4790 N   0  0  1  0  0  0  0  0  0  0  0  0
  187.9050  172.4740  140.4940 O   0  0  0  0  0  0  0  0  0  0  0  0
  189.5900  175.2320  142.6980 C   0  0  1  0  0  3  0  0  0  0  0  0
  185.7720  179.0940  144.3880 C   0  0  0  0  0  3  0  0  0  0  0  0
  192.9160  173.6760  143.0330 F   0  0  0  0  0  0  0  0  0  0  0  0
  191.5410  173.6220  142.8910 C   0  0  1  0  0  3  0  0  0  0  0  0
  184.9860  178.0830  141.1230 C   0  0  0  0  0  3  0  0  0  0  0  0
  184.6300  178.0940  142.4770 C   0  0  0  0  0  0  0  0  0  0  0  0
  183.2880  178.2910  142.8430 C   0  0  0  0  0  3  0  0  0  0  0  0
  180.9590  178.7110  142.2260 N   0  0  0  0  0  1  0  0  0  0  0  0
  182.6730  178.4640  140.5040 C   0  0  0  0  0  3  0  0  0  0  0  0
  182.3140  178.4830  141.8560 C   0  0  0  0  0  0  0  0  0  0  0  0
  184.0070  178.2680  140.1380 C   0  0  0  0  0  3  0  0  0  0  0  0
  1 27  1  0  0  0  0
  1 30  1  0  0  0  0
  2 24  1  0  0  0  0
  2 14  1  0  0  0  0
  2 22  1  0  0  0  0
  3  9  1  0  0  0  0
  3 20  1  0  0  0  0
  4  1  1  0  0  0  0
  4 30  1  0  0  0  0
  5 19  1  0  0  0  0
  5 10  1  0  0  0  0
  6 22  1  0  0  0  0
  6 11  1  0  0  0  0
  7  3  1  0  0  0  0
  8 12  1  0  0  0  0
  9  6  1  0  0  0  0
 10 23  1  0  0  0  0
 10  7  1  0  0  0  0
 12  4  1  0  0  0  0
 13 17  1  0  0  0  0
 13  9  1  0  0  0  0
 15 20  1  0  0  0  0
 16 11  2  0  0  0  0
 17  2  1  0  0  0  0
 18  8  1  0  0  0  0
 18 25  1  0  0  0  0
 18 19  1  0  0  0  0
 20 16  1  0  0  0  0
 21  7  1  0  0  0  0
 21 13  1  0  0  0  0
 23 28  1  0  0  0  0
 25 19  1  0  0  0  0
 25 27  1  0  0  0  0
 26  8  2  0  0  0  0
 27 21  1  0  0  0  0
 28 15  2  0  0  0  0
 30 29  1  0  0  0  0
 31 32  1  0  0  0  0
 32 33  2  0  0  0  0
 32 23  1  0  0  0  0
 35 36  2  0  0  0  0
 36 34  1  0  0  0  0
 36 33  1  0  0  0  0
 37 35  1  0  0  0  0
 37 31  2  0  0  0  0
M  END
>  <MODEL>
5

>  <REMARK>
 VINA RESULT:      -8.4      2.186      3.882
  Name = 
  1 active torsions:
  status: ('A' for Active; 'I' for Inactive)
    1  A    between atoms: C_23  and  C_30
                            x       y       z     vdW  Elec       q    Type
                         _______ _______ _______ _____ _____    ______ ____

>  <TORSDO>
F 1

$$$$
=
 OpenBabel11112417163D

 37 45  0  0  1  0  0  0  0  0999 V2000
  193.0540  173.4160  145.1550 C   0  0  1  0  0  3  0  0  0  0  0  0
  192.2770  171.6290  140.9430 C   0  0  0  0  0  0  0  0  0  0  0  0
  189.3860  174.4250  142.1560 C   0  0  2  0  0  3  0  0  0  0  0  0
  194.1540  173.9720  146.0760 C   0  0  2  0  0  3  0  0  0  0  0  0
  189.5100  176.2040  145.7400 C   0  0  0  0  0  2  0  0  0  0  0  0
  190.1270  172.9060  140.4600 C   0  0  1  0  0  3  0  0  0  0  0  0
  189.9600  175.0910  143.3830 C   0  0  1  0  0  3  0  0  0  0  0  0
  193.2770  176.3020  146.5940 C   0  0  0  0  0  0  0  0  0  0  0  0
  190.6040  173.9970  141.3960 C   0  0  2  0  0  3  0  0  0  0  0  0
  188.9010  175.5180  144.4710 C   0  0  2  0  0  3  0  0  0  0  0  0
  189.1630  173.5140  139.4690 C   0  0  0  0  0  3  0  0  0  0  0  0
  194.2670  175.3950  146.1650 O   0  0  0  0  0  0  0  0  0  0  0  0
  191.6240  173.5680  142.4450 C   0  0  2  0  0  3  0  0  0  0  0  0
  193.6840  172.0930  140.6430 C   0  0  0  0  0  1  0  0  0  0  0  0
  187.0660  175.1520  141.8460 C   0  0  0  0  0  3  0  0  0  0  0  0
  188.3610  174.5410  139.8460 C   0  0  0  0  0  3  0  0  0  0  0  0
  191.9060  172.0620  142.3760 C   0  0  0  0  0  2  0  0  0  0  0  0
  191.8390  175.9140  146.8630 C   0  0  1  0  0  3  0  0  0  0  0  0
  191.0080  176.2340  145.7030 C   0  0  1  0  0  3  0  0  0  0  0  0
  188.4290  175.1910  141.2330 C   0  0  2  0  0  3  0  0  0  0  0  0
  191.0140  174.0090  143.7790 C   0  0  1  0  0  3  0  0  0  0  0  0
  191.3210  172.1850  139.8550 C   0  0  0  0  0  2  0  0  0  0  0  0
  187.8120  176.4440  143.8490 C   0  0  1  0  0  3  0  0  0  0  0  0
  192.2530  170.1230  140.8790 C   0  0  0  0  0  1  0  0  0  0  0  0
  191.3500  174.8420  145.9760 N   0  0  1  0  0  0  0  0  0  0  0  0
  193.6040  177.5080  146.7600 O   0  0  0  0  0  0  0  0  0  0  0  0
  192.0750  174.5060  144.7730 C   0  0  1  0  0  3  0  0  0  0  0  0
  186.7950  175.7040  143.0300 C   0  0  0  0  0  3  0  0  0  0  0  0
  195.1060  172.4160  144.5630 F   0  0  0  0  0  0  0  0  0  0  0  0
  194.4540  173.6340  144.6240 C   0  0  1  0  0  3  0  0  0  0  0  0
  186.6320  178.5800  144.4030 C   0  0  0  0  0  3  0  0  0  0  0  0
  187.0870  177.3260  144.8290 C   0  0  0  0  0  0  0  0  0  0  0  0
  186.8460  176.9100  146.1490 C   0  0  0  0  0  3  0  0  0  0  0  0
  185.9410  177.3430  148.3800 N   0  0  0  0  0  1  0  0  0  0  0  0
  185.7030  179.0000  146.6020 C   0  0  0  0  0  3  0  0  0  0  0  0
  186.1610  177.7510  147.0350 C   0  0  0  0  0  0  0  0  0  0  0  0
  185.9410  179.4160  145.2890 C   0  0  0  0  0  3  0  0  0  0  0  0
  1  4  1  0  0  0  0
  2 17  1  0  0  0  0
  3  7  1  0  0  0  0
  4 12  1  0  0  0  0
  6  9  1  0  0  0  0
  7 21  1  0  0  0  0
  7 10  1  0  0  0  0
  8 26  2  0  0  0  0
  8 18  1  0  0  0  0
  9  3  1  0  0  0  0
  9 13  1  0  0  0  0
 10  5  1  0  0  0  0
 11 16  2  0  0  0  0
 11  6  1  0  0  0  0
 12  8  1  0  0  0  0
 13 21  1  0  0  0  0
 14  2  1  0  0  0  0
 15 28  2  0  0  0  0
 16 20  1  0  0  0  0
 17 13  1  0  0  0  0
 19  5  1  0  0  0  0
 19 25  1  0  0  0  0
 19 18  1  0  0  0  0
 20 15  1  0  0  0  0
 20  3  1  0  0  0  0
 21 27  1  0  0  0  0
 22  6  1  0  0  0  0
 22  2  1  0  0  0  0
 23 10  1  0  0  0  0
 23 32  1  0  0  0  0
 24  2  1  0  0  0  0
 25 18  1  0  0  0  0
 27  1  1  0  0  0  0
 27 25  1  0  0  0  0
 28 23  1  0  0  0  0
 29 30  1  0  0  0  0
 30  1  1  0  0  0  0
 30  4  1  0  0  0  0
 31 32  2  0  0  0  0
 31 37  1  0  0  0  0
 32 33  1  0  0  0  0
 33 36  2  0  0  0  0
 35 36  1  0  0  0  0
 36 34  1  0  0  0  0
 37 35  2  0  0  0  0
M  END
>  <MODEL>
6

>  <REMARK>
 VINA RESULT:      -8.3      2.785      5.260
  Name = 
  1 active torsions:
  status: ('A' for Active; 'I' for Inactive)
    1  A    between atoms: C_23  and  C_30
                            x       y       z     vdW  Elec       q    Type
                         _______ _______ _______ _____ _____    ______ ____

>  <TORSDO>
F 1

$$$$
=
 OpenBabel11112417163D

 37 45  0  0  1  0  0  0  0  0999 V2000
  189.0200  173.5560  142.3350 C   0  0  1  0  0  3  0  0  0  0  0  0
  189.0960  176.1970  146.1490 C   0  0  0  0  0  0  0  0  0  0  0  0
  192.8940  174.8960  144.9150 C   0  0  2  0  0  3  0  0  0  0  0  0
  188.3870  173.4210  140.9390 C   0  0  2  0  0  3  0  0  0  0  0  0
  193.4060  172.5090  141.7420 C   0  0  0  0  0  2  0  0  0  0  0  0
  191.6150  176.1340  146.5160 C   0  0  1  0  0  3  0  0  0  0  0  0
  192.6940  174.3200  143.5340 C   0  0  1  0  0  3  0  0  0  0  0  0
  190.4360  173.3930  139.4330 C   0  0  0  0  0  0  0  0  0  0  0  0
  191.7920  175.9040  145.0300 C   0  0  2  0  0  3  0  0  0  0  0  0
  193.6270  173.1010  143.1750 C   0  0  2  0  0  3  0  0  0  0  0  0
  192.8730  176.7720  147.0560 C   0  0  0  0  0  3  0  0  0  0  0  0
  189.1680  173.8670  139.8270 O   0  0  0  0  0  0  0  0  0  0  0  0
  190.5940  175.3010  144.3070 C   0  0  2  0  0  3  0  0  0  0  0  0
  188.3360  177.1940  145.3020 C   0  0  0  0  0  1  0  0  0  0  0  0
  195.1800  174.4320  145.6650 C   0  0  0  0  0  3  0  0  0  0  0  0
  194.0770  176.4600  146.5140 C   0  0  0  0  0  3  0  0  0  0  0  0
  189.4540  174.9750  145.2790 C   0  0  0  0  0  2  0  0  0  0  0  0
  191.2710  172.4360  140.2570 C   0  0  1  0  0  3  0  0  0  0  0  0
  192.2710  173.1760  141.0240 C   0  0  1  0  0  3  0  0  0  0  0  0
  194.2360  175.5320  145.3030 C   0  0  2  0  0  3  0  0  0  0  0  0
  191.1540  174.0650  143.5960 C   0  0  1  0  0  3  0  0  0  0  0  0
  190.3290  176.9040  146.7710 C   0  0  0  0  0  2  0  0  0  0  0  0
  195.1270  173.4800  143.3570 C   0  0  1  0  0  3  0  0  0  0  0  0
  188.1920  175.7410  147.2650 C   0  0  0  0  0  1  0  0  0  0  0  0
  191.1070  172.6250  141.7100 N   0  0  1  0  0  0  0  0  0  0  0  0
  190.9060  173.7900  138.3330 O   0  0  0  0  0  0  0  0  0  0  0  0
  190.5040  173.8330  142.2240 C   0  0  1  0  0  3  0  0  0  0  0  0
  195.5680  173.5020  144.7920 C   0  0  0  0  0  3  0  0  0  0  0  0
  186.8960  174.5800  142.3710 F   0  0  0  0  0  0  0  0  0  0  0  0
  188.1460  174.6610  141.7850 C   0  0  1  0  0  3  0  0  0  0  0  0
  196.7320  173.2070  141.4560 C   0  0  0  0  0  3  0  0  0  0  0  0
  196.0990  172.6420  142.5710 C   0  0  0  0  0  0  0  0  0  0  0  0
  196.3920  171.3190  142.9410 C   0  0  0  0  0  3  0  0  0  0  0  0
  197.5830  169.2180  142.5510 N   0  0  0  0  0  1  0  0  0  0  0  0
  197.9410  171.1390  141.0840 C   0  0  0  0  0  3  0  0  0  0  0  0
  197.3060  170.5680  142.1930 C   0  0  0  0  0  0  0  0  0  0  0  0
  197.6510  172.4550  140.7140 C   0  0  0  0  0  3  0  0  0  0  0  0
  2 22  1  0  0  0  0
  2 24  1  0  0  0  0
  3  9  1  0  0  0  0
  3 20  1  0  0  0  0
  4 30  1  0  0  0  0
  4  1  1  0  0  0  0
  5 10  1  0  0  0  0
  6 22  1  0  0  0  0
  6 11  1  0  0  0  0
  7 21  1  0  0  0  0
  7  3  1  0  0  0  0
  8 12  1  0  0  0  0
  8 18  1  0  0  0  0
  9  6  1  0  0  0  0
 10 23  1  0  0  0  0
 10  7  1  0  0  0  0
 12  4  1  0  0  0  0
 13  9  1  0  0  0  0
 13 17  1  0  0  0  0
 14  2  1  0  0  0  0
 16 11  2  0  0  0  0
 17  2  1  0  0  0  0
 18 19  1  0  0  0  0
 18 25  1  0  0  0  0
 19 25  1  0  0  0  0
 19  5  1  0  0  0  0
 20 15  1  0  0  0  0
 20 16  1  0  0  0  0
 21 13  1  0  0  0  0
 23 28  1  0  0  0  0
 25 27  1  0  0  0  0
 26  8  2  0  0  0  0
 27  1  1  0  0  0  0
 27 21  1  0  0  0  0
 28 15  2  0  0  0  0
 30  1  1  0  0  0  0
 30 29  1  0  0  0  0
 31 32  1  0  0  0  0
 32 33  2  0  0  0  0
 32 23  1  0  0  0  0
 35 36  2  0  0  0  0
 36 34  1  0  0  0  0
 36 33  1  0  0  0  0
 37 35  1  0  0  0  0
 37 31  2  0  0  0  0
M  END
>  <MODEL>
7

>  <REMARK>
 VINA RESULT:      -8.1      2.595      7.454
  Name = 
  1 active torsions:
  status: ('A' for Active; 'I' for Inactive)
    1  A    between atoms: C_23  and  C_30
                            x       y       z     vdW  Elec       q    Type
                         _______ _______ _______ _____ _____    ______ ____

>  <TORSDO>
F 1

$$$$
=
 OpenBabel11112417163D

 37 45  0  0  1  0  0  0  0  0999 V2000
  187.5380  176.4160  144.8640 C   0  0  1  0  0  3  0  0  0  0  0  0
  191.3890  175.9140  147.4040 C   0  0  0  0  0  0  0  0  0  0  0  0
  191.6910  174.3050  143.5350 C   0  0  2  0  0  3  0  0  0  0  0  0
  186.4240  177.4110  144.4940 C   0  0  2  0  0  3  0  0  0  0  0  0
  188.6330  174.3710  140.9520 C   0  0  0  0  0  2  0  0  0  0  0  0
  192.7600  174.6850  145.6440 C   0  0  1  0  0  3  0  0  0  0  0  0
  190.4820  174.8180  142.7900 C   0  0  1  0  0  3  0  0  0  0  0  0
  186.6370  177.5220  141.9630 C   0  0  0  0  0  0  0  0  0  0  0  0
  191.9280  175.3590  144.5730 C   0  0  2  0  0  3  0  0  0  0  0  0
  189.8890  173.8290  141.7140 C   0  0  2  0  0  3  0  0  0  0  0  0
  194.1000  174.3220  145.0510 C   0  0  0  0  0  3  0  0  0  0  0  0
  186.5560  178.0980  143.2470 O   0  0  0  0  0  0  0  0  0  0  0  0
  190.5470  175.8340  145.0110 C   0  0  2  0  0  3  0  0  0  0  0  0
  191.2950  177.4130  147.5840 C   0  0  0  0  0  1  0  0  0  0  0  0
  192.8580  172.6530  142.1520 C   0  0  0  0  0  3  0  0  0  0  0  0
  194.1900  173.9740  143.7430 C   0  0  0  0  0  3  0  0  0  0  0  0
  190.2540  175.4530  146.4670 C   0  0  0  0  0  2  0  0  0  0  0  0
  186.7840  176.0360  141.7130 C   0  0  1  0  0  3  0  0  0  0  0  0
  188.1880  175.7040  141.4720 C   0  0  1  0  0  3  0  0  0  0  0  0
  192.9940  174.0000  142.7840 C   0  0  2  0  0  3  0  0  0  0  0  0
  189.5820  175.1900  144.0110 C   0  0  1  0  0  3  0  0  0  0  0  0
  192.8080  175.5580  146.8880 C   0  0  0  0  0  2  0  0  0  0  0  0
  190.9820  173.4100  140.6860 C   0  0  1  0  0  3  0  0  0  0  0  0
  191.1910  175.2640  148.7490 C   0  0  0  0  0  1  0  0  0  0  0  0
  187.5780  175.3490  142.7490 N   0  0  1  0  0  0  0  0  0  0  0  0
  186.5900  178.2870  140.9620 O   0  0  0  0  0  0  0  0  0  0  0  0
  188.4020  176.1090  143.6590 C   0  0  1  0  0  3  0  0  0  0  0  0
  191.9430  172.3860  141.2190 C   0  0  0  0  0  3  0  0  0  0  0  0
  187.2480  177.9190  146.6570 F   0  0  0  0  0  0  0  0  0  0  0  0
  187.6170  177.8540  145.3260 C   0  0  1  0  0  3  0  0  0  0  0  0
  190.0310  171.6050  139.2380 C   0  0  0  0  0  3  0  0  0  0  0  0
  190.4620  172.9320  139.3580 C   0  0  0  0  0  0  0  0  0  0  0  0
  190.3870  173.7910  138.2480 C   0  0  0  0  0  3  0  0  0  0  0  0
  189.8410  174.1790  135.8960 N   0  0  0  0  0  1  0  0  0  0  0  0
  189.4550  171.9920  136.9160 C   0  0  0  0  0  3  0  0  0  0  0  0
  189.8910  173.3180  137.0280 C   0  0  0  0  0  0  0  0  0  0  0  0
  189.5290  171.1370  138.0170 C   0  0  0  0  0  3  0  0  0  0  0  0
  1 30  1  0  0  0  0
  2 14  1  0  0  0  0
  2 24  1  0  0  0  0
  3  9  1  0  0  0  0
  4  1  1  0  0  0  0
  4 30  1  0  0  0  0
  5 19  1  0  0  0  0
  5 10  1  0  0  0  0
  6 22  1  0  0  0  0
  7  3  1  0  0  0  0
  7 21  1  0  0  0  0
  8 12  1  0  0  0  0
  9 13  1  0  0  0  0
  9  6  1  0  0  0  0
 10  7  1  0  0  0  0
 11  6  1  0  0  0  0
 12  4  1  0  0  0  0
 13 17  1  0  0  0  0
 15 20  1  0  0  0  0
 16 11  2  0  0  0  0
 17  2  1  0  0  0  0
 18  8  1  0  0  0  0
 18 25  1  0  0  0  0
 19 18  1  0  0  0  0
 19 25  1  0  0  0  0
 20  3  1  0  0  0  0
 20 16  1  0  0  0  0
 21 13  1  0  0  0  0
 22  2  1  0  0  0  0
 23 28  1  0  0  0  0
 23 10  1  0  0  0  0
 25 27  1  0  0  0  0
 26  8  2  0  0  0  0
 27 21  1  0  0  0  0
 27  1  1  0  0  0  0
 28 15  2  0  0  0  0
 30 29  1  0  0  0  0
 31 32  1  0  0  0  0
 32 23  1  0  0  0  0
 33 32  2  0  0  0  0
 34 36  1  0  0  0  0
 35 36  2  0  0  0  0
 35 37  1  0  0  0  0
 36 33  1  0  0  0  0
 37 31  2  0  0  0  0
M  END
>  <MODEL>
8

>  <REMARK>
 VINA RESULT:      -8.0      2.809      6.534
  Name = 
  1 active torsions:
  status: ('A' for Active; 'I' for Inactive)
    1  A    between atoms: C_23  and  C_30
                            x       y       z     vdW  Elec       q    Type
                         _______ _______ _______ _____ _____    ______ ____

>  <TORSDO>
F 1

$$$$
=
 OpenBabel11112417163D

 37 45  0  0  1  0  0  0  0  0999 V2000
  190.0190  177.2800  145.3350 C   0  0  1  0  0  3  0  0  0  0  0  0
  187.6460  176.2180  141.4920 C   0  0  0  0  0  0  0  0  0  0  0  0
  191.2040  174.0310  141.9430 C   0  0  2  0  0  3  0  0  0  0  0  0
  189.8680  177.5750  146.8380 C   0  0  2  0  0  3  0  0  0  0  0  0
  193.6910  174.6140  145.0260 C   0  0  0  0  0  2  0  0  0  0  0  0
  189.2690  174.4680  140.6020 C   0  0  1  0  0  3  0  0  0  0  0  0
  191.6640  174.2960  143.3570 C   0  0  1  0  0  3  0  0  0  0  0  0
  191.3670  175.8030  147.8760 C   0  0  0  0  0  0  0  0  0  0  0  0
  189.7190  174.2110  142.0250 C   0  0  2  0  0  3  0  0  0  0  0  0
  193.2270  174.3330  143.5570 C   0  0  2  0  0  3  0  0  0  0  0  0
  189.5330  173.2270  139.7850 C   0  0  0  0  0  3  0  0  0  0  0  0
  190.1510  176.5040  147.7420 O   0  0  0  0  0  0  0  0  0  0  0  0
  189.4880  175.3530  143.0080 C   0  0  2  0  0  3  0  0  0  0  0  0
  186.4940  175.9750  142.4410 C   0  0  0  0  0  1  0  0  0  0  0  0
  192.9410  172.7850  140.7450 C   0  0  0  0  0  3  0  0  0  0  0  0
  190.6000  172.4400  140.0710 C   0  0  0  0  0  3  0  0  0  0  0  0
  188.8990  176.5860  142.3130 C   0  0  0  0  0  2  0  0  0  0  0  0
  192.5400  175.9610  146.9320 C   0  0  1  0  0  3  0  0  0  0  0  0
  192.5350  174.8850  145.9410 C   0  0  1  0  0  3  0  0  0  0  0  0
  191.5390  172.7010  141.2560 C   0  0  2  0  0  3  0  0  0  0  0  0
  190.8630  175.6090  143.6320 C   0  0  1  0  0  3  0  0  0  0  0  0
  187.8320  174.9660  140.5960 C   0  0  0  0  0  2  0  0  0  0  0  0
  193.8810  173.0140  143.0470 C   0  0  1  0  0  3  0  0  0  0  0  0
  187.2920  177.3890  140.6120 C   0  0  0  0  0  1  0  0  0  0  0  0
  192.1330  176.2290  145.5390 N   0  0  1  0  0  0  0  0  0  0  0  0
  191.4860  174.9940  148.8350 O   0  0  0  0  0  0  0  0  0  0  0  0
  190.7730  175.9850  145.1180 C   0  0  1  0  0  3  0  0  0  0  0  0
  193.9910  172.9400  141.5520 C   0  0  0  0  0  3  0  0  0  0  0  0
  187.8760  178.1890  145.7100 F   0  0  0  0  0  0  0  0  0  0  0  0
  188.6800  177.1050  146.0150 C   0  0  1  0  0  3  0  0  0  0  0  0
  196.3550  173.3690  143.1610 C   0  0  0  0  0  3  0  0  0  0  0  0
  195.2260  172.6950  143.6420 C   0  0  0  0  0  0  0  0  0  0  0  0
  195.3660  171.7500  144.6730 C   0  0  0  0  0  3  0  0  0  0  0  0
  196.7760  170.5050  146.2350 N   0  0  0  0  0  1  0  0  0  0  0  0
  197.7540  172.1630  144.7310 C   0  0  0  0  0  3  0  0  0  0  0  0
  196.6300  171.4810  145.2100 C   0  0  0  0  0  0  0  0  0  0  0  0
  197.6180  173.1030  143.7060 C   0  0  0  0  0  3  0  0  0  0  0  0
  1 30  1  0  0  0  0
  1  4  1  0  0  0  0
  2 17  1  0  0  0  0
  2 14  1  0  0  0  0
  3  9  1  0  0  0  0
  3  7  1  0  0  0  0
  4 12  1  0  0  0  0
  5 19  1  0  0  0  0
  6  9  1  0  0  0  0
  7 10  1  0  0  0  0
  7 21  1  0  0  0  0
  8 26  2  0  0  0  0
  9 13  1  0  0  0  0
 10  5  1  0  0  0  0
 11 16  2  0  0  0  0
 11  6  1  0  0  0  0
 12  8  1  0  0  0  0
 13 21  1  0  0  0  0
 15 20  1  0  0  0  0
 15 28  2  0  0  0  0
 16 20  1  0  0  0  0
 17 13  1  0  0  0  0
 18  8  1  0  0  0  0
 19 18  1  0  0  0  0
 20  3  1  0  0  0  0
 21 27  1  0  0  0  0
 22  6  1  0  0  0  0
 22  2  1  0  0  0  0
 23 10  1  0  0  0  0
 23 32  1  0  0  0  0
 24  2  1  0  0  0  0
 25 19  1  0  0  0  0
 25 18  1  0  0  0  0
 27  1  1  0  0  0  0
 27 25  1  0  0  0  0
 28 23  1  0  0  0  0
 29 30  1  0  0  0  0
 30  4  1  0  0  0  0
 31 32  2  0  0  0  0
 31 37  1  0  0  0  0
 32 33  1  0  0  0  0
 33 36  2  0  0  0  0
 35 36  1  0  0  0  0
 36 34  1  0  0  0  0
 37 35  2  0  0  0  0
M  END
>  <MODEL>
9

>  <REMARK>
 VINA RESULT:      -8.0      3.454      8.381
  Name = 
  1 active torsions:
  status: ('A' for Active; 'I' for Inactive)
    1  A    between atoms: C_23  and  C_30
                            x       y       z     vdW  Elec       q    Type
                         _______ _______ _______ _____ _____    ______ ____

>  <TORSDO>
F 1

$$$$
