=
 OpenBabel11112416543D

 31 35  0  0  1  0  0  0  0  0999 V2000
  184.5770  178.0650  146.6260 C   0  0  0  0  0  0  0  0  0  0  0  0
  187.2440  176.4140  144.5510 N   0  0  0  0  0  0  0  0  0  0  0  0
  186.9870  176.6680  143.1480 C   0  0  0  0  0  0  0  0  0  0  0  0
  185.6550  177.6480  141.3630 C   0  0  0  0  0  0  0  0  0  0  0  0
  186.5770  177.1650  145.5880 C   0  0  0  0  0  0  0  0  0  0  0  0
  185.3520  178.6170  147.6490 C   0  0  0  0  0  3  0  0  0  0  0  0
  185.8430  177.3570  142.7160 C   0  0  0  0  0  3  0  0  0  0  0  0
  189.4470  176.7860  145.5610 C   0  0  2  0  0  3  0  0  0  0  0  0
  183.2320  178.2330  146.6290 F   0  0  0  0  0  0  0  0  0  0  0  0
  189.0860  175.5930  142.6010 O   0  0  0  0  0  0  0  0  0  0  0  0
  184.2200  178.5070  140.8450 Cl  0  0  0  0  0  0  0  0  0  0  0  0
  188.7690  177.5030  146.6420 N   0  0  0  0  0  2  0  0  0  0  0  0
  188.4910  175.7470  144.9670 C   0  0  2  0  0  3  0  0  0  0  0  0
  185.1860  177.3380  145.5990 C   0  0  0  0  0  3  0  0  0  0  0  0
  186.6190  177.2690  140.4260 C   0  0  0  0  0  3  0  0  0  0  0  0
  187.3520  177.7180  146.6250 C   0  0  0  0  0  0  0  0  0  0  0  0
  186.7390  178.4410  147.6520 C   0  0  0  0  0  3  0  0  0  0  0  0
  189.1210  174.9100  143.8490 C   0  0  0  0  0  2  0  0  0  0  0  0
  187.9430  176.2770  142.1940 C   0  0  0  0  0  0  0  0  0  0  0  0
  187.7630  176.5870  140.8420 C   0  0  0  0  0  3  0  0  0  0  0  0
  192.0950  177.1570  144.5700 O   0  0  0  0  0  0  0  0  0  0  0  0
  191.9410  176.3710  145.5460 C   0  0  0  0  0  0  0  0  0  0  0  0
  190.6400  176.1330  146.0840 N   0  0  0  0  0  2  0  0  0  0  0  0
  195.5790  176.0040  144.5540 C   0  0  1  0  0  3  0  0  0  0  0  0
  194.2230  176.6520  146.5650 C   0  0  0  0  0  2  0  0  0  0  0  0
  192.6700  173.6830  144.8500 O   0  0  0  0  0  1  0  0  0  0  0  0
  196.3020  176.5170  143.4070 N   0  0  0  0  0  1  0  0  0  0  0  0
  194.9990  177.1680  145.3520 C   0  0  0  0  0  2  0  0  0  0  0  0
  193.6870  174.5370  145.2790 C   0  0  2  0  0  3  0  0  0  0  0  0
  193.1210  175.6690  146.1540 C   0  0  2  0  0  3  0  0  0  0  0  0
  194.4610  175.0810  144.0790 C   0  0  0  0  0  2  0  0  0  0  0  0
  1  9  1  0  0  0  0
  1  6  1  0  0  0  0
  2 13  1  0  0  0  0
  2  5  1  0  0  0  0
  3  2  1  0  0  0  0
  4  7  2  0  0  0  0
  5 14  1  0  0  0  0
  5 16  2  0  0  0  0
  6 17  2  0  0  0  0
  7  3  1  0  0  0  0
  8 23  1  1  0  0  0
  8 12  1  0  0  0  0
 10 18  1  0  0  0  0
 11  4  1  0  0  0  0
 13 18  1  6  0  0  0
 13  8  1  0  0  0  0
 14  1  2  0  0  0  0
 15 20  2  0  0  0  0
 15  4  1  0  0  0  0
 16 12  1  0  0  0  0
 16 17  1  0  0  0  0
 19 10  1  0  0  0  0
 19  3  2  0  0  0  0
 20 19  1  0  0  0  0
 21 22  2  0  0  0  0
 22 23  1  0  0  0  0
 24 27  1  6  0  0  0
 24 28  1  0  0  0  0
 28 25  1  0  0  0  0
 29 26  1  6  0  0  0
 29 30  1  0  0  0  0
 30 22  1  6  0  0  0
 30 25  1  0  0  0  0
 31 24  1  0  0  0  0
 31 29  1  0  0  0  0
M  END
>  <MODEL>
1

>  <REMARK>
 VINA RESULT:      -9.2      0.000      0.000
  Name = 
  2 active torsions:
  status: ('A' for Active; 'I' for Inactive)
    1  A    between atoms: C_5  and  C_30
    2  A    between atoms: C_10  and  N_16
                            x       y       z     vdW  Elec       q    Type
                         _______ _______ _______ _____ _____    ______ ____

>  <TORSDO>
F 2

$$$$
=
 OpenBabel11112416543D

 31 35  0  0  1  0  0  0  0  0999 V2000
  185.0040  177.5230  146.6390 C   0  0  0  0  0  0  0  0  0  0  0  0
  187.2490  176.4190  143.8310 N   0  0  0  0  0  0  0  0  0  0  0  0
  186.6650  176.8150  142.5650 C   0  0  0  0  0  0  0  0  0  0  0  0
  184.8990  177.8660  141.2630 C   0  0  0  0  0  0  0  0  0  0  0  0
  186.7800  176.9660  145.0810 C   0  0  0  0  0  0  0  0  0  0  0  0
  185.9470  178.0220  147.5410 C   0  0  0  0  0  3  0  0  0  0  0  0
  185.4070  177.4320  142.4890 C   0  0  0  0  0  3  0  0  0  0  0  0
  189.5900  176.8860  144.3910 C   0  0  2  0  0  3  0  0  0  0  0  0
  183.6860  177.5530  146.9520 F   0  0  0  0  0  0  0  0  0  0  0  0
  188.6600  176.0350  141.4370 O   0  0  0  0  0  0  0  0  0  0  0  0
  183.3270  178.6310  141.1890 Cl  0  0  0  0  0  0  0  0  0  0  0  0
  189.1220  177.3930  145.6820 N   0  0  0  0  0  2  0  0  0  0  0  0
  188.6020  175.8360  143.8720 C   0  0  2  0  0  3  0  0  0  0  0  0
  185.4170  176.9930  145.4130 C   0  0  0  0  0  3  0  0  0  0  0  0
  185.6530  177.7050  140.0980 C   0  0  0  0  0  3  0  0  0  0  0  0
  187.7260  177.4630  145.9980 C   0  0  0  0  0  0  0  0  0  0  0  0
  187.3080  177.9880  147.2230 C   0  0  0  0  0  3  0  0  0  0  0  0
  189.0230  175.2110  142.5390 C   0  0  0  0  0  2  0  0  0  0  0  0
  187.4080  176.6430  141.3840 C   0  0  0  0  0  0  0  0  0  0  0  0
  186.9080  177.0960  140.1600 C   0  0  0  0  0  3  0  0  0  0  0  0
  192.0540  178.2060  143.8310 O   0  0  0  0  0  0  0  0  0  0  0  0
  192.1110  177.0210  144.2590 C   0  0  0  0  0  0  0  0  0  0  0  0
  190.9140  176.2990  144.5490 N   0  0  0  0  0  2  0  0  0  0  0  0
  193.1920  173.4090  144.6320 C   0  0  1  0  0  3  0  0  0  0  0  0
  193.8060  175.4370  143.2860 C   0  0  0  0  0  2  0  0  0  0  0  0
  193.1450  176.4010  146.8650 O   0  0  0  0  0  1  0  0  0  0  0  0
  192.4130  172.1850  144.6290 N   0  0  0  0  0  1  0  0  0  0  0  0
  193.0010  174.1360  143.3040 C   0  0  0  0  0  2  0  0  0  0  0  0
  193.5470  175.5910  145.8010 C   0  0  2  0  0  3  0  0  0  0  0  0
  193.4370  176.3460  144.4650 C   0  0  2  0  0  3  0  0  0  0  0  0
  192.7390  174.2950  145.7890 C   0  0  0  0  0  2  0  0  0  0  0  0
  1  9  1  0  0  0  0
  1  6  1  0  0  0  0
  2 13  1  0  0  0  0
  2  5  1  0  0  0  0
  3  2  1  0  0  0  0
  4  7  2  0  0  0  0
  5 14  1  0  0  0  0
  5 16  2  0  0  0  0
  7  3  1  0  0  0  0
  8 23  1  1  0  0  0
  8 12  1  0  0  0  0
 10 18  1  0  0  0  0
 11  4  1  0  0  0  0
 12 16  1  0  0  0  0
 13 18  1  6  0  0  0
 13  8  1  0  0  0  0
 14  1  2  0  0  0  0
 15 20  2  0  0  0  0
 15  4  1  0  0  0  0
 16 17  1  0  0  0  0
 17  6  2  0  0  0  0
 19 10  1  0  0  0  0
 19  3  2  0  0  0  0
 20 19  1  0  0  0  0
 21 22  2  0  0  0  0
 22 23  1  0  0  0  0
 24 27  1  6  0  0  0
 24 31  1  0  0  0  0
 25 28  1  0  0  0  0
 25 30  1  0  0  0  0
 28 24  1  0  0  0  0
 29 26  1  1  0  0  0
 30 22  1  6  0  0  0
 30 29  1  0  0  0  0
 31 29  1  0  0  0  0
M  END
>  <MODEL>
2

>  <REMARK>
 VINA RESULT:      -8.5      1.570      2.003
  Name = 
  2 active torsions:
  status: ('A' for Active; 'I' for Inactive)
    1  A    between atoms: C_5  and  C_30
    2  A    between atoms: C_10  and  N_16
                            x       y       z     vdW  Elec       q    Type
                         _______ _______ _______ _____ _____    ______ ____

>  <TORSDO>
F 2

$$$$
=
 OpenBabel11112416543D

 31 35  0  0  1  0  0  0  0  0999 V2000
  187.2290  177.1520  141.0630 C   0  0  0  0  0  0  0  0  0  0  0  0
  188.2020  177.3900  144.6880 N   0  0  0  0  0  0  0  0  0  0  0  0
  187.0660  177.8500  145.4610 C   0  0  0  0  0  0  0  0  0  0  0  0
  184.7530  178.5880  145.6290 C   0  0  0  0  0  0  0  0  0  0  0  0
  188.0490  176.9130  143.3350 C   0  0  0  0  0  0  0  0  0  0  0  0
  187.8160  175.9310  140.7190 C   0  0  0  0  0  3  0  0  0  0  0  0
  185.8540  178.2140  144.8540 C   0  0  0  0  0  3  0  0  0  0  0  0
  189.5120  175.4230  145.3400 C   0  0  2  0  0  3  0  0  0  0  0  0
  186.5440  177.8590  140.1330 F   0  0  0  0  0  0  0  0  0  0  0  0
  188.3450  177.5060  147.4880 O   0  0  0  0  0  0  0  0  0  0  0  0
  183.2520  179.0410  144.8520 Cl  0  0  0  0  0  0  0  0  0  0  0  0
  189.4040  174.9610  143.9550 N   0  0  0  0  0  2  0  0  0  0  0  0
  189.4330  176.9520  145.3700 C   0  0  2  0  0  3  0  0  0  0  0  0
  187.3460  177.6440  142.3660 C   0  0  0  0  0  3  0  0  0  0  0  0
  184.8450  178.5840  147.0220 C   0  0  0  0  0  3  0  0  0  0  0  0
  188.6450  175.6870  142.9800 C   0  0  0  0  0  0  0  0  0  0  0  0
  188.5280  175.2010  141.6760 C   0  0  0  0  0  3  0  0  0  0  0  0
  189.5770  177.5410  146.7770 C   0  0  0  0  0  2  0  0  0  0  0  0
  187.1520  177.8650  146.8650 C   0  0  0  0  0  0  0  0  0  0  0  0
  186.0440  178.2200  147.6390 C   0  0  0  0  0  3  0  0  0  0  0  0
  192.0970  176.1460  144.3810 O   0  0  0  0  0  0  0  0  0  0  0  0
  192.0390  175.3800  145.3820 C   0  0  0  0  0  0  0  0  0  0  0  0
  190.7760  174.9710  145.9060 N   0  0  0  0  0  2  0  0  0  0  0  0
  195.7260  175.6740  144.5590 C   0  0  1  0  0  3  0  0  0  0  0  0
  194.1900  176.0300  146.5130 C   0  0  0  0  0  2  0  0  0  0  0  0
  193.2570  172.8760  144.6830 O   0  0  0  0  0  1  0  0  0  0  0  0
  196.3980  176.3310  143.4550 N   0  0  0  0  0  1  0  0  0  0  0  0
  194.9160  176.7010  145.3460 C   0  0  0  0  0  2  0  0  0  0  0  0
  194.0890  173.8840  145.1720 C   0  0  2  0  0  3  0  0  0  0  0  0
  193.2960  174.8800  146.0350 C   0  0  2  0  0  3  0  0  0  0  0  0
  194.8080  174.5810  144.0190 C   0  0  0  0  0  2  0  0  0  0  0  0
  1 14  1  0  0  0  0
  2 13  1  0  0  0  0
  2  3  1  0  0  0  0
  3 19  1  0  0  0  0
  4 15  2  0  0  0  0
  5  2  1  0  0  0  0
  6  1  2  0  0  0  0
  6 17  1  0  0  0  0
  7  3  2  0  0  0  0
  7  4  1  0  0  0  0
  8 13  1  0  0  0  0
  8 23  1  6  0  0  0
  9  1  1  0  0  0  0
 11  4  1  0  0  0  0
 12  8  1  0  0  0  0
 13 18  1  1  0  0  0
 14  5  2  0  0  0  0
 15 20  1  0  0  0  0
 16  5  1  0  0  0  0
 16 12  1  0  0  0  0
 17 16  2  0  0  0  0
 18 10  1  0  0  0  0
 19 10  1  0  0  0  0
 19 20  2  0  0  0  0
 21 22  2  0  0  0  0
 22 23  1  0  0  0  0
 24 27  1  6  0  0  0
 24 28  1  0  0  0  0
 28 25  1  0  0  0  0
 29 26  1  6  0  0  0
 29 30  1  0  0  0  0
 30 22  1  6  0  0  0
 30 25  1  0  0  0  0
 31 24  1  0  0  0  0
 31 29  1  0  0  0  0
M  END
>  <MODEL>
3

>  <REMARK>
 VINA RESULT:      -8.3      2.007      3.976
  Name = 
  2 active torsions:
  status: ('A' for Active; 'I' for Inactive)
    1  A    between atoms: C_5  and  C_30
    2  A    between atoms: C_10  and  N_16
                            x       y       z     vdW  Elec       q    Type
                         _______ _______ _______ _____ _____    ______ ____

>  <TORSDO>
F 2

$$$$
=
 OpenBabel11112416543D

 31 35  0  0  1  0  0  0  0  0999 V2000
  186.2910  177.9090  140.8420 C   0  0  0  0  0  0  0  0  0  0  0  0
  188.2410  177.6100  144.0440 N   0  0  0  0  0  0  0  0  0  0  0  0
  187.3490  177.8020  145.1690 C   0  0  0  0  0  0  0  0  0  0  0  0
  185.1430  178.2470  146.0960 C   0  0  0  0  0  0  0  0  0  0  0  0
  187.7350  177.3640  142.7150 C   0  0  0  0  0  0  0  0  0  0  0  0
  186.8220  176.8390  140.1170 C   0  0  0  0  0  3  0  0  0  0  0  0
  185.9960  178.1350  144.9950 C   0  0  0  0  0  3  0  0  0  0  0  0
  189.7870  175.7100  143.9150 C   0  0  2  0  0  3  0  0  0  0  0  0
  185.3330  178.6920  140.2900 F   0  0  0  0  0  0  0  0  0  0  0  0
  189.1680  177.2460  146.6670 O   0  0  0  0  0  0  0  0  0  0  0  0
  183.4610  178.6650  145.8580 Cl  0  0  0  0  0  0  0  0  0  0  0  0
  189.3140  175.4910  142.5470 N   0  0  0  0  0  2  0  0  0  0  0  0
  189.6370  177.1930  144.2680 C   0  0  2  0  0  3  0  0  0  0  0  0
  186.7480  178.1750  142.1360 C   0  0  0  0  0  3  0  0  0  0  0  0
  185.6280  178.0080  147.3840 C   0  0  0  0  0  3  0  0  0  0  0  0
  188.2710  176.2910  141.9760 C   0  0  0  0  0  0  0  0  0  0  0  0
  187.8140  176.0320  140.6820 C   0  0  0  0  0  3  0  0  0  0  0  0
  190.1440  177.5380  145.6730 C   0  0  0  0  0  2  0  0  0  0  0  0
  187.8300  177.5790  146.4720 C   0  0  0  0  0  0  0  0  0  0  0  0
  186.9700  177.6720  147.5700 C   0  0  0  0  0  3  0  0  0  0  0  0
  190.6940  173.0750  144.5150 O   0  0  0  0  0  0  0  0  0  0  0  0
  191.5690  173.9620  144.3140 C   0  0  0  0  0  0  0  0  0  0  0  0
  191.1820  175.3050  144.0190 N   0  0  0  0  0  2  0  0  0  0  0  0
  194.6910  175.9580  145.1010 C   0  0  1  0  0  3  0  0  0  0  0  0
  193.5910  173.8130  145.8020 C   0  0  0  0  0  2  0  0  0  0  0  0
  193.3390  174.2470  142.0720 O   0  0  0  0  0  1  0  0  0  0  0  0
  194.8570  177.3600  145.4350 N   0  0  0  0  0  1  0  0  0  0  0  0
  193.7890  175.2930  146.1370 C   0  0  0  0  0  2  0  0  0  0  0  0
  193.8900  174.3640  143.3480 C   0  0  2  0  0  3  0  0  0  0  0  0
  193.0300  173.6250  144.3880 C   0  0  2  0  0  3  0  0  0  0  0  0
  194.0760  175.8360  143.7100 C   0  0  0  0  0  2  0  0  0  0  0  0
  1 14  1  0  0  0  0
  2 13  1  0  0  0  0
  2  3  1  0  0  0  0
  3 19  1  0  0  0  0
  4 15  2  0  0  0  0
  5  2  1  0  0  0  0
  6 17  1  0  0  0  0
  6  1  2  0  0  0  0
  7  3  2  0  0  0  0
  7  4  1  0  0  0  0
  8 23  1  6  0  0  0
  8 13  1  0  0  0  0
  9  1  1  0  0  0  0
 11  4  1  0  0  0  0
 12  8  1  0  0  0  0
 13 18  1  1  0  0  0
 14  5  2  0  0  0  0
 15 20  1  0  0  0  0
 16 12  1  0  0  0  0
 16  5  1  0  0  0  0
 17 16  2  0  0  0  0
 18 10  1  0  0  0  0
 19 10  1  0  0  0  0
 19 20  2  0  0  0  0
 22 21  2  0  0  0  0
 23 22  1  0  0  0  0
 24 27  1  1  0  0  0
 24 28  1  0  0  0  0
 25 28  1  0  0  0  0
 29 26  1  6  0  0  0
 29 31  1  0  0  0  0
 29 30  1  0  0  0  0
 30 22  1  1  0  0  0
 30 25  1  0  0  0  0
 31 24  1  0  0  0  0
M  END
>  <MODEL>
4

>  <REMARK>
 VINA RESULT:      -8.3      2.185      4.257
  Name = 
  2 active torsions:
  status: ('A' for Active; 'I' for Inactive)
    1  A    between atoms: C_5  and  C_30
    2  A    between atoms: C_10  and  N_16
                            x       y       z     vdW  Elec       q    Type
                         _______ _______ _______ _____ _____    ______ ____

>  <TORSDO>
F 2

$$$$
=
 OpenBabel11112416543D

 31 35  0  0  1  0  0  0  0  0999 V2000
  194.1720  176.9730  145.3990 C   0  0  0  0  0  0  0  0  0  0  0  0
  190.8700  176.0970  143.8270 N   0  0  0  0  0  0  0  0  0  0  0  0
  191.1000  175.2960  142.6410 C   0  0  0  0  0  0  0  0  0  0  0  0
  192.5880  174.1840  141.0690 C   0  0  0  0  0  0  0  0  0  0  0  0
  191.9130  176.3200  144.7990 C   0  0  0  0  0  0  0  0  0  0  0  0
  193.8800  176.7570  146.7480 C   0  0  0  0  0  3  0  0  0  0  0  0
  192.3940  175.0160  142.1740 C   0  0  0  0  0  3  0  0  0  0  0  0
  189.2630  175.4340  145.5560 C   0  0  2  0  0  3  0  0  0  0  0  0
  195.4080  177.3900  145.0330 F   0  0  0  0  0  0  0  0  0  0  0  0
  188.7090  174.9870  142.4240 O   0  0  0  0  0  0  0  0  0  0  0  0
  194.2090  173.8500  140.5020 Cl  0  0  0  0  0  0  0  0  0  0  0  0
  190.3020  175.7110  146.5490 N   0  0  0  0  0  2  0  0  0  0  0  0
  189.4980  176.3100  144.3210 C   0  0  2  0  0  3  0  0  0  0  0  0
  193.1920  176.7590  144.4250 C   0  0  0  0  0  3  0  0  0  0  0  0
  191.4900  173.6080  140.4270 C   0  0  0  0  0  3  0  0  0  0  0  0
  191.6220  176.1120  146.1610 C   0  0  0  0  0  0  0  0  0  0  0  0
  192.6040  176.3310  147.1300 C   0  0  0  0  0  3  0  0  0  0  0  0
  188.4360  176.1250  143.2330 C   0  0  0  0  0  2  0  0  0  0  0  0
  190.0010  174.7230  141.9770 C   0  0  0  0  0  0  0  0  0  0  0  0
  190.1980  173.8750  140.8830 C   0  0  0  0  0  3  0  0  0  0  0  0
  188.5620  177.7990  146.9850 O   0  0  0  0  0  0  0  0  0  0  0  0
  187.6660  176.9250  146.8280 C   0  0  0  0  0  0  0  0  0  0  0  0
  187.9540  175.7130  146.1310 N   0  0  0  0  0  2  0  0  0  0  0  0
  184.6230  178.8290  145.6170 C   0  0  1  0  0  3  0  0  0  0  0  0
  185.2070  176.5400  146.4670 C   0  0  0  0  0  2  0  0  0  0  0  0
  186.9900  179.1710  148.4840 O   0  0  0  0  0  1  0  0  0  0  0  0
  184.4210  179.6240  144.4210 N   0  0  0  0  0  1  0  0  0  0  0  0
  184.9800  177.3980  145.2210 C   0  0  0  0  0  2  0  0  0  0  0  0
  185.9730  178.6080  147.7110 C   0  0  2  0  0  3  0  0  0  0  0  0
  186.2850  177.1400  147.3770 C   0  0  2  0  0  3  0  0  0  0  0  0
  185.7440  179.4410  146.4510 C   0  0  0  0  0  2  0  0  0  0  0  0
  1  6  1  0  0  0  0
  2 13  1  0  0  0  0
  2  5  1  0  0  0  0
  3  2  1  0  0  0  0
  4  7  2  0  0  0  0
  5 16  2  0  0  0  0
  6 17  2  0  0  0  0
  7  3  1  0  0  0  0
  8 23  1  1  0  0  0
  8 12  1  0  0  0  0
  9  1  1  0  0  0  0
 10 18  1  0  0  0  0
 11  4  1  0  0  0  0
 13 18  1  6  0  0  0
 13  8  1  0  0  0  0
 14  5  1  0  0  0  0
 14  1  2  0  0  0  0
 15 20  2  0  0  0  0
 15  4  1  0  0  0  0
 16 12  1  0  0  0  0
 16 17  1  0  0  0  0
 19 10  1  0  0  0  0
 19  3  2  0  0  0  0
 20 19  1  0  0  0  0
 22 21  2  0  0  0  0
 23 22  1  0  0  0  0
 24 27  1  6  0  0  0
 24 31  1  0  0  0  0
 25 30  1  0  0  0  0
 28 24  1  0  0  0  0
 28 25  1  0  0  0  0
 29 26  1  6  0  0  0
 30 22  1  6  0  0  0
 30 29  1  0  0  0  0
 31 29  1  0  0  0  0
M  END
>  <MODEL>
5

>  <REMARK>
 VINA RESULT:      -8.0      3.792      7.249
  Name = 
  2 active torsions:
  status: ('A' for Active; 'I' for Inactive)
    1  A    between atoms: C_5  and  C_30
    2  A    between atoms: C_10  and  N_16
                            x       y       z     vdW  Elec       q    Type
                         _______ _______ _______ _____ _____    ______ ____

>  <TORSDO>
F 2

$$$$
=
 OpenBabel11112416543D

 31 35  0  0  1  0  0  0  0  0999 V2000
  185.6340  178.2550  140.7800 C   0  0  0  0  0  0  0  0  0  0  0  0
  188.1120  177.7880  143.5700 N   0  0  0  0  0  0  0  0  0  0  0  0
  187.4230  177.8630  144.8420 C   0  0  0  0  0  0  0  0  0  0  0  0
  185.3990  178.1550  146.1620 C   0  0  0  0  0  0  0  0  0  0  0  0
  187.3910  177.6250  142.3310 C   0  0  0  0  0  0  0  0  0  0  0  0
  186.0570  177.2620  139.8920 C   0  0  0  0  0  3  0  0  0  0  0  0
  186.0530  178.1580  144.9280 C   0  0  0  0  0  3  0  0  0  0  0  0
  189.6560  175.9620  143.0290 C   0  0  2  0  0  3  0  0  0  0  0  0
  184.5770  179.0410  140.4630 F   0  0  0  0  0  0  0  0  0  0  0  0
  189.4850  177.2640  145.9600 O   0  0  0  0  0  0  0  0  0  0  0  0
  183.6910  178.5290  146.2470 Cl  0  0  0  0  0  0  0  0  0  0  0  0
  188.9600  175.8280  141.7480 N   0  0  0  0  0  2  0  0  0  0  0  0
  189.5350  177.4080  143.5210 C   0  0  2  0  0  3  0  0  0  0  0  0
  186.3000  178.4400  141.9950 C   0  0  0  0  0  3  0  0  0  0  0  0
  186.1040  177.8390  147.3260 C   0  0  0  0  0  3  0  0  0  0  0  0
  187.8160  176.6310  141.4290 C   0  0  0  0  0  0  0  0  0  0  0  0
  187.1500  176.4520  140.2140 C   0  0  0  0  0  3  0  0  0  0  0  0
  190.2680  177.6650  144.8410 C   0  0  0  0  0  2  0  0  0  0  0  0
  188.1250  177.5610  146.0230 C   0  0  0  0  0  0  0  0  0  0  0  0
  187.4660  177.5390  147.2550 C   0  0  0  0  0  3  0  0  0  0  0  0
  191.0400  173.9860  144.5490 O   0  0  0  0  0  0  0  0  0  0  0  0
  191.6880  174.5930  143.6530 C   0  0  0  0  0  0  0  0  0  0  0  0
  191.0570  175.6010  142.8620 N   0  0  0  0  0  2  0  0  0  0  0  0
  193.8080  171.4890  144.1270 C   0  0  1  0  0  3  0  0  0  0  0  0
  193.3040  173.1800  142.3410 C   0  0  0  0  0  2  0  0  0  0  0  0
  193.7070  174.8860  145.6720 O   0  0  0  0  0  1  0  0  0  0  0  0
  193.4610  170.1770  144.6380 N   0  0  0  0  0  1  0  0  0  0  0  0
  192.9620  171.7950  142.8940 C   0  0  0  0  0  2  0  0  0  0  0  0
  193.9190  173.9260  144.6820 C   0  0  2  0  0  3  0  0  0  0  0  0
  193.1340  174.2710  143.4050 C   0  0  2  0  0  3  0  0  0  0  0  0
  193.5630  172.5370  145.2090 C   0  0  0  0  0  2  0  0  0  0  0  0
  1 14  1  0  0  0  0
  2  3  1  0  0  0  0
  3  7  2  0  0  0  0
  3 19  1  0  0  0  0
  4 11  1  0  0  0  0
  4 15  2  0  0  0  0
  5  2  1  0  0  0  0
  6 17  1  0  0  0  0
  6  1  2  0  0  0  0
  7  4  1  0  0  0  0
  8 23  1  6  0  0  0
  8 13  1  0  0  0  0
  9  1  1  0  0  0  0
 10 19  1  0  0  0  0
 12  8  1  0  0  0  0
 13  2  1  0  0  0  0
 13 18  1  1  0  0  0
 14  5  2  0  0  0  0
 16 12  1  0  0  0  0
 16  5  1  0  0  0  0
 17 16  2  0  0  0  0
 18 10  1  0  0  0  0
 19 20  2  0  0  0  0
 20 15  1  0  0  0  0
 22 21  2  0  0  0  0
 23 22  1  0  0  0  0
 24 27  1  1  0  0  0
 24 31  1  0  0  0  0
 25 28  1  0  0  0  0
 25 30  1  0  0  0  0
 28 24  1  0  0  0  0
 29 31  1  0  0  0  0
 29 26  1  1  0  0  0
 30 22  1  1  0  0  0
 30 29  1  0  0  0  0
M  END
>  <MODEL>
6

>  <REMARK>
 VINA RESULT:      -7.9      2.684      4.698
  Name = 
  2 active torsions:
  status: ('A' for Active; 'I' for Inactive)
    1  A    between atoms: C_5  and  C_30
    2  A    between atoms: C_10  and  N_16
                            x       y       z     vdW  Elec       q    Type
                         _______ _______ _______ _____ _____    ______ ____

>  <TORSDO>
F 2

$$$$
=
 OpenBabel11112416543D

 31 35  0  0  1  0  0  0  0  0999 V2000
  187.3840  175.6810  139.0490 C   0  0  0  0  0  0  0  0  0  0  0  0
  188.2810  177.0060  142.4520 N   0  0  0  0  0  0  0  0  0  0  0  0
  187.1010  177.5710  143.0750 C   0  0  0  0  0  0  0  0  0  0  0  0
  184.7340  178.1350  143.0470 C   0  0  0  0  0  0  0  0  0  0  0  0
  188.1870  176.1570  141.2890 C   0  0  0  0  0  0  0  0  0  0  0  0
  188.0730  174.4650  139.0570 C   0  0  0  0  0  3  0  0  0  0  0  0
  185.8720  177.6500  142.4000 C   0  0  0  0  0  3  0  0  0  0  0  0
  189.7360  175.4150  143.6200 C   0  0  2  0  0  3  0  0  0  0  0  0
  186.6590  176.0400  137.9630 F   0  0  0  0  0  0  0  0  0  0  0  0
  188.3730  177.9150  145.1050 O   0  0  0  0  0  0  0  0  0  0  0  0
  183.2120  178.2270  142.1870 Cl  0  0  0  0  0  0  0  0  0  0  0  0
  189.6860  174.5750  142.4210 N   0  0  0  0  0  2  0  0  0  0  0  0
  189.5330  176.8790  143.2190 C   0  0  2  0  0  3  0  0  0  0  0  0
  187.4430  176.5270  140.1600 C   0  0  0  0  0  3  0  0  0  0  0  0
  184.8050  178.5300  144.3850 C   0  0  0  0  0  3  0  0  0  0  0  0
  188.8850  174.9340  141.2880 C   0  0  0  0  0  0  0  0  0  0  0  0
  188.8280  174.0930  140.1740 C   0  0  0  0  0  3  0  0  0  0  0  0
  189.6090  177.8490  144.4030 C   0  0  0  0  0  2  0  0  0  0  0  0
  187.1650  177.9860  144.4160 C   0  0  0  0  0  0  0  0  0  0  0  0
  186.0200  178.4530  145.0690 C   0  0  0  0  0  3  0  0  0  0  0  0
  190.1170  174.3530  146.2380 O   0  0  0  0  0  0  0  0  0  0  0  0
  191.1450  174.6960  145.5920 C   0  0  0  0  0  0  0  0  0  0  0  0
  191.0240  175.2450  144.2800 N   0  0  0  0  0  2  0  0  0  0  0  0
  194.6290  175.6970  144.4920 C   0  0  1  0  0  3  0  0  0  0  0  0
  193.1550  175.8960  146.5140 C   0  0  0  0  0  2  0  0  0  0  0  0
  192.8470  172.4580  145.0110 O   0  0  0  0  0  1  0  0  0  0  0  0
  195.0830  176.3770  143.2940 N   0  0  0  0  0  1  0  0  0  0  0  0
  193.6550  176.5950  145.2480 C   0  0  0  0  0  2  0  0  0  0  0  0
  193.4600  173.6630  145.3590 C   0  0  2  0  0  3  0  0  0  0  0  0
  192.5130  174.5410  146.1940 C   0  0  2  0  0  3  0  0  0  0  0  0
  193.9490  174.3870  144.1060 C   0  0  0  0  0  2  0  0  0  0  0  0
  1  6  2  0  0  0  0
  1 14  1  0  0  0  0
  2  3  1  0  0  0  0
  2 13  1  0  0  0  0
  3 19  1  0  0  0  0
  4 15  2  0  0  0  0
  5  2  1  0  0  0  0
  6 17  1  0  0  0  0
  7  4  1  0  0  0  0
  7  3  2  0  0  0  0
  8 23  1  6  0  0  0
  9  1  1  0  0  0  0
 11  4  1  0  0  0  0
 12  8  1  0  0  0  0
 13  8  1  0  0  0  0
 13 18  1  1  0  0  0
 14  5  2  0  0  0  0
 15 20  1  0  0  0  0
 16  5  1  0  0  0  0
 16 12  1  0  0  0  0
 17 16  2  0  0  0  0
 18 10  1  0  0  0  0
 19 20  2  0  0  0  0
 19 10  1  0  0  0  0
 22 21  2  0  0  0  0
 23 22  1  0  0  0  0
 24 27  1  6  0  0  0
 24 28  1  0  0  0  0
 28 25  1  0  0  0  0
 29 26  1  6  0  0  0
 29 30  1  0  0  0  0
 30 22  1  6  0  0  0
 30 25  1  0  0  0  0
 31 24  1  0  0  0  0
 31 29  1  0  0  0  0
M  END
>  <MODEL>
7

>  <REMARK>
 VINA RESULT:      -7.7      2.533      4.386
  Name = 
  2 active torsions:
  status: ('A' for Active; 'I' for Inactive)
    1  A    between atoms: C_5  and  C_30
    2  A    between atoms: C_10  and  N_16
                            x       y       z     vdW  Elec       q    Type
                         _______ _______ _______ _____ _____    ______ ____

>  <TORSDO>
F 2

$$$$
=
 OpenBabel11112416543D

 31 35  0  0  1  0  0  0  0  0999 V2000
  191.5150  173.1410  141.2000 C   0  0  0  0  0  0  0  0  0  0  0  0
  191.1920  174.4390  144.7150 N   0  0  0  0  0  0  0  0  0  0  0  0
  192.4870  174.8890  145.1820 C   0  0  0  0  0  0  0  0  0  0  0  0
  194.8720  175.2460  144.8520 C   0  0  0  0  0  0  0  0  0  0  0  0
  190.9420  174.1800  143.3170 C   0  0  0  0  0  0  0  0  0  0  0  0
  190.3770  173.7030  140.6130 C   0  0  0  0  0  3  0  0  0  0  0  0
  193.6480  174.7410  144.4060 C   0  0  0  0  0  3  0  0  0  0  0  0
  189.1790  175.8240  144.9210 C   0  0  2  0  0  3  0  0  0  0  0  0
  192.3460  172.3680  140.4610 F   0  0  0  0  0  0  0  0  0  0  0  0
  191.4380  175.7170  147.2010 O   0  0  0  0  0  0  0  0  0  0  0  0
  196.3070  175.0480  143.8710 Cl  0  0  0  0  0  0  0  0  0  0  0  0
  188.8950  175.5210  143.5170 N   0  0  0  0  0  2  0  0  0  0  0  0
  189.9870  174.6760  145.5310 C   0  0  2  0  0  3  0  0  0  0  0  0
  191.7960  173.3750  142.5490 C   0  0  0  0  0  3  0  0  0  0  0  0
  194.9470  175.9220  146.0710 C   0  0  0  0  0  3  0  0  0  0  0  0
  189.7940  174.7370  142.7220 C   0  0  0  0  0  0  0  0  0  0  0  0
  189.5140  174.4970  141.3750 C   0  0  0  0  0  3  0  0  0  0  0  0
  190.3040  174.8780  147.0170 C   0  0  0  0  0  2  0  0  0  0  0  0
  192.5780  175.5580  146.4160 C   0  0  0  0  0  0  0  0  0  0  0  0
  193.7990  176.0800  146.8510 C   0  0  0  0  0  3  0  0  0  0  0  0
  188.6910  177.8100  146.9070 O   0  0  0  0  0  0  0  0  0  0  0  0
  187.7450  177.0240  146.6220 C   0  0  0  0  0  0  0  0  0  0  0  0
  187.9260  176.0000  145.6430 N   0  0  0  0  0  2  0  0  0  0  0  0
  184.4980  178.7820  145.7740 C   0  0  1  0  0  3  0  0  0  0  0  0
  185.2870  176.5090  146.4930 C   0  0  0  0  0  2  0  0  0  0  0  0
  187.1170  179.1870  148.4030 O   0  0  0  0  0  1  0  0  0  0  0  0
  184.1340  179.5940  144.6280 N   0  0  0  0  0  1  0  0  0  0  0  0
  184.8900  177.3840  145.3020 C   0  0  0  0  0  2  0  0  0  0  0  0
  186.0600  178.5870  147.7180 C   0  0  2  0  0  3  0  0  0  0  0  0
  186.4160  177.1470  147.3110 C   0  0  2  0  0  3  0  0  0  0  0  0
  185.6620  179.4360  146.5110 C   0  0  0  0  0  2  0  0  0  0  0  0
  1 14  1  0  0  0  0
  2  3  1  0  0  0  0
  2 13  1  0  0  0  0
  3 19  1  0  0  0  0
  4 15  2  0  0  0  0
  5  2  1  0  0  0  0
  6  1  2  0  0  0  0
  6 17  1  0  0  0  0
  7  4  1  0  0  0  0
  7  3  2  0  0  0  0
  8 13  1  0  0  0  0
  8 23  1  1  0  0  0
  9  1  1  0  0  0  0
 11  4  1  0  0  0  0
 12  8  1  0  0  0  0
 13 18  1  1  0  0  0
 14  5  2  0  0  0  0
 15 20  1  0  0  0  0
 16  5  1  0  0  0  0
 16 12  1  0  0  0  0
 17 16  2  0  0  0  0
 18 10  1  0  0  0  0
 19 20  2  0  0  0  0
 19 10  1  0  0  0  0
 22 21  2  0  0  0  0
 23 22  1  0  0  0  0
 24 27  1  6  0  0  0
 24 31  1  0  0  0  0
 25 30  1  0  0  0  0
 28 24  1  0  0  0  0
 28 25  1  0  0  0  0
 29 26  1  6  0  0  0
 30 22  1  6  0  0  0
 30 29  1  0  0  0  0
 31 29  1  0  0  0  0
M  END
>  <MODEL>
8

>  <REMARK>
 VINA RESULT:      -7.7      4.020      8.119
  Name = 
  2 active torsions:
  status: ('A' for Active; 'I' for Inactive)
    1  A    between atoms: C_5  and  C_30
    2  A    between atoms: C_10  and  N_16
                            x       y       z     vdW  Elec       q    Type
                         _______ _______ _______ _____ _____    ______ ____

>  <TORSDO>
F 2

$$$$
=
 OpenBabel11112416543D

 31 35  0  0  1  0  0  0  0  0999 V2000
  186.2080  178.7690  142.5680 C   0  0  0  0  0  0  0  0  0  0  0  0
  188.9990  176.3760  143.3580 N   0  0  0  0  0  0  0  0  0  0  0  0
  188.9020  175.9660  144.7440 C   0  0  0  0  0  0  0  0  0  0  0  0
  187.8210  176.0370  146.9230 C   0  0  0  0  0  0  0  0  0  0  0  0
  187.9050  177.0390  142.6900 C   0  0  0  0  0  0  0  0  0  0  0  0
  185.8030  178.2890  141.3190 C   0  0  0  0  0  3  0  0  0  0  0  0
  187.9360  176.5010  145.6100 C   0  0  0  0  0  3  0  0  0  0  0  0
  189.2630  174.7570  141.5350 C   0  0  2  0  0  3  0  0  0  0  0  0
  185.5820  179.8380  143.1170 F   0  0  0  0  0  0  0  0  0  0  0  0
  190.7160  174.4050  144.3770 O   0  0  0  0  0  0  0  0  0  0  0  0
  186.6110  176.7200  147.9880 Cl  0  0  0  0  0  0  0  0  0  0  0  0
  188.1880  175.4600  140.8310 N   0  0  0  0  0  2  0  0  0  0  0  0
  189.9830  175.7390  142.4640 C   0  0  2  0  0  3  0  0  0  0  0  0
  187.2580  178.1490  143.2510 C   0  0  0  0  0  3  0  0  0  0  0  0
  188.6590  175.0180  147.3800 C   0  0  0  0  0  3  0  0  0  0  0  0
  187.4970  176.5640  141.4280 C   0  0  0  0  0  0  0  0  0  0  0  0
  186.4500  177.1900  140.7470 C   0  0  0  0  0  3  0  0  0  0  0  0
  191.1560  175.1090  143.2220 C   0  0  0  0  0  2  0  0  0  0  0  0
  189.7510  174.9510  145.2200 C   0  0  0  0  0  0  0  0  0  0  0  0
  189.6210  174.4740  146.5280 C   0  0  0  0  0  3  0  0  0  0  0  0
  189.0410  172.1860  140.3240 O   0  0  0  0  0  0  0  0  0  0  0  0
  190.0220  172.9060  139.9890 C   0  0  0  0  0  0  0  0  0  0  0  0
  190.1970  174.2010  140.5660 N   0  0  0  0  0  2  0  0  0  0  0  0
  190.9600  169.4790  138.6750 C   0  0  1  0  0  3  0  0  0  0  0  0
  190.3490  171.7450  137.7820 C   0  0  0  0  0  2  0  0  0  0  0  0
  192.6740  172.0880  140.7230 O   0  0  0  0  0  1  0  0  0  0  0  0
  190.4420  168.1660  139.0070 N   0  0  0  0  0  1  0  0  0  0  0  0
  189.8290  170.3490  138.1320 C   0  0  0  0  0  2  0  0  0  0  0  0
  192.1090  171.5050  139.5880 C   0  0  2  0  0  3  0  0  0  0  0  0
  191.0240  172.4140  138.9850 C   0  0  2  0  0  3  0  0  0  0  0  0
  191.5650  170.1170  139.9210 C   0  0  0  0  0  2  0  0  0  0  0  0
  1  9  1  0  0  0  0
  1 14  1  0  0  0  0
  2  3  1  0  0  0  0
  3 19  2  0  0  0  0
  3  7  1  0  0  0  0
  4 15  1  0  0  0  0
  4 11  1  0  0  0  0
  5 14  2  0  0  0  0
  5  2  1  0  0  0  0
  6  1  2  0  0  0  0
  7  4  2  0  0  0  0
  8 23  1  6  0  0  0
  8 13  1  0  0  0  0
 10 19  1  0  0  0  0
 12 16  1  0  0  0  0
 12  8  1  0  0  0  0
 13 18  1  1  0  0  0
 13  2  1  0  0  0  0
 16  5  1  0  0  0  0
 17  6  1  0  0  0  0
 17 16  2  0  0  0  0
 18 10  1  0  0  0  0
 19 20  1  0  0  0  0
 20 15  2  0  0  0  0
 22 21  2  0  0  0  0
 22 23  1  0  0  0  0
 24 27  1  1  0  0  0
 24 31  1  0  0  0  0
 25 28  1  0  0  0  0
 25 30  1  0  0  0  0
 28 24  1  0  0  0  0
 29 31  1  0  0  0  0
 29 26  1  1  0  0  0
 30 29  1  0  0  0  0
 30 22  1  1  0  0  0
M  END
>  <MODEL>
9

>  <REMARK>
 VINA RESULT:      -7.5      4.402      6.399
  Name = 
  2 active torsions:
  status: ('A' for Active; 'I' for Inactive)
    1  A    between atoms: C_5  and  C_30
    2  A    between atoms: C_10  and  N_16
                            x       y       z     vdW  Elec       q    Type
                         _______ _______ _______ _____ _____    ______ ____

>  <TORSDO>
F 2

$$$$
