=
 OpenBabel11112416543D

 31 35  0  0  1  0  0  0  0  0999 V2000
  184.8080  178.3110  146.7500 C   0  0  0  0  0  0  0  0  0  0  0  0
  187.3970  175.8960  145.3510 C   0  0  2  0  0  3  0  0  0  0  0  0
  187.5110  176.2070  143.8630 C   0  0  0  0  0  0  0  0  0  0  0  0
  186.5200  177.1120  141.8300 C   0  0  0  0  0  0  0  0  0  0  0  0
  186.7800  177.0220  146.1530 C   0  0  0  0  0  0  0  0  0  0  0  0
  185.5890  179.1440  147.5520 C   0  0  0  0  0  3  0  0  0  0  0  0
  186.4740  176.8900  143.2070 C   0  0  0  0  0  3  0  0  0  0  0  0
  189.6480  176.6350  146.2260 C   0  0  2  0  0  3  0  0  0  0  0  0
  183.4750  178.5280  146.6420 F   0  0  0  0  0  0  0  0  0  0  0  0
  189.7340  174.9650  143.7120 C   0  0  0  0  0  2  0  0  0  0  0  0
  185.2240  177.9840  141.0420 Cl  0  0  0  0  0  0  0  0  0  0  0  0
  189.0130  177.5750  147.2490 C   0  0  0  0  0  2  0  0  0  0  0  0
  188.7280  175.4320  145.9700 C   0  0  2  0  0  3  0  0  0  0  0  0
  185.4010  177.2530  146.0580 C   0  0  0  0  0  3  0  0  0  0  0  0
  187.5960  176.6340  141.0820 C   0  0  0  0  0  3  0  0  0  0  0  0
  187.5670  177.8630  146.9740 C   0  0  0  0  0  0  0  0  0  0  0  0
  186.9610  178.9140  147.6700 C   0  0  0  0  0  3  0  0  0  0  0  0
  189.3780  174.3770  145.0740 C   0  0  0  0  0  2  0  0  0  0  0  0
  188.5800  175.6920  143.0890 C   0  0  0  0  0  0  0  0  0  0  0  0
  188.6220  175.9280  141.7110 C   0  0  0  0  0  3  0  0  0  0  0  0
  192.1600  177.0450  144.9240 O   0  0  0  0  0  0  0  0  0  0  0  0
  192.1640  176.4200  146.0170 C   0  0  0  0  0  0  0  0  0  0  0  0
  190.9410  176.1840  146.7200 N   0  0  0  0  0  2  0  0  0  0  0  0
  195.2420  176.4490  144.3410 C   0  0  0  0  0  0  0  0  0  0  0  0
  194.5170  176.9910  146.6900 C   0  0  0  0  0  2  0  0  0  0  0  0
  193.0590  173.5960  145.5180 C   0  0  0  0  0  1  0  0  0  0  0  0
  195.9350  176.7010  143.3220 O   0  0  0  0  0  0  0  0  0  0  0  0
  194.9680  177.5400  145.3330 C   0  0  0  0  0  2  0  0  0  0  0  0
  194.0560  174.7180  145.7470 C   0  0  2  0  0  3  0  0  0  0  0  0
  193.4660  175.8870  146.5500 C   0  0  2  0  0  3  0  0  0  0  0  0
  194.6330  175.1620  144.4820 N   0  0  0  0  0  2  0  0  0  0  0  0
  1  6  1  0  0  0  0
  2  3  1  6  0  0  0
  2 13  1  0  0  0  0
  2  5  1  0  0  0  0
  4  7  2  0  0  0  0
  5 16  2  0  0  0  0
  6 17  2  0  0  0  0
  7  3  1  0  0  0  0
  8 23  1  1  0  0  0
  8 12  1  0  0  0  0
  9  1  1  0  0  0  0
 10 18  1  0  0  0  0
 11  4  1  0  0  0  0
 13 18  1  6  0  0  0
 13  8  1  0  0  0  0
 14  5  1  0  0  0  0
 14  1  2  0  0  0  0
 15 20  2  0  0  0  0
 15  4  1  0  0  0  0
 16 12  1  0  0  0  0
 16 17  1  0  0  0  0
 19 10  1  0  0  0  0
 19  3  2  0  0  0  0
 20 19  1  0  0  0  0
 21 22  2  0  0  0  0
 22 23  1  0  0  0  0
 24 31  1  0  0  0  0
 24 28  1  0  0  0  0
 27 24  2  0  0  0  0
 28 25  1  0  0  0  0
 29 26  1  6  0  0  0
 29 30  1  0  0  0  0
 30 22  1  6  0  0  0
 30 25  1  0  0  0  0
 31 29  1  0  0  0  0
M  END
>  <MODEL>
1

>  <REMARK>
 VINA RESULT:      -9.3      0.000      0.000
  Name = 
  2 active torsions:
  status: ('A' for Active; 'I' for Inactive)
    1  A    between atoms: C_5  and  C_30
    2  A    between atoms: C_10  and  N_16
                            x       y       z     vdW  Elec       q    Type
                         _______ _______ _______ _____ _____    ______ ____

>  <TORSDO>
F 2

$$$$
=
 OpenBabel11112416543D

 31 35  0  0  1  0  0  0  0  0999 V2000
  184.7680  177.8760  146.6800 C   0  0  0  0  0  0  0  0  0  0  0  0
  187.1370  175.9960  144.3680 C   0  0  2  0  0  3  0  0  0  0  0  0
  186.9120  176.5650  142.9710 C   0  0  0  0  0  0  0  0  0  0  0  0
  185.4590  177.7040  141.3820 C   0  0  0  0  0  0  0  0  0  0  0  0
  186.6390  176.9040  145.4730 C   0  0  0  0  0  0  0  0  0  0  0  0
  185.6520  178.6320  147.4520 C   0  0  0  0  0  3  0  0  0  0  0  0
  185.7210  177.2470  142.6750 C   0  0  0  0  0  3  0  0  0  0  0  0
  189.4750  176.7890  144.9000 C   0  0  2  0  0  3  0  0  0  0  0  0
  183.4320  177.9790  146.8820 F   0  0  0  0  0  0  0  0  0  0  0  0
  189.1210  175.5870  142.1520 C   0  0  0  0  0  2  0  0  0  0  0  0
  183.9750  178.5670  141.0450 Cl  0  0  0  0  0  0  0  0  0  0  0  0
  189.0190  177.4750  146.1860 C   0  0  0  0  0  2  0  0  0  0  0  0
  188.5940  175.5640  144.6120 C   0  0  2  0  0  3  0  0  0  0  0  0
  185.2610  177.0140  145.6990 C   0  0  0  0  0  3  0  0  0  0  0  0
  186.3770  177.4660  140.3590 C   0  0  0  0  0  3  0  0  0  0  0  0
  187.5320  177.6650  146.2620 C   0  0  0  0  0  0  0  0  0  0  0  0
  187.0280  178.5190  147.2490 C   0  0  0  0  0  3  0  0  0  0  0  0
  189.0990  174.7450  143.4240 C   0  0  0  0  0  2  0  0  0  0  0  0
  187.8200  176.2950  141.9180 C   0  0  0  0  0  0  0  0  0  0  0  0
  187.5530  176.7660  140.6280 C   0  0  0  0  0  3  0  0  0  0  0  0
  191.6670  177.8790  143.4240 O   0  0  0  0  0  0  0  0  0  0  0  0
  191.9210  176.9730  144.2610 C   0  0  0  0  0  0  0  0  0  0  0  0
  190.8680  176.3870  145.0330 N   0  0  0  0  0  2  0  0  0  0  0  0
  192.9210  173.6270  144.5480 C   0  0  0  0  0  0  0  0  0  0  0  0
  193.7530  175.6010  143.2260 C   0  0  0  0  0  2  0  0  0  0  0  0
  193.1960  176.5360  146.9460 C   0  0  0  0  0  1  0  0  0  0  0  0
  192.6480  172.4020  144.6350 O   0  0  0  0  0  0  0  0  0  0  0  0
  192.9930  174.2720  143.1960 C   0  0  0  0  0  2  0  0  0  0  0  0
  193.6280  175.7490  145.7220 C   0  0  2  0  0  3  0  0  0  0  0  0
  193.3350  176.4830  144.4050 C   0  0  2  0  0  3  0  0  0  0  0  0
  193.0500  174.4090  145.7400 N   0  0  0  0  0  2  0  0  0  0  0  0
  1  9  1  0  0  0  0
  1  6  1  0  0  0  0
  2  3  1  6  0  0  0
  2 13  1  0  0  0  0
  2  5  1  0  0  0  0
  4  7  2  0  0  0  0
  5 14  1  0  0  0  0
  5 16  2  0  0  0  0
  7  3  1  0  0  0  0
  8 23  1  1  0  0  0
  8 12  1  0  0  0  0
 10 18  1  0  0  0  0
 11  4  1  0  0  0  0
 12 16  1  0  0  0  0
 13 18  1  6  0  0  0
 13  8  1  0  0  0  0
 14  1  2  0  0  0  0
 15 20  2  0  0  0  0
 15  4  1  0  0  0  0
 16 17  1  0  0  0  0
 17  6  2  0  0  0  0
 19 10  1  0  0  0  0
 19  3  2  0  0  0  0
 20 19  1  0  0  0  0
 21 22  2  0  0  0  0
 22 23  1  0  0  0  0
 24 27  2  0  0  0  0
 24 31  1  0  0  0  0
 25 30  1  0  0  0  0
 28 25  1  0  0  0  0
 28 24  1  0  0  0  0
 29 31  1  0  0  0  0
 29 26  1  1  0  0  0
 30 22  1  6  0  0  0
 30 29  1  0  0  0  0
M  END
>  <MODEL>
2

>  <REMARK>
 VINA RESULT:      -9.1      1.493      2.106
  Name = 
  2 active torsions:
  status: ('A' for Active; 'I' for Inactive)
    1  A    between atoms: C_5  and  C_30
    2  A    between atoms: C_10  and  N_16
                            x       y       z     vdW  Elec       q    Type
                         _______ _______ _______ _____ _____    ______ ____

>  <TORSDO>
F 2

$$$$
=
 OpenBabel11112416543D

 31 35  0  0  1  0  0  0  0  0999 V2000
  194.3670  176.3830  145.1200 C   0  0  0  0  0  0  0  0  0  0  0  0
  190.9530  177.0660  143.5800 C   0  0  2  0  0  3  0  0  0  0  0  0
  190.6110  175.8410  142.7380 C   0  0  0  0  0  0  0  0  0  0  0  0
  191.3510  173.8960  141.4740 C   0  0  0  0  0  0  0  0  0  0  0  0
  192.0270  176.8030  144.6130 C   0  0  0  0  0  0  0  0  0  0  0  0
  194.0520  176.2330  146.4710 C   0  0  0  0  0  3  0  0  0  0  0  0
  191.6310  174.9760  142.3120 C   0  0  0  0  0  3  0  0  0  0  0  0
  189.2570  176.9250  145.4450 C   0  0  2  0  0  3  0  0  0  0  0  0
  195.6480  176.2480  144.7020 F   0  0  0  0  0  0  0  0  0  0  0  0
  188.1480  176.5030  142.6680 C   0  0  0  0  0  2  0  0  0  0  0  0
  192.6380  172.8210  140.9740 Cl  0  0  0  0  0  0  0  0  0  0  0  0
  190.3420  176.9480  146.5200 C   0  0  0  0  0  2  0  0  0  0  0  0
  189.7140  177.7220  144.2140 C   0  0  2  0  0  3  0  0  0  0  0  0
  193.3590  176.6700  144.1970 C   0  0  0  0  0  3  0  0  0  0  0  0
  190.0460  173.6770  141.0290 C   0  0  0  0  0  3  0  0  0  0  0  0
  191.7140  176.6580  145.9850 C   0  0  0  0  0  0  0  0  0  0  0  0
  192.7330  176.3800  146.9020 C   0  0  0  0  0  3  0  0  0  0  0  0
  188.6090  177.8690  143.1680 C   0  0  0  0  0  2  0  0  0  0  0  0
  189.2970  175.6340  142.2510 C   0  0  0  0  0  0  0  0  0  0  0  0
  189.0250  174.5430  141.4190 C   0  0  0  0  0  3  0  0  0  0  0  0
  187.4560  175.5980  147.2250 O   0  0  0  0  0  0  0  0  0  0  0  0
  187.1680  176.7720  146.8720 C   0  0  0  0  0  0  0  0  0  0  0  0
  188.0290  177.4920  145.9850 N   0  0  0  0  0  2  0  0  0  0  0  0
  185.2940  179.2140  145.1990 C   0  0  0  0  0  0  0  0  0  0  0  0
  184.7180  177.0880  146.4170 C   0  0  0  0  0  2  0  0  0  0  0  0
  187.1280  179.2940  148.5040 C   0  0  0  0  0  1  0  0  0  0  0  0
  185.1310  180.0020  144.2320 O   0  0  0  0  0  0  0  0  0  0  0  0
  184.8710  177.7820  145.0610 C   0  0  0  0  0  2  0  0  0  0  0  0
  185.9600  178.9020  147.6150 C   0  0  2  0  0  3  0  0  0  0  0  0
  185.8860  177.3890  147.3590 C   0  0  2  0  0  3  0  0  0  0  0  0
  185.9800  179.6650  146.3710 N   0  0  0  0  0  2  0  0  0  0  0  0
  1  6  1  0  0  0  0
  2  3  1  1  0  0  0
  2 13  1  0  0  0  0
  2  5  1  0  0  0  0
  4  7  2  0  0  0  0
  5 16  2  0  0  0  0
  6 17  2  0  0  0  0
  7  3  1  0  0  0  0
  8 23  1  1  0  0  0
  8 12  1  0  0  0  0
  9  1  1  0  0  0  0
 10 18  1  0  0  0  0
 11  4  1  0  0  0  0
 13 18  1  6  0  0  0
 13  8  1  0  0  0  0
 14  5  1  0  0  0  0
 14  1  2  0  0  0  0
 15 20  2  0  0  0  0
 15  4  1  0  0  0  0
 16 12  1  0  0  0  0
 16 17  1  0  0  0  0
 19 10  1  0  0  0  0
 19  3  2  0  0  0  0
 20 19  1  0  0  0  0
 22 21  2  0  0  0  0
 23 22  1  0  0  0  0
 24 31  1  0  0  0  0
 25 30  1  0  0  0  0
 27 24  2  0  0  0  0
 28 24  1  0  0  0  0
 28 25  1  0  0  0  0
 29 26  1  6  0  0  0
 30 22  1  6  0  0  0
 30 29  1  0  0  0  0
 31 29  1  0  0  0  0
M  END
>  <MODEL>
3

>  <REMARK>
 VINA RESULT:      -9.0      3.904      7.056
  Name = 
  2 active torsions:
  status: ('A' for Active; 'I' for Inactive)
    1  A    between atoms: C_5  and  C_30
    2  A    between atoms: C_10  and  N_16
                            x       y       z     vdW  Elec       q    Type
                         _______ _______ _______ _____ _____    ______ ____

>  <TORSDO>
F 2

$$$$
=
 OpenBabel11112416543D

 31 35  0  0  1  0  0  0  0  0999 V2000
  185.9420  178.2830  140.8540 C   0  0  0  0  0  0  0  0  0  0  0  0
  188.3910  178.2040  143.7670 C   0  0  2  0  0  3  0  0  0  0  0  0
  187.5620  177.9160  145.0150 C   0  0  0  0  0  0  0  0  0  0  0  0
  185.4160  177.9820  146.1650 C   0  0  0  0  0  0  0  0  0  0  0  0
  187.6890  177.8270  142.4810 C   0  0  0  0  0  0  0  0  0  0  0  0
  186.2950  177.1340  140.1450 C   0  0  0  0  0  3  0  0  0  0  0  0
  186.1790  178.1610  145.0100 C   0  0  0  0  0  3  0  0  0  0  0  0
  189.7560  176.0930  143.5310 C   0  0  2  0  0  3  0  0  0  0  0  0
  184.9230  179.0620  140.4190 F   0  0  0  0  0  0  0  0  0  0  0  0
  189.6490  177.2460  146.3200 C   0  0  0  0  0  2  0  0  0  0  0  0
  183.6920  178.2750  146.1270 Cl  0  0  0  0  0  0  0  0  0  0  0  0
  189.2640  175.8580  142.1050 C   0  0  0  0  0  2  0  0  0  0  0  0
  189.8040  177.5980  143.8330 C   0  0  2  0  0  3  0  0  0  0  0  0
  186.6390  178.6290  142.0140 C   0  0  0  0  0  3  0  0  0  0  0  0
  186.0290  177.5750  147.3510 C   0  0  0  0  0  3  0  0  0  0  0  0
  188.0500  176.6680  141.7540 C   0  0  0  0  0  0  0  0  0  0  0  0
  187.3510  176.3360  140.5890 C   0  0  0  0  0  3  0  0  0  0  0  0
  190.4380  177.9030  145.1910 C   0  0  0  0  0  2  0  0  0  0  0  0
  188.1820  177.5410  146.2320 C   0  0  0  0  0  0  0  0  0  0  0  0
  187.4070  177.3550  147.3820 C   0  0  0  0  0  3  0  0  0  0  0  0
  190.4090  173.9170  145.2670 O   0  0  0  0  0  0  0  0  0  0  0  0
  191.3400  174.4150  144.5800 C   0  0  0  0  0  0  0  0  0  0  0  0
  191.0780  175.5040  143.6900 N   0  0  0  0  0  2  0  0  0  0  0  0
  194.2120  176.3180  145.2190 C   0  0  0  0  0  0  0  0  0  0  0  0
  193.2940  174.1610  146.1380 C   0  0  0  0  0  2  0  0  0  0  0  0
  193.2360  174.1750  142.2620 C   0  0  0  0  0  1  0  0  0  0  0  0
  194.7790  177.4280  145.3880 O   0  0  0  0  0  0  0  0  0  0  0  0
  193.5310  175.6540  146.3800 C   0  0  0  0  0  2  0  0  0  0  0  0
  193.7360  174.3700  143.6820 C   0  0  2  0  0  3  0  0  0  0  0  0
  192.7360  173.8800  144.7400 C   0  0  2  0  0  3  0  0  0  0  0  0
  194.1280  175.7590  143.9050 N   0  0  0  0  0  2  0  0  0  0  0  0
  1 14  1  0  0  0  0
  2  5  1  6  0  0  0
  2 13  1  0  0  0  0
  2  3  1  0  0  0  0
  3 19  1  0  0  0  0
  4 15  2  0  0  0  0
  6 17  1  0  0  0  0
  6  1  2  0  0  0  0
  7  3  2  0  0  0  0
  7  4  1  0  0  0  0
  8 23  1  6  0  0  0
  8 13  1  0  0  0  0
  9  1  1  0  0  0  0
 11  4  1  0  0  0  0
 12  8  1  0  0  0  0
 13 18  1  1  0  0  0
 14  5  2  0  0  0  0
 15 20  1  0  0  0  0
 16 12  1  0  0  0  0
 16  5  1  0  0  0  0
 17 16  2  0  0  0  0
 18 10  1  0  0  0  0
 19 10  1  0  0  0  0
 19 20  2  0  0  0  0
 22 21  2  0  0  0  0
 23 22  1  0  0  0  0
 24 27  2  0  0  0  0
 24 28  1  0  0  0  0
 25 28  1  0  0  0  0
 29 26  1  6  0  0  0
 29 31  1  0  0  0  0
 29 30  1  0  0  0  0
 30 22  1  6  0  0  0
 30 25  1  0  0  0  0
 31 24  1  0  0  0  0
M  END
>  <MODEL>
4

>  <REMARK>
 VINA RESULT:      -8.8      2.259      4.277
  Name = 
  2 active torsions:
  status: ('A' for Active; 'I' for Inactive)
    1  A    between atoms: C_5  and  C_30
    2  A    between atoms: C_10  and  N_16
                            x       y       z     vdW  Elec       q    Type
                         _______ _______ _______ _____ _____    ______ ____

>  <TORSDO>
F 2

$$$$
=
 OpenBabel11112416543D

 31 35  0  0  1  0  0  0  0  0999 V2000
  186.4930  177.9160  140.7820 C   0  0  0  0  0  0  0  0  0  0  0  0
  188.7820  177.7910  143.8200 C   0  0  2  0  0  3  0  0  0  0  0  0
  187.8740  177.6170  145.0330 C   0  0  0  0  0  0  0  0  0  0  0  0
  185.6840  177.8860  146.0660 C   0  0  0  0  0  0  0  0  0  0  0  0
  188.1190  177.4080  142.5150 C   0  0  0  0  0  0  0  0  0  0  0  0
  186.7960  176.7150  140.1390 C   0  0  0  0  0  3  0  0  0  0  0  0
  186.5150  177.9590  144.9470 C   0  0  0  0  0  3  0  0  0  0  0  0
  189.9990  175.5800  143.7420 C   0  0  2  0  0  3  0  0  0  0  0  0
  185.5560  178.7450  140.2630 F   0  0  0  0  0  0  0  0  0  0  0  0
  189.8400  176.8590  146.4720 C   0  0  0  0  0  2  0  0  0  0  0  0
  183.9900  178.2980  145.9250 Cl  0  0  0  0  0  0  0  0  0  0  0  0
  189.5620  175.3190  142.3020 C   0  0  0  0  0  2  0  0  0  0  0  0
  190.1420  177.0900  143.9850 C   0  0  2  0  0  3  0  0  0  0  0  0
  187.1550  178.2620  141.9620 C   0  0  0  0  0  3  0  0  0  0  0  0
  186.2070  177.4890  147.2980 C   0  0  0  0  0  3  0  0  0  0  0  0
  188.4300  176.1960  141.8560 C   0  0  0  0  0  0  0  0  0  0  0  0
  187.7680  175.8640  140.6690 C   0  0  0  0  0  3  0  0  0  0  0  0
  190.7290  177.4090  145.3610 C   0  0  0  0  0  2  0  0  0  0  0  0
  188.4040  177.2530  146.2960 C   0  0  0  0  0  0  0  0  0  0  0  0
  187.5610  177.1730  147.4090 C   0  0  0  0  0  3  0  0  0  0  0  0
  192.4320  176.0250  142.3060 O   0  0  0  0  0  0  0  0  0  0  0  0
  192.4490  175.1740  143.2350 C   0  0  0  0  0  0  0  0  0  0  0  0
  191.2660  174.9070  143.9930 N   0  0  0  0  0  2  0  0  0  0  0  0
  192.6820  171.7470  143.9260 C   0  0  0  0  0  0  0  0  0  0  0  0
  193.9660  173.3310  142.4500 C   0  0  0  0  0  2  0  0  0  0  0  0
  193.5180  174.7850  146.0160 C   0  0  0  0  0  1  0  0  0  0  0  0
  192.1430  170.6280  144.1270 O   0  0  0  0  0  0  0  0  0  0  0  0
  192.9340  172.2030  142.5200 C   0  0  0  0  0  2  0  0  0  0  0  0
  193.8030  173.7880  144.9060 C   0  0  2  0  0  3  0  0  0  0  0  0
  193.7170  174.4120  143.5050 C   0  0  2  0  0  3  0  0  0  0  0  0
  192.9430  172.6150  145.0340 N   0  0  0  0  0  2  0  0  0  0  0  0
  1 14  1  0  0  0  0
  2  5  1  6  0  0  0
  2 13  1  0  0  0  0
  2  3  1  0  0  0  0
  3 19  1  0  0  0  0
  4 15  2  0  0  0  0
  6 17  1  0  0  0  0
  6  1  2  0  0  0  0
  7  3  2  0  0  0  0
  7  4  1  0  0  0  0
  8 13  1  0  0  0  0
  8 23  1  6  0  0  0
  9  1  1  0  0  0  0
 11  4  1  0  0  0  0
 12  8  1  0  0  0  0
 13 18  1  1  0  0  0
 14  5  2  0  0  0  0
 15 20  1  0  0  0  0
 16 12  1  0  0  0  0
 16  5  1  0  0  0  0
 17 16  2  0  0  0  0
 18 10  1  0  0  0  0
 19 10  1  0  0  0  0
 19 20  2  0  0  0  0
 21 22  2  0  0  0  0
 22 23  1  0  0  0  0
 24 27  2  0  0  0  0
 24 31  1  0  0  0  0
 25 28  1  0  0  0  0
 25 30  1  0  0  0  0
 28 24  1  0  0  0  0
 29 31  1  0  0  0  0
 29 26  1  1  0  0  0
 30 22  1  6  0  0  0
 30 29  1  0  0  0  0
M  END
>  <MODEL>
5

>  <REMARK>
 VINA RESULT:      -7.8      2.619      4.727
  Name = 
  2 active torsions:
  status: ('A' for Active; 'I' for Inactive)
    1  A    between atoms: C_5  and  C_30
    2  A    between atoms: C_10  and  N_16
                            x       y       z     vdW  Elec       q    Type
                         _______ _______ _______ _____ _____    ______ ____

>  <TORSDO>
F 2

$$$$
=
 OpenBabel11112416543D

 31 35  0  0  1  0  0  0  0  0999 V2000
  185.9280  179.0140  142.9620 C   0  0  0  0  0  0  0  0  0  0  0  0
  189.0710  176.9430  143.5300 C   0  0  2  0  0  3  0  0  0  0  0  0
  188.8590  176.1940  144.8410 C   0  0  0  0  0  0  0  0  0  0  0  0
  187.7550  176.0340  147.0060 C   0  0  0  0  0  0  0  0  0  0  0  0
  187.7850  177.4470  142.9110 C   0  0  0  0  0  0  0  0  0  0  0  0
  185.3540  178.3770  141.8600 C   0  0  0  0  0  3  0  0  0  0  0  0
  187.9080  176.6550  145.7660 C   0  0  0  0  0  3  0  0  0  0  0  0
  189.0430  175.0720  141.8340 C   0  0  2  0  0  3  0  0  0  0  0  0
  185.3090  180.0770  143.5280 F   0  0  0  0  0  0  0  0  0  0  0  0
  190.7360  174.5600  144.2810 C   0  0  0  0  0  2  0  0  0  0  0  0
  186.5490  176.6160  148.1320 Cl  0  0  0  0  0  0  0  0  0  0  0  0
  187.9200  175.7290  141.0330 C   0  0  0  0  0  2  0  0  0  0  0  0
  189.9070  176.1460  142.5130 C   0  0  2  0  0  3  0  0  0  0  0  0
  187.1390  178.5520  143.4820 C   0  0  0  0  0  3  0  0  0  0  0  0
  188.5680  174.9530  147.3510 C   0  0  0  0  0  3  0  0  0  0  0  0
  187.2050  176.8090  141.7900 C   0  0  0  0  0  0  0  0  0  0  0  0
  185.9960  177.2860  141.2720 C   0  0  0  0  0  3  0  0  0  0  0  0
  191.1400  175.5570  143.2000 C   0  0  0  0  0  2  0  0  0  0  0  0
  189.7060  175.1220  145.2140 C   0  0  0  0  0  0  0  0  0  0  0  0
  189.5380  174.4990  146.4560 C   0  0  0  0  0  3  0  0  0  0  0  0
  189.2100  172.2190  141.8830 O   0  0  0  0  0  0  0  0  0  0  0  0
  189.8990  172.8290  141.0230 C   0  0  0  0  0  0  0  0  0  0  0  0
  189.8580  174.2570  140.9450 N   0  0  0  0  0  2  0  0  0  0  0  0
  192.9800  173.8990  139.7410 C   0  0  0  0  0  0  0  0  0  0  0  0
  192.1540  171.7510  140.7620 C   0  0  0  0  0  2  0  0  0  0  0  0
  189.7210  173.0360  138.0310 C   0  0  0  0  0  1  0  0  0  0  0  0
  193.8680  174.7800  139.6100 O   0  0  0  0  0  0  0  0  0  0  0  0
  192.9870  173.0210  140.9570 C   0  0  0  0  0  2  0  0  0  0  0  0
  191.0190  172.6700  138.7280 C   0  0  2  0  0  3  0  0  0  0  0  0
  190.7990  172.0400  140.1110 C   0  0  2  0  0  3  0  0  0  0  0  0
  191.9140  173.8220  138.7900 N   0  0  0  0  0  2  0  0  0  0  0  0
  1 14  1  0  0  0  0
  1  9  1  0  0  0  0
  2  5  1  6  0  0  0
  2  3  1  0  0  0  0
  3 19  2  0  0  0  0
  3  7  1  0  0  0  0
  4 15  1  0  0  0  0
  4 11  1  0  0  0  0
  5 14  2  0  0  0  0
  6  1  2  0  0  0  0
  7  4  2  0  0  0  0
  8 23  1  6  0  0  0
  8 13  1  0  0  0  0
 10 19  1  0  0  0  0
 12 16  1  0  0  0  0
 12  8  1  0  0  0  0
 13 18  1  1  0  0  0
 13  2  1  0  0  0  0
 16  5  1  0  0  0  0
 17 16  2  0  0  0  0
 17  6  1  0  0  0  0
 18 10  1  0  0  0  0
 19 20  1  0  0  0  0
 20 15  2  0  0  0  0
 22 21  2  0  0  0  0
 23 22  1  0  0  0  0
 24 28  1  0  0  0  0
 25 28  1  0  0  0  0
 27 24  2  0  0  0  0
 29 26  1  1  0  0  0
 29 31  1  0  0  0  0
 29 30  1  0  0  0  0
 30 25  1  0  0  0  0
 30 22  1  1  0  0  0
 31 24  1  0  0  0  0
M  END
>  <MODEL>
6

>  <REMARK>
 VINA RESULT:      -7.7      3.592      5.534
  Name = 
  2 active torsions:
  status: ('A' for Active; 'I' for Inactive)
    1  A    between atoms: C_5  and  C_30
    2  A    between atoms: C_10  and  N_16
                            x       y       z     vdW  Elec       q    Type
                         _______ _______ _______ _____ _____    ______ ____

>  <TORSDO>
F 2

$$$$
=
 OpenBabel11112416543D

 31 35  0  0  1  0  0  0  0  0999 V2000
  185.5290  177.5550  142.5920 C   0  0  0  0  0  0  0  0  0  0  0  0
  188.1860  174.8750  143.0890 C   0  0  2  0  0  3  0  0  0  0  0  0
  188.7280  174.5470  141.7020 C   0  0  0  0  0  0  0  0  0  0  0  0
  188.4090  174.4950  139.2880 C   0  0  0  0  0  0  0  0  0  0  0  0
  187.4720  176.2070  143.1550 C   0  0  0  0  0  0  0  0  0  0  0  0
  186.1310  178.6730  143.1720 C   0  0  0  0  0  3  0  0  0  0  0  0
  187.9700  174.8600  140.5610 C   0  0  0  0  0  3  0  0  0  0  0  0
  190.1680  175.9900  144.1870 C   0  0  2  0  0  3  0  0  0  0  0  0
  184.3010  177.6600  142.0320 F   0  0  0  0  0  0  0  0  0  0  0  0
  190.7930  173.4350  142.7040 C   0  0  0  0  0  2  0  0  0  0  0  0
  187.4560  174.9160  137.8820 Cl  0  0  0  0  0  0  0  0  0  0  0  0
  189.3610  177.2440  144.5160 C   0  0  0  0  0  2  0  0  0  0  0  0
  189.2530  174.7560  144.1920 C   0  0  2  0  0  3  0  0  0  0  0  0
  186.1960  176.3280  142.5870 C   0  0  0  0  0  3  0  0  0  0  0  0
  189.6040  173.7910  139.1360 C   0  0  0  0  0  3  0  0  0  0  0  0
  188.0740  177.3400  143.7490 C   0  0  0  0  0  0  0  0  0  0  0  0
  187.3940  178.5620  143.7570 C   0  0  0  0  0  3  0  0  0  0  0  0
  190.0300  173.4500  144.0260 C   0  0  0  0  0  2  0  0  0  0  0  0
  189.9190  173.7980  141.5410 C   0  0  0  0  0  0  0  0  0  0  0  0
  190.3550  173.4450  140.2600 C   0  0  0  0  0  3  0  0  0  0  0  0
  192.9690  176.0790  143.6230 O   0  0  0  0  0  0  0  0  0  0  0  0
  192.6200  175.8830  144.8170 C   0  0  0  0  0  0  0  0  0  0  0  0
  191.2340  175.8300  145.1660 N   0  0  0  0  0  2  0  0  0  0  0  0
  196.0830  175.9290  144.2810 C   0  0  0  0  0  0  0  0  0  0  0  0
  194.5660  176.8960  146.0420 C   0  0  0  0  0  2  0  0  0  0  0  0
  193.7580  173.1620  145.3880 C   0  0  0  0  0  1  0  0  0  0  0  0
  197.0740  176.0290  143.5130 O   0  0  0  0  0  0  0  0  0  0  0  0
  195.4340  177.1730  144.8110 C   0  0  0  0  0  2  0  0  0  0  0  0
  194.5620  174.4270  145.6270 C   0  0  2  0  0  3  0  0  0  0  0  0
  193.6790  175.6620  145.8620 C   0  0  2  0  0  3  0  0  0  0  0  0
  195.5210  174.6400  144.5470 N   0  0  0  0  0  2  0  0  0  0  0  0
  1  6  1  0  0  0  0
  2  3  1  6  0  0  0
  2  5  1  0  0  0  0
  2 13  1  0  0  0  0
  4  7  1  0  0  0  0
  5 16  2  0  0  0  0
  6 17  2  0  0  0  0
  7  3  2  0  0  0  0
  8 13  1  0  0  0  0
  8 12  1  0  0  0  0
  8 23  1  1  0  0  0
  9  1  1  0  0  0  0
 10 18  1  0  0  0  0
 11  4  1  0  0  0  0
 13 18  1  6  0  0  0
 14  1  2  0  0  0  0
 14  5  1  0  0  0  0
 15  4  2  0  0  0  0
 15 20  1  0  0  0  0
 16 17  1  0  0  0  0
 16 12  1  0  0  0  0
 19  3  1  0  0  0  0
 19 10  1  0  0  0  0
 20 19  2  0  0  0  0
 21 22  2  0  0  0  0
 22 23  1  0  0  0  0
 24 31  1  0  0  0  0
 24 28  1  0  0  0  0
 27 24  2  0  0  0  0
 28 25  1  0  0  0  0
 29 26  1  6  0  0  0
 29 30  1  0  0  0  0
 30 22  1  6  0  0  0
 30 25  1  0  0  0  0
 31 29  1  0  0  0  0
M  END
>  <MODEL>
7

>  <REMARK>
 VINA RESULT:      -7.7      2.327      2.862
  Name = 
  2 active torsions:
  status: ('A' for Active; 'I' for Inactive)
    1  A    between atoms: C_5  and  C_30
    2  A    between atoms: C_10  and  N_16
                            x       y       z     vdW  Elec       q    Type
                         _______ _______ _______ _____ _____    ______ ____

>  <TORSDO>
F 2

$$$$
=
 OpenBabel11112416543D

 31 35  0  0  1  0  0  0  0  0999 V2000
  187.0670  176.2750  139.0720 C   0  0  0  0  0  0  0  0  0  0  0  0
  188.3880  177.5240  142.4170 C   0  0  2  0  0  3  0  0  0  0  0  0
  187.1690  177.7250  143.3100 C   0  0  0  0  0  0  0  0  0  0  0  0
  184.7780  178.1380  143.5300 C   0  0  0  0  0  0  0  0  0  0  0  0
  188.1220  176.6170  141.2340 C   0  0  0  0  0  0  0  0  0  0  0  0
  187.5270  174.9570  139.0500 C   0  0  0  0  0  3  0  0  0  0  0  0
  185.8950  177.8710  142.7360 C   0  0  0  0  0  3  0  0  0  0  0  0
  189.5510  175.5770  143.5280 C   0  0  2  0  0  3  0  0  0  0  0  0
  186.3280  176.7520  138.0430 F   0  0  0  0  0  0  0  0  0  0  0  0
  188.6300  177.7600  145.4010 C   0  0  0  0  0  2  0  0  0  0  0  0
  183.2000  178.2960  142.7910 Cl  0  0  0  0  0  0  0  0  0  0  0  0
  189.5410  174.7540  142.2410 C   0  0  0  0  0  2  0  0  0  0  0  0
  189.6350  177.0750  143.1980 C   0  0  2  0  0  3  0  0  0  0  0  0
  187.3670  177.1010  140.1580 C   0  0  0  0  0  3  0  0  0  0  0  0
  184.9210  178.2840  144.9100 C   0  0  0  0  0  3  0  0  0  0  0  0
  188.5940  175.2840  141.2050 C   0  0  0  0  0  0  0  0  0  0  0  0
  188.2960  174.4690  140.1080 C   0  0  0  0  0  3  0  0  0  0  0  0
  189.8070  177.9410  144.4470 C   0  0  0  0  0  2  0  0  0  0  0  0
  187.3100  177.9130  144.7070 C   0  0  0  0  0  0  0  0  0  0  0  0
  186.1830  178.1700  145.4940 C   0  0  0  0  0  3  0  0  0  0  0  0
  189.3840  174.3780  146.1180 O   0  0  0  0  0  0  0  0  0  0  0  0
  190.5320  174.5820  145.6420 C   0  0  0  0  0  0  0  0  0  0  0  0
  190.6840  175.1770  144.3500 N   0  0  0  0  0  2  0  0  0  0  0  0
  193.5260  176.3980  145.7770 C   0  0  0  0  0  0  0  0  0  0  0  0
  192.0490  175.3180  147.5060 C   0  0  0  0  0  2  0  0  0  0  0  0
  192.7750  172.8970  144.5660 C   0  0  0  0  0  1  0  0  0  0  0  0
  194.2480  177.3550  145.3950 O   0  0  0  0  0  0  0  0  0  0  0  0
  192.5120  176.6260  146.8590 C   0  0  0  0  0  2  0  0  0  0  0  0
  193.0060  173.9290  145.6550 C   0  0  2  0  0  3  0  0  0  0  0  0
  191.7400  174.2350  146.4690 C   0  0  2  0  0  3  0  0  0  0  0  0
  193.6030  175.1400  145.0990 N   0  0  0  0  0  2  0  0  0  0  0  0
  1 14  1  0  0  0  0
  2  5  1  6  0  0  0
  2 13  1  0  0  0  0
  2  3  1  0  0  0  0
  3 19  1  0  0  0  0
  4 15  2  0  0  0  0
  6  1  2  0  0  0  0
  6 17  1  0  0  0  0
  7  3  2  0  0  0  0
  7  4  1  0  0  0  0
  8 23  1  1  0  0  0
  9  1  1  0  0  0  0
 11  4  1  0  0  0  0
 12  8  1  0  0  0  0
 13  8  1  0  0  0  0
 13 18  1  1  0  0  0
 14  5  2  0  0  0  0
 15 20  1  0  0  0  0
 16  5  1  0  0  0  0
 16 12  1  0  0  0  0
 17 16  2  0  0  0  0
 18 10  1  0  0  0  0
 19 10  1  0  0  0  0
 19 20  2  0  0  0  0
 22 21  2  0  0  0  0
 23 22  1  0  0  0  0
 24 28  1  0  0  0  0
 27 24  2  0  0  0  0
 28 25  1  0  0  0  0
 29 26  1  6  0  0  0
 29 30  1  0  0  0  0
 30 22  1  6  0  0  0
 30 25  1  0  0  0  0
 31 29  1  0  0  0  0
 31 24  1  0  0  0  0
M  END
>  <MODEL>
8

>  <REMARK>
 VINA RESULT:      -7.6      2.428      4.650
  Name = 
  2 active torsions:
  status: ('A' for Active; 'I' for Inactive)
    1  A    between atoms: C_5  and  C_30
    2  A    between atoms: C_10  and  N_16
                            x       y       z     vdW  Elec       q    Type
                         _______ _______ _______ _____ _____    ______ ____

>  <TORSDO>
F 2

$$$$
=
 OpenBabel11112416543D

 31 35  0  0  1  0  0  0  0  0999 V2000
  186.3340  178.5850  143.7320 C   0  0  0  0  0  0  0  0  0  0  0  0
  189.7290  176.8800  143.4860 C   0  0  2  0  0  3  0  0  0  0  0  0
  190.2390  176.7340  144.9150 C   0  0  0  0  0  0  0  0  0  0  0  0
  190.2240  177.4870  147.2320 C   0  0  0  0  0  0  0  0  0  0  0  0
  188.2350  177.1060  143.4020 C   0  0  0  0  0  0  0  0  0  0  0  0
  185.4660  177.5620  143.3470 C   0  0  0  0  0  3  0  0  0  0  0  0
  189.7140  177.5460  145.9340 C   0  0  0  0  0  3  0  0  0  0  0  0
  189.3070  174.4800  142.8210 C   0  0  2  0  0  3  0  0  0  0  0  0
  185.8420  179.7960  144.0860 F   0  0  0  0  0  0  0  0  0  0  0  0
  191.9500  174.9860  144.1910 C   0  0  0  0  0  2  0  0  0  0  0  0
  189.5370  178.4960  148.4860 Cl  0  0  0  0  0  0  0  0  0  0  0  0
  187.8520  174.7700  142.4580 C   0  0  0  0  0  2  0  0  0  0  0  0
  190.1720  175.7240  142.5710 C   0  0  2  0  0  3  0  0  0  0  0  0
  187.7120  178.3580  143.7560 C   0  0  0  0  0  3  0  0  0  0  0  0
  191.2830  176.6290  147.5270 C   0  0  0  0  0  3  0  0  0  0  0  0
  187.3520  176.0760  143.0040 C   0  0  0  0  0  0  0  0  0  0  0  0
  185.9750  176.3170  142.9740 C   0  0  0  0  0  3  0  0  0  0  0  0
  191.6640  175.4490  142.7660 C   0  0  0  0  0  2  0  0  0  0  0  0
  191.3400  175.8950  145.2160 C   0  0  0  0  0  0  0  0  0  0  0  0
  191.8370  175.8360  146.5220 C   0  0  0  0  0  3  0  0  0  0  0  0
  189.3400  171.7440  143.6490 O   0  0  0  0  0  0  0  0  0  0  0  0
  189.7820  172.0120  142.5000 C   0  0  0  0  0  0  0  0  0  0  0  0
  189.7910  173.3610  142.0250 N   0  0  0  0  0  2  0  0  0  0  0  0
  192.9600  171.9480  141.0260 C   0  0  0  0  0  0  0  0  0  0  0  0
  191.5790  170.2680  142.2930 C   0  0  0  0  0  2  0  0  0  0  0  0
  189.4970  171.9830  139.5090 C   0  0  0  0  0  1  0  0  0  0  0  0
  194.0650  172.4930  140.7750 O   0  0  0  0  0  0  0  0  0  0  0  0
  192.7710  171.2280  142.3280 C   0  0  0  0  0  2  0  0  0  0  0  0
  190.6610  171.2990  140.2050 C   0  0  2  0  0  3  0  0  0  0  0  0
  190.3410  170.9010  141.6540 C   0  0  2  0  0  3  0  0  0  0  0  0
  191.8670  172.1170  140.1180 N   0  0  0  0  0  2  0  0  0  0  0  0
  1 14  1  0  0  0  0
  1  9  1  0  0  0  0
  2  5  1  1  0  0  0
  2  3  1  0  0  0  0
  3 19  2  0  0  0  0
  3  7  1  0  0  0  0
  4 15  1  0  0  0  0
  4 11  1  0  0  0  0
  5 14  2  0  0  0  0
  6  1  2  0  0  0  0
  7  4  2  0  0  0  0
  8 23  1  6  0  0  0
 10 19  1  0  0  0  0
 12  8  1  0  0  0  0
 12 16  1  0  0  0  0
 13 18  1  1  0  0  0
 13  8  1  0  0  0  0
 13  2  1  0  0  0  0
 16  5  1  0  0  0  0
 17 16  2  0  0  0  0
 17  6  1  0  0  0  0
 18 10  1  0  0  0  0
 19 20  1  0  0  0  0
 20 15  2  0  0  0  0
 22 21  2  0  0  0  0
 23 22  1  0  0  0  0
 24 28  1  0  0  0  0
 25 28  1  0  0  0  0
 27 24  2  0  0  0  0
 29 26  1  1  0  0  0
 29 30  1  0  0  0  0
 30 25  1  0  0  0  0
 30 22  1  1  0  0  0
 31 29  1  0  0  0  0
 31 24  1  0  0  0  0
M  END
>  <MODEL>
9

>  <REMARK>
 VINA RESULT:      -7.4      3.598      5.528
  Name = 
  2 active torsions:
  status: ('A' for Active; 'I' for Inactive)
    1  A    between atoms: C_5  and  C_30
    2  A    between atoms: C_10  and  N_16
                            x       y       z     vdW  Elec       q    Type
                         _______ _______ _______ _____ _____    ______ ____

>  <TORSDO>
F 2

$$$$
