=
 OpenBabel11112416313D

 32 37  0  0  1  0  0  0  0  0999 V2000
  185.5020  177.9740  145.6600 C   0  0  0  0  0  2  0  0  0  0  0  0
  190.2640  175.2500  144.9500 C   0  0  1  0  0  3  0  0  0  0  0  0
  189.6130  172.1990  141.0700 C   0  0  0  0  0  2  0  0  0  0  0  0
  191.0730  172.2530  141.0920 N   0  0  0  0  0  2  0  0  0  0  0  0
  192.1720  174.7470  146.5320 C   0  0  0  0  0  0  0  0  0  0  0  0
  193.4580  175.3460  146.0290 C   0  0  2  0  0  3  0  0  0  0  0  0
  188.6560  177.1080  145.4700 C   0  0  1  0  0  3  0  0  0  0  0  0
  188.6270  175.8080  143.3280 C   0  0  0  0  0  2  0  0  0  0  0  0
  194.7700  175.8270  144.1550 C   0  0  1  0  0  3  0  0  0  0  0  0
  186.9800  177.6510  143.5900 C   0  0  0  0  0  2  0  0  0  0  0  0
  189.0050  173.3250  141.9160 C   0  0  0  0  0  2  0  0  0  0  0  0
  189.3050  174.6800  143.9770 N   0  0  1  0  0  0  0  0  0  0  0  0
  190.0070  173.9300  142.9200 C   0  0  1  0  0  3  0  0  0  0  0  0
  191.8930  173.3610  144.5010 C   0  0  1  0  0  3  0  0  0  0  0  0
  194.3520  177.0640  144.8160 N   0  0  0  0  0  2  0  0  0  0  0  0
  186.4230  177.3340  146.7120 C   0  0  0  0  0  2  0  0  0  0  0  0
  187.7670  176.5670  144.3320 C   0  0  2  0  0  3  0  0  0  0  0  0
  193.3030  176.7500  145.7030 N   0  0  0  0  0  2  0  0  0  0  0  0
  187.8810  177.7930  146.6070 C   0  0  0  0  0  2  0  0  0  0  0  0
  186.2400  178.6450  144.4960 C   0  0  1  0  0  3  0  0  0  0  0  0
  191.5330  171.9230  142.4430 C   0  0  0  0  0  2  0  0  0  0  0  0
  190.8690  172.8060  143.5170 C   0  0  2  0  0  3  0  0  0  0  0  0
  192.9430  174.2330  143.8060 C   0  0  0  0  0  2  0  0  0  0  0  0
  189.4900  175.9750  146.0570 C   0  0  0  0  0  2  0  0  0  0  0  0
  191.8800  174.8430  147.7760 N   0  0  0  0  0  2  0  0  0  0  0  0
  196.2630  175.6340  144.3420 C   0  0  0  0  0  1  0  0  0  0  0  0
  191.1620  174.1630  145.5790 C   0  0  2  0  0  3  0  0  0  0  0  0
  194.0230  174.6840  144.7910 C   0  0  2  0  0  3  0  0  0  0  0  0
  185.2560  179.4670  143.6800 C   0  0  0  0  0  2  0  0  0  0  0  0
  184.7170  178.6690  142.5410 C   0  0  0  0  0  0  0  0  0  0  0  0
  183.6550  178.0070  142.6820 O   0  0  0  0  0  1  0  0  0  0  0  0
  185.3670  178.6820  141.3140 O   0  0  0  0  0  0  0  0  0  0  0  0
  1 16  1  0  0  0  0
  2 27  1  0  0  0  0
  2 24  1  1  0  0  0
  3  4  1  0  0  0  0
  3 11  1  0  0  0  0
  4 21  1  0  0  0  0
  5 25  2  0  0  0  0
  6 18  1  6  0  0  0
  6  5  1  0  0  0  0
  7 24  1  1  0  0  0
  7 19  1  0  0  0  0
  9 26  1  1  0  0  0
  9 28  1  0  0  0  0
  9 15  1  0  0  0  0
 10 17  1  0  0  0  0
 10 20  1  0  0  0  0
 12  8  1  6  0  0  0
 12  2  1  0  0  0  0
 13 11  1  6  0  0  0
 13 22  1  0  0  0  0
 13 12  1  0  0  0  0
 14 23  1  6  0  0  0
 14 27  1  0  0  0  0
 15 18  1  0  0  0  0
 17  8  1  6  0  0  0
 17  7  1  0  0  0  0
 19 16  1  0  0  0  0
 20 29  1  6  0  0  0
 20  1  1  0  0  0  0
 22 21  1  6  0  0  0
 22 14  1  0  0  0  0
 27  5  1  1  0  0  0
 28 23  1  6  0  0  0
 28  6  1  0  0  0  0
 30 31  1  0  0  0  0
 30 29  1  0  0  0  0
 32 30  2  0  0  0  0
M  END
>  <MODEL>
1

>  <REMARK>
 VINA RESULT:      -8.3      0.000      0.000
  Name = 
  2 active torsions:
  status: ('A' for Active; 'I' for Inactive)
    1  A    between atoms: C_20  and  C_29
    2  A    between atoms: C_29  and  C_30
                            x       y       z     vdW  Elec       q    Type
                         _______ _______ _______ _____ _____    ______ ____

>  <TORSDO>
F 2

$$$$
=
 OpenBabel11112416313D

 32 37  0  0  1  0  0  0  0  0999 V2000
  186.4710  177.4390  146.2760 C   0  0  0  0  0  2  0  0  0  0  0  0
  190.4940  174.7650  143.5800 C   0  0  1  0  0  3  0  0  0  0  0  0
  188.3990  172.6670  139.5810 C   0  0  0  0  0  2  0  0  0  0  0  0
  189.7960  172.6620  139.1520 N   0  0  0  0  0  2  0  0  0  0  0  0
  192.7250  173.8580  144.3480 C   0  0  0  0  0  0  0  0  0  0  0  0
  193.8570  174.5050  143.5950 C   0  0  2  0  0  3  0  0  0  0  0  0
  189.3160  176.5210  144.9360 C   0  0  1  0  0  3  0  0  0  0  0  0
  188.5130  175.7260  142.7000 C   0  0  0  0  0  2  0  0  0  0  0  0
  194.5890  175.3390  141.5370 C   0  0  1  0  0  3  0  0  0  0  0  0
  187.2180  177.5250  143.8250 C   0  0  0  0  0  2  0  0  0  0  0  0
  188.1920  173.6010  140.7800 C   0  0  0  0  0  2  0  0  0  0  0  0
  189.2340  174.4580  142.8670 N   0  0  1  0  0  0  0  0  0  0  0  0
  189.5060  173.9340  141.5160 C   0  0  1  0  0  3  0  0  0  0  0  0
  191.7090  172.9630  142.2780 C   0  0  1  0  0  3  0  0  0  0  0  0
  194.5180  176.4150  142.5260 N   0  0  0  0  0  2  0  0  0  0  0  0
  187.5940  176.5500  146.8360 C   0  0  0  0  0  2  0  0  0  0  0  0
  188.0750  176.2770  144.0520 C   0  0  2  0  0  3  0  0  0  0  0  0
  193.7570  175.9510  143.6190 N   0  0  0  0  0  2  0  0  0  0  0  0
  188.9920  176.9670  146.3710 C   0  0  0  0  0  2  0  0  0  0  0  0
  186.8900  178.3220  145.0960 C   0  0  1  0  0  3  0  0  0  0  0  0
  190.6030  172.0260  140.1970 C   0  0  0  0  0  2  0  0  0  0  0  0
  190.3870  172.6760  141.5770 C   0  0  2  0  0  3  0  0  0  0  0  0
  192.5860  173.9280  141.4740 C   0  0  0  0  0  2  0  0  0  0  0  0
  190.1660  175.2580  144.9940 C   0  0  0  0  0  2  0  0  0  0  0  0
  192.8320  173.6890  145.6150 N   0  0  0  0  0  2  0  0  0  0  0  0
  196.0410  175.0540  141.2020 C   0  0  0  0  0  1  0  0  0  0  0  0
  191.4220  173.5350  143.6670 C   0  0  2  0  0  3  0  0  0  0  0  0
  193.9530  174.1110  142.1370 C   0  0  2  0  0  3  0  0  0  0  0  0
  185.7970  179.3380  144.8100 C   0  0  0  0  0  2  0  0  0  0  0  0
  184.4670  178.6720  144.7140 C   0  0  0  0  0  0  0  0  0  0  0  0
  183.6930  178.6650  145.7070 O   0  0  0  0  0  1  0  0  0  0  0  0
  184.0660  178.0870  143.5210 O   0  0  0  0  0  0  0  0  0  0  0  0
  1 16  1  0  0  0  0
  2 27  1  0  0  0  0
  2 24  1  1  0  0  0
  3 11  1  0  0  0  0
  4  3  1  0  0  0  0
  4 21  1  0  0  0  0
  5 25  2  0  0  0  0
  6 18  1  6  0  0  0
  6  5  1  0  0  0  0
  7 24  1  1  0  0  0
  7 19  1  0  0  0  0
  9 26  1  1  0  0  0
  9 28  1  0  0  0  0
  9 15  1  0  0  0  0
 10 17  1  0  0  0  0
 10 20  1  0  0  0  0
 12  8  1  6  0  0  0
 12  2  1  0  0  0  0
 13 11  1  1  0  0  0
 13 22  1  0  0  0  0
 13 12  1  0  0  0  0
 14 23  1  6  0  0  0
 14 27  1  0  0  0  0
 15 18  1  0  0  0  0
 17  8  1  6  0  0  0
 17  7  1  0  0  0  0
 19 16  1  0  0  0  0
 20 29  1  6  0  0  0
 20  1  1  0  0  0  0
 22 21  1  6  0  0  0
 22 14  1  0  0  0  0
 27  5  1  6  0  0  0
 28 23  1  6  0  0  0
 28  6  1  0  0  0  0
 30 29  1  0  0  0  0
 30 31  1  0  0  0  0
 32 30  2  0  0  0  0
M  END
>  <MODEL>
2

>  <REMARK>
 VINA RESULT:      -8.1      1.609      2.020
  Name = 
  2 active torsions:
  status: ('A' for Active; 'I' for Inactive)
    1  A    between atoms: C_20  and  C_29
    2  A    between atoms: C_29  and  C_30
                            x       y       z     vdW  Elec       q    Type
                         _______ _______ _______ _____ _____    ______ ____

>  <TORSDO>
F 2

$$$$
=
 OpenBabel11112416313D

 32 37  0  0  1  0  0  0  0  0999 V2000
  187.2800  176.6190  145.1860 C   0  0  0  0  0  2  0  0  0  0  0  0
  192.5010  174.8270  144.8210 C   0  0  1  0  0  3  0  0  0  0  0  0
  192.2840  169.9300  143.9480 C   0  0  0  0  0  2  0  0  0  0  0  0
  193.6440  170.1980  143.4850 N   0  0  0  0  0  2  0  0  0  0  0  0
  194.6730  175.7650  145.7130 C   0  0  0  0  0  0  0  0  0  0  0  0
  195.6280  176.0690  144.5900 C   0  0  2  0  0  3  0  0  0  0  0  0
  190.4880  176.3120  144.5950 C   0  0  1  0  0  3  0  0  0  0  0  0
  190.5610  173.9430  143.7840 C   0  0  0  0  0  2  0  0  0  0  0  0
  196.4510  175.3940  142.5080 C   0  0  1  0  0  3  0  0  0  0  0  0
  188.4800  175.2420  143.3870 C   0  0  0  0  0  2  0  0  0  0  0  0
  191.4840  171.2310  144.0940 C   0  0  0  0  0  2  0  0  0  0  0  0
  191.6380  173.6280  144.7300 N   0  0  1  0  0  0  0  0  0  0  0  0
  192.3810  172.4830  144.1740 C   0  0  1  0  0  3  0  0  0  0  0  0
  194.5530  173.3680  145.1120 C   0  0  1  0  0  3  0  0  0  0  0  0
  195.7690  176.6830  142.3920 N   0  0  0  0  0  2  0  0  0  0  0  0
  188.4920  176.9660  146.0680 C   0  0  0  0  0  2  0  0  0  0  0  0
  189.6580  175.0370  144.3420 C   0  0  2  0  0  3  0  0  0  0  0  0
  195.0040  176.8770  143.5610 N   0  0  0  0  0  2  0  0  0  0  0  0
  189.7080  177.4510  145.2710 C   0  0  0  0  0  2  0  0  0  0  0  0
  187.6040  176.4640  143.6970 C   0  0  1  0  0  3  0  0  0  0  0  0
  194.3680  170.9030  144.5460 C   0  0  0  0  0  2  0  0  0  0  0  0
  193.6230  172.1640  145.0230 C   0  0  2  0  0  3  0  0  0  0  0  0
  195.1740  173.7150  143.7550 C   0  0  0  0  0  2  0  0  0  0  0  0
  191.7050  175.9760  145.4500 C   0  0  0  0  0  2  0  0  0  0  0  0
  194.5440  176.6070  146.6710 N   0  0  0  0  0  2  0  0  0  0  0  0
  197.9410  175.5900  142.3060 C   0  0  0  0  0  1  0  0  0  0  0  0
  193.7690  174.5610  145.6600 C   0  0  2  0  0  3  0  0  0  0  0  0
  196.1900  174.8510  143.8890 C   0  0  2  0  0  3  0  0  0  0  0  0
  186.3100  176.3980  142.9020 C   0  0  0  0  0  2  0  0  0  0  0  0
  185.7170  177.7570  142.7420 C   0  0  0  0  0  0  0  0  0  0  0  0
  186.3740  178.6680  142.1740 O   0  0  0  0  0  0  0  0  0  0  0  0
  184.4270  178.0090  143.1890 O   0  0  0  0  0  1  0  0  0  0  0  0
  1 16  1  0  0  0  0
  2 24  1  1  0  0  0
  2 27  1  0  0  0  0
  3 11  1  0  0  0  0
  4  3  1  0  0  0  0
  4 21  1  0  0  0  0
  5 25  2  0  0  0  0
  6 18  1  6  0  0  0
  6  5  1  0  0  0  0
  7 19  1  1  0  0  0
  7 24  1  0  0  0  0
  8 17  1  0  0  0  0
  9 26  1  1  0  0  0
  9 28  1  0  0  0  0
 10 20  1  0  0  0  0
 12  8  1  6  0  0  0
 12  2  1  0  0  0  0
 13 11  1  1  0  0  0
 13 12  1  0  0  0  0
 13 22  1  0  0  0  0
 14 23  1  6  0  0  0
 14 27  1  0  0  0  0
 15  9  1  0  0  0  0
 15 18  1  0  0  0  0
 17 10  1  6  0  0  0
 17  7  1  0  0  0  0
 19 16  1  0  0  0  0
 20 29  1  6  0  0  0
 20  1  1  0  0  0  0
 22 21  1  6  0  0  0
 22 14  1  0  0  0  0
 27  5  1  6  0  0  0
 28 23  1  6  0  0  0
 28  6  1  0  0  0  0
 30 29  1  0  0  0  0
 30 32  1  0  0  0  0
 31 30  2  0  0  0  0
M  END
>  <MODEL>
3

>  <REMARK>
 VINA RESULT:      -7.9      1.786      2.838
  Name = 
  2 active torsions:
  status: ('A' for Active; 'I' for Inactive)
    1  A    between atoms: C_20  and  C_29
    2  A    between atoms: C_29  and  C_30
                            x       y       z     vdW  Elec       q    Type
                         _______ _______ _______ _____ _____    ______ ____

>  <TORSDO>
F 2

$$$$
=
 OpenBabel11112416313D

 32 37  0  0  1  0  0  0  0  0999 V2000
  187.0230  176.5720  146.3870 C   0  0  0  0  0  2  0  0  0  0  0  0
  191.6060  174.7010  143.9180 C   0  0  1  0  0  3  0  0  0  0  0  0
  190.2740  173.1860  139.3670 C   0  0  0  0  0  2  0  0  0  0  0  0
  191.7090  173.3550  139.1540 N   0  0  0  0  0  2  0  0  0  0  0  0
  193.7910  173.8350  144.8510 C   0  0  0  0  0  0  0  0  0  0  0  0
  194.9460  174.6820  144.3880 C   0  0  2  0  0  3  0  0  0  0  0  0
  190.0960  176.1060  145.3510 C   0  0  1  0  0  3  0  0  0  0  0  0
  189.6780  175.6560  142.9220 C   0  0  0  0  0  2  0  0  0  0  0  0
  195.8640  175.9110  142.6230 C   0  0  1  0  0  3  0  0  0  0  0  0
  188.0800  177.1350  144.1200 C   0  0  0  0  0  2  0  0  0  0  0  0
  189.8210  173.8800  140.6570 C   0  0  0  0  0  2  0  0  0  0  0  0
  190.4880  174.4340  142.9860 N   0  0  1  0  0  0  0  0  0  0  0  0
  190.9860  174.1730  141.6240 C   0  0  1  0  0  3  0  0  0  0  0  0
  193.1500  173.2440  142.5350 C   0  0  1  0  0  3  0  0  0  0  0  0
  195.5590  176.7910  143.7520 N   0  0  0  0  0  2  0  0  0  0  0  0
  188.1400  175.6820  146.9550 C   0  0  0  0  0  2  0  0  0  0  0  0
  189.0130  175.9310  144.2660 C   0  0  2  0  0  3  0  0  0  0  0  0
  194.7060  176.0920  144.6300 N   0  0  0  0  0  2  0  0  0  0  0  0
  189.5420  176.2720  146.7750 C   0  0  0  0  0  2  0  0  0  0  0  0
  187.5100  177.6740  145.4400 C   0  0  1  0  0  3  0  0  0  0  0  0
  192.4260  172.6070  140.1890 C   0  0  0  0  0  2  0  0  0  0  0  0
  191.9670  172.9890  141.6090 C   0  0  2  0  0  3  0  0  0  0  0  0
  194.0310  174.3930  142.0370 C   0  0  0  0  0  2  0  0  0  0  0  0
  191.0470  174.9160  145.3290 C   0  0  0  0  0  2  0  0  0  0  0  0
  193.7430  173.4570  146.0740 N   0  0  0  0  0  2  0  0  0  0  0  0
  197.3680  175.7930  142.4650 C   0  0  0  0  0  1  0  0  0  0  0  0
  192.6270  173.5430  143.9400 C   0  0  2  0  0  3  0  0  0  0  0  0
  195.2730  174.5560  142.9150 C   0  0  2  0  0  3  0  0  0  0  0  0
  186.3740  178.6440  145.1640 C   0  0  0  0  0  2  0  0  0  0  0  0
  185.5070  178.8000  146.3680 C   0  0  0  0  0  0  0  0  0  0  0  0
  185.9390  179.4130  147.3800 O   0  0  0  0  0  1  0  0  0  0  0  0
  184.2130  178.2990  146.3620 O   0  0  0  0  0  0  0  0  0  0  0  0
  1 16  1  0  0  0  0
  2 27  1  0  0  0  0
  2 24  1  1  0  0  0
  3 11  1  0  0  0  0
  4  3  1  0  0  0  0
  4 21  1  0  0  0  0
  5 25  2  0  0  0  0
  6 18  1  6  0  0  0
  6  5  1  0  0  0  0
  7 24  1  1  0  0  0
  7 19  1  0  0  0  0
  9 26  1  1  0  0  0
  9 28  1  0  0  0  0
  9 15  1  0  0  0  0
 10 17  1  0  0  0  0
 10 20  1  0  0  0  0
 12  8  1  6  0  0  0
 12  2  1  0  0  0  0
 13 11  1  6  0  0  0
 13 12  1  0  0  0  0
 14 23  1  6  0  0  0
 14 27  1  0  0  0  0
 15 18  1  0  0  0  0
 17  8  1  6  0  0  0
 17  7  1  0  0  0  0
 19 16  1  0  0  0  0
 20 29  1  6  0  0  0
 20  1  1  0  0  0  0
 22 21  1  6  0  0  0
 22 13  1  0  0  0  0
 22 14  1  0  0  0  0
 27  5  1  1  0  0  0
 28 23  1  6  0  0  0
 28  6  1  0  0  0  0
 29 30  1  0  0  0  0
 30 31  1  0  0  0  0
 32 30  2  0  0  0  0
M  END
>  <MODEL>
4

>  <REMARK>
 VINA RESULT:      -7.9      1.901      2.457
  Name = 
  2 active torsions:
  status: ('A' for Active; 'I' for Inactive)
    1  A    between atoms: C_20  and  C_29
    2  A    between atoms: C_29  and  C_30
                            x       y       z     vdW  Elec       q    Type
                         _______ _______ _______ _____ _____    ______ ____

>  <TORSDO>
F 2

$$$$
=
 OpenBabel11112416313D

 32 37  0  0  1  0  0  0  0  0999 V2000
  186.1430  177.8650  144.2810 C   0  0  0  0  0  2  0  0  0  0  0  0
  190.7610  174.9980  143.2560 C   0  0  1  0  0  3  0  0  0  0  0  0
  194.1860  176.5760  146.5060 C   0  0  0  0  0  2  0  0  0  0  0  0
  194.7770  175.2910  146.1380 N   0  0  0  0  0  2  0  0  0  0  0  0
  191.5730  173.7910  141.1880 C   0  0  0  0  0  0  0  0  0  0  0  0
  191.7750  172.3250  141.4660 C   0  0  2  0  0  3  0  0  0  0  0  0
  188.3230  175.5420  143.5190 C   0  0  1  0  0  3  0  0  0  0  0  0
  190.0320  175.9390  145.3070 C   0  0  0  0  0  2  0  0  0  0  0  0
  192.4840  170.7260  143.0180 C   0  0  1  0  0  3  0  0  0  0  0  0
  187.6650  176.4930  145.8220 C   0  0  0  0  0  2  0  0  0  0  0  0
  192.7180  176.6540  146.0710 C   0  0  0  0  0  2  0  0  0  0  0  0
  191.1040  175.9860  144.3040 N   0  0  1  0  0  0  0  0  0  0  0  0
  192.3540  175.6160  144.9900 C   0  0  1  0  0  3  0  0  0  0  0  0
  193.2140  174.4600  142.9150 C   0  0  1  0  0  3  0  0  0  0  0  0
  191.0580  170.5640  142.7340 N   0  0  0  0  0  2  0  0  0  0  0  0
  186.7890  177.5120  142.9320 C   0  0  0  0  0  2  0  0  0  0  0  0
  188.7190  176.4340  144.7130 C   0  0  2  0  0  3  0  0  0  0  0  0
  190.6070  171.7330  142.0870 N   0  0  0  0  0  2  0  0  0  0  0  0
  187.0720  176.0160  142.7620 C   0  0  0  0  0  2  0  0  0  0  0  0
  186.2330  176.7580  145.3360 C   0  0  1  0  0  3  0  0  0  0  0  0
  194.8710  175.2210  144.6780 C   0  0  0  0  0  2  0  0  0  0  0  0
  193.5180  175.4940  143.9920 C   0  0  2  0  0  3  0  0  0  0  0  0
  193.1350  173.0420  143.4870 C   0  0  0  0  0  2  0  0  0  0  0  0
  189.4840  175.4470  142.5360 C   0  0  0  0  0  2  0  0  0  0  0  0
  191.0040  174.1480  140.0970 N   0  0  0  0  0  2  0  0  0  0  0  0
  193.2520  169.5550  142.4370 C   0  0  0  0  0  1  0  0  0  0  0  0
  191.9000  174.8320  142.2270 C   0  0  2  0  0  3  0  0  0  0  0  0
  192.9440  172.0090  142.3750 C   0  0  2  0  0  3  0  0  0  0  0  0
  185.3360  177.1050  146.5130 C   0  0  0  0  0  2  0  0  0  0  0  0
  185.0680  178.5710  146.5600 C   0  0  0  0  0  0  0  0  0  0  0  0
  184.0340  179.0410  146.0160 O   0  0  0  0  0  0  0  0  0  0  0  0
  185.9410  179.4160  147.2310 O   0  0  0  0  0  1  0  0  0  0  0  0
  1 20  1  0  0  0  0
  2 24  1  6  0  0  0
  2 12  1  0  0  0  0
  4  3  1  0  0  0  0
  6  5  1  1  0  0  0
  6 18  1  0  0  0  0
  6 28  1  0  0  0  0
  7 24  1  6  0  0  0
  7 17  1  0  0  0  0
  9 26  1  6  0  0  0
 11  3  1  0  0  0  0
 12 13  1  0  0  0  0
 12  8  1  1  0  0  0
 13 11  1  1  0  0  0
 14 23  1  1  0  0  0
 14 22  1  0  0  0  0
 15  9  1  0  0  0  0
 16  1  1  0  0  0  0
 17  8  1  1  0  0  0
 17 10  1  0  0  0  0
 18 15  1  0  0  0  0
 19 16  1  0  0  0  0
 19  7  1  0  0  0  0
 20 10  1  0  0  0  0
 20 29  1  1  0  0  0
 21  4  1  0  0  0  0
 22 21  1  1  0  0  0
 22 13  1  0  0  0  0
 25  5  2  0  0  0  0
 27  5  1  6  0  0  0
 27 14  1  0  0  0  0
 27  2  1  0  0  0  0
 28  9  1  0  0  0  0
 28 23  1  1  0  0  0
 29 30  1  0  0  0  0
 30 32  1  0  0  0  0
 31 30  2  0  0  0  0
M  END
>  <MODEL>
5

>  <REMARK>
 VINA RESULT:      -7.8      1.918      4.725
  Name = 
  2 active torsions:
  status: ('A' for Active; 'I' for Inactive)
    1  A    between atoms: C_20  and  C_29
    2  A    between atoms: C_29  and  C_30
                            x       y       z     vdW  Elec       q    Type
                         _______ _______ _______ _____ _____    ______ ____

>  <TORSDO>
F 2

$$$$
=
 OpenBabel11112416313D

 32 37  0  0  1  0  0  0  0  0999 V2000
  187.0640  177.3030  145.5930 C   0  0  0  0  0  2  0  0  0  0  0  0
  191.7610  174.6490  144.3680 C   0  0  1  0  0  3  0  0  0  0  0  0
  190.4680  170.4000  142.1170 C   0  0  0  0  0  2  0  0  0  0  0  0
  191.8530  170.5030  141.6620 N   0  0  0  0  0  2  0  0  0  0  0  0
  194.0870  174.7980  145.3460 C   0  0  0  0  0  0  0  0  0  0  0  0
  195.0840  175.2180  144.3000 C   0  0  2  0  0  3  0  0  0  0  0  0
  190.1240  176.5210  144.7230 C   0  0  1  0  0  3  0  0  0  0  0  0
  189.6720  174.5450  143.2510 C   0  0  0  0  0  2  0  0  0  0  0  0
  195.7350  175.0420  142.0610 C   0  0  1  0  0  3  0  0  0  0  0  0
  187.9270  176.3100  143.3930 C   0  0  0  0  0  2  0  0  0  0  0  0
  189.9750  171.7350  142.6910 C   0  0  0  0  0  2  0  0  0  0  0  0
  190.6540  173.7420  143.9880 N   0  0  1  0  0  0  0  0  0  0  0  0
  191.1250  172.6870  143.0730 C   0  0  1  0  0  3  0  0  0  0  0  0
  193.4400  172.7740  144.0800 C   0  0  1  0  0  3  0  0  0  0  0  0
  195.3530  176.4200  142.3740 N   0  0  0  0  0  2  0  0  0  0  0  0
  188.3230  177.1060  146.4530 C   0  0  0  0  0  2  0  0  0  0  0  0
  189.0330  175.5850  144.1640 C   0  0  2  0  0  3  0  0  0  0  0  0
  194.6510  176.4100  143.5960 N   0  0  0  0  0  2  0  0  0  0  0  0
  189.6150  177.5410  145.7530 C   0  0  0  0  0  2  0  0  0  0  0  0
  187.3430  177.5380  144.1050 C   0  0  1  0  0  3  0  0  0  0  0  0
  192.7160  170.6880  142.8310 C   0  0  0  0  0  2  0  0  0  0  0  0
  192.2680  171.8750  143.7050 C   0  0  2  0  0  3  0  0  0  0  0  0
  194.1210  173.3730  142.8460 C   0  0  0  0  0  2  0  0  0  0  0  0
  191.2380  175.6970  145.3580 C   0  0  0  0  0  2  0  0  0  0  0  0
  194.1480  175.3220  146.5150 N   0  0  0  0  0  2  0  0  0  0  0  0
  197.2310  174.9720  141.8240 C   0  0  0  0  0  1  0  0  0  0  0  0
  192.9400  173.8840  145.0050 C   0  0  2  0  0  3  0  0  0  0  0  0
  195.3620  174.1770  143.2370 C   0  0  2  0  0  3  0  0  0  0  0  0
  186.0650  177.9860  143.4150 C   0  0  0  0  0  2  0  0  0  0  0  0
  185.3530  179.0090  144.2330 C   0  0  0  0  0  0  0  0  0  0  0  0
  185.7700  180.1970  144.2600 O   0  0  0  0  0  0  0  0  0  0  0  0
  184.2100  178.6600  144.9400 O   0  0  0  0  0  1  0  0  0  0  0  0
  1 16  1  0  0  0  0
  2 27  1  0  0  0  0
  2 24  1  1  0  0  0
  3 11  1  0  0  0  0
  4  3  1  0  0  0  0
  4 21  1  0  0  0  0
  5 25  2  0  0  0  0
  6 18  1  6  0  0  0
  6  5  1  0  0  0  0
  7 24  1  1  0  0  0
  7 19  1  0  0  0  0
  9 26  1  1  0  0  0
  9 15  1  0  0  0  0
  9 28  1  0  0  0  0
 10 20  1  0  0  0  0
 10 17  1  0  0  0  0
 12  8  1  6  0  0  0
 12  2  1  0  0  0  0
 13 11  1  1  0  0  0
 13 22  1  0  0  0  0
 13 12  1  0  0  0  0
 14 23  1  6  0  0  0
 14 27  1  0  0  0  0
 15 18  1  0  0  0  0
 17  8  1  6  0  0  0
 17  7  1  0  0  0  0
 19 16  1  0  0  0  0
 20 29  1  6  0  0  0
 20  1  1  0  0  0  0
 22 21  1  6  0  0  0
 22 14  1  0  0  0  0
 27  5  1  6  0  0  0
 28 23  1  6  0  0  0
 28  6  1  0  0  0  0
 29 30  1  0  0  0  0
 30 31  2  0  0  0  0
 30 32  1  0  0  0  0
M  END
>  <MODEL>
6

>  <REMARK>
 VINA RESULT:      -7.7      1.637      2.142
  Name = 
  2 active torsions:
  status: ('A' for Active; 'I' for Inactive)
    1  A    between atoms: C_20  and  C_29
    2  A    between atoms: C_29  and  C_30
                            x       y       z     vdW  Elec       q    Type
                         _______ _______ _______ _____ _____    ______ ____

>  <TORSDO>
F 2

$$$$
=
 OpenBabel11112416313D

 32 37  0  0  1  0  0  0  0  0999 V2000
  187.0940  178.2810  144.5830 C   0  0  0  0  0  2  0  0  0  0  0  0
  190.9280  174.8370  142.5710 C   0  0  1  0  0  3  0  0  0  0  0  0
  195.2760  176.1920  144.5820 C   0  0  0  0  0  2  0  0  0  0  0  0
  195.6100  174.8280  144.1800 N   0  0  0  0  0  2  0  0  0  0  0  0
  190.9930  173.4240  140.4760 C   0  0  0  0  0  0  0  0  0  0  0  0
  191.1250  171.9630  140.8170 C   0  0  2  0  0  3  0  0  0  0  0  0
  188.7310  175.6770  143.4540 C   0  0  1  0  0  3  0  0  0  0  0  0
  190.9120  175.9760  144.6510 C   0  0  0  0  0  2  0  0  0  0  0  0
  192.0940  170.3870  142.2460 C   0  0  1  0  0  3  0  0  0  0  0  0
  188.8560  176.8330  145.7540 C   0  0  0  0  0  2  0  0  0  0  0  0
  193.7590  176.4160  144.5680 C   0  0  0  0  0  2  0  0  0  0  0  0
  191.6490  175.8380  143.3890 N   0  0  1  0  0  0  0  0  0  0  0  0
  193.0030  175.3650  143.7290 C   0  0  1  0  0  3  0  0  0  0  0  0
  193.1160  173.9970  141.6090 C   0  0  1  0  0  3  0  0  0  0  0  0
  190.6370  170.3760  142.3880 N   0  0  0  0  0  2  0  0  0  0  0  0
  187.2890  177.7760  143.1440 C   0  0  0  0  0  2  0  0  0  0  0  0
  189.5370  176.5860  144.4050 C   0  0  2  0  0  3  0  0  0  0  0  0
  190.1340  171.5490  141.7900 N   0  0  0  0  0  2  0  0  0  0  0  0
  187.3670  176.2490  143.0370 C   0  0  0  0  0  2  0  0  0  0  0  0
  187.3770  177.2340  145.6660 C   0  0  1  0  0  3  0  0  0  0  0  0
  195.2740  174.6610  142.7640 C   0  0  0  0  0  2  0  0  0  0  0  0
  193.8140  175.0500  142.4620 C   0  0  2  0  0  3  0  0  0  0  0  0
  193.0700  172.6330  142.3060 C   0  0  0  0  0  2  0  0  0  0  0  0
  189.5470  175.3900  142.1990 C   0  0  0  0  0  2  0  0  0  0  0  0
  190.1710  173.7800  139.5590 N   0  0  0  0  0  2  0  0  0  0  0  0
  192.5470  169.1010  141.5820 C   0  0  0  0  0  1  0  0  0  0  0  0
  191.7020  174.4780  141.2850 C   0  0  2  0  0  3  0  0  0  0  0  0
  192.4700  171.5660  141.3880 C   0  0  2  0  0  3  0  0  0  0  0  0
  186.8930  177.7530  147.0100 C   0  0  0  0  0  2  0  0  0  0  0  0
  185.4040  177.7220  147.0840 C   0  0  0  0  0  0  0  0  0  0  0  0
  184.7810  178.6660  147.6380 O   0  0  0  0  0  1  0  0  0  0  0  0
  184.7010  176.6700  146.5130 O   0  0  0  0  0  0  0  0  0  0  0  0
  1 20  1  0  0  0  0
  2 24  1  6  0  0  0
  2 12  1  0  0  0  0
  4  3  1  0  0  0  0
  6  5  1  1  0  0  0
  6 28  1  0  0  0  0
  6 18  1  0  0  0  0
  7 24  1  6  0  0  0
  7 17  1  0  0  0  0
  9 26  1  6  0  0  0
  9 15  1  0  0  0  0
 11  3  1  0  0  0  0
 12 13  1  0  0  0  0
 12  8  1  1  0  0  0
 13 11  1  6  0  0  0
 14 23  1  1  0  0  0
 14 22  1  0  0  0  0
 16  1  1  0  0  0  0
 17  8  1  1  0  0  0
 17 10  1  0  0  0  0
 18 15  1  0  0  0  0
 19 16  1  0  0  0  0
 19  7  1  0  0  0  0
 20 10  1  0  0  0  0
 20 29  1  1  0  0  0
 21  4  1  0  0  0  0
 22 21  1  1  0  0  0
 22 13  1  0  0  0  0
 25  5  2  0  0  0  0
 27  5  1  1  0  0  0
 27 14  1  0  0  0  0
 27  2  1  0  0  0  0
 28  9  1  0  0  0  0
 28 23  1  1  0  0  0
 29 30  1  0  0  0  0
 30 31  1  0  0  0  0
 32 30  2  0  0  0  0
M  END
>  <MODEL>
7

>  <REMARK>
 VINA RESULT:      -7.6      2.229      5.021
  Name = 
  2 active torsions:
  status: ('A' for Active; 'I' for Inactive)
    1  A    between atoms: C_20  and  C_29
    2  A    between atoms: C_29  and  C_30
                            x       y       z     vdW  Elec       q    Type
                         _______ _______ _______ _____ _____    ______ ____

>  <TORSDO>
F 2

$$$$
=
 OpenBabel11112416313D

 32 37  0  0  1  0  0  0  0  0999 V2000
  195.4930  173.7060  141.4760 C   0  0  0  0  0  2  0  0  0  0  0  0
  190.5500  175.3230  143.3600 C   0  0  1  0  0  3  0  0  0  0  0  0
  191.2330  176.8880  148.0370 C   0  0  0  0  0  2  0  0  0  0  0  0
  189.9650  177.5520  147.7430 N   0  0  0  0  0  2  0  0  0  0  0  0
  188.1970  174.7230  142.6550 C   0  0  0  0  0  0  0  0  0  0  0  0
  187.4430  175.9450  142.2030 C   0  0  2  0  0  3  0  0  0  0  0  0
  192.4710  174.9330  141.7910 C   0  0  1  0  0  3  0  0  0  0  0  0
  192.6980  176.1000  143.9950 C   0  0  0  0  0  2  0  0  0  0  0  0
  187.0550  178.2240  142.5550 C   0  0  1  0  0  3  0  0  0  0  0  0
  194.7300  175.8910  142.5790 C   0  0  0  0  0  2  0  0  0  0  0  0
  191.9090  176.3940  146.7510 C   0  0  0  0  0  2  0  0  0  0  0  0
  191.4900  175.4350  144.4980 N   0  0  1  0  0  0  0  0  0  0  0  0
  190.9340  176.2910  145.5600 C   0  0  1  0  0  3  0  0  0  0  0  0
  188.5770  175.6550  144.9150 C   0  0  1  0  0  3  0  0  0  0  0  0
  187.6640  178.0080  141.2420 N   0  0  0  0  0  2  0  0  0  0  0  0
  194.1230  173.0270  141.3200 C   0  0  0  0  0  2  0  0  0  0  0  0
  193.4130  175.2190  142.9780 C   0  0  2  0  0  3  0  0  0  0  0  0
  188.1910  176.7010  141.2170 N   0  0  0  0  0  2  0  0  0  0  0  0
  193.0430  173.9530  140.7520 C   0  0  0  0  0  2  0  0  0  0  0  0
  195.4550  175.2360  141.3950 C   0  0  1  0  0  3  0  0  0  0  0  0
  189.0170  176.5510  147.2470 C   0  0  0  0  0  2  0  0  0  0  0  0
  189.5820  175.7520  146.0560 C   0  0  2  0  0  3  0  0  0  0  0  0
  188.1900  177.0340  144.3720 C   0  0  0  0  0  2  0  0  0  0  0  0
  191.1450  174.3850  142.3030 C   0  0  0  0  0  2  0  0  0  0  0  0
  188.0970  173.6400  141.9770 N   0  0  0  0  0  2  0  0  0  0  0  0
  185.6170  178.6710  142.3790 C   0  0  0  0  0  1  0  0  0  0  0  0
  189.1700  174.7900  143.8020 C   0  0  2  0  0  3  0  0  0  0  0  0
  187.0960  176.9200  143.3080 C   0  0  2  0  0  3  0  0  0  0  0  0
  196.8730  175.7730  141.2870 C   0  0  0  0  0  2  0  0  0  0  0  0
  197.4650  175.9820  142.6390 C   0  0  0  0  0  0  0  0  0  0  0  0
  197.5050  177.1380  143.1370 O   0  0  0  0  0  0  0  0  0  0  0  0
  197.9410  174.8990  143.3640 O   0  0  0  0  0  1  0  0  0  0  0  0
  2 24  1  6  0  0  0
  2 27  1  0  0  0  0
  2 12  1  0  0  0  0
  4  3  1  0  0  0  0
  6 18  1  6  0  0  0
  6  5  1  0  0  0  0
  6 28  1  0  0  0  0
  7 19  1  6  0  0  0
  7 24  1  0  0  0  0
  7 17  1  0  0  0  0
  9 26  1  6  0  0  0
  9 28  1  0  0  0  0
 11  3  1  0  0  0  0
 12  8  1  6  0  0  0
 12 13  1  0  0  0  0
 13 22  1  0  0  0  0
 13 11  1  1  0  0  0
 14 23  1  6  0  0  0
 14 22  1  0  0  0  0
 15  9  1  0  0  0  0
 16  1  1  0  0  0  0
 17 10  1  6  0  0  0
 17  8  1  0  0  0  0
 18 15  1  0  0  0  0
 19 16  1  0  0  0  0
 20 29  1  1  0  0  0
 20  1  1  0  0  0  0
 20 10  1  0  0  0  0
 21  4  1  0  0  0  0
 22 21  1  1  0  0  0
 25  5  2  0  0  0  0
 27  5  1  6  0  0  0
 27 14  1  0  0  0  0
 28 23  1  1  0  0  0
 29 30  1  0  0  0  0
 30 31  2  0  0  0  0
 30 32  1  0  0  0  0
M  END
>  <MODEL>
8

>  <REMARK>
 VINA RESULT:      -7.3      3.884      8.109
  Name = 
  2 active torsions:
  status: ('A' for Active; 'I' for Inactive)
    1  A    between atoms: C_20  and  C_29
    2  A    between atoms: C_29  and  C_30
                            x       y       z     vdW  Elec       q    Type
                         _______ _______ _______ _____ _____    ______ ____

>  <TORSDO>
F 2

$$$$
=
 OpenBabel11112416313D

 32 37  0  0  1  0  0  0  0  0999 V2000
  192.3150  171.5870  142.0550 C   0  0  0  0  0  2  0  0  0  0  0  0
  189.1430  175.8380  143.6250 C   0  0  1  0  0  3  0  0  0  0  0  0
  186.4470  177.1660  139.6550 C   0  0  0  0  0  2  0  0  0  0  0  0
  185.6350  177.7660  140.7100 N   0  0  0  0  0  2  0  0  0  0  0  0
  189.3820  177.5200  145.4970 C   0  0  0  0  0  0  0  0  0  0  0  0
  188.2140  177.4410  146.4440 C   0  0  2  0  0  3  0  0  0  0  0  0
  190.4050  173.6690  143.7140 C   0  0  1  0  0  3  0  0  0  0  0  0
  188.7140  174.2170  141.9490 C   0  0  0  0  0  2  0  0  0  0  0  0
  185.9080  177.1160  146.6540 C   0  0  1  0  0  3  0  0  0  0  0  0
  189.7880  171.9760  141.8720 C   0  0  0  0  0  2  0  0  0  0  0  0
  187.4410  176.1510  140.2330 C   0  0  0  0  0  2  0  0  0  0  0  0
  188.9100  175.6540  142.1750 N   0  0  1  0  0  0  0  0  0  0  0  0
  187.6740  176.3310  141.7470 C   0  0  1  0  0  3  0  0  0  0  0  0
  187.9270  178.0610  143.5700 C   0  0  1  0  0  3  0  0  0  0  0  0
  186.6380  176.0410  147.3270 N   0  0  0  0  0  2  0  0  0  0  0  0
  192.6850  172.8160  142.9030 C   0  0  0  0  0  2  0  0  0  0  0  0
  189.9960  173.4470  142.2440 C   0  0  2  0  0  3  0  0  0  0  0  0
  187.9760  176.0810  146.8860 N   0  0  0  0  0  2  0  0  0  0  0  0
  191.7520  173.0360  144.0990 C   0  0  0  0  0  2  0  0  0  0  0  0
  190.9120  171.0320  142.3210 C   0  0  1  0  0  3  0  0  0  0  0  0
  186.4990  178.6040  141.5460 C   0  0  0  0  0  2  0  0  0  0  0  0
  187.7220  177.8320  142.0770 C   0  0  2  0  0  3  0  0  0  0  0  0
  186.7240  177.5920  144.3930 C   0  0  0  0  0  2  0  0  0  0  0  0
  190.4620  175.1620  144.0150 C   0  0  0  0  0  2  0  0  0  0  0  0
  190.5670  177.6330  145.9730 N   0  0  0  0  0  2  0  0  0  0  0  0
  185.2230  177.9870  147.6900 C   0  0  0  0  0  1  0  0  0  0  0  0
  189.1950  177.3310  144.0140 C   0  0  2  0  0  3  0  0  0  0  0  0
  186.9020  177.9360  145.8730 C   0  0  2  0  0  3  0  0  0  0  0  0
  190.7650  169.6810  141.6420 C   0  0  0  0  0  2  0  0  0  0  0  0
  191.9530  168.8210  141.9110 C   0  0  0  0  0  0  0  0  0  0  0  0
  192.6460  168.3870  140.9530 O   0  0  0  0  0  0  0  0  0  0  0  0
  192.3160  168.5260  143.2170 O   0  0  0  0  0  1  0  0  0  0  0  0
  1 20  1  0  0  0  0
  1 16  1  0  0  0  0
  2 27  1  0  0  0  0
  2 24  1  6  0  0  0
  3 11  1  0  0  0  0
  3  4  1  0  0  0  0
  4 21  1  0  0  0  0
  5 25  2  0  0  0  0
  6  5  1  6  0  0  0
  6 18  1  0  0  0  0
  7 24  1  6  0  0  0
  7 19  1  0  0  0  0
  8 17  1  0  0  0  0
  9 15  1  0  0  0  0
  9 26  1  1  0  0  0
 10 20  1  0  0  0  0
 12  8  1  1  0  0  0
 12  2  1  0  0  0  0
 13 11  1  6  0  0  0
 13 22  1  0  0  0  0
 13 12  1  0  0  0  0
 14 27  1  0  0  0  0
 14 23  1  1  0  0  0
 16 19  1  0  0  0  0
 17 10  1  1  0  0  0
 17  7  1  0  0  0  0
 18 15  1  0  0  0  0
 20 29  1  6  0  0  0
 22 21  1  1  0  0  0
 22 14  1  0  0  0  0
 27  5  1  1  0  0  0
 28 23  1  6  0  0  0
 28  6  1  0  0  0  0
 28  9  1  0  0  0  0
 29 30  1  0  0  0  0
 30 32  1  0  0  0  0
 31 30  2  0  0  0  0
M  END
>  <MODEL>
9

>  <REMARK>
 VINA RESULT:      -7.3      3.870      7.488
  Name = 
  2 active torsions:
  status: ('A' for Active; 'I' for Inactive)
    1  A    between atoms: C_20  and  C_29
    2  A    between atoms: C_29  and  C_30
                            x       y       z     vdW  Elec       q    Type
                         _______ _______ _______ _____ _____    ______ ____

>  <TORSDO>
F 2

$$$$
