=
 OpenBabel11112417383D

 28 32  0  0  1  0  0  0  0  0999 V2000
  186.2710  178.3770  144.2260 C   0  0  0  0  0  0  0  0  0  0  0  0
  189.7330  178.2360  145.3230 O   0  0  0  0  0  0  0  0  0  0  0  0
  188.0520  175.0460  139.1310 O   0  0  0  0  0  0  0  0  0  0  0  0
  185.4740  176.8380  146.4290 C   0  0  0  0  0  3  0  0  0  0  0  0
  188.4100  173.9220  141.2180 C   0  0  0  0  0  0  0  0  0  0  0  0
  186.5990  179.1970  143.0210 C   0  0  0  0  0  2  0  0  0  0  0  0
  190.8700  176.2560  146.2040 O   0  0  0  0  0  0  0  0  0  0  0  0
  190.3170  176.8980  144.9630 S   0  0  0  0  0  0  0  0  0  0  0  0
  191.7620  175.4650  143.0330 C   0  0  2  0  0  3  0  0  0  0  0  0
  189.0330  175.8450  144.2840 C   0  0  2  0  0  3  0  0  0  0  0  0
  185.0020  177.6140  140.1350 O   0  0  0  0  0  0  0  0  0  0  0  0
  187.3360  175.5720  142.5760 C   0  0  2  0  0  3  0  0  0  0  0  0
  190.4830  175.2730  142.3740 N   0  0  0  0  0  2  0  0  0  0  0  0
  191.8720  177.1820  143.5970 S   0  0  0  0  0  0  0  0  0  0  0  0
  185.9250  177.9600  140.9180 C   0  0  0  0  0  0  0  0  0  0  0  0
  186.8840  177.1290  144.4640 C   0  0  0  0  0  0  0  0  0  0  0  0
  187.9370  174.9920  140.3850 C   0  0  0  0  0  0  0  0  0  0  0  0
  192.8780  175.1910  142.0490 C   0  0  0  0  0  1  0  0  0  0  0  0
  187.2960  177.4020  140.7270 C   0  0  0  0  0  2  0  0  0  0  0  0
  186.4620  176.3620  145.5650 C   0  0  0  0  0  3  0  0  0  0  0  0
  185.2780  178.8430  145.0940 C   0  0  0  0  0  3  0  0  0  0  0  0
  184.8840  178.0800  146.1950 C   0  0  0  0  0  3  0  0  0  0  0  0
  185.6500  178.8980  141.9580 N   0  0  0  0  0  2  0  0  0  0  0  0
  188.2230  174.3050  142.6500 C   0  0  2  0  0  3  0  0  0  0  0  0
  187.3610  176.0160  141.1750 N   0  0  0  0  0  0  0  0  0  0  0  0
  189.5220  174.7440  143.3480 C   0  0  2  0  0  3  0  0  0  0  0  0
  188.9440  172.8580  140.8080 O   0  0  0  0  0  0  0  0  0  0  0  0
  187.9430  176.5960  143.5320 C   0  0  1  0  0  3  0  0  0  0  0  0
  1 16  2  0  0  0  0
  1 21  1  0  0  0  0
  3 17  2  0  0  0  0
  6  1  1  0  0  0  0
  8  2  2  0  0  0  0
  8  7  2  0  0  0  0
  9 18  1  6  0  0  0
  9 14  1  0  0  0  0
 10  8  1  6  0  0  0
 11 15  2  0  0  0  0
 12 25  1  6  0  0  0
 12 24  1  0  0  0  0
 12 28  1  0  0  0  0
 13  9  1  0  0  0  0
 14  8  1  0  0  0  0
 15 23  1  0  0  0  0
 16 20  1  0  0  0  0
 17 25  1  0  0  0  0
 17  5  1  0  0  0  0
 19 15  1  0  0  0  0
 19 25  1  0  0  0  0
 20  4  2  0  0  0  0
 21 22  2  0  0  0  0
 22  4  1  0  0  0  0
 23  6  1  0  0  0  0
 24  5  1  6  0  0  0
 24 26  1  0  0  0  0
 26 13  1  6  0  0  0
 26 10  1  0  0  0  0
 27  5  2  0  0  0  0
 28 10  1  0  0  0  0
 28 16  1  1  0  0  0
M  END
>  <MODEL>
1

>  <REMARK>
 VINA RESULT:      -8.4      0.000      0.000
  Name = 
  0 active torsions:
  status: ('A' for Active; 'I' for Inactive)
                            x       y       z     vdW  Elec       q    Type
                         _______ _______ _______ _____ _____    ______ ____

>  <TORSDO>
F 0

$$$$
=
 OpenBabel11112417383D

 28 32  0  0  1  0  0  0  0  0999 V2000
  186.1010  176.8790  143.6180 C   0  0  0  0  0  0  0  0  0  0  0  0
  187.4100  173.8270  142.1420 O   0  0  0  0  0  0  0  0  0  0  0  0
  190.8820  176.5780  147.7740 O   0  0  0  0  0  0  0  0  0  0  0  0
  186.6630  178.2980  141.2660 C   0  0  0  0  0  3  0  0  0  0  0  0
  191.5750  176.7730  145.4880 C   0  0  0  0  0  0  0  0  0  0  0  0
  185.7690  176.2100  144.9110 C   0  0  0  0  0  2  0  0  0  0  0  0
  189.4410  173.6560  140.7880 O   0  0  0  0  0  0  0  0  0  0  0  0
  188.9130  173.8590  142.1790 S   0  0  0  0  0  0  0  0  0  0  0  0
  191.1920  173.1200  143.6380 C   0  0  2  0  0  3  0  0  0  0  0  0
  189.4660  175.4540  142.7850 C   0  0  2  0  0  3  0  0  0  0  0  0
  187.1380  178.2700  147.6070 O   0  0  0  0  0  0  0  0  0  0  0  0
  189.3790  177.0720  144.5870 C   0  0  2  0  0  3  0  0  0  0  0  0
  190.9800  174.3460  144.3850 N   0  0  0  0  0  2  0  0  0  0  0  0
  189.5940  172.3030  143.3960 S   0  0  0  0  0  0  0  0  0  0  0  0
  187.0420  177.3040  146.8070 C   0  0  0  0  0  0  0  0  0  0  0  0
  187.4070  176.8590  143.0850 C   0  0  0  0  0  0  0  0  0  0  0  0
  190.6120  176.7300  146.5520 C   0  0  0  0  0  0  0  0  0  0  0  0
  192.1060  172.2060  144.4260 C   0  0  0  0  0  1  0  0  0  0  0  0
  188.1400  176.2940  146.7390 C   0  0  0  0  0  2  0  0  0  0  0  0
  187.6760  177.5880  141.9120 C   0  0  0  0  0  3  0  0  0  0  0  0
  185.0930  177.5980  142.9650 C   0  0  0  0  0  3  0  0  0  0  0  0
  185.3700  178.3000  141.7910 C   0  0  0  0  0  3  0  0  0  0  0  0
  185.8730  177.1750  145.9970 N   0  0  0  0  0  2  0  0  0  0  0  0
  190.8500  176.8080  144.1810 C   0  0  2  0  0  3  0  0  0  0  0  0
  189.2980  176.8330  146.0360 N   0  0  0  0  0  0  0  0  0  0  0  0
  190.8440  175.4600  143.4400 C   0  0  2  0  0  3  0  0  0  0  0  0
  192.8250  176.7320  145.6300 O   0  0  0  0  0  0  0  0  0  0  0  0
  188.5150  176.1070  143.7790 C   0  0  1  0  0  3  0  0  0  0  0  0
  1  6  1  0  0  0  0
  2  8  2  0  0  0  0
  4 22  2  0  0  0  0
  4 20  1  0  0  0  0
  5 27  2  0  0  0  0
  5 17  1  0  0  0  0
  6 23  1  0  0  0  0
  7  8  2  0  0  0  0
  8 14  1  0  0  0  0
  9 13  1  0  0  0  0
  9 18  1  1  0  0  0
 10  8  1  1  0  0  0
 10 26  1  0  0  0  0
 10 28  1  0  0  0  0
 12 25  1  1  0  0  0
 14  9  1  0  0  0  0
 15 11  2  0  0  0  0
 16  1  1  0  0  0  0
 17  3  2  0  0  0  0
 19 15  1  0  0  0  0
 20 16  2  0  0  0  0
 21  1  2  0  0  0  0
 22 21  1  0  0  0  0
 23 15  1  0  0  0  0
 24 12  1  0  0  0  0
 24  5  1  1  0  0  0
 25 17  1  0  0  0  0
 25 19  1  0  0  0  0
 26 24  1  0  0  0  0
 26 13  1  1  0  0  0
 28 16  1  6  0  0  0
 28 12  1  0  0  0  0
M  END
>  <MODEL>
2

>  <REMARK>
 VINA RESULT:      -7.9      2.602      4.910
  Name = 
  0 active torsions:
  status: ('A' for Active; 'I' for Inactive)
                            x       y       z     vdW  Elec       q    Type
                         _______ _______ _______ _____ _____    ______ ____

>  <TORSDO>
F 0

$$$$
=
 OpenBabel11112417383D

 28 32  0  0  1  0  0  0  0  0999 V2000
  186.9130  177.4420  144.6730 C   0  0  0  0  0  0  0  0  0  0  0  0
  187.0660  174.4500  142.6170 O   0  0  0  0  0  0  0  0  0  0  0  0
  192.9000  176.2270  146.3780 O   0  0  0  0  0  0  0  0  0  0  0  0
  186.6330  179.0410  142.3880 C   0  0  0  0  0  3  0  0  0  0  0  0
  192.6000  176.5950  144.0280 C   0  0  0  0  0  0  0  0  0  0  0  0
  187.0620  176.6750  145.9470 C   0  0  0  0  0  2  0  0  0  0  0  0
  188.3080  174.2230  140.5200 O   0  0  0  0  0  0  0  0  0  0  0  0
  188.4380  174.3290  142.0130 S   0  0  0  0  0  0  0  0  0  0  0  0
  190.9940  173.2160  142.3210 C   0  0  2  0  0  3  0  0  0  0  0  0
  189.4020  175.7870  142.4130 C   0  0  2  0  0  3  0  0  0  0  0  0
  189.6910  178.2900  147.9120 O   0  0  0  0  0  0  0  0  0  0  0  0
  190.2910  177.2050  144.1660 C   0  0  2  0  0  3  0  0  0  0  0  0
  191.2790  174.3700  143.1530 N   0  0  0  0  0  2  0  0  0  0  0  0
  189.3460  172.5910  142.7380 S   0  0  0  0  0  0  0  0  0  0  0  0
  189.1420  177.4290  147.1770 C   0  0  0  0  0  0  0  0  0  0  0  0
  187.8640  177.3490  143.6350 C   0  0  0  0  0  0  0  0  0  0  0  0
  192.1700  176.5350  145.3980 C   0  0  0  0  0  0  0  0  0  0  0  0
  192.0200  172.1370  142.5940 C   0  0  0  0  0  1  0  0  0  0  0  0
  189.9660  176.3290  146.5940 C   0  0  0  0  0  2  0  0  0  0  0  0
  187.7170  178.1690  142.5020 C   0  0  0  0  0  3  0  0  0  0  0  0
  185.8330  178.3220  144.5520 C   0  0  0  0  0  3  0  0  0  0  0  0
  185.6880  179.1150  143.4120 C   0  0  0  0  0  3  0  0  0  0  0  0
  187.7360  177.5040  146.9360 N   0  0  0  0  0  2  0  0  0  0  0  0
  191.4100  176.8410  143.1590 C   0  0  2  0  0  3  0  0  0  0  0  0
  190.7880  176.8220  145.4960 N   0  0  0  0  0  0  0  0  0  0  0  0
  190.9140  175.5860  142.4190 C   0  0  2  0  0  3  0  0  0  0  0  0
  193.7780  176.4160  143.6230 O   0  0  0  0  0  0  0  0  0  0  0  0
  189.0480  176.4220  143.7500 C   0  0  1  0  0  3  0  0  0  0  0  0
  1  6  1  0  0  0  0
  4 20  2  0  0  0  0
  4 22  1  0  0  0  0
  5 17  1  0  0  0  0
  6 23  1  0  0  0  0
  7  8  2  0  0  0  0
  8  2  2  0  0  0  0
  8 14  1  0  0  0  0
  9 18  1  1  0  0  0
  9 14  1  0  0  0  0
  9 13  1  0  0  0  0
 10  8  1  1  0  0  0
 10 26  1  0  0  0  0
 10 28  1  0  0  0  0
 12 25  1  1  0  0  0
 15 11  2  0  0  0  0
 16  1  2  0  0  0  0
 17 25  1  0  0  0  0
 17  3  2  0  0  0  0
 19 15  1  0  0  0  0
 20 16  1  0  0  0  0
 21  1  1  0  0  0  0
 22 21  2  0  0  0  0
 23 15  1  0  0  0  0
 24  5  1  1  0  0  0
 24 12  1  0  0  0  0
 25 19  1  0  0  0  0
 26 13  1  1  0  0  0
 26 24  1  0  0  0  0
 27  5  2  0  0  0  0
 28 16  1  6  0  0  0
 28 12  1  0  0  0  0
M  END
>  <MODEL>
3

>  <REMARK>
 VINA RESULT:      -7.9      2.565      4.924
  Name = 
  0 active torsions:
  status: ('A' for Active; 'I' for Inactive)
                            x       y       z     vdW  Elec       q    Type
                         _______ _______ _______ _____ _____    ______ ____

>  <TORSDO>
F 0

$$$$
=
 OpenBabel11112417383D

 28 32  0  0  1  0  0  0  0  0999 V2000
  192.4780  174.4110  145.0350 C   0  0  0  0  0  0  0  0  0  0  0  0
  190.2830  175.7870  147.5820 O   0  0  0  0  0  0  0  0  0  0  0  0
  187.8170  175.4500  140.8640 O   0  0  0  0  0  0  0  0  0  0  0  0
  194.2650  176.5450  145.3720 C   0  0  0  0  0  3  0  0  0  0  0  0
  188.6310  177.4290  141.9440 C   0  0  0  0  0  0  0  0  0  0  0  0
  191.5880  173.2380  144.7820 C   0  0  0  0  0  2  0  0  0  0  0  0
  189.6970  178.1500  147.8350 O   0  0  0  0  0  0  0  0  0  0  0  0
  189.4870  176.9210  146.9970 S   0  0  0  0  0  0  0  0  0  0  0  0
  187.0800  177.6350  145.7470 C   0  0  2  0  0  3  0  0  0  0  0  0
  190.0510  177.2510  145.3260 C   0  0  2  0  0  3  0  0  0  0  0  0
  191.0920  172.9840  141.1660 O   0  0  0  0  0  0  0  0  0  0  0  0
  190.4260  176.3560  143.1050 C   0  0  2  0  0  3  0  0  0  0  0  0
  187.7240  177.2260  144.5120 N   0  0  0  0  0  2  0  0  0  0  0  0
  187.4590  176.4160  147.0310 S   0  0  0  0  0  0  0  0  0  0  0  0
  190.8220  173.2350  142.3690 C   0  0  0  0  0  0  0  0  0  0  0  0
  192.0120  175.7370  144.9200 C   0  0  0  0  0  0  0  0  0  0  0  0
  188.6270  176.0250  141.6380 C   0  0  0  0  0  0  0  0  0  0  0  0
  185.5820  177.6860  145.5360 C   0  0  0  0  0  1  0  0  0  0  0  0
  189.5490  173.9400  142.7030 C   0  0  0  0  0  2  0  0  0  0  0  0
  192.9230  176.7960  145.0780 C   0  0  0  0  0  3  0  0  0  0  0  0
  193.8250  174.1690  145.3260 C   0  0  0  0  0  3  0  0  0  0  0  0
  194.7150  175.2310  145.5000 C   0  0  0  0  0  3  0  0  0  0  0  0
  191.7230  172.8180  143.3950 N   0  0  0  0  0  2  0  0  0  0  0  0
  189.6390  177.6870  143.0150 C   0  0  2  0  0  3  0  0  0  0  0  0
  189.6360  175.3560  142.3710 N   0  0  0  0  0  0  0  0  0  0  0  0
  189.0210  177.9020  144.4080 C   0  0  2  0  0  3  0  0  0  0  0  0
  187.8710  178.2910  141.4310 O   0  0  0  0  0  0  0  0  0  0  0  0
  190.5690  176.0240  144.5890 C   0  0  1  0  0  3  0  0  0  0  0  0
  1 21  1  0  0  0  0
  3 17  2  0  0  0  0
  4 22  1  0  0  0  0
  6  1  1  0  0  0  0
  8 14  1  0  0  0  0
  8  2  2  0  0  0  0
  8  7  2  0  0  0  0
  9 18  1  6  0  0  0
  9 14  1  0  0  0  0
 10  8  1  1  0  0  0
 11 15  2  0  0  0  0
 12 25  1  6  0  0  0
 12 28  1  0  0  0  0
 13  9  1  0  0  0  0
 15 19  1  0  0  0  0
 15 23  1  0  0  0  0
 16  1  2  0  0  0  0
 16 20  1  0  0  0  0
 17  5  1  0  0  0  0
 17 25  1  0  0  0  0
 20  4  2  0  0  0  0
 21 22  2  0  0  0  0
 23  6  1  0  0  0  0
 24  5  1  6  0  0  0
 24 12  1  0  0  0  0
 24 26  1  0  0  0  0
 25 19  1  0  0  0  0
 26 13  1  6  0  0  0
 26 10  1  0  0  0  0
 27  5  2  0  0  0  0
 28 16  1  6  0  0  0
 28 10  1  0  0  0  0
M  END
>  <MODEL>
4

>  <REMARK>
 VINA RESULT:      -7.9      2.409      5.840
  Name = 
  0 active torsions:
  status: ('A' for Active; 'I' for Inactive)
                            x       y       z     vdW  Elec       q    Type
                         _______ _______ _______ _____ _____    ______ ____

>  <TORSDO>
F 0

$$$$
=
 OpenBabel11112417383D

 28 32  0  0  1  0  0  0  0  0999 V2000
  188.8060  176.6600  145.3710 C   0  0  0  0  0  0  0  0  0  0  0  0
  192.4030  176.5070  144.8800 O   0  0  0  0  0  0  0  0  0  0  0  0
  188.1910  174.7490  139.3560 O   0  0  0  0  0  0  0  0  0  0  0  0
  188.9410  174.5950  147.2630 C   0  0  0  0  0  3  0  0  0  0  0  0
  189.3440  173.1940  140.7700 C   0  0  0  0  0  0  0  0  0  0  0  0
  188.6320  177.7600  144.3760 C   0  0  0  0  0  2  0  0  0  0  0  0
  193.7320  174.4590  144.7070 O   0  0  0  0  0  0  0  0  0  0  0  0
  192.7370  175.3350  144.0000 S   0  0  0  0  0  0  0  0  0  0  0  0
  193.1990  174.4980  141.3620 C   0  0  2  0  0  3  0  0  0  0  0  0
  191.2510  174.3830  143.6750 C   0  0  2  0  0  3  0  0  0  0  0  0
  185.9260  176.7910  142.1130 O   0  0  0  0  0  0  0  0  0  0  0  0
  188.9900  174.4010  142.8050 C   0  0  2  0  0  3  0  0  0  0  0  0
  191.7560  174.3780  141.2610 N   0  0  0  0  0  2  0  0  0  0  0  0
  193.5940  176.0390  142.2280 S   0  0  0  0  0  0  0  0  0  0  0  0
  187.1020  177.0070  142.5060 C   0  0  0  0  0  0  0  0  0  0  0  0
  189.4170  175.4360  145.0270 C   0  0  0  0  0  0  0  0  0  0  0  0
  188.6050  174.3950  140.4920 C   0  0  0  0  0  0  0  0  0  0  0  0
  193.7950  174.5410  139.9720 C   0  0  0  0  0  1  0  0  0  0  0  0
  188.2500  176.6060  141.6390 C   0  0  0  0  0  2  0  0  0  0  0  0
  189.4650  174.4050  145.9820 C   0  0  0  0  0  3  0  0  0  0  0  0
  188.2800  176.8390  146.6560 C   0  0  0  0  0  3  0  0  0  0  0  0
  188.3520  175.8140  147.6010 C   0  0  0  0  0  3  0  0  0  0  0  0
  187.3170  177.6540  143.7600 N   0  0  0  0  0  2  0  0  0  0  0  0
  189.7820  173.2170  142.1990 C   0  0  2  0  0  3  0  0  0  0  0  0
  188.4460  175.1620  141.6700 N   0  0  0  0  0  0  0  0  0  0  0  0
  191.2680  173.5700  142.3850 C   0  0  2  0  0  3  0  0  0  0  0  0
  189.6220  172.2960  139.9340 O   0  0  0  0  0  0  0  0  0  0  0  0
  189.9750  175.2120  143.6440 C   0  0  1  0  0  3  0  0  0  0  0  0
  1 21  1  0  0  0  0
  3 17  2  0  0  0  0
  4 22  1  0  0  0  0
  6  1  1  0  0  0  0
  8  7  2  0  0  0  0
  8  2  2  0  0  0  0
  9 18  1  6  0  0  0
  9 14  1  0  0  0  0
 10  8  1  6  0  0  0
 11 15  2  0  0  0  0
 12 25  1  6  0  0  0
 12 28  1  0  0  0  0
 13  9  1  0  0  0  0
 14  8  1  0  0  0  0
 15 23  1  0  0  0  0
 16  1  2  0  0  0  0
 16 20  1  0  0  0  0
 17  5  1  0  0  0  0
 17 25  1  0  0  0  0
 19 25  1  0  0  0  0
 19 15  1  0  0  0  0
 20  4  2  0  0  0  0
 21 22  2  0  0  0  0
 23  6  1  0  0  0  0
 24  5  1  6  0  0  0
 24 26  1  0  0  0  0
 24 12  1  0  0  0  0
 26 13  1  6  0  0  0
 26 10  1  0  0  0  0
 27  5  2  0  0  0  0
 28 10  1  0  0  0  0
 28 16  1  1  0  0  0
M  END
>  <MODEL>
5

>  <REMARK>
 VINA RESULT:      -7.6      2.066      2.682
  Name = 
  0 active torsions:
  status: ('A' for Active; 'I' for Inactive)
                            x       y       z     vdW  Elec       q    Type
                         _______ _______ _______ _____ _____    ______ ____

>  <TORSDO>
F 0

$$$$
=
 OpenBabel11112417383D

 28 32  0  0  1  0  0  0  0  0999 V2000
  188.6000  176.1650  145.3660 C   0  0  0  0  0  0  0  0  0  0  0  0
  188.9410  173.4800  142.9420 O   0  0  0  0  0  0  0  0  0  0  0  0
  194.8440  175.6740  146.3590 O   0  0  0  0  0  0  0  0  0  0  0  0
  187.8600  177.9500  143.3360 C   0  0  0  0  0  3  0  0  0  0  0  0
  194.2470  176.2540  144.1110 C   0  0  0  0  0  0  0  0  0  0  0  0
  188.9880  175.2910  146.5140 C   0  0  0  0  0  2  0  0  0  0  0  0
  189.9700  173.6770  140.7300 O   0  0  0  0  0  0  0  0  0  0  0  0
  190.2440  173.6330  142.2070 S   0  0  0  0  0  0  0  0  0  0  0  0
  192.9470  172.8870  142.1400 C   0  0  2  0  0  3  0  0  0  0  0  0
  191.0360  175.1650  142.7000 C   0  0  2  0  0  3  0  0  0  0  0  0
  191.5660  177.0490  148.4230 O   0  0  0  0  0  0  0  0  0  0  0  0
  191.9040  176.4930  144.5310 C   0  0  2  0  0  3  0  0  0  0  0  0
  193.1580  173.9690  143.0830 N   0  0  0  0  0  2  0  0  0  0  0  0
  191.4550  171.9800  142.6210 S   0  0  0  0  0  0  0  0  0  0  0  0
  191.0640  176.2040  147.6380 C   0  0  0  0  0  0  0  0  0  0  0  0
  189.4380  176.3330  144.2440 C   0  0  0  0  0  0  0  0  0  0  0  0
  193.9790  175.9770  145.4950 C   0  0  0  0  0  0  0  0  0  0  0  0
  194.1350  171.9490  142.1820 C   0  0  0  0  0  1  0  0  0  0  0  0
  191.9640  175.3110  146.8490 C   0  0  0  0  0  2  0  0  0  0  0  0
  189.0590  177.2430  143.2410 C   0  0  0  0  0  3  0  0  0  0  0  0
  187.4020  176.8820  145.4550 C   0  0  0  0  0  3  0  0  0  0  0  0
  187.0290  177.7670  144.4410 C   0  0  0  0  0  3  0  0  0  0  0  0
  189.6440  176.0950  147.5350 N   0  0  0  0  0  2  0  0  0  0  0  0
  192.9490  176.4160  143.3900 C   0  0  2  0  0  3  0  0  0  0  0  0
  192.5880  176.0410  145.7520 N   0  0  0  0  0  0  0  0  0  0  0  0
  192.5530  175.1920  142.5440 C   0  0  2  0  0  3  0  0  0  0  0  0
  195.3880  176.2990  143.5820 O   0  0  0  0  0  0  0  0  0  0  0  0
  190.7430  175.5850  144.1330 C   0  0  1  0  0  3  0  0  0  0  0  0
  1 21  1  0  0  0  0
  1  6  1  0  0  0  0
  4 22  1  0  0  0  0
  5 17  1  0  0  0  0
  6 23  1  0  0  0  0
  7  8  2  0  0  0  0
  8 14  1  0  0  0  0
  8  2  2  0  0  0  0
  9 18  1  1  0  0  0
  9 14  1  0  0  0  0
  9 13  1  0  0  0  0
 10  8  1  1  0  0  0
 10 28  1  0  0  0  0
 12 25  1  1  0  0  0
 15 11  2  0  0  0  0
 16  1  2  0  0  0  0
 17 25  1  0  0  0  0
 17  3  2  0  0  0  0
 19 15  1  0  0  0  0
 20  4  2  0  0  0  0
 20 16  1  0  0  0  0
 22 21  2  0  0  0  0
 23 15  1  0  0  0  0
 24  5  1  1  0  0  0
 24 12  1  0  0  0  0
 25 19  1  0  0  0  0
 26 10  1  0  0  0  0
 26 13  1  1  0  0  0
 26 24  1  0  0  0  0
 27  5  2  0  0  0  0
 28 16  1  6  0  0  0
 28 12  1  0  0  0  0
M  END
>  <MODEL>
6

>  <REMARK>
 VINA RESULT:      -7.5      3.259      5.809
  Name = 
  0 active torsions:
  status: ('A' for Active; 'I' for Inactive)
                            x       y       z     vdW  Elec       q    Type
                         _______ _______ _______ _____ _____    ______ ____

>  <TORSDO>
F 0

$$$$
=
 OpenBabel11112417383D

 28 32  0  0  1  0  0  0  0  0999 V2000
  188.3330  176.0710  144.0960 C   0  0  0  0  0  0  0  0  0  0  0  0
  191.6990  177.4380  144.0980 O   0  0  0  0  0  0  0  0  0  0  0  0
  190.7920  170.7810  141.6100 O   0  0  0  0  0  0  0  0  0  0  0  0
  188.2640  176.1440  146.8970 C   0  0  0  0  0  3  0  0  0  0  0  0
  191.6560  171.3470  143.7730 C   0  0  0  0  0  0  0  0  0  0  0  0
  188.2760  175.9910  142.6050 C   0  0  0  0  0  2  0  0  0  0  0  0
  193.5030  176.7830  145.6160 O   0  0  0  0  0  0  0  0  0  0  0  0
  192.6800  176.3510  144.4360 S   0  0  0  0  0  0  0  0  0  0  0  0
  194.3930  174.3930  143.3870 C   0  0  2  0  0  3  0  0  0  0  0  0
  191.7920  174.8520  144.8630 C   0  0  2  0  0  3  0  0  0  0  0  0
  187.1240  172.6330  141.7200 O   0  0  0  0  0  0  0  0  0  0  0  0
  190.1780  173.1880  144.1570 C   0  0  2  0  0  3  0  0  0  0  0  0
  193.2150  173.5460  143.3310 N   0  0  0  0  0  2  0  0  0  0  0  0
  193.9460  176.0470  142.8010 S   0  0  0  0  0  0  0  0  0  0  0  0
  187.9240  173.5920  141.8770 C   0  0  0  0  0  0  0  0  0  0  0  0
  189.3500  175.4340  144.8360 C   0  0  0  0  0  0  0  0  0  0  0  0
  190.7890  171.5070  142.6400 C   0  0  0  0  0  0  0  0  0  0  0  0
  195.4650  173.8170  142.4860 C   0  0  0  0  0  1  0  0  0  0  0  0
  189.3870  173.3660  141.6840 C   0  0  0  0  0  2  0  0  0  0  0  0
  189.2940  175.4670  146.2410 C   0  0  0  0  0  3  0  0  0  0  0  0
  187.3020  176.7420  144.7630 C   0  0  0  0  0  3  0  0  0  0  0  0
  187.2700  176.7850  146.1580 C   0  0  0  0  0  3  0  0  0  0  0  0
  187.4160  174.8840  142.2120 N   0  0  0  0  0  2  0  0  0  0  0  0
  191.4490  172.4940  144.7080 C   0  0  2  0  0  3  0  0  0  0  0  0
  189.9530  172.6370  142.8120 N   0  0  0  0  0  0  0  0  0  0  0  0
  192.5630  173.5540  144.6450 C   0  0  2  0  0  3  0  0  0  0  0  0
  192.4930  170.4200  143.9280 O   0  0  0  0  0  0  0  0  0  0  0  0
  190.4620  174.6880  144.1410 C   0  0  1  0  0  3  0  0  0  0  0  0
  1 21  2  0  0  0  0
  1 16  1  0  0  0  0
  2  8  2  0  0  0  0
  3 17  2  0  0  0  0
  5 27  2  0  0  0  0
  6  1  1  0  0  0  0
  8  7  2  0  0  0  0
  9 18  1  6  0  0  0
 10  8  1  6  0  0  0
 11 15  2  0  0  0  0
 12 25  1  6  0  0  0
 12 24  1  0  0  0  0
 13  9  1  0  0  0  0
 14  9  1  0  0  0  0
 14  8  1  0  0  0  0
 15 23  1  0  0  0  0
 16 20  2  0  0  0  0
 17 25  1  0  0  0  0
 17  5  1  0  0  0  0
 19 15  1  0  0  0  0
 19 25  1  0  0  0  0
 20  4  1  0  0  0  0
 21 22  1  0  0  0  0
 22  4  2  0  0  0  0
 23  6  1  0  0  0  0
 24  5  1  6  0  0  0
 26 13  1  6  0  0  0
 26 24  1  0  0  0  0
 26 10  1  0  0  0  0
 28 12  1  0  0  0  0
 28 16  1  1  0  0  0
 28 10  1  0  0  0  0
M  END
>  <MODEL>
7

>  <REMARK>
 VINA RESULT:      -7.3      2.469      3.838
  Name = 
  0 active torsions:
  status: ('A' for Active; 'I' for Inactive)
                            x       y       z     vdW  Elec       q    Type
                         _______ _______ _______ _____ _____    ______ ____

>  <TORSDO>
F 0

$$$$
=
 OpenBabel11112417383D

 28 32  0  0  1  0  0  0  0  0999 V2000
  187.6640  177.7390  144.7310 C   0  0  0  0  0  0  0  0  0  0  0  0
  190.6540  177.8640  146.7920 O   0  0  0  0  0  0  0  0  0  0  0  0
  190.5600  173.2560  141.3070 O   0  0  0  0  0  0  0  0  0  0  0  0
  186.1650  176.7890  146.9020 C   0  0  0  0  0  3  0  0  0  0  0  0
  190.2310  172.6770  143.6090 C   0  0  0  0  0  0  0  0  0  0  0  0
  188.3780  178.2380  143.5170 C   0  0  0  0  0  2  0  0  0  0  0  0
  191.3470  176.1580  148.4040 O   0  0  0  0  0  0  0  0  0  0  0  0
  191.2150  176.4780  146.9420 S   0  0  0  0  0  0  0  0  0  0  0  0
  193.0370  174.6110  145.9100 C   0  0  2  0  0  3  0  0  0  0  0  0
  190.1020  175.2930  146.1840 C   0  0  2  0  0  3  0  0  0  0  0  0
  187.5490  175.9980  140.7460 O   0  0  0  0  0  0  0  0  0  0  0  0
  188.9410  174.6120  144.1690 C   0  0  2  0  0  3  0  0  0  0  0  0
  191.9870  174.2660  144.9700 N   0  0  0  0  0  2  0  0  0  0  0  0
  193.1100  176.4140  146.0630 S   0  0  0  0  0  0  0  0  0  0  0  0
  188.2360  176.5230  141.6600 C   0  0  0  0  0  0  0  0  0  0  0  0
  188.0900  176.5860  145.4230 C   0  0  0  0  0  0  0  0  0  0  0  0
  190.0920  173.5110  142.4480 C   0  0  0  0  0  0  0  0  0  0  0  0
  194.3630  174.1010  145.3870 C   0  0  0  0  0  1  0  0  0  0  0  0
  189.5610  175.9330  142.0140 C   0  0  0  0  0  2  0  0  0  0  0  0
  187.3200  176.1140  146.5010 C   0  0  0  0  0  3  0  0  0  0  0  0
  186.5030  178.4060  145.1370 C   0  0  0  0  0  3  0  0  0  0  0  0
  185.7590  177.9380  146.2220 C   0  0  0  0  0  3  0  0  0  0  0  0
  187.7480  177.6890  142.3250 N   0  0  0  0  0  2  0  0  0  0  0  0
  189.6760  173.4000  144.7930 C   0  0  2  0  0  3  0  0  0  0  0  0
  189.3940  174.6990  142.7730 N   0  0  0  0  0  0  0  0  0  0  0  0
  190.7530  173.9950  145.7170 C   0  0  2  0  0  3  0  0  0  0  0  0
  190.7790  171.5440  143.6350 O   0  0  0  0  0  0  0  0  0  0  0  0
  189.3280  175.8380  144.9930 C   0  0  1  0  0  3  0  0  0  0  0  0
  1 21  2  0  0  0  0
  1 16  1  0  0  0  0
  2  8  2  0  0  0  0
  3 17  2  0  0  0  0
  5 27  2  0  0  0  0
  6  1  1  0  0  0  0
  8  7  2  0  0  0  0
  9 18  1  6  0  0  0
  9 14  1  0  0  0  0
 10  8  1  6  0  0  0
 11 15  2  0  0  0  0
 12 25  1  6  0  0  0
 12 24  1  0  0  0  0
 12 28  1  0  0  0  0
 13  9  1  0  0  0  0
 14  8  1  0  0  0  0
 15 19  1  0  0  0  0
 15 23  1  0  0  0  0
 16 20  2  0  0  0  0
 17 25  1  0  0  0  0
 17  5  1  0  0  0  0
 19 25  1  0  0  0  0
 20  4  1  0  0  0  0
 21 22  1  0  0  0  0
 22  4  2  0  0  0  0
 23  6  1  0  0  0  0
 24  5  1  6  0  0  0
 24 26  1  0  0  0  0
 26 13  1  6  0  0  0
 26 10  1  0  0  0  0
 28 16  1  1  0  0  0
 28 10  1  0  0  0  0
M  END
>  <MODEL>
8

>  <REMARK>
 VINA RESULT:      -7.2      2.104      2.617
  Name = 
  0 active torsions:
  status: ('A' for Active; 'I' for Inactive)
                            x       y       z     vdW  Elec       q    Type
                         _______ _______ _______ _____ _____    ______ ____

>  <TORSDO>
F 0

$$$$
=
 OpenBabel11112417383D

 28 32  0  0  1  0  0  0  0  0999 V2000
  195.0370  173.7770  144.5110 C   0  0  0  0  0  0  0  0  0  0  0  0
  192.9420  172.6060  141.7830 O   0  0  0  0  0  0  0  0  0  0  0  0
  190.2640  177.6200  146.1450 O   0  0  0  0  0  0  0  0  0  0  0  0
  194.9730  171.2380  145.6970 C   0  0  0  0  0  3  0  0  0  0  0  0
  189.7180  175.2870  146.2140 C   0  0  0  0  0  0  0  0  0  0  0  0
  195.1270  175.1620  143.9580 C   0  0  0  0  0  2  0  0  0  0  0  0
  190.9850  171.1540  142.0100 O   0  0  0  0  0  0  0  0  0  0  0  0
  191.5130  172.5410  142.2440 S   0  0  0  0  0  0  0  0  0  0  0  0
  189.0790  173.9290  142.3860 C   0  0  2  0  0  3  0  0  0  0  0  0
  191.4280  172.9100  143.9970 C   0  0  2  0  0  3  0  0  0  0  0  0
  194.3400  177.4900  146.6690 O   0  0  0  0  0  0  0  0  0  0  0  0
  191.9300  174.5010  145.7550 C   0  0  2  0  0  3  0  0  0  0  0  0
  189.6160  174.5320  143.5910 N   0  0  0  0  0  2  0  0  0  0  0  0
  190.3780  173.8940  141.1250 S   0  0  0  0  0  0  0  0  0  0  0  0
  194.1740  176.8220  145.6150 C   0  0  0  0  0  0  0  0  0  0  0  0
  193.7960  173.1670  144.7890 C   0  0  0  0  0  0  0  0  0  0  0  0
  190.5990  176.4090  146.0470 C   0  0  0  0  0  0  0  0  0  0  0  0
  187.9190  174.7620  141.8840 C   0  0  0  0  0  1  0  0  0  0  0  0
  192.8330  176.8080  144.9590 C   0  0  0  0  0  2  0  0  0  0  0  0
  193.7810  171.9000  145.3970 C   0  0  0  0  0  3  0  0  0  0  0  0
  196.2270  173.1090  144.8200 C   0  0  0  0  0  3  0  0  0  0  0  0
  196.1970  171.8410  145.4040 C   0  0  0  0  0  3  0  0  0  0  0  0
  195.2770  176.1120  145.0520 N   0  0  0  0  0  2  0  0  0  0  0  0
  190.4570  174.0360  145.8650 C   0  0  2  0  0  3  0  0  0  0  0  0
  191.9000  175.9700  145.7020 N   0  0  0  0  0  0  0  0  0  0  0  0
  190.0940  173.4690  144.4810 C   0  0  2  0  0  3  0  0  0  0  0  0
  188.5070  175.3520  146.5490 O   0  0  0  0  0  0  0  0  0  0  0  0
  192.5000  173.8760  144.4840 C   0  0  1  0  0  3  0  0  0  0  0  0
  1 16  2  0  0  0  0
  1 21  1  0  0  0  0
  2  8  2  0  0  0  0
  5 27  2  0  0  0  0
  6  1  1  0  0  0  0
  6 23  1  0  0  0  0
  7  8  2  0  0  0  0
  9 18  1  6  0  0  0
  9 13  1  0  0  0  0
 10  8  1  6  0  0  0
 10 26  1  0  0  0  0
 10 28  1  0  0  0  0
 12 25  1  6  0  0  0
 12 24  1  0  0  0  0
 14  8  1  0  0  0  0
 14  9  1  0  0  0  0
 15 11  2  0  0  0  0
 16 20  1  0  0  0  0
 17  3  2  0  0  0  0
 17  5  1  0  0  0  0
 19 15  1  0  0  0  0
 19 25  1  0  0  0  0
 20  4  2  0  0  0  0
 21 22  2  0  0  0  0
 22  4  1  0  0  0  0
 23 15  1  0  0  0  0
 24  5  1  6  0  0  0
 25 17  1  0  0  0  0
 26 13  1  6  0  0  0
 26 24  1  0  0  0  0
 28 16  1  1  0  0  0
 28 12  1  0  0  0  0
M  END
>  <MODEL>
9

>  <REMARK>
 VINA RESULT:      -7.0      3.822      7.643
  Name = 
  0 active torsions:
  status: ('A' for Active; 'I' for Inactive)
                            x       y       z     vdW  Elec       q    Type
                         _______ _______ _______ _____ _____    ______ ____

>  <TORSDO>
F 0

$$$$
