=
 OpenBabel11112418083D

 34 37  0  0  1  0  0  0  0  0999 V2000
  188.0410  177.0070  146.0080 C   0  0  2  0  0  3  0  0  0  0  0  0
  190.3240  177.3430  146.7240 O   0  0  0  0  0  0  0  0  0  0  0  0
  185.7000  176.6940  145.1590 C   0  0  0  0  0  2  0  0  0  0  0  0
  190.0280  176.8790  144.3890 C   0  0  2  0  0  3  0  0  0  0  0  0
  191.7120  174.7920  143.0110 C   0  0  0  0  0  2  0  0  0  0  0  0
  189.0120  176.0200  143.5920 C   0  0  1  0  0  3  0  0  0  0  0  0
  191.0700  176.1980  146.4120 C   0  0  0  0  0  2  0  0  0  0  0  0
  191.3930  174.7590  144.4330 N   0  0  0  0  0  0  0  0  0  0  0  0
  187.0830  177.2510  144.8380 C   0  0  2  0  0  3  0  0  0  0  0  0
  187.6090  176.6680  143.5160 C   0  0  1  0  0  3  0  0  0  0  0  0
  186.1130  177.1390  147.5950 C   0  0  0  0  0  2  0  0  0  0  0  0
  190.4630  174.4940  142.2020 C   0  0  0  0  0  2  0  0  0  0  0  0
  185.1560  177.3540  146.4230 C   0  0  0  0  0  2  0  0  0  0  0  0
  189.5300  175.6940  142.1920 C   0  0  0  0  0  2  0  0  0  0  0  0
  191.2610  176.1440  144.9080 C   0  0  1  0  0  3  0  0  0  0  0  0
  187.4970  177.6920  147.2600 C   0  0  0  0  0  2  0  0  0  0  0  0
  189.4370  177.5320  145.6500 C   0  0  1  0  0  3  0  0  0  0  0  0
  187.4110  177.5330  142.4130 O   0  0  0  0  0  0  0  0  0  0  0  0
  186.2160  177.1780  141.7640 C   0  0  0  0  0  2  0  0  0  0  0  0
  185.6430  179.3200  142.6530 O   0  0  0  0  0  1  0  0  0  0  0  0
  185.2930  178.3790  141.6810 C   0  0  2  0  0  3  0  0  0  0  0  0
  183.8420  177.9370  141.8580 C   0  0  1  0  0  3  0  0  0  0  0  0
  183.2840  178.5290  142.9940 O   0  0  0  0  0  1  0  0  0  0  0  0
  183.0090  178.2940  140.6360 C   0  0  0  0  0  2  0  0  0  0  0  0
  181.7500  178.8960  141.0460 N   0  0  0  0  0  2  0  0  0  0  0  0
  180.7600  178.1070  140.5660 O   0  0  0  0  0  0  0  0  0  0  0  0
  179.8930  177.9350  141.6460 C   0  0  0  0  0  1  0  0  0  0  0  0
  192.5610  174.1560  145.0650 C   0  0  0  0  0  2  0  0  0  0  0  0
  193.7510  174.2400  144.1290 C   0  0  0  0  0  2  0  0  0  0  0  0
  194.8390  175.1200  144.7320 C   0  0  1  0  0  3  0  0  0  0  0  0
  194.5750  176.7580  146.4840 O   0  0  0  0  0  1  0  0  0  0  0  0
  194.6050  175.3890  146.2150 C   0  0  0  0  0  2  0  0  0  0  0  0
  196.5370  174.5180  144.3890 S   0  0  0  0  0  0  0  0  0  0  0  0
  196.8370  173.8000  146.0350 C   0  0  0  0  0  1  0  0  0  0  0  0
  1 16  1  1  0  0  0
  3 13  1  0  0  0  0
  4 15  1  0  0  0  0
  4 17  1  0  0  0  0
  5  8  1  0  0  0  0
  6  4  1  0  0  0  0
  7  2  1  0  0  0  0
  8 15  1  0  0  0  0
  8 28  1  0  0  0  0
  9  3  1  0  0  0  0
  9  1  1  0  0  0  0
 10  6  1  0  0  0  0
 10  9  1  0  0  0  0
 12  5  1  0  0  0  0
 13 11  1  0  0  0  0
 14 12  1  0  0  0  0
 14  6  1  0  0  0  0
 15  7  1  0  0  0  0
 16 11  1  0  0  0  0
 17  1  1  0  0  0  0
 17  2  1  0  0  0  0
 18 10  1  0  0  0  0
 19 18  1  0  0  0  0
 21 19  1  0  0  0  0
 21 22  1  0  0  0  0
 21 20  1  0  0  0  0
 22 23  1  0  0  0  0
 24 25  1  0  0  0  0
 24 22  1  0  0  0  0
 26 25  1  0  0  0  0
 26 27  1  0  0  0  0
 29 30  1  0  0  0  0
 29 28  1  0  0  0  0
 30 32  1  0  0  0  0
 32 31  1  0  0  0  0
 33 30  1  0  0  0  0
 33 34  1  0  0  0  0
M  END
>  <MODEL>
1

>  <REMARK>
 VINA RESULT:      -6.5      0.000      0.000
  Name = 
  12 active torsions:
  status: ('A' for Active; 'I' for Inactive)
    1  A    between atoms: C_3  and  C_16
    2  A    between atoms: C_3  and  C_19
    3  A    between atoms: C_5  and  O_11
    4  A    between atoms: C_5  and  C_19
    5  A    between atoms: N_8  and  O_12
    6  A    between atoms: N_8  and  C_16
    7  A    between atoms: O_11  and  C_20
    8  A    between atoms: N_17  and  C_28
    9  A    between atoms: C_28  and  C_29
   10  A    between atoms: C_29  and  C_32
   11  A    between atoms: S_31  and  C_32
   12  A    between atoms: C_32  and  C_34
                            x       y       z     vdW  Elec       q    Type
                         _______ _______ _______ _____ _____    ______ ____

>  <TORSDO>
F 12

$$$$
=
 OpenBabel11112418083D

 34 37  0  0  1  0  0  0  0  0999 V2000
  189.6340  173.4840  142.3840 C   0  0  2  0  0  3  0  0  0  0  0  0
  190.6970  172.4390  144.2860 O   0  0  0  0  0  0  0  0  0  0  0  0
  188.4550  174.6160  140.4800 C   0  0  0  0  0  2  0  0  0  0  0  0
  189.5210  174.4790  144.7460 C   0  0  2  0  0  3  0  0  0  0  0  0
  190.8180  176.6700  146.3580 C   0  0  0  0  0  2  0  0  0  0  0  0
  189.2640  175.7710  143.9280 C   0  0  1  0  0  3  0  0  0  0  0  0
  191.6050  173.3440  144.8510 C   0  0  0  0  0  2  0  0  0  0  0  0
  191.5670  175.7090  145.5590 N   0  0  0  0  0  0  0  0  0  0  0  0
  188.3980  174.2870  141.9680 C   0  0  2  0  0  3  0  0  0  0  0  0
  188.2240  175.5700  142.8000 C   0  0  1  0  0  3  0  0  0  0  0  0
  189.7490  172.5010  140.0870 C   0  0  0  0  0  2  0  0  0  0  0  0
  190.0690  177.6200  145.4430 C   0  0  0  0  0  2  0  0  0  0  0  0
  188.5330  173.3250  139.6670 C   0  0  0  0  0  2  0  0  0  0  0  0
  188.8590  176.9350  144.8310 C   0  0  0  0  0  2  0  0  0  0  0  0
  190.8200  174.4420  145.5460 C   0  0  1  0  0  3  0  0  0  0  0  0
  189.6870  172.1860  141.5800 C   0  0  0  0  0  2  0  0  0  0  0  0
  189.5840  173.2020  143.8910 C   0  0  1  0  0  3  0  0  0  0  0  0
  186.8810  175.8030  143.1790 O   0  0  0  0  0  0  0  0  0  0  0  0
  186.3510  176.8260  142.3730 C   0  0  0  0  0  2  0  0  0  0  0  0
  184.2530  177.9120  142.0190 O   0  0  0  0  0  1  0  0  0  0  0  0
  185.0910  177.3850  143.0050 C   0  0  2  0  0  3  0  0  0  0  0  0
  185.4510  178.4550  144.0330 C   0  0  1  0  0  3  0  0  0  0  0  0
  185.8800  179.6220  143.3960 O   0  0  0  0  0  1  0  0  0  0  0  0
  184.2660  178.7720  144.9320 C   0  0  0  0  0  2  0  0  0  0  0  0
  184.5840  178.4480  146.3140 N   0  0  0  0  0  2  0  0  0  0  0  0
  185.9290  178.3050  146.3860 O   0  0  0  0  0  0  0  0  0  0  0  0
  186.1490  177.6760  147.6120 C   0  0  0  0  0  1  0  0  0  0  0  0
  192.8160  175.5090  146.2850 C   0  0  0  0  0  2  0  0  0  0  0  0
  193.8130  176.5820  145.8940 C   0  0  0  0  0  2  0  0  0  0  0  0
  195.0410  175.9540  145.2460 C   0  0  1  0  0  3  0  0  0  0  0  0
  196.6910  174.2600  145.7200 O   0  0  0  0  0  1  0  0  0  0  0  0
  195.3300  174.5610  145.7930 C   0  0  0  0  0  2  0  0  0  0  0  0
  194.9970  175.9910  143.4130 S   0  0  0  0  0  0  0  0  0  0  0  0
  196.6350  176.7520  143.1820 C   0  0  0  0  0  1  0  0  0  0  0  0
  1 16  1  6  0  0  0
  1 17  1  0  0  0  0
  2  7  1  0  0  0  0
  3  9  1  0  0  0  0
  4 15  1  0  0  0  0
  6  4  1  0  0  0  0
  6 14  1  0  0  0  0
  7 15  1  0  0  0  0
  8 28  1  0  0  0  0
  8  5  1  0  0  0  0
  9  1  1  0  0  0  0
  9 10  1  0  0  0  0
 10 18  1  0  0  0  0
 10  6  1  0  0  0  0
 11 16  1  0  0  0  0
 12  5  1  0  0  0  0
 13 11  1  0  0  0  0
 13  3  1  0  0  0  0
 14 12  1  0  0  0  0
 15  8  1  0  0  0  0
 17  2  1  0  0  0  0
 17  4  1  0  0  0  0
 19 21  1  0  0  0  0
 19 18  1  0  0  0  0
 20 21  1  0  0  0  0
 21 22  1  0  0  0  0
 22 24  1  0  0  0  0
 23 22  1  0  0  0  0
 24 25  1  0  0  0  0
 25 26  1  0  0  0  0
 26 27  1  0  0  0  0
 29 28  1  0  0  0  0
 30 32  1  0  0  0  0
 30 29  1  0  0  0  0
 31 32  1  0  0  0  0
 33 30  1  0  0  0  0
 34 33  1  0  0  0  0
M  END
>  <MODEL>
2

>  <REMARK>
 VINA RESULT:      -6.5      2.371      4.542
  Name = 
  12 active torsions:
  status: ('A' for Active; 'I' for Inactive)
    1  A    between atoms: C_3  and  C_16
    2  A    between atoms: C_3  and  C_19
    3  A    between atoms: C_5  and  O_11
    4  A    between atoms: C_5  and  C_19
    5  A    between atoms: N_8  and  O_12
    6  A    between atoms: N_8  and  C_16
    7  A    between atoms: O_11  and  C_20
    8  A    between atoms: N_17  and  C_28
    9  A    between atoms: C_28  and  C_29
   10  A    between atoms: C_29  and  C_32
   11  A    between atoms: S_31  and  C_32
   12  A    between atoms: C_32  and  C_34
                            x       y       z     vdW  Elec       q    Type
                         _______ _______ _______ _____ _____    ______ ____

>  <TORSDO>
F 12

$$$$
=
 OpenBabel11112418083D

 34 37  0  0  1  0  0  0  0  0999 V2000
  189.0830  175.3250  142.9640 C   0  0  2  0  0  3  0  0  0  0  0  0
  189.7420  173.0400  143.3930 O   0  0  0  0  0  0  0  0  0  0  0  0
  188.3930  177.7150  142.6320 C   0  0  0  0  0  2  0  0  0  0  0  0
  190.3150  174.6230  145.1030 C   0  0  2  0  0  3  0  0  0  0  0  0
  193.1000  174.6990  146.2550 C   0  0  0  0  0  2  0  0  0  0  0  0
  190.7080  176.1230  145.0800 C   0  0  1  0  0  3  0  0  0  0  0  0
  191.1300  172.9960  143.5760 C   0  0  0  0  0  2  0  0  0  0  0  0
  192.8000  174.2370  144.9060 N   0  0  0  0  0  0  0  0  0  0  0  0
  188.5790  176.5970  143.6530 C   0  0  2  0  0  3  0  0  0  0  0  0
  189.5040  177.0530  144.7940 C   0  0  1  0  0  3  0  0  0  0  0  0
  187.8770  175.9940  140.8780 C   0  0  0  0  0  2  0  0  0  0  0  0
  192.8930  176.2000  146.3360 C   0  0  0  0  0  2  0  0  0  0  0  0
  187.4000  177.2770  141.5580 C   0  0  0  0  0  2  0  0  0  0  0  0
  191.4120  176.5380  146.3700 C   0  0  0  0  0  2  0  0  0  0  0  0
  191.4600  173.6310  144.9140 C   0  0  1  0  0  3  0  0  0  0  0  0
  188.0690  174.8850  141.9100 C   0  0  0  0  0  2  0  0  0  0  0  0
  189.3080  174.2260  144.0110 C   0  0  1  0  0  3  0  0  0  0  0  0
  188.7950  177.4800  145.9410 O   0  0  0  0  0  0  0  0  0  0  0  0
  187.5220  176.8850  145.9380 C   0  0  0  0  0  2  0  0  0  0  0  0
  186.1570  176.9150  147.8990 O   0  0  0  0  0  1  0  0  0  0  0  0
  186.5720  177.6850  146.8100 C   0  0  2  0  0  3  0  0  0  0  0  0
  185.3710  178.1470  145.9880 C   0  0  1  0  0  3  0  0  0  0  0  0
  184.2700  178.3770  146.8170 O   0  0  0  0  0  1  0  0  0  0  0  0
  185.6940  179.4130  145.2080 C   0  0  0  0  0  2  0  0  0  0  0  0
  185.3320  179.2450  143.8090 N   0  0  0  0  0  2  0  0  0  0  0  0
  184.6730  178.0670  143.7110 O   0  0  0  0  0  0  0  0  0  0  0  0
  183.9230  178.1820  142.5390 C   0  0  0  0  0  1  0  0  0  0  0  0
  193.7830  173.1940  144.6390 C   0  0  0  0  0  2  0  0  0  0  0  0
  194.8200  173.7070  143.6570 C   0  0  0  0  0  2  0  0  0  0  0  0
  196.2240  173.4010  144.1610 C   0  0  1  0  0  3  0  0  0  0  0  0
  196.2640  175.8130  144.1950 O   0  0  0  0  0  1  0  0  0  0  0  0
  197.0090  174.6690  144.4830 C   0  0  0  0  0  2  0  0  0  0  0  0
  196.2570  172.1890  145.5370 S   0  0  0  0  0  0  0  0  0  0  0  0
  197.6440  171.1950  144.9040 C   0  0  0  0  0  1  0  0  0  0  0  0
  1 16  1  6  0  0  0
  1  9  1  0  0  0  0
  1 17  1  0  0  0  0
  2  7  1  0  0  0  0
  2 17  1  0  0  0  0
  3  9  1  0  0  0  0
  5 12  1  0  0  0  0
  6  4  1  0  0  0  0
  6 14  1  0  0  0  0
  7 15  1  0  0  0  0
  8 15  1  0  0  0  0
  8  5  1  0  0  0  0
  9 10  1  0  0  0  0
 10  6  1  0  0  0  0
 10 18  1  0  0  0  0
 11 13  1  0  0  0  0
 11 16  1  0  0  0  0
 12 14  1  0  0  0  0
 13  3  1  0  0  0  0
 15  4  1  0  0  0  0
 17  4  1  0  0  0  0
 19 18  1  0  0  0  0
 19 21  1  0  0  0  0
 21 20  1  0  0  0  0
 22 21  1  0  0  0  0
 22 23  1  0  0  0  0
 24 22  1  0  0  0  0
 25 24  1  0  0  0  0
 26 25  1  0  0  0  0
 27 26  1  0  0  0  0
 28  8  1  0  0  0  0
 29 30  1  0  0  0  0
 29 28  1  0  0  0  0
 30 32  1  0  0  0  0
 30 33  1  0  0  0  0
 31 32  1  0  0  0  0
 34 33  1  0  0  0  0
M  END
>  <MODEL>
3

>  <REMARK>
 VINA RESULT:      -6.3      2.200      4.059
  Name = 
  12 active torsions:
  status: ('A' for Active; 'I' for Inactive)
    1  A    between atoms: C_3  and  C_16
    2  A    between atoms: C_3  and  C_19
    3  A    between atoms: C_5  and  O_11
    4  A    between atoms: C_5  and  C_19
    5  A    between atoms: N_8  and  O_12
    6  A    between atoms: N_8  and  C_16
    7  A    between atoms: O_11  and  C_20
    8  A    between atoms: N_17  and  C_28
    9  A    between atoms: C_28  and  C_29
   10  A    between atoms: C_29  and  C_32
   11  A    between atoms: S_31  and  C_32
   12  A    between atoms: C_32  and  C_34
                            x       y       z     vdW  Elec       q    Type
                         _______ _______ _______ _____ _____    ______ ____

>  <TORSDO>
F 12

$$$$
=
 OpenBabel11112418083D

 34 37  0  0  1  0  0  0  0  0999 V2000
  189.8040  174.0420  142.2070 C   0  0  2  0  0  3  0  0  0  0  0  0
  189.5260  176.4370  142.0470 O   0  0  0  0  0  0  0  0  0  0  0  0
  190.1650  171.5710  142.4590 C   0  0  0  0  0  2  0  0  0  0  0  0
  190.1480  175.6070  144.2110 C   0  0  2  0  0  3  0  0  0  0  0  0
  188.6710  176.5010  146.6820 C   0  0  0  0  0  2  0  0  0  0  0  0
  189.8410  174.2960  144.9800 C   0  0  1  0  0  3  0  0  0  0  0  0
  188.5470  176.8410  142.9640 C   0  0  0  0  0  2  0  0  0  0  0  0
  188.0690  176.4600  145.3560 N   0  0  0  0  0  0  0  0  0  0  0  0
  190.6380  172.9550  142.8920 C   0  0  2  0  0  3  0  0  0  0  0  0
  190.6210  173.0800  144.4250 C   0  0  1  0  0  3  0  0  0  0  0  0
  189.4690  172.5280  140.2450 C   0  0  0  0  0  2  0  0  0  0  0  0
  188.9000  175.0870  147.1820 C   0  0  0  0  0  2  0  0  0  0  0  0
  190.2790  171.4350  140.9430 C   0  0  0  0  0  2  0  0  0  0  0  0
  190.0890  174.4540  146.4780 C   0  0  0  0  0  2  0  0  0  0  0  0
  189.1210  176.7260  144.3630 C   0  0  1  0  0  3  0  0  0  0  0  0
  189.9450  173.9090  140.6920 C   0  0  0  0  0  2  0  0  0  0  0  0
  190.2620  175.4240  142.6880 C   0  0  1  0  0  3  0  0  0  0  0  0
  191.8920  172.8690  145.0100 O   0  0  0  0  0  0  0  0  0  0  0  0
  192.8850  173.2610  144.0960 C   0  0  0  0  0  2  0  0  0  0  0  0
  194.1240  172.1100  145.7840 O   0  0  0  0  0  1  0  0  0  0  0  0
  194.2350  172.7240  144.5330 C   0  0  2  0  0  3  0  0  0  0  0  0
  195.2590  173.8550  144.5780 C   0  0  1  0  0  3  0  0  0  0  0  0
  195.3860  174.4510  143.3210 O   0  0  0  0  0  1  0  0  0  0  0  0
  194.8690  174.9070  145.6050 C   0  0  0  0  0  2  0  0  0  0  0  0
  194.8690  176.2270  144.9940 N   0  0  0  0  0  2  0  0  0  0  0  0
  193.6650  176.7870  145.2650 O   0  0  0  0  0  0  0  0  0  0  0  0
  193.3130  176.2730  146.5140 C   0  0  0  0  0  1  0  0  0  0  0  0
  187.1190  177.5660  145.3390 C   0  0  0  0  0  2  0  0  0  0  0  0
  185.7030  177.0270  145.3940 C   0  0  0  0  0  2  0  0  0  0  0  0
  184.7310  178.0250  144.7780 C   0  0  1  0  0  3  0  0  0  0  0  0
  184.2840  178.3720  147.1230 O   0  0  0  0  0  1  0  0  0  0  0  0
  183.9610  178.8070  145.8370 C   0  0  0  0  0  2  0  0  0  0  0  0
  185.5060  179.1200  143.5260 S   0  0  0  0  0  0  0  0  0  0  0  0
  184.9270  178.2030  142.0640 C   0  0  0  0  0  1  0  0  0  0  0  0
  1 16  1  6  0  0  0
  1 17  1  0  0  0  0
  1  9  1  0  0  0  0
  2 17  1  0  0  0  0
  2  7  1  0  0  0  0
  3  9  1  0  0  0  0
  4 15  1  0  0  0  0
  4  6  1  0  0  0  0
  5 12  1  0  0  0  0
  6 14  1  0  0  0  0
  7 15  1  0  0  0  0
  8  5  1  0  0  0  0
  9 10  1  0  0  0  0
 10  6  1  0  0  0  0
 10 18  1  0  0  0  0
 11 16  1  0  0  0  0
 11 13  1  0  0  0  0
 13  3  1  0  0  0  0
 14 12  1  0  0  0  0
 15  8  1  0  0  0  0
 17  4  1  0  0  0  0
 19 21  1  0  0  0  0
 19 18  1  0  0  0  0
 21 22  1  0  0  0  0
 21 20  1  0  0  0  0
 22 24  1  0  0  0  0
 23 22  1  0  0  0  0
 25 26  1  0  0  0  0
 25 24  1  0  0  0  0
 26 27  1  0  0  0  0
 28  8  1  0  0  0  0
 28 29  1  0  0  0  0
 30 29  1  0  0  0  0
 30 32  1  0  0  0  0
 32 31  1  0  0  0  0
 33 30  1  0  0  0  0
 34 33  1  0  0  0  0
M  END
>  <MODEL>
4

>  <REMARK>
 VINA RESULT:      -6.2      3.485      9.026
  Name = 
  12 active torsions:
  status: ('A' for Active; 'I' for Inactive)
    1  A    between atoms: C_3  and  C_16
    2  A    between atoms: C_3  and  C_19
    3  A    between atoms: C_5  and  O_11
    4  A    between atoms: C_5  and  C_19
    5  A    between atoms: N_8  and  O_12
    6  A    between atoms: N_8  and  C_16
    7  A    between atoms: O_11  and  C_20
    8  A    between atoms: N_17  and  C_28
    9  A    between atoms: C_28  and  C_29
   10  A    between atoms: C_29  and  C_32
   11  A    between atoms: S_31  and  C_32
   12  A    between atoms: C_32  and  C_34
                            x       y       z     vdW  Elec       q    Type
                         _______ _______ _______ _____ _____    ______ ____

>  <TORSDO>
F 12

$$$$
=
 OpenBabel11112418083D

 34 37  0  0  1  0  0  0  0  0999 V2000
  187.6610  177.2650  146.0550 C   0  0  2  0  0  3  0  0  0  0  0  0
  189.9970  176.9600  146.5930 O   0  0  0  0  0  0  0  0  0  0  0  0
  185.2670  177.6270  145.3950 C   0  0  0  0  0  2  0  0  0  0  0  0
  189.4620  176.9460  144.2540 C   0  0  2  0  0  3  0  0  0  0  0  0
  190.5160  174.7740  142.4490 C   0  0  0  0  0  2  0  0  0  0  0  0
  188.2260  176.4740  143.4450 C   0  0  1  0  0  3  0  0  0  0  0  0
  190.4290  175.7390  146.0570 C   0  0  0  0  0  2  0  0  0  0  0  0
  190.2840  174.5910  143.8760 N   0  0  0  0  0  0  0  0  0  0  0  0
  186.7220  177.9000  145.0250 C   0  0  2  0  0  3  0  0  0  0  0  0
  187.0150  177.4270  143.5910 C   0  0  1  0  0  3  0  0  0  0  0  0
  185.9180  177.5800  147.8190 C   0  0  0  0  0  2  0  0  0  0  0  0
  189.1870  174.8970  141.7280 C   0  0  0  0  0  2  0  0  0  0  0  0
  184.9720  178.1880  146.7840 C   0  0  0  0  0  2  0  0  0  0  0  0
  188.5680  176.2620  141.9720 C   0  0  0  0  0  2  0  0  0  0  0  0
  190.5140  175.8790  144.5480 C   0  0  1  0  0  3  0  0  0  0  0  0
  187.3710  177.8520  147.4350 C   0  0  0  0  0  2  0  0  0  0  0  0
  189.1190  177.5100  145.6430 C   0  0  1  0  0  3  0  0  0  0  0  0
  186.9630  178.4750  142.6430 O   0  0  0  0  0  0  0  0  0  0  0  0
  185.6390  178.9350  142.5420 C   0  0  0  0  0  2  0  0  0  0  0  0
  185.0280  178.3790  140.3000 O   0  0  0  0  0  1  0  0  0  0  0  0
  184.8390  178.0180  141.6360 C   0  0  2  0  0  3  0  0  0  0  0  0
  183.3580  178.0780  142.0050 C   0  0  1  0  0  3  0  0  0  0  0  0
  183.1660  178.8860  143.1290 O   0  0  0  0  0  1  0  0  0  0  0  0
  182.5260  178.6100  140.8470 C   0  0  0  0  0  2  0  0  0  0  0  0
  181.1930  178.0300  140.8820 N   0  0  0  0  0  2  0  0  0  0  0  0
  180.3920  178.9210  141.5130 O   0  0  0  0  0  0  0  0  0  0  0  0
  180.2730  179.9830  140.6160 C   0  0  0  0  0  1  0  0  0  0  0  0
  191.3100  173.6490  144.3070 C   0  0  0  0  0  2  0  0  0  0  0  0
  192.4340  173.6160  143.2890 C   0  0  0  0  0  2  0  0  0  0  0  0
  193.7810  173.7790  143.9820 C   0  0  1  0  0  3  0  0  0  0  0  0
  194.0600  176.0270  143.1520 O   0  0  0  0  0  1  0  0  0  0  0  0
  194.0900  175.2380  144.3020 C   0  0  0  0  0  2  0  0  0  0  0  0
  193.9880  172.6840  145.4390 S   0  0  0  0  0  0  0  0  0  0  0  0
  195.7890  172.4710  145.2820 C   0  0  0  0  0  1  0  0  0  0  0  0
  1 16  1  1  0  0  0
  3 13  1  0  0  0  0
  4 15  1  0  0  0  0
  4 17  1  0  0  0  0
  5  8  1  0  0  0  0
  6 10  1  0  0  0  0
  6  4  1  0  0  0  0
  7  2  1  0  0  0  0
  8 28  1  0  0  0  0
  8 15  1  0  0  0  0
  9  3  1  0  0  0  0
  9  1  1  0  0  0  0
 10  9  1  0  0  0  0
 12 14  1  0  0  0  0
 12  5  1  0  0  0  0
 13 11  1  0  0  0  0
 14  6  1  0  0  0  0
 15  7  1  0  0  0  0
 16 11  1  0  0  0  0
 17  1  1  0  0  0  0
 17  2  1  0  0  0  0
 18 10  1  0  0  0  0
 19 18  1  0  0  0  0
 20 21  1  0  0  0  0
 21 22  1  0  0  0  0
 21 19  1  0  0  0  0
 22 23  1  0  0  0  0
 24 25  1  0  0  0  0
 24 22  1  0  0  0  0
 25 26  1  0  0  0  0
 27 26  1  0  0  0  0
 29 30  1  0  0  0  0
 29 28  1  0  0  0  0
 30 32  1  0  0  0  0
 30 33  1  0  0  0  0
 31 32  1  0  0  0  0
 34 33  1  0  0  0  0
M  END
>  <MODEL>
5

>  <REMARK>
 VINA RESULT:      -6.2      1.337      1.475
  Name = 
  12 active torsions:
  status: ('A' for Active; 'I' for Inactive)
    1  A    between atoms: C_3  and  C_16
    2  A    between atoms: C_3  and  C_19
    3  A    between atoms: C_5  and  O_11
    4  A    between atoms: C_5  and  C_19
    5  A    between atoms: N_8  and  O_12
    6  A    between atoms: N_8  and  C_16
    7  A    between atoms: O_11  and  C_20
    8  A    between atoms: N_17  and  C_28
    9  A    between atoms: C_28  and  C_29
   10  A    between atoms: C_29  and  C_32
   11  A    between atoms: S_31  and  C_32
   12  A    between atoms: C_32  and  C_34
                            x       y       z     vdW  Elec       q    Type
                         _______ _______ _______ _____ _____    ______ ____

>  <TORSDO>
F 12

$$$$
=
 OpenBabel11112418083D

 34 37  0  0  1  0  0  0  0  0999 V2000
  189.6910  175.1560  143.3300 C   0  0  2  0  0  3  0  0  0  0  0  0
  189.5170  177.3750  142.3890 O   0  0  0  0  0  0  0  0  0  0  0  0
  189.8820  172.8990  144.4100 C   0  0  0  0  0  2  0  0  0  0  0  0
  188.8090  177.1580  144.6720 C   0  0  2  0  0  3  0  0  0  0  0  0
  186.1750  178.3080  145.5790 C   0  0  0  0  0  2  0  0  0  0  0  0
  188.1390  176.0140  145.4770 C   0  0  1  0  0  3  0  0  0  0  0  0
  188.1840  177.7980  142.4710 C   0  0  0  0  0  2  0  0  0  0  0  0
  186.4350  177.8750  144.2120 N   0  0  0  0  0  0  0  0  0  0  0  0
  190.0040  174.4030  144.6270 C   0  0  2  0  0  3  0  0  0  0  0  0
  189.1150  174.8560  145.7980 C   0  0  1  0  0  3  0  0  0  0  0  0
  190.5560  173.2140  142.0120 C   0  0  0  0  0  2  0  0  0  0  0  0
  186.1000  177.0970  146.4910 C   0  0  0  0  0  2  0  0  0  0  0  0
  190.8410  172.4550  143.3080 C   0  0  0  0  0  2  0  0  0  0  0  0
  187.4870  176.5370  146.7550 C   0  0  0  0  0  2  0  0  0  0  0  0
  187.8610  178.0920  143.9240 C   0  0  1  0  0  3  0  0  0  0  0  0
  190.6720  174.7200  142.2430 C   0  0  0  0  0  2  0  0  0  0  0  0
  189.7720  176.6670  143.5770 C   0  0  1  0  0  3  0  0  0  0  0  0
  189.8290  174.9970  147.0110 O   0  0  0  0  0  0  0  0  0  0  0  0
  191.2070  174.9570  146.7350 C   0  0  0  0  0  2  0  0  0  0  0  0
  191.0360  177.2500  147.3860 O   0  0  0  0  0  1  0  0  0  0  0  0
  191.8980  176.1510  147.3680 C   0  0  2  0  0  3  0  0  0  0  0  0
  193.1770  176.4820  146.6020 C   0  0  1  0  0  3  0  0  0  0  0  0
  194.0890  175.4280  146.6910 O   0  0  0  0  0  1  0  0  0  0  0  0
  192.8780  176.7760  145.1400 C   0  0  0  0  0  2  0  0  0  0  0  0
  193.4810  175.7590  144.2910 N   0  0  0  0  0  2  0  0  0  0  0  0
  194.4160  176.3800  143.5340 O   0  0  0  0  0  0  0  0  0  0  0  0
  195.3910  175.4060  143.3130 C   0  0  0  0  0  1  0  0  0  0  0  0
  185.6470  178.7730  143.3770 C   0  0  0  0  0  2  0  0  0  0  0  0
  184.5280  178.0000  142.7060 C   0  0  0  0  0  2  0  0  0  0  0  0
  184.3710  178.4440  141.2570 C   0  0  1  0  0  3  0  0  0  0  0  0
  185.1530  177.2970  139.2840 O   0  0  0  0  0  1  0  0  0  0  0  0
  185.5620  178.0340  140.3970 C   0  0  0  0  0  2  0  0  0  0  0  0
  182.7680  177.9520  140.5140 S   0  0  0  0  0  0  0  0  0  0  0  0
  181.7130  178.6100  141.8440 C   0  0  0  0  0  1  0  0  0  0  0  0
  1 16  1  6  0  0  0
  1 17  1  0  0  0  0
  1  9  1  0  0  0  0
  2  7  1  0  0  0  0
  2 17  1  0  0  0  0
  3  9  1  0  0  0  0
  4  6  1  0  0  0  0
  5 12  1  0  0  0  0
  6 10  1  0  0  0  0
  6 14  1  0  0  0  0
  7 15  1  0  0  0  0
  8  5  1  0  0  0  0
  9 10  1  0  0  0  0
 10 18  1  0  0  0  0
 11 16  1  0  0  0  0
 11 13  1  0  0  0  0
 12 14  1  0  0  0  0
 13  3  1  0  0  0  0
 15  8  1  0  0  0  0
 15  4  1  0  0  0  0
 17  4  1  0  0  0  0
 19 18  1  0  0  0  0
 19 21  1  0  0  0  0
 21 20  1  0  0  0  0
 22 23  1  0  0  0  0
 22 21  1  0  0  0  0
 24 22  1  0  0  0  0
 25 24  1  0  0  0  0
 26 25  1  0  0  0  0
 27 26  1  0  0  0  0
 28  8  1  0  0  0  0
 29 28  1  0  0  0  0
 30 29  1  0  0  0  0
 31 32  1  0  0  0  0
 32 30  1  0  0  0  0
 33 30  1  0  0  0  0
 33 34  1  0  0  0  0
M  END
>  <MODEL>
6

>  <REMARK>
 VINA RESULT:      -6.1      3.343      8.967
  Name = 
  12 active torsions:
  status: ('A' for Active; 'I' for Inactive)
    1  A    between atoms: C_3  and  C_16
    2  A    between atoms: C_3  and  C_19
    3  A    between atoms: C_5  and  O_11
    4  A    between atoms: C_5  and  C_19
    5  A    between atoms: N_8  and  O_12
    6  A    between atoms: N_8  and  C_16
    7  A    between atoms: O_11  and  C_20
    8  A    between atoms: N_17  and  C_28
    9  A    between atoms: C_28  and  C_29
   10  A    between atoms: C_29  and  C_32
   11  A    between atoms: S_31  and  C_32
   12  A    between atoms: C_32  and  C_34
                            x       y       z     vdW  Elec       q    Type
                         _______ _______ _______ _____ _____    ______ ____

>  <TORSDO>
F 12

$$$$
=
 OpenBabel11112418083D

 34 37  0  0  1  0  0  0  0  0999 V2000
  192.2140  172.9930  144.6430 C   0  0  2  0  0  3  0  0  0  0  0  0
  190.3270  174.0640  143.5800 O   0  0  0  0  0  0  0  0  0  0  0  0
  194.2230  171.9820  145.7550 C   0  0  0  0  0  2  0  0  0  0  0  0
  191.5900  175.4430  145.0840 C   0  0  2  0  0  3  0  0  0  0  0  0
  190.2020  177.0950  147.1880 C   0  0  0  0  0  2  0  0  0  0  0  0
  192.3760  175.1550  146.3890 C   0  0  1  0  0  3  0  0  0  0  0  0
  189.4560  174.5350  144.5710 C   0  0  0  0  0  2  0  0  0  0  0  0
  189.6550  175.8570  146.6470 N   0  0  0  0  0  0  0  0  0  0  0  0
  193.6400  173.2490  145.1390 C   0  0  2  0  0  3  0  0  0  0  0  0
  193.7140  174.4200  146.1340 C   0  0  1  0  0  3  0  0  0  0  0  0
  192.8130  170.6050  144.2000 C   0  0  0  0  0  2  0  0  0  0  0  0
  191.4070  176.7830  148.0540 C   0  0  0  0  0  2  0  0  0  0  0  0
  194.2270  170.8580  144.7220 C   0  0  0  0  0  2  0  0  0  0  0  0
  192.6100  176.4310  147.1950 C   0  0  0  0  0  2  0  0  0  0  0  0
  190.1000  175.7290  145.2510 C   0  0  1  0  0  3  0  0  0  0  0  0
  192.2350  171.8820  143.5940 C   0  0  0  0  0  2  0  0  0  0  0  0
  191.6260  174.2880  144.0680 C   0  0  1  0  0  3  0  0  0  0  0  0
  194.8260  175.2660  145.9090 O   0  0  0  0  0  0  0  0  0  0  0  0
  195.3070  175.0490  144.6060 C   0  0  0  0  0  2  0  0  0  0  0  0
  194.2210  176.3100  142.8920 O   0  0  0  0  0  1  0  0  0  0  0  0
  195.2690  176.3430  143.8160 C   0  0  2  0  0  3  0  0  0  0  0  0
  196.6040  176.5630  143.1070 C   0  0  1  0  0  3  0  0  0  0  0  0
  197.5590  175.6550  143.5690 O   0  0  0  0  0  1  0  0  0  0  0  0
  196.4530  176.4240  141.6000 C   0  0  0  0  0  2  0  0  0  0  0  0
  197.1260  175.2190  141.1390 N   0  0  0  0  0  2  0  0  0  0  0  0
  197.5300  175.4550  139.8680 O   0  0  0  0  0  0  0  0  0  0  0  0
  196.3780  175.2880  139.0980 C   0  0  0  0  0  1  0  0  0  0  0  0
  188.2090  176.0470  146.6610 C   0  0  0  0  0  2  0  0  0  0  0  0
  187.8870  177.5130  146.8860 C   0  0  0  0  0  2  0  0  0  0  0  0
  186.6720  177.9200  146.0630 C   0  0  1  0  0  3  0  0  0  0  0  0
  186.4960  177.0140  143.8340 O   0  0  0  0  0  1  0  0  0  0  0  0
  186.1730  176.7870  145.1730 C   0  0  0  0  0  2  0  0  0  0  0  0
  185.3290  178.6640  147.0660 S   0  0  0  0  0  0  0  0  0  0  0  0
  184.0680  178.6670  145.7530 C   0  0  0  0  0  1  0  0  0  0  0  0
  1 16  1  6  0  0  0
  1  9  1  0  0  0  0
  2 17  1  0  0  0  0
  2  7  1  0  0  0  0
  4 15  1  0  0  0  0
  4  6  1  0  0  0  0
  5 12  1  0  0  0  0
  6 14  1  0  0  0  0
  7 15  1  0  0  0  0
  8 28  1  0  0  0  0
  8  5  1  0  0  0  0
  9  3  1  0  0  0  0
  9 10  1  0  0  0  0
 10  6  1  0  0  0  0
 11 13  1  0  0  0  0
 13  3  1  0  0  0  0
 14 12  1  0  0  0  0
 15  8  1  0  0  0  0
 16 11  1  0  0  0  0
 17  1  1  0  0  0  0
 17  4  1  0  0  0  0
 18 10  1  0  0  0  0
 19 18  1  0  0  0  0
 20 21  1  0  0  0  0
 21 19  1  0  0  0  0
 22 23  1  0  0  0  0
 22 21  1  0  0  0  0
 24 22  1  0  0  0  0
 25 24  1  0  0  0  0
 26 25  1  0  0  0  0
 27 26  1  0  0  0  0
 28 29  1  0  0  0  0
 30 29  1  0  0  0  0
 30 33  1  0  0  0  0
 31 32  1  0  0  0  0
 32 30  1  0  0  0  0
 34 33  1  0  0  0  0
M  END
>  <MODEL>
7

>  <REMARK>
 VINA RESULT:      -6.1      3.870      9.552
  Name = 
  12 active torsions:
  status: ('A' for Active; 'I' for Inactive)
    1  A    between atoms: C_3  and  C_16
    2  A    between atoms: C_3  and  C_19
    3  A    between atoms: C_5  and  O_11
    4  A    between atoms: C_5  and  C_19
    5  A    between atoms: N_8  and  O_12
    6  A    between atoms: N_8  and  C_16
    7  A    between atoms: O_11  and  C_20
    8  A    between atoms: N_17  and  C_28
    9  A    between atoms: C_28  and  C_29
   10  A    between atoms: C_29  and  C_32
   11  A    between atoms: S_31  and  C_32
   12  A    between atoms: C_32  and  C_34
                            x       y       z     vdW  Elec       q    Type
                         _______ _______ _______ _____ _____    ______ ____

>  <TORSDO>
F 12

$$$$
=
 OpenBabel11112418083D

 34 37  0  0  1  0  0  0  0  0999 V2000
  192.2790  175.5550  145.3950 C   0  0  2  0  0  3  0  0  0  0  0  0
  190.5110  174.9680  146.9330 O   0  0  0  0  0  0  0  0  0  0  0  0
  194.0610  176.1060  143.7160 C   0  0  0  0  0  2  0  0  0  0  0  0
  189.8850  175.0550  144.6190 C   0  0  2  0  0  3  0  0  0  0  0  0
  187.4150  176.5490  143.7500 C   0  0  0  0  0  2  0  0  0  0  0  0
  190.3520  175.9200  143.4190 C   0  0  1  0  0  3  0  0  0  0  0  0
  189.4690  175.8960  146.8010 C   0  0  0  0  0  2  0  0  0  0  0  0
  188.1810  176.8870  144.9420 N   0  0  0  0  0  0  0  0  0  0  0  0
  192.8120  175.2740  143.9860 C   0  0  2  0  0  3  0  0  0  0  0  0
  191.7520  175.5170  142.8980 C   0  0  1  0  0  3  0  0  0  0  0  0
  194.6100  176.0350  146.1650 C   0  0  0  0  0  2  0  0  0  0  0  0
  188.2150  176.9070  142.5120 C   0  0  0  0  0  2  0  0  0  0  0  0
  195.1350  175.7810  144.7510 C   0  0  0  0  0  2  0  0  0  0  0  0
  189.3300  175.9010  142.2830 C   0  0  0  0  0  2  0  0  0  0  0  0
  188.7710  175.6500  145.4760 C   0  0  1  0  0  3  0  0  0  0  0  0
  193.3540  175.2040  146.4220 C   0  0  0  0  0  2  0  0  0  0  0  0
  190.9980  174.7460  145.6330 C   0  0  1  0  0  3  0  0  0  0  0  0
  191.7510  174.5170  141.8970 O   0  0  0  0  0  0  0  0  0  0  0  0
  192.1850  173.3050  142.4620 C   0  0  0  0  0  2  0  0  0  0  0  0
  190.9840  171.7270  143.7940 O   0  0  0  0  0  1  0  0  0  0  0  0
  191.0320  172.3220  142.5300 C   0  0  2  0  0  3  0  0  0  0  0  0
  191.1820  171.2620  141.4420 C   0  0  1  0  0  3  0  0  0  0  0  0
  190.7250  170.0230  141.8980 O   0  0  0  0  0  1  0  0  0  0  0  0
  190.4210  171.6550  140.1850 C   0  0  0  0  0  2  0  0  0  0  0  0
  189.3040  172.5220  140.5260 N   0  0  0  0  0  2  0  0  0  0  0  0
  189.3080  173.5410  139.6340 O   0  0  0  0  0  0  0  0  0  0  0  0
  188.2090  173.2910  138.8120 C   0  0  0  0  0  1  0  0  0  0  0  0
  187.1960  177.3840  145.8940 C   0  0  0  0  0  2  0  0  0  0  0  0
  185.8220  176.8510  145.5350 C   0  0  0  0  0  2  0  0  0  0  0  0
  184.7680  177.9350  145.7170 C   0  0  1  0  0  3  0  0  0  0  0  0
  184.8300  178.6480  148.0220 O   0  0  0  0  0  1  0  0  0  0  0  0
  185.2020  178.9970  146.7230 C   0  0  0  0  0  2  0  0  0  0  0  0
  184.1910  178.6640  144.1360 S   0  0  0  0  0  0  0  0  0  0  0  0
  185.5860  179.8140  143.9180 C   0  0  0  0  0  1  0  0  0  0  0  0
  1 17  1  0  0  0  0
  1 16  1  1  0  0  0
  3  9  1  0  0  0  0
  3 13  1  0  0  0  0
  4 15  1  0  0  0  0
  4 17  1  0  0  0  0
  5  8  1  0  0  0  0
  6  4  1  0  0  0  0
  7  2  1  0  0  0  0
  8 15  1  0  0  0  0
  8 28  1  0  0  0  0
  9  1  1  0  0  0  0
 10  6  1  0  0  0  0
 10  9  1  0  0  0  0
 11 16  1  0  0  0  0
 12  5  1  0  0  0  0
 13 11  1  0  0  0  0
 14 12  1  0  0  0  0
 14  6  1  0  0  0  0
 15  7  1  0  0  0  0
 17  2  1  0  0  0  0
 18 19  1  0  0  0  0
 18 10  1  0  0  0  0
 19 21  1  0  0  0  0
 21 20  1  0  0  0  0
 22 23  1  0  0  0  0
 22 21  1  0  0  0  0
 24 25  1  0  0  0  0
 24 22  1  0  0  0  0
 26 25  1  0  0  0  0
 27 26  1  0  0  0  0
 29 30  1  0  0  0  0
 29 28  1  0  0  0  0
 30 32  1  0  0  0  0
 32 31  1  0  0  0  0
 33 30  1  0  0  0  0
 34 33  1  0  0  0  0
M  END
>  <MODEL>
8

>  <REMARK>
 VINA RESULT:      -6.1      4.022      7.796
  Name = 
  12 active torsions:
  status: ('A' for Active; 'I' for Inactive)
    1  A    between atoms: C_3  and  C_16
    2  A    between atoms: C_3  and  C_19
    3  A    between atoms: C_5  and  O_11
    4  A    between atoms: C_5  and  C_19
    5  A    between atoms: N_8  and  O_12
    6  A    between atoms: N_8  and  C_16
    7  A    between atoms: O_11  and  C_20
    8  A    between atoms: N_17  and  C_28
    9  A    between atoms: C_28  and  C_29
   10  A    between atoms: C_29  and  C_32
   11  A    between atoms: S_31  and  C_32
   12  A    between atoms: C_32  and  C_34
                            x       y       z     vdW  Elec       q    Type
                         _______ _______ _______ _____ _____    ______ ____

>  <TORSDO>
F 12

$$$$
=
 OpenBabel11112418083D

 34 37  0  0  1  0  0  0  0  0999 V2000
  192.3450  172.9090  144.6350 C   0  0  2  0  0  3  0  0  0  0  0  0
  190.4130  173.8820  143.5570 O   0  0  0  0  0  0  0  0  0  0  0  0
  194.3950  172.0030  145.7620 C   0  0  0  0  0  2  0  0  0  0  0  0
  191.6060  175.3310  145.0530 C   0  0  2  0  0  3  0  0  0  0  0  0
  190.1340  176.9340  147.1390 C   0  0  0  0  0  2  0  0  0  0  0  0
  192.4000  175.0910  146.3630 C   0  0  1  0  0  3  0  0  0  0  0  0
  189.5180  174.3200  144.5420 C   0  0  0  0  0  2  0  0  0  0  0  0
  189.6480  175.6680  146.6070 N   0  0  0  0  0  0  0  0  0  0  0  0
  193.7560  173.2360  145.1330 C   0  0  2  0  0  3  0  0  0  0  0  0
  193.7710  174.4170  146.1190 C   0  0  1  0  0  3  0  0  0  0  0  0
  193.0560  170.5490  144.2150 C   0  0  0  0  0  2  0  0  0  0  0  0
  191.3500  176.6860  148.0120 C   0  0  0  0  0  2  0  0  0  0  0  0
  194.4550  170.8710  144.7390 C   0  0  0  0  0  2  0  0  0  0  0  0
  192.5710  176.3840  147.1590 C   0  0  0  0  0  2  0  0  0  0  0  0
  190.1030  175.5480  145.2130 C   0  0  1  0  0  3  0  0  0  0  0  0
  192.4210  171.7920  143.5960 C   0  0  0  0  0  2  0  0  0  0  0  0
  191.6990  174.1700  144.0480 C   0  0  1  0  0  3  0  0  0  0  0  0
  194.8430  175.3120  145.8890 O   0  0  0  0  0  0  0  0  0  0  0  0
  195.3260  175.1210  144.5830 C   0  0  0  0  0  2  0  0  0  0  0  0
  194.2170  176.3720  142.8760 O   0  0  0  0  0  1  0  0  0  0  0  0
  195.2560  176.4230  143.8080 C   0  0  2  0  0  3  0  0  0  0  0  0
  196.5890  176.6900  143.1130 C   0  0  1  0  0  3  0  0  0  0  0  0
  197.5470  175.7550  143.5120 O   0  0  0  0  0  1  0  0  0  0  0  0
  196.4360  176.6490  141.6000 C   0  0  0  0  0  2  0  0  0  0  0  0
  197.2660  175.5930  141.0410 N   0  0  0  0  0  2  0  0  0  0  0  0
  197.1410  175.6640  139.6950 O   0  0  0  0  0  0  0  0  0  0  0  0
  195.8200  175.2910  139.4450 C   0  0  0  0  0  1  0  0  0  0  0  0
  188.1950  175.7900  146.6150 C   0  0  0  0  0  2  0  0  0  0  0  0
  187.8000  177.2300  146.3480 C   0  0  0  0  0  2  0  0  0  0  0  0
  186.3810  177.2980  145.7990 C   0  0  1  0  0  3  0  0  0  0  0  0
  184.4720  178.4960  146.6590 O   0  0  0  0  0  1  0  0  0  0  0  0
  185.7250  178.6490  146.0640 C   0  0  0  0  0  2  0  0  0  0  0  0
  186.2560  176.7930  144.0400 S   0  0  0  0  0  0  0  0  0  0  0  0
  187.6610  177.7830  143.4400 C   0  0  0  0  0  1  0  0  0  0  0  0
  1 16  1  6  0  0  0
  1  9  1  0  0  0  0
  2 17  1  0  0  0  0
  2  7  1  0  0  0  0
  4 15  1  0  0  0  0
  4  6  1  0  0  0  0
  5 12  1  0  0  0  0
  6 14  1  0  0  0  0
  7 15  1  0  0  0  0
  8 28  1  0  0  0  0
  8  5  1  0  0  0  0
  9  3  1  0  0  0  0
  9 10  1  0  0  0  0
 10  6  1  0  0  0  0
 11 13  1  0  0  0  0
 13  3  1  0  0  0  0
 14 12  1  0  0  0  0
 15  8  1  0  0  0  0
 16 11  1  0  0  0  0
 17  1  1  0  0  0  0
 17  4  1  0  0  0  0
 18 10  1  0  0  0  0
 19 18  1  0  0  0  0
 20 21  1  0  0  0  0
 21 19  1  0  0  0  0
 22 23  1  0  0  0  0
 22 21  1  0  0  0  0
 24 22  1  0  0  0  0
 25 24  1  0  0  0  0
 26 25  1  0  0  0  0
 27 26  1  0  0  0  0
 29 28  1  0  0  0  0
 30 32  1  0  0  0  0
 30 29  1  0  0  0  0
 32 31  1  0  0  0  0
 33 30  1  0  0  0  0
 34 33  1  0  0  0  0
M  END
>  <MODEL>
9

>  <REMARK>
 VINA RESULT:      -6.1      3.908      9.410
  Name = 
  12 active torsions:
  status: ('A' for Active; 'I' for Inactive)
    1  A    between atoms: C_3  and  C_16
    2  A    between atoms: C_3  and  C_19
    3  A    between atoms: C_5  and  O_11
    4  A    between atoms: C_5  and  C_19
    5  A    between atoms: N_8  and  O_12
    6  A    between atoms: N_8  and  C_16
    7  A    between atoms: O_11  and  C_20
    8  A    between atoms: N_17  and  C_28
    9  A    between atoms: C_28  and  C_29
   10  A    between atoms: C_29  and  C_32
   11  A    between atoms: S_31  and  C_32
   12  A    between atoms: C_32  and  C_34
                            x       y       z     vdW  Elec       q    Type
                         _______ _______ _______ _____ _____    ______ ____

>  <TORSDO>
F 12

$$$$
