=
 OpenBabel11112417533D

 34 41  0  0  1  0  0  0  0  0999 V2000
  188.9480  177.0830  146.6250 C   0  0  1  0  0  3  0  0  0  0  0  0
  190.6560  175.5790  147.8180 C   0  0  0  0  0  3  0  0  0  0  0  0
  186.3610  176.7050  141.8450 C   0  0  0  0  0  0  0  0  0  0  0  0
  187.3190  177.9320  144.8560 C   0  0  0  0  0  0  0  0  0  0  0  0
  188.0890  178.4040  142.5240 C   0  0  2  0  0  3  0  0  0  0  0  0
  188.2490  176.0460  141.6140 C   0  0  0  0  0  2  0  0  0  0  0  0
  186.9960  175.4110  141.8150 O   0  0  0  0  0  0  0  0  0  0  0  0
  185.0090  178.6120  142.2030 C   0  0  0  0  0  2  0  0  0  0  0  0
  191.1770  176.3630  145.7520 C   0  0  0  0  0  0  0  0  0  0  0  0
  193.0060  174.9040  143.9440 C   0  0  0  0  0  2  0  0  0  0  0  0
  189.4080  178.1470  143.0300 O   0  0  0  0  0  0  0  0  0  0  0  0
  185.8160  179.2610  143.3450 C   0  0  0  0  0  2  0  0  0  0  0  0
  191.0150  177.0400  144.5960 C   0  0  0  0  0  0  0  0  0  0  0  0
  191.9440  175.2910  147.6420 C   0  0  0  0  0  3  0  0  0  0  0  0
  187.1010  178.5950  143.6040 N   0  0  0  0  0  0  0  0  0  0  0  0
  185.1940  177.1660  142.1570 N   0  0  0  0  0  0  0  0  0  0  0  0
  192.8990  174.5700  145.4400 C   0  0  2  0  0  3  0  0  0  0  0  0
  188.6770  177.5080  145.2030 C   0  0  0  0  0  0  0  0  0  0  0  0
  187.6550  177.3450  141.4770 C   0  0  1  0  0  3  0  0  0  0  0  0
  189.6620  177.5790  144.2890 C   0  0  0  0  0  0  0  0  0  0  0  0
  186.5040  176.7890  146.8080 C   0  0  0  0  0  3  0  0  0  0  0  0
  193.3660  176.3670  143.7080 C   0  0  0  0  0  2  0  0  0  0  0  0
  186.3240  177.5930  145.6250 N   0  0  0  0  0  0  0  0  0  0  0  0
  192.1160  177.2440  143.5750 C   0  0  0  0  0  2  0  0  0  0  0  0
  192.4260  175.7570  146.2940 C   0  0  1  0  0  3  0  0  0  0  0  0
  187.7260  176.4840  147.2640 C   0  0  0  0  0  3  0  0  0  0  0  0
  190.1070  176.2000  146.6660 N   0  0  0  0  0  0  0  0  0  0  0  0
  194.1380  174.1250  145.9060 O   0  0  0  0  0  0  0  0  0  0  0  0
  194.3560  172.9070  145.2470 C   0  0  0  0  0  2  0  0  0  0  0  0
  197.0860  174.1370  143.5850 C   0  0  0  0  0  2  0  0  0  0  0  0
  196.5650  173.5780  145.8350 C   0  0  0  0  0  2  0  0  0  0  0  0
  195.7800  172.6780  144.9950 N   0  0  0  0  0  0  0  0  0  0  0  0
  197.6570  174.1650  144.9750 C   0  0  0  0  0  2  0  0  0  0  0  0
  196.0850  173.0010  143.6030 C   0  0  0  0  0  2  0  0  0  0  0  0
  1 27  1  0  0  0  0
  1 26  1  6  0  0  0
  3 16  2  0  0  0  0
  4 18  1  0  0  0  0
  4 23  2  0  0  0  0
  5 11  1  1  0  0  0
  5 15  1  0  0  0  0
  6  7  1  0  0  0  0
  7  3  1  0  0  0  0
  8 12  1  0  0  0  0
  9 25  1  0  0  0  0
  9 27  1  0  0  0  0
 10 17  1  0  0  0  0
 11 20  1  0  0  0  0
 12 15  1  0  0  0  0
 13  9  2  0  0  0  0
 14  2  2  0  0  0  0
 15  4  1  0  0  0  0
 16  8  1  0  0  0  0
 17 28  1  1  0  0  0
 17 25  1  0  0  0  0
 18  1  1  0  0  0  0
 19  6  1  1  0  0  0
 19  3  1  0  0  0  0
 19  5  1  0  0  0  0
 20 13  1  0  0  0  0
 20 18  2  0  0  0  0
 21 26  2  0  0  0  0
 22 10  1  0  0  0  0
 23 21  1  0  0  0  0
 24 22  1  0  0  0  0
 24 13  1  0  0  0  0
 25 14  1  1  0  0  0
 27  2  1  0  0  0  0
 29 28  1  0  0  0  0
 30 34  1  0  0  0  0
 30 33  1  0  0  0  0
 32 29  1  0  0  0  0
 32 31  1  0  0  0  0
 33 31  1  0  0  0  0
 34 32  1  0  0  0  0
M  END
>  <MODEL>
1

>  <REMARK>
 VINA RESULT:      -8.3      0.000      0.000
  Name = 
  3 active torsions:
  status: ('A' for Active; 'I' for Inactive)
    1  A    between atoms: C_17  and  O_28
    2  A    between atoms: O_28  and  C_29
    3  A    between atoms: C_29  and  N_32
                            x       y       z     vdW  Elec       q    Type
                         _______ _______ _______ _____ _____    ______ ____

>  <TORSDO>
F 3

$$$$
=
 OpenBabel11112417533D

 34 41  0  0  1  0  0  0  0  0999 V2000
  193.6070  176.6450  143.0720 C   0  0  1  0  0  3  0  0  0  0  0  0
  191.2100  177.5690  143.0100 C   0  0  0  0  0  3  0  0  0  0  0  0
  195.6940  171.8100  144.4710 C   0  0  0  0  0  0  0  0  0  0  0  0
  195.5480  175.0230  143.4020 C   0  0  0  0  0  0  0  0  0  0  0  0
  196.0100  174.0150  145.6430 C   0  0  2  0  0  3  0  0  0  0  0  0
  194.1900  172.2570  145.7320 C   0  0  0  0  0  2  0  0  0  0  0  0
  194.3020  171.4480  144.5720 O   0  0  0  0  0  0  0  0  0  0  0  0
  197.9020  172.3560  143.8270 C   0  0  0  0  0  2  0  0  0  0  0  0
  192.0050  176.7810  144.9850 C   0  0  0  0  0  0  0  0  0  0  0  0
  190.2110  175.6860  147.0650 C   0  0  0  0  0  2  0  0  0  0  0  0
  194.9850  174.8980  146.1240 O   0  0  0  0  0  0  0  0  0  0  0  0
  197.7590  173.8900  143.7720 C   0  0  0  0  0  2  0  0  0  0  0  0
  192.8880  176.2350  145.8470 C   0  0  0  0  0  0  0  0  0  0  0  0
  190.3200  177.9420  143.9270 C   0  0  0  0  0  3  0  0  0  0  0  0
  196.4700  174.3750  144.2870 N   0  0  0  0  0  0  0  0  0  0  0  0
  196.6310  171.6800  143.5910 N   0  0  0  0  0  0  0  0  0  0  0  0
  189.6810  176.5110  145.8820 C   0  0  2  0  0  3  0  0  0  0  0  0
  194.3990  175.7290  143.9720 C   0  0  0  0  0  0  0  0  0  0  0  0
  195.5980  172.5250  145.7750 C   0  0  1  0  0  3  0  0  0  0  0  0
  194.1200  175.6180  145.2840 C   0  0  0  0  0  0  0  0  0  0  0  0
  194.6420  175.4010  141.2070 C   0  0  0  0  0  3  0  0  0  0  0  0
  191.2630  176.4450  147.8680 C   0  0  0  0  0  2  0  0  0  0  0  0
  195.6440  174.8920  142.1090 N   0  0  0  0  0  0  0  0  0  0  0  0
  192.6780  176.1740  147.3470 C   0  0  0  0  0  2  0  0  0  0  0  0
  190.7250  177.4760  145.3000 C   0  0  1  0  0  3  0  0  0  0  0  0
  193.6400  176.1770  141.6430 C   0  0  0  0  0  3  0  0  0  0  0  0
  192.2540  176.8030  143.5910 N   0  0  0  0  0  0  0  0  0  0  0  0
  188.5540  177.2300  146.2850 O   0  0  0  0  0  0  0  0  0  0  0  0
  187.5270  176.2790  146.3620 C   0  0  0  0  0  2  0  0  0  0  0  0
  185.5830  179.0450  146.9060 C   0  0  0  0  0  2  0  0  0  0  0  0
  185.2010  176.7860  146.2760 C   0  0  0  0  0  2  0  0  0  0  0  0
  186.3850  176.7810  147.1300 N   0  0  0  0  0  0  0  0  0  0  0  0
  184.4900  178.0990  146.4940 C   0  0  0  0  0  2  0  0  0  0  0  0
  186.6410  178.1620  147.5330 C   0  0  0  0  0  2  0  0  0  0  0  0
  1 26  1  6  0  0  0
  1 27  1  0  0  0  0
  1 18  1  0  0  0  0
  2 27  1  0  0  0  0
  2 14  2  0  0  0  0
  3  7  1  0  0  0  0
  3 19  1  0  0  0  0
  4 18  1  0  0  0  0
  4 15  1  0  0  0  0
  5 19  1  0  0  0  0
  5 11  1  6  0  0  0
  7  6  1  0  0  0  0
  9 25  1  0  0  0  0
  9 13  2  0  0  0  0
 10 22  1  0  0  0  0
 12  8  1  0  0  0  0
 12 15  1  0  0  0  0
 13 24  1  0  0  0  0
 15  5  1  0  0  0  0
 16  8  1  0  0  0  0
 16  3  2  0  0  0  0
 17 28  1  1  0  0  0
 17 10  1  0  0  0  0
 18 20  2  0  0  0  0
 19  6  1  6  0  0  0
 20 13  1  0  0  0  0
 20 11  1  0  0  0  0
 21 26  2  0  0  0  0
 21 23  1  0  0  0  0
 23  4  2  0  0  0  0
 24 22  1  0  0  0  0
 25 14  1  6  0  0  0
 25 17  1  0  0  0  0
 27  9  1  0  0  0  0
 28 29  1  0  0  0  0
 29 32  1  0  0  0  0
 30 34  1  0  0  0  0
 31 33  1  0  0  0  0
 31 32  1  0  0  0  0
 32 34  1  0  0  0  0
 33 30  1  0  0  0  0
M  END
>  <MODEL>
2

>  <REMARK>
 VINA RESULT:      -8.1      2.537      8.735
  Name = 
  3 active torsions:
  status: ('A' for Active; 'I' for Inactive)
    1  A    between atoms: C_17  and  O_28
    2  A    between atoms: O_28  and  C_29
    3  A    between atoms: C_29  and  N_32
                            x       y       z     vdW  Elec       q    Type
                         _______ _______ _______ _____ _____    ______ ____

>  <TORSDO>
F 3

$$$$
=
 OpenBabel11112417533D

 34 41  0  0  1  0  0  0  0  0999 V2000
  193.5790  176.4130  143.4180 C   0  0  1  0  0  3  0  0  0  0  0  0
  191.4080  177.7790  143.2700 C   0  0  0  0  0  3  0  0  0  0  0  0
  194.6040  171.0630  143.5540 C   0  0  0  0  0  0  0  0  0  0  0  0
  195.1520  174.4080  143.5290 C   0  0  0  0  0  0  0  0  0  0  0  0
  194.9820  172.7450  145.3880 C   0  0  2  0  0  3  0  0  0  0  0  0
  192.9490  171.4350  144.6380 C   0  0  0  0  0  2  0  0  0  0  0  0
  193.1850  170.9750  143.3160 O   0  0  0  0  0  0  0  0  0  0  0  0
  196.9540  171.3120  143.4680 C   0  0  0  0  0  2  0  0  0  0  0  0
  191.6480  176.3300  145.0010 C   0  0  0  0  0  0  0  0  0  0  0  0
  189.3160  175.0840  146.3270 C   0  0  0  0  0  2  0  0  0  0  0  0
  194.0170  173.6470  145.9520 O   0  0  0  0  0  0  0  0  0  0  0  0
  197.0480  172.7970  143.8710 C   0  0  0  0  0  2  0  0  0  0  0  0
  192.2410  175.4000  145.7780 C   0  0  0  0  0  0  0  0  0  0  0  0
  190.4080  178.0540  144.1050 C   0  0  0  0  0  3  0  0  0  0  0  0
  195.7640  173.3680  144.3020 N   0  0  0  0  0  0  0  0  0  0  0  0
  195.6770  170.9980  142.8360 N   0  0  0  0  0  0  0  0  0  0  0  0
  189.1730  176.2940  145.3910 C   0  0  2  0  0  3  0  0  0  0  0  0
  194.0230  175.1430  144.1020 C   0  0  0  0  0  0  0  0  0  0  0  0
  194.3410  171.3920  144.9840 C   0  0  1  0  0  3  0  0  0  0  0  0
  193.4610  174.7300  145.2530 C   0  0  0  0  0  0  0  0  0  0  0  0
  194.7930  175.5560  141.4460 C   0  0  0  0  0  3  0  0  0  0  0  0
  190.2740  175.3630  147.4810 C   0  0  0  0  0  2  0  0  0  0  0  0
  195.4980  174.6250  142.2910 N   0  0  0  0  0  0  0  0  0  0  0  0
  191.7140  174.9680  147.1320 C   0  0  0  0  0  2  0  0  0  0  0  0
  190.4440  177.1530  145.3110 C   0  0  1  0  0  3  0  0  0  0  0  0
  193.8440  176.3640  141.9380 C   0  0  0  0  0  3  0  0  0  0  0  0
  192.1850  176.6890  143.7410 N   0  0  0  0  0  0  0  0  0  0  0  0
  188.1020  177.0840  145.8150 O   0  0  0  0  0  0  0  0  0  0  0  0
  187.0610  176.7910  144.9230 C   0  0  0  0  0  2  0  0  0  0  0  0
  185.2260  178.4870  147.2650 C   0  0  0  0  0  2  0  0  0  0  0  0
  184.9520  177.8970  144.9800 C   0  0  0  0  0  2  0  0  0  0  0  0
  185.7550  176.8390  145.5840 N   0  0  0  0  0  0  0  0  0  0  0  0
  184.2930  178.6630  146.1010 C   0  0  0  0  0  2  0  0  0  0  0  0
  185.9370  177.1770  146.9940 C   0  0  0  0  0  2  0  0  0  0  0  0
  1 26  1  6  0  0  0
  1 27  1  0  0  0  0
  1 18  1  0  0  0  0
  2 27  1  0  0  0  0
  2 14  2  0  0  0  0
  3 19  1  0  0  0  0
  4 18  1  0  0  0  0
  4 15  1  0  0  0  0
  5 11  1  6  0  0  0
  7  3  1  0  0  0  0
  7  6  1  0  0  0  0
  8 12  1  0  0  0  0
  9 25  1  0  0  0  0
  9 13  2  0  0  0  0
 10 22  1  0  0  0  0
 12 15  1  0  0  0  0
 13 24  1  0  0  0  0
 15  5  1  0  0  0  0
 16  8  1  0  0  0  0
 16  3  2  0  0  0  0
 17 28  1  1  0  0  0
 17 10  1  0  0  0  0
 18 20  2  0  0  0  0
 19  6  1  6  0  0  0
 19  5  1  0  0  0  0
 20 13  1  0  0  0  0
 20 11  1  0  0  0  0
 21 26  2  0  0  0  0
 21 23  1  0  0  0  0
 23  4  2  0  0  0  0
 24 22  1  0  0  0  0
 25 14  1  6  0  0  0
 25 17  1  0  0  0  0
 27  9  1  0  0  0  0
 29 32  1  0  0  0  0
 29 28  1  0  0  0  0
 31 32  1  0  0  0  0
 31 33  1  0  0  0  0
 32 34  1  0  0  0  0
 33 30  1  0  0  0  0
 34 30  1  0  0  0  0
M  END
>  <MODEL>
3

>  <REMARK>
 VINA RESULT:      -8.0      2.098      8.649
  Name = 
  3 active torsions:
  status: ('A' for Active; 'I' for Inactive)
    1  A    between atoms: C_17  and  O_28
    2  A    between atoms: O_28  and  C_29
    3  A    between atoms: C_29  and  N_32
                            x       y       z     vdW  Elec       q    Type
                         _______ _______ _______ _____ _____    ______ ____

>  <TORSDO>
F 3

$$$$
=
 OpenBabel11112417533D

 34 41  0  0  1  0  0  0  0  0999 V2000
  192.1200  175.5180  146.1420 C   0  0  1  0  0  3  0  0  0  0  0  0
  189.7370  176.4660  146.3070 C   0  0  0  0  0  3  0  0  0  0  0  0
  195.9300  175.6940  142.2510 C   0  0  0  0  0  0  0  0  0  0  0  0
  194.4280  174.9750  145.2030 C   0  0  0  0  0  0  0  0  0  0  0  0
  194.6780  173.6750  143.0830 C   0  0  2  0  0  3  0  0  0  0  0  0
  194.1270  175.4710  141.3840 C   0  0  0  0  0  2  0  0  0  0  0  0
  194.9810  176.5790  141.6220 O   0  0  0  0  0  0  0  0  0  0  0  0
  197.5920  174.6330  143.5560 C   0  0  0  0  0  2  0  0  0  0  0  0
  190.2130  175.0550  144.5940 C   0  0  0  0  0  0  0  0  0  0  0  0
  188.7540  175.1710  142.0240 C   0  0  0  0  0  2  0  0  0  0  0  0
  193.2540  173.5050  143.1540 O   0  0  0  0  0  0  0  0  0  0  0  0
  196.6840  174.0230  144.6420 C   0  0  0  0  0  2  0  0  0  0  0  0
  190.9560  174.2340  143.8210 C   0  0  0  0  0  0  0  0  0  0  0  0
  188.5630  176.1660  145.7560 C   0  0  0  0  0  3  0  0  0  0  0  0
  195.2490  174.1660  144.3530 N   0  0  0  0  0  0  0  0  0  0  0  0
  197.0020  175.8270  142.9600 N   0  0  0  0  0  0  0  0  0  0  0  0
  188.2410  175.8790  143.2870 C   0  0  2  0  0  3  0  0  0  0  0  0
  192.9730  174.8980  145.0630 C   0  0  0  0  0  0  0  0  0  0  0  0
  195.0970  174.5240  141.8540 C   0  0  1  0  0  3  0  0  0  0  0  0
  192.4280  174.2180  144.0380 C   0  0  0  0  0  0  0  0  0  0  0  0
  194.1440  176.7920  146.7530 C   0  0  0  0  0  3  0  0  0  0  0  0
  188.9600  173.6770  142.2480 C   0  0  0  0  0  2  0  0  0  0  0  0
  194.9510  175.8600  146.0050 N   0  0  0  0  0  0  0  0  0  0  0  0
  190.3850  173.3640  142.7200 C   0  0  0  0  0  2  0  0  0  0  0  0
  188.7330  175.2300  144.5900 C   0  0  1  0  0  3  0  0  0  0  0  0
  192.8090  176.6910  146.7840 C   0  0  0  0  0  3  0  0  0  0  0  0
  190.8060  175.8500  145.6050 N   0  0  0  0  0  0  0  0  0  0  0  0
  186.8450  175.8970  143.2740 O   0  0  0  0  0  0  0  0  0  0  0  0
  186.5040  176.9510  142.4150 C   0  0  0  0  0  2  0  0  0  0  0  0
  185.5810  178.6840  145.2210 C   0  0  0  0  0  2  0  0  0  0  0  0
  185.8590  179.1890  142.9160 C   0  0  0  0  0  2  0  0  0  0  0  0
  185.4480  177.7900  142.9840 N   0  0  0  0  0  0  0  0  0  0  0  0
  185.5290  179.8250  144.2440 C   0  0  0  0  0  2  0  0  0  0  0  0
  185.2680  177.4540  144.3940 C   0  0  0  0  0  2  0  0  0  0  0  0
  1 26  1  6  0  0  0
  3 16  2  0  0  0  0
  4 23  2  0  0  0  0
  5 11  1  1  0  0  0
  5 15  1  0  0  0  0
  6  7  1  0  0  0  0
  7  3  1  0  0  0  0
  8 12  1  0  0  0  0
  9 27  1  0  0  0  0
 10 22  1  0  0  0  0
 10 17  1  0  0  0  0
 11 20  1  0  0  0  0
 13 20  1  0  0  0  0
 13  9  2  0  0  0  0
 14  2  2  0  0  0  0
 15 12  1  0  0  0  0
 15  4  1  0  0  0  0
 16  8  1  0  0  0  0
 17 28  1  1  0  0  0
 17 25  1  0  0  0  0
 18  4  1  0  0  0  0
 18  1  1  0  0  0  0
 19  6  1  1  0  0  0
 19  3  1  0  0  0  0
 19  5  1  0  0  0  0
 20 18  2  0  0  0  0
 21 26  2  0  0  0  0
 22 24  1  0  0  0  0
 23 21  1  0  0  0  0
 24 13  1  0  0  0  0
 25  9  1  0  0  0  0
 25 14  1  1  0  0  0
 27  1  1  0  0  0  0
 27  2  1  0  0  0  0
 29 32  1  0  0  0  0
 29 28  1  0  0  0  0
 31 32  1  0  0  0  0
 31 33  1  0  0  0  0
 32 34  1  0  0  0  0
 33 30  1  0  0  0  0
 34 30  1  0  0  0  0
M  END
>  <MODEL>
4

>  <REMARK>
 VINA RESULT:      -7.9      2.102      8.136
  Name = 
  3 active torsions:
  status: ('A' for Active; 'I' for Inactive)
    1  A    between atoms: C_17  and  O_28
    2  A    between atoms: O_28  and  C_29
    3  A    between atoms: C_29  and  N_32
                            x       y       z     vdW  Elec       q    Type
                         _______ _______ _______ _____ _____    ______ ____

>  <TORSDO>
F 3

$$$$
=
 OpenBabel11112417533D

 34 41  0  0  1  0  0  0  0  0999 V2000
  189.0000  177.0900  146.6060 C   0  0  1  0  0  3  0  0  0  0  0  0
  190.7320  175.5740  147.7490 C   0  0  0  0  0  3  0  0  0  0  0  0
  186.3170  176.7590  141.8750 C   0  0  0  0  0  0  0  0  0  0  0  0
  187.3360  177.9560  144.8780 C   0  0  0  0  0  0  0  0  0  0  0  0
  188.0580  178.4520  142.5370 C   0  0  2  0  0  3  0  0  0  0  0  0
  188.2010  176.1040  141.6000 C   0  0  0  0  0  2  0  0  0  0  0  0
  186.9520  175.4660  141.8190 O   0  0  0  0  0  0  0  0  0  0  0  0
  184.9720  178.6620  142.2790 C   0  0  0  0  0  2  0  0  0  0  0  0
  191.2110  176.3800  145.6810 C   0  0  0  0  0  0  0  0  0  0  0  0
  193.0040  174.9400  143.8220 C   0  0  0  0  0  2  0  0  0  0  0  0
  189.3870  178.1910  143.0140 O   0  0  0  0  0  0  0  0  0  0  0  0
  185.8010  179.3000  143.4120 C   0  0  0  0  0  2  0  0  0  0  0  0
  191.0250  177.0690  144.5360 C   0  0  0  0  0  0  0  0  0  0  0  0
  192.0160  175.2890  147.5440 C   0  0  0  0  0  3  0  0  0  0  0  0
  187.0920  178.6320  143.6390 N   0  0  0  0  0  0  0  0  0  0  0  0
  185.1570  177.2160  142.2150 N   0  0  0  0  0  0  0  0  0  0  0  0
  192.9270  174.5910  145.3160 C   0  0  2  0  0  3  0  0  0  0  0  0
  188.7000  177.5290  145.1940 C   0  0  0  0  0  0  0  0  0  0  0  0
  187.6040  177.4040  141.4880 C   0  0  1  0  0  3  0  0  0  0  0  0
  189.6670  177.6100  144.2610 C   0  0  0  0  0  0  0  0  0  0  0  0
  186.5600  176.7930  146.8350 C   0  0  0  0  0  3  0  0  0  0  0  0
  193.3580  176.4060  143.5930 C   0  0  0  0  0  2  0  0  0  0  0  0
  186.3560  177.6080  145.6640 N   0  0  0  0  0  0  0  0  0  0  0  0
  192.1050  177.2840  143.4940 C   0  0  0  0  0  2  0  0  0  0  0  0
  192.4700  175.7690  146.1910 C   0  0  1  0  0  3  0  0  0  0  0  0
  187.7910  176.4830  147.2630 C   0  0  0  0  0  3  0  0  0  0  0  0
  190.1600  176.2060  146.6140 N   0  0  0  0  0  0  0  0  0  0  0  0
  194.1750  174.1420  145.7520 O   0  0  0  0  0  0  0  0  0  0  0  0
  194.5020  173.0870  144.8890 C   0  0  0  0  0  2  0  0  0  0  0  0
  193.9930  169.8120  144.0260 C   0  0  0  0  0  2  0  0  0  0  0  0
  195.1070  170.9620  145.7810 C   0  0  0  0  0  2  0  0  0  0  0  0
  193.9860  171.8080  145.3820 N   0  0  0  0  0  0  0  0  0  0  0  0
  194.8470  169.5780  145.2400 C   0  0  0  0  0  2  0  0  0  0  0  0
  193.2820  171.1210  144.3010 C   0  0  0  0  0  2  0  0  0  0  0  0
  1 27  1  0  0  0  0
  1 26  1  6  0  0  0
  3 16  2  0  0  0  0
  4 18  1  0  0  0  0
  4 23  2  0  0  0  0
  5 11  1  1  0  0  0
  5 15  1  0  0  0  0
  6  7  1  0  0  0  0
  7  3  1  0  0  0  0
  8 12  1  0  0  0  0
  9 25  1  0  0  0  0
  9 27  1  0  0  0  0
 10 17  1  0  0  0  0
 11 20  1  0  0  0  0
 12 15  1  0  0  0  0
 13  9  2  0  0  0  0
 14  2  2  0  0  0  0
 15  4  1  0  0  0  0
 16  8  1  0  0  0  0
 17 28  1  1  0  0  0
 17 25  1  0  0  0  0
 18  1  1  0  0  0  0
 19  6  1  1  0  0  0
 19  3  1  0  0  0  0
 19  5  1  0  0  0  0
 20 13  1  0  0  0  0
 20 18  2  0  0  0  0
 21 26  2  0  0  0  0
 22 10  1  0  0  0  0
 23 21  1  0  0  0  0
 24 22  1  0  0  0  0
 24 13  1  0  0  0  0
 25 14  1  1  0  0  0
 27  2  1  0  0  0  0
 29 32  1  0  0  0  0
 29 28  1  0  0  0  0
 30 34  1  0  0  0  0
 30 33  1  0  0  0  0
 32 31  1  0  0  0  0
 33 31  1  0  0  0  0
 34 32  1  0  0  0  0
M  END
>  <MODEL>
5

>  <REMARK>
 VINA RESULT:      -7.9      1.042      1.561
  Name = 
  3 active torsions:
  status: ('A' for Active; 'I' for Inactive)
    1  A    between atoms: C_17  and  O_28
    2  A    between atoms: O_28  and  C_29
    3  A    between atoms: C_29  and  N_32
                            x       y       z     vdW  Elec       q    Type
                         _______ _______ _______ _____ _____    ______ ____

>  <TORSDO>
F 3

$$$$
=
 OpenBabel11112417533D

 34 41  0  0  1  0  0  0  0  0999 V2000
  191.8750  173.4970  141.9940 C   0  0  1  0  0  3  0  0  0  0  0  0
  189.3640  173.5010  142.5440 C   0  0  0  0  0  3  0  0  0  0  0  0
  196.3290  174.5750  144.9400 C   0  0  0  0  0  0  0  0  0  0  0  0
  194.3980  173.7160  142.2900 C   0  0  0  0  0  0  0  0  0  0  0  0
  195.4240  175.8860  142.9910 C   0  0  2  0  0  3  0  0  0  0  0  0
  194.8760  175.8670  145.4640 C   0  0  0  0  0  2  0  0  0  0  0  0
  195.3710  174.6560  146.0150 O   0  0  0  0  0  0  0  0  0  0  0  0
  197.8460  173.9610  143.2330 C   0  0  0  0  0  2  0  0  0  0  0  0
  190.5360  175.4200  142.8640 C   0  0  0  0  0  0  0  0  0  0  0  0
  189.7210  177.4300  144.8750 C   0  0  0  0  0  2  0  0  0  0  0  0
  194.1010  176.4260  142.8470 O   0  0  0  0  0  0  0  0  0  0  0  0
  196.8800  174.0050  142.0330 C   0  0  0  0  0  2  0  0  0  0  0  0
  191.6060  176.2420  142.8770 C   0  0  0  0  0  0  0  0  0  0  0  0
  188.4510  174.4440  142.7720 C   0  0  0  0  0  3  0  0  0  0  0  0
  195.5570  174.5550  142.3670 N   0  0  0  0  0  0  0  0  0  0  0  0
  197.1480  173.6860  144.4850 N   0  0  0  0  0  0  0  0  0  0  0  0
  188.7810  176.3030  144.4190 C   0  0  2  0  0  3  0  0  0  0  0  0
  193.0730  174.3340  142.3670 C   0  0  0  0  0  0  0  0  0  0  0  0
  195.9050  175.9230  144.4650 C   0  0  1  0  0  3  0  0  0  0  0  0
  192.9510  175.6370  142.6810 C   0  0  0  0  0  0  0  0  0  0  0  0
  193.3510  171.5520  142.3600 C   0  0  0  0  0  3  0  0  0  0  0  0
  190.2110  178.2760  143.7050 C   0  0  0  0  0  2  0  0  0  0  0  0
  194.5020  172.4170  142.2790 N   0  0  0  0  0  0  0  0  0  0  0  0
  191.5220  177.7350  143.1220 C   0  0  0  0  0  2  0  0  0  0  0  0
  189.0980  175.7820  143.0090 C   0  0  1  0  0  3  0  0  0  0  0  0
  192.1050  172.0400  142.2910 C   0  0  0  0  0  3  0  0  0  0  0  0
  190.6790  174.0300  142.6360 N   0  0  0  0  0  0  0  0  0  0  0  0
  187.4600  176.7550  144.4630 O   0  0  0  0  0  0  0  0  0  0  0  0
  187.1970  176.9710  145.8230 C   0  0  0  0  0  2  0  0  0  0  0  0
  184.5060  178.7550  144.6820 C   0  0  0  0  0  2  0  0  0  0  0  0
  185.2080  177.8740  146.7740 C   0  0  0  0  0  2  0  0  0  0  0  0
  186.4240  178.1970  146.0350 N   0  0  0  0  0  0  0  0  0  0  0  0
  184.0660  178.6040  146.1110 C   0  0  0  0  0  2  0  0  0  0  0  0
  186.0190  178.7440  144.7420 C   0  0  0  0  0  2  0  0  0  0  0  0
  1 26  1  1  0  0  0
  1 18  1  0  0  0  0
  1 27  1  0  0  0  0
  2 27  1  0  0  0  0
  2 14  2  0  0  0  0
  3  7  1  0  0  0  0
  4 18  1  0  0  0  0
  4 15  1  0  0  0  0
  5 11  1  1  0  0  0
  5 19  1  0  0  0  0
  6  7  1  0  0  0  0
  8 16  1  0  0  0  0
  9 13  2  0  0  0  0
  9 25  1  0  0  0  0
 12 15  1  0  0  0  0
 12  8  1  0  0  0  0
 13 24  1  0  0  0  0
 15  5  1  0  0  0  0
 16  3  2  0  0  0  0
 17 28  1  6  0  0  0
 17 10  1  0  0  0  0
 18 20  2  0  0  0  0
 19  3  1  0  0  0  0
 19  6  1  1  0  0  0
 20 11  1  0  0  0  0
 20 13  1  0  0  0  0
 22 10  1  0  0  0  0
 23  4  2  0  0  0  0
 23 21  1  0  0  0  0
 24 22  1  0  0  0  0
 25 14  1  1  0  0  0
 25 17  1  0  0  0  0
 26 21  2  0  0  0  0
 27  9  1  0  0  0  0
 28 29  1  0  0  0  0
 29 32  1  0  0  0  0
 30 34  1  0  0  0  0
 30 33  1  0  0  0  0
 32 31  1  0  0  0  0
 33 31  1  0  0  0  0
 34 32  1  0  0  0  0
M  END
>  <MODEL>
6

>  <REMARK>
 VINA RESULT:      -7.6      2.280      8.644
  Name = 
  3 active torsions:
  status: ('A' for Active; 'I' for Inactive)
    1  A    between atoms: C_17  and  O_28
    2  A    between atoms: O_28  and  C_29
    3  A    between atoms: C_29  and  N_32
                            x       y       z     vdW  Elec       q    Type
                         _______ _______ _______ _____ _____    ______ ____

>  <TORSDO>
F 3

$$$$
=
 OpenBabel11112417533D

 34 41  0  0  1  0  0  0  0  0999 V2000
  192.1940  175.6020  145.9300 C   0  0  1  0  0  3  0  0  0  0  0  0
  190.2190  177.1710  146.4240 C   0  0  0  0  0  3  0  0  0  0  0  0
  195.6900  175.2230  141.7680 C   0  0  0  0  0  0  0  0  0  0  0  0
  194.1830  174.5510  144.7290 C   0  0  0  0  0  0  0  0  0  0  0  0
  193.9280  173.5600  142.4480 C   0  0  2  0  0  3  0  0  0  0  0  0
  193.8650  175.6660  141.0440 C   0  0  0  0  0  2  0  0  0  0  0  0
  195.0240  176.4290  141.3420 O   0  0  0  0  0  0  0  0  0  0  0  0
  197.0140  173.5430  142.7770 C   0  0  0  0  0  2  0  0  0  0  0  0
  190.1650  175.9480  144.5120 C   0  0  0  0  0  0  0  0  0  0  0  0
  188.6890  176.8600  142.1170 C   0  0  0  0  0  2  0  0  0  0  0  0
  192.5240  173.8050  142.6250 O   0  0  0  0  0  0  0  0  0  0  0  0
  196.0160  173.0740  143.8540 C   0  0  0  0  0  2  0  0  0  0  0  0
  190.5870  175.0680  143.5800 C   0  0  0  0  0  0  0  0  0  0  0  0
  188.9840  177.3120  145.9460 C   0  0  0  0  0  3  0  0  0  0  0  0
  194.6800  173.6710  143.7140 N   0  0  0  0  0  0  0  0  0  0  0  0
  196.7840  174.9310  142.3900 N   0  0  0  0  0  0  0  0  0  0  0  0
  188.4740  177.4950  143.4990 C   0  0  2  0  0  3  0  0  0  0  0  0
  192.7680  174.9250  144.7100 C   0  0  0  0  0  0  0  0  0  0  0  0
  194.5250  174.4190  141.3030 C   0  0  1  0  0  3  0  0  0  0  0  0
  191.9940  174.5910  143.6610 C   0  0  0  0  0  0  0  0  0  0  0  0
  194.5350  176.1260  146.5130 C   0  0  0  0  0  3  0  0  0  0  0  0
  188.4440  175.3550  142.1330 C   0  0  0  0  0  2  0  0  0  0  0  0
  194.9860  175.1180  145.5850 N   0  0  0  0  0  0  0  0  0  0  0  0
  189.7280  174.5740  142.4330 C   0  0  0  0  0  2  0  0  0  0  0  0
  188.8080  176.5470  144.6610 C   0  0  1  0  0  3  0  0  0  0  0  0
  193.2340  176.4160  146.6500 C   0  0  0  0  0  3  0  0  0  0  0  0
  191.0170  176.3790  145.5580 N   0  0  0  0  0  0  0  0  0  0  0  0
  187.1490  177.9220  143.6120 O   0  0  0  0  0  0  0  0  0  0  0  0
  186.4270  176.7730  143.9660 C   0  0  0  0  0  2  0  0  0  0  0  0
  185.2020  178.0720  146.8890 C   0  0  0  0  0  2  0  0  0  0  0  0
  184.9580  178.5480  144.5740 C   0  0  0  0  0  2  0  0  0  0  0  0
  185.1910  177.1100  144.6760 N   0  0  0  0  0  0  0  0  0  0  0  0
  184.5530  179.0410  145.9410 C   0  0  0  0  0  2  0  0  0  0  0  0
  185.3430  176.7910  146.0940 C   0  0  0  0  0  2  0  0  0  0  0  0
  1 26  1  6  0  0  0
  3 16  2  0  0  0  0
  4 23  2  0  0  0  0
  5 11  1  1  0  0  0
  5 15  1  0  0  0  0
  6  7  1  0  0  0  0
  7  3  1  0  0  0  0
  8 12  1  0  0  0  0
  9 25  1  0  0  0  0
  9 27  1  0  0  0  0
 10 22  1  0  0  0  0
 10 17  1  0  0  0  0
 11 20  1  0  0  0  0
 13 20  1  0  0  0  0
 13  9  2  0  0  0  0
 14  2  2  0  0  0  0
 15 12  1  0  0  0  0
 15  4  1  0  0  0  0
 16  8  1  0  0  0  0
 17 28  1  1  0  0  0
 17 25  1  0  0  0  0
 18  4  1  0  0  0  0
 18  1  1  0  0  0  0
 19  6  1  1  0  0  0
 19  3  1  0  0  0  0
 19  5  1  0  0  0  0
 20 18  2  0  0  0  0
 21 26  2  0  0  0  0
 22 24  1  0  0  0  0
 23 21  1  0  0  0  0
 24 13  1  0  0  0  0
 25 14  1  1  0  0  0
 27  1  1  0  0  0  0
 27  2  1  0  0  0  0
 28 29  1  0  0  0  0
 29 32  1  0  0  0  0
 31 32  1  0  0  0  0
 31 33  1  0  0  0  0
 32 34  1  0  0  0  0
 33 30  1  0  0  0  0
 34 30  1  0  0  0  0
M  END
>  <MODEL>
7

>  <REMARK>
 VINA RESULT:      -7.4      2.117      8.111
  Name = 
  3 active torsions:
  status: ('A' for Active; 'I' for Inactive)
    1  A    between atoms: C_17  and  O_28
    2  A    between atoms: O_28  and  C_29
    3  A    between atoms: C_29  and  N_32
                            x       y       z     vdW  Elec       q    Type
                         _______ _______ _______ _____ _____    ______ ____

>  <TORSDO>
F 3

$$$$
=
 OpenBabel11112417533D

 34 41  0  0  1  0  0  0  0  0999 V2000
  190.4160  173.3610  141.6620 C   0  0  1  0  0  3  0  0  0  0  0  0
  188.1300  174.3920  142.2250 C   0  0  0  0  0  3  0  0  0  0  0  0
  194.7820  172.1250  144.6770 C   0  0  0  0  0  0  0  0  0  0  0  0
  192.7760  172.4430  141.9630 C   0  0  0  0  0  0  0  0  0  0  0  0
  194.6040  173.8800  142.8810 C   0  0  2  0  0  3  0  0  0  0  0  0
  194.0040  173.8580  145.3410 C   0  0  0  0  0  2  0  0  0  0  0  0
  193.9100  172.5050  145.7600 O   0  0  0  0  0  0  0  0  0  0  0  0
  195.9550  171.0860  142.9050 C   0  0  0  0  0  2  0  0  0  0  0  0
  189.9980  175.5780  142.7370 C   0  0  0  0  0  0  0  0  0  0  0  0
  190.0450  177.5380  144.9510 C   0  0  0  0  0  2  0  0  0  0  0  0
  193.6470  174.9480  142.8020 O   0  0  0  0  0  0  0  0  0  0  0  0
  195.1500  171.6580  141.7220 C   0  0  0  0  0  2  0  0  0  0  0  0
  191.3150  175.8540  142.8280 C   0  0  0  0  0  0  0  0  0  0  0  0
  187.7010  175.6090  142.5560 C   0  0  0  0  0  3  0  0  0  0  0  0
  194.1780  172.6880  142.1200 N   0  0  0  0  0  0  0  0  0  0  0  0
  195.1580  171.0180  144.1260 N   0  0  0  0  0  0  0  0  0  0  0  0
  188.7310  176.9760  144.3860 C   0  0  2  0  0  3  0  0  0  0  0  0
  191.8420  173.5600  142.1120 C   0  0  0  0  0  0  0  0  0  0  0  0
  194.9960  173.5620  144.3480 C   0  0  1  0  0  3  0  0  0  0  0  0
  192.2780  174.7510  142.5620 C   0  0  0  0  0  0  0  0  0  0  0  0
  190.9000  170.9450  141.8140 C   0  0  0  0  0  3  0  0  0  0  0  0
  190.8960  178.2000  143.8730 C   0  0  0  0  0  2  0  0  0  0  0  0
  192.3130  171.2330  141.8160 N   0  0  0  0  0  0  0  0  0  0  0  0
  191.8700  177.2060  143.2290 C   0  0  0  0  0  2  0  0  0  0  0  0
  188.8490  176.5080  142.9270 C   0  0  1  0  0  3  0  0  0  0  0  0
  189.9880  171.9260  141.8030 C   0  0  0  0  0  3  0  0  0  0  0  0
  189.5390  174.2910  142.3630 N   0  0  0  0  0  0  0  0  0  0  0  0
  187.7310  177.9450  144.4850 O   0  0  0  0  0  0  0  0  0  0  0  0
  187.0900  177.6800  145.7040 C   0  0  0  0  0  2  0  0  0  0  0  0
  184.2090  179.1370  144.5590 C   0  0  0  0  0  2  0  0  0  0  0  0
  184.8940  178.0420  146.5530 C   0  0  0  0  0  2  0  0  0  0  0  0
  186.0820  178.6960  146.0150 N   0  0  0  0  0  0  0  0  0  0  0  0
  183.6910  178.6650  145.8880 C   0  0  0  0  0  2  0  0  0  0  0  0
  185.6870  179.3800  144.7850 C   0  0  0  0  0  2  0  0  0  0  0  0
  1 26  1  1  0  0  0
  1 18  1  0  0  0  0
  1 27  1  0  0  0  0
  2 27  1  0  0  0  0
  2 14  2  0  0  0  0
  3  7  1  0  0  0  0
  4 18  1  0  0  0  0
  4 15  1  0  0  0  0
  5 11  1  1  0  0  0
  5 19  1  0  0  0  0
  6  7  1  0  0  0  0
  8 16  1  0  0  0  0
  9 13  2  0  0  0  0
  9 25  1  0  0  0  0
 12 15  1  0  0  0  0
 12  8  1  0  0  0  0
 13 24  1  0  0  0  0
 15  5  1  0  0  0  0
 16  3  2  0  0  0  0
 17 28  1  6  0  0  0
 17 10  1  0  0  0  0
 18 20  2  0  0  0  0
 19  3  1  0  0  0  0
 19  6  1  1  0  0  0
 20 11  1  0  0  0  0
 20 13  1  0  0  0  0
 21 23  1  0  0  0  0
 22 10  1  0  0  0  0
 23  4  2  0  0  0  0
 24 22  1  0  0  0  0
 25 14  1  1  0  0  0
 25 17  1  0  0  0  0
 26 21  2  0  0  0  0
 27  9  1  0  0  0  0
 28 29  1  0  0  0  0
 29 32  1  0  0  0  0
 30 34  1  0  0  0  0
 30 33  1  0  0  0  0
 32 31  1  0  0  0  0
 33 31  1  0  0  0  0
 34 32  1  0  0  0  0
M  END
>  <MODEL>
8

>  <REMARK>
 VINA RESULT:      -7.3      2.515      8.587
  Name = 
  3 active torsions:
  status: ('A' for Active; 'I' for Inactive)
    1  A    between atoms: C_17  and  O_28
    2  A    between atoms: O_28  and  C_29
    3  A    between atoms: C_29  and  N_32
                            x       y       z     vdW  Elec       q    Type
                         _______ _______ _______ _____ _____    ______ ____

>  <TORSDO>
F 3

$$$$
=
 OpenBabel11112417533D

 34 41  0  0  1  0  0  0  0  0999 V2000
  192.9590  174.6300  145.8510 C   0  0  1  0  0  3  0  0  0  0  0  0
  191.1600  176.3840  145.3120 C   0  0  0  0  0  3  0  0  0  0  0  0
  196.1150  171.4620  142.7370 C   0  0  0  0  0  0  0  0  0  0  0  0
  194.7670  172.8630  145.5140 C   0  0  0  0  0  0  0  0  0  0  0  0
  194.2730  170.7390  144.2920 C   0  0  2  0  0  3  0  0  0  0  0  0
  194.2860  171.5770  141.9030 C   0  0  0  0  0  2  0  0  0  0  0  0
  195.5220  172.2360  141.6750 O   0  0  0  0  0  0  0  0  0  0  0  0
  197.3620  170.5900  144.5470 C   0  0  0  0  0  2  0  0  0  0  0  0
  190.8720  174.2750  144.5230 C   0  0  0  0  0  0  0  0  0  0  0  0
  189.3140  173.7250  142.0710 C   0  0  0  0  0  2  0  0  0  0  0  0
  192.9090  171.1900  144.2940 O   0  0  0  0  0  0  0  0  0  0  0  0
  196.4070  170.9690  145.6950 C   0  0  0  0  0  2  0  0  0  0  0  0
  191.1550  172.9730  144.3060 C   0  0  0  0  0  0  0  0  0  0  0  0
  189.9110  176.3430  144.8530 C   0  0  0  0  0  3  0  0  0  0  0  0
  195.1180  171.5030  145.2320 N   0  0  0  0  0  0  0  0  0  0  0  0
  197.2220  171.4850  143.4030 N   0  0  0  0  0  0  0  0  0  0  0  0
  189.2480  175.0800  142.7930 C   0  0  2  0  0  3  0  0  0  0  0  0
  193.3890  173.3010  145.2820 C   0  0  0  0  0  0  0  0  0  0  0  0
  194.8570  170.6710  142.8570 C   0  0  1  0  0  3  0  0  0  0  0  0
  192.5200  172.4910  144.6500 C   0  0  0  0  0  0  0  0  0  0  0  0
  195.3710  175.1420  145.9880 C   0  0  0  0  0  3  0  0  0  0  0  0
  188.9470  172.5660  142.9920 C   0  0  0  0  0  2  0  0  0  0  0  0
  195.6710  173.7390  145.8520 N   0  0  0  0  0  0  0  0  0  0  0  0
  190.1810  171.9870  143.6940 C   0  0  0  0  0  2  0  0  0  0  0  0
  189.5830  174.9860  144.2900 C   0  0  1  0  0  3  0  0  0  0  0  0
  194.1110  175.5950  145.9300 C   0  0  0  0  0  3  0  0  0  0  0  0
  191.8280  175.1510  145.0940 N   0  0  0  0  0  0  0  0  0  0  0  0
  187.9740  175.6290  142.6340 O   0  0  0  0  0  0  0  0  0  0  0  0
  187.9640  176.1470  141.3310 C   0  0  0  0  0  2  0  0  0  0  0  0
  185.2430  178.2100  141.5980 C   0  0  0  0  0  2  0  0  0  0  0  0
  187.3460  178.0080  142.6850 C   0  0  0  0  0  2  0  0  0  0  0  0
  187.5460  177.5510  141.3130 N   0  0  0  0  0  0  0  0  0  0  0  0
  186.0580  178.7920  142.7190 C   0  0  0  0  0  2  0  0  0  0  0  0
  186.2640  177.6670  140.6210 C   0  0  0  0  0  2  0  0  0  0  0  0
  1 26  1  6  0  0  0
  3 19  1  0  0  0  0
  3 16  2  0  0  0  0
  4 23  2  0  0  0  0
  5 11  1  6  0  0  0
  5 15  1  0  0  0  0
  7  6  1  0  0  0  0
  7  3  1  0  0  0  0
  8 12  1  0  0  0  0
  9 27  1  0  0  0  0
 10 17  1  0  0  0  0
 10 22  1  0  0  0  0
 11 20  1  0  0  0  0
 13  9  2  0  0  0  0
 13 20  1  0  0  0  0
 14  2  2  0  0  0  0
 15  4  1  0  0  0  0
 15 12  1  0  0  0  0
 16  8  1  0  0  0  0
 17 28  1  1  0  0  0
 17 25  1  0  0  0  0
 18  4  1  0  0  0  0
 18  1  1  0  0  0  0
 19  6  1  6  0  0  0
 19  5  1  0  0  0  0
 20 18  2  0  0  0  0
 22 24  1  0  0  0  0
 23 21  1  0  0  0  0
 24 13  1  0  0  0  0
 25  9  1  0  0  0  0
 25 14  1  6  0  0  0
 26 21  2  0  0  0  0
 27  2  1  0  0  0  0
 27  1  1  0  0  0  0
 29 28  1  0  0  0  0
 30 33  1  0  0  0  0
 31 33  1  0  0  0  0
 32 29  1  0  0  0  0
 32 31  1  0  0  0  0
 34 32  1  0  0  0  0
 34 30  1  0  0  0  0
M  END
>  <MODEL>
9

>  <REMARK>
 VINA RESULT:      -7.0      2.289      8.723
  Name = 
  3 active torsions:
  status: ('A' for Active; 'I' for Inactive)
    1  A    between atoms: C_17  and  O_28
    2  A    between atoms: O_28  and  C_29
    3  A    between atoms: C_29  and  N_32
                            x       y       z     vdW  Elec       q    Type
                         _______ _______ _______ _____ _____    ______ ____

>  <TORSDO>
F 3

$$$$
