=
 OpenBabel11112417513D

 34 41  0  0  1  0  0  0  0  0999 V2000
  189.7770  176.7270  144.8060 C   0  0  0  0  0  0  0  0  0  0  0  0
  191.8470  175.4700  144.1270 C   0  0  0  0  0  2  0  0  0  0  0  0
  184.4520  179.1770  144.0090 C   0  0  2  0  0  3  0  0  0  0  0  0
  187.5140  176.9360  145.6990 C   0  0  0  0  0  0  0  0  0  0  0  0
  185.4960  176.7430  144.1270 C   0  0  1  0  0  3  0  0  0  0  0  0
  186.5310  178.9510  143.6710 O   0  0  0  0  0  0  0  0  0  0  0  0
  185.7150  179.9990  144.1350 C   0  0  0  0  0  2  0  0  0  0  0  0
  184.7900  178.6780  146.5160 C   0  0  0  0  0  2  0  0  0  0  0  0
  190.1680  175.8490  142.3970 C   0  0  2  0  0  3  0  0  0  0  0  0
  189.5680  173.2190  140.6990 C   0  0  0  0  0  2  0  0  0  0  0  0
  186.3650  175.8130  143.2860 C   0  0  0  0  0  2  0  0  0  0  0  0
  185.1070  177.2070  146.6610 C   0  0  0  0  0  2  0  0  0  0  0  0
  188.7320  175.2970  142.5190 C   0  0  1  0  0  3  0  0  0  0  0  0
  192.3860  174.8800  142.8430 C   0  0  0  0  0  2  0  0  0  0  0  0
  186.0320  176.6870  145.5610 C   0  0  2  0  0  3  0  0  0  0  0  0
  183.8050  178.8890  145.3730 C   0  0  0  0  0  2  0  0  0  0  0  0
  190.7040  173.3630  141.7290 C   0  0  1  0  0  3  0  0  0  0  0  0
  188.3820  176.6140  144.6250 C   0  0  0  0  0  0  0  0  0  0  0  0
  185.4050  178.1380  143.4570 C   0  0  2  0  0  3  0  0  0  0  0  0
  187.8300  176.2890  143.2500 C   0  0  2  0  0  3  0  0  0  0  0  0
  189.4240  177.4770  147.0900 C   0  0  0  0  0  3  0  0  0  0  0  0
  189.1220  174.4660  140.2320 O   0  0  0  0  0  0  0  0  0  0  0  0
  188.0470  177.3450  146.9270 C   0  0  0  0  0  3  0  0  0  0  0  0
  188.1490  174.9290  141.1370 C   0  0  0  0  0  2  0  0  0  0  0  0
  191.2060  174.8180  141.8910 C   0  0  1  0  0  3  0  0  0  0  0  0
  190.2810  177.1740  146.0350 C   0  0  0  0  0  3  0  0  0  0  0  0
  190.7530  176.4270  143.6930 C   0  0  1  0  0  3  0  0  0  0  0  0
  190.2930  172.8320  142.9560 O   0  0  0  0  0  0  0  0  0  0  0  0
  190.4890  171.4530  142.8410 C   0  0  0  0  0  2  0  0  0  0  0  0
  193.6640  170.6090  144.4240 C   0  0  0  0  0  2  0  0  0  0  0  0
  192.0590  169.7400  142.6040 C   0  0  0  0  0  2  0  0  0  0  0  0
  191.9110  171.1580  142.8870 N   0  0  0  0  0  0  0  0  0  0  0  0
  193.5920  169.1360  143.3720 S   0  0  0  0  0  0  0  0  0  0  0  0
  192.3510  171.3350  144.2590 C   0  0  0  0  0  2  0  0  0  0  0  0
  1 26  1  0  0  0  0
  3  7  1  1  0  0  0
  3 16  1  0  0  0  0
  4 23  2  0  0  0  0
  5 11  1  6  0  0  0
  5 15  1  0  0  0  0
  6  7  1  0  0  0  0
  8 12  1  0  0  0  0
  9 13  1  0  0  0  0
  9 27  1  0  0  0  0
 10 17  1  0  0  0  0
 13 20  1  0  0  0  0
 14  2  1  0  0  0  0
 15  4  1  0  0  0  0
 15 12  1  0  0  0  0
 16  8  1  0  0  0  0
 17 25  1  0  0  0  0
 17 28  1  0  0  0  0
 18  1  2  0  0  0  0
 18  4  1  0  0  0  0
 19  6  1  0  0  0  0
 19  3  1  0  0  0  0
 19  5  1  0  0  0  0
 20 11  1  0  0  0  0
 20 18  1  0  0  0  0
 22 10  1  0  0  0  0
 22 24  1  0  0  0  0
 23 21  1  0  0  0  0
 24 13  1  0  0  0  0
 25  9  1  0  0  0  0
 25 14  1  0  0  0  0
 26 21  2  0  0  0  0
 27  2  1  0  0  0  0
 27  1  1  0  0  0  0
 29 32  1  0  0  0  0
 29 28  1  0  0  0  0
 31 32  1  0  0  0  0
 31 33  1  0  0  0  0
 32 34  1  0  0  0  0
 33 30  1  0  0  0  0
 34 30  1  0  0  0  0
M  END
>  <MODEL>
1

>  <REMARK>
 VINA RESULT:      -8.9      0.000      0.000
  Name = 
  3 active torsions:
  status: ('A' for Active; 'I' for Inactive)
    1  A    between atoms: C_17  and  O_28
    2  A    between atoms: O_28  and  C_29
    3  A    between atoms: C_29  and  N_32
                            x       y       z     vdW  Elec       q    Type
                         _______ _______ _______ _____ _____    ______ ____

>  <TORSDO>
F 3

$$$$
=
 OpenBabel11112417513D

 34 41  0  0  1  0  0  0  0  0999 V2000
  189.8090  173.8770  143.6740 C   0  0  0  0  0  0  0  0  0  0  0  0
  191.8610  172.4230  143.6330 C   0  0  0  0  0  2  0  0  0  0  0  0
  186.2860  178.1750  145.7030 C   0  0  2  0  0  3  0  0  0  0  0  0
  188.4710  175.8260  143.0630 C   0  0  0  0  0  0  0  0  0  0  0  0
  188.6210  177.9700  144.4630 C   0  0  1  0  0  3  0  0  0  0  0  0
  187.3350  176.3380  145.8170 O   0  0  0  0  0  0  0  0  0  0  0  0
  185.9810  176.7090  145.9070 C   0  0  0  0  0  2  0  0  0  0  0  0
  185.7300  177.7190  143.2260 C   0  0  0  0  0  2  0  0  0  0  0  0
  191.7190  174.0820  145.4160 C   0  0  2  0  0  3  0  0  0  0  0  0
  194.4420  175.7010  145.7770 C   0  0  0  0  0  2  0  0  0  0  0  0
  190.0590  177.5570  144.7610 C   0  0  0  0  0  2  0  0  0  0  0  0
  187.0020  177.8820  142.4240 C   0  0  0  0  0  2  0  0  0  0  0  0
  191.6340  175.5950  145.1190 C   0  0  1  0  0  3  0  0  0  0  0  0
  193.0940  172.2620  144.4920 C   0  0  0  0  0  2  0  0  0  0  0  0
  188.2290  177.3140  143.1360 C   0  0  2  0  0  3  0  0  0  0  0  0
  185.7130  178.7130  144.3820 C   0  0  0  0  0  2  0  0  0  0  0  0
  194.2640  174.4660  144.8760 C   0  0  1  0  0  3  0  0  0  0  0  0
  189.5020  175.2440  143.8420 C   0  0  0  0  0  0  0  0  0  0  0  0
  187.7190  177.6840  145.6900 C   0  0  2  0  0  3  0  0  0  0  0  0
  190.1810  176.0320  144.9480 C   0  0  2  0  0  3  0  0  0  0  0  0
  188.0720  173.6910  141.9860 C   0  0  0  0  0  3  0  0  0  0  0  0
  193.4520  175.7720  146.7720 O   0  0  0  0  0  0  0  0  0  0  0  0
  187.7810  175.0460  142.1290 C   0  0  0  0  0  3  0  0  0  0  0  0
  192.3400  176.4270  146.2120 C   0  0  0  0  0  2  0  0  0  0  0  0
  193.1540  173.5040  145.3630 C   0  0  1  0  0  3  0  0  0  0  0  0
  189.0760  173.1110  142.7570 C   0  0  0  0  0  3  0  0  0  0  0  0
  190.8770  173.1910  144.4940 C   0  0  1  0  0  3  0  0  0  0  0  0
  194.0330  174.8770  143.5590 O   0  0  0  0  0  0  0  0  0  0  0  0
  194.8450  176.0000  143.3790 C   0  0  0  0  0  2  0  0  0  0  0  0
  196.3440  175.6260  140.0770 C   0  0  0  0  0  2  0  0  0  0  0  0
  194.0650  175.4060  141.2600 C   0  0  0  0  0  2  0  0  0  0  0  0
  195.0080  176.2630  141.9600 N   0  0  0  0  0  0  0  0  0  0  0  0
  194.6900  175.0760  139.5850 S   0  0  0  0  0  0  0  0  0  0  0  0
  196.3270  175.7940  141.5770 C   0  0  0  0  0  2  0  0  0  0  0  0
  1 18  1  0  0  0  0
  1 27  1  0  0  0  0
  2 14  1  0  0  0  0
  2 27  1  0  0  0  0
  3 16  1  6  0  0  0
  3  7  1  0  0  0  0
  4 15  1  0  0  0  0
  4 18  2  0  0  0  0
  5 11  1  1  0  0  0
  5 19  1  0  0  0  0
  6  7  1  0  0  0  0
  8 16  1  0  0  0  0
 10 22  1  0  0  0  0
 11 20  1  0  0  0  0
 12 15  1  0  0  0  0
 12  8  1  0  0  0  0
 13  9  1  0  0  0  0
 13 24  1  0  0  0  0
 14 25  1  0  0  0  0
 15  5  1  0  0  0  0
 17 25  1  0  0  0  0
 17 10  1  0  0  0  0
 18 20  1  0  0  0  0
 19  3  1  0  0  0  0
 19  6  1  0  0  0  0
 20 13  1  0  0  0  0
 21 23  2  0  0  0  0
 21 26  1  0  0  0  0
 23  4  1  0  0  0  0
 24 22  1  0  0  0  0
 25  9  1  0  0  0  0
 26  1  2  0  0  0  0
 27  9  1  0  0  0  0
 28 17  1  0  0  0  0
 29 28  1  0  0  0  0
 30 34  1  0  0  0  0
 31 32  1  0  0  0  0
 32 29  1  0  0  0  0
 33 30  1  0  0  0  0
 33 31  1  0  0  0  0
 34 32  1  0  0  0  0
M  END
>  <MODEL>
2

>  <REMARK>
 VINA RESULT:      -8.6      2.847      4.848
  Name = 
  3 active torsions:
  status: ('A' for Active; 'I' for Inactive)
    1  A    between atoms: C_17  and  O_28
    2  A    between atoms: O_28  and  C_29
    3  A    between atoms: C_29  and  N_32
                            x       y       z     vdW  Elec       q    Type
                         _______ _______ _______ _____ _____    ______ ____

>  <TORSDO>
F 3

$$$$
=
 OpenBabel11112417513D

 34 41  0  0  1  0  0  0  0  0999 V2000
  189.4460  174.3080  143.8080 C   0  0  0  0  0  0  0  0  0  0  0  0
  191.6040  173.0160  143.7450 C   0  0  0  0  0  2  0  0  0  0  0  0
  185.4930  178.0950  146.0500 C   0  0  2  0  0  3  0  0  0  0  0  0
  187.9970  176.2120  143.3230 C   0  0  0  0  0  0  0  0  0  0  0  0
  187.9020  178.1940  144.9480 C   0  0  1  0  0  3  0  0  0  0  0  0
  186.6730  176.3350  146.0370 O   0  0  0  0  0  0  0  0  0  0  0  0
  185.2910  176.5960  146.0790 C   0  0  0  0  0  2  0  0  0  0  0  0
  185.1130  177.8760  143.5090 C   0  0  0  0  0  2  0  0  0  0  0  0
  191.2350  174.4550  145.6810 C   0  0  2  0  0  3  0  0  0  0  0  0
  193.7990  176.2130  146.3850 C   0  0  0  0  0  2  0  0  0  0  0  0
  189.3490  177.8540  145.2920 C   0  0  0  0  0  2  0  0  0  0  0  0
  186.4120  178.2160  142.8120 C   0  0  0  0  0  2  0  0  0  0  0  0
  191.0490  175.9810  145.5400 C   0  0  1  0  0  3  0  0  0  0  0  0
  192.7960  172.8500  144.6600 C   0  0  0  0  0  2  0  0  0  0  0  0
  187.6370  177.6620  143.5360 C   0  0  2  0  0  3  0  0  0  0  0  0
  184.9550  178.7320  144.7600 C   0  0  0  0  0  2  0  0  0  0  0  0
  193.7680  175.0750  145.3490 C   0  0  1  0  0  3  0  0  0  0  0  0
  189.0260  175.6230  144.1000 C   0  0  0  0  0  0  0  0  0  0  0  0
  186.9580  177.7100  146.0780 C   0  0  2  0  0  3  0  0  0  0  0  0
  189.5780  176.3300  145.3240 C   0  0  2  0  0  3  0  0  0  0  0  0
  187.8260  174.1860  142.0020 C   0  0  0  0  0  3  0  0  0  0  0  0
  192.7530  176.1040  147.3160 O   0  0  0  0  0  0  0  0  0  0  0  0
  187.4230  175.4930  142.2680 C   0  0  0  0  0  3  0  0  0  0  0  0
  191.6260  176.7360  146.7580 C   0  0  0  0  0  2  0  0  0  0  0  0
  192.7110  173.9890  145.6590 C   0  0  1  0  0  3  0  0  0  0  0  0
  188.8280  173.5980  142.7700 C   0  0  0  0  0  3  0  0  0  0  0  0
  190.5170  173.6130  144.6180 C   0  0  1  0  0  3  0  0  0  0  0  0
  193.5800  175.6120  144.0700 O   0  0  0  0  0  0  0  0  0  0  0  0
  194.7860  176.2470  143.7600 C   0  0  0  0  0  2  0  0  0  0  0  0
  196.4570  174.1850  141.2590 C   0  0  0  0  0  2  0  0  0  0  0  0
  196.9900  175.9740  143.0370 C   0  0  0  0  0  2  0  0  0  0  0  0
  195.7420  175.2670  143.2730 N   0  0  0  0  0  0  0  0  0  0  0  0
  197.9410  175.0930  141.7630 S   0  0  0  0  0  0  0  0  0  0  0  0
  195.2870  174.8230  141.9680 C   0  0  0  0  0  2  0  0  0  0  0  0
  1 18  1  0  0  0  0
  1 27  1  0  0  0  0
  2 27  1  0  0  0  0
  2 14  1  0  0  0  0
  3 16  1  6  0  0  0
  3 19  1  0  0  0  0
  3  7  1  0  0  0  0
  4 15  1  0  0  0  0
  4 18  2  0  0  0  0
  5 11  1  1  0  0  0
  5 19  1  0  0  0  0
  6 19  1  0  0  0  0
  6  7  1  0  0  0  0
  8 16  1  0  0  0  0
 10 22  1  0  0  0  0
 11 20  1  0  0  0  0
 12  8  1  0  0  0  0
 12 15  1  0  0  0  0
 13  9  1  0  0  0  0
 13 24  1  0  0  0  0
 14 25  1  0  0  0  0
 15  5  1  0  0  0  0
 17 25  1  0  0  0  0
 17 10  1  0  0  0  0
 18 20  1  0  0  0  0
 20 13  1  0  0  0  0
 21 23  2  0  0  0  0
 21 26  1  0  0  0  0
 23  4  1  0  0  0  0
 24 22  1  0  0  0  0
 25  9  1  0  0  0  0
 26  1  2  0  0  0  0
 27  9  1  0  0  0  0
 28 17  1  0  0  0  0
 29 28  1  0  0  0  0
 30 33  1  0  0  0  0
 30 34  1  0  0  0  0
 31 32  1  0  0  0  0
 32 29  1  0  0  0  0
 33 31  1  0  0  0  0
 34 32  1  0  0  0  0
M  END
>  <MODEL>
3

>  <REMARK>
 VINA RESULT:      -8.5      2.868      4.715
  Name = 
  3 active torsions:
  status: ('A' for Active; 'I' for Inactive)
    1  A    between atoms: C_17  and  O_28
    2  A    between atoms: O_28  and  C_29
    3  A    between atoms: C_29  and  N_32
                            x       y       z     vdW  Elec       q    Type
                         _______ _______ _______ _____ _____    ______ ____

>  <TORSDO>
F 3

$$$$
=
 OpenBabel11112417513D

 34 41  0  0  1  0  0  0  0  0999 V2000
  191.0900  173.5860  144.2410 C   0  0  0  0  0  0  0  0  0  0  0  0
  193.3520  172.4940  144.3740 C   0  0  0  0  0  2  0  0  0  0  0  0
  187.0750  177.8130  145.2480 C   0  0  2  0  0  3  0  0  0  0  0  0
  189.3790  175.0060  143.2310 C   0  0  0  0  0  0  0  0  0  0  0  0
  189.2830  177.5020  143.8120 C   0  0  1  0  0  3  0  0  0  0  0  0
  188.4360  176.2860  145.8010 O   0  0  0  0  0  0  0  0  0  0  0  0
  187.0530  176.4820  145.9640 C   0  0  0  0  0  2  0  0  0  0  0  0
  186.3770  176.4560  143.1690 C   0  0  0  0  0  2  0  0  0  0  0  0
  193.0900  174.6340  145.5150 C   0  0  2  0  0  3  0  0  0  0  0  0
  195.5080  176.6240  144.9190 C   0  0  0  0  0  2  0  0  0  0  0  0
  190.7920  177.4130  144.0130 C   0  0  0  0  0  2  0  0  0  0  0  0
  187.5200  176.4980  142.1790 C   0  0  0  0  0  2  0  0  0  0  0  0
  192.7140  175.9240  144.7550 C   0  0  1  0  0  3  0  0  0  0  0  0
  194.6700  172.8060  145.0460 C   0  0  0  0  0  2  0  0  0  0  0  0
  188.8880  176.3800  142.8460 C   0  0  2  0  0  3  0  0  0  0  0  0
  186.2950  177.7780  143.9240 C   0  0  0  0  0  2  0  0  0  0  0  0
  195.4660  175.1410  144.5090 C   0  0  1  0  0  3  0  0  0  0  0  0
  190.5660  174.8730  143.9950 C   0  0  0  0  0  0  0  0  0  0  0  0
  188.5640  177.5420  145.1850 C   0  0  2  0  0  3  0  0  0  0  0  0
  191.1970  176.0780  144.6680 C   0  0  2  0  0  3  0  0  0  0  0  0
  189.2610  172.5970  142.9830 C   0  0  0  0  0  3  0  0  0  0  0  0
  194.6200  176.9040  145.9700 O   0  0  0  0  0  0  0  0  0  0  0  0
  188.7520  173.8660  142.7160 C   0  0  0  0  0  3  0  0  0  0  0  0
  193.3630  177.1700  145.3980 C   0  0  0  0  0  2  0  0  0  0  0  0
  194.5930  174.2690  145.4430 C   0  0  1  0  0  3  0  0  0  0  0  0
  190.4200  172.4600  143.7440 C   0  0  0  0  0  3  0  0  0  0  0  0
  192.3340  173.3750  145.0720 C   0  0  1  0  0  3  0  0  0  0  0  0
  195.0440  175.0350  143.1790 O   0  0  0  0  0  0  0  0  0  0  0  0
  195.5670  176.1620  142.5390 C   0  0  0  0  0  2  0  0  0  0  0  0
  195.8410  174.9730  139.1030 C   0  0  0  0  0  2  0  0  0  0  0  0
  194.0950  175.2340  140.9810 C   0  0  0  0  0  2  0  0  0  0  0  0
  195.2440  176.1120  141.1230 N   0  0  0  0  0  0  0  0  0  0  0  0
  194.1030  174.5080  139.3140 S   0  0  0  0  0  0  0  0  0  0  0  0
  196.3400  175.4430  140.4480 C   0  0  0  0  0  2  0  0  0  0  0  0
  1 27  1  0  0  0  0
  2 14  1  0  0  0  0
  2 27  1  0  0  0  0
  3 16  1  6  0  0  0
  3  7  1  0  0  0  0
  4 18  2  0  0  0  0
  5 11  1  1  0  0  0
  5 19  1  0  0  0  0
  6  7  1  0  0  0  0
  8 16  1  0  0  0  0
 10 22  1  0  0  0  0
 11 20  1  0  0  0  0
 12 15  1  0  0  0  0
 12  8  1  0  0  0  0
 13 24  1  0  0  0  0
 13  9  1  0  0  0  0
 14 25  1  0  0  0  0
 15  4  1  0  0  0  0
 15  5  1  0  0  0  0
 17 10  1  0  0  0  0
 17 25  1  0  0  0  0
 18  1  1  0  0  0  0
 18 20  1  0  0  0  0
 19  3  1  0  0  0  0
 19  6  1  0  0  0  0
 20 13  1  0  0  0  0
 21 26  1  0  0  0  0
 23 21  2  0  0  0  0
 23  4  1  0  0  0  0
 24 22  1  0  0  0  0
 25  9  1  0  0  0  0
 26  1  2  0  0  0  0
 27  9  1  0  0  0  0
 28 17  1  0  0  0  0
 29 28  1  0  0  0  0
 30 33  1  0  0  0  0
 30 34  1  0  0  0  0
 31 32  1  0  0  0  0
 32 29  1  0  0  0  0
 33 31  1  0  0  0  0
 34 32  1  0  0  0  0
M  END
>  <MODEL>
4

>  <REMARK>
 VINA RESULT:      -8.0      3.099      5.225
  Name = 
  3 active torsions:
  status: ('A' for Active; 'I' for Inactive)
    1  A    between atoms: C_17  and  O_28
    2  A    between atoms: O_28  and  C_29
    3  A    between atoms: C_29  and  N_32
                            x       y       z     vdW  Elec       q    Type
                         _______ _______ _______ _____ _____    ______ ____

>  <TORSDO>
F 3

$$$$
=
 OpenBabel11112417513D

 34 41  0  0  1  0  0  0  0  0999 V2000
  191.0430  173.2660  143.0100 C   0  0  0  0  0  0  0  0  0  0  0  0
  188.5630  173.2570  142.5910 C   0  0  0  0  0  2  0  0  0  0  0  0
  196.4840  175.5860  143.1270 C   0  0  2  0  0  3  0  0  0  0  0  0
  193.0550  173.5890  144.3560 C   0  0  0  0  0  0  0  0  0  0  0  0
  194.1910  175.8880  144.4250 C   0  0  1  0  0  3  0  0  0  0  0  0
  194.6990  174.9210  142.1980 O   0  0  0  0  0  0  0  0  0  0  0  0
  196.0570  174.5650  142.0980 C   0  0  0  0  0  2  0  0  0  0  0  0
  196.3600  173.6280  144.8000 C   0  0  0  0  0  2  0  0  0  0  0  0
  189.7700  175.3020  142.0300 C   0  0  2  0  0  3  0  0  0  0  0  0
  188.2850  177.9130  143.0960 C   0  0  0  0  0  2  0  0  0  0  0  0
  192.8000  176.4730  144.1990 C   0  0  0  0  0  2  0  0  0  0  0  0
  195.2260  173.9060  145.7620 C   0  0  0  0  0  2  0  0  0  0  0  0
  190.5400  176.1140  143.0930 C   0  0  1  0  0  3  0  0  0  0  0  0
  187.5570  174.2260  142.0130 C   0  0  0  0  0  2  0  0  0  0  0  0
  194.0030  174.5150  145.0780 C   0  0  2  0  0  3  0  0  0  0  0  0
  197.0380  174.9340  144.4030 C   0  0  0  0  0  2  0  0  0  0  0  0
  187.6930  176.4920  143.1180 C   0  0  1  0  0  3  0  0  0  0  0  0
  192.0030  174.1320  143.5760 C   0  0  0  0  0  0  0  0  0  0  0  0
  195.0120  175.9420  143.1110 C   0  0  2  0  0  3  0  0  0  0  0  0
  191.9760  175.6090  143.2260 C   0  0  2  0  0  3  0  0  0  0  0  0
  192.1850  171.3570  143.9870 C   0  0  0  0  0  3  0  0  0  0  0  0
  189.3200  178.0370  142.1540 O   0  0  0  0  0  0  0  0  0  0  0  0
  193.1210  172.2080  144.5690 C   0  0  0  0  0  3  0  0  0  0  0  0
  190.5100  177.6260  142.7830 C   0  0  0  0  0  2  0  0  0  0  0  0
  188.2480  175.5780  141.9990 C   0  0  1  0  0  3  0  0  0  0  0  0
  191.1560  171.8830  143.2090 C   0  0  0  0  0  3  0  0  0  0  0  0
  189.9150  173.7790  142.1450 C   0  0  1  0  0  3  0  0  0  0  0  0
  187.8920  175.9220  144.3800 O   0  0  0  0  0  0  0  0  0  0  0  0
  187.7770  176.9830  145.2820 C   0  0  0  0  0  2  0  0  0  0  0  0
  190.0440  175.0810  147.4130 C   0  0  0  0  0  2  0  0  0  0  0  0
  189.6880  177.4770  146.5300 C   0  0  0  0  0  2  0  0  0  0  0  0
  188.4860  176.6600  146.5080 N   0  0  0  0  0  0  0  0  0  0  0  0
  190.9580  176.6410  147.5270 S   0  0  0  0  0  0  0  0  0  0  0  0
  188.9430  175.2870  146.4000 C   0  0  0  0  0  2  0  0  0  0  0  0
  1 26  2  0  0  0  0
  1 18  1  0  0  0  0
  3  7  1  6  0  0  0
  3 16  1  0  0  0  0
  4 23  1  0  0  0  0
  4 15  1  0  0  0  0
  5 11  1  6  0  0  0
  5 15  1  0  0  0  0
  6 19  1  0  0  0  0
  7  6  1  0  0  0  0
  8 12  1  0  0  0  0
  9 27  1  0  0  0  0
  9 13  1  0  0  0  0
 10 17  1  0  0  0  0
 13 20  1  0  0  0  0
 14  2  1  0  0  0  0
 15 12  1  0  0  0  0
 16  8  1  0  0  0  0
 17 28  1  0  0  0  0
 18  4  2  0  0  0  0
 19  3  1  0  0  0  0
 19  5  1  0  0  0  0
 20 18  1  0  0  0  0
 20 11  1  0  0  0  0
 21 23  2  0  0  0  0
 22 24  1  0  0  0  0
 22 10  1  0  0  0  0
 24 13  1  0  0  0  0
 25 14  1  0  0  0  0
 25  9  1  0  0  0  0
 25 17  1  0  0  0  0
 26 21  1  0  0  0  0
 27  2  1  0  0  0  0
 27  1  1  0  0  0  0
 28 29  1  0  0  0  0
 29 32  1  0  0  0  0
 30 33  1  0  0  0  0
 31 33  1  0  0  0  0
 32 31  1  0  0  0  0
 34 32  1  0  0  0  0
 34 30  1  0  0  0  0
M  END
>  <MODEL>
5

>  <REMARK>
 VINA RESULT:      -7.7      3.107      7.447
  Name = 
  3 active torsions:
  status: ('A' for Active; 'I' for Inactive)
    1  A    between atoms: C_17  and  O_28
    2  A    between atoms: O_28  and  C_29
    3  A    between atoms: C_29  and  N_32
                            x       y       z     vdW  Elec       q    Type
                         _______ _______ _______ _____ _____    ______ ____

>  <TORSDO>
F 3

$$$$
=
 OpenBabel11112417513D

 34 41  0  0  1  0  0  0  0  0999 V2000
  192.3490  175.7490  145.3770 C   0  0  0  0  0  0  0  0  0  0  0  0
  189.9480  176.2530  145.9310 C   0  0  0  0  0  2  0  0  0  0  0  0
  196.7720  173.1040  142.4720 C   0  0  2  0  0  3  0  0  0  0  0  0
  194.4640  176.0910  144.2050 C   0  0  0  0  0  0  0  0  0  0  0  0
  194.8940  174.9070  141.9710 C   0  0  1  0  0  3  0  0  0  0  0  0
  195.0690  173.1680  143.7310 O   0  0  0  0  0  0  0  0  0  0  0  0
  196.4000  172.7420  143.8920 C   0  0  0  0  0  2  0  0  0  0  0  0
  197.6270  175.3120  143.4930 C   0  0  0  0  0  2  0  0  0  0  0  0
  190.3540  174.5940  144.1880 C   0  0  2  0  0  3  0  0  0  0  0  0
  188.5220  175.0650  141.6220 C   0  0  0  0  0  2  0  0  0  0  0  0
  193.3860  174.9800  141.7550 C   0  0  0  0  0  2  0  0  0  0  0  0
  196.7440  176.4320  142.9900 C   0  0  0  0  0  2  0  0  0  0  0  0
  191.1120  174.9440  142.8890 C   0  0  1  0  0  3  0  0  0  0  0  0
  188.5990  175.7460  145.4730 C   0  0  0  0  0  2  0  0  0  0  0  0
  195.2680  176.0420  142.9290 C   0  0  2  0  0  3  0  0  0  0  0  0
  197.7910  174.2520  142.4100 C   0  0  0  0  0  2  0  0  0  0  0  0
  188.3750  175.8140  142.9590 C   0  0  1  0  0  3  0  0  0  0  0  0
  193.1400  175.5840  144.2200 C   0  0  0  0  0  0  0  0  0  0  0  0
  195.3050  173.4690  142.3790 C   0  0  2  0  0  3  0  0  0  0  0  0
  192.6160  174.7460  143.0690 C   0  0  2  0  0  3  0  0  0  0  0  0
  194.1870  176.9000  146.4730 C   0  0  0  0  0  3  0  0  0  0  0  0
  189.2070  173.8480  141.7750 O   0  0  0  0  0  0  0  0  0  0  0  0
  194.9650  176.7620  145.3260 C   0  0  0  0  0  3  0  0  0  0  0  0
  190.5830  174.1280  141.6890 C   0  0  0  0  0  2  0  0  0  0  0  0
  188.8590  174.9950  144.1800 C   0  0  1  0  0  3  0  0  0  0  0  0
  192.8900  176.3930  146.4980 C   0  0  0  0  0  3  0  0  0  0  0  0
  190.9420  175.2060  145.4660 C   0  0  1  0  0  3  0  0  0  0  0  0
  189.0390  177.0430  142.8820 O   0  0  0  0  0  0  0  0  0  0  0  0
  188.1050  177.9290  142.3370 C   0  0  0  0  0  2  0  0  0  0  0  0
  184.9970  178.6210  144.1140 C   0  0  0  0  0  2  0  0  0  0  0  0
  185.8340  177.8750  141.7930 C   0  0  0  0  0  2  0  0  0  0  0  0
  186.7850  177.6310  142.8650 N   0  0  0  0  0  0  0  0  0  0  0  0
  184.2170  178.2870  142.5140 S   0  0  0  0  0  0  0  0  0  0  0  0
  186.4890  178.6180  143.8880 C   0  0  0  0  0  2  0  0  0  0  0  0
  1 27  1  0  0  0  0
  1 26  1  0  0  0  0
  3 16  1  1  0  0  0
  3  7  1  0  0  0  0
  4 18  1  0  0  0  0
  4 23  2  0  0  0  0
  5 11  1  1  0  0  0
  5 19  1  0  0  0  0
  5 15  1  0  0  0  0
  6  7  1  0  0  0  0
  9 27  1  0  0  0  0
 10 22  1  0  0  0  0
 10 17  1  0  0  0  0
 11 20  1  0  0  0  0
 12  8  1  0  0  0  0
 13 20  1  0  0  0  0
 13  9  1  0  0  0  0
 14  2  1  0  0  0  0
 15 12  1  0  0  0  0
 15  4  1  0  0  0  0
 16  8  1  0  0  0  0
 17 25  1  0  0  0  0
 18  1  2  0  0  0  0
 19  3  1  0  0  0  0
 19  6  1  0  0  0  0
 20 18  1  0  0  0  0
 21 26  2  0  0  0  0
 23 21  1  0  0  0  0
 24 22  1  0  0  0  0
 24 13  1  0  0  0  0
 25  9  1  0  0  0  0
 25 14  1  0  0  0  0
 27  2  1  0  0  0  0
 28 17  1  0  0  0  0
 29 32  1  0  0  0  0
 29 28  1  0  0  0  0
 31 33  1  0  0  0  0
 31 32  1  0  0  0  0
 32 34  1  0  0  0  0
 33 30  1  0  0  0  0
 34 30  1  0  0  0  0
M  END
>  <MODEL>
6

>  <REMARK>
 VINA RESULT:      -7.7      3.777      8.227
  Name = 
  3 active torsions:
  status: ('A' for Active; 'I' for Inactive)
    1  A    between atoms: C_17  and  O_28
    2  A    between atoms: O_28  and  C_29
    3  A    between atoms: C_29  and  N_32
                            x       y       z     vdW  Elec       q    Type
                         _______ _______ _______ _____ _____    ______ ____

>  <TORSDO>
F 3

$$$$
=
 OpenBabel11112417513D

 34 41  0  0  1  0  0  0  0  0999 V2000
  193.3850  175.7830  145.6070 C   0  0  0  0  0  0  0  0  0  0  0  0
  195.7550  175.0090  145.2680 C   0  0  0  0  0  2  0  0  0  0  0  0
  187.7310  176.6570  144.1030 C   0  0  2  0  0  3  0  0  0  0  0  0
  191.0620  175.5380  146.3180 C   0  0  0  0  0  0  0  0  0  0  0  0
  189.3160  174.6120  144.6840 C   0  0  1  0  0  3  0  0  0  0  0  0
  189.8270  176.9200  143.9310 O   0  0  0  0  0  0  0  0  0  0  0  0
  188.7400  177.7820  144.1650 C   0  0  0  0  0  2  0  0  0  0  0  0
  187.9320  176.6310  146.6740 C   0  0  0  0  0  2  0  0  0  0  0  0
  194.2130  174.6930  143.4040 C   0  0  2  0  0  3  0  0  0  0  0  0
  194.4360  171.7780  142.1320 C   0  0  0  0  0  2  0  0  0  0  0  0
  190.4620  173.8210  144.0610 C   0  0  0  0  0  2  0  0  0  0  0  0
  188.5790  175.3250  147.0780 C   0  0  0  0  0  2  0  0  0  0  0  0
  192.9470  173.8170  143.5300 C   0  0  1  0  0  3  0  0  0  0  0  0
  196.5440  174.3940  144.1340 C   0  0  0  0  0  2  0  0  0  0  0  0
  189.7050  174.9040  146.1360 C   0  0  2  0  0  3  0  0  0  0  0  0
  187.0420  176.4150  145.4550 C   0  0  0  0  0  2  0  0  0  0  0  0
  195.3960  172.3550  143.1890 C   0  0  1  0  0  3  0  0  0  0  0  0
  192.0840  175.2950  145.3660 C   0  0  0  0  0  0  0  0  0  0  0  0
  188.9570  175.8250  143.7880 C   0  0  2  0  0  3  0  0  0  0  0  0
  191.7650  174.6430  144.0320 C   0  0  2  0  0  3  0  0  0  0  0  0
  192.6390  176.7430  147.7110 C   0  0  0  0  0  3  0  0  0  0  0  0
  193.7490  172.7890  141.4400 O   0  0  0  0  0  0  0  0  0  0  0  0
  191.3580  176.2430  147.4900 C   0  0  0  0  0  3  0  0  0  0  0  0
  192.6090  173.1160  142.1960 C   0  0  0  0  0  2  0  0  0  0  0  0
  195.5130  173.8970  143.1370 C   0  0  1  0  0  3  0  0  0  0  0  0
  193.6440  176.5180  146.7720 C   0  0  0  0  0  3  0  0  0  0  0  0
  194.5100  175.5820  144.6190 C   0  0  1  0  0  3  0  0  0  0  0  0
  195.0060  171.9210  144.4610 O   0  0  0  0  0  0  0  0  0  0  0  0
  195.5610  170.6450  144.5970 C   0  0  0  0  0  2  0  0  0  0  0  0
  194.9570  168.5660  147.5310 C   0  0  0  0  0  2  0  0  0  0  0  0
  196.9030  169.6350  146.2210 C   0  0  0  0  0  2  0  0  0  0  0  0
  195.6220  170.2870  146.0040 N   0  0  0  0  0  0  0  0  0  0  0  0
  196.7640  168.5090  147.6410 S   0  0  0  0  0  0  0  0  0  0  0  0
  194.6150  169.2690  146.2400 C   0  0  0  0  0  2  0  0  0  0  0  0
  1 26  1  0  0  0  0
  3  7  1  1  0  0  0
  3 16  1  0  0  0  0
  4 23  2  0  0  0  0
  5 11  1  6  0  0  0
  5 15  1  0  0  0  0
  6  7  1  0  0  0  0
  8 12  1  0  0  0  0
  9 13  1  0  0  0  0
  9 27  1  0  0  0  0
 10 17  1  0  0  0  0
 13 20  1  0  0  0  0
 14  2  1  0  0  0  0
 15  4  1  0  0  0  0
 15 12  1  0  0  0  0
 16  8  1  0  0  0  0
 17 28  1  0  0  0  0
 18  1  2  0  0  0  0
 18  4  1  0  0  0  0
 19  6  1  0  0  0  0
 19  3  1  0  0  0  0
 19  5  1  0  0  0  0
 20 11  1  0  0  0  0
 20 18  1  0  0  0  0
 22 10  1  0  0  0  0
 22 24  1  0  0  0  0
 23 21  1  0  0  0  0
 24 13  1  0  0  0  0
 25 17  1  0  0  0  0
 25  9  1  0  0  0  0
 25 14  1  0  0  0  0
 26 21  2  0  0  0  0
 27  2  1  0  0  0  0
 27  1  1  0  0  0  0
 28 29  1  0  0  0  0
 29 32  1  0  0  0  0
 30 33  1  0  0  0  0
 31 33  1  0  0  0  0
 32 31  1  0  0  0  0
 32 34  1  0  0  0  0
 34 30  1  0  0  0  0
M  END
>  <MODEL>
7

>  <REMARK>
 VINA RESULT:      -7.6      2.889      4.397
  Name = 
  3 active torsions:
  status: ('A' for Active; 'I' for Inactive)
    1  A    between atoms: C_17  and  O_28
    2  A    between atoms: O_28  and  C_29
    3  A    between atoms: C_29  and  N_32
                            x       y       z     vdW  Elec       q    Type
                         _______ _______ _______ _____ _____    ______ ____

>  <TORSDO>
F 3

$$$$
=
 OpenBabel11112417513D

 34 41  0  0  1  0  0  0  0  0999 V2000
  190.5760  176.7230  145.6170 C   0  0  0  0  0  0  0  0  0  0  0  0
  192.7590  176.1070  146.7050 C   0  0  0  0  0  2  0  0  0  0  0  0
  186.9680  177.9760  141.0990 C   0  0  2  0  0  3  0  0  0  0  0  0
  188.4090  176.2540  144.5940 C   0  0  0  0  0  0  0  0  0  0  0  0
  188.2460  175.8640  142.0640 C   0  0  1  0  0  3  0  0  0  0  0  0
  188.6300  178.2940  142.3750 O   0  0  0  0  0  0  0  0  0  0  0  0
  187.4790  179.0350  142.0510 C   0  0  0  0  0  2  0  0  0  0  0  0
  185.5670  177.1620  143.1040 C   0  0  0  0  0  2  0  0  0  0  0  0
  192.7700  176.3690  144.2790 C   0  0  2  0  0  3  0  0  0  0  0  0
  194.3020  173.9880  142.8140 C   0  0  0  0  0  2  0  0  0  0  0  0
  189.6650  175.3100  142.1580 C   0  0  0  0  0  2  0  0  0  0  0  0
  186.0820  175.8000  143.5120 C   0  0  0  0  0  2  0  0  0  0  0  0
  191.8980  175.4880  143.3590 C   0  0  1  0  0  3  0  0  0  0  0  0
  194.1780  175.8770  146.2370 C   0  0  0  0  0  2  0  0  0  0  0  0
  187.6050  175.6970  143.4450 C   0  0  2  0  0  3  0  0  0  0  0  0
  185.6670  177.3250  141.5920 C   0  0  0  0  0  2  0  0  0  0  0  0
  194.2820  174.2180  144.3360 C   0  0  1  0  0  3  0  0  0  0  0  0
  189.8210  176.3230  144.4930 C   0  0  0  0  0  0  0  0  0  0  0  0
  188.2690  177.2910  141.4600 C   0  0  2  0  0  3  0  0  0  0  0  0
  190.5170  176.1110  143.1620 C   0  0  2  0  0  3  0  0  0  0  0  0
  188.5310  176.9840  146.9030 C   0  0  0  0  0  3  0  0  0  0  0  0
  193.9920  175.1580  142.1020 O   0  0  0  0  0  0  0  0  0  0  0  0
  187.7820  176.5660  145.8050 C   0  0  0  0  0  3  0  0  0  0  0  0
  192.5900  175.2290  142.0030 C   0  0  0  0  0  2  0  0  0  0  0  0
  194.0920  175.7030  144.7310 C   0  0  1  0  0  3  0  0  0  0  0  0
  189.9180  177.0650  146.8060 C   0  0  0  0  0  3  0  0  0  0  0  0
  192.0810  176.8430  145.5660 C   0  0  1  0  0  3  0  0  0  0  0  0
  193.2980  173.4110  144.9180 O   0  0  0  0  0  0  0  0  0  0  0  0
  193.3250  172.2190  144.1890 C   0  0  0  0  0  2  0  0  0  0  0  0
  189.6800  172.2810  144.1810 C   0  0  0  0  0  2  0  0  0  0  0  0
  191.6560  171.4860  142.7300 C   0  0  0  0  0  2  0  0  0  0  0  0
  191.9900  171.6500  144.1340 N   0  0  0  0  0  0  0  0  0  0  0  0
  189.8490  171.5410  142.5370 S   0  0  0  0  0  0  0  0  0  0  0  0
  191.0680  172.6480  144.6460 C   0  0  0  0  0  2  0  0  0  0  0  0
  1 26  1  0  0  0  0
  3 19  1  0  0  0  0
  3 16  1  1  0  0  0
  3  7  1  0  0  0  0
  4 23  2  0  0  0  0
  5 11  1  1  0  0  0
  5 15  1  0  0  0  0
  7  6  1  0  0  0  0
  8 12  1  0  0  0  0
  9 25  1  0  0  0  0
  9 27  1  0  0  0  0
 10 17  1  0  0  0  0
 11 20  1  0  0  0  0
 13  9  1  0  0  0  0
 14  2  1  0  0  0  0
 15 12  1  0  0  0  0
 15  4  1  0  0  0  0
 16  8  1  0  0  0  0
 17 25  1  0  0  0  0
 17 28  1  0  0  0  0
 18  4  1  0  0  0  0
 18  1  2  0  0  0  0
 19  5  1  0  0  0  0
 19  6  1  0  0  0  0
 20 13  1  0  0  0  0
 20 18  1  0  0  0  0
 22 10  1  0  0  0  0
 23 21  1  0  0  0  0
 24 22  1  0  0  0  0
 24 13  1  0  0  0  0
 25 14  1  0  0  0  0
 26 21  2  0  0  0  0
 27  1  1  0  0  0  0
 27  2  1  0  0  0  0
 29 28  1  0  0  0  0
 30 34  1  0  0  0  0
 31 32  1  0  0  0  0
 32 29  1  0  0  0  0
 32 34  1  0  0  0  0
 33 31  1  0  0  0  0
 33 30  1  0  0  0  0
M  END
>  <MODEL>
8

>  <REMARK>
 VINA RESULT:      -7.5      2.067      3.328
  Name = 
  3 active torsions:
  status: ('A' for Active; 'I' for Inactive)
    1  A    between atoms: C_17  and  O_28
    2  A    between atoms: O_28  and  C_29
    3  A    between atoms: C_29  and  N_32
                            x       y       z     vdW  Elec       q    Type
                         _______ _______ _______ _____ _____    ______ ____

>  <TORSDO>
F 3

$$$$
=
 OpenBabel11112417513D

 34 41  0  0  1  0  0  0  0  0999 V2000
  192.4410  172.2120  144.3400 C   0  0  0  0  0  0  0  0  0  0  0  0
  194.3070  170.5410  144.1070 C   0  0  0  0  0  2  0  0  0  0  0  0
  189.8400  177.1520  146.2960 C   0  0  2  0  0  3  0  0  0  0  0  0
  191.1510  174.1840  143.7020 C   0  0  0  0  0  0  0  0  0  0  0  0
  191.7930  176.4870  144.6300 C   0  0  1  0  0  3  0  0  0  0  0  0
  190.7420  175.2450  146.5020 O   0  0  0  0  0  0  0  0  0  0  0  0
  189.4800  175.7800  146.8210 C   0  0  0  0  0  2  0  0  0  0  0  0
  188.6810  176.3850  144.1250 C   0  0  0  0  0  2  0  0  0  0  0  0
  194.7200  172.4620  145.5530 C   0  0  2  0  0  3  0  0  0  0  0  0
  197.5660  173.7910  145.0130 C   0  0  0  0  0  2  0  0  0  0  0  0
  193.2240  175.9620  144.6730 C   0  0  0  0  0  2  0  0  0  0  0  0
  189.7360  176.2720  143.0470 C   0  0  0  0  0  2  0  0  0  0  0  0
  194.6830  173.9100  145.0180 C   0  0  1  0  0  3  0  0  0  0  0  0
  195.6920  170.3730  144.6880 C   0  0  0  0  0  2  0  0  0  0  0  0
  191.0480  175.6830  143.5600 C   0  0  2  0  0  3  0  0  0  0  0  0
  189.0140  177.5410  145.0600 C   0  0  0  0  0  2  0  0  0  0  0  0
  197.0860  172.4590  144.4070 C   0  0  1  0  0  3  0  0  0  0  0  0
  192.2900  173.6150  144.3250 C   0  0  0  0  0  0  0  0  0  0  0  0
  191.1870  176.5020  146.0570 C   0  0  2  0  0  3  0  0  0  0  0  0
  193.2690  174.4810  145.0960 C   0  0  2  0  0  3  0  0  0  0  0  0
  190.3450  171.9690  143.1360 C   0  0  0  0  0  3  0  0  0  0  0  0
  196.8490  174.1290  146.1720 O   0  0  0  0  0  0  0  0  0  0  0  0
  190.2010  173.3540  143.0960 C   0  0  0  0  0  3  0  0  0  0  0  0
  195.6900  174.8140  145.7630 C   0  0  0  0  0  2  0  0  0  0  0  0
  196.0520  171.7200  145.2900 C   0  0  1  0  0  3  0  0  0  0  0  0
  191.4560  171.4030  143.7580 C   0  0  0  0  0  3  0  0  0  0  0  0
  193.6170  171.5420  145.0130 C   0  0  1  0  0  3  0  0  0  0  0  0
  196.5820  172.6850  143.1210 O   0  0  0  0  0  0  0  0  0  0  0  0
  197.4000  173.6800  142.5780 C   0  0  0  0  0  2  0  0  0  0  0  0
  194.4520  174.7600  140.7250 C   0  0  0  0  0  2  0  0  0  0  0  0
  196.4270  175.7390  142.0600 C   0  0  0  0  0  2  0  0  0  0  0  0
  196.6720  174.4010  141.5490 N   0  0  0  0  0  0  0  0  0  0  0  0
  194.9410  176.4190  141.2630 S   0  0  0  0  0  0  0  0  0  0  0  0
  195.3650  173.7810  141.4210 C   0  0  0  0  0  2  0  0  0  0  0  0
  1 27  1  0  0  0  0
  2 14  1  0  0  0  0
  2 27  1  0  0  0  0
  3 16  1  6  0  0  0
  3  7  1  0  0  0  0
  4 18  2  0  0  0  0
  5 11  1  1  0  0  0
  5 19  1  0  0  0  0
  6  7  1  0  0  0  0
  8 16  1  0  0  0  0
 10 22  1  0  0  0  0
 11 20  1  0  0  0  0
 12 15  1  0  0  0  0
 12  8  1  0  0  0  0
 13 20  1  0  0  0  0
 13  9  1  0  0  0  0
 13 24  1  0  0  0  0
 14 25  1  0  0  0  0
 15  4  1  0  0  0  0
 15  5  1  0  0  0  0
 17 10  1  0  0  0  0
 17 25  1  0  0  0  0
 18  1  1  0  0  0  0
 18 20  1  0  0  0  0
 19  3  1  0  0  0  0
 19  6  1  0  0  0  0
 21 26  1  0  0  0  0
 23 21  2  0  0  0  0
 23  4  1  0  0  0  0
 24 22  1  0  0  0  0
 25  9  1  0  0  0  0
 26  1  2  0  0  0  0
 27  9  1  0  0  0  0
 28 17  1  0  0  0  0
 29 28  1  0  0  0  0
 30 33  1  0  0  0  0
 30 34  1  0  0  0  0
 32 31  1  0  0  0  0
 32 29  1  0  0  0  0
 33 31  1  0  0  0  0
 34 32  1  0  0  0  0
M  END
>  <MODEL>
9

>  <REMARK>
 VINA RESULT:      -7.3      3.387      6.498
  Name = 
  3 active torsions:
  status: ('A' for Active; 'I' for Inactive)
    1  A    between atoms: C_17  and  O_28
    2  A    between atoms: O_28  and  C_29
    3  A    between atoms: C_29  and  N_32
                            x       y       z     vdW  Elec       q    Type
                         _______ _______ _______ _____ _____    ______ ____

>  <TORSDO>
F 3

$$$$
