=
 OpenBabel11112416373D

 32 37  0  0  1  0  0  0  0  0999 V2000
  195.3150  176.3910  145.3810 C   0  0  0  0  0  2  0  0  0  0  0  0
  190.0870  175.7040  144.8570 C   0  0  0  0  0  0  0  0  0  0  0  0
  189.8860  174.1640  140.6020 C   0  0  0  0  0  2  0  0  0  0  0  0
  188.4240  174.4330  140.3390 C   0  0  0  0  0  2  0  0  0  0  0  0
  188.1660  177.0330  146.0040 C   0  0  0  0  0  0  0  0  0  0  0  0
  186.8960  177.7280  145.8140 C   0  0  0  0  0  0  0  0  0  0  0  0
  192.3730  175.5750  145.9480 C   0  0  1  0  0  3  0  0  0  0  0  0
  191.8500  174.1550  143.9670 C   0  0  0  0  0  2  0  0  0  0  0  0
  184.9020  178.2330  144.7420 C   0  0  1  0  0  3  0  0  0  0  0  0
  194.2490  174.3460  144.6530 C   0  0  0  0  0  2  0  0  0  0  0  0
  189.9700  173.3590  141.8800 C   0  0  0  0  0  2  0  0  0  0  0  0
  190.4640  174.7640  143.9520 C   0  0  0  0  0  0  0  0  0  0  0  0
  189.4060  174.1260  143.0840 C   0  0  1  0  0  3  0  0  0  0  0  0
  187.8570  175.9250  143.8230 C   0  0  0  0  0  0  0  0  0  0  0  0
  184.9830  178.9560  146.0940 C   0  0  0  0  0  2  0  0  0  0  0  0
  194.0900  177.1370  145.9310 C   0  0  0  0  0  2  0  0  0  0  0  0
  192.8930  175.0680  144.5880 C   0  0  2  0  0  3  0  0  0  0  0  0
  186.2820  178.5020  146.6850 C   0  0  0  0  0  3  0  0  0  0  0  0
  193.3090  176.2890  146.7430 O   0  0  0  0  0  0  0  0  0  0  0  0
  195.1950  174.9460  145.5990 N   0  0  0  0  0  0  0  0  0  0  0  0
  187.8760  175.3880  141.3900 C   0  0  0  0  0  2  0  0  0  0  0  0
  188.3500  175.1030  142.7540 N   0  0  0  0  0  0  0  0  0  0  0  0
  186.4090  176.3890  143.7700 C   0  0  0  0  0  2  0  0  0  0  0  0
  191.1110  176.4000  145.7270 C   0  0  0  0  0  2  0  0  0  0  0  0
  188.7890  177.1280  147.0950 O   0  0  0  0  0  0  0  0  0  0  0  0
  184.7520  179.2510  143.6280 C   0  0  0  0  0  1  0  0  0  0  0  0
  188.6720  176.2000  144.8780 C   0  0  0  0  0  0  0  0  0  0  0  0
  186.1760  177.5520  144.6200 N   0  0  0  0  0  0  0  0  0  0  0  0
  196.4960  174.3610  145.3140 C   0  0  0  0  0  2  0  0  0  0  0  0
  196.3470  172.8940  144.9450 C   0  0  0  0  0  3  0  0  0  0  0  0
  197.1690  172.5800  143.7090 C   0  0  0  0  0  1  0  0  0  0  0  0
  196.8300  172.0370  146.0950 C   0  0  0  0  0  1  0  0  0  0  0  0
  1 20  1  0  0  0  0
  1 16  1  0  0  0  0
  2 27  1  0  0  0  0
  2 24  1  0  0  0  0
  3 11  1  0  0  0  0
  4  3  1  0  0  0  0
  4 21  1  0  0  0  0
  5 25  2  0  0  0  0
  6  5  1  0  0  0  0
  6 18  2  0  0  0  0
  7 24  1  6  0  0  0
  7 19  1  0  0  0  0
  9 26  1  6  0  0  0
  9 15  1  0  0  0  0
 10 20  1  0  0  0  0
 12  8  1  0  0  0  0
 12  2  2  0  0  0  0
 13 11  1  6  0  0  0
 13 12  1  0  0  0  0
 14 27  2  0  0  0  0
 15 18  1  0  0  0  0
 16 19  1  0  0  0  0
 17  8  1  1  0  0  0
 17 10  1  0  0  0  0
 17  7  1  0  0  0  0
 21 22  1  0  0  0  0
 22 13  1  0  0  0  0
 22 14  1  0  0  0  0
 23 14  1  0  0  0  0
 23 28  1  0  0  0  0
 27  5  1  0  0  0  0
 28  9  1  0  0  0  0
 28  6  1  0  0  0  0
 29 20  1  0  0  0  0
 30 29  1  0  0  0  0
 30 32  1  0  0  0  0
 31 30  1  0  0  0  0
M  END
>  <MODEL>
1

>  <REMARK>
 VINA RESULT:      -8.2      0.000      0.000
  Name = 
  2 active torsions:
  status: ('A' for Active; 'I' for Inactive)
    1  A    between atoms: N_20  and  C_29
    2  A    between atoms: C_29  and  C_30
                            x       y       z     vdW  Elec       q    Type
                         _______ _______ _______ _____ _____    ______ ____

>  <TORSDO>
F 2

$$$$
=
 OpenBabel11112416373D

 32 37  0  0  1  0  0  0  0  0999 V2000
  186.8710  178.3950  142.2290 C   0  0  0  0  0  2  0  0  0  0  0  0
  189.7310  174.3010  144.0000 C   0  0  0  0  0  0  0  0  0  0  0  0
  192.9540  176.4920  146.3100 C   0  0  0  0  0  2  0  0  0  0  0  0
  193.9690  175.3760  146.3830 C   0  0  0  0  0  2  0  0  0  0  0  0
  190.0830  171.9790  142.8790 C   0  0  0  0  0  0  0  0  0  0  0  0
  191.0530  170.9590  142.4900 C   0  0  0  0  0  0  0  0  0  0  0  0
  187.6570  175.6630  143.4800 C   0  0  1  0  0  3  0  0  0  0  0  0
  189.1890  176.3680  145.3160 C   0  0  0  0  0  2  0  0  0  0  0  0
  193.0640  169.8070  142.5880 C   0  0  1  0  0  3  0  0  0  0  0  0
  187.4750  178.0190  144.5410 C   0  0  0  0  0  2  0  0  0  0  0  0
  191.6450  175.9400  146.8330 C   0  0  0  0  0  2  0  0  0  0  0  0
  190.0490  175.1630  145.0000 C   0  0  0  0  0  0  0  0  0  0  0  0
  191.1280  174.7730  145.9800 C   0  0  1  0  0  3  0  0  0  0  0  0
  191.7550  172.9490  144.4100 C   0  0  0  0  0  0  0  0  0  0  0  0
  192.0920  169.1100  141.6260 C   0  0  0  0  0  2  0  0  0  0  0  0
  187.2200  177.0180  141.6460 C   0  0  0  0  0  2  0  0  0  0  0  0
  188.3910  176.8590  144.1200 C   0  0  2  0  0  3  0  0  0  0  0  0
  190.8390  169.9260  141.7030 C   0  0  0  0  0  3  0  0  0  0  0  0
  186.7180  175.9850  142.4630 O   0  0  0  0  0  0  0  0  0  0  0  0
  186.3760  178.2770  143.6040 N   0  0  0  0  0  0  0  0  0  0  0  0
  193.6200  174.2920  145.3740 C   0  0  0  0  0  2  0  0  0  0  0  0
  192.1810  173.9890  145.3040 N   0  0  0  0  0  0  0  0  0  0  0  0
  192.6400  171.7220  144.2530 C   0  0  0  0  0  2  0  0  0  0  0  0
  188.6820  174.6580  142.9700 C   0  0  0  0  0  2  0  0  0  0  0  0
  188.8950  171.9210  142.4650 O   0  0  0  0  0  0  0  0  0  0  0  0
  194.3250  170.2020  141.8420 C   0  0  0  0  0  1  0  0  0  0  0  0
  190.5470  173.0600  143.7920 C   0  0  0  0  0  0  0  0  0  0  0  0
  192.3540  170.9950  143.0210 N   0  0  0  0  0  0  0  0  0  0  0  0
  185.8120  179.5670  143.9690 C   0  0  0  0  0  2  0  0  0  0  0  0
  184.3350  179.4260  144.2950 C   0  0  0  0  0  3  0  0  0  0  0  0
  183.6590  178.5290  143.2760 C   0  0  0  0  0  1  0  0  0  0  0  0
  184.1830  178.8180  145.6730 C   0  0  0  0  0  1  0  0  0  0  0  0
  1 20  1  0  0  0  0
  2 12  2  0  0  0  0
  3  4  1  0  0  0  0
  3 11  1  0  0  0  0
  5 27  1  0  0  0  0
  6  5  1  0  0  0  0
  6 28  1  0  0  0  0
  7 24  1  6  0  0  0
  7 17  1  0  0  0  0
  9 26  1  6  0  0  0
  9 28  1  0  0  0  0
 12  8  1  0  0  0  0
 12 13  1  0  0  0  0
 13 11  1  6  0  0  0
 14 22  1  0  0  0  0
 15 18  1  0  0  0  0
 15  9  1  0  0  0  0
 16  1  1  0  0  0  0
 16 19  1  0  0  0  0
 17 10  1  1  0  0  0
 17  8  1  0  0  0  0
 18  6  2  0  0  0  0
 19  7  1  0  0  0  0
 20 29  1  0  0  0  0
 20 10  1  0  0  0  0
 21  4  1  0  0  0  0
 22 21  1  0  0  0  0
 22 13  1  0  0  0  0
 23 14  1  0  0  0  0
 24  2  1  0  0  0  0
 25  5  2  0  0  0  0
 27  2  1  0  0  0  0
 27 14  2  0  0  0  0
 28 23  1  0  0  0  0
 29 30  1  0  0  0  0
 30 32  1  0  0  0  0
 31 30  1  0  0  0  0
M  END
>  <MODEL>
2

>  <REMARK>
 VINA RESULT:      -8.1      2.753      8.644
  Name = 
  2 active torsions:
  status: ('A' for Active; 'I' for Inactive)
    1  A    between atoms: N_20  and  C_29
    2  A    between atoms: C_29  and  C_30
                            x       y       z     vdW  Elec       q    Type
                         _______ _______ _______ _____ _____    ______ ____

>  <TORSDO>
F 2

$$$$
=
 OpenBabel11112416373D

 32 37  0  0  1  0  0  0  0  0999 V2000
  186.1420  176.7630  145.4910 C   0  0  0  0  0  2  0  0  0  0  0  0
  190.9040  175.3140  143.6730 C   0  0  0  0  0  0  0  0  0  0  0  0
  189.7130  172.0460  140.7720 C   0  0  0  0  0  2  0  0  0  0  0  0
  191.0530  171.3620  140.6480 C   0  0  0  0  0  2  0  0  0  0  0  0
  193.1890  175.3790  144.9160 C   0  0  0  0  0  0  0  0  0  0  0  0
  194.4060  174.6430  145.2480 C   0  0  0  0  0  0  0  0  0  0  0  0
  189.0340  176.8810  144.3660 C   0  0  1  0  0  3  0  0  0  0  0  0
  188.8240  175.5240  142.2850 C   0  0  0  0  0  2  0  0  0  0  0  0
  196.0390  173.0200  144.9640 C   0  0  1  0  0  3  0  0  0  0  0  0
  186.7580  176.6350  143.1560 C   0  0  0  0  0  2  0  0  0  0  0  0
  189.9320  173.5150  140.4810 C   0  0  0  0  0  2  0  0  0  0  0  0
  190.1950  174.9510  142.5730 C   0  0  0  0  0  0  0  0  0  0  0  0
  190.8900  174.1660  141.4880 C   0  0  1  0  0  3  0  0  0  0  0  0
  192.7460  173.7750  143.0960 C   0  0  0  0  0  0  0  0  0  0  0  0
  196.4220  173.9730  146.1040 C   0  0  0  0  0  2  0  0  0  0  0  0
  187.5370  176.6800  146.1280 C   0  0  0  0  0  2  0  0  0  0  0  0
  188.0950  175.9820  143.5370 C   0  0  2  0  0  3  0  0  0  0  0  0
  195.3160  174.9820  146.1370 C   0  0  0  0  0  3  0  0  0  0  0  0
  188.4400  177.5420  145.4740 O   0  0  0  0  0  0  0  0  0  0  0  0
  186.1870  177.4780  144.2120 N   0  0  0  0  0  0  0  0  0  0  0  0
  191.9690  171.8090  141.7790 C   0  0  0  0  0  2  0  0  0  0  0  0
  191.8890  173.2490  142.0720 N   0  0  0  0  0  0  0  0  0  0  0  0
  194.1510  173.2090  143.2260 C   0  0  0  0  0  2  0  0  0  0  0  0
  190.2460  176.0700  144.8070 C   0  0  0  0  0  2  0  0  0  0  0  0
  192.9230  176.4660  145.4950 O   0  0  0  0  0  0  0  0  0  0  0  0
  195.9500  171.6010  145.4940 C   0  0  0  0  0  1  0  0  0  0  0  0
  192.3030  174.8090  143.8640 C   0  0  0  0  0  0  0  0  0  0  0  0
  194.7280  173.4720  144.5400 N   0  0  0  0  0  0  0  0  0  0  0  0
  184.8120  177.7540  143.8270 C   0  0  0  0  0  2  0  0  0  0  0  0
  184.3890  179.1270  144.3230 C   0  0  0  0  0  3  0  0  0  0  0  0
  183.9200  179.0400  145.7630 C   0  0  0  0  0  1  0  0  0  0  0  0
  185.5670  180.0740  144.2400 C   0  0  0  0  0  1  0  0  0  0  0  0
  1 16  1  0  0  0  0
  2 27  1  0  0  0  0
  2 24  1  0  0  0  0
  4  3  1  0  0  0  0
  4 21  1  0  0  0  0
  5  6  1  0  0  0  0
  5 25  2  0  0  0  0
  6 18  2  0  0  0  0
  7 24  1  1  0  0  0
  7 19  1  0  0  0  0
  8 12  1  0  0  0  0
  9 26  1  1  0  0  0
  9 15  1  0  0  0  0
 10 17  1  0  0  0  0
 10 20  1  0  0  0  0
 11  3  1  0  0  0  0
 12  2  2  0  0  0  0
 13 11  1  1  0  0  0
 13 22  1  0  0  0  0
 13 12  1  0  0  0  0
 14 23  1  0  0  0  0
 14 27  2  0  0  0  0
 15 18  1  0  0  0  0
 17  8  1  6  0  0  0
 17  7  1  0  0  0  0
 19 16  1  0  0  0  0
 20  1  1  0  0  0  0
 21 22  1  0  0  0  0
 22 14  1  0  0  0  0
 23 28  1  0  0  0  0
 27  5  1  0  0  0  0
 28  9  1  0  0  0  0
 28  6  1  0  0  0  0
 29 20  1  0  0  0  0
 29 30  1  0  0  0  0
 30 31  1  0  0  0  0
 32 30  1  0  0  0  0
M  END
>  <MODEL>
3

>  <REMARK>
 VINA RESULT:      -7.9      1.441      8.100
  Name = 
  2 active torsions:
  status: ('A' for Active; 'I' for Inactive)
    1  A    between atoms: N_20  and  C_29
    2  A    between atoms: C_29  and  C_30
                            x       y       z     vdW  Elec       q    Type
                         _______ _______ _______ _____ _____    ______ ____

>  <TORSDO>
F 2

$$$$
=
 OpenBabel11112416373D

 32 37  0  0  1  0  0  0  0  0999 V2000
  189.9560  173.2590  142.7500 C   0  0  0  0  0  2  0  0  0  0  0  0
  186.4530  177.2190  143.1050 C   0  0  0  0  0  0  0  0  0  0  0  0
  186.0600  177.5630  147.6050 C   0  0  0  0  0  2  0  0  0  0  0  0
  184.7570  178.3250  147.6540 C   0  0  0  0  0  2  0  0  0  0  0  0
  184.5560  177.8440  141.4370 C   0  0  0  0  0  0  0  0  0  0  0  0
  183.1460  178.1910  141.2860 C   0  0  0  0  0  0  0  0  0  0  0  0
  188.5000  175.9630  142.2900 C   0  0  1  0  0  3  0  0  0  0  0  0
  188.4480  176.9080  144.5970 C   0  0  0  0  0  2  0  0  0  0  0  0
  181.0790  178.9890  141.9740 C   0  0  1  0  0  3  0  0  0  0  0  0
  190.2600  175.2690  144.0590 C   0  0  0  0  0  2  0  0  0  0  0  0
  186.9920  178.3280  146.6910 C   0  0  0  0  0  2  0  0  0  0  0  0
  187.0580  177.4320  144.3020 C   0  0  0  0  0  0  0  0  0  0  0  0
  186.4450  178.4250  145.2590 C   0  0  1  0  0  3  0  0  0  0  0  0
  184.4050  178.3840  143.8390 C   0  0  0  0  0  0  0  0  0  0  0  0
  181.0700  178.7050  140.4660 C   0  0  0  0  0  2  0  0  0  0  0  0
  188.7570  173.6910  141.8920 C   0  0  0  0  0  2  0  0  0  0  0  0
  188.8080  175.6820  143.7750 C   0  0  2  0  0  3  0  0  0  0  0  0
  182.4640  178.2510  140.1610 C   0  0  0  0  0  3  0  0  0  0  0  0
  188.9560  174.9840  141.3670 O   0  0  0  0  0  0  0  0  0  0  0  0
  190.8390  174.3930  143.0340 N   0  0  0  0  0  0  0  0  0  0  0  0
  184.0610  178.2490  146.3030 C   0  0  0  0  0  2  0  0  0  0  0  0
  184.9730  178.4010  145.1570 N   0  0  0  0  0  0  0  0  0  0  0  0
  183.0510  179.0430  143.6260 C   0  0  0  0  0  2  0  0  0  0  0  0
  187.0060  176.2080  142.1240 C   0  0  0  0  0  2  0  0  0  0  0  0
  185.2590  177.5730  140.4270 O   0  0  0  0  0  0  0  0  0  0  0  0
  180.0130  178.1530  142.6570 C   0  0  0  0  0  1  0  0  0  0  0  0
  185.1240  177.8490  142.8140 C   0  0  0  0  0  0  0  0  0  0  0  0
  182.3940  178.5650  142.4130 N   0  0  0  0  0  0  0  0  0  0  0  0
  192.0670  173.8510  143.5950 C   0  0  0  0  0  2  0  0  0  0  0  0
  192.7970  174.9150  144.3970 C   0  0  0  0  0  3  0  0  0  0  0  0
  193.4390  174.2950  145.6240 C   0  0  0  0  0  1  0  0  0  0  0  0
  193.8720  175.5420  143.5360 C   0  0  0  0  0  1  0  0  0  0  0  0
  1 20  1  0  0  0  0
  2 12  2  0  0  0  0
  3  4  1  0  0  0  0
  5 27  1  0  0  0  0
  6  5  1  0  0  0  0
  6 28  1  0  0  0  0
  7 24  1  1  0  0  0
  7 17  1  0  0  0  0
  9 28  1  0  0  0  0
  9 26  1  1  0  0  0
 11  3  1  0  0  0  0
 12  8  1  0  0  0  0
 12 13  1  0  0  0  0
 13 11  1  1  0  0  0
 14 22  1  0  0  0  0
 15  9  1  0  0  0  0
 16  1  1  0  0  0  0
 17 10  1  6  0  0  0
 17  8  1  0  0  0  0
 18 15  1  0  0  0  0
 18  6  2  0  0  0  0
 19 16  1  0  0  0  0
 19  7  1  0  0  0  0
 20 29  1  0  0  0  0
 20 10  1  0  0  0  0
 21  4  1  0  0  0  0
 22 13  1  0  0  0  0
 22 21  1  0  0  0  0
 23 14  1  0  0  0  0
 24  2  1  0  0  0  0
 25  5  2  0  0  0  0
 27  2  1  0  0  0  0
 27 14  2  0  0  0  0
 28 23  1  0  0  0  0
 29 30  1  0  0  0  0
 30 31  1  0  0  0  0
 32 30  1  0  0  0  0
M  END
>  <MODEL>
4

>  <REMARK>
 VINA RESULT:      -7.8      2.807      5.838
  Name = 
  2 active torsions:
  status: ('A' for Active; 'I' for Inactive)
    1  A    between atoms: N_20  and  C_29
    2  A    between atoms: C_29  and  C_30
                            x       y       z     vdW  Elec       q    Type
                         _______ _______ _______ _____ _____    ______ ____

>  <TORSDO>
F 2

$$$$
=
 OpenBabel11112416373D

 32 37  0  0  1  0  0  0  0  0999 V2000
  195.7290  175.7660  144.0800 C   0  0  0  0  0  2  0  0  0  0  0  0
  190.4890  175.0830  143.6820 C   0  0  0  0  0  0  0  0  0  0  0  0
  190.1840  173.5530  139.4300 C   0  0  0  0  0  2  0  0  0  0  0  0
  188.7150  173.8230  139.2040 C   0  0  0  0  0  2  0  0  0  0  0  0
  188.5980  176.4100  144.8790 C   0  0  0  0  0  0  0  0  0  0  0  0
  187.3240  177.1070  144.7220 C   0  0  0  0  0  0  0  0  0  0  0  0
  192.8010  174.9510  144.7170 C   0  0  1  0  0  3  0  0  0  0  0  0
  192.2290  173.5350  142.7460 C   0  0  0  0  0  2  0  0  0  0  0  0
  185.3050  177.6150  143.7010 C   0  0  1  0  0  3  0  0  0  0  0  0
  194.6440  173.7230  143.3740 C   0  0  0  0  0  2  0  0  0  0  0  0
  190.2990  172.7450  140.7040 C   0  0  0  0  0  2  0  0  0  0  0  0
  190.8430  174.1440  142.7670 C   0  0  0  0  0  0  0  0  0  0  0  0
  189.7650  173.5100  141.9230 C   0  0  1  0  0  3  0  0  0  0  0  0
  188.2350  175.3080  142.7040 C   0  0  0  0  0  0  0  0  0  0  0  0
  185.4190  178.3340  145.0510 C   0  0  0  0  0  2  0  0  0  0  0  0
  194.5180  176.5110  144.6610 C   0  0  0  0  0  2  0  0  0  0  0  0
  193.2880  174.4460  143.3440 C   0  0  2  0  0  3  0  0  0  0  0  0
  186.7320  177.8790  145.6090 C   0  0  0  0  0  3  0  0  0  0  0  0
  193.7570  175.6620  145.4900 O   0  0  0  0  0  0  0  0  0  0  0  0
  195.6140  174.3210  144.2970 N   0  0  0  0  0  0  0  0  0  0  0  0
  188.1940  174.7760  140.2700 C   0  0  0  0  0  2  0  0  0  0  0  0
  188.7010  174.4880  141.6210 N   0  0  0  0  0  0  0  0  0  0  0  0
  186.7870  175.7720  142.6880 C   0  0  0  0  0  2  0  0  0  0  0  0
  191.5350  175.7770  144.5280 C   0  0  0  0  0  2  0  0  0  0  0  0
  189.2470  176.5030  145.9550 O   0  0  0  0  0  0  0  0  0  0  0  0
  185.1280  178.6360  142.5920 C   0  0  0  0  0  1  0  0  0  0  0  0
  189.0750  175.5790  143.7400 C   0  0  0  0  0  0  0  0  0  0  0  0
  186.5750  176.9330  143.5460 N   0  0  0  0  0  0  0  0  0  0  0  0
  196.9070  173.7350  143.9800 C   0  0  0  0  0  2  0  0  0  0  0  0
  197.4400  172.9530  145.1680 C   0  0  0  0  0  3  0  0  0  0  0  0
  196.9370  173.5630  146.4630 C   0  0  0  0  0  1  0  0  0  0  0  0
  196.9670  171.5190  145.0770 C   0  0  0  0  0  1  0  0  0  0  0  0
  1 20  1  0  0  0  0
  1 16  1  0  0  0  0
  2 27  1  0  0  0  0
  2 24  1  0  0  0  0
  3 11  1  0  0  0  0
  4  3  1  0  0  0  0
  4 21  1  0  0  0  0
  5 25  2  0  0  0  0
  6  5  1  0  0  0  0
  6 18  2  0  0  0  0
  7 24  1  6  0  0  0
  7 19  1  0  0  0  0
  8 12  1  0  0  0  0
  9 26  1  6  0  0  0
  9 15  1  0  0  0  0
 10 20  1  0  0  0  0
 12  2  2  0  0  0  0
 13 11  1  6  0  0  0
 13 12  1  0  0  0  0
 14 27  2  0  0  0  0
 15 18  1  0  0  0  0
 16 19  1  0  0  0  0
 17  8  1  1  0  0  0
 17 10  1  0  0  0  0
 17  7  1  0  0  0  0
 21 22  1  0  0  0  0
 22 13  1  0  0  0  0
 22 14  1  0  0  0  0
 23 14  1  0  0  0  0
 23 28  1  0  0  0  0
 27  5  1  0  0  0  0
 28  9  1  0  0  0  0
 28  6  1  0  0  0  0
 29 20  1  0  0  0  0
 29 30  1  0  0  0  0
 30 31  1  0  0  0  0
 32 30  1  0  0  0  0
M  END
>  <MODEL>
5

>  <REMARK>
 VINA RESULT:      -7.8      1.201      1.443
  Name = 
  2 active torsions:
  status: ('A' for Active; 'I' for Inactive)
    1  A    between atoms: N_20  and  C_29
    2  A    between atoms: C_29  and  C_30
                            x       y       z     vdW  Elec       q    Type
                         _______ _______ _______ _____ _____    ______ ____

>  <TORSDO>
F 2

$$$$
=
 OpenBabel11112416373D

 32 37  0  0  1  0  0  0  0  0999 V2000
  189.3410  171.4310  138.9570 C   0  0  0  0  0  2  0  0  0  0  0  0
  188.7210  175.5820  142.1910 C   0  0  0  0  0  0  0  0  0  0  0  0
  191.3090  174.2970  145.6790 C   0  0  0  0  0  2  0  0  0  0  0  0
  190.7460  175.2280  146.7260 C   0  0  0  0  0  2  0  0  0  0  0  0
  186.6530  177.1450  142.4260 C   0  0  0  0  0  0  0  0  0  0  0  0
  185.7280  177.7950  143.3500 C   0  0  0  0  0  0  0  0  0  0  0  0
  189.1370  174.3420  140.0190 C   0  0  1  0  0  3  0  0  0  0  0  0
  190.8740  174.3510  141.8080 C   0  0  0  0  0  2  0  0  0  0  0  0
  185.0380  178.6700  145.3840 C   0  0  1  0  0  3  0  0  0  0  0  0
  191.1440  172.7070  139.9410 C   0  0  0  0  0  2  0  0  0  0  0  0
  191.7040  175.1470  144.4910 C   0  0  0  0  0  2  0  0  0  0  0  0
  189.9470  175.2100  142.6410 C   0  0  0  0  0  0  0  0  0  0  0  0
  190.4990  175.8760  143.8780 C   0  0  1  0  0  3  0  0  0  0  0  0
  188.2170  176.7710  144.2950 C   0  0  0  0  0  0  0  0  0  0  0  0
  184.0060  178.9760  144.2910 C   0  0  0  0  0  2  0  0  0  0  0  0
  188.1680  172.3790  139.2480 C   0  0  0  0  0  2  0  0  0  0  0  0
  190.1360  173.4740  140.8110 C   0  0  2  0  0  3  0  0  0  0  0  0
  184.6010  178.4020  143.0420 C   0  0  0  0  0  3  0  0  0  0  0  0
  188.5030  173.7080  138.9180 O   0  0  0  0  0  0  0  0  0  0  0  0
  190.5740  172.1800  138.6970 N   0  0  0  0  0  0  0  0  0  0  0  0
  189.4170  175.7990  146.2500 C   0  0  0  0  0  2  0  0  0  0  0  0
  189.4130  176.1830  144.8290 N   0  0  0  0  0  0  0  0  0  0  0  0
  187.4180  177.7150  145.1800 C   0  0  0  0  0  2  0  0  0  0  0  0
  188.1040  174.9210  140.9780 C   0  0  0  0  0  2  0  0  0  0  0  0
  186.4180  177.1360  141.1880 O   0  0  0  0  0  0  0  0  0  0  0  0
  184.3830  177.8690  146.4940 C   0  0  0  0  0  1  0  0  0  0  0  0
  187.8790  176.5250  143.0000 C   0  0  0  0  0  0  0  0  0  0  0  0
  186.0410  177.8630  144.7190 N   0  0  0  0  0  0  0  0  0  0  0  0
  191.5430  171.2370  138.1610 C   0  0  0  0  0  2  0  0  0  0  0  0
  190.8780  170.3030  137.1640 C   0  0  0  0  0  3  0  0  0  0  0  0
  191.0720  170.8230  135.7520 C   0  0  0  0  0  1  0  0  0  0  0  0
  191.4960  168.9270  137.2770 C   0  0  0  0  0  1  0  0  0  0  0  0
  1 16  1  0  0  0  0
  2 12  2  0  0  0  0
  2 27  1  0  0  0  0
  3  4  1  0  0  0  0
  5 27  1  0  0  0  0
  5  6  1  0  0  0  0
  6 28  1  0  0  0  0
  7 17  1  0  0  0  0
  7 24  1  1  0  0  0
  8 12  1  0  0  0  0
  9 26  1  1  0  0  0
 11  3  1  0  0  0  0
 12 13  1  0  0  0  0
 13 11  1  1  0  0  0
 13 22  1  0  0  0  0
 14 22  1  0  0  0  0
 14 23  1  0  0  0  0
 15  9  1  0  0  0  0
 17 10  1  6  0  0  0
 17  8  1  0  0  0  0
 18  6  2  0  0  0  0
 18 15  1  0  0  0  0
 19 16  1  0  0  0  0
 19  7  1  0  0  0  0
 20  1  1  0  0  0  0
 20 10  1  0  0  0  0
 21  4  1  0  0  0  0
 22 21  1  0  0  0  0
 24  2  1  0  0  0  0
 25  5  2  0  0  0  0
 27 14  2  0  0  0  0
 28 23  1  0  0  0  0
 28  9  1  0  0  0  0
 29 20  1  0  0  0  0
 30 32  1  0  0  0  0
 30 29  1  0  0  0  0
 31 30  1  0  0  0  0
M  END
>  <MODEL>
6

>  <REMARK>
 VINA RESULT:      -7.8      3.294      6.021
  Name = 
  2 active torsions:
  status: ('A' for Active; 'I' for Inactive)
    1  A    between atoms: N_20  and  C_29
    2  A    between atoms: C_29  and  C_30
                            x       y       z     vdW  Elec       q    Type
                         _______ _______ _______ _____ _____    ______ ____

>  <TORSDO>
F 2

$$$$
=
 OpenBabel11112416373D

 32 37  0  0  1  0  0  0  0  0999 V2000
  186.6960  178.7620  142.9090 C   0  0  0  0  0  2  0  0  0  0  0  0
  189.2750  174.1630  142.3880 C   0  0  0  0  0  0  0  0  0  0  0  0
  192.9180  174.9720  144.9550 C   0  0  0  0  0  2  0  0  0  0  0  0
  193.8140  173.8840  144.4140 C   0  0  0  0  0  2  0  0  0  0  0  0
  189.2730  172.5370  140.3550 C   0  0  0  0  0  0  0  0  0  0  0  0
  190.0890  171.7370  139.4470 C   0  0  0  0  0  0  0  0  0  0  0  0
  187.3120  175.7210  142.7720 C   0  0  1  0  0  3  0  0  0  0  0  0
  189.0820  175.4840  144.5120 C   0  0  0  0  0  2  0  0  0  0  0  0
  191.9690  170.5540  138.7810 C   0  0  1  0  0  3  0  0  0  0  0  0
  187.4810  177.3940  144.7420 C   0  0  0  0  0  2  0  0  0  0  0  0
  191.6170  174.3170  145.3650 C   0  0  0  0  0  2  0  0  0  0  0  0
  189.7770  174.4910  143.6060 C   0  0  0  0  0  0  0  0  0  0  0  0
  190.9010  173.6610  144.1760 C   0  0  1  0  0  3  0  0  0  0  0  0
  191.1790  172.6640  141.9150 C   0  0  0  0  0  0  0  0  0  0  0  0
  190.8410  170.3910  137.7530 C   0  0  0  0  0  2  0  0  0  0  0  0
  186.8410  177.7550  141.7580 C   0  0  0  0  0  2  0  0  0  0  0  0
  188.2250  176.4840  143.7530 C   0  0  2  0  0  3  0  0  0  0  0  0
  189.6930  171.1570  138.3330 C   0  0  0  0  0  3  0  0  0  0  0  0
  186.3170  176.4980  142.1220 O   0  0  0  0  0  0  0  0  0  0  0  0
  186.3280  178.0880  144.1570 N   0  0  0  0  0  0  0  0  0  0  0  0
  193.2580  173.3600  143.0980 C   0  0  0  0  0  2  0  0  0  0  0  0
  191.7950  173.1920  143.0990 N   0  0  0  0  0  0  0  0  0  0  0  0
  191.9120  171.5810  141.1390 C   0  0  0  0  0  2  0  0  0  0  0  0
  188.1730  174.9830  141.7540 C   0  0  0  0  0  2  0  0  0  0  0  0
  188.0500  172.7250  140.1170 O   0  0  0  0  0  0  0  0  0  0  0  0
  193.1850  171.1660  138.1110 C   0  0  0  0  0  1  0  0  0  0  0  0
  189.9330  173.0920  141.5690 C   0  0  0  0  0  0  0  0  0  0  0  0
  191.4320  171.4730  139.7650 N   0  0  0  0  0  0  0  0  0  0  0  0
  185.9400  179.1210  145.1050 C   0  0  0  0  0  2  0  0  0  0  0  0
  185.5640  178.5010  146.4400 C   0  0  0  0  0  3  0  0  0  0  0  0
  185.9790  179.4160  147.5760 C   0  0  0  0  0  1  0  0  0  0  0  0
  184.0670  178.2910  146.4920 C   0  0  0  0  0  1  0  0  0  0  0  0
  1 20  1  0  0  0  0
  2 12  2  0  0  0  0
  3 11  1  0  0  0  0
  4  3  1  0  0  0  0
  5 27  1  0  0  0  0
  6 28  1  0  0  0  0
  6  5  1  0  0  0  0
  7 24  1  6  0  0  0
  7 17  1  0  0  0  0
  9 26  1  6  0  0  0
  9 28  1  0  0  0  0
 12 13  1  0  0  0  0
 12  8  1  0  0  0  0
 13 11  1  1  0  0  0
 14 22  1  0  0  0  0
 15 18  1  0  0  0  0
 15  9  1  0  0  0  0
 16 19  1  0  0  0  0
 16  1  1  0  0  0  0
 17  8  1  1  0  0  0
 17 10  1  0  0  0  0
 18  6  2  0  0  0  0
 19  7  1  0  0  0  0
 20 10  1  0  0  0  0
 20 29  1  0  0  0  0
 21 22  1  0  0  0  0
 21  4  1  0  0  0  0
 22 13  1  0  0  0  0
 23 14  1  0  0  0  0
 24  2  1  0  0  0  0
 25  5  2  0  0  0  0
 27 14  2  0  0  0  0
 27  2  1  0  0  0  0
 28 23  1  0  0  0  0
 29 30  1  0  0  0  0
 30 32  1  0  0  0  0
 30 31  1  0  0  0  0
M  END
>  <MODEL>
7

>  <REMARK>
 VINA RESULT:      -7.8      2.964      8.526
  Name = 
  2 active torsions:
  status: ('A' for Active; 'I' for Inactive)
    1  A    between atoms: N_20  and  C_29
    2  A    between atoms: C_29  and  C_30
                            x       y       z     vdW  Elec       q    Type
                         _______ _______ _______ _____ _____    ______ ____

>  <TORSDO>
F 2

$$$$
=
 OpenBabel11112416373D

 32 37  0  0  1  0  0  0  0  0999 V2000
  186.6050  177.7020  143.9960 C   0  0  0  0  0  2  0  0  0  0  0  0
  191.0630  174.9660  143.1470 C   0  0  0  0  0  0  0  0  0  0  0  0
  193.5860  176.4160  146.6180 C   0  0  0  0  0  2  0  0  0  0  0  0
  194.9410  176.0100  146.0890 C   0  0  0  0  0  2  0  0  0  0  0  0
  192.0530  174.1660  140.8770 C   0  0  0  0  0  0  0  0  0  0  0  0
  193.2470  174.0840  140.0410 C   0  0  0  0  0  0  0  0  0  0  0  0
  188.5710  175.3800  143.3730 C   0  0  1  0  0  3  0  0  0  0  0  0
  190.0310  175.3970  145.3940 C   0  0  0  0  0  2  0  0  0  0  0  0
  195.5250  174.0410  139.6080 C   0  0  1  0  0  3  0  0  0  0  0  0
  187.7130  176.3090  145.6330 C   0  0  0  0  0  2  0  0  0  0  0  0
  192.6990  175.1920  146.5600 C   0  0  0  0  0  2  0  0  0  0  0  0
  191.2080  175.0970  144.4910 C   0  0  0  0  0  0  0  0  0  0  0  0
  192.5140  174.6810  145.1240 C   0  0  1  0  0  3  0  0  0  0  0  0
  193.4850  174.6050  142.8360 C   0  0  0  0  0  0  0  0  0  0  0  0
  194.7300  173.7370  138.3310 C   0  0  0  0  0  2  0  0  0  0  0  0
  187.3340  177.2350  142.7270 C   0  0  0  0  0  2  0  0  0  0  0  0
  188.9050  176.1260  144.6800 C   0  0  2  0  0  3  0  0  0  0  0  0
  193.2980  173.7490  138.7680 C   0  0  0  0  0  3  0  0  0  0  0  0
  187.4130  175.8280  142.6830 O   0  0  0  0  0  0  0  0  0  0  0  0
  186.4480  176.6010  144.9500 N   0  0  0  0  0  0  0  0  0  0  0  0
  194.8490  175.7180  144.5980 C   0  0  0  0  0  2  0  0  0  0  0  0
  193.6430  174.9660  144.2160 N   0  0  0  0  0  0  0  0  0  0  0  0
  194.7210  174.2060  142.0460 C   0  0  0  0  0  2  0  0  0  0  0  0
  189.7880  175.4030  142.4570 C   0  0  0  0  0  2  0  0  0  0  0  0
  190.9190  173.8910  140.4000 O   0  0  0  0  0  0  0  0  0  0  0  0
  196.3880  175.2700  139.3900 C   0  0  0  0  0  1  0  0  0  0  0  0
  192.2330  174.5600  142.3010 C   0  0  0  0  0  0  0  0  0  0  0  0
  194.5120  174.3200  140.6060 N   0  0  0  0  0  0  0  0  0  0  0  0
  185.5160  177.0490  145.9740 C   0  0  0  0  0  2  0  0  0  0  0  0
  185.4580  178.5680  146.0070 C   0  0  0  0  0  3  0  0  0  0  0  0
  184.0370  179.0410  145.7630 C   0  0  0  0  0  1  0  0  0  0  0  0
  185.9200  179.0570  147.3620 C   0  0  0  0  0  1  0  0  0  0  0  0
  1 20  1  0  0  0  0
  2 12  2  0  0  0  0
  4  3  1  0  0  0  0
  5 27  1  0  0  0  0
  6 28  1  0  0  0  0
  6  5  1  0  0  0  0
  7 24  1  6  0  0  0
  7 17  1  0  0  0  0
  9 26  1  6  0  0  0
  9 28  1  0  0  0  0
 11  3  1  0  0  0  0
 12 13  1  0  0  0  0
 12  8  1  0  0  0  0
 13 11  1  1  0  0  0
 14 22  1  0  0  0  0
 15 18  1  0  0  0  0
 15  9  1  0  0  0  0
 16  1  1  0  0  0  0
 17  8  1  1  0  0  0
 17 10  1  0  0  0  0
 18  6  2  0  0  0  0
 19 16  1  0  0  0  0
 19  7  1  0  0  0  0
 20 10  1  0  0  0  0
 20 29  1  0  0  0  0
 21  4  1  0  0  0  0
 22 21  1  0  0  0  0
 22 13  1  0  0  0  0
 23 14  1  0  0  0  0
 24  2  1  0  0  0  0
 25  5  2  0  0  0  0
 27 14  2  0  0  0  0
 27  2  1  0  0  0  0
 28 23  1  0  0  0  0
 29 30  1  0  0  0  0
 30 32  1  0  0  0  0
 31 30  1  0  0  0  0
M  END
>  <MODEL>
8

>  <REMARK>
 VINA RESULT:      -7.7      2.786      8.631
  Name = 
  2 active torsions:
  status: ('A' for Active; 'I' for Inactive)
    1  A    between atoms: N_20  and  C_29
    2  A    between atoms: C_29  and  C_30
                            x       y       z     vdW  Elec       q    Type
                         _______ _______ _______ _____ _____    ______ ____

>  <TORSDO>
F 2

$$$$
=
 OpenBabel11112416373D

 32 37  0  0  1  0  0  0  0  0999 V2000
  186.9150  176.9780  145.9340 C   0  0  0  0  0  2  0  0  0  0  0  0
  190.8270  174.2390  143.6390 C   0  0  0  0  0  0  0  0  0  0  0  0
  188.6990  172.7140  139.9420 C   0  0  0  0  0  2  0  0  0  0  0  0
  189.6490  171.5960  139.5870 C   0  0  0  0  0  2  0  0  0  0  0  0
  192.8070  172.9950  144.7810 C   0  0  0  0  0  0  0  0  0  0  0  0
  193.5800  171.7580  144.8480 C   0  0  0  0  0  0  0  0  0  0  0  0
  189.7000  176.1840  144.8120 C   0  0  1  0  0  3  0  0  0  0  0  0
  189.1600  175.6750  142.4320 C   0  0  0  0  0  2  0  0  0  0  0  0
  194.4290  169.7510  144.0560 C   0  0  1  0  0  3  0  0  0  0  0  0
  187.6510  177.2580  143.6470 C   0  0  0  0  0  2  0  0  0  0  0  0
  189.5240  173.9730  140.0880 C   0  0  0  0  0  2  0  0  0  0  0  0
  190.1430  174.5260  142.5010 C   0  0  0  0  0  0  0  0  0  0  0  0
  190.5610  173.8570  141.2140 C   0  0  1  0  0  3  0  0  0  0  0  0
  191.9300  172.2980  142.5850 C   0  0  0  0  0  0  0  0  0  0  0  0
  195.0540  170.0990  145.4140 C   0  0  0  0  0  2  0  0  0  0  0  0
  188.0860  176.1470  146.4800 C   0  0  0  0  0  2  0  0  0  0  0  0
  188.5620  176.0280  143.7830 C   0  0  2  0  0  3  0  0  0  0  0  0
  194.4580  171.4250  145.7720 C   0  0  0  0  0  3  0  0  0  0  0  0
  189.3210  176.6970  146.0810 O   0  0  0  0  0  0  0  0  0  0  0  0
  187.3720  177.9330  144.9200 N   0  0  0  0  0  0  0  0  0  0  0  0
  190.5520  171.2860  140.7720 C   0  0  0  0  0  2  0  0  0  0  0  0
  191.0370  172.4850  141.4760 N   0  0  0  0  0  0  0  0  0  0  0  0
  192.9620  171.1840  142.5040 C   0  0  0  0  0  2  0  0  0  0  0  0
  190.4270  174.8530  144.9620 C   0  0  0  0  0  2  0  0  0  0  0  0
  192.9520  173.8870  145.6600 O   0  0  0  0  0  0  0  0  0  0  0  0
  193.7190  168.4130  144.1500 C   0  0  0  0  0  1  0  0  0  0  0  0
  191.8730  173.1640  143.6340 C   0  0  0  0  0  0  0  0  0  0  0  0
  193.4640  170.8070  143.8210 N   0  0  0  0  0  0  0  0  0  0  0  0
  186.2740  178.8530  144.6710 C   0  0  0  0  0  2  0  0  0  0  0  0
  184.9450  178.1190  144.7270 C   0  0  0  0  0  3  0  0  0  0  0  0
  184.0910  178.6690  145.8540 C   0  0  0  0  0  1  0  0  0  0  0  0
  184.2150  178.3030  143.4140 C   0  0  0  0  0  1  0  0  0  0  0  0
  1 16  1  0  0  0  0
  2 24  1  0  0  0  0
  3 11  1  0  0  0  0
  4  3  1  0  0  0  0
  4 21  1  0  0  0  0
  5  6  1  0  0  0  0
  5 25  2  0  0  0  0
  6 18  2  0  0  0  0
  7 24  1  1  0  0  0
  7 19  1  0  0  0  0
  8 12  1  0  0  0  0
  9 26  1  1  0  0  0
  9 15  1  0  0  0  0
 10 17  1  0  0  0  0
 10 20  1  0  0  0  0
 12  2  2  0  0  0  0
 13 11  1  6  0  0  0
 13 22  1  0  0  0  0
 13 12  1  0  0  0  0
 14 27  2  0  0  0  0
 15 18  1  0  0  0  0
 17  8  1  6  0  0  0
 17  7  1  0  0  0  0
 19 16  1  0  0  0  0
 20  1  1  0  0  0  0
 21 22  1  0  0  0  0
 22 14  1  0  0  0  0
 23 14  1  0  0  0  0
 23 28  1  0  0  0  0
 27  2  1  0  0  0  0
 27  5  1  0  0  0  0
 28  9  1  0  0  0  0
 28  6  1  0  0  0  0
 29 30  1  0  0  0  0
 29 20  1  0  0  0  0
 30 31  1  0  0  0  0
 32 30  1  0  0  0  0
M  END
>  <MODEL>
9

>  <REMARK>
 VINA RESULT:      -7.4      2.267      8.094
  Name = 
  2 active torsions:
  status: ('A' for Active; 'I' for Inactive)
    1  A    between atoms: N_20  and  C_29
    2  A    between atoms: C_29  and  C_30
                            x       y       z     vdW  Elec       q    Type
                         _______ _______ _______ _____ _____    ______ ____

>  <TORSDO>
F 2

$$$$
