=
 OpenBabel11112417443D

 34 41  0  0  1  0  0  0  0  0999 V2000
  188.9820  175.6320  142.8180 C   0  0  1  0  0  3  0  0  0  0  0  0
  191.4420  174.8650  142.5660 C   0  0  0  0  0  3  0  0  0  0  0  0
  184.4800  178.8840  146.2290 C   0  0  0  0  0  0  0  0  0  0  0  0
  186.9740  177.1010  143.1620 C   0  0  0  0  0  0  0  0  0  0  0  0
  186.6200  178.2850  145.2480 C   0  0  0  0  0  0  0  0  0  0  0  0
  186.0270  179.0990  147.4970 C   0  0  0  0  0  2  0  0  0  0  0  0
  184.6520  178.8010  147.6590 O   0  0  0  0  0  0  0  0  0  0  0  0
  183.7300  178.7260  143.9790 C   0  0  0  0  0  3  0  0  0  0  0  0
  190.7800  175.8400  144.5530 C   0  0  0  0  0  0  0  0  0  0  0  0
  192.0450  175.1530  147.2420 C   0  0  0  0  0  3  0  0  0  0  0  0
  187.8190  177.8170  145.6910 N   0  0  0  0  0  0  0  0  0  0  0  0
  184.8790  178.4120  143.3580 C   0  0  0  0  0  3  0  0  0  0  0  0
  189.8990  176.4980  145.5650 C   0  0  1  0  0  3  0  0  0  0  0  0
  192.4840  174.7420  143.5840 N   0  0  0  0  0  0  0  0  0  0  0  0
  186.1590  177.9280  143.9540 C   0  0  0  0  0  0  0  0  0  0  0  0
  183.5210  178.6690  145.3950 N   0  0  0  0  0  0  0  0  0  0  0  0
  192.6880  175.3210  146.0770 C   0  0  0  0  0  0  0  0  0  0  0  0
  188.1900  176.6080  143.6650 C   0  0  0  0  0  0  0  0  0  0  0  0
  185.8930  179.2990  146.0830 C   0  0  2  0  0  3  0  0  0  0  0  0
  188.6010  176.9790  144.9610 C   0  0  0  0  0  0  0  0  0  0  0  0
  187.3910  176.1860  140.9820 C   0  0  0  0  0  3  0  0  0  0  0  0
  190.5870  175.0230  147.4590 C   0  0  0  0  0  3  0  0  0  0  0  0
  186.5710  176.7380  141.8280 N   0  0  0  0  0  0  0  0  0  0  0  0
  189.6280  175.5750  146.7110 C   0  0  0  0  0  3  0  0  0  0  0  0
  191.9800  175.3440  144.7710 C   0  0  0  0  0  0  0  0  0  0  0  0
  188.8370  175.9760  141.3340 C   0  0  0  0  0  2  0  0  0  0  0  0
  190.3860  175.6370  143.2090 N   0  0  0  0  0  0  0  0  0  0  0  0
  194.1170  175.4190  146.1380 N   0  0  0  0  0  2  0  0  0  0  0  0
  195.0410  174.3890  145.6850 C   0  0  0  0  0  2  0  0  0  0  0  0
  195.7060  174.7870  142.5140 O   0  0  0  0  0  0  0  0  0  0  0  0
  195.6930  176.3310  144.2980 C   0  0  0  0  0  2  0  0  0  0  0  0
  196.1410  175.0030  144.8350 C   0  0  2  0  0  3  0  0  0  0  0  0
  195.7590  176.1580  142.8010 C   0  0  0  0  0  2  0  0  0  0  0  0
  196.3480  174.1630  143.5950 C   0  0  0  0  0  2  0  0  0  0  0  0
  1 26  1  6  0  0  0
  1 27  1  0  0  0  0
  1 18  1  0  0  0  0
  2 27  1  0  0  0  0
  2 14  2  0  0  0  0
  3  7  1  0  0  0  0
  4 18  2  0  0  0  0
  4 15  1  0  0  0  0
  5 11  1  0  0  0  0
  5 19  1  0  0  0  0
  6  7  1  0  0  0  0
  8 16  1  0  0  0  0
  9 25  2  0  0  0  0
  9 13  1  0  0  0  0
 10 22  1  0  0  0  0
 12 15  1  0  0  0  0
 12  8  2  0  0  0  0
 13 24  1  1  0  0  0
 14 25  1  0  0  0  0
 15  5  2  0  0  0  0
 16  3  2  0  0  0  0
 17 28  1  0  0  0  0
 17 10  2  0  0  0  0
 18 20  1  0  0  0  0
 19  3  1  0  0  0  0
 19  6  1  1  0  0  0
 20 13  1  0  0  0  0
 20 11  2  0  0  0  0
 21 26  1  0  0  0  0
 21 23  2  0  0  0  0
 23  4  1  0  0  0  0
 24 22  2  0  0  0  0
 25 17  1  0  0  0  0
 27  9  1  0  0  0  0
 29 28  1  0  0  0  0
 30 33  1  0  0  0  0
 30 34  1  0  0  0  0
 31 32  1  0  0  0  0
 32 29  1  1  0  0  0
 33 31  1  0  0  0  0
 34 32  1  0  0  0  0
M  END
>  <MODEL>
1

>  <REMARK>
 VINA RESULT:      -8.5      0.000      0.000
  Name = 
  3 active torsions:
  status: ('A' for Active; 'I' for Inactive)
    1  A    between atoms: C_17  and  N_28
    2  A    between atoms: N_28  and  C_29
    3  A    between atoms: C_29  and  C_32
                            x       y       z     vdW  Elec       q    Type
                         _______ _______ _______ _____ _____    ______ ____

>  <TORSDO>
F 3

$$$$
=
 OpenBabel11112417443D

 34 41  0  0  1  0  0  0  0  0999 V2000
  192.1280  175.6490  145.5670 C   0  0  1  0  0  3  0  0  0  0  0  0
  189.7100  176.1320  146.3560 C   0  0  0  0  0  3  0  0  0  0  0  0
  196.3830  175.0920  140.6620 C   0  0  0  0  0  0  0  0  0  0  0  0
  194.3400  175.8890  144.4040 C   0  0  0  0  0  0  0  0  0  0  0  0
  194.5020  175.8750  141.9840 C   0  0  0  0  0  0  0  0  0  0  0  0
  194.7160  175.3940  139.5770 C   0  0  0  0  0  2  0  0  0  0  0  0
  195.8250  174.5210  139.4600 O   0  0  0  0  0  0  0  0  0  0  0  0
  197.6030  175.5600  142.6480 C   0  0  0  0  0  3  0  0  0  0  0  0
  190.1080  175.8600  144.0970 C   0  0  0  0  0  0  0  0  0  0  0  0
  188.0300  174.7360  142.1680 C   0  0  0  0  0  3  0  0  0  0  0  0
  193.1430  175.8060  141.9170 N   0  0  0  0  0  0  0  0  0  0  0  0
  196.6190  176.0230  143.4370 C   0  0  0  0  0  3  0  0  0  0  0  0
  190.8570  175.6310  142.8240 C   0  0  1  0  0  3  0  0  0  0  0  0
  188.4560  176.0500  145.6090 N   0  0  0  0  0  0  0  0  0  0  0  0
  195.1430  175.9130  143.2500 C   0  0  0  0  0  0  0  0  0  0  0  0
  197.4020  174.8580  141.4150 N   0  0  0  0  0  0  0  0  0  0  0  0
  187.8060  175.6060  143.1640 C   0  0  0  0  0  0  0  0  0  0  0  0
  192.9440  175.7830  144.2960 C   0  0  0  0  0  0  0  0  0  0  0  0
  195.2740  176.0710  140.7120 C   0  0  2  0  0  3  0  0  0  0  0  0
  192.3510  175.7340  143.0180 C   0  0  0  0  0  0  0  0  0  0  0  0
  194.2350  176.1870  146.7830 C   0  0  0  0  0  3  0  0  0  0  0  0
  189.2540  173.9440  141.9170 C   0  0  0  0  0  3  0  0  0  0  0  0
  194.9380  175.9620  145.7120 N   0  0  0  0  0  0  0  0  0  0  0  0
  190.5010  174.3040  142.2330 C   0  0  0  0  0  3  0  0  0  0  0  0
  188.7990  175.8590  144.2400 C   0  0  0  0  0  0  0  0  0  0  0  0
  192.7610  176.4670  146.6950 C   0  0  0  0  0  2  0  0  0  0  0  0
  190.7520  176.0720  145.3390 N   0  0  0  0  0  0  0  0  0  0  0  0
  186.5250  176.2490  143.1830 N   0  0  0  0  0  2  0  0  0  0  0  0
  186.3010  177.6660  142.9310 C   0  0  0  0  0  2  0  0  0  0  0  0
  184.1520  179.6230  144.4150 O   0  0  0  0  0  0  0  0  0  0  0  0
  185.2730  177.6940  145.1810 C   0  0  0  0  0  2  0  0  0  0  0  0
  186.1890  178.4240  144.2430 C   0  0  2  0  0  3  0  0  0  0  0  0
  184.1710  178.6870  145.4580 C   0  0  0  0  0  2  0  0  0  0  0  0
  185.4880  179.7420  144.0060 C   0  0  0  0  0  2  0  0  0  0  0  0
  1 26  1  1  0  0  0
  3 19  1  0  0  0  0
  3 16  2  0  0  0  0
  4 23  1  0  0  0  0
  5 15  1  0  0  0  0
  7  6  1  0  0  0  0
  7  3  1  0  0  0  0
  8 12  2  0  0  0  0
  9 25  2  0  0  0  0
  9 27  1  0  0  0  0
 10 17  2  0  0  0  0
 11  5  2  0  0  0  0
 11 20  1  0  0  0  0
 13 24  1  1  0  0  0
 13 20  1  0  0  0  0
 13  9  1  0  0  0  0
 14  2  2  0  0  0  0
 15 12  1  0  0  0  0
 15  4  2  0  0  0  0
 16  8  1  0  0  0  0
 17 28  1  0  0  0  0
 17 25  1  0  0  0  0
 18  4  1  0  0  0  0
 18  1  1  0  0  0  0
 19  6  1  6  0  0  0
 19  5  1  0  0  0  0
 20 18  2  0  0  0  0
 22 10  1  0  0  0  0
 22 24  2  0  0  0  0
 23 21  2  0  0  0  0
 25 14  1  0  0  0  0
 26 21  1  0  0  0  0
 27  1  1  0  0  0  0
 27  2  1  0  0  0  0
 29 28  1  0  0  0  0
 30 33  1  0  0  0  0
 31 33  1  0  0  0  0
 32 29  1  6  0  0  0
 32 31  1  0  0  0  0
 34 32  1  0  0  0  0
 34 30  1  0  0  0  0
M  END
>  <MODEL>
2

>  <REMARK>
 VINA RESULT:      -8.3      1.926      9.115
  Name = 
  3 active torsions:
  status: ('A' for Active; 'I' for Inactive)
    1  A    between atoms: C_17  and  N_28
    2  A    between atoms: N_28  and  C_29
    3  A    between atoms: C_29  and  C_32
                            x       y       z     vdW  Elec       q    Type
                         _______ _______ _______ _____ _____    ______ ____

>  <TORSDO>
F 3

$$$$
=
 OpenBabel11112417443D

 34 41  0  0  1  0  0  0  0  0999 V2000
  192.5440  175.7340  145.6120 C   0  0  1  0  0  3  0  0  0  0  0  0
  190.5630  176.8950  146.8070 C   0  0  0  0  0  3  0  0  0  0  0  0
  195.4050  173.9200  140.0440 C   0  0  0  0  0  0  0  0  0  0  0  0
  194.4570  175.3190  144.0380 C   0  0  0  0  0  0  0  0  0  0  0  0
  194.1170  175.2230  141.6390 C   0  0  0  0  0  0  0  0  0  0  0  0
  193.7020  174.6660  139.2750 C   0  0  0  0  0  2  0  0  0  0  0  0
  194.4810  173.5120  139.0130 O   0  0  0  0  0  0  0  0  0  0  0  0
  197.0800  174.0520  141.7250 C   0  0  0  0  0  3  0  0  0  0  0  0
  190.4080  176.4880  144.5380 C   0  0  0  0  0  0  0  0  0  0  0  0
  187.7570  175.9710  143.1210 C   0  0  0  0  0  3  0  0  0  0  0  0
  192.8080  175.5420  141.8340 N   0  0  0  0  0  0  0  0  0  0  0  0
  196.4420  174.7870  142.6510 C   0  0  0  0  0  3  0  0  0  0  0  0
  190.7930  176.0360  143.1670 C   0  0  1  0  0  3  0  0  0  0  0  0
  189.2110  177.1600  146.3170 N   0  0  0  0  0  0  0  0  0  0  0  0
  194.9860  175.0970  142.7540 C   0  0  0  0  0  0  0  0  0  0  0  0
  196.4500  173.4180  140.6060 N   0  0  0  0  0  0  0  0  0  0  0  0
  187.9860  176.8830  144.0770 C   0  0  0  0  0  0  0  0  0  0  0  0
  193.0930  175.6120  144.2040 C   0  0  0  0  0  0  0  0  0  0  0  0
  194.6410  175.1730  140.2330 C   0  0  2  0  0  3  0  0  0  0  0  0
  192.2650  175.7140  143.0680 C   0  0  0  0  0  0  0  0  0  0  0  0
  194.9180  175.6700  146.3670 C   0  0  0  0  0  3  0  0  0  0  0  0
  188.6400  174.8600  142.7010 C   0  0  0  0  0  3  0  0  0  0  0  0
  195.3020  175.2390  145.2010 N   0  0  0  0  0  0  0  0  0  0  0  0
  189.9740  174.8560  142.7490 C   0  0  0  0  0  3  0  0  0  0  0  0
  189.2050  176.8600  144.9260 C   0  0  0  0  0  0  0  0  0  0  0  0
  193.5920  176.3550  146.5390 C   0  0  0  0  0  2  0  0  0  0  0  0
  191.3220  176.5260  145.6180 N   0  0  0  0  0  0  0  0  0  0  0  0
  186.9620  177.8630  144.2930 N   0  0  0  0  0  2  0  0  0  0  0  0
  185.5310  177.6020  144.2100 C   0  0  0  0  0  2  0  0  0  0  0  0
  186.0480  177.1720  147.4040 O   0  0  0  0  0  0  0  0  0  0  0  0
  185.5660  179.1200  146.1640 C   0  0  0  0  0  2  0  0  0  0  0  0
  184.8520  177.9680  145.5190 C   0  0  2  0  0  3  0  0  0  0  0  0
  186.0120  178.5700  147.4960 C   0  0  0  0  0  2  0  0  0  0  0  0
  185.0210  176.8380  146.5090 C   0  0  0  0  0  2  0  0  0  0  0  0
  1 27  1  0  0  0  0
  1 26  1  1  0  0  0
  3 19  1  0  0  0  0
  3 16  2  0  0  0  0
  4 18  1  0  0  0  0
  4 23  1  0  0  0  0
  5 11  2  0  0  0  0
  5 15  1  0  0  0  0
  7  6  1  0  0  0  0
  7  3  1  0  0  0  0
  8 12  2  0  0  0  0
  9 25  2  0  0  0  0
  9 27  1  0  0  0  0
 10 17  2  0  0  0  0
 11 20  1  0  0  0  0
 12 15  1  0  0  0  0
 13 24  1  1  0  0  0
 13  9  1  0  0  0  0
 14  2  2  0  0  0  0
 15  4  2  0  0  0  0
 16  8  1  0  0  0  0
 17 28  1  0  0  0  0
 17 25  1  0  0  0  0
 18  1  1  0  0  0  0
 19  6  1  6  0  0  0
 19  5  1  0  0  0  0
 20 13  1  0  0  0  0
 20 18  2  0  0  0  0
 21 26  1  0  0  0  0
 22 24  2  0  0  0  0
 22 10  1  0  0  0  0
 23 21  2  0  0  0  0
 25 14  1  0  0  0  0
 27  2  1  0  0  0  0
 29 28  1  0  0  0  0
 30 33  1  0  0  0  0
 31 33  1  0  0  0  0
 32 29  1  6  0  0  0
 32 31  1  0  0  0  0
 32 34  1  0  0  0  0
 34 30  1  0  0  0  0
M  END
>  <MODEL>
3

>  <REMARK>
 VINA RESULT:      -8.0      2.037      9.025
  Name = 
  3 active torsions:
  status: ('A' for Active; 'I' for Inactive)
    1  A    between atoms: C_17  and  N_28
    2  A    between atoms: N_28  and  C_29
    3  A    between atoms: C_29  and  C_32
                            x       y       z     vdW  Elec       q    Type
                         _______ _______ _______ _____ _____    ______ ____

>  <TORSDO>
F 3

$$$$
=
 OpenBabel11112417443D

 34 41  0  0  1  0  0  0  0  0999 V2000
  188.6330  177.8060  146.5610 C   0  0  1  0  0  3  0  0  0  0  0  0
  190.6030  176.9420  148.0020 C   0  0  0  0  0  3  0  0  0  0  0  0
  185.5660  177.9230  140.8120 C   0  0  0  0  0  0  0  0  0  0  0  0
  186.6600  177.8370  145.0080 C   0  0  0  0  0  0  0  0  0  0  0  0
  186.8590  177.1130  142.7020 C   0  0  0  0  0  0  0  0  0  0  0  0
  187.1660  176.8290  140.2730 C   0  0  0  0  0  2  0  0  0  0  0  0
  186.4500  177.8930  139.6720 O   0  0  0  0  0  0  0  0  0  0  0  0
  183.9910  178.4870  142.5000 C   0  0  0  0  0  3  0  0  0  0  0  0
  190.6470  176.5700  145.7230 C   0  0  0  0  0  0  0  0  0  0  0  0
  193.2360  176.3750  144.1220 C   0  0  0  0  0  3  0  0  0  0  0  0
  188.1540  176.7700  142.9450 N   0  0  0  0  0  0  0  0  0  0  0  0
  184.6340  178.0460  143.5940 C   0  0  0  0  0  3  0  0  0  0  0  0
  190.2100  176.5770  144.2940 C   0  0  1  0  0  3  0  0  0  0  0  0
  191.9020  176.4210  147.5810 N   0  0  0  0  0  0  0  0  0  0  0  0
  186.0700  177.6680  143.7430 C   0  0  0  0  0  0  0  0  0  0  0  0
  184.5920  178.6660  141.2130 N   0  0  0  0  0  0  0  0  0  0  0  0
  193.0050  175.8480  145.3330 C   0  0  0  0  0  0  0  0  0  0  0  0
  188.0100  177.5040  145.2130 C   0  0  0  0  0  0  0  0  0  0  0  0
  186.2560  176.7430  141.3780 C   0  0  2  0  0  3  0  0  0  0  0  0
  188.7590  176.9680  144.1460 C   0  0  0  0  0  0  0  0  0  0  0  0
  186.3190  178.3080  147.3360 C   0  0  0  0  0  3  0  0  0  0  0  0
  192.4040  177.3540  143.3890 C   0  0  0  0  0  3  0  0  0  0  0  0
  185.8950  178.3630  146.1080 N   0  0  0  0  0  0  0  0  0  0  0  0
  191.0780  177.4840  143.4800 C   0  0  0  0  0  3  0  0  0  0  0  0
  191.8440  176.2480  146.1690 C   0  0  0  0  0  0  0  0  0  0  0  0
  187.6050  177.6100  147.6780 C   0  0  0  0  0  2  0  0  0  0  0  0
  189.7990  176.9620  146.7860 N   0  0  0  0  0  0  0  0  0  0  0  0
  193.9740  174.9120  145.8250 N   0  0  0  0  0  2  0  0  0  0  0  0
  194.0220  173.5010  145.4690 C   0  0  0  0  0  2  0  0  0  0  0  0
  196.4430  174.2400  143.4080 O   0  0  0  0  0  0  0  0  0  0  0  0
  196.4050  174.0960  145.7630 C   0  0  0  0  0  2  0  0  0  0  0  0
  195.4570  173.0680  145.2170 C   0  0  2  0  0  3  0  0  0  0  0  0
  197.1920  174.5410  144.5540 C   0  0  0  0  0  2  0  0  0  0  0  0
  195.7330  173.0740  143.7310 C   0  0  0  0  0  2  0  0  0  0  0  0
  1 27  1  0  0  0  0
  1 26  1  1  0  0  0
  3 16  2  0  0  0  0
  3 19  1  0  0  0  0
  4 18  1  0  0  0  0
  4 23  1  0  0  0  0
  5 11  2  0  0  0  0
  5 15  1  0  0  0  0
  7  6  1  0  0  0  0
  7  3  1  0  0  0  0
  8 12  2  0  0  0  0
  9 25  2  0  0  0  0
  9 27  1  0  0  0  0
 10 17  2  0  0  0  0
 11 20  1  0  0  0  0
 12 15  1  0  0  0  0
 13 24  1  6  0  0  0
 13  9  1  0  0  0  0
 14  2  2  0  0  0  0
 15  4  2  0  0  0  0
 16  8  1  0  0  0  0
 17 28  1  0  0  0  0
 17 25  1  0  0  0  0
 18  1  1  0  0  0  0
 19  6  1  6  0  0  0
 19  5  1  0  0  0  0
 20 13  1  0  0  0  0
 20 18  2  0  0  0  0
 21 26  1  0  0  0  0
 22 24  2  0  0  0  0
 22 10  1  0  0  0  0
 23 21  2  0  0  0  0
 25 14  1  0  0  0  0
 27  2  1  0  0  0  0
 29 28  1  0  0  0  0
 30 34  1  0  0  0  0
 30 33  1  0  0  0  0
 32 29  1  6  0  0  0
 32 31  1  0  0  0  0
 33 31  1  0  0  0  0
 34 32  1  0  0  0  0
M  END
>  <MODEL>
4

>  <REMARK>
 VINA RESULT:      -7.9      2.155      3.906
  Name = 
  3 active torsions:
  status: ('A' for Active; 'I' for Inactive)
    1  A    between atoms: C_17  and  N_28
    2  A    between atoms: N_28  and  C_29
    3  A    between atoms: C_29  and  C_32
                            x       y       z     vdW  Elec       q    Type
                         _______ _______ _______ _____ _____    ______ ____

>  <TORSDO>
F 3

$$$$
=
 OpenBabel11112417443D

 34 41  0  0  1  0  0  0  0  0999 V2000
  190.8790  174.1570  140.8640 C   0  0  1  0  0  3  0  0  0  0  0  0
  188.4090  174.0890  141.6370 C   0  0  0  0  0  3  0  0  0  0  0  0
  197.0790  175.6990  142.1490 C   0  0  0  0  0  0  0  0  0  0  0  0
  193.3730  173.8620  140.8480 C   0  0  0  0  0  0  0  0  0  0  0  0
  194.7850  174.9730  142.4760 C   0  0  0  0  0  0  0  0  0  0  0  0
  196.2350  176.4500  143.8140 C   0  0  0  0  0  2  0  0  0  0  0  0
  197.2370  176.9060  142.9230 O   0  0  0  0  0  0  0  0  0  0  0  0
  197.0700  174.0140  140.4730 C   0  0  0  0  0  3  0  0  0  0  0  0
  189.9370  175.2680  142.9050 C   0  0  0  0  0  0  0  0  0  0  0  0
  189.1860  177.7230  144.5520 C   0  0  0  0  0  3  0  0  0  0  0  0
  193.6660  175.4580  143.0810 N   0  0  0  0  0  0  0  0  0  0  0  0
  195.8190  173.5420  140.6050 C   0  0  0  0  0  3  0  0  0  0  0  0
  191.2440  175.8430  143.3470 C   0  0  1  0  0  3  0  0  0  0  0  0
  187.7370  174.8770  142.6680 N   0  0  0  0  0  0  0  0  0  0  0  0
  194.6630  174.1540  141.3230 C   0  0  0  0  0  0  0  0  0  0  0  0
  197.5480  175.2390  141.0400 N   0  0  0  0  0  0  0  0  0  0  0  0
  188.4720  176.5940  144.4320 C   0  0  0  0  0  0  0  0  0  0  0  0
  192.2420  174.4090  141.4770 C   0  0  0  0  0  0  0  0  0  0  0  0
  196.1120  175.1870  143.1440 C   0  0  2  0  0  3  0  0  0  0  0  0
  192.4120  175.2280  142.6110 C   0  0  0  0  0  0  0  0  0  0  0  0
  192.0290  172.5180  139.3810 C   0  0  0  0  0  3  0  0  0  0  0  0
  190.3570  178.1420  143.7510 C   0  0  0  0  0  3  0  0  0  0  0  0
  193.1910  173.0070  139.7030 N   0  0  0  0  0  0  0  0  0  0  0  0
  191.2510  177.3300  143.1820 C   0  0  0  0  0  3  0  0  0  0  0  0
  188.7490  175.5840  143.3770 C   0  0  0  0  0  0  0  0  0  0  0  0
  190.8240  172.7580  140.2450 C   0  0  0  0  0  2  0  0  0  0  0  0
  189.8310  174.3150  141.8640 N   0  0  0  0  0  0  0  0  0  0  0  0
  187.3740  176.4250  145.3370 N   0  0  0  0  0  2  0  0  0  0  0  0
  187.4650  176.5440  146.7860 C   0  0  0  0  0  2  0  0  0  0  0  0
  185.5870  179.2070  146.5940 O   0  0  0  0  0  0  0  0  0  0  0  0
  185.0640  176.9220  146.3260 C   0  0  0  0  0  2  0  0  0  0  0  0
  186.1460  177.0340  147.3590 C   0  0  2  0  0  3  0  0  0  0  0  0
  184.5770  178.3400  146.1550 C   0  0  0  0  0  2  0  0  0  0  0  0
  186.2340  178.5180  147.6310 C   0  0  0  0  0  2  0  0  0  0  0  0
  1 26  1  1  0  0  0
  1 18  1  0  0  0  0
  1 27  1  0  0  0  0
  2 27  1  0  0  0  0
  2 14  2  0  0  0  0
  3  7  1  0  0  0  0
  3 19  1  0  0  0  0
  4 15  2  0  0  0  0
  4 18  1  0  0  0  0
  5 11  2  0  0  0  0
  5 19  1  0  0  0  0
  7  6  1  0  0  0  0
  8 12  2  0  0  0  0
  8 16  1  0  0  0  0
  9 13  1  0  0  0  0
  9 25  2  0  0  0  0
 12 15  1  0  0  0  0
 13 24  1  6  0  0  0
 14 25  1  0  0  0  0
 15  5  1  0  0  0  0
 16  3  2  0  0  0  0
 17 10  2  0  0  0  0
 17 28  1  0  0  0  0
 18 20  2  0  0  0  0
 19  6  1  1  0  0  0
 20 11  1  0  0  0  0
 20 13  1  0  0  0  0
 21 23  2  0  0  0  0
 21 26  1  0  0  0  0
 22 10  1  0  0  0  0
 23  4  1  0  0  0  0
 24 22  2  0  0  0  0
 25 17  1  0  0  0  0
 27  9  1  0  0  0  0
 28 29  1  0  0  0  0
 30 34  1  0  0  0  0
 31 32  1  0  0  0  0
 32 29  1  6  0  0  0
 32 34  1  0  0  0  0
 33 31  1  0  0  0  0
 33 30  1  0  0  0  0
M  END
>  <MODEL>
5

>  <REMARK>
 VINA RESULT:      -7.9      2.308      8.701
  Name = 
  3 active torsions:
  status: ('A' for Active; 'I' for Inactive)
    1  A    between atoms: C_17  and  N_28
    2  A    between atoms: N_28  and  C_29
    3  A    between atoms: C_29  and  C_32
                            x       y       z     vdW  Elec       q    Type
                         _______ _______ _______ _____ _____    ______ ____

>  <TORSDO>
F 3

$$$$
=
 OpenBabel11112417443D

 34 41  0  0  1  0  0  0  0  0999 V2000
  188.1180  175.6230  141.9520 C   0  0  1  0  0  3  0  0  0  0  0  0
  190.3370  174.5800  141.1210 C   0  0  0  0  0  3  0  0  0  0  0  0
  184.8160  178.6680  146.6750 C   0  0  0  0  0  0  0  0  0  0  0  0
  186.4780  177.2570  142.9260 C   0  0  0  0  0  0  0  0  0  0  0  0
  186.6480  177.9940  145.2300 C   0  0  0  0  0  0  0  0  0  0  0  0
  186.5440  178.3730  147.6620 C   0  0  0  0  0  2  0  0  0  0  0  0
  185.1760  178.2500  148.0080 O   0  0  0  0  0  0  0  0  0  0  0  0
  183.7320  179.1180  144.6080 C   0  0  0  0  0  3  0  0  0  0  0  0
  190.1560  175.1820  143.3440 C   0  0  0  0  0  0  0  0  0  0  0  0
  191.6540  173.7460  145.5800 C   0  0  0  0  0  3  0  0  0  0  0  0
  187.7960  177.2710  145.3520 N   0  0  0  0  0  0  0  0  0  0  0  0
  184.7030  178.7830  143.7430 C   0  0  0  0  0  3  0  0  0  0  0  0
  189.5650  175.7240  144.6050 C   0  0  1  0  0  3  0  0  0  0  0  0
  191.4760  174.0870  141.8920 N   0  0  0  0  0  0  0  0  0  0  0  0
  185.9480  178.0000  143.9950 C   0  0  0  0  0  0  0  0  0  0  0  0
  183.7240  178.7820  146.0010 N   0  0  0  0  0  0  0  0  0  0  0  0
  192.1410  174.0710  144.3730 C   0  0  0  0  0  0  0  0  0  0  0  0
  187.6450  176.4940  143.0990 C   0  0  0  0  0  0  0  0  0  0  0  0
  186.2440  178.8950  146.3600 C   0  0  2  0  0  3  0  0  0  0  0  0
  188.3000  176.5080  144.3470 C   0  0  0  0  0  0  0  0  0  0  0  0
  186.4030  176.7900  140.5730 C   0  0  0  0  0  3  0  0  0  0  0  0
  190.2440  173.7850  146.0250 C   0  0  0  0  0  3  0  0  0  0  0  0
  185.8270  177.2570  141.6410 N   0  0  0  0  0  0  0  0  0  0  0  0
  189.3020  174.6210  145.5820 C   0  0  0  0  0  3  0  0  0  0  0  0
  191.2670  174.4810  143.2440 C   0  0  0  0  0  0  0  0  0  0  0  0
  187.8230  176.3000  140.6120 C   0  0  0  0  0  2  0  0  0  0  0  0
  189.5410  175.3380  142.0790 N   0  0  0  0  0  0  0  0  0  0  0  0
  193.5580  173.9440  144.1940 N   0  0  0  0  0  2  0  0  0  0  0  0
  194.5150  173.7210  145.2690 C   0  0  0  0  0  2  0  0  0  0  0  0
  194.4330  176.8600  144.3780 O   0  0  0  0  0  0  0  0  0  0  0  0
  194.5590  175.8610  146.5110 C   0  0  0  0  0  2  0  0  0  0  0  0
  195.3060  174.9900  145.5440 C   0  0  2  0  0  3  0  0  0  0  0  0
  194.3350  177.1430  145.7470 C   0  0  0  0  0  2  0  0  0  0  0  0
  195.3740  175.8240  144.2850 C   0  0  0  0  0  2  0  0  0  0  0  0
  1 26  1  6  0  0  0
  1 27  1  0  0  0  0
  1 18  1  0  0  0  0
  2 14  2  0  0  0  0
  2 27  1  0  0  0  0
  3  7  1  0  0  0  0
  4 18  2  0  0  0  0
  4 15  1  0  0  0  0
  5 11  1  0  0  0  0
  5 19  1  0  0  0  0
  6  7  1  0  0  0  0
  8 16  1  0  0  0  0
  9 13  1  0  0  0  0
 10 22  1  0  0  0  0
 12 15  1  0  0  0  0
 12  8  2  0  0  0  0
 13 24  1  1  0  0  0
 14 25  1  0  0  0  0
 15  5  2  0  0  0  0
 16  3  2  0  0  0  0
 17 10  2  0  0  0  0
 18 20  1  0  0  0  0
 19  3  1  0  0  0  0
 19  6  1  1  0  0  0
 20 13  1  0  0  0  0
 20 11  2  0  0  0  0
 21 26  1  0  0  0  0
 21 23  2  0  0  0  0
 23  4  1  0  0  0  0
 24 22  2  0  0  0  0
 25  9  2  0  0  0  0
 25 17  1  0  0  0  0
 27  9  1  0  0  0  0
 28 17  1  0  0  0  0
 28 29  1  0  0  0  0
 30 33  1  0  0  0  0
 32 29  1  6  0  0  0
 32 31  1  0  0  0  0
 33 31  1  0  0  0  0
 34 30  1  0  0  0  0
 34 32  1  0  0  0  0
M  END
>  <MODEL>
6

>  <REMARK>
 VINA RESULT:      -7.8      1.307      1.574
  Name = 
  3 active torsions:
  status: ('A' for Active; 'I' for Inactive)
    1  A    between atoms: C_17  and  N_28
    2  A    between atoms: N_28  and  C_29
    3  A    between atoms: C_29  and  C_32
                            x       y       z     vdW  Elec       q    Type
                         _______ _______ _______ _____ _____    ______ ____

>  <TORSDO>
F 3

$$$$
=
 OpenBabel11112417443D

 34 41  0  0  1  0  0  0  0  0999 V2000
  190.6090  173.0700  142.2700 C   0  0  1  0  0  3  0  0  0  0  0  0
  188.2430  174.1200  142.2920 C   0  0  0  0  0  3  0  0  0  0  0  0
  196.6340  172.8550  144.7460 C   0  0  0  0  0  0  0  0  0  0  0  0
  192.7370  171.9890  143.0520 C   0  0  0  0  0  0  0  0  0  0  0  0
  194.2220  173.1080  144.6080 C   0  0  0  0  0  0  0  0  0  0  0  0
  195.9340  174.4190  145.8000 C   0  0  0  0  0  2  0  0  0  0  0  0
  197.1560  174.1420  145.1380 O   0  0  0  0  0  0  0  0  0  0  0  0
  196.1840  170.7600  143.7170 C   0  0  0  0  0  3  0  0  0  0  0  0
  189.9150  175.1220  143.5320 C   0  0  0  0  0  0  0  0  0  0  0  0
  189.9980  178.1190  144.0900 C   0  0  0  0  0  3  0  0  0  0  0  0
  193.3240  174.1280  144.6960 N   0  0  0  0  0  0  0  0  0  0  0  0
  194.8450  170.8160  143.6220 C   0  0  0  0  0  3  0  0  0  0  0  0
  191.2610  175.3580  144.1350 C   0  0  1  0  0  3  0  0  0  0  0  0
  187.8080  175.4170  142.8060 N   0  0  0  0  0  0  0  0  0  0  0  0
  193.9480  171.9990  143.7660 C   0  0  0  0  0  0  0  0  0  0  0  0
  197.0320  171.8780  144.0050 N   0  0  0  0  0  0  0  0  0  0  0  0
  188.9120  177.3330  144.1130 C   0  0  0  0  0  0  0  0  0  0  0  0
  191.8500  173.0750  143.1410 C   0  0  0  0  0  0  0  0  0  0  0  0
  195.4060  173.1130  145.5300 C   0  0  2  0  0  3  0  0  0  0  0  0
  192.1700  174.1610  143.9800 C   0  0  0  0  0  0  0  0  0  0  0  0
  191.1940  170.7080  141.7320 C   0  0  0  0  0  3  0  0  0  0  0  0
  191.3430  177.7880  143.5680 C   0  0  0  0  0  3  0  0  0  0  0  0
  192.3920  170.8720  142.2110 N   0  0  0  0  0  0  0  0  0  0  0  0
  191.9000  176.5750  143.5450 C   0  0  0  0  0  3  0  0  0  0  0  0
  188.9040  175.9670  143.5310 C   0  0  0  0  0  0  0  0  0  0  0  0
  190.0790  171.6440  142.1060 C   0  0  0  0  0  2  0  0  0  0  0  0
  189.5830  173.9350  142.8360 N   0  0  0  0  0  0  0  0  0  0  0  0
  187.7200  177.8970  144.6760 N   0  0  0  0  0  2  0  0  0  0  0  0
  186.9930  177.3410  145.8080 C   0  0  0  0  0  2  0  0  0  0  0  0
  184.1920  179.0160  145.8800 O   0  0  0  0  0  0  0  0  0  0  0  0
  185.2220  177.7990  144.1420 C   0  0  0  0  0  2  0  0  0  0  0  0
  185.5360  177.1140  145.4400 C   0  0  2  0  0  3  0  0  0  0  0  0
  184.1280  178.7740  144.5010 C   0  0  0  0  0  2  0  0  0  0  0  0
  184.6460  177.8140  146.4420 C   0  0  0  0  0  2  0  0  0  0  0  0
  1 26  1  1  0  0  0
  1 27  1  0  0  0  0
  1 18  1  0  0  0  0
  2 14  2  0  0  0  0
  2 27  1  0  0  0  0
  3  7  1  0  0  0  0
  3 19  1  0  0  0  0
  4 18  2  0  0  0  0
  4 15  1  0  0  0  0
  5 11  1  0  0  0  0
  5 19  1  0  0  0  0
  7  6  1  0  0  0  0
  8 16  1  0  0  0  0
  9 13  1  0  0  0  0
 10 17  2  0  0  0  0
 12  8  2  0  0  0  0
 12 15  1  0  0  0  0
 13 24  1  6  0  0  0
 14 25  1  0  0  0  0
 15  5  2  0  0  0  0
 16  3  2  0  0  0  0
 17 28  1  0  0  0  0
 18 20  1  0  0  0  0
 19  6  1  6  0  0  0
 20 13  1  0  0  0  0
 20 11  2  0  0  0  0
 21 26  1  0  0  0  0
 21 23  2  0  0  0  0
 22 10  1  0  0  0  0
 23  4  1  0  0  0  0
 24 22  2  0  0  0  0
 25  9  2  0  0  0  0
 25 17  1  0  0  0  0
 27  9  1  0  0  0  0
 28 29  1  0  0  0  0
 30 34  1  0  0  0  0
 31 33  1  0  0  0  0
 31 32  1  0  0  0  0
 32 29  1  1  0  0  0
 32 34  1  0  0  0  0
 33 30  1  0  0  0  0
M  END
>  <MODEL>
7

>  <REMARK>
 VINA RESULT:      -7.7      2.346      8.851
  Name = 
  3 active torsions:
  status: ('A' for Active; 'I' for Inactive)
    1  A    between atoms: C_17  and  N_28
    2  A    between atoms: N_28  and  C_29
    3  A    between atoms: C_29  and  C_32
                            x       y       z     vdW  Elec       q    Type
                         _______ _______ _______ _____ _____    ______ ____

>  <TORSDO>
F 3

$$$$
=
 OpenBabel11112417443D

 34 41  0  0  1  0  0  0  0  0999 V2000
  191.4480  176.8550  146.1560 C   0  0  1  0  0  3  0  0  0  0  0  0
  193.7630  175.9480  146.8800 C   0  0  0  0  0  3  0  0  0  0  0  0
  186.5780  176.8770  141.8250 C   0  0  0  0  0  0  0  0  0  0  0  0
  189.0610  176.9270  145.3810 C   0  0  0  0  0  0  0  0  0  0  0  0
  188.4170  176.0840  143.1990 C   0  0  0  0  0  0  0  0  0  0  0  0
  187.8480  175.6690  140.8380 C   0  0  0  0  0  2  0  0  0  0  0  0
  187.0080  176.7430  140.4540 O   0  0  0  0  0  0  0  0  0  0  0  0
  185.7120  177.6100  143.9130 C   0  0  0  0  0  3  0  0  0  0  0  0
  192.9960  175.4670  144.7550 C   0  0  0  0  0  0  0  0  0  0  0  0
  194.8560  175.0470  142.3740 C   0  0  0  0  0  3  0  0  0  0  0  0
  189.7020  175.6790  143.0020 N   0  0  0  0  0  0  0  0  0  0  0  0
  186.6790  177.1850  144.7430 C   0  0  0  0  0  3  0  0  0  0  0  0
  192.0900  175.4310  143.5670 C   0  0  1  0  0  3  0  0  0  0  0  0
  194.8130  175.3340  146.0700 N   0  0  0  0  0  0  0  0  0  0  0  0
  188.0610  176.7330  144.4110 C   0  0  0  0  0  0  0  0  0  0  0  0
  185.8330  177.6930  142.4890 N   0  0  0  0  0  0  0  0  0  0  0  0
  195.0420  174.5920  143.6220 C   0  0  0  0  0  0  0  0  0  0  0  0
  190.3840  176.5270  145.1280 C   0  0  0  0  0  0  0  0  0  0  0  0
  187.3770  175.6870  142.1930 C   0  0  2  0  0  3  0  0  0  0  0  0
  190.6930  175.8990  143.9050 C   0  0  0  0  0  0  0  0  0  0  0  0
  189.5690  177.5260  147.6480 C   0  0  0  0  0  3  0  0  0  0  0  0
  193.8580  176.0380  141.9120 C   0  0  0  0  0  3  0  0  0  0  0  0
  188.7460  177.5470  146.6420 N   0  0  0  0  0  0  0  0  0  0  0  0
  192.6530  176.2470  142.4470 C   0  0  0  0  0  3  0  0  0  0  0  0
  194.2600  175.0980  144.7800 C   0  0  0  0  0  0  0  0  0  0  0  0
  190.8670  176.7720  147.5690 C   0  0  0  0  0  2  0  0  0  0  0  0
  192.5870  175.9570  146.0180 N   0  0  0  0  0  0  0  0  0  0  0  0
  196.0850  173.6270  143.8080 N   0  0  0  0  0  2  0  0  0  0  0  0
  195.8730  172.1960  143.9790 C   0  0  0  0  0  2  0  0  0  0  0  0
  195.2910  169.5730  145.8320 O   0  0  0  0  0  0  0  0  0  0  0  0
  197.1380  171.0390  145.7630 C   0  0  0  0  0  2  0  0  0  0  0  0
  195.9020  171.8320  145.4540 C   0  0  2  0  0  3  0  0  0  0  0  0
  196.6070  169.7290  146.2900 C   0  0  0  0  0  2  0  0  0  0  0  0
  194.7730  170.8740  145.7600 C   0  0  0  0  0  2  0  0  0  0  0  0
  1 26  1  1  0  0  0
  3 19  1  0  0  0  0
  3 16  2  0  0  0  0
  4 23  1  0  0  0  0
  5 15  1  0  0  0  0
  7  6  1  0  0  0  0
  7  3  1  0  0  0  0
  8 12  2  0  0  0  0
  9 25  2  0  0  0  0
  9 27  1  0  0  0  0
 10 17  2  0  0  0  0
 11  5  2  0  0  0  0
 11 20  1  0  0  0  0
 13 24  1  6  0  0  0
 13 20  1  0  0  0  0
 13  9  1  0  0  0  0
 14  2  2  0  0  0  0
 15 12  1  0  0  0  0
 15  4  2  0  0  0  0
 16  8  1  0  0  0  0
 17 28  1  0  0  0  0
 17 25  1  0  0  0  0
 18  4  1  0  0  0  0
 18  1  1  0  0  0  0
 19  6  1  6  0  0  0
 19  5  1  0  0  0  0
 20 18  2  0  0  0  0
 22 10  1  0  0  0  0
 22 24  2  0  0  0  0
 23 21  2  0  0  0  0
 25 14  1  0  0  0  0
 26 21  1  0  0  0  0
 27  1  1  0  0  0  0
 27  2  1  0  0  0  0
 28 29  1  0  0  0  0
 30 33  1  0  0  0  0
 31 33  1  0  0  0  0
 32 29  1  6  0  0  0
 32 34  1  0  0  0  0
 32 31  1  0  0  0  0
 34 30  1  0  0  0  0
M  END
>  <MODEL>
8

>  <REMARK>
 VINA RESULT:      -7.5      2.550      4.734
  Name = 
  3 active torsions:
  status: ('A' for Active; 'I' for Inactive)
    1  A    between atoms: C_17  and  N_28
    2  A    between atoms: N_28  and  C_29
    3  A    between atoms: C_29  and  C_32
                            x       y       z     vdW  Elec       q    Type
                         _______ _______ _______ _____ _____    ______ ____

>  <TORSDO>
F 3

$$$$
=
 OpenBabel11112417443D

 34 41  0  0  1  0  0  0  0  0999 V2000
  189.0150  174.1570  139.7310 C   0  0  1  0  0  3  0  0  0  0  0  0
  187.5070  176.0410  140.6690 C   0  0  0  0  0  3  0  0  0  0  0  0
  192.6860  168.8870  140.8360 C   0  0  0  0  0  0  0  0  0  0  0  0
  189.9600  171.8760  139.2730 C   0  0  0  0  0  0  0  0  0  0  0  0
  190.9020  170.5210  141.0500 C   0  0  0  0  0  0  0  0  0  0  0  0
  192.2640  169.3600  142.7440 C   0  0  0  0  0  2  0  0  0  0  0  0
  193.4340  168.9380  142.0680 O   0  0  0  0  0  0  0  0  0  0  0  0
  191.9640  168.8220  138.5720 C   0  0  0  0  0  3  0  0  0  0  0  0
  188.6940  174.7250  142.1510 C   0  0  0  0  0  0  0  0  0  0  0  0
  189.6820  175.7440  144.8510 C   0  0  0  0  0  3  0  0  0  0  0  0
  190.5360  171.4800  141.9440 N   0  0  0  0  0  0  0  0  0  0  0  0
  190.9490  169.7000  138.6120 C   0  0  0  0  0  3  0  0  0  0  0  0
  189.6030  173.6500  142.6530 C   0  0  1  0  0  3  0  0  0  0  0  0
  187.4340  176.5820  142.0250 N   0  0  0  0  0  0  0  0  0  0  0  0
  190.6230  170.7010  139.6700 C   0  0  0  0  0  0  0  0  0  0  0  0
  192.9550  168.6670  139.5940 N   0  0  0  0  0  0  0  0  0  0  0  0
  188.4900  175.9950  144.2920 C   0  0  0  0  0  0  0  0  0  0  0  0
  189.6290  172.8600  140.2190 C   0  0  0  0  0  0  0  0  0  0  0  0
  191.4480  169.2240  141.5720 C   0  0  2  0  0  3  0  0  0  0  0  0
  189.9380  172.6440  141.5770 C   0  0  0  0  0  0  0  0  0  0  0  0
  188.8040  173.0340  137.5170 C   0  0  0  0  0  3  0  0  0  0  0  0
  190.8690  175.1320  144.2140 C   0  0  0  0  0  3  0  0  0  0  0  0
  189.6210  172.0930  137.8900 N   0  0  0  0  0  0  0  0  0  0  0  0
  190.8550  174.2380  143.2210 C   0  0  0  0  0  3  0  0  0  0  0  0
  188.2090  175.7260  142.8580 C   0  0  0  0  0  0  0  0  0  0  0  0
  188.1040  173.8950  138.5290 C   0  0  0  0  0  2  0  0  0  0  0  0
  188.2730  174.8080  140.8030 N   0  0  0  0  0  0  0  0  0  0  0  0
  187.4980  176.6010  145.1310 N   0  0  0  0  0  2  0  0  0  0  0  0
  187.6500  176.8350  146.5610 C   0  0  0  0  0  2  0  0  0  0  0  0
  185.2830  179.0090  147.1320 O   0  0  0  0  0  0  0  0  0  0  0  0
  185.2010  176.8410  146.2040 C   0  0  0  0  0  2  0  0  0  0  0  0
  186.2890  176.8650  147.2370 C   0  0  2  0  0  3  0  0  0  0  0  0
  184.4400  178.1210  146.4480 C   0  0  0  0  0  2  0  0  0  0  0  0
  186.1000  178.1950  147.9310 C   0  0  0  0  0  2  0  0  0  0  0  0
  1 26  1  6  0  0  0
  1 18  1  0  0  0  0
  1 27  1  0  0  0  0
  2 27  1  0  0  0  0
  2 14  2  0  0  0  0
  3 19  1  0  0  0  0
  3  7  1  0  0  0  0
  4 15  2  0  0  0  0
  4 18  1  0  0  0  0
  5 19  1  0  0  0  0
  5 11  2  0  0  0  0
  7  6  1  0  0  0  0
  8 12  2  0  0  0  0
  8 16  1  0  0  0  0
  9 13  1  0  0  0  0
  9 25  2  0  0  0  0
 12 15  1  0  0  0  0
 13 24  1  6  0  0  0
 14 25  1  0  0  0  0
 15  5  1  0  0  0  0
 16  3  2  0  0  0  0
 17 10  2  0  0  0  0
 17 28  1  0  0  0  0
 18 20  2  0  0  0  0
 19  6  1  1  0  0  0
 20 11  1  0  0  0  0
 20 13  1  0  0  0  0
 21 23  2  0  0  0  0
 21 26  1  0  0  0  0
 22 10  1  0  0  0  0
 23  4  1  0  0  0  0
 24 22  2  0  0  0  0
 25 17  1  0  0  0  0
 27  9  1  0  0  0  0
 28 29  1  0  0  0  0
 30 34  1  0  0  0  0
 31 33  1  0  0  0  0
 31 32  1  0  0  0  0
 32 29  1  6  0  0  0
 32 34  1  0  0  0  0
 33 30  1  0  0  0  0
M  END
>  <MODEL>
9

>  <REMARK>
 VINA RESULT:      -7.3      3.901      8.824
  Name = 
  3 active torsions:
  status: ('A' for Active; 'I' for Inactive)
    1  A    between atoms: C_17  and  N_28
    2  A    between atoms: N_28  and  C_29
    3  A    between atoms: C_29  and  C_32
                            x       y       z     vdW  Elec       q    Type
                         _______ _______ _______ _____ _____    ______ ____

>  <TORSDO>
F 3

$$$$
