=
 OpenBabel11112417393D

 28 32  0  0  1  0  0  0  0  0999 V2000
  190.5270  175.7120  144.7570 C   0  0  0  0  0  0  0  0  0  0  0  0
  185.6050  176.2740  145.7750 F   0  0  0  0  0  0  0  0  0  0  0  0
  189.0860  174.9160  140.5050 O   0  0  0  0  0  0  0  0  0  0  0  0
  191.3830  178.1590  143.7010 C   0  0  0  0  0  3  0  0  0  0  0  0
  187.3530  176.3200  141.3680 C   0  0  0  0  0  0  0  0  0  0  0  0
  190.0830  174.4760  145.2280 O   0  0  0  0  0  0  0  0  0  0  0  0
  186.5950  177.9620  147.0910 C   0  0  0  0  0  1  0  0  0  0  0  0
  186.0960  177.5690  145.7140 C   0  0  1  0  0  0  0  0  0  0  0  0
  184.6050  178.2540  143.8680 C   0  0  1  0  0  3  0  0  0  0  0  0
  187.2590  177.6860  144.7040 C   0  0  2  0  0  3  0  0  0  0  0  0
  191.0040  173.7600  142.3960 O   0  0  0  0  0  1  0  0  0  0  0  0
  187.4630  175.5040  143.6060 C   0  0  1  0  0  3  0  0  0  0  0  0
  185.6690  178.6680  143.0460 O   0  0  0  0  0  0  0  0  0  0  0  0
  184.9560  178.4990  145.3280 C   0  0  0  0  0  2  0  0  0  0  0  0
  190.1670  173.0450  143.2540 C   0  0  2  0  0  3  0  0  0  0  0  0
  189.5840  176.7100  144.4690 C   0  0  0  0  0  0  0  0  0  0  0  0
  188.3760  175.3180  141.4650 C   0  0  0  0  0  0  0  0  0  0  0  0
  183.3620  179.0410  143.5130 C   0  0  0  0  0  1  0  0  0  0  0  0
  188.6870  173.3510  142.9880 C   0  0  0  0  0  2  0  0  0  0  0  0
  190.0240  177.9300  143.9260 C   0  0  0  0  0  3  0  0  0  0  0  0
  191.8910  175.9440  144.5250 C   0  0  0  0  0  3  0  0  0  0  0  0
  192.3170  177.1660  144.0040 C   0  0  0  0  0  3  0  0  0  0  0  0
  190.5780  173.2460  144.7150 C   0  0  0  0  0  2  0  0  0  0  0  0
  186.6440  176.4270  142.6710 C   0  0  1  0  0  3  0  0  0  0  0  0
  188.4330  174.7750  142.7740 N   0  0  0  0  0  0  0  0  0  0  0  0
  186.7900  177.8270  143.2500 C   0  0  2  0  0  3  0  0  0  0  0  0
  187.0660  176.9670  140.3270 O   0  0  0  0  0  0  0  0  0  0  0  0
  188.1100  176.4160  144.6800 C   0  0  1  0  0  3  0  0  0  0  0  0
  1  6  1  0  0  0  0
  3 17  2  0  0  0  0
  4 20  2  0  0  0  0
  4 22  1  0  0  0  0
  5 17  1  0  0  0  0
  5 24  1  0  0  0  0
  8  2  1  0  0  0  0
  8  7  1  1  0  0  0
  9 18  1  6  0  0  0
  9 14  1  0  0  0  0
 10  8  1  0  0  0  0
 11 15  1  0  0  0  0
 12 28  1  0  0  0  0
 13 26  1  0  0  0  0
 13  9  1  0  0  0  0
 14  8  1  0  0  0  0
 15 23  1  0  0  0  0
 16 28  1  0  0  0  0
 16  1  2  0  0  0  0
 17 25  1  0  0  0  0
 19 15  1  0  0  0  0
 20 16  1  0  0  0  0
 21  1  1  0  0  0  0
 22 21  2  0  0  0  0
 23  6  1  0  0  0  0
 24 26  1  0  0  0  0
 24 12  1  0  0  0  0
 25 19  1  0  0  0  0
 25 12  1  0  0  0  0
 26 10  1  0  0  0  0
 27  5  2  0  0  0  0
 28 10  1  0  0  0  0
M  END
>  <MODEL>
1

>  <REMARK>
 VINA RESULT:      -8.4      0.000      0.000
  Name = 
  0 active torsions:
  status: ('A' for Active; 'I' for Inactive)
                            x       y       z     vdW  Elec       q    Type
                         _______ _______ _______ _____ _____    ______ ____

>  <TORSDO>
F 0

$$$$
=
 OpenBabel11112417393D

 28 32  0  0  1  0  0  0  0  0999 V2000
  191.1150  174.2980  142.9900 C   0  0  0  0  0  0  0  0  0  0  0  0
  187.9430  178.1340  143.8860 F   0  0  0  0  0  0  0  0  0  0  0  0
  193.2590  175.8030  146.7220 O   0  0  0  0  0  0  0  0  0  0  0  0
  190.2910  172.2060  144.6570 C   0  0  0  0  0  3  0  0  0  0  0  0
  191.0080  176.5080  147.1170 C   0  0  0  0  0  0  0  0  0  0  0  0
  191.5600  175.3620  142.2040 O   0  0  0  0  0  0  0  0  0  0  0  0
  186.4860  176.4230  143.1710 C   0  0  0  0  0  1  0  0  0  0  0  0
  187.2630  177.0110  144.3320 C   0  0  1  0  0  0  0  0  0  0  0  0
  187.0570  177.8220  146.6570 C   0  0  1  0  0  3  0  0  0  0  0  0
  188.2350  175.9430  144.8820 C   0  0  2  0  0  3  0  0  0  0  0  0
  193.9740  174.8950  144.0290 O   0  0  0  0  0  1  0  0  0  0  0  0
  190.4770  176.9350  144.8330 C   0  0  1  0  0  3  0  0  0  0  0  0
  187.6720  176.6790  147.2020 O   0  0  0  0  0  0  0  0  0  0  0  0
  186.2780  177.4410  145.4070 C   0  0  0  0  0  2  0  0  0  0  0  0
  193.6620  176.0150  143.2550 C   0  0  2  0  0  3  0  0  0  0  0  0
  190.1180  174.5290  143.9490 C   0  0  0  0  0  0  0  0  0  0  0  0
  192.1450  176.2060  146.2940 C   0  0  0  0  0  0  0  0  0  0  0  0
  186.1120  178.4170  147.6770 C   0  0  0  0  0  1  0  0  0  0  0  0
  192.9090  177.0740  144.0700 C   0  0  0  0  0  2  0  0  0  0  0  0
  189.7210  173.4740  144.7900 C   0  0  0  0  0  3  0  0  0  0  0  0
  191.6880  173.0240  142.8630 C   0  0  0  0  0  3  0  0  0  0  0  0
  191.2730  171.9810  143.6900 C   0  0  0  0  0  3  0  0  0  0  0  0
  192.9400  175.6080  141.9690 C   0  0  0  0  0  2  0  0  0  0  0  0
  189.9270  177.0820  146.2730 C   0  0  1  0  0  3  0  0  0  0  0  0
  191.8770  176.4980  144.9330 N   0  0  0  0  0  0  0  0  0  0  0  0
  188.6810  176.2110  146.3250 C   0  0  2  0  0  3  0  0  0  0  0  0
  190.9550  176.3590  148.3660 O   0  0  0  0  0  0  0  0  0  0  0  0
  189.5500  175.9290  144.1020 C   0  0  1  0  0  3  0  0  0  0  0  0
  1 16  1  0  0  0  0
  2  8  1  0  0  0  0
  4 20  1  0  0  0  0
  5 27  2  0  0  0  0
  6  1  1  0  0  0  0
  8  7  1  6  0  0  0
  8 10  1  0  0  0  0
  8 14  1  0  0  0  0
  9 13  1  0  0  0  0
  9 18  1  1  0  0  0
 10 26  1  0  0  0  0
 12 25  1  0  0  0  0
 12 24  1  0  0  0  0
 14  9  1  0  0  0  0
 15 11  1  0  0  0  0
 15 19  1  0  0  0  0
 16 28  1  0  0  0  0
 16 20  2  0  0  0  0
 17  3  2  0  0  0  0
 17  5  1  0  0  0  0
 19 25  1  0  0  0  0
 21  1  2  0  0  0  0
 21 22  1  0  0  0  0
 22  4  2  0  0  0  0
 23  6  1  0  0  0  0
 23 15  1  0  0  0  0
 24 26  1  0  0  0  0
 24  5  1  0  0  0  0
 25 17  1  0  0  0  0
 26 13  1  0  0  0  0
 28 12  1  0  0  0  0
 28 10  1  0  0  0  0
M  END
>  <MODEL>
2

>  <REMARK>
 VINA RESULT:      -8.3      2.441      4.658
  Name = 
  0 active torsions:
  status: ('A' for Active; 'I' for Inactive)
                            x       y       z     vdW  Elec       q    Type
                         _______ _______ _______ _____ _____    ______ ____

>  <TORSDO>
F 0

$$$$
=
 OpenBabel11112417393D

 28 32  0  0  1  0  0  0  0  0999 V2000
  190.4840  174.9780  143.7070 C   0  0  0  0  0  0  0  0  0  0  0  0
  186.0220  176.3150  145.6760 F   0  0  0  0  0  0  0  0  0  0  0  0
  188.2630  175.1550  139.7290 O   0  0  0  0  0  0  0  0  0  0  0  0
  191.6790  177.3480  142.8160 C   0  0  0  0  0  3  0  0  0  0  0  0
  187.0320  176.7140  141.0610 C   0  0  0  0  0  0  0  0  0  0  0  0
  189.8610  173.7930  144.0980 O   0  0  0  0  0  0  0  0  0  0  0  0
  187.5470  177.5510  146.9820 C   0  0  0  0  0  1  0  0  0  0  0  0
  186.7680  177.4840  145.6840 C   0  0  1  0  0  0  0  0  0  0  0  0
  185.1930  178.7260  144.2410 C   0  0  1  0  0  3  0  0  0  0  0  0
  187.7570  177.5310  144.4980 C   0  0  2  0  0  3  0  0  0  0  0  0
  190.1530  173.3670  141.0790 O   0  0  0  0  0  1  0  0  0  0  0  0
  187.3080  175.5500  143.1240 C   0  0  1  0  0  3  0  0  0  0  0  0
  186.1820  179.0500  143.2940 O   0  0  0  0  0  0  0  0  0  0  0  0
  185.8120  178.6650  145.6300 C   0  0  0  0  0  2  0  0  0  0  0  0
  189.3240  172.7010  141.9840 C   0  0  2  0  0  3  0  0  0  0  0  0
  189.7480  176.1720  143.7220 C   0  0  0  0  0  0  0  0  0  0  0  0
  187.8160  175.5300  140.8450 C   0  0  0  0  0  0  0  0  0  0  0  0
  184.1120  179.7840  144.2190 C   0  0  0  0  0  1  0  0  0  0  0  0
  187.9230  173.3260  142.0340 C   0  0  0  0  0  2  0  0  0  0  0  0
  190.3540  177.3540  143.2590 C   0  0  0  0  0  3  0  0  0  0  0  0
  191.8130  174.9750  143.2580 C   0  0  0  0  0  3  0  0  0  0  0  0
  192.4090  176.1580  142.8190 C   0  0  0  0  0  3  0  0  0  0  0  0
  189.9900  172.5870  143.3560 C   0  0  0  0  0  2  0  0  0  0  0  0
  186.5750  176.7510  142.4750 C   0  0  1  0  0  3  0  0  0  0  0  0
  187.9550  174.7880  142.0450 N   0  0  0  0  0  0  0  0  0  0  0  0
  187.1100  177.9860  143.1830 C   0  0  2  0  0  3  0  0  0  0  0  0
  186.7360  177.5600  140.1770 O   0  0  0  0  0  0  0  0  0  0  0  0
  188.2960  176.1400  144.1630 C   0  0  1  0  0  3  0  0  0  0  0  0
  1 16  1  0  0  0  0
  1  6  1  0  0  0  0
  2  8  1  0  0  0  0
  3 17  2  0  0  0  0
  4 22  2  0  0  0  0
  4 20  1  0  0  0  0
  5 24  1  0  0  0  0
  8  7  1  1  0  0  0
  9 18  1  1  0  0  0
  9 14  1  0  0  0  0
 10  8  1  0  0  0  0
 11 15  1  0  0  0  0
 12 28  1  0  0  0  0
 13  9  1  0  0  0  0
 14  8  1  0  0  0  0
 15 19  1  0  0  0  0
 15 23  1  0  0  0  0
 16 28  1  0  0  0  0
 17  5  1  0  0  0  0
 17 25  1  0  0  0  0
 19 25  1  0  0  0  0
 20 16  2  0  0  0  0
 21  1  2  0  0  0  0
 22 21  1  0  0  0  0
 23  6  1  0  0  0  0
 24 12  1  0  0  0  0
 24 26  1  0  0  0  0
 25 12  1  0  0  0  0
 26 13  1  0  0  0  0
 26 10  1  0  0  0  0
 27  5  2  0  0  0  0
 28 10  1  0  0  0  0
M  END
>  <MODEL>
3

>  <REMARK>
 VINA RESULT:      -8.3      1.007      1.055
  Name = 
  0 active torsions:
  status: ('A' for Active; 'I' for Inactive)
                            x       y       z     vdW  Elec       q    Type
                         _______ _______ _______ _____ _____    ______ ____

>  <TORSDO>
F 0

$$$$
=
 OpenBabel11112417393D

 28 32  0  0  1  0  0  0  0  0999 V2000
  189.3550  176.8060  145.1750 C   0  0  0  0  0  0  0  0  0  0  0  0
  194.3150  176.3350  144.3050 F   0  0  0  0  0  0  0  0  0  0  0  0
  189.0420  172.9030  142.8380 O   0  0  0  0  0  0  0  0  0  0  0  0
  188.8010  175.1880  147.3910 C   0  0  0  0  0  3  0  0  0  0  0  0
  191.2460  172.7630  143.7570 C   0  0  0  0  0  0  0  0  0  0  0  0
  189.6240  177.5640  144.0350 O   0  0  0  0  0  0  0  0  0  0  0  0
  194.2600  177.1610  146.5140 C   0  0  0  0  0  1  0  0  0  0  0  0
  194.1560  175.9380  145.6240 C   0  0  1  0  0  0  0  0  0  0  0  0
  195.0530  173.6670  145.2510 C   0  0  1  0  0  3  0  0  0  0  0  0
  192.7830  175.2650  145.8500 C   0  0  2  0  0  3  0  0  0  0  0  0
  187.6590  175.4840  142.9410 O   0  0  0  0  0  1  0  0  0  0  0  0
  191.7070  175.1000  143.6530 C   0  0  1  0  0  3  0  0  0  0  0  0
  193.9050  173.0350  145.7630 O   0  0  0  0  0  0  0  0  0  0  0  0
  195.2840  174.9830  145.9790 C   0  0  0  0  0  2  0  0  0  0  0  0
  188.5410  176.3120  142.2430 C   0  0  2  0  0  3  0  0  0  0  0  0
  190.3540  175.9630  145.6840 C   0  0  0  0  0  0  0  0  0  0  0  0
  190.1080  173.4550  143.2200 C   0  0  0  0  0  0  0  0  0  0  0  0
  196.2520  172.7650  145.4510 C   0  0  0  0  0  1  0  0  0  0  0  0
  189.8710  175.6050  141.9530 C   0  0  0  0  0  2  0  0  0  0  0  0
  190.0600  175.1440  146.7890 C   0  0  0  0  0  3  0  0  0  0  0  0
  188.0900  176.8430  145.7800 C   0  0  0  0  0  3  0  0  0  0  0  0
  187.8160  176.0410  146.8880 C   0  0  0  0  0  3  0  0  0  0  0  0
  188.7080  177.6580  142.9520 C   0  0  0  0  0  2  0  0  0  0  0  0
  192.3570  173.7290  143.9640 C   0  0  1  0  0  3  0  0  0  0  0  0
  190.3700  174.8430  143.0980 N   0  0  0  0  0  0  0  0  0  0  0  0
  192.7520  173.7890  145.4320 C   0  0  2  0  0  3  0  0  0  0  0  0
  191.3090  171.5240  143.9680 O   0  0  0  0  0  0  0  0  0  0  0  0
  191.6980  175.9010  144.9810 C   0  0  1  0  0  3  0  0  0  0  0  0
  1 16  2  0  0  0  0
  1 21  1  0  0  0  0
  2  8  1  0  0  0  0
  3 17  2  0  0  0  0
  5 24  1  0  0  0  0
  5 27  2  0  0  0  0
  6  1  1  0  0  0  0
  8 10  1  0  0  0  0
  8 14  1  0  0  0  0
  8  7  1  1  0  0  0
  9 18  1  1  0  0  0
  9 13  1  0  0  0  0
  9 14  1  0  0  0  0
 12 24  1  0  0  0  0
 12 28  1  0  0  0  0
 15 11  1  0  0  0  0
 15 23  1  0  0  0  0
 16 20  1  0  0  0  0
 17  5  1  0  0  0  0
 19 15  1  0  0  0  0
 19 25  1  0  0  0  0
 20  4  2  0  0  0  0
 21 22  2  0  0  0  0
 22  4  1  0  0  0  0
 23  6  1  0  0  0  0
 24 26  1  0  0  0  0
 25 17  1  0  0  0  0
 25 12  1  0  0  0  0
 26 13  1  0  0  0  0
 26 10  1  0  0  0  0
 28 16  1  0  0  0  0
 28 10  1  0  0  0  0
M  END
>  <MODEL>
4

>  <REMARK>
 VINA RESULT:      -8.1      3.001      6.624
  Name = 
  0 active torsions:
  status: ('A' for Active; 'I' for Inactive)
                            x       y       z     vdW  Elec       q    Type
                         _______ _______ _______ _____ _____    ______ ____

>  <TORSDO>
F 0

$$$$
=
 OpenBabel11112417393D

 28 32  0  0  1  0  0  0  0  0999 V2000
  190.8250  174.8660  142.5100 C   0  0  0  0  0  0  0  0  0  0  0  0
  187.8020  178.9020  142.1250 F   0  0  0  0  0  0  0  0  0  0  0  0
  190.2650  175.4480  146.9980 O   0  0  0  0  0  0  0  0  0  0  0  0
  189.1350  172.6650  142.8770 C   0  0  0  0  0  3  0  0  0  0  0  0
  188.2460  176.3800  146.1140 C   0  0  0  0  0  0  0  0  0  0  0  0
  191.6670  175.9720  142.3880 O   0  0  0  0  0  0  0  0  0  0  0  0
  187.0660  177.5410  140.3450 C   0  0  0  0  0  1  0  0  0  0  0  0
  186.9800  177.8240  141.8320 C   0  0  1  0  0  0  0  0  0  0  0  0
  185.4090  178.2730  143.6840 C   0  0  1  0  0  3  0  0  0  0  0  0
  187.4050  176.5610  142.6130 C   0  0  2  0  0  3  0  0  0  0  0  0
  192.4640  174.8960  145.1420 O   0  0  0  0  0  1  0  0  0  0  0  0
  189.2220  177.2350  144.1140 C   0  0  1  0  0  3  0  0  0  0  0  0
  185.5520  176.9850  144.2330 O   0  0  0  0  0  0  0  0  0  0  0  0
  185.5480  178.2060  142.1700 C   0  0  0  0  0  2  0  0  0  0  0  0
  192.6990  176.1560  144.5900 C   0  0  2  0  0  3  0  0  0  0  0  0
  189.4520  175.0730  142.7100 C   0  0  0  0  0  0  0  0  0  0  0  0
  189.6460  176.0620  146.0880 C   0  0  0  0  0  0  0  0  0  0  0  0
  184.0430  178.8190  144.0390 C   0  0  0  0  0  1  0  0  0  0  0  0
  191.6160  177.1640  144.9970 C   0  0  0  0  0  2  0  0  0  0  0  0
  188.6150  173.9600  142.9070 C   0  0  0  0  0  3  0  0  0  0  0  0
  191.3440  173.5630  142.4850 C   0  0  0  0  0  3  0  0  0  0  0  0
  190.5000  172.4660  142.6620 C   0  0  0  0  0  3  0  0  0  0  0  0
  192.9070  176.0620  143.0770 C   0  0  0  0  0  2  0  0  0  0  0  0
  187.9100  177.2230  144.9370 C   0  0  1  0  0  3  0  0  0  0  0  0
  190.2670  176.6020  144.9330 N   0  0  0  0  0  0  0  0  0  0  0  0
  186.8820  176.5310  144.0550 C   0  0  2  0  0  3  0  0  0  0  0  0
  187.4420  176.0410  147.0210 O   0  0  0  0  0  0  0  0  0  0  0  0
  188.9230  176.4930  142.7860 C   0  0  1  0  0  3  0  0  0  0  0  0
  1 16  1  0  0  0  0
  4 20  1  0  0  0  0
  5 27  2  0  0  0  0
  6  1  1  0  0  0  0
  6 23  1  0  0  0  0
  8  7  1  6  0  0  0
  8  2  1  0  0  0  0
  8 14  1  0  0  0  0
  8 10  1  0  0  0  0
  9 18  1  6  0  0  0
  9 13  1  0  0  0  0
 10 28  1  0  0  0  0
 10 26  1  0  0  0  0
 12 25  1  0  0  0  0
 12 24  1  0  0  0  0
 14  9  1  0  0  0  0
 15 19  1  0  0  0  0
 15 11  1  0  0  0  0
 16 28  1  0  0  0  0
 16 20  2  0  0  0  0
 17  5  1  0  0  0  0
 17  3  2  0  0  0  0
 21  1  2  0  0  0  0
 21 22  1  0  0  0  0
 22  4  2  0  0  0  0
 23 15  1  0  0  0  0
 24  5  1  0  0  0  0
 25 19  1  0  0  0  0
 25 17  1  0  0  0  0
 26 13  1  0  0  0  0
 26 24  1  0  0  0  0
 28 12  1  0  0  0  0
M  END
>  <MODEL>
5

>  <REMARK>
 VINA RESULT:      -8.1      2.058      4.077
  Name = 
  0 active torsions:
  status: ('A' for Active; 'I' for Inactive)
                            x       y       z     vdW  Elec       q    Type
                         _______ _______ _______ _____ _____    ______ ____

>  <TORSDO>
F 0

$$$$
=
 OpenBabel11112417393D

 28 32  0  0  1  0  0  0  0  0999 V2000
  191.7580  174.2620  143.8230 C   0  0  0  0  0  0  0  0  0  0  0  0
  187.5350  175.9840  146.0090 F   0  0  0  0  0  0  0  0  0  0  0  0
  189.1050  173.7660  140.1480 O   0  0  0  0  0  0  0  0  0  0  0  0
  192.8300  176.4220  142.4010 C   0  0  0  0  0  3  0  0  0  0  0  0
  188.0210  175.5520  141.3140 C   0  0  0  0  0  0  0  0  0  0  0  0
  191.1900  173.1720  144.4840 O   0  0  0  0  0  0  0  0  0  0  0  0
  189.1900  177.4100  146.8990 C   0  0  0  0  0  1  0  0  0  0  0  0
  188.2700  177.1260  145.7280 C   0  0  1  0  0  0  0  0  0  0  0  0
  186.5370  178.1160  144.2740 C   0  0  1  0  0  3  0  0  0  0  0  0
  189.1200  176.9510  144.4500 C   0  0  2  0  0  3  0  0  0  0  0  0
  191.1450  172.2190  141.5740 O   0  0  0  0  0  1  0  0  0  0  0  0
  188.5330  174.7660  143.5050 C   0  0  1  0  0  3  0  0  0  0  0  0
  187.4110  178.2560  143.1800 O   0  0  0  0  0  0  0  0  0  0  0  0
  187.3070  178.2920  145.5740 C   0  0  0  0  0  2  0  0  0  0  0  0
  190.4260  171.7330  142.6680 C   0  0  2  0  0  3  0  0  0  0  0  0
  191.0210  175.4500  143.7090 C   0  0  0  0  0  0  0  0  0  0  0  0
  188.7830  174.3380  141.2240 C   0  0  0  0  0  0  0  0  0  0  0  0
  185.4530  179.1690  144.1860 C   0  0  0  0  0  1  0  0  0  0  0  0
  189.0370  172.3760  142.7630 C   0  0  0  0  0  2  0  0  0  0  0  0
  191.5640  176.5230  142.9800 C   0  0  0  0  0  3  0  0  0  0  0  0
  193.0280  174.1620  143.2360 C   0  0  0  0  0  3  0  0  0  0  0  0
  193.5640  175.2410  142.5330 C   0  0  0  0  0  3  0  0  0  0  0  0
  191.2430  171.8530  143.9570 C   0  0  0  0  0  2  0  0  0  0  0  0
  187.7250  175.8430  142.7410 C   0  0  1  0  0  3  0  0  0  0  0  0
  189.0600  173.8170  142.5130 N   0  0  0  0  0  0  0  0  0  0  0  0
  188.3280  177.1760  143.1560 C   0  0  2  0  0  3  0  0  0  0  0  0
  187.6220  176.2330  140.3330 O   0  0  0  0  0  0  0  0  0  0  0  0
  189.6280  175.5150  144.3080 C   0  0  1  0  0  3  0  0  0  0  0  0
  1  6  1  0  0  0  0
  3 17  2  0  0  0  0
  4 22  2  0  0  0  0
  4 20  1  0  0  0  0
  5 24  1  0  0  0  0
  8  2  1  0  0  0  0
  8  7  1  1  0  0  0
  9 18  1  6  0  0  0
  9 14  1  0  0  0  0
 10  8  1  0  0  0  0
 11 15  1  0  0  0  0
 12 28  1  0  0  0  0
 13  9  1  0  0  0  0
 14  8  1  0  0  0  0
 15 19  1  0  0  0  0
 15 23  1  0  0  0  0
 16  1  1  0  0  0  0
 16 28  1  0  0  0  0
 17  5  1  0  0  0  0
 17 25  1  0  0  0  0
 20 16  2  0  0  0  0
 21  1  2  0  0  0  0
 22 21  1  0  0  0  0
 23  6  1  0  0  0  0
 24 26  1  0  0  0  0
 24 12  1  0  0  0  0
 25 19  1  0  0  0  0
 25 12  1  0  0  0  0
 26 13  1  0  0  0  0
 26 10  1  0  0  0  0
 27  5  2  0  0  0  0
 28 10  1  0  0  0  0
M  END
>  <MODEL>
6

>  <REMARK>
 VINA RESULT:      -7.5      1.546      1.888
  Name = 
  0 active torsions:
  status: ('A' for Active; 'I' for Inactive)
                            x       y       z     vdW  Elec       q    Type
                         _______ _______ _______ _____ _____    ______ ____

>  <TORSDO>
F 0

$$$$
=
 OpenBabel11112417393D

 28 32  0  0  1  0  0  0  0  0999 V2000
  194.1290  173.9750  145.0050 C   0  0  0  0  0  0  0  0  0  0  0  0
  189.8020  174.9810  147.4220 F   0  0  0  0  0  0  0  0  0  0  0  0
  191.3900  172.7310  141.5780 O   0  0  0  0  0  0  0  0  0  0  0  0
  194.6520  176.2050  143.3950 C   0  0  0  0  0  3  0  0  0  0  0  0
  190.0520  174.3430  142.7310 C   0  0  0  0  0  0  0  0  0  0  0  0
  193.8340  172.8420  145.7630 O   0  0  0  0  0  0  0  0  0  0  0  0
  191.1940  176.7570  148.1060 C   0  0  0  0  0  1  0  0  0  0  0  0
  190.2740  176.2230  147.0260 C   0  0  1  0  0  0  0  0  0  0  0  0
  188.2850  176.7580  145.6620 C   0  0  1  0  0  3  0  0  0  0  0  0
  191.0550  176.1330  145.6960 C   0  0  2  0  0  3  0  0  0  0  0  0
  193.7880  171.7080  142.9180 O   0  0  0  0  0  1  0  0  0  0  0  0
  190.8540  173.8180  144.9140 C   0  0  1  0  0  3  0  0  0  0  0  0
  189.0400  176.9930  144.4980 O   0  0  0  0  0  0  0  0  0  0  0  0
  189.0890  177.1660  146.8880 C   0  0  0  0  0  2  0  0  0  0  0  0
  193.2540  171.1650  144.0890 C   0  0  2  0  0  3  0  0  0  0  0  0
  193.1640  174.9860  144.8870 C   0  0  0  0  0  0  0  0  0  0  0  0
  191.0320  173.2980  142.6450 C   0  0  0  0  0  0  0  0  0  0  0  0
  187.0100  177.5710  145.6050 C   0  0  0  0  0  1  0  0  0  0  0  0
  191.7740  171.5290  144.2580 C   0  0  0  0  0  2  0  0  0  0  0  0
  193.4320  176.0950  144.0650 C   0  0  0  0  0  3  0  0  0  0  0  0
  195.3520  174.0870  144.3270 C   0  0  0  0  0  3  0  0  0  0  0  0
  195.6140  175.2010  143.5290 C   0  0  0  0  0  3  0  0  0  0  0  0
  194.1140  171.5260  145.3020 C   0  0  0  0  0  2  0  0  0  0  0  0
  189.7980  174.6640  144.1600 C   0  0  1  0  0  3  0  0  0  0  0  0
  191.4930  172.9270  143.9330 N   0  0  0  0  0  0  0  0  0  0  0  0
  190.1490  176.1140  144.4580 C   0  0  2  0  0  3  0  0  0  0  0  0
  189.4610  174.8670  141.7510 O   0  0  0  0  0  0  0  0  0  0  0  0
  191.8280  174.8180  145.5890 C   0  0  1  0  0  3  0  0  0  0  0  0
  1  6  1  0  0  0  0
  3 17  2  0  0  0  0
  4 22  2  0  0  0  0
  4 20  1  0  0  0  0
  5 24  1  0  0  0  0
  8  2  1  0  0  0  0
  8  7  1  1  0  0  0
  9 18  1  6  0  0  0
  9 14  1  0  0  0  0
 10  8  1  0  0  0  0
 11 15  1  0  0  0  0
 12 28  1  0  0  0  0
 13  9  1  0  0  0  0
 14  8  1  0  0  0  0
 15 19  1  0  0  0  0
 15 23  1  0  0  0  0
 16  1  1  0  0  0  0
 16 28  1  0  0  0  0
 17  5  1  0  0  0  0
 17 25  1  0  0  0  0
 20 16  2  0  0  0  0
 21  1  2  0  0  0  0
 22 21  1  0  0  0  0
 23  6  1  0  0  0  0
 24 26  1  0  0  0  0
 24 12  1  0  0  0  0
 25 19  1  0  0  0  0
 25 12  1  0  0  0  0
 26 13  1  0  0  0  0
 26 10  1  0  0  0  0
 27  5  2  0  0  0  0
 28 10  1  0  0  0  0
M  END
>  <MODEL>
7

>  <REMARK>
 VINA RESULT:      -7.2      2.651      4.024
  Name = 
  0 active torsions:
  status: ('A' for Active; 'I' for Inactive)
                            x       y       z     vdW  Elec       q    Type
                         _______ _______ _______ _____ _____    ______ ____

>  <TORSDO>
F 0

$$$$
=
 OpenBabel11112417393D

 28 32  0  0  1  0  0  0  0  0999 V2000
  187.1430  176.7310  143.8360 C   0  0  0  0  0  0  0  0  0  0  0  0
  189.3160  172.2530  144.7290 F   0  0  0  0  0  0  0  0  0  0  0  0
  189.7800  178.1770  147.2640 O   0  0  0  0  0  0  0  0  0  0  0  0
  188.9410  178.1580  142.2340 C   0  0  0  0  0  3  0  0  0  0  0  0
  191.0440  176.3400  146.3980 C   0  0  0  0  0  0  0  0  0  0  0  0
  186.2770  176.0410  144.6840 O   0  0  0  0  0  0  0  0  0  0  0  0
  189.1810  172.2940  142.3750 C   0  0  0  0  0  1  0  0  0  0  0  0
  189.9610  172.7310  143.5990 C   0  0  1  0  0  0  0  0  0  0  0  0
  192.2030  172.7200  144.6380 C   0  0  1  0  0  3  0  0  0  0  0  0
  190.0570  174.2730  143.6130 C   0  0  2  0  0  3  0  0  0  0  0  0
  186.9980  178.4760  146.3950 O   0  0  0  0  0  1  0  0  0  0  0  0
  189.1620  175.0170  145.7710 C   0  0  1  0  0  3  0  0  0  0  0  0
  192.4320  174.0810  144.3640 O   0  0  0  0  0  0  0  0  0  0  0  0
  191.3480  172.1100  143.5370 C   0  0  0  0  0  2  0  0  0  0  0  0
  186.4400  177.2600  146.7900 C   0  0  2  0  0  3  0  0  0  0  0  0
  188.4220  176.2080  143.5950 C   0  0  0  0  0  0  0  0  0  0  0  0
  189.8340  177.0450  146.7140 C   0  0  0  0  0  0  0  0  0  0  0  0
  193.5280  171.9930  144.7060 C   0  0  0  0  0  1  0  0  0  0  0  0
  187.5130  176.2710  147.2630 C   0  0  0  0  0  2  0  0  0  0  0  0
  189.3220  176.9400  142.8000 C   0  0  0  0  0  3  0  0  0  0  0  0
  186.7670  177.9580  143.2700 C   0  0  0  0  0  3  0  0  0  0  0  0
  187.6620  178.6660  142.4660 C   0  0  0  0  0  3  0  0  0  0  0  0
  185.5270  176.6940  145.7000 C   0  0  0  0  0  2  0  0  0  0  0  0
  190.7060  174.9860  145.8860 C   0  0  1  0  0  3  0  0  0  0  0  0
  188.6940  176.2620  146.3990 N   0  0  0  0  0  0  0  0  0  0  0  0
  191.2180  174.8040  144.4650 C   0  0  2  0  0  3  0  0  0  0  0  0
  192.2090  176.7820  146.5770 O   0  0  0  0  0  0  0  0  0  0  0  0
  188.8250  174.9050  144.2620 C   0  0  1  0  0  3  0  0  0  0  0  0
  1  6  1  0  0  0  0
  4 22  2  0  0  0  0
  4 20  1  0  0  0  0
  5 27  2  0  0  0  0
  5 17  1  0  0  0  0
  6 23  1  0  0  0  0
  8  7  1  6  0  0  0
  8 10  1  0  0  0  0
  8  2  1  0  0  0  0
  9 18  1  6  0  0  0
 10 28  1  0  0  0  0
 10 26  1  0  0  0  0
 11 15  1  0  0  0  0
 12 24  1  0  0  0  0
 12 25  1  0  0  0  0
 13 26  1  0  0  0  0
 13  9  1  0  0  0  0
 14  8  1  0  0  0  0
 14  9  1  0  0  0  0
 15 19  1  0  0  0  0
 16  1  1  0  0  0  0
 16 28  1  0  0  0  0
 17  3  2  0  0  0  0
 20 16  2  0  0  0  0
 21  1  2  0  0  0  0
 22 21  1  0  0  0  0
 23 15  1  0  0  0  0
 24  5  1  0  0  0  0
 25 17  1  0  0  0  0
 25 19  1  0  0  0  0
 26 24  1  0  0  0  0
 28 12  1  0  0  0  0
M  END
>  <MODEL>
8

>  <REMARK>
 VINA RESULT:      -7.1      2.553      6.264
  Name = 
  0 active torsions:
  status: ('A' for Active; 'I' for Inactive)
                            x       y       z     vdW  Elec       q    Type
                         _______ _______ _______ _____ _____    ______ ____

>  <TORSDO>
F 0

$$$$
=
 OpenBabel11112417393D

 28 32  0  0  1  0  0  0  0  0999 V2000
  195.0730  176.0500  141.8690 C   0  0  0  0  0  0  0  0  0  0  0  0
  192.3610  177.1660  145.9900 F   0  0  0  0  0  0  0  0  0  0  0  0
  195.8060  172.0800  143.9890 O   0  0  0  0  0  0  0  0  0  0  0  0
  193.3920  174.5310  140.2250 C   0  0  0  0  0  3  0  0  0  0  0  0
  193.6960  172.7510  144.8940 C   0  0  0  0  0  0  0  0  0  0  0  0
  195.9260  176.7550  142.7180 O   0  0  0  0  0  0  0  0  0  0  0  0
  191.0690  178.1100  144.2580 C   0  0  0  0  0  1  0  0  0  0  0  0
  191.4140  176.8500  145.0280 C   0  0  1  0  0  0  0  0  0  0  0  0
  190.4460  174.9780  146.3170 C   0  0  1  0  0  3  0  0  0  0  0  0
  191.9430  175.7840  144.0420 C   0  0  2  0  0  3  0  0  0  0  0  0
  197.3670  174.0620  142.4990 O   0  0  0  0  0  1  0  0  0  0  0  0
  194.1460  175.0910  144.8660 C   0  0  1  0  0  3  0  0  0  0  0  0
  190.6410  174.0490  145.2780 O   0  0  0  0  0  0  0  0  0  0  0  0
  190.1610  176.3530  145.7300 C   0  0  0  0  0  2  0  0  0  0  0  0
  197.5330  175.0710  143.4480 C   0  0  2  0  0  3  0  0  0  0  0  0
  193.8260  175.6280  142.3550 C   0  0  0  0  0  0  0  0  0  0  0  0
  195.0080  172.9820  144.3600 C   0  0  0  0  0  0  0  0  0  0  0  0
  189.2730  174.5420  147.1670 C   0  0  0  0  0  1  0  0  0  0  0  0
  196.6790  174.8200  144.6980 C   0  0  0  0  0  2  0  0  0  0  0  0
  192.9950  174.8540  141.5240 C   0  0  0  0  0  3  0  0  0  0  0  0
  195.4690  175.7190  140.5650 C   0  0  0  0  0  3  0  0  0  0  0  0
  194.6280  174.9670  139.7440 C   0  0  0  0  0  3  0  0  0  0  0  0
  197.3110  176.4520  142.8260 C   0  0  0  0  0  2  0  0  0  0  0  0
  193.1120  174.0420  145.3430 C   0  0  1  0  0  3  0  0  0  0  0  0
  195.3260  174.3630  144.3770 N   0  0  0  0  0  0  0  0  0  0  0  0
  191.8340  174.3510  144.5790 C   0  0  2  0  0  3  0  0  0  0  0  0
  193.1480  171.6230  145.0130 O   0  0  0  0  0  0  0  0  0  0  0  0
  193.4420  175.9530  143.7870 C   0  0  1  0  0  3  0  0  0  0  0  0
  1 16  1  0  0  0  0
  1  6  1  0  0  0  0
  3 17  2  0  0  0  0
  4 20  1  0  0  0  0
  5 27  2  0  0  0  0
  5 24  1  0  0  0  0
  6 23  1  0  0  0  0
  8  7  1  6  0  0  0
  8 14  1  0  0  0  0
  8  2  1  0  0  0  0
  9 18  1  6  0  0  0
 10 26  1  0  0  0  0
 10  8  1  0  0  0  0
 11 15  1  0  0  0  0
 12 24  1  0  0  0  0
 13  9  1  0  0  0  0
 14  9  1  0  0  0  0
 15 19  1  0  0  0  0
 16 28  1  0  0  0  0
 17 25  1  0  0  0  0
 17  5  1  0  0  0  0
 20 16  2  0  0  0  0
 21  1  2  0  0  0  0
 22  4  2  0  0  0  0
 22 21  1  0  0  0  0
 23 15  1  0  0  0  0
 25 19  1  0  0  0  0
 25 12  1  0  0  0  0
 26 13  1  0  0  0  0
 26 24  1  0  0  0  0
 28 10  1  0  0  0  0
 28 12  1  0  0  0  0
M  END
>  <MODEL>
9

>  <REMARK>
 VINA RESULT:      -6.9      4.379      6.719
  Name = 
  0 active torsions:
  status: ('A' for Active; 'I' for Inactive)
                            x       y       z     vdW  Elec       q    Type
                         _______ _______ _______ _____ _____    ______ ____

>  <TORSDO>
F 0

$$$$
