=
 OpenBabel11112416513D

 31 36  0  0  1  0  0  0  0  0999 V2000
  196.6830  170.7180  145.7500 C   0  0  0  0  0  0  0  0  0  0  0  0
  195.8030  174.3910  145.3040 C   0  0  2  0  0  3  0  0  0  0  0  0
  196.3230  174.8200  143.9100 C   0  0  1  0  0  3  0  0  0  0  0  0
  196.8190  174.3540  141.5160 C   0  0  1  0  0  3  0  0  0  0  0  0
  195.6700  172.9050  145.4940 C   0  0  0  0  0  0  0  0  0  0  0  0
  195.4140  170.1360  145.8150 C   0  0  0  0  0  3  0  0  0  0  0  0
  196.0910  173.8380  142.7620 C   0  0  0  0  0  2  0  0  0  0  0  0
  193.2890  174.5060  145.1700 C   0  0  2  0  0  3  0  0  0  0  0  0
  197.8170  169.9230  145.8440 O   0  0  0  0  0  1  0  0  0  0  0  0
  195.7450  177.0230  144.6190 O   0  0  0  0  0  0  0  0  0  0  0  0
  196.5790  173.4940  140.4470 O   0  0  0  0  0  1  0  0  0  0  0  0
  193.2450  173.1140  145.4930 O   0  0  0  0  0  0  0  0  0  0  0  0
  194.5450  175.1630  145.7660 C   0  0  2  0  0  3  0  0  0  0  0  0
  196.8120  172.1020  145.5910 C   0  0  0  0  0  3  0  0  0  0  0  0
  196.3620  175.7720  141.1470 C   0  0  0  0  0  2  0  0  0  0  0  0
  194.3940  172.3180  145.5580 C   0  0  0  0  0  0  0  0  0  0  0  0
  194.2710  170.9360  145.7220 C   0  0  0  0  0  3  0  0  0  0  0  0
  194.6180  176.6700  145.3950 C   0  0  0  0  0  2  0  0  0  0  0  0
  195.7320  176.1680  143.5110 C   0  0  1  0  0  3  0  0  0  0  0  0
  196.5110  176.7310  142.3330 C   0  0  0  0  0  2  0  0  0  0  0  0
  190.9140  174.3540  145.3730 O   0  0  0  0  0  0  0  0  0  0  0  0
  191.1160  175.4630  144.5320 C   0  0  2  0  0  3  0  0  0  0  0  0
  192.0160  175.1760  145.6710 C   0  0  2  0  0  3  0  0  0  0  0  0
  188.2680  176.8560  142.8810 C   0  0  1  0  0  3  0  0  0  0  0  0
  188.7850  176.1040  144.8760 O   0  0  0  0  0  0  0  0  0  0  0  0
  191.5710  178.2130  143.8640 O   0  0  0  0  0  1  0  0  0  0  0  0
  187.6840  176.4680  141.5400 C   0  0  0  0  0  1  0  0  0  0  0  0
  188.5260  175.6960  143.6350 O   0  0  0  0  0  0  0  0  0  0  0  0
  190.2420  177.8200  144.0260 C   0  0  2  0  0  3  0  0  0  0  0  0
  190.1230  176.5670  144.9080 C   0  0  2  0  0  3  0  0  0  0  0  0
  189.5840  177.5930  142.6680 C   0  0  0  0  0  2  0  0  0  0  0  0
  1  6  1  0  0  0  0
  1  9  1  0  0  0  0
  2  5  1  6  0  0  0
  2 13  1  0  0  0  0
  3  7  1  6  0  0  0
  3  2  1  0  0  0  0
  4 11  1  6  0  0  0
  4  7  1  0  0  0  0
  5 16  2  0  0  0  0
  5 14  1  0  0  0  0
  8 12  1  1  0  0  0
  8 23  1  0  0  0  0
  8 13  1  0  0  0  0
 10 18  1  0  0  0  0
 12 16  1  0  0  0  0
 13 18  1  6  0  0  0
 14  1  2  0  0  0  0
 15  4  1  0  0  0  0
 15 20  1  0  0  0  0
 16 17  1  0  0  0  0
 17  6  2  0  0  0  0
 19 20  1  6  0  0  0
 19  3  1  0  0  0  0
 19 10  1  0  0  0  0
 22 30  1  0  0  0  0
 22 21  1  1  0  0  0
 22 23  1  0  0  0  0
 23 21  1  1  0  0  0
 24 27  1  6  0  0  0
 24 28  1  0  0  0  0
 28 25  1  0  0  0  0
 29 26  1  6  0  0  0
 29 30  1  0  0  0  0
 30 25  1  6  0  0  0
 31 24  1  0  0  0  0
 31 29  1  0  0  0  0
M  END
>  <MODEL>
1

>  <REMARK>
 VINA RESULT:      -7.6      0.000      0.000
  Name = 
  2 active torsions:
  status: ('A' for Active; 'I' for Inactive)
    1  A    between atoms: C_5  and  C_30
    2  A    between atoms: C_10  and  C_16
                            x       y       z     vdW  Elec       q    Type
                         _______ _______ _______ _____ _____    ______ ____

>  <TORSDO>
F 2

$$$$
=
 OpenBabel11112416513D

 31 36  0  0  1  0  0  0  0  0999 V2000
  188.2030  175.9800  141.7270 C   0  0  0  0  0  0  0  0  0  0  0  0
  191.4530  176.4630  143.6420 C   0  0  2  0  0  3  0  0  0  0  0  0
  191.1120  176.3860  145.1500 C   0  0  1  0  0  3  0  0  0  0  0  0
  189.7900  175.4820  147.0560 C   0  0  1  0  0  3  0  0  0  0  0  0
  190.4070  175.8820  142.7300 C   0  0  0  0  0  0  0  0  0  0  0  0
  188.4520  174.7780  141.0590 C   0  0  0  0  0  3  0  0  0  0  0  0
  190.1350  175.2900  145.5750 C   0  0  0  0  0  2  0  0  0  0  0  0
  192.8730  174.4380  143.1500 C   0  0  2  0  0  3  0  0  0  0  0  0
  186.9870  176.6270  141.5610 O   0  0  0  0  0  1  0  0  0  0  0  0
  193.3670  177.0940  145.4690 O   0  0  0  0  0  0  0  0  0  0  0  0
  188.9370  174.4630  147.4710 O   0  0  0  0  0  1  0  0  0  0  0  0
  191.8890  174.0270  142.1970 O   0  0  0  0  0  0  0  0  0  0  0  0
  192.8790  175.9690  143.2990 C   0  0  2  0  0  3  0  0  0  0  0  0
  189.1800  176.5330  142.5610 C   0  0  0  0  0  3  0  0  0  0  0  0
  191.0530  175.4830  147.9290 C   0  0  0  0  0  2  0  0  0  0  0  0
  190.6560  174.6710  142.0600 C   0  0  0  0  0  0  0  0  0  0  0  0
  189.6780  174.1250  141.2230 C   0  0  0  0  0  3  0  0  0  0  0  0
  193.9220  176.4250  144.3550 C   0  0  0  0  0  2  0  0  0  0  0  0
  192.3830  176.2390  145.9790 C   0  0  1  0  0  3  0  0  0  0  0  0
  192.0670  176.5210  147.4400 C   0  0  0  0  0  2  0  0  0  0  0  0
  194.1470  172.5260  142.4980 O   0  0  0  0  0  0  0  0  0  0  0  0
  194.7310  172.9300  143.7120 C   0  0  2  0  0  3  0  0  0  0  0  0
  194.2360  173.9120  142.7220 C   0  0  2  0  0  3  0  0  0  0  0  0
  197.1210  170.8520  145.3680 C   0  0  1  0  0  3  0  0  0  0  0  0
  196.6440  171.4650  143.3170 O   0  0  0  0  0  0  0  0  0  0  0  0
  196.5140  174.5050  145.3100 O   0  0  0  0  0  1  0  0  0  0  0  0
  196.8680  169.7940  146.4200 C   0  0  0  0  0  1  0  0  0  0  0  0
  196.2110  170.6890  144.3080 O   0  0  0  0  0  0  0  0  0  0  0  0
  196.9960  173.2740  144.8640 C   0  0  2  0  0  3  0  0  0  0  0  0
  196.2530  172.7950  143.6060 C   0  0  2  0  0  3  0  0  0  0  0  0
  196.9090  172.2330  145.9760 C   0  0  0  0  0  2  0  0  0  0  0  0
  1 14  1  0  0  0  0
  2  5  1  6  0  0  0
  2  3  1  0  0  0  0
  3  7  1  6  0  0  0
  3 19  1  0  0  0  0
  4 11  1  1  0  0  0
  4 15  1  0  0  0  0
  6 17  1  0  0  0  0
  6  1  2  0  0  0  0
  7  4  1  0  0  0  0
  8 12  1  6  0  0  0
  8 13  1  0  0  0  0
  9  1  1  0  0  0  0
 10 19  1  0  0  0  0
 13  2  1  0  0  0  0
 13 18  1  1  0  0  0
 14  5  2  0  0  0  0
 16 12  1  0  0  0  0
 16  5  1  0  0  0  0
 17 16  2  0  0  0  0
 18 10  1  0  0  0  0
 19 20  1  1  0  0  0
 20 15  1  0  0  0  0
 22 21  1  6  0  0  0
 23 21  1  6  0  0  0
 23  8  1  0  0  0  0
 23 22  1  0  0  0  0
 24 31  1  0  0  0  0
 24 27  1  1  0  0  0
 25 28  1  0  0  0  0
 28 24  1  0  0  0  0
 29 26  1  1  0  0  0
 29 31  1  0  0  0  0
 30 25  1  1  0  0  0
 30 22  1  0  0  0  0
 30 29  1  0  0  0  0
M  END
>  <MODEL>
2

>  <REMARK>
 VINA RESULT:      -7.4      2.153      7.671
  Name = 
  2 active torsions:
  status: ('A' for Active; 'I' for Inactive)
    1  A    between atoms: C_5  and  C_30
    2  A    between atoms: C_10  and  C_16
                            x       y       z     vdW  Elec       q    Type
                         _______ _______ _______ _____ _____    ______ ____

>  <TORSDO>
F 2

$$$$
=
 OpenBabel11112416513D

 31 36  0  0  1  0  0  0  0  0999 V2000
  186.0830  178.2650  147.5750 C   0  0  0  0  0  0  0  0  0  0  0  0
  188.1290  175.6490  145.7230 C   0  0  2  0  0  3  0  0  0  0  0  0
  187.8990  175.8750  144.2090 C   0  0  1  0  0  3  0  0  0  0  0  0
  187.4910  177.3550  142.2510 C   0  0  1  0  0  3  0  0  0  0  0  0
  187.7620  176.8170  146.5960 C   0  0  0  0  0  0  0  0  0  0  0  0
  187.0870  179.0130  148.1950 C   0  0  0  0  0  3  0  0  0  0  0  0
  187.9040  177.3250  143.7260 C   0  0  0  0  0  2  0  0  0  0  0  0
  190.5500  176.2120  146.1470 C   0  0  2  0  0  3  0  0  0  0  0  0
  184.7500  178.6100  147.7530 O   0  0  0  0  0  1  0  0  0  0  0  0
  189.0880  173.8240  143.9480 O   0  0  0  0  0  0  0  0  0  0  0  0
  187.5360  178.6660  141.7820 O   0  0  0  0  0  1  0  0  0  0  0  0
  190.1160  177.2150  147.0700 O   0  0  0  0  0  0  0  0  0  0  0  0
  189.5230  175.0700  146.0640 C   0  0  2  0  0  3  0  0  0  0  0  0
  186.4190  177.1670  146.7770 C   0  0  0  0  0  3  0  0  0  0  0  0
  188.4100  176.4720  141.3950 C   0  0  0  0  0  2  0  0  0  0  0  0
  188.7720  177.5720  147.2190 C   0  0  0  0  0  0  0  0  0  0  0  0
  188.4300  178.6660  148.0190 C   0  0  0  0  0  3  0  0  0  0  0  0
  189.9700  173.9890  145.0410 C   0  0  0  0  0  2  0  0  0  0  0  0
  188.9240  175.0960  143.3910 C   0  0  1  0  0  3  0  0  0  0  0  0
  188.4730  175.0420  141.9400 C   0  0  0  0  0  2  0  0  0  0  0  0
  192.8070  176.7900  146.6700 O   0  0  0  0  0  0  0  0  0  0  0  0
  192.9150  175.9950  145.5140 C   0  0  2  0  0  3  0  0  0  0  0  0
  191.9210  175.7020  146.5700 C   0  0  2  0  0  3  0  0  0  0  0  0
  196.0990  175.8660  143.8960 C   0  0  1  0  0  3  0  0  0  0  0  0
  195.3100  175.7860  145.9410 O   0  0  0  0  0  0  0  0  0  0  0  0
  193.1760  173.5920  143.9740 O   0  0  0  0  0  1  0  0  0  0  0  0
  196.6420  176.7910  142.8280 C   0  0  0  0  0  1  0  0  0  0  0  0
  195.5280  176.6260  144.9320 O   0  0  0  0  0  0  0  0  0  0  0  0
  194.3600  174.1810  144.4200 C   0  0  2  0  0  3  0  0  0  0  0  0
  194.1240  175.0650  145.6550 C   0  0  2  0  0  3  0  0  0  0  0  0
  195.0140  174.9790  143.2960 C   0  0  0  0  0  2  0  0  0  0  0  0
  1  9  1  0  0  0  0
  1  6  1  0  0  0  0
  2 13  1  0  0  0  0
  2  5  1  1  0  0  0
  3  7  1  1  0  0  0
  3  2  1  0  0  0  0
  4 11  1  6  0  0  0
  4  7  1  0  0  0  0
  5 14  1  0  0  0  0
  5 16  2  0  0  0  0
  8 23  1  0  0  0  0
  8 12  1  1  0  0  0
 10 18  1  0  0  0  0
 12 16  1  0  0  0  0
 13 18  1  6  0  0  0
 13  8  1  0  0  0  0
 14  1  2  0  0  0  0
 15 20  1  0  0  0  0
 15  4  1  0  0  0  0
 16 17  1  0  0  0  0
 17  6  2  0  0  0  0
 19 20  1  6  0  0  0
 19 10  1  0  0  0  0
 19  3  1  0  0  0  0
 22 30  1  0  0  0  0
 22 23  1  0  0  0  0
 22 21  1  1  0  0  0
 23 21  1  1  0  0  0
 24 27  1  6  0  0  0
 24 28  1  0  0  0  0
 28 25  1  0  0  0  0
 29 26  1  6  0  0  0
 29 30  1  0  0  0  0
 30 25  1  6  0  0  0
 31 24  1  0  0  0  0
 31 29  1  0  0  0  0
M  END
>  <MODEL>
3

>  <REMARK>
 VINA RESULT:      -7.3      2.611      8.166
  Name = 
  2 active torsions:
  status: ('A' for Active; 'I' for Inactive)
    1  A    between atoms: C_5  and  C_30
    2  A    between atoms: C_10  and  C_16
                            x       y       z     vdW  Elec       q    Type
                         _______ _______ _______ _____ _____    ______ ____

>  <TORSDO>
F 2

$$$$
=
 OpenBabel11112416513D

 31 36  0  0  1  0  0  0  0  0999 V2000
  185.7670  177.4980  142.3410 C   0  0  0  0  0  0  0  0  0  0  0  0
  188.2360  174.9290  143.6680 C   0  0  2  0  0  3  0  0  0  0  0  0
  188.5230  173.9320  142.5190 C   0  0  1  0  0  3  0  0  0  0  0  0
  188.8210  173.3940  140.1070 C   0  0  1  0  0  3  0  0  0  0  0  0
  187.6350  176.2360  143.2310 C   0  0  0  0  0  0  0  0  0  0  0  0
  186.5310  178.6660  142.3880 C   0  0  0  0  0  3  0  0  0  0  0  0
  188.7250  174.5320  141.1280 C   0  0  0  0  0  2  0  0  0  0  0  0
  190.3970  176.1640  144.0670 C   0  0  2  0  0  3  0  0  0  0  0  0
  184.4600  177.5420  141.8760 O   0  0  0  0  0  1  0  0  0  0  0  0
  189.6760  172.6800  144.1890 O   0  0  0  0  0  0  0  0  0  0  0  0
  189.0530  173.9230  138.8390 O   0  0  0  0  0  1  0  0  0  0  0  0
  189.7120  177.3830  143.7700 O   0  0  0  0  0  0  0  0  0  0  0  0
  189.4250  175.1190  144.6400 C   0  0  2  0  0  3  0  0  0  0  0  0
  186.3160  176.2830  142.7630 C   0  0  0  0  0  3  0  0  0  0  0  0
  189.9460  172.4130  140.4680 C   0  0  0  0  0  2  0  0  0  0  0  0
  188.4040  177.4120  143.2770 C   0  0  0  0  0  0  0  0  0  0  0  0
  187.8480  178.6240  142.8580 C   0  0  0  0  0  3  0  0  0  0  0  0
  190.1540  173.7800  144.9370 C   0  0  0  0  0  2  0  0  0  0  0  0
  189.7380  173.0710  142.8470 C   0  0  1  0  0  3  0  0  0  0  0  0
  189.7870  171.8860  141.8970 C   0  0  0  0  0  2  0  0  0  0  0  0
  192.3500  177.4710  144.4960 O   0  0  0  0  0  0  0  0  0  0  0  0
  192.8360  176.1560  144.3840 C   0  0  2  0  0  3  0  0  0  0  0  0
  191.5390  176.4530  145.0330 C   0  0  2  0  0  3  0  0  0  0  0  0
  196.3740  175.6880  144.2040 C   0  0  1  0  0  3  0  0  0  0  0  0
  194.9490  176.8920  145.3590 O   0  0  0  0  0  0  0  0  0  0  0  0
  193.5610  173.5300  145.2760 O   0  0  0  0  0  1  0  0  0  0  0  0
  197.2540  175.6790  142.9720 C   0  0  0  0  0  1  0  0  0  0  0  0
  195.5020  176.7900  144.1520 O   0  0  0  0  0  0  0  0  0  0  0  0
  194.5370  174.5210  145.3880 C   0  0  2  0  0  3  0  0  0  0  0  0
  193.9170  175.9260  145.4440 C   0  0  2  0  0  3  0  0  0  0  0  0
  195.5380  174.4150  144.2410 C   0  0  0  0  0  2  0  0  0  0  0  0
  1  6  2  0  0  0  0
  1 14  1  0  0  0  0
  2  5  1  6  0  0  0
  2 13  1  0  0  0  0
  3  7  1  6  0  0  0
  3 19  1  0  0  0  0
  3  2  1  0  0  0  0
  4 11  1  6  0  0  0
  4 15  1  0  0  0  0
  4  7  1  0  0  0  0
  5 16  1  0  0  0  0
  6 17  1  0  0  0  0
  8 12  1  1  0  0  0
  8 13  1  0  0  0  0
  8 23  1  0  0  0  0
  9  1  1  0  0  0  0
 10 18  1  0  0  0  0
 13 18  1  6  0  0  0
 14  5  2  0  0  0  0
 15 20  1  0  0  0  0
 16 12  1  0  0  0  0
 17 16  2  0  0  0  0
 19 20  1  6  0  0  0
 19 10  1  0  0  0  0
 22 21  1  6  0  0  0
 22 23  1  0  0  0  0
 22 30  1  0  0  0  0
 23 21  1  6  0  0  0
 24 27  1  6  0  0  0
 24 31  1  0  0  0  0
 28 24  1  0  0  0  0
 28 25  1  0  0  0  0
 29 26  1  6  0  0  0
 29 30  1  0  0  0  0
 30 25  1  6  0  0  0
 31 29  1  0  0  0  0
M  END
>  <MODEL>
4

>  <REMARK>
 VINA RESULT:      -7.2      2.442      8.052
  Name = 
  2 active torsions:
  status: ('A' for Active; 'I' for Inactive)
    1  A    between atoms: C_5  and  C_30
    2  A    between atoms: C_10  and  C_16
                            x       y       z     vdW  Elec       q    Type
                         _______ _______ _______ _____ _____    ______ ____

>  <TORSDO>
F 2

$$$$
=
 OpenBabel11112416513D

 31 36  0  0  1  0  0  0  0  0999 V2000
  185.5420  178.4760  144.8780 C   0  0  0  0  0  0  0  0  0  0  0  0
  189.1180  177.5180  144.0110 C   0  0  2  0  0  3  0  0  0  0  0  0
  189.7350  176.8630  145.2700 C   0  0  1  0  0  3  0  0  0  0  0  0
  189.5600  175.4750  147.3280 C   0  0  1  0  0  3  0  0  0  0  0  0
  187.6150  177.5750  144.0040 C   0  0  0  0  0  0  0  0  0  0  0  0
  184.8170  177.6530  144.0120 C   0  0  0  0  0  3  0  0  0  0  0  0
  188.8490  175.8790  146.0330 C   0  0  0  0  0  2  0  0  0  0  0  0
  188.9620  175.6870  142.2840 C   0  0  2  0  0  3  0  0  0  0  0  0
  184.8730  179.3320  145.7430 O   0  0  0  0  0  1  0  0  0  0  0  0
  191.7810  176.9620  144.0470 O   0  0  0  0  0  0  0  0  0  0  0  0
  188.7860  174.5410  148.0130 O   0  0  0  0  0  1  0  0  0  0  0  0
  187.5490  175.9020  142.2390 O   0  0  0  0  0  0  0  0  0  0  0  0
  189.6960  176.9800  142.6800 C   0  0  2  0  0  3  0  0  0  0  0  0
  186.9400  178.4390  144.8750 C   0  0  0  0  0  3  0  0  0  0  0  0
  190.9470  174.8820  147.0430 C   0  0  0  0  0  2  0  0  0  0  0  0
  186.8850  176.7470  143.1340 C   0  0  0  0  0  0  0  0  0  0  0  0
  185.4890  176.7910  143.1380 C   0  0  0  0  0  3  0  0  0  0  0  0
  191.2300  176.7500  142.7630 C   0  0  0  0  0  2  0  0  0  0  0  0
  191.0400  176.1570  144.9200 C   0  0  1  0  0  3  0  0  0  0  0  0
  191.7980  175.8360  146.1990 C   0  0  0  0  0  2  0  0  0  0  0  0
  188.5920  174.1180  140.5230 O   0  0  0  0  0  0  0  0  0  0  0  0
  189.8420  173.7500  141.0520 C   0  0  2  0  0  3  0  0  0  0  0  0
  189.4340  175.1680  140.9330 C   0  0  2  0  0  3  0  0  0  0  0  0
  191.3240  170.6660  140.0200 C   0  0  1  0  0  3  0  0  0  0  0  0
  190.2430  172.3390  139.1000 O   0  0  0  0  0  0  0  0  0  0  0  0
  192.6930  173.8510  141.3250 O   0  0  0  0  0  1  0  0  0  0  0  0
  191.1590  169.2970  140.6440 C   0  0  0  0  0  1  0  0  0  0  0  0
  190.0630  171.2730  139.8780 O   0  0  0  0  0  0  0  0  0  0  0  0
  192.1870  172.9610  140.3770 C   0  0  2  0  0  3  0  0  0  0  0  0
  190.7830  173.3730  139.9040 C   0  0  2  0  0  3  0  0  0  0  0  0
  192.1770  171.5390  140.9320 C   0  0  0  0  0  2  0  0  0  0  0  0
  1  9  1  0  0  0  0
  2  5  1  6  0  0  0
  2  3  1  0  0  0  0
  3  7  1  6  0  0  0
  4 11  1  6  0  0  0
  5 14  2  0  0  0  0
  6  1  2  0  0  0  0
  7  4  1  0  0  0  0
  8 12  1  6  0  0  0
  8 13  1  0  0  0  0
 10 19  1  0  0  0  0
 12 16  1  0  0  0  0
 13 18  1  1  0  0  0
 13  2  1  0  0  0  0
 14  1  1  0  0  0  0
 15  4  1  0  0  0  0
 16 17  2  0  0  0  0
 16  5  1  0  0  0  0
 17  6  1  0  0  0  0
 18 10  1  0  0  0  0
 19  3  1  0  0  0  0
 19 20  1  1  0  0  0
 20 15  1  0  0  0  0
 22 21  1  6  0  0  0
 23 21  1  6  0  0  0
 23 22  1  0  0  0  0
 23  8  1  0  0  0  0
 24 27  1  1  0  0  0
 24 31  1  0  0  0  0
 25 28  1  0  0  0  0
 28 24  1  0  0  0  0
 29 31  1  0  0  0  0
 29 26  1  1  0  0  0
 30 25  1  1  0  0  0
 30 29  1  0  0  0  0
 30 22  1  0  0  0  0
M  END
>  <MODEL>
5

>  <REMARK>
 VINA RESULT:      -7.0      4.112      8.283
  Name = 
  2 active torsions:
  status: ('A' for Active; 'I' for Inactive)
    1  A    between atoms: C_5  and  C_30
    2  A    between atoms: C_10  and  C_16
                            x       y       z     vdW  Elec       q    Type
                         _______ _______ _______ _____ _____    ______ ____

>  <TORSDO>
F 2

$$$$
=
 OpenBabel11112416513D

 31 36  0  0  1  0  0  0  0  0999 V2000
  187.9900  176.4010  146.7830 C   0  0  0  0  0  0  0  0  0  0  0  0
  190.4870  173.9400  145.3120 C   0  0  2  0  0  3  0  0  0  0  0  0
  189.9470  173.5120  143.9260 C   0  0  1  0  0  3  0  0  0  0  0  0
  188.7310  173.9840  141.8060 C   0  0  1  0  0  3  0  0  0  0  0  0
  189.8840  175.2040  145.8600 C   0  0  0  0  0  0  0  0  0  0  0  0
  188.7560  177.5680  146.8460 C   0  0  0  0  0  3  0  0  0  0  0  0
  189.3640  174.6190  143.0480 C   0  0  0  0  0  2  0  0  0  0  0  0
  192.5920  175.2510  144.8600 C   0  0  2  0  0  3  0  0  0  0  0  0
  186.6690  176.4150  147.2100 O   0  0  0  0  0  1  0  0  0  0  0  0
  191.7180  171.9150  143.9750 O   0  0  0  0  0  0  0  0  0  0  0  0
  188.2360  174.9840  140.9720 O   0  0  0  0  0  1  0  0  0  0  0  0
  191.9930  176.3690  145.5210 O   0  0  0  0  0  0  0  0  0  0  0  0
  192.0310  173.9290  145.4110 C   0  0  2  0  0  3  0  0  0  0  0  0
  188.5520  175.2190  146.2920 C   0  0  0  0  0  3  0  0  0  0  0  0
  189.7460  173.1270  141.0360 C   0  0  0  0  0  2  0  0  0  0  0  0
  190.6530  176.3790  145.9210 C   0  0  0  0  0  0  0  0  0  0  0  0
  190.0870  177.5560  146.4180 C   0  0  0  0  0  3  0  0  0  0  0  0
  192.6530  172.7090  144.6780 C   0  0  0  0  0  2  0  0  0  0  0  0
  191.0290  172.7920  143.1290 C   0  0  1  0  0  3  0  0  0  0  0  0
  190.3940  172.0790  141.9460 C   0  0  0  0  0  2  0  0  0  0  0  0
  194.5600  176.5620  144.5240 O   0  0  0  0  0  0  0  0  0  0  0  0
  194.7470  175.4430  143.6920 C   0  0  2  0  0  3  0  0  0  0  0  0
  194.1050  175.3260  145.0200 C   0  0  2  0  0  3  0  0  0  0  0  0
  197.3850  175.2780  141.2870 C   0  0  1  0  0  3  0  0  0  0  0  0
  197.0940  176.0120  143.3330 O   0  0  0  0  0  0  0  0  0  0  0  0
  195.5350  172.7260  143.2330 O   0  0  0  0  0  1  0  0  0  0  0  0
  197.3440  175.6730  139.8260 C   0  0  0  0  0  1  0  0  0  0  0  0
  196.7970  176.2910  142.0660 O   0  0  0  0  0  0  0  0  0  0  0  0
  196.4960  173.7070  142.9840 C   0  0  2  0  0  3  0  0  0  0  0  0
  196.2100  174.9960  143.7710 C   0  0  2  0  0  3  0  0  0  0  0  0
  196.5900  173.9930  141.4880 C   0  0  0  0  0  2  0  0  0  0  0  0
  1  6  1  0  0  0  0
  1  9  1  0  0  0  0
  2 13  1  0  0  0  0
  2  5  1  6  0  0  0
  3  7  1  6  0  0  0
  3  2  1  0  0  0  0
  4 11  1  6  0  0  0
  4  7  1  0  0  0  0
  5 16  2  0  0  0  0
  5 14  1  0  0  0  0
  8 23  1  0  0  0  0
  8 13  1  0  0  0  0
  8 12  1  1  0  0  0
 10 18  1  0  0  0  0
 12 16  1  0  0  0  0
 13 18  1  6  0  0  0
 14  1  2  0  0  0  0
 15  4  1  0  0  0  0
 15 20  1  0  0  0  0
 16 17  1  0  0  0  0
 17  6  2  0  0  0  0
 19 20  1  6  0  0  0
 19  3  1  0  0  0  0
 19 10  1  0  0  0  0
 22 30  1  0  0  0  0
 22 21  1  1  0  0  0
 22 23  1  0  0  0  0
 23 21  1  1  0  0  0
 24 27  1  6  0  0  0
 24 31  1  0  0  0  0
 24 28  1  0  0  0  0
 28 25  1  0  0  0  0
 29 26  1  6  0  0  0
 29 30  1  0  0  0  0
 30 25  1  6  0  0  0
 31 29  1  0  0  0  0
M  END
>  <MODEL>
6

>  <REMARK>
 VINA RESULT:      -6.9      2.367      7.279
  Name = 
  2 active torsions:
  status: ('A' for Active; 'I' for Inactive)
    1  A    between atoms: C_5  and  C_30
    2  A    between atoms: C_10  and  C_16
                            x       y       z     vdW  Elec       q    Type
                         _______ _______ _______ _____ _____    ______ ____

>  <TORSDO>
F 2

$$$$
=
 OpenBabel11112416513D

 31 36  0  0  1  0  0  0  0  0999 V2000
  187.0100  177.8290  142.6450 C   0  0  0  0  0  0  0  0  0  0  0  0
  190.6110  177.1330  143.6510 C   0  0  2  0  0  3  0  0  0  0  0  0
  190.6070  176.7910  145.1600 C   0  0  1  0  0  3  0  0  0  0  0  0
  189.5490  175.7890  147.1790 C   0  0  1  0  0  3  0  0  0  0  0  0
  189.2700  177.0210  142.9770 C   0  0  0  0  0  0  0  0  0  0  0  0
  186.7680  176.7870  141.7460 C   0  0  0  0  0  3  0  0  0  0  0  0
  189.4890  175.8690  145.6500 C   0  0  0  0  0  2  0  0  0  0  0  0
  191.2810  175.0130  142.4630 C   0  0  2  0  0  3  0  0  0  0  0  0
  186.0090  178.7480  142.9280 O   0  0  0  0  0  1  0  0  0  0  0  0
  192.9810  176.8920  144.9630 O   0  0  0  0  0  0  0  0  0  0  0  0
  188.5660  174.9150  147.6380 O   0  0  0  0  0  1  0  0  0  0  0  0
  190.0360  175.0570  141.7610 O   0  0  0  0  0  0  0  0  0  0  0  0
  191.7350  176.4290  142.8540 C   0  0  2  0  0  3  0  0  0  0  0  0
  188.2600  177.9470  143.2600 C   0  0  0  0  0  3  0  0  0  0  0  0
  190.9270  175.3120  147.6610 C   0  0  0  0  0  2  0  0  0  0  0  0
  189.0250  175.9710  142.0740 C   0  0  0  0  0  0  0  0  0  0  0  0
  187.7750  175.8610  141.4590 C   0  0  0  0  0  3  0  0  0  0  0  0
  193.0720  176.3900  143.6450 C   0  0  0  0  0  2  0  0  0  0  0  0
  191.9420  176.1820  145.5740 C   0  0  1  0  0  3  0  0  0  0  0  0
  192.0490  176.1850  147.0910 C   0  0  0  0  0  2  0  0  0  0  0  0
  191.7780  173.1070  141.1110 O   0  0  0  0  0  0  0  0  0  0  0  0
  192.6710  173.0030  142.1920 C   0  0  2  0  0  3  0  0  0  0  0  0
  192.3190  174.3120  141.5970 C   0  0  2  0  0  3  0  0  0  0  0  0
  194.5680  170.0100  142.6550 C   0  0  1  0  0  3  0  0  0  0  0  0
  193.9430  171.2980  140.9930 O   0  0  0  0  0  0  0  0  0  0  0  0
  195.1040  173.5500  143.6050 O   0  0  0  0  0  1  0  0  0  0  0  0
  194.1960  168.7840  143.4610 C   0  0  0  0  0  1  0  0  0  0  0  0
  193.4780  170.3960  141.8540 O   0  0  0  0  0  0  0  0  0  0  0  0
  195.1010  172.4260  142.7770 C   0  0  2  0  0  3  0  0  0  0  0  0
  194.0350  172.5370  141.6740 C   0  0  2  0  0  3  0  0  0  0  0  0
  194.9000  171.1580  143.6010 C   0  0  0  0  0  2  0  0  0  0  0  0
  1  9  1  0  0  0  0
  1 14  1  0  0  0  0
  2  5  1  6  0  0  0
  2  3  1  0  0  0  0
  3 19  1  0  0  0  0
  3  7  1  6  0  0  0
  4 11  1  6  0  0  0
  4 15  1  0  0  0  0
  5 14  2  0  0  0  0
  6  1  2  0  0  0  0
  7  4  1  0  0  0  0
  8 12  1  6  0  0  0
  8 13  1  0  0  0  0
 10 19  1  0  0  0  0
 12 16  1  0  0  0  0
 13 18  1  1  0  0  0
 13  2  1  0  0  0  0
 16  5  1  0  0  0  0
 17  6  1  0  0  0  0
 17 16  2  0  0  0  0
 18 10  1  0  0  0  0
 19 20  1  1  0  0  0
 20 15  1  0  0  0  0
 22 21  1  6  0  0  0
 23 21  1  6  0  0  0
 23 22  1  0  0  0  0
 23  8  1  0  0  0  0
 24 27  1  1  0  0  0
 24 31  1  0  0  0  0
 25 28  1  0  0  0  0
 28 24  1  0  0  0  0
 29 31  1  0  0  0  0
 29 26  1  1  0  0  0
 30 25  1  1  0  0  0
 30 22  1  0  0  0  0
 30 29  1  0  0  0  0
M  END
>  <MODEL>
7

>  <REMARK>
 VINA RESULT:      -6.7      2.635      7.905
  Name = 
  2 active torsions:
  status: ('A' for Active; 'I' for Inactive)
    1  A    between atoms: C_5  and  C_30
    2  A    between atoms: C_10  and  C_16
                            x       y       z     vdW  Elec       q    Type
                         _______ _______ _______ _____ _____    ______ ____

>  <TORSDO>
F 2

$$$$
=
 OpenBabel11112416513D

 31 36  0  0  1  0  0  0  0  0999 V2000
  194.6280  170.2270  144.6410 C   0  0  0  0  0  0  0  0  0  0  0  0
  193.3950  173.6070  145.8700 C   0  0  2  0  0  3  0  0  0  0  0  0
  194.4060  174.6710  145.3770 C   0  0  1  0  0  3  0  0  0  0  0  0
  196.0190  175.5500  143.6970 C   0  0  1  0  0  3  0  0  0  0  0  0
  193.4640  172.2910  145.1450 C   0  0  0  0  0  0  0  0  0  0  0  0
  193.6010  169.8590  143.7680 C   0  0  0  0  0  3  0  0  0  0  0  0
  194.9100  174.5220  143.9410 C   0  0  0  0  0  2  0  0  0  0  0  0
  191.2470  174.0700  144.6340 C   0  0  2  0  0  3  0  0  0  0  0  0
  195.7170  169.3860  144.8250 O   0  0  0  0  0  1  0  0  0  0  0  0
  193.1760  176.1650  146.7700 O   0  0  0  0  0  0  0  0  0  0  0  0
  196.4570  175.4590  142.3780 O   0  0  0  0  0  1  0  0  0  0  0  0
  191.3160  172.7480  144.0950 O   0  0  0  0  0  0  0  0  0  0  0  0
  191.9470  174.1370  146.0020 C   0  0  2  0  0  3  0  0  0  0  0  0
  194.5600  171.4410  145.3300 C   0  0  0  0  0  3  0  0  0  0  0  0
  195.5310  176.9780  143.9790 C   0  0  0  0  0  2  0  0  0  0  0  0
  192.4310  171.9210  144.2650 C   0  0  0  0  0  0  0  0  0  0  0  0
  192.5030  170.7040  143.5820 C   0  0  0  0  0  3  0  0  0  0  0  0
  191.9050  175.5770  146.5830 C   0  0  0  0  0  2  0  0  0  0  0  0
  193.8280  176.0730  145.5360 C   0  0  1  0  0  3  0  0  0  0  0  0
  194.9420  177.0970  145.3880 C   0  0  0  0  0  2  0  0  0  0  0  0
  189.0910  174.0140  143.6080 O   0  0  0  0  0  0  0  0  0  0  0  0
  189.4430  175.3760  143.5930 C   0  0  2  0  0  3  0  0  0  0  0  0
  189.7880  174.4950  144.7320 C   0  0  2  0  0  3  0  0  0  0  0  0
  187.1050  177.1990  141.5970 C   0  0  1  0  0  3  0  0  0  0  0  0
  187.0550  175.7570  143.2500 O   0  0  0  0  0  0  0  0  0  0  0  0
  189.6170  178.1850  144.1350 O   0  0  0  0  0  1  0  0  0  0  0  0
  187.0710  177.3360  140.0900 C   0  0  0  0  0  1  0  0  0  0  0  0
  187.2930  175.8490  141.9430 O   0  0  0  0  0  0  0  0  0  0  0  0
  188.3960  177.7170  143.6470 C   0  0  2  0  0  3  0  0  0  0  0  0
  188.2090  176.2180  143.9320 C   0  0  2  0  0  3  0  0  0  0  0  0
  188.2720  178.0050  142.1540 C   0  0  0  0  0  2  0  0  0  0  0  0
  1  9  1  0  0  0  0
  1 14  1  0  0  0  0
  2  5  1  6  0  0  0
  2 13  1  0  0  0  0
  3  7  1  6  0  0  0
  3 19  1  0  0  0  0
  3  2  1  0  0  0  0
  4 11  1  6  0  0  0
  4  7  1  0  0  0  0
  4 15  1  0  0  0  0
  5 14  2  0  0  0  0
  6  1  2  0  0  0  0
  8 12  1  1  0  0  0
  8 23  1  0  0  0  0
  8 13  1  0  0  0  0
 12 16  1  0  0  0  0
 13 18  1  6  0  0  0
 15 20  1  0  0  0  0
 16  5  1  0  0  0  0
 17  6  1  0  0  0  0
 17 16  2  0  0  0  0
 18 10  1  0  0  0  0
 19 20  1  1  0  0  0
 19 10  1  0  0  0  0
 22 21  1  6  0  0  0
 22 30  1  0  0  0  0
 22 23  1  0  0  0  0
 23 21  1  6  0  0  0
 24 27  1  6  0  0  0
 24 28  1  0  0  0  0
 24 31  1  0  0  0  0
 28 25  1  0  0  0  0
 29 30  1  0  0  0  0
 29 26  1  6  0  0  0
 30 25  1  6  0  0  0
 31 29  1  0  0  0  0
M  END
>  <MODEL>
8

>  <REMARK>
 VINA RESULT:      -6.6      1.803      2.483
  Name = 
  2 active torsions:
  status: ('A' for Active; 'I' for Inactive)
    1  A    between atoms: C_5  and  C_30
    2  A    between atoms: C_10  and  C_16
                            x       y       z     vdW  Elec       q    Type
                         _______ _______ _______ _____ _____    ______ ____

>  <TORSDO>
F 2

$$$$
=
 OpenBabel11112416513D

 31 36  0  0  1  0  0  0  0  0999 V2000
  194.2720  173.0490  141.9370 C   0  0  0  0  0  0  0  0  0  0  0  0
  191.5790  173.6860  144.5450 C   0  0  2  0  0  3  0  0  0  0  0  0
  192.1960  174.6090  145.6250 C   0  0  1  0  0  3  0  0  0  0  0  0
  193.7130  176.4530  146.3270 C   0  0  1  0  0  3  0  0  0  0  0  0
  192.3220  173.6650  143.2370 C   0  0  0  0  0  0  0  0  0  0  0  0
  193.7150  173.6580  140.8100 C   0  0  0  0  0  3  0  0  0  0  0  0
  193.0570  175.7670  145.1230 C   0  0  0  0  0  2  0  0  0  0  0  0
  189.7960  175.0550  143.4020 C   0  0  2  0  0  3  0  0  0  0  0  0
  195.5170  172.4400  141.8540 O   0  0  0  0  0  1  0  0  0  0  0  0
  190.1840  174.1730  146.8290 O   0  0  0  0  0  0  0  0  0  0  0  0
  194.4650  177.5410  145.8900 O   0  0  0  0  0  1  0  0  0  0  0  0
  190.4970  174.8690  142.1700 O   0  0  0  0  0  0  0  0  0  0  0  0
  190.0550  173.8770  144.3570 C   0  0  2  0  0  3  0  0  0  0  0  0
  193.5770  173.0510  143.1510 C   0  0  0  0  0  3  0  0  0  0  0  0
  192.6630  176.9270  147.3410 C   0  0  0  0  0  2  0  0  0  0  0  0
  191.7630  174.2790  142.1030 C   0  0  0  0  0  0  0  0  0  0  0  0
  192.4600  174.2700  140.8920 C   0  0  0  0  0  3  0  0  0  0  0  0
  189.3230  174.0840  145.7120 C   0  0  0  0  0  2  0  0  0  0  0  0
  191.1060  175.1800  146.5260 C   0  0  1  0  0  3  0  0  0  0  0  0
  191.7440  175.7790  147.7690 C   0  0  0  0  0  2  0  0  0  0  0  0
  188.1250  176.3610  142.3040 O   0  0  0  0  0  0  0  0  0  0  0  0
  187.8330  176.5100  143.6710 C   0  0  2  0  0  3  0  0  0  0  0  0
  188.3110  175.2250  143.1130 C   0  0  2  0  0  3  0  0  0  0  0  0
  185.3650  179.0420  144.1900 C   0  0  1  0  0  3  0  0  0  0  0  0
  185.6390  177.2750  142.9200 O   0  0  0  0  0  0  0  0  0  0  0  0
  186.6400  176.2520  146.2650 O   0  0  0  0  0  1  0  0  0  0  0  0
  185.5660  180.5410  144.2620 C   0  0  0  0  0  1  0  0  0  0  0  0
  186.0600  178.5280  143.0800 O   0  0  0  0  0  0  0  0  0  0  0  0
  185.8720  176.8780  145.2820 C   0  0  2  0  0  3  0  0  0  0  0  0
  186.3150  176.4680  143.8690 C   0  0  2  0  0  3  0  0  0  0  0  0
  185.9230  178.3930  145.4500 C   0  0  0  0  0  2  0  0  0  0  0  0
  1 14  1  0  0  0  0
  2  5  1  6  0  0  0
  2  3  1  0  0  0  0
  3  7  1  6  0  0  0
  3 19  1  0  0  0  0
  4 11  1  6  0  0  0
  4 15  1  0  0  0  0
  6 17  1  0  0  0  0
  6  1  2  0  0  0  0
  7  4  1  0  0  0  0
  8 12  1  6  0  0  0
  8 13  1  0  0  0  0
  9  1  1  0  0  0  0
 13  2  1  0  0  0  0
 13 18  1  1  0  0  0
 14  5  2  0  0  0  0
 15 20  1  0  0  0  0
 16 12  1  0  0  0  0
 16  5  1  0  0  0  0
 17 16  2  0  0  0  0
 18 10  1  0  0  0  0
 19 10  1  0  0  0  0
 19 20  1  1  0  0  0
 22 21  1  6  0  0  0
 22 30  1  0  0  0  0
 23 21  1  6  0  0  0
 23  8  1  0  0  0  0
 23 22  1  0  0  0  0
 24 27  1  1  0  0  0
 24 31  1  0  0  0  0
 25 28  1  0  0  0  0
 28 24  1  0  0  0  0
 29 31  1  0  0  0  0
 29 26  1  1  0  0  0
 30 25  1  6  0  0  0
 30 29  1  0  0  0  0
M  END
>  <MODEL>
9

>  <REMARK>
 VINA RESULT:      -6.5      2.923      5.178
  Name = 
  2 active torsions:
  status: ('A' for Active; 'I' for Inactive)
    1  A    between atoms: C_5  and  C_30
    2  A    between atoms: C_10  and  C_16
                            x       y       z     vdW  Elec       q    Type
                         _______ _______ _______ _____ _____    ______ ____

>  <TORSDO>
F 2

$$$$
