=
 OpenBabel11112416553D

 31 35  0  0  1  0  0  0  0  0999 V2000
  184.6960  178.4670  146.1660 C   0  0  0  0  0  0  0  0  0  0  0  0
  187.2830  177.1340  143.7780 C   0  0  0  0  0  0  0  0  0  0  0  0
  186.7610  177.2840  142.4600 C   0  0  0  0  0  0  0  0  0  0  0  0
  190.6870  175.8580  147.6030 O   0  0  0  0  0  0  0  0  0  0  0  0
  191.1780  175.5460  146.4870 C   0  0  0  0  0  0  0  0  0  0  0  0
  185.0250  177.9680  140.8850 C   0  0  0  0  0  0  0  0  0  0  0  0
  186.6050  177.5210  144.9730 C   0  0  0  0  0  0  0  0  0  0  0  0
  185.3380  178.2560  147.3860 C   0  0  0  0  0  3  0  0  0  0  0  0
  185.4970  177.8410  142.1920 C   0  0  0  0  0  3  0  0  0  0  0  0
  189.1520  176.3770  145.1670 C   0  0  0  0  0  0  0  0  0  0  0  0
  183.4320  179.0400  146.1380 O   0  0  0  0  0  1  0  0  0  0  0  0
  188.7640  176.3140  141.5710 N   0  0  0  0  0  0  0  0  0  0  0  0
  183.4470  178.6660  140.5910 Cl  0  0  0  0  0  0  0  0  0  0  0  0
  188.4760  176.7580  146.2790 N   0  0  0  0  0  0  0  0  0  0  0  0
  188.5740  176.5560  143.9040 C   0  0  0  0  0  0  0  0  0  0  0  0
  190.4570  175.7910  145.2710 N   0  0  0  0  0  2  0  0  0  0  0  0
  185.3260  178.1030  144.9750 C   0  0  0  0  0  3  0  0  0  0  0  0
  185.8090  177.5410  139.8140 C   0  0  0  0  0  3  0  0  0  0  0  0
  187.2430  177.3140  146.2220 C   0  0  0  0  0  0  0  0  0  0  0  0
  186.6080  177.6810  147.4130 C   0  0  0  0  0  3  0  0  0  0  0  0
  189.2610  176.1700  142.7960 N   0  0  0  0  0  0  0  0  0  0  0  0
  187.5420  176.8560  141.3600 C   0  0  0  0  0  0  0  0  0  0  0  0
  187.0660  176.9850  140.0530 C   0  0  0  0  0  3  0  0  0  0  0  0
  194.0780  175.7190  144.0510 C   0  0  1  0  0  3  0  0  0  0  0  0
  193.6570  175.9680  146.5130 C   0  0  0  0  0  2  0  0  0  0  0  0
  191.6950  173.0610  145.1440 O   0  0  0  0  0  1  0  0  0  0  0  0
  194.2140  176.4160  142.8510 O   0  0  0  0  0  1  0  0  0  0  0  0
  193.8210  176.7070  145.1840 C   0  0  0  0  0  2  0  0  0  0  0  0
  192.7490  173.9700  145.2490 C   0  0  2  0  0  3  0  0  0  0  0  0
  192.5420  174.9190  146.4420 C   0  0  2  0  0  3  0  0  0  0  0  0
  192.9200  174.7330  143.9370 C   0  0  0  0  0  2  0  0  0  0  0  0
  1  8  1  0  0  0  0
  2 15  1  0  0  0  0
  2  7  1  0  0  0  0
  3  2  2  0  0  0  0
  5  4  2  0  0  0  0
  6  9  2  0  0  0  0
  7 17  1  0  0  0  0
  7 19  2  0  0  0  0
  8 20  2  0  0  0  0
  9  3  1  0  0  0  0
 10 16  1  0  0  0  0
 10 14  2  0  0  0  0
 11  1  1  0  0  0  0
 12 21  1  0  0  0  0
 13  6  1  0  0  0  0
 15 10  1  0  0  0  0
 16  5  1  0  0  0  0
 17  1  2  0  0  0  0
 18 23  2  0  0  0  0
 18  6  1  0  0  0  0
 19 14  1  0  0  0  0
 19 20  1  0  0  0  0
 21 15  2  0  0  0  0
 22 12  2  0  0  0  0
 22  3  1  0  0  0  0
 23 22  1  0  0  0  0
 24 27  1  6  0  0  0
 24 28  1  0  0  0  0
 28 25  1  0  0  0  0
 29 26  1  6  0  0  0
 29 30  1  0  0  0  0
 30  5  1  6  0  0  0
 30 25  1  0  0  0  0
 31 24  1  0  0  0  0
 31 29  1  0  0  0  0
M  END
>  <MODEL>
1

>  <REMARK>
 VINA RESULT:      -9.5      0.000      0.000
  Name = 
  1 active torsions:
  status: ('A' for Active; 'I' for Inactive)
    1  A    between atoms: C_5  and  C_30
                            x       y       z     vdW  Elec       q    Type
                         _______ _______ _______ _____ _____    ______ ____

>  <TORSDO>
F 1

$$$$
=
 OpenBabel11112416553D

 31 35  0  0  1  0  0  0  0  0999 V2000
  185.2550  178.0420  146.8520 C   0  0  0  0  0  0  0  0  0  0  0  0
  187.0160  177.6220  143.5510 C   0  0  0  0  0  0  0  0  0  0  0  0
  186.0440  177.8070  142.5250 C   0  0  0  0  0  0  0  0  0  0  0  0
  191.7180  176.6980  145.7610 O   0  0  0  0  0  0  0  0  0  0  0  0
  191.8270  176.6410  144.5080 C   0  0  0  0  0  0  0  0  0  0  0  0
  183.7730  178.2650  141.7520 C   0  0  0  0  0  0  0  0  0  0  0  0
  186.7490  177.7000  144.9510 C   0  0  0  0  0  0  0  0  0  0  0  0
  186.3130  177.8370  147.7360 C   0  0  0  0  0  3  0  0  0  0  0  0
  184.6920  178.0920  142.7880 C   0  0  0  0  0  3  0  0  0  0  0  0
  189.3550  177.1450  144.0940 C   0  0  0  0  0  0  0  0  0  0  0  0
  183.9840  178.3140  147.3400 O   0  0  0  0  0  1  0  0  0  0  0  0
  187.7370  177.4270  140.8710 N   0  0  0  0  0  0  0  0  0  0  0  0
  182.0990  178.6190  142.1200 Cl  0  0  0  0  0  0  0  0  0  0  0  0
  189.0620  177.2280  145.4160 N   0  0  0  0  0  0  0  0  0  0  0  0
  188.3460  177.3390  143.1420 C   0  0  0  0  0  0  0  0  0  0  0  0
  190.6920  176.8600  143.6600 N   0  0  0  0  0  2  0  0  0  0  0  0
  185.4740  177.9740  145.4740 C   0  0  0  0  0  3  0  0  0  0  0  0
  184.1880  178.1570  140.4250 C   0  0  0  0  0  3  0  0  0  0  0  0
  187.8130  177.4950  145.8650 C   0  0  0  0  0  0  0  0  0  0  0  0
  187.5890  177.5640  147.2440 C   0  0  0  0  0  3  0  0  0  0  0  0
  188.6510  177.2540  141.8210 N   0  0  0  0  0  0  0  0  0  0  0  0
  186.4460  177.7000  141.1720 C   0  0  0  0  0  0  0  0  0  0  0  0
  185.5240  177.8740  140.1370 C   0  0  0  0  0  3  0  0  0  0  0  0
  194.3380  173.8310  144.9240 C   0  0  1  0  0  3  0  0  0  0  0  0
  193.1600  175.0590  143.0780 C   0  0  0  0  0  2  0  0  0  0  0  0
  194.2850  177.4750  145.7370 O   0  0  0  0  0  1  0  0  0  0  0  0
  194.3010  172.6940  145.7290 O   0  0  0  0  0  1  0  0  0  0  0  0
  193.1500  173.8150  143.9680 C   0  0  0  0  0  2  0  0  0  0  0  0
  194.3190  176.3340  144.9350 C   0  0  2  0  0  3  0  0  0  0  0  0
  193.1730  176.3470  143.9090 C   0  0  2  0  0  3  0  0  0  0  0  0
  194.2920  175.0770  145.8020 C   0  0  0  0  0  2  0  0  0  0  0  0
  1 11  1  0  0  0  0
  1  8  1  0  0  0  0
  2  7  1  0  0  0  0
  3  9  1  0  0  0  0
  3  2  2  0  0  0  0
  5  4  2  0  0  0  0
  6 13  1  0  0  0  0
  6  9  2  0  0  0  0
  7 17  1  0  0  0  0
  7 19  2  0  0  0  0
 10 14  2  0  0  0  0
 12 22  2  0  0  0  0
 12 21  1  0  0  0  0
 14 19  1  0  0  0  0
 15  2  1  0  0  0  0
 15 10  1  0  0  0  0
 16 10  1  0  0  0  0
 16  5  1  0  0  0  0
 17  1  2  0  0  0  0
 18  6  1  0  0  0  0
 19 20  1  0  0  0  0
 20  8  2  0  0  0  0
 21 15  2  0  0  0  0
 22  3  1  0  0  0  0
 23 18  2  0  0  0  0
 23 22  1  0  0  0  0
 24 27  1  1  0  0  0
 24 31  1  0  0  0  0
 25 30  1  0  0  0  0
 25 28  1  0  0  0  0
 28 24  1  0  0  0  0
 29 26  1  1  0  0  0
 29 31  1  0  0  0  0
 30  5  1  1  0  0  0
 30 29  1  0  0  0  0
M  END
>  <MODEL>
2

>  <REMARK>
 VINA RESULT:      -9.5      1.436      2.174
  Name = 
  1 active torsions:
  status: ('A' for Active; 'I' for Inactive)
    1  A    between atoms: C_5  and  C_30
                            x       y       z     vdW  Elec       q    Type
                         _______ _______ _______ _____ _____    ______ ____

>  <TORSDO>
F 1

$$$$
=
 OpenBabel11112416553D

 31 35  0  0  1  0  0  0  0  0999 V2000
  185.7450  177.5620  141.0320 C   0  0  0  0  0  0  0  0  0  0  0  0
  187.5170  176.9130  144.2890 C   0  0  0  0  0  0  0  0  0  0  0  0
  186.6560  177.3550  145.3360 C   0  0  0  0  0  0  0  0  0  0  0  0
  191.7830  174.8400  141.9770 O   0  0  0  0  0  0  0  0  0  0  0  0
  191.9450  174.8410  143.2260 C   0  0  0  0  0  0  0  0  0  0  0  0
  184.5790  178.3410  146.1580 C   0  0  0  0  0  0  0  0  0  0  0  0
  187.2120  176.9850  142.8970 C   0  0  0  0  0  0  0  0  0  0  0  0
  186.6920  177.0870  140.1250 C   0  0  0  0  0  3  0  0  0  0  0  0
  185.3890  177.9210  145.1030 C   0  0  0  0  0  3  0  0  0  0  0  0
  189.6670  175.9040  143.6950 C   0  0  0  0  0  0  0  0  0  0  0  0
  184.5450  178.0860  140.5720 O   0  0  0  0  0  1  0  0  0  0  0  0
  188.2970  176.6870  146.9500 N   0  0  0  0  0  0  0  0  0  0  0  0
  183.0090  179.0410  145.8280 Cl  0  0  0  0  0  0  0  0  0  0  0  0
  189.3410  175.9890  142.3810 N   0  0  0  0  0  0  0  0  0  0  0  0
  188.7690  176.3610  144.6680 C   0  0  0  0  0  0  0  0  0  0  0  0
  190.9270  175.3500  144.0990 N   0  0  0  0  0  2  0  0  0  0  0  0
  186.0050  177.5090  142.4030 C   0  0  0  0  0  3  0  0  0  0  0  0
  185.0190  178.2050  147.4750 C   0  0  0  0  0  3  0  0  0  0  0  0
  188.1620  176.5060  141.9600 C   0  0  0  0  0  0  0  0  0  0  0  0
  187.8970  176.5600  140.5880 C   0  0  0  0  0  3  0  0  0  0  0  0
  189.1070  176.2700  145.9810 N   0  0  0  0  0  0  0  0  0  0  0  0
  187.0860  177.2250  146.6780 C   0  0  0  0  0  0  0  0  0  0  0  0
  186.2720  177.6470  147.7330 C   0  0  0  0  0  3  0  0  0  0  0  0
  194.2600  175.9230  146.0260 C   0  0  1  0  0  3  0  0  0  0  0  0
  193.0580  173.8580  145.2560 C   0  0  0  0  0  2  0  0  0  0  0  0
  194.5340  175.6800  142.3110 O   0  0  0  0  0  1  0  0  0  0  0  0
  194.1910  177.0160  146.8880 O   0  0  0  0  0  1  0  0  0  0  0  0
  193.0130  175.0620  146.1990 C   0  0  0  0  0  2  0  0  0  0  0  0
  194.4290  175.2300  143.6270 C   0  0  2  0  0  3  0  0  0  0  0  0
  193.2220  174.2920  143.7950 C   0  0  2  0  0  3  0  0  0  0  0  0
  194.3660  176.4170  144.5870 C   0  0  0  0  0  2  0  0  0  0  0  0
  1 17  1  0  0  0  0
  2 15  2  0  0  0  0
  2  3  1  0  0  0  0
  3 22  1  0  0  0  0
  4  5  2  0  0  0  0
  5 16  1  0  0  0  0
  6 18  2  0  0  0  0
  7  2  1  0  0  0  0
  8 20  1  0  0  0  0
  8  1  2  0  0  0  0
  9  3  2  0  0  0  0
  9  6  1  0  0  0  0
 10 16  1  0  0  0  0
 10 15  1  0  0  0  0
 11  1  1  0  0  0  0
 13  6  1  0  0  0  0
 14 10  2  0  0  0  0
 15 21  1  0  0  0  0
 17  7  2  0  0  0  0
 18 23  1  0  0  0  0
 19 14  1  0  0  0  0
 19  7  1  0  0  0  0
 20 19  2  0  0  0  0
 21 12  2  0  0  0  0
 22 12  1  0  0  0  0
 22 23  2  0  0  0  0
 24 28  1  0  0  0  0
 24 27  1  1  0  0  0
 25 28  1  0  0  0  0
 29 26  1  6  0  0  0
 29 30  1  0  0  0  0
 29 31  1  0  0  0  0
 30  5  1  1  0  0  0
 30 25  1  0  0  0  0
 31 24  1  0  0  0  0
M  END
>  <MODEL>
3

>  <REMARK>
 VINA RESULT:      -8.6      1.840      4.406
  Name = 
  1 active torsions:
  status: ('A' for Active; 'I' for Inactive)
    1  A    between atoms: C_5  and  C_30
                            x       y       z     vdW  Elec       q    Type
                         _______ _______ _______ _____ _____    ______ ____

>  <TORSDO>
F 1

$$$$
=
 OpenBabel11112416553D

 31 35  0  0  1  0  0  0  0  0999 V2000
  190.6980  176.1740  146.7870 C   0  0  0  0  0  0  0  0  0  0  0  0
  187.8770  176.3400  144.2990 C   0  0  0  0  0  0  0  0  0  0  0  0
  186.9100  177.2510  144.8150 C   0  0  0  0  0  0  0  0  0  0  0  0
  190.1220  172.9140  140.9730 O   0  0  0  0  0  0  0  0  0  0  0  0
  189.0120  173.2820  140.5060 C   0  0  0  0  0  0  0  0  0  0  0  0
  186.0900  178.8090  146.5080 C   0  0  0  0  0  0  0  0  0  0  0  0
  189.1010  175.9980  144.9470 C   0  0  0  0  0  0  0  0  0  0  0  0
  191.5450  175.2640  146.1550 C   0  0  0  0  0  3  0  0  0  0  0  0
  187.0630  177.9240  146.0410 C   0  0  0  0  0  3  0  0  0  0  0  0
  188.4970  174.8250  142.4790 C   0  0  0  0  0  0  0  0  0  0  0  0
  191.0560  176.7210  148.0110 O   0  0  0  0  0  1  0  0  0  0  0  0
  185.5440  176.8750  142.8810 N   0  0  0  0  0  0  0  0  0  0  0  0
  186.3160  179.6260  148.0380 Cl  0  0  0  0  0  0  0  0  0  0  0  0
  189.6510  174.5250  143.1250 N   0  0  0  0  0  0  0  0  0  0  0  0
  187.5930  175.7310  143.0480 C   0  0  0  0  0  0  0  0  0  0  0  0
  188.1910  174.2210  141.2140 N   0  0  0  0  0  2  0  0  0  0  0  0
  189.4900  176.5350  146.1860 C   0  0  0  0  0  3  0  0  0  0  0  0
  184.9380  179.0410  145.7560 C   0  0  0  0  0  3  0  0  0  0  0  0
  189.9760  175.0740  144.3200 C   0  0  0  0  0  0  0  0  0  0  0  0
  191.1840  174.7150  144.9250 C   0  0  0  0  0  3  0  0  0  0  0  0
  186.4400  176.0240  142.3910 N   0  0  0  0  0  0  0  0  0  0  0  0
  185.7340  177.5000  144.0660 C   0  0  0  0  0  0  0  0  0  0  0  0
  184.7620  178.3860  144.5370 C   0  0  0  0  0  3  0  0  0  0  0  0
  190.6490  172.9010  137.1080 C   0  0  1  0  0  3  0  0  0  0  0  0
  189.3820  171.5050  138.7660 C   0  0  0  0  0  2  0  0  0  0  0  0
  187.8160  174.9160  138.4700 O   0  0  0  0  0  1  0  0  0  0  0  0
  191.9230  173.2580  136.6710 O   0  0  0  0  0  1  0  0  0  0  0  0
  190.7680  171.9060  138.2580 C   0  0  0  0  0  2  0  0  0  0  0  0
  188.5060  173.7740  138.0590 C   0  0  2  0  0  3  0  0  0  0  0  0
  188.5590  172.7270  139.1860 C   0  0  2  0  0  3  0  0  0  0  0  0
  189.9010  174.1490  137.5640 C   0  0  0  0  0  2  0  0  0  0  0  0
  1 11  1  0  0  0  0
  2  3  1  0  0  0  0
  2  7  1  0  0  0  0
  3  9  1  0  0  0  0
  5  4  2  0  0  0  0
  5 16  1  0  0  0  0
  6 13  1  0  0  0  0
  7 17  2  0  0  0  0
  8  1  2  0  0  0  0
  9  6  2  0  0  0  0
 10 15  1  0  0  0  0
 10 14  2  0  0  0  0
 12 22  1  0  0  0  0
 14 19  1  0  0  0  0
 15  2  2  0  0  0  0
 16 10  1  0  0  0  0
 17  1  1  0  0  0  0
 18  6  1  0  0  0  0
 19 20  2  0  0  0  0
 19  7  1  0  0  0  0
 20  8  1  0  0  0  0
 21 12  2  0  0  0  0
 21 15  1  0  0  0  0
 22 23  1  0  0  0  0
 22  3  2  0  0  0  0
 23 18  2  0  0  0  0
 24 27  1  1  0  0  0
 24 31  1  0  0  0  0
 24 28  1  0  0  0  0
 25 30  1  0  0  0  0
 28 25  1  0  0  0  0
 29 26  1  1  0  0  0
 29 30  1  0  0  0  0
 30  5  1  1  0  0  0
 31 29  1  0  0  0  0
M  END
>  <MODEL>
4

>  <REMARK>
 VINA RESULT:      -8.5      3.778      6.134
  Name = 
  1 active torsions:
  status: ('A' for Active; 'I' for Inactive)
    1  A    between atoms: C_5  and  C_30
                            x       y       z     vdW  Elec       q    Type
                         _______ _______ _______ _____ _____    ______ ____

>  <TORSDO>
F 1

$$$$
=
 OpenBabel11112416553D

 31 35  0  0  1  0  0  0  0  0999 V2000
  194.2810  175.9480  143.8270 C   0  0  0  0  0  0  0  0  0  0  0  0
  190.7130  175.1530  142.9250 C   0  0  0  0  0  0  0  0  0  0  0  0
  190.7350  174.4580  141.6800 C   0  0  0  0  0  0  0  0  0  0  0  0
  188.7290  177.4000  147.2680 O   0  0  0  0  0  0  0  0  0  0  0  0
  187.7880  176.9450  146.5660 C   0  0  0  0  0  0  0  0  0  0  0  0
  191.8970  173.4830  139.7660 C   0  0  0  0  0  0  0  0  0  0  0  0
  191.8690  175.6310  143.6120 C   0  0  0  0  0  0  0  0  0  0  0  0
  194.0980  176.6110  145.0400 C   0  0  0  0  0  3  0  0  0  0  0  0
  191.9220  174.1660  140.9830 C   0  0  0  0  0  3  0  0  0  0  0  0
  189.3440  176.0560  144.7420 C   0  0  0  0  0  0  0  0  0  0  0  0
  195.5600  175.7690  143.3200 O   0  0  0  0  0  1  0  0  0  0  0  0
  188.3440  174.2980  141.7430 N   0  0  0  0  0  0  0  0  0  0  0  0
  193.3940  173.1380  138.9280 Cl  0  0  0  0  0  0  0  0  0  0  0  0
  190.4650  176.4960  145.3650 N   0  0  0  0  0  0  0  0  0  0  0  0
  189.4440  175.3810  143.5190 C   0  0  0  0  0  0  0  0  0  0  0  0
  188.0520  176.2760  145.3260 N   0  0  0  0  0  2  0  0  0  0  0  0
  193.1760  175.4650  143.1230 C   0  0  0  0  0  3  0  0  0  0  0  0
  190.6800  173.0780  139.2170 C   0  0  0  0  0  3  0  0  0  0  0  0
  191.7020  176.3080  144.8470 C   0  0  0  0  0  0  0  0  0  0  0  0
  192.8120  176.7910  145.5480 C   0  0  0  0  0  3  0  0  0  0  0  0
  188.3130  174.9440  142.9050 N   0  0  0  0  0  0  0  0  0  0  0  0
  189.5100  174.0380  141.1080 C   0  0  0  0  0  0  0  0  0  0  0  0
  189.4890  173.3560  139.8890 C   0  0  0  0  0  3  0  0  0  0  0  0
  184.7960  178.9310  145.3520 C   0  0  1  0  0  3  0  0  0  0  0  0
  185.3570  176.5820  146.0340 C   0  0  0  0  0  2  0  0  0  0  0  0
  186.9990  179.0410  148.3640 O   0  0  0  0  0  1  0  0  0  0  0  0
  184.6600  179.7910  144.2630 O   0  0  0  0  0  1  0  0  0  0  0  0
  185.1900  177.5440  144.8560 C   0  0  0  0  0  2  0  0  0  0  0  0
  186.0310  178.5400  147.4920 C   0  0  2  0  0  3  0  0  0  0  0  0
  186.3760  177.1060  147.0520 C   0  0  2  0  0  3  0  0  0  0  0  0
  185.8600  179.4770  146.2990 C   0  0  0  0  0  2  0  0  0  0  0  0
  1  8  1  0  0  0  0
  2 15  1  0  0  0  0
  2  7  1  0  0  0  0
  3  2  2  0  0  0  0
  5  4  2  0  0  0  0
  6  9  2  0  0  0  0
  7 19  2  0  0  0  0
  8 20  2  0  0  0  0
  9  3  1  0  0  0  0
 10 16  1  0  0  0  0
 10 14  2  0  0  0  0
 11  1  1  0  0  0  0
 12 21  1  0  0  0  0
 13  6  1  0  0  0  0
 15 10  1  0  0  0  0
 16  5  1  0  0  0  0
 17  7  1  0  0  0  0
 17  1  2  0  0  0  0
 18  6  1  0  0  0  0
 18 23  2  0  0  0  0
 19 14  1  0  0  0  0
 19 20  1  0  0  0  0
 21 15  2  0  0  0  0
 22  3  1  0  0  0  0
 22 12  2  0  0  0  0
 23 22  1  0  0  0  0
 24 27  1  6  0  0  0
 24 31  1  0  0  0  0
 25 30  1  0  0  0  0
 28 24  1  0  0  0  0
 28 25  1  0  0  0  0
 29 26  1  1  0  0  0
 30  5  1  6  0  0  0
 30 29  1  0  0  0  0
 31 29  1  0  0  0  0
M  END
>  <MODEL>
5

>  <REMARK>
 VINA RESULT:      -8.4      3.096      7.061
  Name = 
  1 active torsions:
  status: ('A' for Active; 'I' for Inactive)
    1  A    between atoms: C_5  and  C_30
                            x       y       z     vdW  Elec       q    Type
                         _______ _______ _______ _____ _____    ______ ____

>  <TORSDO>
F 1

$$$$
=
 OpenBabel11112416553D

 31 35  0  0  1  0  0  0  0  0999 V2000
  190.8210  176.7730  147.1170 C   0  0  0  0  0  0  0  0  0  0  0  0
  188.3830  176.5050  144.2610 C   0  0  0  0  0  0  0  0  0  0  0  0
  187.2140  177.2320  144.6310 C   0  0  0  0  0  0  0  0  0  0  0  0
  191.6130  173.5660  141.2990 O   0  0  0  0  0  0  0  0  0  0  0  0
  190.5320  173.7500  140.6810 C   0  0  0  0  0  0  0  0  0  0  0  0
  185.9180  178.5990  146.1850 C   0  0  0  0  0  0  0  0  0  0  0  0
  189.5470  176.3630  145.0740 C   0  0  0  0  0  0  0  0  0  0  0  0
  191.8890  176.0290  146.6150 C   0  0  0  0  0  3  0  0  0  0  0  0
  187.0810  177.8990  145.8630 C   0  0  0  0  0  3  0  0  0  0  0  0
  189.4960  175.1490  142.5530 C   0  0  0  0  0  0  0  0  0  0  0  0
  190.9090  177.3500  148.3760 O   0  0  0  0  0  1  0  0  0  0  0  0
  186.2120  176.6660  142.5280 N   0  0  0  0  0  0  0  0  0  0  0  0
  185.7890  179.4160  147.7270 Cl  0  0  0  0  0  0  0  0  0  0  0  0
  190.5840  175.0360  143.3550 N   0  0  0  0  0  0  0  0  0  0  0  0
  188.3830  175.8800  142.9860 C   0  0  0  0  0  0  0  0  0  0  0  0
  189.4750  174.5250  141.2620 N   0  0  0  0  0  2  0  0  0  0  0  0
  189.6640  176.9360  146.3520 C   0  0  0  0  0  3  0  0  0  0  0  0
  184.8580  178.6470  145.2790 C   0  0  0  0  0  3  0  0  0  0  0  0
  190.6430  175.6100  144.5800 C   0  0  0  0  0  0  0  0  0  0  0  0
  191.7990  175.4490  145.3500 C   0  0  0  0  0  3  0  0  0  0  0  0
  187.2980  175.9860  142.1730 N   0  0  0  0  0  0  0  0  0  0  0  0
  186.1290  177.2920  143.7250 C   0  0  0  0  0  0  0  0  0  0  0  0
  184.9650  177.9940  144.0510 C   0  0  0  0  0  3  0  0  0  0  0  0
  191.7130  170.5360  139.0520 C   0  0  1  0  0  3  0  0  0  0  0  0
  189.5850  171.8320  139.3580 C   0  0  0  0  0  2  0  0  0  0  0  0
  192.4290  174.1680  138.5650 O   0  0  0  0  0  1  0  0  0  0  0  0
  192.4840  169.4930  139.5600 O   0  0  0  0  0  1  0  0  0  0  0  0
  190.4460  170.6840  139.8880 C   0  0  0  0  0  2  0  0  0  0  0  0
  191.6870  172.9860  138.5430 C   0  0  2  0  0  3  0  0  0  0  0  0
  190.3650  173.1500  139.3130 C   0  0  2  0  0  3  0  0  0  0  0  0
  192.5220  171.8290  139.0850 C   0  0  0  0  0  2  0  0  0  0  0  0
  1 11  1  0  0  0  0
  2  3  1  0  0  0  0
  2  7  1  0  0  0  0
  3  9  1  0  0  0  0
  5 16  1  0  0  0  0
  5  4  2  0  0  0  0
  6 13  1  0  0  0  0
  7 17  1  0  0  0  0
  8  1  1  0  0  0  0
  9  6  2  0  0  0  0
 10 15  1  0  0  0  0
 10 14  2  0  0  0  0
 12 22  1  0  0  0  0
 14 19  1  0  0  0  0
 15  2  2  0  0  0  0
 16 10  1  0  0  0  0
 17  1  2  0  0  0  0
 18  6  1  0  0  0  0
 19  7  2  0  0  0  0
 19 20  1  0  0  0  0
 20  8  2  0  0  0  0
 21 12  2  0  0  0  0
 21 15  1  0  0  0  0
 22 23  1  0  0  0  0
 22  3  2  0  0  0  0
 23 18  2  0  0  0  0
 24 31  1  0  0  0  0
 24 27  1  1  0  0  0
 24 28  1  0  0  0  0
 25 28  1  0  0  0  0
 29 26  1  1  0  0  0
 29 31  1  0  0  0  0
 29 30  1  0  0  0  0
 30 25  1  0  0  0  0
 30  5  1  1  0  0  0
M  END
>  <MODEL>
6

>  <REMARK>
 VINA RESULT:      -8.2      3.632      5.711
  Name = 
  1 active torsions:
  status: ('A' for Active; 'I' for Inactive)
    1  A    between atoms: C_5  and  C_30
                            x       y       z     vdW  Elec       q    Type
                         _______ _______ _______ _____ _____    ______ ____

>  <TORSDO>
F 1

$$$$
=
 OpenBabel11112416553D

 31 35  0  0  1  0  0  0  0  0999 V2000
  188.1150  174.5410  138.9140 C   0  0  0  0  0  0  0  0  0  0  0  0
  188.3650  176.0060  142.3730 C   0  0  0  0  0  0  0  0  0  0  0  0
  187.2700  176.9060  142.5330 C   0  0  0  0  0  0  0  0  0  0  0  0
  192.7200  173.2940  143.6050 O   0  0  0  0  0  0  0  0  0  0  0  0
  192.3940  174.0230  144.5790 C   0  0  0  0  0  0  0  0  0  0  0  0
  185.2600  178.0330  141.7250 C   0  0  0  0  0  0  0  0  0  0  0  0
  188.6290  175.2450  141.1960 C   0  0  0  0  0  0  0  0  0  0  0  0
  189.2280  173.7000  138.9100 C   0  0  0  0  0  3  0  0  0  0  0  0
  186.3160  177.1430  141.5260 C   0  0  0  0  0  3  0  0  0  0  0  0
  190.3500  174.9960  143.3890 C   0  0  0  0  0  0  0  0  0  0  0  0
  187.3000  174.6190  137.7940 O   0  0  0  0  0  1  0  0  0  0  0  0
  188.0210  177.4040  144.7540 N   0  0  0  0  0  0  0  0  0  0  0  0
  184.0930  178.3030  140.4490 Cl  0  0  0  0  0  0  0  0  0  0  0  0
  190.5680  174.2890  142.2530 N   0  0  0  0  0  0  0  0  0  0  0  0
  189.2530  175.8630  143.4720 C   0  0  0  0  0  0  0  0  0  0  0  0
  191.2350  174.8660  144.5100 N   0  0  0  0  0  2  0  0  0  0  0  0
  187.8220  175.3030  140.0470 C   0  0  0  0  0  3  0  0  0  0  0  0
  185.1350  178.7090  142.9390 C   0  0  0  0  0  3  0  0  0  0  0  0
  189.7560  174.3840  141.1730 C   0  0  0  0  0  0  0  0  0  0  0  0
  190.0460  173.6240  140.0370 C   0  0  0  0  0  3  0  0  0  0  0  0
  189.0440  176.5660  144.6160 N   0  0  0  0  0  0  0  0  0  0  0  0
  187.1270  177.6000  143.7580 C   0  0  0  0  0  0  0  0  0  0  0  0
  186.0680  178.4920  143.9530 C   0  0  0  0  0  3  0  0  0  0  0  0
  194.5660  176.5730  146.3530 C   0  0  1  0  0  3  0  0  0  0  0  0
  192.7130  174.9660  146.8880 C   0  0  0  0  0  2  0  0  0  0  0  0
  195.1890  173.3660  144.5460 O   0  0  0  0  0  1  0  0  0  0  0  0
  194.8560  177.8980  146.0310 O   0  0  0  0  0  1  0  0  0  0  0  0
  193.0610  176.4160  146.5440 C   0  0  0  0  0  2  0  0  0  0  0  0
  194.7340  174.2040  145.5650 C   0  0  2  0  0  3  0  0  0  0  0  0
  193.2330  173.9930  145.8240 C   0  0  2  0  0  3  0  0  0  0  0  0
  195.0560  175.6600  145.2340 C   0  0  0  0  0  2  0  0  0  0  0  0
  1 17  1  0  0  0  0
  2  3  2  0  0  0  0
  2 15  1  0  0  0  0
  3 22  1  0  0  0  0
  4  5  2  0  0  0  0
  6 18  1  0  0  0  0
  7  2  1  0  0  0  0
  8  1  2  0  0  0  0
  8 20  1  0  0  0  0
  9  6  2  0  0  0  0
  9  3  1  0  0  0  0
 10 15  1  0  0  0  0
 10 16  1  0  0  0  0
 11  1  1  0  0  0  0
 13  6  1  0  0  0  0
 14 10  2  0  0  0  0
 15 21  2  0  0  0  0
 16  5  1  0  0  0  0
 17  7  2  0  0  0  0
 18 23  2  0  0  0  0
 19  7  1  0  0  0  0
 19 14  1  0  0  0  0
 20 19  2  0  0  0  0
 21 12  1  0  0  0  0
 22 23  1  0  0  0  0
 22 12  2  0  0  0  0
 24 27  1  6  0  0  0
 24 28  1  0  0  0  0
 28 25  1  0  0  0  0
 29 26  1  6  0  0  0
 29 30  1  0  0  0  0
 30  5  1  6  0  0  0
 30 25  1  0  0  0  0
 31 29  1  0  0  0  0
 31 24  1  0  0  0  0
M  END
>  <MODEL>
7

>  <REMARK>
 VINA RESULT:      -8.1      2.700      4.599
  Name = 
  1 active torsions:
  status: ('A' for Active; 'I' for Inactive)
    1  A    between atoms: C_5  and  C_30
                            x       y       z     vdW  Elec       q    Type
                         _______ _______ _______ _____ _____    ______ ____

>  <TORSDO>
F 1

$$$$
=
 OpenBabel11112416553D

 31 35  0  0  1  0  0  0  0  0999 V2000
  191.1250  176.5220  147.1950 C   0  0  0  0  0  0  0  0  0  0  0  0
  189.0470  175.8390  144.1300 C   0  0  0  0  0  0  0  0  0  0  0  0
  187.8120  176.5300  144.2930 C   0  0  0  0  0  0  0  0  0  0  0  0
  192.7290  172.8150  141.8610 O   0  0  0  0  0  0  0  0  0  0  0  0
  191.7190  172.8760  141.1110 C   0  0  0  0  0  0  0  0  0  0  0  0
  186.2830  177.9650  145.5450 C   0  0  0  0  0  0  0  0  0  0  0  0
  190.1150  175.8430  145.0770 C   0  0  0  0  0  0  0  0  0  0  0  0
  192.2760  175.7960  146.8920 C   0  0  0  0  0  3  0  0  0  0  0  0
  187.5070  177.3050  145.4270 C   0  0  0  0  0  3  0  0  0  0  0  0
  190.4110  174.3890  142.7040 C   0  0  0  0  0  0  0  0  0  0  0  0
  191.0400  177.2230  148.3890 O   0  0  0  0  0  1  0  0  0  0  0  0
  187.0850  175.7060  142.1620 N   0  0  0  0  0  0  0  0  0  0  0  0
  185.9400  178.9200  146.9710 Cl  0  0  0  0  0  0  0  0  0  0  0  0
  191.4030  174.4170  143.6290 N   0  0  0  0  0  0  0  0  0  0  0  0
  189.2220  175.0940  142.9340 C   0  0  0  0  0  0  0  0  0  0  0  0
  190.5670  173.6420  141.4890 N   0  0  0  0  0  2  0  0  0  0  0  0
  190.0580  176.5440  146.2940 C   0  0  0  0  0  3  0  0  0  0  0  0
  185.3340  177.8650  144.5280 C   0  0  0  0  0  3  0  0  0  0  0  0
  191.2940  175.1110  144.7870 C   0  0  0  0  0  0  0  0  0  0  0  0
  192.3590  175.0910  145.6920 C   0  0  0  0  0  3  0  0  0  0  0  0
  188.2350  175.0580  142.0000 N   0  0  0  0  0  0  0  0  0  0  0  0
  186.8360  176.4400  143.2710 C   0  0  0  0  0  0  0  0  0  0  0  0
  185.6110  177.1020  143.3930 C   0  0  0  0  0  3  0  0  0  0  0  0
  189.3960  172.7610  138.1180 C   0  0  1  0  0  3  0  0  0  0  0  0
  191.8350  173.0940  138.6090 C   0  0  0  0  0  2  0  0  0  0  0  0
  190.4410  170.3300  140.7510 O   0  0  0  0  0  1  0  0  0  0  0  0
  188.1900  173.4190  137.8800 O   0  0  0  0  0  1  0  0  0  0  0  0
  190.5000  173.7900  138.3340 C   0  0  0  0  0  2  0  0  0  0  0  0
  190.5710  171.1510  139.6310 C   0  0  2  0  0  3  0  0  0  0  0  0
  191.7380  172.1380  139.8030 C   0  0  2  0  0  3  0  0  0  0  0  0
  189.2540  171.8700  139.3480 C   0  0  0  0  0  2  0  0  0  0  0  0
  1 11  1  0  0  0  0
  2  3  1  0  0  0  0
  2  7  1  0  0  0  0
  3  9  1  0  0  0  0
  5 16  1  0  0  0  0
  5  4  2  0  0  0  0
  6 13  1  0  0  0  0
  7 17  1  0  0  0  0
  8  1  1  0  0  0  0
  9  6  2  0  0  0  0
 10 15  1  0  0  0  0
 10 14  2  0  0  0  0
 12 22  1  0  0  0  0
 14 19  1  0  0  0  0
 15  2  2  0  0  0  0
 16 10  1  0  0  0  0
 17  1  2  0  0  0  0
 18  6  1  0  0  0  0
 19  7  2  0  0  0  0
 19 20  1  0  0  0  0
 20  8  2  0  0  0  0
 21 12  2  0  0  0  0
 21 15  1  0  0  0  0
 22 23  1  0  0  0  0
 22  3  2  0  0  0  0
 23 18  2  0  0  0  0
 24 27  1  1  0  0  0
 24 28  1  0  0  0  0
 24 31  1  0  0  0  0
 25 30  1  0  0  0  0
 28 25  1  0  0  0  0
 29 30  1  0  0  0  0
 29 26  1  1  0  0  0
 30  5  1  1  0  0  0
 31 29  1  0  0  0  0
M  END
>  <MODEL>
8

>  <REMARK>
 VINA RESULT:      -8.1      3.563      5.674
  Name = 
  1 active torsions:
  status: ('A' for Active; 'I' for Inactive)
    1  A    between atoms: C_5  and  C_30
                            x       y       z     vdW  Elec       q    Type
                         _______ _______ _______ _____ _____    ______ ____

>  <TORSDO>
F 1

$$$$
=
 OpenBabel11112416553D

 31 35  0  0  1  0  0  0  0  0999 V2000
  186.3160  178.7690  143.6030 C   0  0  0  0  0  0  0  0  0  0  0  0
  189.0330  176.1640  143.5260 C   0  0  0  0  0  0  0  0  0  0  0  0
  189.7190  176.2300  144.7740 C   0  0  0  0  0  0  0  0  0  0  0  0
  187.8160  174.5120  138.6650 O   0  0  0  0  0  0  0  0  0  0  0  0
  188.7980  173.8520  139.0960 C   0  0  0  0  0  0  0  0  0  0  0  0
  190.0750  177.1660  147.0010 C   0  0  0  0  0  0  0  0  0  0  0  0
  187.9310  176.9920  143.1570 C   0  0  0  0  0  0  0  0  0  0  0  0
  185.7480  178.5850  142.3430 C   0  0  0  0  0  3  0  0  0  0  0  0
  189.3760  177.1360  145.7940 C   0  0  0  0  0  3  0  0  0  0  0  0
  188.8600  175.0780  141.3390 C   0  0  0  0  0  0  0  0  0  0  0  0
  185.8090  179.7360  144.4590 O   0  0  0  0  0  1  0  0  0  0  0  0
  191.1650  174.4580  144.0570 N   0  0  0  0  0  0  0  0  0  0  0  0
  189.6190  178.3070  148.2470 Cl  0  0  0  0  0  0  0  0  0  0  0  0
  187.8150  175.8830  141.0250 N   0  0  0  0  0  0  0  0  0  0  0  0
  189.4860  175.2010  142.5860 C   0  0  0  0  0  0  0  0  0  0  0  0
  189.3330  174.0980  140.4040 N   0  0  0  0  0  2  0  0  0  0  0  0
  187.3960  177.9790  144.0030 C   0  0  0  0  0  3  0  0  0  0  0  0
  191.1370  176.2870  147.2160 C   0  0  0  0  0  3  0  0  0  0  0  0
  187.3400  176.8200  141.8800 C   0  0  0  0  0  0  0  0  0  0  0  0
  186.2590  177.6130  141.4840 C   0  0  0  0  0  3  0  0  0  0  0  0
  190.5310  174.3880  142.8900 N   0  0  0  0  0  0  0  0  0  0  0  0
  190.8000  175.3460  145.0100 C   0  0  0  0  0  0  0  0  0  0  0  0
  191.4980  175.3790  146.2200 C   0  0  0  0  0  3  0  0  0  0  0  0
  192.1600  172.1010  139.0180 C   0  0  1  0  0  3  0  0  0  0  0  0
  189.7190  171.5140  139.0080 C   0  0  0  0  0  2  0  0  0  0  0  0
  190.3560  174.4690  136.7640 O   0  0  0  0  0  1  0  0  0  0  0  0
  193.2820  172.2570  139.8300 O   0  0  0  0  0  1  0  0  0  0  0  0
  190.9690  171.6810  139.8740 C   0  0  0  0  0  2  0  0  0  0  0  0
  190.6260  173.2680  137.4220 C   0  0  2  0  0  3  0  0  0  0  0  0
  189.4020  172.7900  138.2210 C   0  0  2  0  0  3  0  0  0  0  0  0
  191.8620  173.4170  138.3070 C   0  0  0  0  0  2  0  0  0  0  0  0
  1 17  1  0  0  0  0
  1 11  1  0  0  0  0
  2  3  1  0  0  0  0
  3 22  2  0  0  0  0
  3  9  1  0  0  0  0
  4  5  2  0  0  0  0
  5 16  1  0  0  0  0
  6 18  1  0  0  0  0
  6 13  1  0  0  0  0
  7  2  1  0  0  0  0
  7 17  2  0  0  0  0
  8  1  2  0  0  0  0
  9  6  2  0  0  0  0
 10 15  1  0  0  0  0
 12 22  1  0  0  0  0
 14 10  2  0  0  0  0
 14 19  1  0  0  0  0
 15 21  1  0  0  0  0
 15  2  2  0  0  0  0
 16 10  1  0  0  0  0
 19  7  1  0  0  0  0
 20 19  2  0  0  0  0
 20  8  1  0  0  0  0
 21 12  2  0  0  0  0
 22 23  1  0  0  0  0
 23 18  2  0  0  0  0
 24 27  1  1  0  0  0
 24 28  1  0  0  0  0
 25 28  1  0  0  0  0
 29 26  1  1  0  0  0
 29 30  1  0  0  0  0
 29 31  1  0  0  0  0
 30 25  1  0  0  0  0
 30  5  1  1  0  0  0
 31 24  1  0  0  0  0
M  END
>  <MODEL>
9

>  <REMARK>
 VINA RESULT:      -8.0      4.008      6.269
  Name = 
  1 active torsions:
  status: ('A' for Active; 'I' for Inactive)
    1  A    between atoms: C_5  and  C_30
                            x       y       z     vdW  Elec       q    Type
                         _______ _______ _______ _____ _____    ______ ____

>  <TORSDO>
F 1

$$$$
