=
 OpenBabel11112417163D

 37 44  0  0  1  0  0  0  0  0999 V2000
  192.4380  172.8900  141.8190 C   0  0  0  0  0  2  0  0  0  0  0  0
  195.6800  175.9270  142.9490 C   0  0  0  0  0  0  0  0  0  0  0  0
  192.2550  175.7100  145.3020 C   0  0  0  0  0  0  0  0  0  0  0  0
  192.3950  172.3930  140.4430 N   0  0  0  0  0  0  0  0  0  0  0  0
  189.1690  173.8680  144.0140 O   0  0  0  0  0  0  0  0  0  0  0  0
  194.4870  176.6140  145.0770 C   0  0  0  0  0  0  0  0  0  0  0  0
  191.3790  175.0350  144.4620 C   0  0  0  0  0  0  0  0  0  0  0  0
  190.0380  171.5980  141.0640 C   0  0  2  0  0  3  0  0  0  0  0  0
  193.3500  176.0310  144.5510 C   0  0  0  0  0  0  0  0  0  0  0  0
  190.0930  174.3670  144.9710 C   0  0  1  0  0  3  0  0  0  0  0  0
  194.4960  176.9140  146.4470 C   0  0  0  0  0  3  0  0  0  0  0  0
  191.0460  172.0270  139.9790 C   0  0  0  0  0  2  0  0  0  0  0  0
  193.2510  175.5800  143.3000 N   0  0  0  0  0  0  0  0  0  0  0  0
  196.1960  174.5710  143.4000 C   0  0  0  0  0  1  0  0  0  0  0  0
  191.1220  175.6200  147.5970 C   0  0  0  0  0  3  0  0  0  0  0  0
  193.3750  176.5880  147.2440 C   0  0  0  0  0  3  0  0  0  0  0  0
  194.2940  175.7530  142.2880 C   0  0  0  0  0  2  0  0  0  0  0  0
  189.2960  172.7340  141.7990 C   0  0  1  0  0  3  0  0  0  0  0  0
  189.9020  173.0780  143.1420 C   0  0  1  0  0  3  0  0  0  0  0  0
  192.2320  175.9740  146.6860 C   0  0  0  0  0  0  0  0  0  0  0  0
  192.0570  174.9500  143.2080 C   0  0  0  0  0  0  0  0  0  0  0  0
  195.6440  176.8950  144.1580 C   0  0  0  0  0  2  0  0  0  0  0  0
  189.4140  175.2750  145.8970 N   0  0  0  0  0  0  0  0  0  0  0  0
  196.6400  176.4800  141.9170 C   0  0  0  0  0  1  0  0  0  0  0  0
  190.1250  174.0120  141.9660 C   0  0  1  0  0  3  0  0  0  0  0  0
  190.4800  170.4260  141.9320 C   0  0  0  0  0  1  0  0  0  0  0  0
  191.6410  174.1860  141.9660 C   0  0  2  0  0  3  0  0  0  0  0  0
  189.8670  175.3140  147.2530 C   0  0  0  0  0  3  0  0  0  0  0  0
  188.6950  177.0560  144.3370 C   0  0  0  0  0  3  0  0  0  0  0  0
  188.4360  176.2400  145.4520 C   0  0  0  0  0  0  0  0  0  0  0  0
  187.1970  176.3630  146.1050 C   0  0  0  0  0  3  0  0  0  0  0  0
  184.7140  177.4250  146.4950 Cl  0  0  0  0  0  0  0  0  0  0  0  0
  186.5190  178.0940  144.5570 C   0  0  0  0  0  3  0  0  0  0  0  0
  186.2470  177.2850  145.6630 C   0  0  0  0  0  0  0  0  0  0  0  0
  187.7440  177.9780  143.8930 C   0  0  0  0  0  3  0  0  0  0  0  0
  194.1740  171.1680  141.5630 C   0  0  0  0  0  1  0  0  0  0  0  0
  193.2230  171.1980  140.3820 C   0  0  0  0  0  2  0  0  0  0  0  0
  1 27  1  0  0  0  0
  2 14  1  0  0  0  0
  2 22  1  0  0  0  0
  3 20  1  0  0  0  0
  4  1  1  0  0  0  0
  6 11  2  0  0  0  0
  7 10  1  0  0  0  0
  7  3  1  0  0  0  0
  8 18  1  0  0  0  0
  8 26  1  1  0  0  0
  9  6  1  0  0  0  0
  9  3  2  0  0  0  0
 10  5  1  6  0  0  0
 10 23  1  0  0  0  0
 11 16  1  0  0  0  0
 12  4  1  0  0  0  0
 12  8  1  0  0  0  0
 13  9  1  0  0  0  0
 17  2  1  0  0  0  0
 17 13  1  0  0  0  0
 18 25  1  0  0  0  0
 18 19  1  0  0  0  0
 19  5  1  0  0  0  0
 20 16  2  0  0  0  0
 20 15  1  0  0  0  0
 21 13  1  0  0  0  0
 21  7  2  0  0  0  0
 22  6  1  0  0  0  0
 23 28  1  0  0  0  0
 24  2  1  0  0  0  0
 25 19  1  0  0  0  0
 27 25  1  0  0  0  0
 27 21  1  0  0  0  0
 28 15  2  0  0  0  0
 29 30  1  0  0  0  0
 30 23  1  0  0  0  0
 30 31  2  0  0  0  0
 33 34  2  0  0  0  0
 34 31  1  0  0  0  0
 34 32  1  0  0  0  0
 35 29  2  0  0  0  0
 35 33  1  0  0  0  0
 37  4  1  0  0  0  0
 37 36  1  0  0  0  0
M  END
>  <MODEL>
1

>  <REMARK>
 VINA RESULT:      -9.1      0.000      0.000
  Name = 
  2 active torsions:
  status: ('A' for Active; 'I' for Inactive)
    1  A    between atoms: N_4  and  C_37
    2  A    between atoms: N_23  and  C_30
                            x       y       z     vdW  Elec       q    Type
                         _______ _______ _______ _____ _____    ______ ____

>  <TORSDO>
F 2

$$$$
=
 OpenBabel11112417163D

 37 44  0  0  1  0  0  0  0  0999 V2000
  193.4290  174.5650  144.3600 C   0  0  0  0  0  2  0  0  0  0  0  0
  191.4250  171.4150  141.7010 C   0  0  0  0  0  0  0  0  0  0  0  0
  189.4290  175.0030  142.3770 C   0  0  0  0  0  0  0  0  0  0  0  0
  194.4610  174.1300  145.3020 N   0  0  0  0  0  0  0  0  0  0  0  0
  190.5660  177.3160  145.1940 O   0  0  0  0  0  0  0  0  0  0  0  0
  189.4950  172.9460  141.1060 C   0  0  0  0  0  0  0  0  0  0  0  0
  190.0970  175.4900  143.4940 C   0  0  0  0  0  0  0  0  0  0  0  0
  194.0820  176.4190  146.3930 C   0  0  2  0  0  3  0  0  0  0  0  0
  189.8580  173.7190  142.1930 C   0  0  0  0  0  0  0  0  0  0  0  0
  190.0070  176.9570  143.9380 C   0  0  1  0  0  3  0  0  0  0  0  0
  188.6180  173.5070  140.1670 C   0  0  0  0  0  3  0  0  0  0  0  0
  194.5490  174.9550  146.5200 C   0  0  0  0  0  2  0  0  0  0  0  0
  190.7770  173.3620  143.0910 N   0  0  0  0  0  0  0  0  0  0  0  0
  192.5050  172.0600  140.8500 C   0  0  0  0  0  1  0  0  0  0  0  0
  188.0850  177.0080  141.5230 C   0  0  0  0  0  3  0  0  0  0  0  0
  188.1640  174.8350  140.3360 C   0  0  0  0  0  3  0  0  0  0  0  0
  191.4320  172.0540  143.1080 C   0  0  0  0  0  2  0  0  0  0  0  0
  192.5670  176.6710  146.5320 C   0  0  1  0  0  3  0  0  0  0  0  0
  191.8560  176.8080  145.2030 C   0  0  1  0  0  3  0  0  0  0  0  0
  188.5650  175.6120  141.4450 C   0  0  0  0  0  0  0  0  0  0  0  0
  190.9610  174.4280  143.9020 C   0  0  0  0  0  0  0  0  0  0  0  0
  190.0540  171.5550  140.9920 C   0  0  0  0  0  2  0  0  0  0  0  0
  188.6110  177.3950  143.8680 N   0  0  0  0  0  0  0  0  0  0  0  0
  191.7480  169.9420  141.8390 C   0  0  0  0  0  1  0  0  0  0  0  0
  191.6950  175.5270  146.0030 C   0  0  1  0  0  3  0  0  0  0  0  0
  194.7950  177.2350  145.3210 C   0  0  0  0  0  1  0  0  0  0  0  0
  192.0330  174.4520  144.9740 C   0  0  2  0  0  3  0  0  0  0  0  0
  188.0980  177.8040  142.5970 C   0  0  0  0  0  3  0  0  0  0  0  0
  188.0350  176.4460  146.0800 C   0  0  0  0  0  3  0  0  0  0  0  0
  187.7050  177.2640  144.9860 C   0  0  0  0  0  0  0  0  0  0  0  0
  186.4910  177.9720  145.0150 C   0  0  0  0  0  3  0  0  0  0  0  0
  184.1170  178.7440  146.1160 Cl  0  0  0  0  0  0  0  0  0  0  0  0
  185.9630  177.0360  147.1820 C   0  0  0  0  0  3  0  0  0  0  0  0
  185.6250  177.8570  146.1040 C   0  0  0  0  0  0  0  0  0  0  0  0
  187.1690  176.3300  147.1700 C   0  0  0  0  0  3  0  0  0  0  0  0
  196.8670  173.9230  145.5950 C   0  0  0  0  0  1  0  0  0  0  0  0
  195.7420  174.2130  144.6190 C   0  0  0  0  0  2  0  0  0  0  0  0
  1 27  1  0  0  0  0
  1  4  1  0  0  0  0
  2 24  1  0  0  0  0
  2 17  1  0  0  0  0
  3  7  1  0  0  0  0
  4 12  1  0  0  0  0
  5 19  1  0  0  0  0
  6  9  2  0  0  0  0
  7 21  2  0  0  0  0
  8 26  1  6  0  0  0
  8 12  1  0  0  0  0
  8 18  1  0  0  0  0
  9  3  1  0  0  0  0
  9 13  1  0  0  0  0
 10  7  1  1  0  0  0
 10  5  1  0  0  0  0
 11 16  2  0  0  0  0
 11  6  1  0  0  0  0
 13 17  1  0  0  0  0
 13 21  1  0  0  0  0
 14  2  1  0  0  0  0
 15 28  2  0  0  0  0
 16 20  1  0  0  0  0
 19 25  1  0  0  0  0
 19 18  1  0  0  0  0
 20 15  1  0  0  0  0
 20  3  2  0  0  0  0
 21 27  1  0  0  0  0
 22  6  1  0  0  0  0
 22  2  1  0  0  0  0
 23 10  1  0  0  0  0
 23 30  1  0  0  0  0
 25 18  1  0  0  0  0
 27 25  1  0  0  0  0
 28 23  1  0  0  0  0
 29 35  1  0  0  0  0
 30 31  1  0  0  0  0
 30 29  2  0  0  0  0
 31 34  2  0  0  0  0
 34 32  1  0  0  0  0
 34 33  1  0  0  0  0
 35 33  2  0  0  0  0
 37  4  1  0  0  0  0
 37 36  1  0  0  0  0
M  END
>  <MODEL>
2

>  <REMARK>
 VINA RESULT:      -9.0      1.763      5.456
  Name = 
  2 active torsions:
  status: ('A' for Active; 'I' for Inactive)
    1  A    between atoms: N_4  and  C_37
    2  A    between atoms: N_23  and  C_30
                            x       y       z     vdW  Elec       q    Type
                         _______ _______ _______ _____ _____    ______ ____

>  <TORSDO>
F 2

$$$$
=
 OpenBabel11112417163D

 37 44  0  0  1  0  0  0  0  0999 V2000
  192.6860  172.6480  141.5020 C   0  0  0  0  0  2  0  0  0  0  0  0
  195.9160  175.7800  142.3780 C   0  0  0  0  0  0  0  0  0  0  0  0
  192.6250  175.5600  144.9140 C   0  0  0  0  0  0  0  0  0  0  0  0
  192.5810  172.1130  140.1440 N   0  0  0  0  0  0  0  0  0  0  0  0
  189.5150  173.6230  143.8390 O   0  0  0  0  0  0  0  0  0  0  0  0
  194.8220  176.5020  144.5460 C   0  0  0  0  0  0  0  0  0  0  0  0
  191.7200  174.8450  144.1390 C   0  0  0  0  0  0  0  0  0  0  0  0
  190.2770  171.2900  140.9100 C   0  0  2  0  0  3  0  0  0  0  0  0
  193.6720  175.8820  144.0970 C   0  0  0  0  0  0  0  0  0  0  0  0
  190.4770  174.1660  144.7320 C   0  0  1  0  0  3  0  0  0  0  0  0
  194.8960  176.8400  145.9050 C   0  0  0  0  0  3  0  0  0  0  0  0
  191.2170  171.7070  139.7610 C   0  0  0  0  0  2  0  0  0  0  0  0
  193.5170  175.3950  142.8660 N   0  0  0  0  0  0  0  0  0  0  0  0
  196.4840  174.4470  142.8360 C   0  0  0  0  0  1  0  0  0  0  0  0
  191.6150  175.5120  147.2670 C   0  0  0  0  0  3  0  0  0  0  0  0
  193.8260  176.5140  146.7690 C   0  0  0  0  0  3  0  0  0  0  0  0
  194.5020  175.5600  141.7960 C   0  0  0  0  0  2  0  0  0  0  0  0
  189.5500  172.4310  141.6510 C   0  0  1  0  0  3  0  0  0  0  0  0
  190.2180  172.8240  142.9520 C   0  0  1  0  0  3  0  0  0  0  0  0
  192.6680  175.8620  146.2890 C   0  0  0  0  0  0  0  0  0  0  0  0
  192.3340  174.7390  142.8540 C   0  0  0  0  0  0  0  0  0  0  0  0
  195.9230  176.7800  143.5610 C   0  0  0  0  0  2  0  0  0  0  0  0
  189.8280  175.0860  145.6690 N   0  0  0  0  0  0  0  0  0  0  0  0
  196.8090  176.3220  141.2820 C   0  0  0  0  0  1  0  0  0  0  0  0
  190.3600  173.7280  141.7410 C   0  0  1  0  0  3  0  0  0  0  0  0
  190.7890  170.1510  141.7830 C   0  0  0  0  0  1  0  0  0  0  0  0
  191.8690  173.9330  141.6560 C   0  0  2  0  0  3  0  0  0  0  0  0
  190.3510  175.1710  146.9980 C   0  0  0  0  0  3  0  0  0  0  0  0
  187.7460  176.3480  146.1100 C   0  0  0  0  0  3  0  0  0  0  0  0
  188.8080  176.0190  145.2500 C   0  0  0  0  0  0  0  0  0  0  0  0
  188.8720  176.6380  143.9900 C   0  0  0  0  0  3  0  0  0  0  0  0
  187.9910  178.3060  142.0180 Cl  0  0  0  0  0  0  0  0  0  0  0  0
  186.8400  177.8650  144.4560 C   0  0  0  0  0  3  0  0  0  0  0  0
  187.8940  177.5520  143.5950 C   0  0  0  0  0  0  0  0  0  0  0  0
  186.7670  177.2630  145.7150 C   0  0  0  0  0  3  0  0  0  0  0  0
  194.4370  170.9520  141.2050 C   0  0  0  0  0  1  0  0  0  0  0  0
  193.4290  170.9340  140.0710 C   0  0  0  0  0  2  0  0  0  0  0  0
  1 27  1  0  0  0  0
  2 14  1  0  0  0  0
  2 22  1  0  0  0  0
  3 20  1  0  0  0  0
  4  1  1  0  0  0  0
  6 11  2  0  0  0  0
  7 10  1  0  0  0  0
  7  3  1  0  0  0  0
  8 18  1  0  0  0  0
  8 26  1  1  0  0  0
  9  6  1  0  0  0  0
  9  3  2  0  0  0  0
 10  5  1  6  0  0  0
 10 23  1  0  0  0  0
 11 16  1  0  0  0  0
 12  4  1  0  0  0  0
 12  8  1  0  0  0  0
 13  9  1  0  0  0  0
 17  2  1  0  0  0  0
 17 13  1  0  0  0  0
 18 25  1  0  0  0  0
 18 19  1  0  0  0  0
 19  5  1  0  0  0  0
 20 16  2  0  0  0  0
 20 15  1  0  0  0  0
 21 13  1  0  0  0  0
 21  7  2  0  0  0  0
 22  6  1  0  0  0  0
 23 28  1  0  0  0  0
 24  2  1  0  0  0  0
 25 19  1  0  0  0  0
 27 25  1  0  0  0  0
 27 21  1  0  0  0  0
 28 15  2  0  0  0  0
 30 23  1  0  0  0  0
 30 29  2  0  0  0  0
 31 30  1  0  0  0  0
 32 34  1  0  0  0  0
 33 35  2  0  0  0  0
 34 31  2  0  0  0  0
 34 33  1  0  0  0  0
 35 29  1  0  0  0  0
 37  4  1  0  0  0  0
 37 36  1  0  0  0  0
M  END
>  <MODEL>
3

>  <REMARK>
 VINA RESULT:      -8.5      1.064      1.320
  Name = 
  2 active torsions:
  status: ('A' for Active; 'I' for Inactive)
    1  A    between atoms: N_4  and  C_37
    2  A    between atoms: N_23  and  C_30
                            x       y       z     vdW  Elec       q    Type
                         _______ _______ _______ _____ _____    ______ ____

>  <TORSDO>
F 2

$$$$
=
 OpenBabel11112417163D

 37 44  0  0  1  0  0  0  0  0999 V2000
  189.5090  174.3720  142.1540 C   0  0  0  0  0  2  0  0  0  0  0  0
  189.5480  176.7610  146.0660 C   0  0  0  0  0  0  0  0  0  0  0  0
  192.8360  174.3760  145.1630 C   0  0  0  0  0  0  0  0  0  0  0  0
  188.2200  174.0840  141.5240 N   0  0  0  0  0  0  0  0  0  0  0  0
  192.5780  171.7320  142.4210 O   0  0  0  0  0  0  0  0  0  0  0  0
  191.9270  176.0820  146.6170 C   0  0  0  0  0  0  0  0  0  0  0  0
  192.3130  173.5340  144.1890 C   0  0  0  0  0  0  0  0  0  0  0  0
  189.5420  172.3450  140.1820 C   0  0  2  0  0  3  0  0  0  0  0  0
  191.7810  175.0650  145.6920 C   0  0  0  0  0  0  0  0  0  0  0  0
  193.2000  172.7030  143.2510 C   0  0  1  0  0  3  0  0  0  0  0  0
  193.2230  176.3940  147.0490 C   0  0  0  0  0  3  0  0  0  0  0  0
  188.1940  172.8280  140.7550 C   0  0  0  0  0  2  0  0  0  0  0  0
  190.6280  174.7480  145.1040 N   0  0  0  0  0  0  0  0  0  0  0  0
  189.8420  177.7590  144.9590 C   0  0  0  0  0  1  0  0  0  0  0  0
  195.3680  174.0270  145.0050 C   0  0  0  0  0  3  0  0  0  0  0  0
  194.3300  175.6960  146.5130 C   0  0  0  0  0  3  0  0  0  0  0  0
  189.3440  175.3590  145.4500 C   0  0  0  0  0  2  0  0  0  0  0  0
  190.4480  171.5460  141.1410 C   0  0  1  0  0  3  0  0  0  0  0  0
  191.5380  172.3830  141.7760 C   0  0  1  0  0  3  0  0  0  0  0  0
  194.1570  174.6740  145.5530 C   0  0  0  0  0  0  0  0  0  0  0  0
  190.9140  173.8180  144.1640 C   0  0  0  0  0  0  0  0  0  0  0  0
  190.6950  176.7910  147.1080 C   0  0  0  0  0  2  0  0  0  0  0  0
  194.2740  172.0830  144.0290 N   0  0  0  0  0  0  0  0  0  0  0  0
  188.2640  177.1790  146.7500 C   0  0  0  0  0  1  0  0  0  0  0  0
  190.3350  171.9750  142.6070 C   0  0  1  0  0  3  0  0  0  0  0  0
  190.2520  173.3410  139.2740 C   0  0  0  0  0  1  0  0  0  0  0  0
  189.8710  173.3070  143.1900 C   0  0  2  0  0  3  0  0  0  0  0  0
  195.4270  172.8740  144.3320 C   0  0  0  0  0  3  0  0  0  0  0  0
  193.1950  169.8590  144.1390 C   0  0  0  0  0  3  0  0  0  0  0  0
  194.1330  170.7800  144.6360 C   0  0  0  0  0  0  0  0  0  0  0  0
  194.9470  170.3970  145.7160 C   0  0  0  0  0  3  0  0  0  0  0  0
  195.8410  168.6780  147.6380 Cl  0  0  0  0  0  0  0  0  0  0  0  0
  193.8800  168.2280  145.7900 C   0  0  0  0  0  3  0  0  0  0  0  0
  194.8200  169.1310  146.2900 C   0  0  0  0  0  0  0  0  0  0  0  0
  193.0670  168.5920  144.7130 C   0  0  0  0  0  3  0  0  0  0  0  0
  187.8050  176.4760  141.3680 C   0  0  0  0  0  1  0  0  0  0  0  0
  187.9280  175.1720  140.6040 C   0  0  0  0  0  2  0  0  0  0  0  0
  1 27  1  0  0  0  0
  2 24  1  0  0  0  0
  2 22  1  0  0  0  0
  3 20  2  0  0  0  0
  3  9  1  0  0  0  0
  4  1  1  0  0  0  0
  6 11  1  0  0  0  0
  6 22  1  0  0  0  0
  7  3  1  0  0  0  0
  8 26  1  1  0  0  0
  8 12  1  0  0  0  0
  8 18  1  0  0  0  0
  9  6  2  0  0  0  0
 10  5  1  1  0  0  0
 10 23  1  0  0  0  0
 10  7  1  0  0  0  0
 12  4  1  0  0  0  0
 13 17  1  0  0  0  0
 13  9  1  0  0  0  0
 14  2  1  0  0  0  0
 15 20  1  0  0  0  0
 16 11  2  0  0  0  0
 17  2  1  0  0  0  0
 18 19  1  0  0  0  0
 18 25  1  0  0  0  0
 19  5  1  0  0  0  0
 19 25  1  0  0  0  0
 20 16  1  0  0  0  0
 21  7  2  0  0  0  0
 21 13  1  0  0  0  0
 23 28  1  0  0  0  0
 23 30  1  0  0  0  0
 25 27  1  0  0  0  0
 27 21  1  0  0  0  0
 28 15  2  0  0  0  0
 29 30  2  0  0  0  0
 29 35  1  0  0  0  0
 30 31  1  0  0  0  0
 31 34  2  0  0  0  0
 33 34  1  0  0  0  0
 34 32  1  0  0  0  0
 35 33  2  0  0  0  0
 37 36  1  0  0  0  0
 37  4  1  0  0  0  0
M  END
>  <MODEL>
4

>  <REMARK>
 VINA RESULT:      -8.1      3.396      6.334
  Name = 
  2 active torsions:
  status: ('A' for Active; 'I' for Inactive)
    1  A    between atoms: N_4  and  C_37
    2  A    between atoms: N_23  and  C_30
                            x       y       z     vdW  Elec       q    Type
                         _______ _______ _______ _____ _____    ______ ____

>  <TORSDO>
F 2

$$$$
=
 OpenBabel11112417163D

 37 44  0  0  1  0  0  0  0  0999 V2000
  190.1330  174.0770  142.1900 C   0  0  0  0  0  2  0  0  0  0  0  0
  189.3280  176.3540  146.0860 C   0  0  0  0  0  0  0  0  0  0  0  0
  193.1390  174.8160  145.4360 C   0  0  0  0  0  0  0  0  0  0  0  0
  188.9960  173.5050  141.4680 N   0  0  0  0  0  0  0  0  0  0  0  0
  193.7080  172.2240  142.6910 O   0  0  0  0  0  0  0  0  0  0  0  0
  191.7530  176.2420  146.8140 C   0  0  0  0  0  0  0  0  0  0  0  0
  192.9000  173.8890  144.4290 C   0  0  0  0  0  0  0  0  0  0  0  0
  190.7820  172.1420  140.2330 C   0  0  2  0  0  3  0  0  0  0  0  0
  191.9180  175.2320  145.8840 C   0  0  0  0  0  0  0  0  0  0  0  0
  194.0230  173.3020  143.5610 C   0  0  1  0  0  3  0  0  0  0  0  0
  192.9060  176.8420  147.3390 C   0  0  0  0  0  3  0  0  0  0  0  0
  189.3210  172.2880  140.7030 C   0  0  0  0  0  2  0  0  0  0  0  0
  190.9160  174.6630  145.2130 N   0  0  0  0  0  0  0  0  0  0  0  0
  189.4600  177.4090  145.0000 C   0  0  0  0  0  1  0  0  0  0  0  0
  195.6870  175.0700  145.4670 C   0  0  0  0  0  3  0  0  0  0  0  0
  194.1810  176.4300  146.8880 C   0  0  0  0  0  3  0  0  0  0  0  0
  189.5030  174.9520  145.4610 C   0  0  0  0  0  2  0  0  0  0  0  0
  191.7790  171.5630  141.2580 C   0  0  1  0  0  3  0  0  0  0  0  0
  192.5930  172.6230  141.9690 C   0  0  1  0  0  3  0  0  0  0  0  0
  194.3220  175.4090  145.9220 C   0  0  0  0  0  0  0  0  0  0  0  0
  191.4790  173.8390  144.3000 C   0  0  0  0  0  0  0  0  0  0  0  0
  190.3580  176.6370  147.2100 C   0  0  0  0  0  2  0  0  0  0  0  0
  195.1530  172.9390  144.4180 N   0  0  0  0  0  0  0  0  0  0  0  0
  187.9360  176.4500  146.6730 C   0  0  0  0  0  1  0  0  0  0  0  0
  191.4620  171.9330  142.7110 C   0  0  1  0  0  3  0  0  0  0  0  0
  191.3040  173.2890  139.3760 C   0  0  0  0  0  1  0  0  0  0  0  0
  190.6580  173.1110  143.2540 C   0  0  2  0  0  3  0  0  0  0  0  0
  196.0640  173.9730  144.8030 C   0  0  0  0  0  3  0  0  0  0  0  0
  196.4210  171.2910  145.7610 C   0  0  0  0  0  3  0  0  0  0  0  0
  195.2770  171.6300  145.0180 C   0  0  0  0  0  0  0  0  0  0  0  0
  194.2460  170.6830  144.8960 C   0  0  0  0  0  3  0  0  0  0  0  0
  193.0660  168.2590  145.3210 Cl  0  0  0  0  0  0  0  0  0  0  0  0
  195.5050  169.0990  146.2220 C   0  0  0  0  0  3  0  0  0  0  0  0
  194.3600  169.4250  145.4910 C   0  0  0  0  0  0  0  0  0  0  0  0
  196.5360  170.0330  146.3570 C   0  0  0  0  0  3  0  0  0  0  0  0
  188.1550  175.7780  141.2650 C   0  0  0  0  0  1  0  0  0  0  0  0
  188.5260  174.5070  140.5250 C   0  0  0  0  0  2  0  0  0  0  0  0
  1 27  1  0  0  0  0
  2 24  1  0  0  0  0
  2 22  1  0  0  0  0
  3  9  2  0  0  0  0
  3 20  1  0  0  0  0
  4  1  1  0  0  0  0
  6 22  1  0  0  0  0
  6 11  2  0  0  0  0
  7  3  1  0  0  0  0
  8 26  1  1  0  0  0
  8 12  1  0  0  0  0
  8 18  1  0  0  0  0
  9  6  1  0  0  0  0
 10  5  1  1  0  0  0
 10 23  1  0  0  0  0
 10  7  1  0  0  0  0
 12  4  1  0  0  0  0
 13 17  1  0  0  0  0
 13  9  1  0  0  0  0
 14  2  1  0  0  0  0
 15 20  1  0  0  0  0
 16 11  1  0  0  0  0
 17  2  1  0  0  0  0
 18 19  1  0  0  0  0
 18 25  1  0  0  0  0
 19  5  1  0  0  0  0
 19 25  1  0  0  0  0
 20 16  2  0  0  0  0
 21  7  2  0  0  0  0
 21 13  1  0  0  0  0
 23 28  1  0  0  0  0
 23 30  1  0  0  0  0
 25 27  1  0  0  0  0
 27 21  1  0  0  0  0
 28 15  2  0  0  0  0
 29 35  1  0  0  0  0
 30 29  2  0  0  0  0
 31 30  1  0  0  0  0
 31 34  2  0  0  0  0
 32 34  1  0  0  0  0
 33 35  2  0  0  0  0
 34 33  1  0  0  0  0
 37 36  1  0  0  0  0
 37  4  1  0  0  0  0
M  END
>  <MODEL>
5

>  <REMARK>
 VINA RESULT:      -8.1      3.181      6.311
  Name = 
  2 active torsions:
  status: ('A' for Active; 'I' for Inactive)
    1  A    between atoms: N_4  and  C_37
    2  A    between atoms: N_23  and  C_30
                            x       y       z     vdW  Elec       q    Type
                         _______ _______ _______ _____ _____    ______ ____

>  <TORSDO>
F 2

$$$$
=
 OpenBabel11112417163D

 37 44  0  0  1  0  0  0  0  0999 V2000
  191.2450  172.4530  142.0600 C   0  0  0  0  0  2  0  0  0  0  0  0
  190.1410  175.2010  145.5580 C   0  0  0  0  0  0  0  0  0  0  0  0
  194.0590  173.8300  145.2700 C   0  0  0  0  0  0  0  0  0  0  0  0
  190.1770  171.7130  141.3870 N   0  0  0  0  0  0  0  0  0  0  0  0
  194.8950  170.9170  142.9470 O   0  0  0  0  0  0  0  0  0  0  0  0
  192.5340  175.3450  146.3790 C   0  0  0  0  0  0  0  0  0  0  0  0
  193.9180  172.7570  144.3990 C   0  0  0  0  0  0  0  0  0  0  0  0
  192.0910  170.3050  140.4240 C   0  0  2  0  0  3  0  0  0  0  0  0
  192.7970  174.2270  145.6100 C   0  0  0  0  0  0  0  0  0  0  0  0
  195.1100  172.1250  143.6640 C   0  0  1  0  0  3  0  0  0  0  0  0
  193.6270  176.0850  146.8530 C   0  0  0  0  0  3  0  0  0  0  0  0
  190.6040  170.4240  140.8170 C   0  0  0  0  0  2  0  0  0  0  0  0
  191.8600  173.5070  144.9930 N   0  0  0  0  0  0  0  0  0  0  0  0
  190.2600  176.0980  144.3370 C   0  0  0  0  0  1  0  0  0  0  0  0
  196.5840  174.2460  145.3540 C   0  0  0  0  0  3  0  0  0  0  0  0
  194.9410  175.6940  146.5120 C   0  0  0  0  0  3  0  0  0  0  0  0
  190.4230  173.7380  145.1470 C   0  0  0  0  0  2  0  0  0  0  0  0
  193.0730  169.9410  141.5560 C   0  0  1  0  0  3  0  0  0  0  0  0
  193.7930  171.1390  142.1370 C   0  0  1  0  0  3  0  0  0  0  0  0
  195.1830  174.5580  145.7080 C   0  0  0  0  0  0  0  0  0  0  0  0
  192.5090  172.5990  144.2280 C   0  0  0  0  0  0  0  0  0  0  0  0
  191.1020  175.7030  146.6650 C   0  0  0  0  0  2  0  0  0  0  0  0
  196.2200  171.9580  144.6040 N   0  0  0  0  0  0  0  0  0  0  0  0
  188.7210  175.2910  146.0750 C   0  0  0  0  0  1  0  0  0  0  0  0
  192.6710  170.4920  142.9290 C   0  0  1  0  0  3  0  0  0  0  0  0
  192.5830  171.3510  139.4300 C   0  0  0  0  0  1  0  0  0  0  0  0
  191.7780  171.6810  143.2680 C   0  0  2  0  0  3  0  0  0  0  0  0
  197.0520  173.0910  144.8690 C   0  0  0  0  0  3  0  0  0  0  0  0
  197.6150  170.0660  145.3780 C   0  0  0  0  0  3  0  0  0  0  0  0
  196.3920  170.7580  145.3900 C   0  0  0  0  0  0  0  0  0  0  0  0
  195.3510  170.2750  146.2020 C   0  0  0  0  0  3  0  0  0  0  0  0
  194.2140  168.5370  147.9730 Cl  0  0  0  0  0  0  0  0  0  0  0  0
  196.7440  168.4430  146.9470 C   0  0  0  0  0  3  0  0  0  0  0  0
  195.5260  169.1240  146.9730 C   0  0  0  0  0  0  0  0  0  0  0  0
  197.7910  168.9150  146.1500 C   0  0  0  0  0  3  0  0  0  0  0  0
  188.5030  173.3620  140.7560 C   0  0  0  0  0  1  0  0  0  0  0  0
  189.6920  172.5410  140.2940 C   0  0  0  0  0  2  0  0  0  0  0  0
  1 27  1  0  0  0  0
  2 24  1  0  0  0  0
  2 22  1  0  0  0  0
  3  9  2  0  0  0  0
  3 20  1  0  0  0  0
  4  1  1  0  0  0  0
  6 22  1  0  0  0  0
  6 11  2  0  0  0  0
  7  3  1  0  0  0  0
  8 26  1  1  0  0  0
  8 12  1  0  0  0  0
  8 18  1  0  0  0  0
  9  6  1  0  0  0  0
 10  5  1  1  0  0  0
 10  7  1  0  0  0  0
 10 23  1  0  0  0  0
 12  4  1  0  0  0  0
 13 17  1  0  0  0  0
 13  9  1  0  0  0  0
 14  2  1  0  0  0  0
 15 20  1  0  0  0  0
 16 11  1  0  0  0  0
 17  2  1  0  0  0  0
 18 19  1  0  0  0  0
 18 25  1  0  0  0  0
 19 25  1  0  0  0  0
 19  5  1  0  0  0  0
 20 16  2  0  0  0  0
 21  7  2  0  0  0  0
 21 13  1  0  0  0  0
 23 28  1  0  0  0  0
 23 30  1  0  0  0  0
 25 27  1  0  0  0  0
 27 21  1  0  0  0  0
 28 15  2  0  0  0  0
 29 30  2  0  0  0  0
 29 35  1  0  0  0  0
 30 31  1  0  0  0  0
 31 34  2  0  0  0  0
 33 34  1  0  0  0  0
 34 32  1  0  0  0  0
 35 33  2  0  0  0  0
 37 36  1  0  0  0  0
 37  4  1  0  0  0  0
M  END
>  <MODEL>
6

>  <REMARK>
 VINA RESULT:      -7.7      3.725      6.786
  Name = 
  2 active torsions:
  status: ('A' for Active; 'I' for Inactive)
    1  A    between atoms: N_4  and  C_37
    2  A    between atoms: N_23  and  C_30
                            x       y       z     vdW  Elec       q    Type
                         _______ _______ _______ _____ _____    ______ ____

>  <TORSDO>
F 2

$$$$
=
 OpenBabel11112417163D

 37 44  0  0  1  0  0  0  0  0999 V2000
  194.3430  173.9940  143.5090 C   0  0  0  0  0  2  0  0  0  0  0  0
  192.0910  170.4740  141.6250 C   0  0  0  0  0  0  0  0  0  0  0  0
  190.0900  174.0930  142.0840 C   0  0  0  0  0  0  0  0  0  0  0  0
  195.5110  173.7100  144.3430 N   0  0  0  0  0  0  0  0  0  0  0  0
  191.5340  176.7950  144.3640 O   0  0  0  0  0  0  0  0  0  0  0  0
  190.0460  171.8790  141.1110 C   0  0  0  0  0  0  0  0  0  0  0  0
  190.8920  174.7410  143.0160 C   0  0  0  0  0  0  0  0  0  0  0  0
  195.2130  176.1240  145.1530 C   0  0  2  0  0  3  0  0  0  0  0  0
  190.5320  172.8020  142.0180 C   0  0  0  0  0  0  0  0  0  0  0  0
  190.8160  176.2550  143.2630 C   0  0  1  0  0  3  0  0  0  0  0  0
  189.0260  172.2910  140.2410 C   0  0  0  0  0  3  0  0  0  0  0  0
  195.7420  174.6980  145.4100 C   0  0  0  0  0  2  0  0  0  0  0  0
  191.5800  172.5880  142.8140 N   0  0  0  0  0  0  0  0  0  0  0  0
  193.0180  171.0080  140.5460 C   0  0  0  0  0  1  0  0  0  0  0  0
  188.5720  175.9400  141.1670 C   0  0  0  0  0  3  0  0  0  0  0  0
  188.5550  173.6230  140.2900 C   0  0  0  0  0  3  0  0  0  0  0  0
  192.2750  171.3040  142.9150 C   0  0  0  0  0  2  0  0  0  0  0  0
  193.7240  176.3720  145.4740 C   0  0  1  0  0  3  0  0  0  0  0  0
  192.8290  176.3110  144.2560 C   0  0  1  0  0  3  0  0  0  0  0  0
  189.0830  174.5530  141.2130 C   0  0  0  0  0  0  0  0  0  0  0  0
  191.8410  173.7600  143.4370 C   0  0  0  0  0  0  0  0  0  0  0  0
  190.6300  170.4940  141.1090 C   0  0  0  0  0  2  0  0  0  0  0  0
  189.4100  176.6590  143.3370 N   0  0  0  0  0  0  0  0  0  0  0  0
  192.4800  169.0400  141.9150 C   0  0  0  0  0  1  0  0  0  0  0  0
  192.8260  175.1530  145.2380 C   0  0  1  0  0  3  0  0  0  0  0  0
  195.7390  176.7910  143.8880 C   0  0  0  0  0  1  0  0  0  0  0  0
  193.0520  173.9490  144.3280 C   0  0  2  0  0  3  0  0  0  0  0  0
  188.7090  176.8780  142.1090 C   0  0  0  0  0  3  0  0  0  0  0  0
  187.6620  177.6220  144.8000 C   0  0  0  0  0  3  0  0  0  0  0  0
  188.6760  176.6740  144.5810 C   0  0  0  0  0  0  0  0  0  0  0  0
  188.9390  175.7240  145.5830 C   0  0  0  0  0  3  0  0  0  0  0  0
  188.5660  174.5410  148.0140 Cl  0  0  0  0  0  0  0  0  0  0  0  0
  187.2160  176.6810  146.9850 C   0  0  0  0  0  3  0  0  0  0  0  0
  188.2170  175.7300  146.7770 C   0  0  0  0  0  0  0  0  0  0  0  0
  186.9380  177.6280  145.9950 C   0  0  0  0  0  3  0  0  0  0  0  0
  196.2520  173.5370  142.0320 C   0  0  0  0  0  1  0  0  0  0  0  0
  196.6800  173.7140  143.4770 C   0  0  0  0  0  2  0  0  0  0  0  0
  1 27  1  0  0  0  0
  1  4  1  0  0  0  0
  2 24  1  0  0  0  0
  2 17  1  0  0  0  0
  3  7  1  0  0  0  0
  4 12  1  0  0  0  0
  6  9  2  0  0  0  0
  7 21  2  0  0  0  0
  8 26  1  6  0  0  0
  8 12  1  0  0  0  0
  8 18  1  0  0  0  0
  9  3  1  0  0  0  0
  9 13  1  0  0  0  0
 10  7  1  1  0  0  0
 10 23  1  0  0  0  0
 10  5  1  0  0  0  0
 11 16  2  0  0  0  0
 11  6  1  0  0  0  0
 13 17  1  0  0  0  0
 13 21  1  0  0  0  0
 14  2  1  0  0  0  0
 15 20  1  0  0  0  0
 15 28  2  0  0  0  0
 16 20  1  0  0  0  0
 19  5  1  0  0  0  0
 19 25  1  0  0  0  0
 19 18  1  0  0  0  0
 20  3  2  0  0  0  0
 21 27  1  0  0  0  0
 22  6  1  0  0  0  0
 22  2  1  0  0  0  0
 23 30  1  0  0  0  0
 25 18  1  0  0  0  0
 27 25  1  0  0  0  0
 28 23  1  0  0  0  0
 29 35  1  0  0  0  0
 30 29  2  0  0  0  0
 30 31  1  0  0  0  0
 31 34  2  0  0  0  0
 34 33  1  0  0  0  0
 34 32  1  0  0  0  0
 35 33  2  0  0  0  0
 36 37  1  0  0  0  0
 37  4  1  0  0  0  0
M  END
>  <MODEL>
7

>  <REMARK>
 VINA RESULT:      -7.7      1.859      5.446
  Name = 
  2 active torsions:
  status: ('A' for Active; 'I' for Inactive)
    1  A    between atoms: N_4  and  C_37
    2  A    between atoms: N_23  and  C_30
                            x       y       z     vdW  Elec       q    Type
                         _______ _______ _______ _____ _____    ______ ____

>  <TORSDO>
F 2

$$$$
=
 OpenBabel11112417163D

 37 44  0  0  1  0  0  0  0  0999 V2000
  189.2580  175.5320  143.8360 C   0  0  0  0  0  2  0  0  0  0  0  0
  189.0740  173.1290  139.9380 C   0  0  0  0  0  0  0  0  0  0  0  0
  191.8870  172.0460  142.8060 C   0  0  0  0  0  0  0  0  0  0  0  0
  188.7080  176.8880  143.8480 N   0  0  0  0  0  0  0  0  0  0  0  0
  192.7080  174.4350  145.6700 O   0  0  0  0  0  0  0  0  0  0  0  0
  190.7970  171.4480  140.7320 C   0  0  0  0  0  0  0  0  0  0  0  0
  191.9310  173.1860  143.6000 C   0  0  0  0  0  0  0  0  0  0  0  0
  190.0360  177.1440  146.0270 C   0  0  2  0  0  3  0  0  0  0  0  0
  191.1520  172.3680  141.7000 C   0  0  0  0  0  0  0  0  0  0  0  0
  192.5340  173.1870  145.0130 C   0  0  1  0  0  3  0  0  0  0  0  0
  191.2430  170.1280  140.8870 C   0  0  0  0  0  3  0  0  0  0  0  0
  189.3720  177.7980  144.7980 C   0  0  0  0  0  2  0  0  0  0  0  0
  190.6960  173.6200  141.7470 N   0  0  0  0  0  0  0  0  0  0  0  0
  187.8940  172.6660  140.7750 C   0  0  0  0  0  1  0  0  0  0  0  0
  193.0900  170.2630  144.1960 C   0  0  0  0  0  3  0  0  0  0  0  0
  192.0020  169.7720  142.0250 C   0  0  0  0  0  3  0  0  0  0  0  0
  189.8540  174.2170  140.7100 C   0  0  0  0  0  2  0  0  0  0  0  0
  191.4590  176.5860  145.8220 C   0  0  1  0  0  3  0  0  0  0  0  0
  191.4900  175.0920  145.5810 C   0  0  1  0  0  3  0  0  0  0  0  0
  192.3360  170.7260  143.0120 C   0  0  0  0  0  0  0  0  0  0  0  0
  191.1430  174.1530  142.9060 C   0  0  0  0  0  0  0  0  0  0  0  0
  189.9590  171.9110  139.5720 C   0  0  0  0  0  2  0  0  0  0  0  0
  193.7990  172.4500  144.9960 N   0  0  0  0  0  0  0  0  0  0  0  0
  188.5370  173.7360  138.6590 C   0  0  0  0  0  1  0  0  0  0  0  0
  191.7160  176.0380  144.4150 C   0  0  1  0  0  3  0  0  0  0  0  0
  189.1080  176.2950  146.8880 C   0  0  0  0  0  1  0  0  0  0  0  0
  190.7180  175.5300  143.3790 C   0  0  2  0  0  3  0  0  0  0  0  0
  193.7460  171.0230  145.0780 C   0  0  0  0  0  3  0  0  0  0  0  0
  196.0450  173.1840  145.7320 C   0  0  0  0  0  3  0  0  0  0  0  0
  195.0640  173.0950  144.7290 C   0  0  0  0  0  0  0  0  0  0  0  0
  195.3500  173.6200  143.4570 C   0  0  0  0  0  3  0  0  0  0  0  0
  196.9110  174.8790  141.6060 Cl  0  0  0  0  0  0  0  0  0  0  0  0
  197.5430  174.3140  144.2030 C   0  0  0  0  0  3  0  0  0  0  0  0
  196.5790  174.2270  143.1970 C   0  0  0  0  0  0  0  0  0  0  0  0
  197.2760  173.7910  145.4720 C   0  0  0  0  0  3  0  0  0  0  0  0
  186.7490  178.1750  144.5000 C   0  0  0  0  0  1  0  0  0  0  0  0
  187.3090  176.7900  144.2350 C   0  0  0  0  0  2  0  0  0  0  0  0
  1  4  1  0  0  0  0
  2 17  1  0  0  0  0
  2 14  1  0  0  0  0
  3 20  1  0  0  0  0
  3  7  1  0  0  0  0
  4 37  1  0  0  0  0
  4 12  1  0  0  0  0
  6 11  2  0  0  0  0
  6  9  1  0  0  0  0
  8 26  1  6  0  0  0
  9 13  1  0  0  0  0
  9  3  2  0  0  0  0
 10  7  1  6  0  0  0
 10  5  1  0  0  0  0
 11 16  1  0  0  0  0
 12  8  1  0  0  0  0
 13 21  1  0  0  0  0
 15 28  2  0  0  0  0
 16 20  2  0  0  0  0
 17 13  1  0  0  0  0
 18  8  1  0  0  0  0
 19  5  1  0  0  0  0
 19 18  1  0  0  0  0
 20 15  1  0  0  0  0
 21 27  1  0  0  0  0
 21  7  2  0  0  0  0
 22  2  1  0  0  0  0
 22  6  1  0  0  0  0
 23 10  1  0  0  0  0
 23 28  1  0  0  0  0
 24  2  1  0  0  0  0
 25 19  1  0  0  0  0
 25 18  1  0  0  0  0
 27  1  1  0  0  0  0
 27 25  1  0  0  0  0
 30 23  1  0  0  0  0
 30 29  2  0  0  0  0
 31 30  1  0  0  0  0
 32 34  1  0  0  0  0
 33 35  2  0  0  0  0
 34 31  2  0  0  0  0
 34 33  1  0  0  0  0
 35 29  1  0  0  0  0
 37 36  1  0  0  0  0
M  END
>  <MODEL>
8

>  <REMARK>
 VINA RESULT:      -7.6      2.972      7.433
  Name = 
  2 active torsions:
  status: ('A' for Active; 'I' for Inactive)
    1  A    between atoms: N_4  and  C_37
    2  A    between atoms: N_23  and  C_30
                            x       y       z     vdW  Elec       q    Type
                         _______ _______ _______ _____ _____    ______ ____

>  <TORSDO>
F 2

$$$$
=
 OpenBabel11112417163D

 37 44  0  0  1  0  0  0  0  0999 V2000
  192.8700  175.9080  144.7320 C   0  0  0  0  0  2  0  0  0  0  0  0
  188.5380  176.5620  143.3840 C   0  0  0  0  0  0  0  0  0  0  0  0
  190.9050  173.8980  141.2360 C   0  0  0  0  0  0  0  0  0  0  0  0
  193.5120  176.9410  145.5470 N   0  0  0  0  0  0  0  0  0  0  0  0
  194.6930  173.8980  141.7150 O   0  0  0  0  0  0  0  0  0  0  0  0
  188.6770  174.7660  141.6010 C   0  0  0  0  0  0  0  0  0  0  0  0
  192.1820  174.2640  141.6450 C   0  0  0  0  0  0  0  0  0  0  0  0
  195.6880  175.7440  144.9100 C   0  0  2  0  0  3  0  0  0  0  0  0
  190.0520  174.8520  141.7140 C   0  0  0  0  0  0  0  0  0  0  0  0
  193.4070  173.3610  141.4400 C   0  0  1  0  0  3  0  0  0  0  0  0
  188.1430  173.6550  140.9350 C   0  0  0  0  0  3  0  0  0  0  0  0
  194.9710  177.0320  145.3620 C   0  0  0  0  0  2  0  0  0  0  0  0
  190.6880  175.7830  142.4270 N   0  0  0  0  0  0  0  0  0  0  0  0
  188.4690  175.6670  144.6100 C   0  0  0  0  0  1  0  0  0  0  0  0
  191.2380  171.6410  140.0730 C   0  0  0  0  0  3  0  0  0  0  0  0
  189.0070  172.6530  140.4340 C   0  0  0  0  0  3  0  0  0  0  0  0
  190.0150  176.9040  143.0840 C   0  0  0  0  0  2  0  0  0  0  0  0
  195.6820  175.4490  143.3960 C   0  0  1  0  0  3  0  0  0  0  0  0
  194.6160  174.4580  142.9810 C   0  0  1  0  0  3  0  0  0  0  0  0
  190.4080  172.7540  140.5800 C   0  0  0  0  0  0  0  0  0  0  0  0
  191.9980  175.4500  142.4180 C   0  0  0  0  0  0  0  0  0  0  0  0
  187.8360  175.8630  142.1930 C   0  0  0  0  0  2  0  0  0  0  0  0
  193.3750  172.8080  140.0840 N   0  0  0  0  0  0  0  0  0  0  0  0
  187.7990  177.8460  143.6930 C   0  0  0  0  0  1  0  0  0  0  0  0
  194.4190  175.9310  142.6740 C   0  0  1  0  0  3  0  0  0  0  0  0
  195.4880  174.5380  145.8210 C   0  0  0  0  0  1  0  0  0  0  0  0
  193.0280  176.2020  143.2390 C   0  0  2  0  0  3  0  0  0  0  0  0
  192.5560  171.6600  139.8460 C   0  0  0  0  0  3  0  0  0  0  0  0
  195.2720  173.0910  138.5210 C   0  0  0  0  0  3  0  0  0  0  0  0
  193.9960  173.4770  138.9640 C   0  0  0  0  0  0  0  0  0  0  0  0
  193.3250  174.5040  138.2780 C   0  0  0  0  0  3  0  0  0  0  0  0
  193.0680  176.4180  136.3500 Cl  0  0  0  0  0  0  0  0  0  0  0  0
  195.1910  174.7490  136.7590 C   0  0  0  0  0  3  0  0  0  0  0  0
  193.9200  175.1380  137.1850 C   0  0  0  0  0  0  0  0  0  0  0  0
  195.8680  173.7240  137.4270 C   0  0  0  0  0  3  0  0  0  0  0  0
  192.0240  175.7480  147.0570 C   0  0  0  0  0  1  0  0  0  0  0  0
  193.2630  176.6150  146.9430 C   0  0  0  0  0  2  0  0  0  0  0  0
  1  4  1  0  0  0  0
  2 24  1  0  0  0  0
  2 14  1  0  0  0  0
  3  7  1  0  0  0  0
  3  9  1  0  0  0  0
  4 37  1  0  0  0  0
  5 19  1  0  0  0  0
  6  9  2  0  0  0  0
  6 22  1  0  0  0  0
  7 21  2  0  0  0  0
  8 12  1  0  0  0  0
  8 26  1  1  0  0  0
  9 13  1  0  0  0  0
 10  7  1  6  0  0  0
 10  5  1  0  0  0  0
 11  6  1  0  0  0  0
 12  4  1  0  0  0  0
 13 17  1  0  0  0  0
 15 20  1  0  0  0  0
 16 20  1  0  0  0  0
 16 11  2  0  0  0  0
 17  2  1  0  0  0  0
 18  8  1  0  0  0  0
 19 18  1  0  0  0  0
 20  3  2  0  0  0  0
 21 13  1  0  0  0  0
 21 27  1  0  0  0  0
 22  2  1  0  0  0  0
 23 10  1  0  0  0  0
 25 19  1  0  0  0  0
 25 27  1  0  0  0  0
 25 18  1  0  0  0  0
 27  1  1  0  0  0  0
 28 15  2  0  0  0  0
 28 23  1  0  0  0  0
 29 30  1  0  0  0  0
 30 23  1  0  0  0  0
 31 30  2  0  0  0  0
 32 34  1  0  0  0  0
 33 34  2  0  0  0  0
 33 35  1  0  0  0  0
 34 31  1  0  0  0  0
 35 29  2  0  0  0  0
 37 36  1  0  0  0  0
M  END
>  <MODEL>
9

>  <REMARK>
 VINA RESULT:      -7.3      3.190      7.740
  Name = 
  2 active torsions:
  status: ('A' for Active; 'I' for Inactive)
    1  A    between atoms: N_4  and  C_37
    2  A    between atoms: N_23  and  C_30
                            x       y       z     vdW  Elec       q    Type
                         _______ _______ _______ _____ _____    ______ ____

>  <TORSDO>
F 2

$$$$
