=
 OpenBabel11112417233D

 37 42  0  0  1  0  0  0  0  0999 V2000
  194.6690  175.7200  142.3320 C   0  0  1  0  0  0  0  0  0  0  0  0
  191.7270  176.5580  145.2760 C   0  0  0  0  0  0  0  0  0  0  0  0
  189.6470  174.1710  145.8860 C   0  0  0  0  0  2  0  0  0  0  0  0
  194.1660  176.2880  144.8070 C   0  0  0  0  0  0  0  0  0  0  0  0
  190.6440  176.1370  144.6320 C   0  0  2  0  0  3  0  0  0  0  0  0
  192.8180  176.5870  144.2950 C   0  0  0  0  0  0  0  0  0  0  0  0
  189.4230  175.5810  145.3250 C   0  0  2  0  0  3  0  0  0  0  0  0
  194.4030  176.2430  146.1270 C   0  0  0  0  0  3  0  0  0  0  0  0
  192.4570  175.5760  143.3380 N   0  0  0  0  0  0  0  0  0  0  0  0
  194.9350  174.2400  142.1340 C   0  0  0  0  0  1  0  0  0  0  0  0
  190.9180  176.5840  147.7470 C   0  0  0  0  0  2  0  0  0  0  0  0
  193.2900  176.3960  147.1110 C   0  0  0  0  0  3  0  0  0  0  0  0
  193.1450  175.9760  142.1210 C   0  0  0  0  0  2  0  0  0  0  0  0
  189.6980  172.9090  143.6500 C   0  0  1  0  0  3  0  0  0  0  0  0
  190.4450  173.2670  144.9400 C   0  0  0  0  0  2  0  0  0  0  0  0
  192.0110  176.5510  146.7240 C   0  0  0  0  0  0  0  0  0  0  0  0
  191.0580  175.7070  143.3200 N   0  0  1  0  0  0  0  0  0  0  0  0
  195.2260  176.1280  143.7440 C   0  0  0  0  0  2  0  0  0  0  0  0
  188.7700  176.5050  146.3710 C   0  0  1  0  0  3  0  0  0  0  0  0
  195.3750  176.4250  141.3580 O   0  0  0  0  0  1  0  0  0  0  0  0
  189.1640  174.1120  142.8600 C   0  0  0  0  0  2  0  0  0  0  0  0
  190.2290  175.0630  142.2960 C   0  0  0  0  0  2  0  0  0  0  0  0
  189.7130  177.3610  147.2320 C   0  0  0  0  0  2  0  0  0  0  0  0
  191.8440  170.3340  140.8160 O   0  0  0  0  0  0  0  0  0  0  0  0
  190.8430  171.0120  140.4660 C   0  0  0  0  0  0  0  0  0  0  0  0
  190.5090  171.9940  142.7900 C   0  0  0  0  0  0  0  0  0  0  0  0
  190.1550  171.8430  141.4110 N   0  0  0  0  0  2  0  0  0  0  0  0
  191.5020  171.3830  143.2730 O   0  0  0  0  0  0  0  0  0  0  0  0
  189.2470  171.7000  138.6430 C   0  0  0  0  0  1  0  0  0  0  0  0
  190.3960  170.9440  139.1130 N   0  0  0  0  0  2  0  0  0  0  0  0
  186.7320  177.9380  146.5500 C   0  0  0  0  0  3  0  0  0  0  0  0
  187.7100  177.3530  145.7430 C   0  0  0  0  0  0  0  0  0  0  0  0
  187.6760  177.5590  144.3570 C   0  0  0  0  0  3  0  0  0  0  0  0
  186.6160  178.5750  142.3400 C   0  0  0  0  0  1  0  0  0  0  0  0
  185.7240  178.9100  144.6150 N   0  0  0  0  0  0  0  0  0  0  0  0
  186.6650  178.3490  143.8080 C   0  0  0  0  0  0  0  0  0  0  0  0
  185.7370  178.7210  145.9610 C   0  0  0  0  0  3  0  0  0  0  0  0
  1 10  1  6  0  0  0
  1 18  1  0  0  0  0
  2 16  1  0  0  0  0
  4  8  2  0  0  0  0
  5  2  1  1  0  0  0
  5  7  1  0  0  0  0
  6  4  1  0  0  0  0
  6  2  2  0  0  0  0
  7  3  1  1  0  0  0
  7 19  1  0  0  0  0
  8 12  1  0  0  0  0
  9  6  1  0  0  0  0
 13  1  1  0  0  0  0
 13  9  1  0  0  0  0
 14 26  1  6  0  0  0
 14 15  1  0  0  0  0
 15  3  1  0  0  0  0
 16 12  2  0  0  0  0
 16 11  1  0  0  0  0
 17 22  1  1  0  0  0
 17  9  1  0  0  0  0
 17  5  1  0  0  0  0
 18  4  1  0  0  0  0
 19 32  1  6  0  0  0
 19 23  1  0  0  0  0
 20  1  1  0  0  0  0
 21 14  1  0  0  0  0
 22 21  1  0  0  0  0
 23 11  1  0  0  0  0
 25 24  2  0  0  0  0
 25 27  1  0  0  0  0
 26 28  2  0  0  0  0
 27 26  1  0  0  0  0
 29 30  1  0  0  0  0
 30 25  1  0  0  0  0
 32 31  2  0  0  0  0
 33 32  1  0  0  0  0
 34 36  1  0  0  0  0
 35 37  2  0  0  0  0
 36 33  2  0  0  0  0
 36 35  1  0  0  0  0
 37 31  1  0  0  0  0
M  END
>  <MODEL>
1

>  <REMARK>
 VINA RESULT:     -10.2      0.000      0.000
  Name = 
  2 active torsions:
  status: ('A' for Active; 'I' for Inactive)
    1  A    between atoms: C_8  and  C_18
    2  A    between atoms: C_23  and  C_30
                            x       y       z     vdW  Elec       q    Type
                         _______ _______ _______ _____ _____    ______ ____

>  <TORSDO>
F 2

$$$$
=
 OpenBabel11112417233D

 37 42  0  0  1  0  0  0  0  0999 V2000
  190.3190  172.0860  142.3860 C   0  0  1  0  0  0  0  0  0  0  0  0
  187.8550  175.5260  142.0330 C   0  0  0  0  0  0  0  0  0  0  0  0
  189.3020  178.3440  142.6370 C   0  0  0  0  0  2  0  0  0  0  0  0
  188.8790  173.5830  140.8410 C   0  0  0  0  0  0  0  0  0  0  0  0
  188.1670  176.1390  143.1700 C   0  0  2  0  0  3  0  0  0  0  0  0
  188.4230  174.1760  142.1100 C   0  0  0  0  0  0  0  0  0  0  0  0
  188.1380  177.6380  143.3450 C   0  0  2  0  0  3  0  0  0  0  0  0
  188.5580  174.1490  139.6670 C   0  0  0  0  0  3  0  0  0  0  0  0
  189.5600  174.3210  142.9810 N   0  0  0  0  0  0  0  0  0  0  0  0
  191.8010  172.3740  142.2320 C   0  0  0  0  0  1  0  0  0  0  0  0
  186.8320  177.4620  140.6310 C   0  0  0  0  0  2  0  0  0  0  0  0
  187.8160  175.4440  139.6180 C   0  0  0  0  0  3  0  0  0  0  0  0
  189.7620  172.9900  143.5280 C   0  0  0  0  0  2  0  0  0  0  0  0
  191.1820  177.5880  144.2140 C   0  0  1  0  0  3  0  0  0  0  0  0
  190.6340  177.6010  142.7830 C   0  0  0  0  0  2  0  0  0  0  0  0
  187.4700  176.1110  140.7340 C   0  0  0  0  0  0  0  0  0  0  0  0
  189.0870  175.2880  143.8830 N   0  0  1  0  0  0  0  0  0  0  0  0
  189.6380  172.2860  140.9840 C   0  0  0  0  0  2  0  0  0  0  0  0
  186.7930  178.3210  143.0340 C   0  0  1  0  0  3  0  0  0  0  0  0
  190.1710  170.7530  142.7640 O   0  0  0  0  0  1  0  0  0  0  0  0
  190.2010  177.0680  145.2750 C   0  0  0  0  0  2  0  0  0  0  0  0
  189.7880  175.5960  145.1340 C   0  0  0  0  0  2  0  0  0  0  0  0
  185.9780  177.7560  141.8590 C   0  0  0  0  0  2  0  0  0  0  0  0
  195.0110  175.4500  144.0240 O   0  0  0  0  0  0  0  0  0  0  0  0
  194.2550  175.5450  143.0210 C   0  0  0  0  0  0  0  0  0  0  0  0
  192.5000  176.8870  144.2840 C   0  0  0  0  0  0  0  0  0  0  0  0
  193.0070  176.2440  143.1090 N   0  0  0  0  0  2  0  0  0  0  0  0
  193.1610  176.8840  145.3580 O   0  0  0  0  0  0  0  0  0  0  0  0
  193.8310  175.0150  140.5960 C   0  0  0  0  0  1  0  0  0  0  0  0
  194.6560  174.9440  141.7900 N   0  0  0  0  0  2  0  0  0  0  0  0
  184.5930  178.7340  144.1440 C   0  0  0  0  0  3  0  0  0  0  0  0
  185.9480  178.4190  144.2650 C   0  0  0  0  0  0  0  0  0  0  0  0
  186.4990  178.2100  145.5370 C   0  0  0  0  0  3  0  0  0  0  0  0
  186.2500  178.1030  148.0170 C   0  0  0  0  0  1  0  0  0  0  0  0
  184.3620  178.6270  146.5200 N   0  0  0  0  0  0  0  0  0  0  0  0
  185.6800  178.3200  146.6620 C   0  0  0  0  0  0  0  0  0  0  0  0
  183.8080  178.8340  145.2950 C   0  0  0  0  0  3  0  0  0  0  0  0
  1 10  1  6  0  0  0
  1 20  1  0  0  0  0
  1 13  1  0  0  0  0
  2  6  1  0  0  0  0
  3 15  1  0  0  0  0
  4 18  1  0  0  0  0
  4  6  2  0  0  0  0
  5  2  1  6  0  0  0
  5  7  1  0  0  0  0
  5 17  1  0  0  0  0
  6  9  1  0  0  0  0
  7  3  1  6  0  0  0
  8  4  1  0  0  0  0
  9 13  1  0  0  0  0
  9 17  1  0  0  0  0
 11 16  1  0  0  0  0
 11 23  1  0  0  0  0
 12  8  2  0  0  0  0
 12 16  1  0  0  0  0
 14 26  1  6  0  0  0
 14 21  1  0  0  0  0
 15 14  1  0  0  0  0
 16  2  2  0  0  0  0
 17 22  1  6  0  0  0
 18  1  1  0  0  0  0
 19  7  1  0  0  0  0
 19 32  1  1  0  0  0
 22 21  1  0  0  0  0
 23 19  1  0  0  0  0
 25 27  1  0  0  0  0
 25 24  2  0  0  0  0
 26 28  2  0  0  0  0
 27 26  1  0  0  0  0
 29 30  1  0  0  0  0
 30 25  1  0  0  0  0
 31 32  2  0  0  0  0
 31 37  1  0  0  0  0
 32 33  1  0  0  0  0
 33 36  2  0  0  0  0
 35 36  1  0  0  0  0
 36 34  1  0  0  0  0
 37 35  2  0  0  0  0
M  END
>  <MODEL>
2

>  <REMARK>
 VINA RESULT:     -10.1      1.980      5.473
  Name = 
  2 active torsions:
  status: ('A' for Active; 'I' for Inactive)
    1  A    between atoms: C_8  and  C_18
    2  A    between atoms: C_23  and  C_30
                            x       y       z     vdW  Elec       q    Type
                         _______ _______ _______ _____ _____    ______ ____

>  <TORSDO>
F 2

$$$$
=
 OpenBabel11112417233D

 37 42  0  0  1  0  0  0  0  0999 V2000
  194.6110  175.5330  142.1810 C   0  0  1  0  0  0  0  0  0  0  0  0
  191.6550  176.4150  145.0990 C   0  0  0  0  0  0  0  0  0  0  0  0
  189.6640  173.9900  145.8430 C   0  0  0  0  0  2  0  0  0  0  0  0
  194.1000  176.2070  144.6280 C   0  0  0  0  0  0  0  0  0  0  0  0
  190.5840  175.9240  144.4840 C   0  0  2  0  0  3  0  0  0  0  0  0
  192.7390  176.4330  144.1110 C   0  0  0  0  0  0  0  0  0  0  0  0
  189.3880  175.3620  145.2140 C   0  0  2  0  0  3  0  0  0  0  0  0
  194.3450  176.2380  145.9470 C   0  0  0  0  0  3  0  0  0  0  0  0
  192.4100  175.3620  143.2080 N   0  0  0  0  0  0  0  0  0  0  0  0
  194.9280  174.0550  142.0560 C   0  0  0  0  0  1  0  0  0  0  0  0
  190.8590  176.5380  147.5710 C   0  0  0  0  0  2  0  0  0  0  0  0
  193.2330  176.4010  146.9300 C   0  0  0  0  0  3  0  0  0  0  0  0
  193.0770  175.7240  141.9680 C   0  0  0  0  0  2  0  0  0  0  0  0
  189.7490  172.6190  143.6730 C   0  0  1  0  0  3  0  0  0  0  0  0
  190.4890  173.0680  144.9380 C   0  0  0  0  0  2  0  0  0  0  0  0
  191.9470  176.4920  146.5440 C   0  0  0  0  0  0  0  0  0  0  0  0
  191.0070  175.4430  143.1930 N   0  0  1  0  0  0  0  0  0  0  0  0
  195.1600  176.0310  143.5670 C   0  0  0  0  0  2  0  0  0  0  0  0
  188.7080  176.3140  146.2160 C   0  0  1  0  0  3  0  0  0  0  0  0
  195.2860  176.2120  141.1680 O   0  0  0  0  0  1  0  0  0  0  0  0
  189.1680  173.7610  142.8270 C   0  0  0  0  0  2  0  0  0  0  0  0
  190.1960  174.7190  142.2090 C   0  0  0  0  0  2  0  0  0  0  0  0
  189.6240  177.2450  147.0260 C   0  0  0  0  0  2  0  0  0  0  0  0
  192.5040  169.9450  141.5450 O   0  0  0  0  0  0  0  0  0  0  0  0
  192.8500  170.5560  142.5910 C   0  0  0  0  0  0  0  0  0  0  0  0
  190.5870  171.6910  142.8550 C   0  0  0  0  0  0  0  0  0  0  0  0
  191.9340  171.4280  143.2660 N   0  0  0  0  0  2  0  0  0  0  0  0
  190.1040  171.1340  141.8320 O   0  0  0  0  0  0  0  0  0  0  0  0
  194.6340  171.0460  144.2990 C   0  0  0  0  0  1  0  0  0  0  0  0
  194.1710  170.3720  143.0980 N   0  0  0  0  0  2  0  0  0  0  0  0
  187.7950  177.5500  144.2460 C   0  0  0  0  0  3  0  0  0  0  0  0
  187.6150  177.0910  145.5530 C   0  0  0  0  0  0  0  0  0  0  0  0
  186.4200  177.3760  146.2270 C   0  0  0  0  0  3  0  0  0  0  0  0
  184.1560  178.4230  146.2810 C   0  0  0  0  0  1  0  0  0  0  0  0
  185.6250  178.5480  144.3040 N   0  0  0  0  0  0  0  0  0  0  0  0
  185.4280  178.1120  145.5780 C   0  0  0  0  0  0  0  0  0  0  0  0
  186.7770  178.2840  143.6320 C   0  0  0  0  0  3  0  0  0  0  0  0
  1 10  1  6  0  0  0
  1 18  1  0  0  0  0
  2 16  1  0  0  0  0
  4  8  2  0  0  0  0
  5  2  1  1  0  0  0
  5  7  1  0  0  0  0
  6  4  1  0  0  0  0
  6  2  2  0  0  0  0
  7  3  1  1  0  0  0
  7 19  1  0  0  0  0
  8 12  1  0  0  0  0
  9  6  1  0  0  0  0
 13  1  1  0  0  0  0
 13  9  1  0  0  0  0
 14 26  1  6  0  0  0
 14 15  1  0  0  0  0
 15  3  1  0  0  0  0
 16 12  2  0  0  0  0
 16 11  1  0  0  0  0
 17 22  1  1  0  0  0
 17  9  1  0  0  0  0
 17  5  1  0  0  0  0
 18  4  1  0  0  0  0
 19 32  1  6  0  0  0
 19 23  1  0  0  0  0
 20  1  1  0  0  0  0
 21 14  1  0  0  0  0
 22 21  1  0  0  0  0
 23 11  1  0  0  0  0
 24 25  2  0  0  0  0
 25 30  1  0  0  0  0
 25 27  1  0  0  0  0
 26 27  1  0  0  0  0
 28 26  2  0  0  0  0
 30 29  1  0  0  0  0
 31 32  1  0  0  0  0
 32 33  2  0  0  0  0
 35 36  2  0  0  0  0
 36 33  1  0  0  0  0
 36 34  1  0  0  0  0
 37 31  2  0  0  0  0
 37 35  1  0  0  0  0
M  END
>  <MODEL>
3

>  <REMARK>
 VINA RESULT:     -10.1      1.300      2.075
  Name = 
  2 active torsions:
  status: ('A' for Active; 'I' for Inactive)
    1  A    between atoms: C_8  and  C_18
    2  A    between atoms: C_23  and  C_30
                            x       y       z     vdW  Elec       q    Type
                         _______ _______ _______ _____ _____    ______ ____

>  <TORSDO>
F 2

$$$$
=
 OpenBabel11112417233D

 37 42  0  0  1  0  0  0  0  0999 V2000
  195.1800  175.7700  142.8260 C   0  0  1  0  0  0  0  0  0  0  0  0
  191.5990  176.3780  145.0250 C   0  0  0  0  0  0  0  0  0  0  0  0
  189.6990  173.7910  145.3350 C   0  0  0  0  0  2  0  0  0  0  0  0
  194.0960  176.3740  145.0980 C   0  0  0  0  0  0  0  0  0  0  0  0
  190.7310  175.8070  144.1950 C   0  0  2  0  0  3  0  0  0  0  0  0
  192.8660  176.4940  144.2960 C   0  0  0  0  0  0  0  0  0  0  0  0
  189.4550  175.1420  144.6500 C   0  0  2  0  0  3  0  0  0  0  0  0
  194.0460  176.4100  146.4380 C   0  0  0  0  0  3  0  0  0  0  0  0
  192.8300  175.4100  143.3510 N   0  0  0  0  0  0  0  0  0  0  0  0
  195.6360  174.3250  142.7830 C   0  0  0  0  0  1  0  0  0  0  0  0
  190.2760  176.4080  147.2630 C   0  0  0  0  0  2  0  0  0  0  0  0
  192.7360  176.4720  147.1540 C   0  0  0  0  0  3  0  0  0  0  0  0
  193.7190  175.8380  142.2830 C   0  0  0  0  0  2  0  0  0  0  0  0
  190.3650  172.4550  143.2450 C   0  0  1  0  0  3  0  0  0  0  0  0
  190.7730  172.9480  144.6380 C   0  0  0  0  0  2  0  0  0  0  0  0
  191.5620  176.4620  146.4970 C   0  0  0  0  0  0  0  0  0  0  0  0
  191.4620  175.3760  143.0310 N   0  0  1  0  0  0  0  0  0  0  0  0
  195.3720  176.2960  144.2940 C   0  0  0  0  0  2  0  0  0  0  0  0
  188.4970  176.0250  145.4740 C   0  0  1  0  0  3  0  0  0  0  0  0
  196.0010  176.5130  141.9800 O   0  0  0  0  0  1  0  0  0  0  0  0
  189.8910  173.5550  142.2850 C   0  0  0  0  0  2  0  0  0  0  0  0
  190.9460  174.6000  141.8980 C   0  0  0  0  0  2  0  0  0  0  0  0
  189.1360  177.0190  146.4570 C   0  0  0  0  0  2  0  0  0  0  0  0
  193.2550  169.9070  141.1420 O   0  0  0  0  0  0  0  0  0  0  0  0
  192.1070  170.1300  140.6760 C   0  0  0  0  0  0  0  0  0  0  0  0
  191.4340  171.6070  142.6360 C   0  0  0  0  0  0  0  0  0  0  0  0
  191.1780  170.9620  141.3830 N   0  0  0  0  0  2  0  0  0  0  0  0
  192.5500  171.4820  143.2110 O   0  0  0  0  0  0  0  0  0  0  0  0
  190.4290  169.7570  138.8360 C   0  0  0  0  0  1  0  0  0  0  0  0
  191.7380  169.5410  139.4300 N   0  0  0  0  0  2  0  0  0  0  0  0
  187.2060  176.1630  143.3400 C   0  0  0  0  0  3  0  0  0  0  0  0
  187.5150  176.7180  144.5840 C   0  0  0  0  0  0  0  0  0  0  0  0
  186.9100  177.9200  144.9730 C   0  0  0  0  0  3  0  0  0  0  0  0
  185.3570  179.8170  144.5100 C   0  0  0  0  0  1  0  0  0  0  0  0
  185.7190  177.9810  142.9040 N   0  0  0  0  0  0  0  0  0  0  0  0
  186.0060  178.5410  144.1110 C   0  0  0  0  0  0  0  0  0  0  0  0
  186.2960  176.8160  142.5060 C   0  0  0  0  0  3  0  0  0  0  0  0
  1 10  1  6  0  0  0
  1 18  1  0  0  0  0
  2 16  1  0  0  0  0
  4  8  2  0  0  0  0
  5  7  1  0  0  0  0
  5  2  1  1  0  0  0
  6  2  2  0  0  0  0
  6  4  1  0  0  0  0
  7  3  1  1  0  0  0
  7 19  1  0  0  0  0
  8 12  1  0  0  0  0
  9  6  1  0  0  0  0
 13  1  1  0  0  0  0
 13  9  1  0  0  0  0
 14 26  1  6  0  0  0
 14 15  1  0  0  0  0
 15  3  1  0  0  0  0
 16 12  2  0  0  0  0
 16 11  1  0  0  0  0
 17 22  1  1  0  0  0
 17  9  1  0  0  0  0
 17  5  1  0  0  0  0
 18  4  1  0  0  0  0
 19 32  1  6  0  0  0
 19 23  1  0  0  0  0
 20  1  1  0  0  0  0
 21 14  1  0  0  0  0
 22 21  1  0  0  0  0
 23 11  1  0  0  0  0
 25 24  2  0  0  0  0
 25 27  1  0  0  0  0
 26 28  2  0  0  0  0
 27 26  1  0  0  0  0
 29 30  1  0  0  0  0
 30 25  1  0  0  0  0
 31 32  1  0  0  0  0
 32 33  2  0  0  0  0
 35 36  2  0  0  0  0
 36 34  1  0  0  0  0
 36 33  1  0  0  0  0
 37 35  1  0  0  0  0
 37 31  2  0  0  0  0
M  END
>  <MODEL>
4

>  <REMARK>
 VINA RESULT:      -9.8      1.090      1.417
  Name = 
  2 active torsions:
  status: ('A' for Active; 'I' for Inactive)
    1  A    between atoms: C_8  and  C_18
    2  A    between atoms: C_23  and  C_30
                            x       y       z     vdW  Elec       q    Type
                         _______ _______ _______ _____ _____    ______ ____

>  <TORSDO>
F 2

$$$$
=
 OpenBabel11112417233D

 37 42  0  0  1  0  0  0  0  0999 V2000
  192.1120  171.4760  143.2550 C   0  0  1  0  0  0  0  0  0  0  0  0
  189.1590  174.4870  142.7620 C   0  0  0  0  0  0  0  0  0  0  0  0
  190.2100  177.5250  143.0170 C   0  0  0  0  0  2  0  0  0  0  0  0
  190.3900  172.6000  141.6830 C   0  0  0  0  0  0  0  0  0  0  0  0
  189.4390  175.2450  143.8180 C   0  0  2  0  0  3  0  0  0  0  0  0
  189.9210  173.2430  142.9220 C   0  0  0  0  0  0  0  0  0  0  0  0
  189.2010  176.7350  143.8610 C   0  0  2  0  0  3  0  0  0  0  0  0
  189.9280  172.9970  140.4870 C   0  0  0  0  0  3  0  0  0  0  0  0
  191.0680  173.6300  143.6980 N   0  0  0  0  0  0  0  0  0  0  0  0
  193.5260  171.9520  142.9780 C   0  0  0  0  0  1  0  0  0  0  0  0
  187.7920  176.1140  141.2660 C   0  0  0  0  0  2  0  0  0  0  0  0
  189.0040  174.1660  140.3730 C   0  0  0  0  0  3  0  0  0  0  0  0
  191.4910  172.4010  144.3470 C   0  0  0  0  0  2  0  0  0  0  0  0
  192.2610  177.1960  144.5260 C   0  0  1  0  0  3  0  0  0  0  0  0
  191.6420  176.9930  143.1390 C   0  0  0  0  0  2  0  0  0  0  0  0
  188.6250  174.8830  141.4460 C   0  0  0  0  0  0  0  0  0  0  0  0
  190.5080  174.6050  144.5410 N   0  0  1  0  0  0  0  0  0  0  0  0
  191.3360  171.4410  141.8890 C   0  0  0  0  0  2  0  0  0  0  0  0
  187.7560  177.1900  143.5800 C   0  0  1  0  0  3  0  0  0  0  0  0
  192.1800  170.1790  143.7590 O   0  0  0  0  0  1  0  0  0  0  0  0
  191.4240  176.6500  145.6920 C   0  0  0  0  0  2  0  0  0  0  0  0
  191.2230  175.1280  145.7100 C   0  0  0  0  0  2  0  0  0  0  0  0
  186.9710  176.4050  142.5170 C   0  0  0  0  0  2  0  0  0  0  0  0
  196.3480  175.6130  144.2690 O   0  0  0  0  0  0  0  0  0  0  0  0
  195.5400  175.5200  143.3080 C   0  0  0  0  0  0  0  0  0  0  0  0
  193.6690  176.6970  144.5700 C   0  0  0  0  0  0  0  0  0  0  0  0
  194.2090  176.0410  143.4170 N   0  0  0  0  0  2  0  0  0  0  0  0
  194.3730  176.8720  145.6020 O   0  0  0  0  0  0  0  0  0  0  0  0
  195.0850  174.7450  140.9560 C   0  0  0  0  0  1  0  0  0  0  0  0
  195.9660  174.8860  142.1030 N   0  0  0  0  0  2  0  0  0  0  0  0
  187.4870  176.7210  146.0190 C   0  0  0  0  0  3  0  0  0  0  0  0
  186.9730  177.2880  144.8510 C   0  0  0  0  0  0  0  0  0  0  0  0
  185.7270  177.9280  144.8840 C   0  0  0  0  0  3  0  0  0  0  0  0
  183.7000  178.6660  146.1380 C   0  0  0  0  0  1  0  0  0  0  0  0
  185.5440  177.4330  147.2130 N   0  0  0  0  0  0  0  0  0  0  0  0
  185.0220  177.9910  146.0870 C   0  0  0  0  0  0  0  0  0  0  0  0
  186.7510  176.8050  147.2030 C   0  0  0  0  0  3  0  0  0  0  0  0
  1 10  1  6  0  0  0
  1 20  1  0  0  0  0
  1 13  1  0  0  0  0
  2  6  1  0  0  0  0
  3 15  1  0  0  0  0
  4 18  1  0  0  0  0
  4  6  2  0  0  0  0
  5  2  1  6  0  0  0
  5  7  1  0  0  0  0
  5 17  1  0  0  0  0
  6  9  1  0  0  0  0
  7  3  1  6  0  0  0
  8  4  1  0  0  0  0
  9 13  1  0  0  0  0
  9 17  1  0  0  0  0
 11 16  1  0  0  0  0
 11 23  1  0  0  0  0
 12  8  2  0  0  0  0
 12 16  1  0  0  0  0
 14 26  1  6  0  0  0
 14 21  1  0  0  0  0
 15 14  1  0  0  0  0
 16  2  2  0  0  0  0
 17 22  1  6  0  0  0
 18  1  1  0  0  0  0
 19  7  1  0  0  0  0
 19 32  1  1  0  0  0
 21 22  1  0  0  0  0
 23 19  1  0  0  0  0
 25 27  1  0  0  0  0
 25 24  2  0  0  0  0
 26 28  2  0  0  0  0
 27 26  1  0  0  0  0
 29 30  1  0  0  0  0
 30 25  1  0  0  0  0
 31 37  1  0  0  0  0
 32 33  1  0  0  0  0
 32 31  2  0  0  0  0
 33 36  2  0  0  0  0
 36 34  1  0  0  0  0
 36 35  1  0  0  0  0
 37 35  2  0  0  0  0
M  END
>  <MODEL>
5

>  <REMARK>
 VINA RESULT:      -9.7      1.942      5.168
  Name = 
  2 active torsions:
  status: ('A' for Active; 'I' for Inactive)
    1  A    between atoms: C_8  and  C_18
    2  A    between atoms: C_23  and  C_30
                            x       y       z     vdW  Elec       q    Type
                         _______ _______ _______ _____ _____    ______ ____

>  <TORSDO>
F 2

$$$$
=
 OpenBabel11112417233D

 37 42  0  0  1  0  0  0  0  0999 V2000
  195.0390  175.9000  144.1020 C   0  0  1  0  0  0  0  0  0  0  0  0
  191.0210  176.5810  145.2920 C   0  0  0  0  0  0  0  0  0  0  0  0
  189.0110  174.0880  144.9030 C   0  0  0  0  0  2  0  0  0  0  0  0
  193.4020  176.4360  146.0350 C   0  0  0  0  0  0  0  0  0  0  0  0
  190.3900  176.1050  144.2230 C   0  0  2  0  0  3  0  0  0  0  0  0
  192.4420  176.6670  144.9410 C   0  0  0  0  0  0  0  0  0  0  0  0
  189.0140  175.4870  144.2710 C   0  0  2  0  0  3  0  0  0  0  0  0
  192.9900  176.4010  147.3110 C   0  0  0  0  0  3  0  0  0  0  0  0
  192.6240  175.6410  143.9500 N   0  0  0  0  0  0  0  0  0  0  0  0
  195.4350  174.4350  144.0860 C   0  0  0  0  0  1  0  0  0  0  0  0
  189.1410  176.5610  147.0880 C   0  0  0  0  0  2  0  0  0  0  0  0
  191.5380  176.4950  147.6510 C   0  0  0  0  0  3  0  0  0  0  0  0
  193.7850  176.0770  143.1920 C   0  0  0  0  0  2  0  0  0  0  0  0
  190.1700  172.8350  142.9840 C   0  0  1  0  0  3  0  0  0  0  0  0
  190.2020  173.2280  144.4650 C   0  0  0  0  0  2  0  0  0  0  0  0
  190.5880  176.5860  146.7020 C   0  0  0  0  0  0  0  0  0  0  0  0
  191.3940  175.7000  143.2720 N   0  0  1  0  0  0  0  0  0  0  0  0
  194.8450  176.3330  145.6000 C   0  0  0  0  0  2  0  0  0  0  0  0
  187.9030  176.3740  144.8640 C   0  0  1  0  0  3  0  0  0  0  0  0
  196.0880  176.6410  143.5610 O   0  0  0  0  0  1  0  0  0  0  0  0
  190.0170  174.0110  142.0080 C   0  0  0  0  0  2  0  0  0  0  0  0
  191.1770  175.0160  141.9920 C   0  0  0  0  0  2  0  0  0  0  0  0
  188.2870  177.2760  146.0480 C   0  0  0  0  0  2  0  0  0  0  0  0
  193.7130  170.3300  142.3210 O   0  0  0  0  0  0  0  0  0  0  0  0
  193.5110  170.9130  143.4190 C   0  0  0  0  0  0  0  0  0  0  0  0
  191.3320  171.9640  142.6290 C   0  0  0  0  0  0  0  0  0  0  0  0
  192.3480  171.7300  143.6100 N   0  0  0  0  0  2  0  0  0  0  0  0
  191.3990  171.4300  141.4890 O   0  0  0  0  0  0  0  0  0  0  0  0
  194.2840  171.3980  145.7660 C   0  0  0  0  0  1  0  0  0  0  0  0
  194.4560  170.7530  144.4750 N   0  0  0  0  0  2  0  0  0  0  0  0
  186.5150  178.3190  144.1360 C   0  0  0  0  0  3  0  0  0  0  0  0
  187.2270  177.1680  143.7920 C   0  0  0  0  0  0  0  0  0  0  0  0
  187.2870  176.7670  142.4500 C   0  0  0  0  0  3  0  0  0  0  0  0
  186.6880  177.1160  140.0530 C   0  0  0  0  0  1  0  0  0  0  0  0
  185.9490  178.6480  141.8380 N   0  0  0  0  0  0  0  0  0  0  0  0
  186.6350  177.5290  141.4800 C   0  0  0  0  0  0  0  0  0  0  0  0
  185.8770  179.0540  143.1340 C   0  0  0  0  0  3  0  0  0  0  0  0
  1 10  1  6  0  0  0
  1 18  1  0  0  0  0
  2 16  1  0  0  0  0
  4  8  2  0  0  0  0
  5  7  1  0  0  0  0
  5  2  1  1  0  0  0
  6  2  2  0  0  0  0
  6  4  1  0  0  0  0
  7 19  1  0  0  0  0
  7  3  1  1  0  0  0
  8 12  1  0  0  0  0
  9  6  1  0  0  0  0
 13  9  1  0  0  0  0
 13  1  1  0  0  0  0
 14 26  1  6  0  0  0
 14 15  1  0  0  0  0
 15  3  1  0  0  0  0
 16 11  1  0  0  0  0
 16 12  2  0  0  0  0
 17 22  1  1  0  0  0
 17  9  1  0  0  0  0
 17  5  1  0  0  0  0
 18  4  1  0  0  0  0
 19 32  1  6  0  0  0
 19 23  1  0  0  0  0
 20  1  1  0  0  0  0
 21 14  1  0  0  0  0
 22 21  1  0  0  0  0
 23 11  1  0  0  0  0
 24 25  2  0  0  0  0
 25 27  1  0  0  0  0
 25 30  1  0  0  0  0
 26 27  1  0  0  0  0
 28 26  2  0  0  0  0
 30 29  1  0  0  0  0
 32 31  1  0  0  0  0
 33 32  2  0  0  0  0
 34 36  1  0  0  0  0
 35 37  1  0  0  0  0
 36 35  2  0  0  0  0
 36 33  1  0  0  0  0
 37 31  2  0  0  0  0
M  END
>  <MODEL>
6

>  <REMARK>
 VINA RESULT:      -9.4      1.823      2.586
  Name = 
  2 active torsions:
  status: ('A' for Active; 'I' for Inactive)
    1  A    between atoms: C_8  and  C_18
    2  A    between atoms: C_23  and  C_30
                            x       y       z     vdW  Elec       q    Type
                         _______ _______ _______ _____ _____    ______ ____

>  <TORSDO>
F 2

$$$$
=
 OpenBabel11112417233D

 37 42  0  0  1  0  0  0  0  0999 V2000
  189.3030  175.5760  146.3310 C   0  0  1  0  0  0  0  0  0  0  0  0
  193.2990  174.2110  145.8870 C   0  0  0  0  0  0  0  0  0  0  0  0
  194.2550  173.6620  142.8570 C   0  0  0  0  0  2  0  0  0  0  0  0
  191.8230  176.0820  146.6380 C   0  0  0  0  0  0  0  0  0  0  0  0
  193.0930  173.1900  145.0610 C   0  0  2  0  0  3  0  0  0  0  0  0
  191.9800  174.6430  146.3610 C   0  0  0  0  0  0  0  0  0  0  0  0
  194.1110  172.7130  144.0540 C   0  0  2  0  0  3  0  0  0  0  0  0
  192.8930  176.8890  146.6910 C   0  0  0  0  0  3  0  0  0  0  0  0
  191.0860  174.2830  145.2930 N   0  0  0  0  0  0  0  0  0  0  0  0
  188.7390  176.2400  145.0890 C   0  0  0  0  0  1  0  0  0  0  0  0
  195.8400  174.6630  145.5750 C   0  0  0  0  0  2  0  0  0  0  0  0
  194.2590  176.3740  146.3740 C   0  0  0  0  0  3  0  0  0  0  0  0
  189.7920  174.1470  145.9410 C   0  0  0  0  0  2  0  0  0  0  0  0
  192.0050  173.1490  141.7300 C   0  0  1  0  0  3  0  0  0  0  0  0
  192.9130  174.2110  142.3590 C   0  0  0  0  0  2  0  0  0  0  0  0
  194.4710  175.1010  145.9940 C   0  0  0  0  0  0  0  0  0  0  0  0
  191.6720  173.0890  144.8400 N   0  0  1  0  0  0  0  0  0  0  0  0
  190.4070  176.5210  146.9270 C   0  0  0  0  0  2  0  0  0  0  0  0
  195.4860  172.3200  144.6280 C   0  0  1  0  0  3  0  0  0  0  0  0
  188.2750  175.4530  147.2640 O   0  0  0  0  0  1  0  0  0  0  0  0
  191.7460  171.9190  142.6120 C   0  0  0  0  0  2  0  0  0  0  0  0
  190.9820  172.1840  143.9160 C   0  0  0  0  0  2  0  0  0  0  0  0
  196.0240  173.1660  145.7930 C   0  0  0  0  0  2  0  0  0  0  0  0
  188.2950  174.6670  139.9410 O   0  0  0  0  0  0  0  0  0  0  0  0
  188.9930  173.7860  139.3720 C   0  0  0  0  0  0  0  0  0  0  0  0
  190.7330  173.7520  141.2280 C   0  0  0  0  0  0  0  0  0  0  0  0
  190.2030  173.3090  139.9740 N   0  0  0  0  0  2  0  0  0  0  0  0
  190.1290  174.6220  141.9140 O   0  0  0  0  0  0  0  0  0  0  0  0
  189.3200  172.2490  137.4050 C   0  0  0  0  0  1  0  0  0  0  0  0
  188.5640  173.2660  138.1150 N   0  0  0  0  0  2  0  0  0  0  0  0
  194.8680  169.9480  144.1420 C   0  0  0  0  0  3  0  0  0  0  0  0
  195.5220  170.8640  144.9700 C   0  0  0  0  0  0  0  0  0  0  0  0
  196.1920  170.4070  146.1120 C   0  0  0  0  0  3  0  0  0  0  0  0
  196.9000  168.5420  147.6120 C   0  0  0  0  0  1  0  0  0  0  0  0
  195.5520  168.1680  145.5810 N   0  0  0  0  0  0  0  0  0  0  0  0
  196.1950  169.0420  146.4030 C   0  0  0  0  0  0  0  0  0  0  0  0
  194.8950  168.5900  144.4680 C   0  0  0  0  0  3  0  0  0  0  0  0
  1 10  1  6  0  0  0
  1 18  1  0  0  0  0
  1 20  1  0  0  0  0
  2 16  2  0  0  0  0
  2  6  1  0  0  0  0
  4  8  1  0  0  0  0
  4 18  1  0  0  0  0
  5  2  1  6  0  0  0
  6  4  2  0  0  0  0
  7  3  1  6  0  0  0
  7 19  1  0  0  0  0
  7  5  1  0  0  0  0
  9 13  1  0  0  0  0
  9  6  1  0  0  0  0
 11 23  1  0  0  0  0
 11 16  1  0  0  0  0
 12  8  2  0  0  0  0
 13  1  1  0  0  0  0
 14 26  1  1  0  0  0
 14 15  1  0  0  0  0
 14 21  1  0  0  0  0
 15  3  1  0  0  0  0
 16 12  1  0  0  0  0
 17 22  1  6  0  0  0
 17  5  1  0  0  0  0
 17  9  1  0  0  0  0
 19 32  1  1  0  0  0
 19 23  1  0  0  0  0
 21 22  1  0  0  0  0
 25 24  2  0  0  0  0
 25 27  1  0  0  0  0
 26 28  2  0  0  0  0
 27 26  1  0  0  0  0
 29 30  1  0  0  0  0
 30 25  1  0  0  0  0
 31 37  2  0  0  0  0
 31 32  1  0  0  0  0
 32 33  2  0  0  0  0
 33 36  1  0  0  0  0
 35 36  2  0  0  0  0
 36 34  1  0  0  0  0
 37 35  1  0  0  0  0
M  END
>  <MODEL>
7

>  <REMARK>
 VINA RESULT:      -8.8      3.591      7.068
  Name = 
  2 active torsions:
  status: ('A' for Active; 'I' for Inactive)
    1  A    between atoms: C_8  and  C_18
    2  A    between atoms: C_23  and  C_30
                            x       y       z     vdW  Elec       q    Type
                         _______ _______ _______ _____ _____    ______ ____

>  <TORSDO>
F 2

$$$$
=
 OpenBabel11112417233D

 37 42  0  0  1  0  0  0  0  0999 V2000
  189.2050  175.4980  146.6990 C   0  0  1  0  0  0  0  0  0  0  0  0
  193.2290  174.3270  146.0150 C   0  0  0  0  0  0  0  0  0  0  0  0
  194.0460  173.8850  142.9270 C   0  0  0  0  0  2  0  0  0  0  0  0
  191.7130  176.1130  146.8850 C   0  0  0  0  0  0  0  0  0  0  0  0
  193.0250  173.3150  145.1780 C   0  0  2  0  0  3  0  0  0  0  0  0
  191.9190  174.6890  146.5680 C   0  0  0  0  0  0  0  0  0  0  0  0
  194.0080  172.9060  144.1080 C   0  0  2  0  0  3  0  0  0  0  0  0
  192.7470  176.9670  146.9010 C   0  0  0  0  0  3  0  0  0  0  0  0
  190.9860  174.3110  145.5400 N   0  0  0  0  0  0  0  0  0  0  0  0
  188.5470  176.1610  145.5040 C   0  0  0  0  0  1  0  0  0  0  0  0
  195.7270  174.9020  145.5810 C   0  0  0  0  0  2  0  0  0  0  0  0
  194.1160  176.5210  146.5010 C   0  0  0  0  0  3  0  0  0  0  0  0
  189.7370  174.1010  146.2520 C   0  0  0  0  0  2  0  0  0  0  0  0
  191.7640  173.2930  141.9090 C   0  0  1  0  0  3  0  0  0  0  0  0
  192.6560  174.3830  142.5140 C   0  0  0  0  0  2  0  0  0  0  0  0
  194.3640  175.2680  146.0810 C   0  0  0  0  0  0  0  0  0  0  0  0
  191.6000  173.1540  145.0300 N   0  0  1  0  0  0  0  0  0  0  0  0
  190.2960  176.4800  147.2580 C   0  0  0  0  0  2  0  0  0  0  0  0
  195.4280  172.5650  144.6000 C   0  0  1  0  0  3  0  0  0  0  0  0
  188.2350  175.3090  147.6810 O   0  0  0  0  0  1  0  0  0  0  0  0
  191.6070  172.0340  142.7740 C   0  0  0  0  0  2  0  0  0  0  0  0
  190.9030  172.2370  144.1220 C   0  0  0  0  0  2  0  0  0  0  0  0
  195.9890  173.4100  145.7550 C   0  0  0  0  0  2  0  0  0  0  0  0
  187.9880  175.2670  140.8510 O   0  0  0  0  0  0  0  0  0  0  0  0
  188.8710  175.8490  141.5360 C   0  0  0  0  0  0  0  0  0  0  0  0
  190.4410  173.8470  141.4880 C   0  0  0  0  0  0  0  0  0  0  0  0
  190.0940  175.1820  141.8730 N   0  0  0  0  0  2  0  0  0  0  0  0
  189.6560  173.1520  140.7870 O   0  0  0  0  0  0  0  0  0  0  0  0
  189.6130  177.9150  142.7700 C   0  0  0  0  0  1  0  0  0  0  0  0
  188.6380  177.1860  141.9770 N   0  0  0  0  0  2  0  0  0  0  0  0
  194.9980  170.1720  144.0240 C   0  0  0  0  0  3  0  0  0  0  0  0
  195.5470  171.1050  144.9060 C   0  0  0  0  0  0  0  0  0  0  0  0
  196.1910  170.6610  146.0690 C   0  0  0  0  0  3  0  0  0  0  0  0
  196.9520  168.8060  147.5540 C   0  0  0  0  0  1  0  0  0  0  0  0
  195.7330  168.4010  145.4490 N   0  0  0  0  0  0  0  0  0  0  0  0
  196.2740  169.2920  146.3240 C   0  0  0  0  0  0  0  0  0  0  0  0
  195.1020  168.8100  144.3160 C   0  0  0  0  0  3  0  0  0  0  0  0
  1 10  1  6  0  0  0
  1 18  1  0  0  0  0
  1 20  1  0  0  0  0
  2 16  2  0  0  0  0
  2  6  1  0  0  0  0
  4  8  1  0  0  0  0
  4 18  1  0  0  0  0
  5  2  1  6  0  0  0
  6  4  2  0  0  0  0
  7  3  1  6  0  0  0
  7 19  1  0  0  0  0
  7  5  1  0  0  0  0
  9 13  1  0  0  0  0
  9  6  1  0  0  0  0
 11 23  1  0  0  0  0
 11 16  1  0  0  0  0
 12  8  2  0  0  0  0
 13  1  1  0  0  0  0
 14 26  1  1  0  0  0
 14 15  1  0  0  0  0
 14 21  1  0  0  0  0
 15  3  1  0  0  0  0
 16 12  1  0  0  0  0
 17 22  1  6  0  0  0
 17  5  1  0  0  0  0
 17  9  1  0  0  0  0
 19 32  1  1  0  0  0
 19 23  1  0  0  0  0
 21 22  1  0  0  0  0
 24 25  2  0  0  0  0
 25 27  1  0  0  0  0
 25 30  1  0  0  0  0
 26 27  1  0  0  0  0
 28 26  2  0  0  0  0
 30 29  1  0  0  0  0
 31 37  2  0  0  0  0
 31 32  1  0  0  0  0
 32 33  2  0  0  0  0
 33 36  1  0  0  0  0
 35 36  2  0  0  0  0
 36 34  1  0  0  0  0
 37 35  1  0  0  0  0
M  END
>  <MODEL>
8

>  <REMARK>
 VINA RESULT:      -8.7      3.536      7.280
  Name = 
  2 active torsions:
  status: ('A' for Active; 'I' for Inactive)
    1  A    between atoms: C_8  and  C_18
    2  A    between atoms: C_23  and  C_30
                            x       y       z     vdW  Elec       q    Type
                         _______ _______ _______ _____ _____    ______ ____

>  <TORSDO>
F 2

$$$$
=
 OpenBabel11112417233D

 37 42  0  0  1  0  0  0  0  0999 V2000
  186.7580  177.1850  141.2890 C   0  0  1  0  0  0  0  0  0  0  0  0
  190.1590  175.1530  142.8160 C   0  0  0  0  0  0  0  0  0  0  0  0
  190.1130  174.5450  145.9830 C   0  0  0  0  0  2  0  0  0  0  0  0
  188.1960  175.0320  141.2760 C   0  0  0  0  0  0  0  0  0  0  0  0
  190.4170  175.9180  143.8730 C   0  0  2  0  0  3  0  0  0  0  0  0
  189.1610  175.8670  142.0120 C   0  0  0  0  0  0  0  0  0  0  0  0
  191.0620  175.4040  145.1370 C   0  0  2  0  0  3  0  0  0  0  0  0
  188.3850  173.7090  141.1560 C   0  0  0  0  0  3  0  0  0  0  0  0
  188.4410  176.6630  142.9690 N   0  0  0  0  0  0  0  0  0  0  0  0
  185.5150  177.0300  142.1440 C   0  0  0  0  0  1  0  0  0  0  0  0
  191.4330  172.9640  143.4020 C   0  0  0  0  0  2  0  0  0  0  0  0
  189.5230  173.0330  141.8480 C   0  0  0  0  0  3  0  0  0  0  0  0
  187.8990  177.7600  142.1840 C   0  0  0  0  0  2  0  0  0  0  0  0
  188.5770  176.4290  146.8100 C   0  0  1  0  0  3  0  0  0  0  0  0
  188.6880  175.1050  146.0450 C   0  0  0  0  0  2  0  0  0  0  0  0
  190.3790  173.7050  142.6390 C   0  0  0  0  0  0  0  0  0  0  0  0
  189.4680  177.0020  143.8660 N   0  0  1  0  0  0  0  0  0  0  0  0
  187.0660  175.7950  140.6250 C   0  0  0  0  0  2  0  0  0  0  0  0
  192.4310  174.7210  144.9600 C   0  0  1  0  0  3  0  0  0  0  0  0
  186.4810  178.1050  140.2800 O   0  0  0  0  0  1  0  0  0  0  0  0
  189.5270  177.5340  146.3270 C   0  0  0  0  0  2  0  0  0  0  0  0
  189.2940  178.0330  144.8950 C   0  0  0  0  0  2  0  0  0  0  0  0
  192.6260  173.8640  143.6990 C   0  0  0  0  0  2  0  0  0  0  0  0
  184.4980  178.0460  146.6670 O   0  0  0  0  0  0  0  0  0  0  0  0
  185.3890  178.4250  145.8630 C   0  0  0  0  0  0  0  0  0  0  0  0
  187.1600  176.9010  146.8720 C   0  0  0  0  0  0  0  0  0  0  0  0
  186.7160  177.8860  145.9310 N   0  0  0  0  0  2  0  0  0  0  0  0
  186.3670  176.4210  147.7270 O   0  0  0  0  0  0  0  0  0  0  0  0
  186.0430  179.8860  143.9190 C   0  0  0  0  0  1  0  0  0  0  0  0
  185.0630  179.4040  144.8770 N   0  0  0  0  0  2  0  0  0  0  0  0
  193.5330  176.6020  146.1800 C   0  0  0  0  0  3  0  0  0  0  0  0
  193.5420  175.7130  145.1030 C   0  0  0  0  0  0  0  0  0  0  0  0
  194.5840  175.7710  144.1670 C   0  0  0  0  0  3  0  0  0  0  0  0
  196.7070  176.7910  143.3450 C   0  0  0  0  0  1  0  0  0  0  0  0
  195.5680  177.5720  145.3880 N   0  0  0  0  0  0  0  0  0  0  0  0
  195.5970  176.7170  144.3300 C   0  0  0  0  0  0  0  0  0  0  0  0
  194.5660  177.5340  146.3070 C   0  0  0  0  0  3  0  0  0  0  0  0
  1 10  1  1  0  0  0
  1 13  1  0  0  0  0
  3 15  1  0  0  0  0
  4  6  1  0  0  0  0
  5  2  1  1  0  0  0
  5  7  1  0  0  0  0
  6  2  2  0  0  0  0
  6  9  1  0  0  0  0
  7  3  1  6  0  0  0
  8  4  2  0  0  0  0
  8 12  1  0  0  0  0
  9 17  1  0  0  0  0
 11 23  1  0  0  0  0
 12 16  2  0  0  0  0
 13  9  1  0  0  0  0
 14 26  1  6  0  0  0
 15 14  1  0  0  0  0
 16  2  1  0  0  0  0
 16 11  1  0  0  0  0
 17  5  1  0  0  0  0
 17 22  1  1  0  0  0
 18  4  1  0  0  0  0
 18  1  1  0  0  0  0
 19 32  1  6  0  0  0
 19  7  1  0  0  0  0
 20  1  1  0  0  0  0
 21 14  1  0  0  0  0
 22 21  1  0  0  0  0
 23 19  1  0  0  0  0
 25 27  1  0  0  0  0
 25 24  2  0  0  0  0
 26 28  2  0  0  0  0
 27 26  1  0  0  0  0
 29 30  1  0  0  0  0
 30 25  1  0  0  0  0
 31 37  1  0  0  0  0
 32 31  2  0  0  0  0
 33 36  2  0  0  0  0
 33 32  1  0  0  0  0
 34 36  1  0  0  0  0
 35 37  2  0  0  0  0
 36 35  1  0  0  0  0
M  END
>  <MODEL>
9

>  <REMARK>
 VINA RESULT:      -8.3      3.347      7.273
  Name = 
  2 active torsions:
  status: ('A' for Active; 'I' for Inactive)
    1  A    between atoms: C_8  and  C_18
    2  A    between atoms: C_23  and  C_30
                            x       y       z     vdW  Elec       q    Type
                         _______ _______ _______ _____ _____    ______ ____

>  <TORSDO>
F 2

$$$$
