=
 OpenBabel11112418043D

 34 40  0  0  1  0  0  0  0  0999 V2000
  189.6060  174.0770  142.6080 C   0  0  0  0  0  0  0  0  0  0  0  0
  191.8640  173.6820  143.5950 C   0  0  0  0  0  2  0  0  0  0  0  0
  184.6360  178.3930  142.1380 C   0  0  0  0  0  0  0  0  0  0  0  0
  187.8900  175.4240  141.5830 C   0  0  0  0  0  0  0  0  0  0  0  0
  186.4470  176.8710  143.1040 C   0  0  2  0  0  3  0  0  0  0  0  0
  185.2440  178.4510  144.4530 O   0  0  0  0  0  1  0  0  0  0  0  0
  183.4400  178.5200  142.5120 O   0  0  0  0  0  0  0  0  0  0  0  0
  185.9060  177.7170  140.0940 C   0  0  0  0  0  2  0  0  0  0  0  0
  190.0830  174.2630  145.1480 C   0  0  2  0  0  3  0  0  0  0  0  0
  191.1010  176.0820  147.5940 C   0  0  0  0  0  2  0  0  0  0  0  0
  187.6670  176.9520  143.9080 N   0  0  0  0  0  2  0  0  0  0  0  0
  187.0660  177.5500  140.8570 O   0  0  0  0  0  0  0  0  0  0  0  0
  189.4040  175.6460  145.0310 C   0  0  1  0  0  3  0  0  0  0  0  0
  192.4440  173.5940  144.9840 C   0  0  0  0  0  2  0  0  0  0  0  0
  186.7820  176.4400  141.6600 C   0  0  1  0  0  3  0  0  0  0  0  0
  184.9340  178.5140  140.7740 O   0  0  0  0  0  0  0  0  0  0  0  0
  191.9410  175.6070  146.4170 C   0  0  2  0  0  3  0  0  0  0  0  0
  188.6060  175.0500  142.7310 C   0  0  0  0  0  0  0  0  0  0  0  0
  185.7300  178.2250  143.1620 C   0  0  2  0  0  3  0  0  0  0  0  0
  188.2130  175.6050  144.0720 C   0  0  2  0  0  3  0  0  0  0  0  0
  189.1730  173.9230  140.2830 C   0  0  0  0  0  3  0  0  0  0  0  0
  189.9360  176.9290  147.1150 C   0  0  0  0  0  2  0  0  0  0  0  0
  188.1950  174.8580  140.3860 N   0  0  0  0  0  0  0  0  0  0  0  0
  188.8990  176.0810  146.4010 C   0  0  0  0  0  2  0  0  0  0  0  0
  191.4280  174.2440  145.9160 C   0  0  1  0  0  3  0  0  0  0  0  0
  189.8630  173.5360  141.3860 N   0  0  0  0  0  0  0  0  0  0  0  0
  190.3720  173.5800  143.8030 C   0  0  1  0  0  3  0  0  0  0  0  0
  193.2700  175.5010  146.8390 O   0  0  0  0  0  0  0  0  0  0  0  0
  193.8810  176.6760  146.3910 C   0  0  0  0  0  2  0  0  0  0  0  0
  195.9410  174.3040  144.5750 C   0  0  0  0  0  2  0  0  0  0  0  0
  194.6820  176.2930  144.1200 N   0  0  0  0  0  2  0  0  0  0  0  0
  195.0750  176.3350  145.5200 C   0  0  2  0  0  3  0  0  0  0  0  0
  195.5510  175.3030  143.5060 C   0  0  0  0  0  2  0  0  0  0  0  0
  195.6050  174.9690  145.8880 C   0  0  0  0  0  2  0  0  0  0  0  0
  1 18  1  0  0  0  0
  1 27  1  0  0  0  0
  2 27  1  0  0  0  0
  2 14  1  0  0  0  0
  3  7  2  0  0  0  0
  3 19  1  0  0  0  0
  4 15  1  0  0  0  0
  4 18  2  0  0  0  0
  5 19  1  0  0  0  0
  5 11  1  1  0  0  0
  8 16  1  0  0  0  0
  8 12  1  0  0  0  0
  9 25  1  0  0  0  0
 11 20  1  0  0  0  0
 12 15  1  0  0  0  0
 13  9  1  0  0  0  0
 13 24  1  0  0  0  0
 14 25  1  0  0  0  0
 15  5  1  0  0  0  0
 16  3  1  0  0  0  0
 17 28  1  0  0  0  0
 17 10  1  0  0  0  0
 18 20  1  0  0  0  0
 19  6  1  0  0  0  0
 20 13  1  0  0  0  0
 21 23  2  0  0  0  0
 21 26  1  0  0  0  0
 22 10  1  0  0  0  0
 23  4  1  0  0  0  0
 24 22  1  0  0  0  0
 25 17  1  0  0  0  0
 26  1  2  0  0  0  0
 27  9  1  0  0  0  0
 29 28  1  0  0  0  0
 30 34  1  0  0  0  0
 31 32  1  0  0  0  0
 32 34  1  0  0  0  0
 32 29  1  0  0  0  0
 33 31  1  0  0  0  0
 33 30  1  0  0  0  0
M  END
>  <MODEL>
1

>  <REMARK>
 VINA RESULT:      -8.6      0.000      0.000
  Name = 
  3 active torsions:
  status: ('A' for Active; 'I' for Inactive)
    1  A    between atoms: C_17  and  O_28
    2  A    between atoms: O_28  and  C_29
    3  A    between atoms: C_29  and  C_32
                            x       y       z     vdW  Elec       q    Type
                         _______ _______ _______ _____ _____    ______ ____

>  <TORSDO>
F 3

$$$$
=
 OpenBabel11112418043D

 34 40  0  0  1  0  0  0  0  0999 V2000
  189.3170  175.2330  142.6600 C   0  0  0  0  0  0  0  0  0  0  0  0
  191.7640  174.9330  142.2790 C   0  0  0  0  0  2  0  0  0  0  0  0
  184.7950  178.5510  146.1400 C   0  0  0  0  0  0  0  0  0  0  0  0
  187.3320  176.5250  143.1110 C   0  0  0  0  0  0  0  0  0  0  0  0
  186.8330  177.1320  145.5350 C   0  0  2  0  0  3  0  0  0  0  0  0
  186.4600  177.9610  147.7560 O   0  0  0  0  0  1  0  0  0  0  0  0
  183.9380  178.3440  147.0380 O   0  0  0  0  0  0  0  0  0  0  0  0
  184.8950  178.8000  143.6540 C   0  0  0  0  0  2  0  0  0  0  0  0
  190.9780  174.6670  144.5670 C   0  0  2  0  0  3  0  0  0  0  0  0
  193.0810  175.7430  146.7450 C   0  0  0  0  0  2  0  0  0  0  0  0
  188.2900  177.1560  145.6550 N   0  0  0  0  0  2  0  0  0  0  0  0
  186.2790  178.5970  143.6790 O   0  0  0  0  0  0  0  0  0  0  0  0
  190.3420  175.8760  145.2890 C   0  0  1  0  0  3  0  0  0  0  0  0
  192.9500  174.5010  143.1060 C   0  0  0  0  0  2  0  0  0  0  0  0
  186.4130  177.2550  144.0540 C   0  0  1  0  0  3  0  0  0  0  0  0
  184.3890  179.1560  144.9430 O   0  0  0  0  0  0  0  0  0  0  0  0
  193.2320  175.8250  145.2330 C   0  0  2  0  0  3  0  0  0  0  0  0
  188.5150  175.9280  143.5750 C   0  0  0  0  0  0  0  0  0  0  0  0
  186.2490  178.2510  146.4050 C   0  0  2  0  0  3  0  0  0  0  0  0
  188.8330  175.9440  145.0440 C   0  0  2  0  0  3  0  0  0  0  0  0
  187.7990  175.7680  140.9210 C   0  0  0  0  0  3  0  0  0  0  0  0
  191.8390  176.4870  147.2020 C   0  0  0  0  0  2  0  0  0  0  0  0
  187.0050  176.4370  141.7950 N   0  0  0  0  0  0  0  0  0  0  0  0
  190.5770  175.7510  146.7900 C   0  0  0  0  0  2  0  0  0  0  0  0
  192.5260  174.6310  144.5640 C   0  0  1  0  0  3  0  0  0  0  0  0
  188.9370  175.1700  141.3550 N   0  0  0  0  0  0  0  0  0  0  0  0
  190.5650  174.5160  143.0950 C   0  0  1  0  0  3  0  0  0  0  0  0
  194.5960  175.8180  144.9260 O   0  0  0  0  0  0  0  0  0  0  0  0
  195.2040  175.1900  146.0160 C   0  0  0  0  0  2  0  0  0  0  0  0
  196.0310  172.0980  144.3090 C   0  0  0  0  0  2  0  0  0  0  0  0
  196.5660  174.4290  144.1420 N   0  0  0  0  0  2  0  0  0  0  0  0
  196.2050  174.1600  145.5260 C   0  0  2  0  0  3  0  0  0  0  0  0
  196.8500  173.1270  143.5610 C   0  0  0  0  0  2  0  0  0  0  0  0
  195.5890  172.7820  145.5790 C   0  0  0  0  0  2  0  0  0  0  0  0
  1 27  1  0  0  0  0
  1 18  1  0  0  0  0
  2 27  1  0  0  0  0
  2 14  1  0  0  0  0
  3 19  1  0  0  0  0
  3  7  2  0  0  0  0
  4 18  2  0  0  0  0
  4 15  1  0  0  0  0
  5 11  1  6  0  0  0
  5 19  1  0  0  0  0
  8 12  1  0  0  0  0
  8 16  1  0  0  0  0
  9 13  1  0  0  0  0
 10 22  1  0  0  0  0
 12 15  1  0  0  0  0
 13 24  1  0  0  0  0
 14 25  1  0  0  0  0
 15  5  1  0  0  0  0
 16  3  1  0  0  0  0
 17 10  1  0  0  0  0
 18 20  1  0  0  0  0
 19  6  1  0  0  0  0
 20 13  1  0  0  0  0
 20 11  1  0  0  0  0
 21 26  1  0  0  0  0
 21 23  2  0  0  0  0
 23  4  1  0  0  0  0
 24 22  1  0  0  0  0
 25  9  1  0  0  0  0
 25 17  1  0  0  0  0
 26  1  2  0  0  0  0
 27  9  1  0  0  0  0
 28 17  1  0  0  0  0
 28 29  1  0  0  0  0
 30 34  1  0  0  0  0
 31 32  1  0  0  0  0
 32 34  1  0  0  0  0
 32 29  1  0  0  0  0
 33 31  1  0  0  0  0
 33 30  1  0  0  0  0
M  END
>  <MODEL>
2

>  <REMARK>
 VINA RESULT:      -8.6      1.781      2.490
  Name = 
  3 active torsions:
  status: ('A' for Active; 'I' for Inactive)
    1  A    between atoms: C_17  and  O_28
    2  A    between atoms: O_28  and  C_29
    3  A    between atoms: C_29  and  C_32
                            x       y       z     vdW  Elec       q    Type
                         _______ _______ _______ _____ _____    ______ ____

>  <TORSDO>
F 3

$$$$
=
 OpenBabel11112418043D

 34 40  0  0  1  0  0  0  0  0999 V2000
  190.1310  174.4120  142.5540 C   0  0  0  0  0  0  0  0  0  0  0  0
  192.5790  174.1530  142.1490 C   0  0  0  0  0  2  0  0  0  0  0  0
  185.5600  177.9940  145.6910 C   0  0  0  0  0  0  0  0  0  0  0  0
  188.1070  175.6780  142.8860 C   0  0  0  0  0  0  0  0  0  0  0  0
  187.6380  176.5820  145.2210 C   0  0  2  0  0  3  0  0  0  0  0  0
  187.2830  177.6830  147.3240 O   0  0  0  0  0  1  0  0  0  0  0  0
  184.7320  177.8760  146.6310 O   0  0  0  0  0  0  0  0  0  0  0  0
  185.5950  177.9160  143.1920 C   0  0  0  0  0  2  0  0  0  0  0  0
  191.8550  174.1630  144.4720 C   0  0  2  0  0  3  0  0  0  0  0  0
  193.9620  175.5930  146.4320 C   0  0  0  0  0  2  0  0  0  0  0  0
  189.0960  176.6750  145.2980 N   0  0  0  0  0  2  0  0  0  0  0  0
  186.9850  177.7680  143.2060 O   0  0  0  0  0  0  0  0  0  0  0  0
  191.1880  175.4320  145.0470 C   0  0  1  0  0  3  0  0  0  0  0  0
  193.7990  173.8770  142.9920 C   0  0  0  0  0  2  0  0  0  0  0  0
  187.1810  176.4930  143.7490 C   0  0  1  0  0  3  0  0  0  0  0  0
  185.1040  178.4200  144.4360 O   0  0  0  0  0  0  0  0  0  0  0  0
  194.0760  175.4800  144.9190 C   0  0  2  0  0  3  0  0  0  0  0  0
  189.3220  175.1910  143.3910 C   0  0  0  0  0  0  0  0  0  0  0  0
  187.0300  177.7850  145.9530 C   0  0  2  0  0  3  0  0  0  0  0  0
  189.6730  175.4130  144.8370 C   0  0  2  0  0  3  0  0  0  0  0  0
  188.5550  174.6570  140.8020 C   0  0  0  0  0  3  0  0  0  0  0  0
  192.7030  176.3450  146.8220 C   0  0  0  0  0  2  0  0  0  0  0  0
  187.7550  175.4060  141.6020 N   0  0  0  0  0  0  0  0  0  0  0  0
  191.4610  175.5160  146.5440 C   0  0  0  0  0  2  0  0  0  0  0  0
  193.4040  174.1830  144.4310 C   0  0  1  0  0  3  0  0  0  0  0  0
  189.7250  174.1620  141.2790 N   0  0  0  0  0  0  0  0  0  0  0  0
  191.4160  173.8040  143.0450 C   0  0  1  0  0  3  0  0  0  0  0  0
  195.4320  175.4820  144.5780 O   0  0  0  0  0  0  0  0  0  0  0  0
  195.6810  176.7750  144.1120 C   0  0  0  0  0  2  0  0  0  0  0  0
  197.5750  174.9630  141.6030 C   0  0  0  0  0  2  0  0  0  0  0  0
  195.9350  176.7100  141.6870 N   0  0  0  0  0  2  0  0  0  0  0  0
  196.6570  176.7250  142.9510 C   0  0  2  0  0  3  0  0  0  0  0  0
  196.7710  175.9450  140.7770 C   0  0  0  0  0  2  0  0  0  0  0  0
  197.4780  175.4590  143.0250 C   0  0  0  0  0  2  0  0  0  0  0  0
  1 27  1  0  0  0  0
  1 18  1  0  0  0  0
  2 14  1  0  0  0  0
  2 27  1  0  0  0  0
  3 19  1  0  0  0  0
  3  7  2  0  0  0  0
  4 18  2  0  0  0  0
  4 15  1  0  0  0  0
  5 11  1  6  0  0  0
  5 19  1  0  0  0  0
  8 12  1  0  0  0  0
  8 16  1  0  0  0  0
  9 13  1  0  0  0  0
 10 22  1  0  0  0  0
 12 15  1  0  0  0  0
 13 24  1  0  0  0  0
 14 25  1  0  0  0  0
 15  5  1  0  0  0  0
 16  3  1  0  0  0  0
 17 10  1  0  0  0  0
 18 20  1  0  0  0  0
 19  6  1  0  0  0  0
 20 13  1  0  0  0  0
 20 11  1  0  0  0  0
 21 26  1  0  0  0  0
 21 23  2  0  0  0  0
 23  4  1  0  0  0  0
 24 22  1  0  0  0  0
 25  9  1  0  0  0  0
 25 17  1  0  0  0  0
 26  1  2  0  0  0  0
 27  9  1  0  0  0  0
 28 17  1  0  0  0  0
 29 28  1  0  0  0  0
 30 34  1  0  0  0  0
 31 32  1  0  0  0  0
 32 34  1  0  0  0  0
 32 29  1  0  0  0  0
 33 30  1  0  0  0  0
 33 31  1  0  0  0  0
M  END
>  <MODEL>
3

>  <REMARK>
 VINA RESULT:      -8.2      1.814      2.609
  Name = 
  3 active torsions:
  status: ('A' for Active; 'I' for Inactive)
    1  A    between atoms: C_17  and  O_28
    2  A    between atoms: O_28  and  C_29
    3  A    between atoms: C_29  and  C_32
                            x       y       z     vdW  Elec       q    Type
                         _______ _______ _______ _____ _____    ______ ____

>  <TORSDO>
F 3

$$$$
=
 OpenBabel11112418043D

 34 40  0  0  1  0  0  0  0  0999 V2000
  192.0140  175.9450  145.7750 C   0  0  0  0  0  0  0  0  0  0  0  0
  190.3750  177.6760  145.0370 C   0  0  0  0  0  2  0  0  0  0  0  0
  195.1780  170.4380  143.9780 C   0  0  0  0  0  0  0  0  0  0  0  0
  193.8430  174.4080  145.4510 C   0  0  0  0  0  0  0  0  0  0  0  0
  193.3200  172.1330  144.4320 C   0  0  2  0  0  3  0  0  0  0  0  0
  192.9300  170.0920  143.2310 O   0  0  0  0  0  1  0  0  0  0  0  0
  195.2050  169.2130  144.2670 O   0  0  0  0  0  0  0  0  0  0  0  0
  196.4690  172.5190  144.4790 C   0  0  0  0  0  2  0  0  0  0  0  0
  189.6390  175.3590  144.9210 C   0  0  2  0  0  3  0  0  0  0  0  0
  187.7230  174.7810  142.4070 C   0  0  0  0  0  2  0  0  0  0  0  0
  192.2830  172.8770  143.7160 N   0  0  0  0  0  2  0  0  0  0  0  0
  195.4070  173.3020  144.0160 O   0  0  0  0  0  0  0  0  0  0  0  0
  190.3730  174.3830  143.9750 C   0  0  1  0  0  3  0  0  0  0  0  0
  188.9280  177.6940  144.6120 C   0  0  0  0  0  2  0  0  0  0  0  0
  194.4010  173.0960  144.9680 C   0  0  1  0  0  3  0  0  0  0  0  0
  196.3720  171.1700  144.0180 O   0  0  0  0  0  0  0  0  0  0  0  0
  188.4090  176.1000  142.7290 C   0  0  2  0  0  3  0  0  0  0  0  0
  192.4860  174.7240  145.2770 C   0  0  0  0  0  0  0  0  0  0  0  0
  193.8960  171.0670  143.4930 C   0  0  2  0  0  3  0  0  0  0  0  0
  191.5550  173.7090  144.6740 C   0  0  2  0  0  3  0  0  0  0  0  0
  194.1930  176.4770  146.5400 C   0  0  0  0  0  3  0  0  0  0  0  0
  188.7460  173.6780  142.2050 C   0  0  0  0  0  2  0  0  0  0  0  0
  194.6650  175.2950  146.0720 N   0  0  0  0  0  0  0  0  0  0  0  0
  189.4060  173.2960  143.5180 C   0  0  0  0  0  2  0  0  0  0  0  0
  188.5690  176.2580  144.2520 C   0  0  1  0  0  3  0  0  0  0  0  0
  192.8800  176.7910  146.3960 N   0  0  0  0  0  0  0  0  0  0  0  0
  190.5620  176.3240  145.6810 C   0  0  1  0  0  3  0  0  0  0  0  0
  187.6300  177.1400  142.2110 O   0  0  0  0  0  0  0  0  0  0  0  0
  186.3160  176.6670  142.2750 C   0  0  0  0  0  2  0  0  0  0  0  0
  185.2660  178.8000  145.0150 C   0  0  0  0  0  2  0  0  0  0  0  0
  186.0390  179.0410  142.7580 N   0  0  0  0  0  2  0  0  0  0  0  0
  185.4140  177.7310  142.8700 C   0  0  2  0  0  3  0  0  0  0  0  0
  185.5660  179.7900  143.9100 C   0  0  0  0  0  2  0  0  0  0  0  0
  185.1920  177.4530  144.3390 C   0  0  0  0  0  2  0  0  0  0  0  0
  1 26  1  0  0  0  0
  2 27  1  0  0  0  0
  3 16  1  0  0  0  0
  3  7  2  0  0  0  0
  4 23  2  0  0  0  0
  5 11  1  6  0  0  0
  5 15  1  0  0  0  0
  6 19  1  0  0  0  0
  9 27  1  0  0  0  0
 10 17  1  0  0  0  0
 11 20  1  0  0  0  0
 12  8  1  0  0  0  0
 12 15  1  0  0  0  0
 13 20  1  0  0  0  0
 13  9  1  0  0  0  0
 14  2  1  0  0  0  0
 15  4  1  0  0  0  0
 16  8  1  0  0  0  0
 17 25  1  0  0  0  0
 18  4  1  0  0  0  0
 18  1  2  0  0  0  0
 19  3  1  0  0  0  0
 19  5  1  0  0  0  0
 20 18  1  0  0  0  0
 22 10  1  0  0  0  0
 22 24  1  0  0  0  0
 23 21  1  0  0  0  0
 24 13  1  0  0  0  0
 25 14  1  0  0  0  0
 25  9  1  0  0  0  0
 26 21  2  0  0  0  0
 27  1  1  0  0  0  0
 28 29  1  0  0  0  0
 28 17  1  0  0  0  0
 29 32  1  0  0  0  0
 31 32  1  0  0  0  0
 31 33  1  0  0  0  0
 32 34  1  0  0  0  0
 33 30  1  0  0  0  0
 34 30  1  0  0  0  0
M  END
>  <MODEL>
4

>  <REMARK>
 VINA RESULT:      -8.0      2.727      8.540
  Name = 
  3 active torsions:
  status: ('A' for Active; 'I' for Inactive)
    1  A    between atoms: C_17  and  O_28
    2  A    between atoms: O_28  and  C_29
    3  A    between atoms: C_29  and  C_32
                            x       y       z     vdW  Elec       q    Type
                         _______ _______ _______ _____ _____    ______ ____

>  <TORSDO>
F 3

$$$$
=
 OpenBabel11112418043D

 34 40  0  0  1  0  0  0  0  0999 V2000
  192.2060  176.1960  145.6630 C   0  0  0  0  0  0  0  0  0  0  0  0
  190.1890  177.4690  146.3960 C   0  0  0  0  0  2  0  0  0  0  0  0
  195.7990  174.3800  140.4320 C   0  0  0  0  0  0  0  0  0  0  0  0
  194.1580  175.8170  144.3000 C   0  0  0  0  0  0  0  0  0  0  0  0
  193.8190  174.7750  142.0000 C   0  0  2  0  0  3  0  0  0  0  0  0
  193.5340  174.0530  139.7280 O   0  0  0  0  0  1  0  0  0  0  0  0
  196.0860  173.3400  139.7830 O   0  0  0  0  0  0  0  0  0  0  0  0
  196.8040  175.8330  142.2010 C   0  0  0  0  0  2  0  0  0  0  0  0
  189.8360  175.7390  144.7200 C   0  0  2  0  0  3  0  0  0  0  0  0
  187.5690  176.5160  142.5800 C   0  0  0  0  0  2  0  0  0  0  0  0
  192.5500  175.5020  142.0400 N   0  0  0  0  0  2  0  0  0  0  0  0
  195.5560  176.4110  142.4510 O   0  0  0  0  0  0  0  0  0  0  0  0
  190.5120  175.8810  143.3380 C   0  0  1  0  0  3  0  0  0  0  0  0
  188.7030  177.3880  146.1520 C   0  0  0  0  0  2  0  0  0  0  0  0
  194.8130  175.3700  143.0200 C   0  0  1  0  0  3  0  0  0  0  0  0
  196.8390  175.1750  140.9320 O   0  0  0  0  0  0  0  0  0  0  0  0
  188.0790  177.4000  143.7080 C   0  0  2  0  0  3  0  0  0  0  0  0
  192.7610  175.8000  144.4390 C   0  0  0  0  0  0  0  0  0  0  0  0
  194.3590  174.8100  140.5650 C   0  0  2  0  0  3  0  0  0  0  0  0
  191.9060  175.2530  143.3300 C   0  0  2  0  0  3  0  0  0  0  0  0
  194.3770  176.6230  146.5110 C   0  0  0  0  0  3  0  0  0  0  0  0
  188.6960  176.1490  141.6320 C   0  0  0  0  0  2  0  0  0  0  0  0
  194.9320  176.2340  145.3360 N   0  0  0  0  0  0  0  0  0  0  0  0
  189.6650  175.1780  142.2840 C   0  0  0  0  0  2  0  0  0  0  0  0
  188.5190  176.5340  144.9030 C   0  0  1  0  0  3  0  0  0  0  0  0
  193.0290  176.5960  146.6700 N   0  0  0  0  0  0  0  0  0  0  0  0
  190.7230  176.1440  145.9070 C   0  0  1  0  0  3  0  0  0  0  0  0
  187.0500  178.2670  144.0880 O   0  0  0  0  0  0  0  0  0  0  0  0
  185.9020  177.4710  144.1100 C   0  0  0  0  0  2  0  0  0  0  0  0
  185.2640  177.5740  147.6800 C   0  0  0  0  0  2  0  0  0  0  0  0
  185.4680  179.1160  145.8560 N   0  0  0  0  0  2  0  0  0  0  0  0
  185.0420  177.8400  145.3040 C   0  0  2  0  0  3  0  0  0  0  0  0
  185.1870  179.0310  147.2800 C   0  0  0  0  0  2  0  0  0  0  0  0
  185.1960  176.7980  146.3870 C   0  0  0  0  0  2  0  0  0  0  0  0
  1 27  1  0  0  0  0
  1 26  1  0  0  0  0
  3 19  1  0  0  0  0
  3 16  1  0  0  0  0
  4 18  1  0  0  0  0
  4 23  2  0  0  0  0
  5 11  1  6  0  0  0
  5 15  1  0  0  0  0
  6 19  1  0  0  0  0
  7  3  2  0  0  0  0
  8 12  1  0  0  0  0
  9 25  1  0  0  0  0
  9 27  1  0  0  0  0
 10 17  1  0  0  0  0
 11 20  1  0  0  0  0
 12 15  1  0  0  0  0
 13  9  1  0  0  0  0
 14  2  1  0  0  0  0
 15  4  1  0  0  0  0
 16  8  1  0  0  0  0
 17 28  1  0  0  0  0
 17 25  1  0  0  0  0
 18  1  2  0  0  0  0
 19  5  1  0  0  0  0
 20 13  1  0  0  0  0
 20 18  1  0  0  0  0
 21 26  2  0  0  0  0
 22 24  1  0  0  0  0
 22 10  1  0  0  0  0
 23 21  1  0  0  0  0
 24 13  1  0  0  0  0
 25 14  1  0  0  0  0
 27  2  1  0  0  0  0
 28 29  1  0  0  0  0
 29 32  1  0  0  0  0
 31 33  1  0  0  0  0
 32 31  1  0  0  0  0
 32 34  1  0  0  0  0
 33 30  1  0  0  0  0
 34 30  1  0  0  0  0
M  END
>  <MODEL>
5

>  <REMARK>
 VINA RESULT:      -7.9      3.157      8.141
  Name = 
  3 active torsions:
  status: ('A' for Active; 'I' for Inactive)
    1  A    between atoms: C_17  and  O_28
    2  A    between atoms: O_28  and  C_29
    3  A    between atoms: C_29  and  C_32
                            x       y       z     vdW  Elec       q    Type
                         _______ _______ _______ _____ _____    ______ ____

>  <TORSDO>
F 3

$$$$
=
 OpenBabel11112418043D

 34 40  0  0  1  0  0  0  0  0999 V2000
  190.1180  176.9170  146.0340 C   0  0  0  0  0  0  0  0  0  0  0  0
  191.8230  175.2910  146.8570 C   0  0  0  0  0  2  0  0  0  0  0  0
  185.3900  177.9210  141.5400 C   0  0  0  0  0  0  0  0  0  0  0  0
  187.9720  177.5430  145.1320 C   0  0  0  0  0  0  0  0  0  0  0  0
  187.6380  177.3500  142.6140 C   0  0  2  0  0  3  0  0  0  0  0  0
  187.1800  176.9310  140.2950 O   0  0  0  0  0  1  0  0  0  0  0  0
  185.1670  178.6390  140.5300 O   0  0  0  0  0  0  0  0  0  0  0  0
  184.8160  177.8630  143.9720 C   0  0  0  0  0  2  0  0  0  0  0  0
  191.9400  175.8940  144.5020 C   0  0  2  0  0  3  0  0  0  0  0  0
  192.8540  173.4470  142.6300 C   0  0  0  0  0  2  0  0  0  0  0  0
  188.5630  176.2240  142.7440 N   0  0  0  0  0  2  0  0  0  0  0  0
  185.8480  176.9480  144.2050 O   0  0  0  0  0  0  0  0  0  0  0  0
  190.7580  175.5350  143.5740 C   0  0  1  0  0  3  0  0  0  0  0  0
  193.0470  174.6170  146.2900 C   0  0  0  0  0  2  0  0  0  0  0  0
  187.0110  177.6930  143.9830 C   0  0  1  0  0  3  0  0  0  0  0  0
  184.4610  177.9200  142.5890 O   0  0  0  0  0  0  0  0  0  0  0  0
  192.6140  173.3890  144.1310 C   0  0  2  0  0  3  0  0  0  0  0  0
  189.2530  177.0050  144.9360 C   0  0  0  0  0  0  0  0  0  0  0  0
  186.5830  176.9990  141.5570 C   0  0  2  0  0  3  0  0  0  0  0  0
  189.7090  176.6480  143.5480 C   0  0  2  0  0  3  0  0  0  0  0  0
  188.4400  177.8410  147.4300 C   0  0  0  0  0  3  0  0  0  0  0  0
  191.5910  173.8680  141.9000 C   0  0  0  0  0  2  0  0  0  0  0  0
  187.5930  177.9410  146.3750 N   0  0  0  0  0  0  0  0  0  0  0  0
  191.2730  175.3300  142.1540 C   0  0  0  0  0  2  0  0  0  0  0  0
  192.9450  174.7470  144.7750 C   0  0  1  0  0  3  0  0  0  0  0  0
  189.6900  177.3400  147.2550 N   0  0  0  0  0  0  0  0  0  0  0  0
  191.5260  176.4100  145.8880 C   0  0  1  0  0  3  0  0  0  0  0  0
  193.4260  172.3850  144.6680 O   0  0  0  0  0  0  0  0  0  0  0  0
  194.3800  172.1300  143.6790 C   0  0  0  0  0  2  0  0  0  0  0  0
  197.0610  174.1580  145.0450 C   0  0  0  0  0  2  0  0  0  0  0  0
  195.7220  172.2840  145.7090 N   0  0  0  0  0  2  0  0  0  0  0  0
  195.7740  172.2910  144.2560 C   0  0  2  0  0  3  0  0  0  0  0  0
  196.8170  173.1390  146.1370 C   0  0  0  0  0  2  0  0  0  0  0  0
  196.3570  173.6160  143.8240 C   0  0  0  0  0  2  0  0  0  0  0  0
  1 26  1  0  0  0  0
  3 19  1  0  0  0  0
  3 16  1  0  0  0  0
  4 23  2  0  0  0  0
  5 11  1  1  0  0  0
  5 15  1  0  0  0  0
  6 19  1  0  0  0  0
  7  3  2  0  0  0  0
  8 12  1  0  0  0  0
  9 25  1  0  0  0  0
  9 27  1  0  0  0  0
 10 17  1  0  0  0  0
 11 20  1  0  0  0  0
 13  9  1  0  0  0  0
 14  2  1  0  0  0  0
 15 12  1  0  0  0  0
 15  4  1  0  0  0  0
 16  8  1  0  0  0  0
 17 28  1  0  0  0  0
 17 25  1  0  0  0  0
 18  4  1  0  0  0  0
 18  1  2  0  0  0  0
 19  5  1  0  0  0  0
 20 13  1  0  0  0  0
 20 18  1  0  0  0  0
 22 24  1  0  0  0  0
 22 10  1  0  0  0  0
 23 21  1  0  0  0  0
 24 13  1  0  0  0  0
 25 14  1  0  0  0  0
 26 21  2  0  0  0  0
 27  1  1  0  0  0  0
 27  2  1  0  0  0  0
 29 32  1  0  0  0  0
 29 28  1  0  0  0  0
 30 33  1  0  0  0  0
 31 33  1  0  0  0  0
 32 31  1  0  0  0  0
 34 32  1  0  0  0  0
 34 30  1  0  0  0  0
M  END
>  <MODEL>
6

>  <REMARK>
 VINA RESULT:      -7.9      1.979      4.014
  Name = 
  3 active torsions:
  status: ('A' for Active; 'I' for Inactive)
    1  A    between atoms: C_17  and  O_28
    2  A    between atoms: O_28  and  C_29
    3  A    between atoms: C_29  and  C_32
                            x       y       z     vdW  Elec       q    Type
                         _______ _______ _______ _____ _____    ______ ____

>  <TORSDO>
F 3

$$$$
=
 OpenBabel11112418043D

 34 40  0  0  1  0  0  0  0  0999 V2000
  188.3910  176.8850  145.7720 C   0  0  0  0  0  0  0  0  0  0  0  0
  186.2420  178.0940  145.3880 C   0  0  0  0  0  2  0  0  0  0  0  0
  194.2030  175.2850  143.0860 C   0  0  0  0  0  0  0  0  0  0  0  0
  190.7760  176.5850  145.5910 C   0  0  0  0  0  0  0  0  0  0  0  0
  191.6900  175.5950  143.4290 C   0  0  2  0  0  3  0  0  0  0  0  0
  192.6250  174.9250  141.3220 O   0  0  0  0  0  1  0  0  0  0  0  0
  194.8140  174.2680  142.6630 O   0  0  0  0  0  0  0  0  0  0  0  0
  194.1200  176.7140  145.1350 C   0  0  0  0  0  2  0  0  0  0  0  0
  186.8470  176.4000  143.7480 C   0  0  2  0  0  3  0  0  0  0  0  0
  185.9630  177.1810  140.7590 C   0  0  0  0  0  2  0  0  0  0  0  0
  190.5540  176.2920  142.8240 N   0  0  0  0  0  2  0  0  0  0  0  0
  192.9010  177.2570  144.7200 O   0  0  0  0  0  0  0  0  0  0  0  0
  188.1280  176.5920  142.9050 C   0  0  1  0  0  3  0  0  0  0  0  0
  185.0910  177.9860  144.4190 C   0  0  0  0  0  2  0  0  0  0  0  0
  192.0060  176.1860  144.8200 C   0  0  1  0  0  3  0  0  0  0  0  0
  194.8170  176.0890  144.0550 O   0  0  0  0  0  0  0  0  0  0  0  0
  185.7990  178.0470  142.0000 C   0  0  2  0  0  3  0  0  0  0  0  0
  189.5040  176.5330  144.9990 C   0  0  0  0  0  0  0  0  0  0  0  0
  192.8840  175.6780  142.4710 C   0  0  2  0  0  3  0  0  0  0  0  0
  189.3520  175.9960  143.6030 C   0  0  2  0  0  3  0  0  0  0  0  0
  189.8120  177.3390  147.6130 C   0  0  0  0  0  3  0  0  0  0  0  0
  187.4270  176.8630  140.5150 C   0  0  0  0  0  2  0  0  0  0  0  0
  190.9000  176.9930  146.8810 N   0  0  0  0  0  0  0  0  0  0  0  0
  187.9590  175.8970  141.5590 C   0  0  0  0  0  2  0  0  0  0  0  0
  185.5960  177.1600  143.2420 C   0  0  1  0  0  3  0  0  0  0  0  0
  188.5730  177.2780  147.0620 N   0  0  0  0  0  0  0  0  0  0  0  0
  186.9930  176.7940  145.2250 C   0  0  1  0  0  3  0  0  0  0  0  0
  184.6930  178.8810  141.8110 O   0  0  0  0  0  0  0  0  0  0  0  0
  183.9730  178.2890  140.7690 C   0  0  0  0  0  2  0  0  0  0  0  0
  180.6540  179.1650  141.9450 C   0  0  0  0  0  2  0  0  0  0  0  0
  181.6440  177.9370  140.1400 N   0  0  0  0  0  2  0  0  0  0  0  0
  182.5830  177.9160  141.2500 C   0  0  2  0  0  3  0  0  0  0  0  0
  180.3690  178.3190  140.7230 C   0  0  0  0  0  2  0  0  0  0  0  0
  182.1070  178.9210  142.2730 C   0  0  0  0  0  2  0  0  0  0  0  0
  1 26  1  0  0  0  0
  3 16  1  0  0  0  0
  4 23  2  0  0  0  0
  5 11  1  6  0  0  0
  5 15  1  0  0  0  0
  6 19  1  0  0  0  0
  7  3  2  0  0  0  0
  9 27  1  0  0  0  0
 10 17  1  0  0  0  0
 11 20  1  0  0  0  0
 12 15  1  0  0  0  0
 12  8  1  0  0  0  0
 13 20  1  0  0  0  0
 13  9  1  0  0  0  0
 14  2  1  0  0  0  0
 15  4  1  0  0  0  0
 16  8  1  0  0  0  0
 17 25  1  0  0  0  0
 18  4  1  0  0  0  0
 18  1  2  0  0  0  0
 19  3  1  0  0  0  0
 19  5  1  0  0  0  0
 20 18  1  0  0  0  0
 22 10  1  0  0  0  0
 22 24  1  0  0  0  0
 23 21  1  0  0  0  0
 24 13  1  0  0  0  0
 25  9  1  0  0  0  0
 25 14  1  0  0  0  0
 26 21  2  0  0  0  0
 27  2  1  0  0  0  0
 27  1  1  0  0  0  0
 28 17  1  0  0  0  0
 29 32  1  0  0  0  0
 29 28  1  0  0  0  0
 30 34  1  0  0  0  0
 31 33  1  0  0  0  0
 31 32  1  0  0  0  0
 32 34  1  0  0  0  0
 33 30  1  0  0  0  0
M  END
>  <MODEL>
7

>  <REMARK>
 VINA RESULT:      -7.8      2.752      8.925
  Name = 
  3 active torsions:
  status: ('A' for Active; 'I' for Inactive)
    1  A    between atoms: C_17  and  O_28
    2  A    between atoms: O_28  and  C_29
    3  A    between atoms: C_29  and  C_32
                            x       y       z     vdW  Elec       q    Type
                         _______ _______ _______ _____ _____    ______ ____

>  <TORSDO>
F 3

$$$$
=
 OpenBabel11112418043D

 34 40  0  0  1  0  0  0  0  0999 V2000
  192.1040  175.9700  145.8170 C   0  0  0  0  0  0  0  0  0  0  0  0
  189.9670  176.8910  146.7190 C   0  0  0  0  0  2  0  0  0  0  0  0
  195.5720  174.8690  140.3100 C   0  0  0  0  0  0  0  0  0  0  0  0
  193.9940  175.9360  144.3210 C   0  0  0  0  0  0  0  0  0  0  0  0
  193.6660  174.9090  142.0130 C   0  0  2  0  0  3  0  0  0  0  0  0
  193.3430  174.2050  139.7410 O   0  0  0  0  0  1  0  0  0  0  0  0
  195.9730  173.9030  139.6090 O   0  0  0  0  0  0  0  0  0  0  0  0
  196.4560  176.4200  142.0600 C   0  0  0  0  0  2  0  0  0  0  0  0
  189.7750  175.1670  145.0110 C   0  0  2  0  0  3  0  0  0  0  0  0
  187.2750  175.6270  143.0470 C   0  0  0  0  0  2  0  0  0  0  0  0
  192.3050  175.4250  142.1590 N   0  0  0  0  0  2  0  0  0  0  0  0
  195.1520  176.7880  142.4080 O   0  0  0  0  0  0  0  0  0  0  0  0
  190.3250  175.4470  143.5950 C   0  0  1  0  0  3  0  0  0  0  0  0
  188.4990  176.5820  146.5670 C   0  0  0  0  0  2  0  0  0  0  0  0
  194.6220  175.6290  142.9880 C   0  0  1  0  0  3  0  0  0  0  0  0
  196.5070  175.8060  140.7700 O   0  0  0  0  0  0  0  0  0  0  0  0
  187.7160  176.5530  144.1700 C   0  0  2  0  0  3  0  0  0  0  0  0
  192.6300  175.6960  144.5480 C   0  0  0  0  0  0  0  0  0  0  0  0
  194.0950  175.0620  140.5490 C   0  0  2  0  0  3  0  0  0  0  0  0
  191.7970  175.0470  143.4770 C   0  0  2  0  0  3  0  0  0  0  0  0
  194.2340  176.7150  146.5400 C   0  0  0  0  0  3  0  0  0  0  0  0
  188.3790  175.4650  142.0180 C   0  0  0  0  0  2  0  0  0  0  0  0
  194.7620  176.4460  145.3190 N   0  0  0  0  0  0  0  0  0  0  0  0
  189.5280  174.6440  142.5740 C   0  0  0  0  0  2  0  0  0  0  0  0
  188.3660  175.7390  145.3050 C   0  0  1  0  0  3  0  0  0  0  0  0
  192.9210  176.4710  146.7830 N   0  0  0  0  0  0  0  0  0  0  0  0
  190.6670  175.6790  146.1530 C   0  0  1  0  0  3  0  0  0  0  0  0
  186.5930  177.2380  144.6440 O   0  0  0  0  0  0  0  0  0  0  0  0
  186.8090  178.5710  144.2850 C   0  0  0  0  0  2  0  0  0  0  0  0
  184.6860  178.2500  141.3600 C   0  0  0  0  0  2  0  0  0  0  0  0
  184.4400  178.3790  143.7410 N   0  0  0  0  0  2  0  0  0  0  0  0
  185.6810  179.0530  143.3920 C   0  0  2  0  0  3  0  0  0  0  0  0
  183.6910  178.2890  142.4990 C   0  0  0  0  0  2  0  0  0  0  0  0
  185.9920  178.7250  141.9510 C   0  0  0  0  0  2  0  0  0  0  0  0
  1 27  1  0  0  0  0
  1 26  1  0  0  0  0
  3 19  1  0  0  0  0
  3 16  1  0  0  0  0
  4 18  1  0  0  0  0
  4 23  2  0  0  0  0
  5 11  1  6  0  0  0
  5 15  1  0  0  0  0
  6 19  1  0  0  0  0
  7  3  2  0  0  0  0
  8 12  1  0  0  0  0
  9 25  1  0  0  0  0
  9 27  1  0  0  0  0
 10 17  1  0  0  0  0
 11 20  1  0  0  0  0
 12 15  1  0  0  0  0
 13  9  1  0  0  0  0
 14  2  1  0  0  0  0
 15  4  1  0  0  0  0
 16  8  1  0  0  0  0
 17 28  1  0  0  0  0
 17 25  1  0  0  0  0
 18  1  2  0  0  0  0
 19  5  1  0  0  0  0
 20 13  1  0  0  0  0
 20 18  1  0  0  0  0
 21 26  2  0  0  0  0
 22 24  1  0  0  0  0
 22 10  1  0  0  0  0
 23 21  1  0  0  0  0
 24 13  1  0  0  0  0
 25 14  1  0  0  0  0
 27  2  1  0  0  0  0
 29 28  1  0  0  0  0
 30 34  1  0  0  0  0
 30 33  1  0  0  0  0
 32 31  1  0  0  0  0
 32 29  1  0  0  0  0
 33 31  1  0  0  0  0
 34 32  1  0  0  0  0
M  END
>  <MODEL>
8

>  <REMARK>
 VINA RESULT:      -7.7      2.886      8.055
  Name = 
  3 active torsions:
  status: ('A' for Active; 'I' for Inactive)
    1  A    between atoms: C_17  and  O_28
    2  A    between atoms: O_28  and  C_29
    3  A    between atoms: C_29  and  C_32
                            x       y       z     vdW  Elec       q    Type
                         _______ _______ _______ _____ _____    ______ ____

>  <TORSDO>
F 3

$$$$
=
 OpenBabel11112418043D

 34 40  0  0  1  0  0  0  0  0999 V2000
  190.3770  172.9620  142.0690 C   0  0  0  0  0  0  0  0  0  0  0  0
  188.0630  173.8890  142.1930 C   0  0  0  0  0  2  0  0  0  0  0  0
  196.0310  172.1850  145.3830 C   0  0  0  0  0  0  0  0  0  0  0  0
  192.3240  171.8570  142.9610 C   0  0  0  0  0  0  0  0  0  0  0  0
  193.9620  173.2500  144.3280 C   0  0  2  0  0  3  0  0  0  0  0  0
  195.3890  174.4450  145.8430 O   0  0  0  0  0  1  0  0  0  0  0  0
  197.2220  172.5940  145.3530 O   0  0  0  0  0  0  0  0  0  0  0  0
  194.7100  170.1850  144.6720 C   0  0  0  0  0  2  0  0  0  0  0  0
  189.8830  175.4360  142.6610 C   0  0  2  0  0  3  0  0  0  0  0  0
  189.1400  177.5890  144.9270 C   0  0  0  0  0  2  0  0  0  0  0  0
  192.7570  173.9830  144.7180 N   0  0  0  0  0  2  0  0  0  0  0  0
  193.5220  170.9110  144.8050 O   0  0  0  0  0  0  0  0  0  0  0  0
  190.7940  175.1790  143.8820 C   0  0  1  0  0  3  0  0  0  0  0  0
  187.4450  175.2510  142.3850 C   0  0  0  0  0  2  0  0  0  0  0  0
  193.5900  171.8570  143.7760 C   0  0  1  0  0  3  0  0  0  0  0  0
  195.7890  170.8050  145.3750 O   0  0  0  0  0  0  0  0  0  0  0  0
  188.2580  176.4440  144.4530 C   0  0  2  0  0  3  0  0  0  0  0  0
  191.5280  173.0090  142.8660 C   0  0  0  0  0  0  0  0  0  0  0  0
  194.9010  173.1720  145.5370 C   0  0  2  0  0  3  0  0  0  0  0  0
  191.9810  174.2870  143.5160 C   0  0  2  0  0  3  0  0  0  0  0  0
  190.8300  170.6970  141.5440 C   0  0  0  0  0  3  0  0  0  0  0  0
  190.4450  177.0620  145.4960 C   0  0  0  0  0  2  0  0  0  0  0  0
  191.9540  170.7260  142.3040 N   0  0  0  0  0  0  0  0  0  0  0  0
  191.3350  176.5060  144.3990 C   0  0  0  0  0  2  0  0  0  0  0  0
  188.5370  176.1390  142.9700 C   0  0  1  0  0  3  0  0  0  0  0  0
  190.0580  171.8060  141.4250 N   0  0  0  0  0  0  0  0  0  0  0  0
  189.5100  174.1750  141.8680 C   0  0  1  0  0  3  0  0  0  0  0  0
  186.9210  176.8160  144.6290 O   0  0  0  0  0  0  0  0  0  0  0  0
  186.9440  178.2110  144.6950 C   0  0  0  0  0  2  0  0  0  0  0  0
  185.1380  178.4030  141.5540 C   0  0  0  0  0  2  0  0  0  0  0  0
  184.6700  177.9370  143.8590 N   0  0  0  0  0  2  0  0  0  0  0  0
  185.8510  178.7870  143.8150 C   0  0  2  0  0  3  0  0  0  0  0  0
  184.0480  178.0770  142.5530 C   0  0  0  0  0  2  0  0  0  0  0  0
  186.3230  178.8410  142.3800 C   0  0  0  0  0  2  0  0  0  0  0  0
  1 18  1  0  0  0  0
  2 14  1  0  0  0  0
  3 19  1  0  0  0  0
  4 15  1  0  0  0  0
  5 11  1  1  0  0  0
  5 19  1  0  0  0  0
  7  3  2  0  0  0  0
  8 12  1  0  0  0  0
  8 16  1  0  0  0  0
  9 25  1  0  0  0  0
  9 13  1  0  0  0  0
 10 22  1  0  0  0  0
 13 24  1  0  0  0  0
 14 25  1  0  0  0  0
 15  5  1  0  0  0  0
 15 12  1  0  0  0  0
 16  3  1  0  0  0  0
 17 28  1  0  0  0  0
 17 10  1  0  0  0  0
 18  4  2  0  0  0  0
 18 20  1  0  0  0  0
 19  6  1  0  0  0  0
 20 13  1  0  0  0  0
 20 11  1  0  0  0  0
 21 23  2  0  0  0  0
 23  4  1  0  0  0  0
 24 22  1  0  0  0  0
 25 17  1  0  0  0  0
 26 21  1  0  0  0  0
 26  1  2  0  0  0  0
 27  1  1  0  0  0  0
 27  2  1  0  0  0  0
 27  9  1  0  0  0  0
 28 29  1  0  0  0  0
 30 34  1  0  0  0  0
 30 33  1  0  0  0  0
 32 31  1  0  0  0  0
 32 29  1  0  0  0  0
 33 31  1  0  0  0  0
 34 32  1  0  0  0  0
M  END
>  <MODEL>
9

>  <REMARK>
 VINA RESULT:      -7.6      2.506      8.091
  Name = 
  3 active torsions:
  status: ('A' for Active; 'I' for Inactive)
    1  A    between atoms: C_17  and  O_28
    2  A    between atoms: O_28  and  C_29
    3  A    between atoms: C_29  and  C_32
                            x       y       z     vdW  Elec       q    Type
                         _______ _______ _______ _____ _____    ______ ____

>  <TORSDO>
F 3

$$$$
