=
 OpenBabel11112417043D

 31 35  0  0  1  0  0  0  0  0999 V2000
  184.6910  178.1460  146.7010 C   0  0  0  0  0  0  0  0  0  0  0  0
  187.2480  175.8970  144.9980 C   0  0  2  0  0  3  0  0  0  0  0  0
  187.2850  176.2550  143.5240 C   0  0  0  0  0  0  0  0  0  0  0  0
  186.4050  177.3730  141.5700 C   0  0  0  0  0  0  0  0  0  0  0  0
  186.6460  176.9610  145.8870 C   0  0  0  0  0  0  0  0  0  0  0  0
  185.4980  178.8990  147.5570 C   0  0  0  0  0  3  0  0  0  0  0  0
  186.3710  177.1460  142.9460 C   0  0  0  0  0  3  0  0  0  0  0  0
  189.5220  176.6590  145.8950 C   0  0  1  0  0  3  0  0  0  0  0  0
  183.3520  178.3550  146.6760 F   0  0  0  0  0  0  0  0  0  0  0  0
  189.1350  174.6480  143.2470 N   0  0  0  0  0  0  0  0  0  0  0  0
  185.4890  178.2880  140.9800 N   0  0  0  0  0  1  0  0  0  0  0  0
  188.8350  177.4820  146.8370 O   0  0  0  0  0  0  0  0  0  0  0  0
  188.6410  175.4560  145.5070 C   0  0  2  0  0  3  0  0  0  0  0  0
  185.2620  177.1770  145.8730 C   0  0  0  0  0  3  0  0  0  0  0  0
  187.3030  176.7140  140.7900 N   0  0  0  0  0  0  0  0  0  0  0  0
  187.4560  177.7140  146.7620 C   0  0  0  0  0  0  0  0  0  0  0  0
  186.8780  178.6800  147.5910 C   0  0  0  0  0  3  0  0  0  0  0  0
  189.3330  174.5410  144.5280 C   0  0  0  0  0  3  0  0  0  0  0  0
  188.1990  175.5820  142.6930 C   0  0  0  0  0  0  0  0  0  0  0  0
  188.1900  175.8280  141.3180 C   0  0  0  0  0  3  0  0  0  0  0  0
  189.9250  177.4970  144.6840 C   0  0  0  0  0  2  0  0  0  0  0  0
  191.7670  178.4750  143.4960 O   0  0  0  0  0  1  0  0  0  0  0  0
  191.4310  177.7160  144.6190 C   0  0  2  0  0  3  0  0  0  0  0  0
  195.1760  176.2550  144.1220 C   0  0  0  0  0  0  0  0  0  0  0  0
  193.1960  176.2400  145.7940 C   0  0  0  0  0  2  0  0  0  0  0  0
  192.0520  175.8700  142.3000 O   0  0  0  0  0  0  0  0  0  0  0  0
  196.3700  175.7690  144.0520 N   0  0  0  0  0  2  0  0  0  0  0  0
  194.7000  177.2320  145.5420 S   0  0  0  0  0  0  0  0  0  0  0  0
  192.8150  176.0710  143.2790 C   0  0  0  0  0  0  0  0  0  0  0  0
  192.2130  176.3950  144.6240 C   0  0  2  0  0  3  0  0  0  0  0  0
  194.2310  175.9620  143.0920 N   0  0  0  0  0  2  0  0  0  0  0  0
  1  6  1  0  0  0  0
  2  3  1  6  0  0  0
  2 13  1  0  0  0  0
  2  5  1  0  0  0  0
  4  7  2  0  0  0  0
  5 16  2  0  0  0  0
  6 17  2  0  0  0  0
  7  3  1  0  0  0  0
  8 21  1  6  0  0  0
  8 12  1  0  0  0  0
  9  1  1  0  0  0  0
 10 18  2  0  0  0  0
 11  4  1  0  0  0  0
 13 18  1  6  0  0  0
 13  8  1  0  0  0  0
 14  5  1  0  0  0  0
 14  1  2  0  0  0  0
 15 20  2  0  0  0  0
 15  4  1  0  0  0  0
 16 12  1  0  0  0  0
 16 17  1  0  0  0  0
 19 10  1  0  0  0  0
 19  3  2  0  0  0  0
 20 19  1  0  0  0  0
 23 22  1  6  0  0  0
 23 21  1  0  0  0  0
 24 28  1  0  0  0  0
 26 29  2  0  0  0  0
 27 24  2  0  0  0  0
 28 25  1  0  0  0  0
 29 30  1  0  0  0  0
 30 23  1  6  0  0  0
 30 25  1  0  0  0  0
 31 29  1  0  0  0  0
 31 24  1  0  0  0  0
M  END
>  <MODEL>
1

>  <REMARK>
 VINA RESULT:      -8.4      0.000      0.000
  Name = 
  3 active torsions:
  status: ('A' for Active; 'I' for Inactive)
    1  A    between atoms: C_5  and  C_16
    2  A    between atoms: C_5  and  C_30
    3  A    between atoms: C_10  and  C_16
                            x       y       z     vdW  Elec       q    Type
                         _______ _______ _______ _____ _____    ______ ____

>  <TORSDO>
F 3

$$$$
=
 OpenBabel11112417043D

 31 35  0  0  1  0  0  0  0  0999 V2000
  193.7060  174.7370  145.2000 C   0  0  0  0  0  0  0  0  0  0  0  0
  190.9550  176.3230  143.0970 C   0  0  2  0  0  3  0  0  0  0  0  0
  189.9580  175.2400  142.7300 C   0  0  0  0  0  0  0  0  0  0  0  0
  189.2690  172.9290  142.5710 C   0  0  0  0  0  0  0  0  0  0  0  0
  191.8410  175.9860  144.2750 C   0  0  0  0  0  0  0  0  0  0  0  0
  193.5270  175.3730  146.4310 C   0  0  0  0  0  3  0  0  0  0  0  0
  190.1860  173.8860  143.0060 C   0  0  0  0  0  3  0  0  0  0  0  0
  189.6730  177.8510  144.7040 C   0  0  1  0  0  3  0  0  0  0  0  0
  194.6920  173.8210  145.0480 F   0  0  0  0  0  0  0  0  0  0  0  0
  188.5640  176.9770  141.6680 N   0  0  0  0  0  0  0  0  0  0  0  0
  189.4870  171.5540  142.8620 N   0  0  0  0  0  1  0  0  0  0  0  0
  190.6890  177.6180  145.6790 O   0  0  0  0  0  0  0  0  0  0  0  0
  190.2590  177.6920  143.2870 C   0  0  2  0  0  3  0  0  0  0  0  0
  192.8700  175.0460  144.1240 C   0  0  0  0  0  3  0  0  0  0  0  0
  188.1720  173.3060  141.8600 N   0  0  0  0  0  0  0  0  0  0  0  0
  191.6710  176.6350  145.5160 C   0  0  0  0  0  0  0  0  0  0  0  0
  192.5140  176.3240  146.5860 C   0  0  0  0  0  3  0  0  0  0  0  0
  189.2280  177.9510  142.2180 C   0  0  0  0  0  3  0  0  0  0  0  0
  188.8180  175.6020  141.9870 C   0  0  0  0  0  0  0  0  0  0  0  0
  187.9330  174.6100  141.5600 C   0  0  0  0  0  3  0  0  0  0  0  0
  188.4990  176.9080  144.9540 C   0  0  0  0  0  2  0  0  0  0  0  0
  187.7360  177.2690  147.2020 O   0  0  0  0  0  1  0  0  0  0  0  0
  187.4480  177.5360  145.8610 C   0  0  2  0  0  3  0  0  0  0  0  0
  184.1050  178.7360  143.9130 C   0  0  0  0  0  0  0  0  0  0  0  0
  185.7950  176.7730  144.0290 C   0  0  0  0  0  2  0  0  0  0  0  0
  184.8750  178.0000  147.3910 O   0  0  0  0  0  0  0  0  0  0  0  0
  183.0570  179.0530  143.2310 N   0  0  0  0  0  2  0  0  0  0  0  0
  185.6180  178.3040  143.0630 S   0  0  0  0  0  0  0  0  0  0  0  0
  184.9620  177.9380  146.1370 C   0  0  0  0  0  0  0  0  0  0  0  0
  186.0270  177.0680  145.5180 C   0  0  2  0  0  3  0  0  0  0  0  0
  184.0320  178.6780  145.3380 N   0  0  0  0  0  2  0  0  0  0  0  0
  1  6  1  0  0  0  0
  2  3  1  1  0  0  0
  2 13  1  0  0  0  0
  2  5  1  0  0  0  0
  3  7  1  0  0  0  0
  4 11  1  0  0  0  0
  4  7  2  0  0  0  0
  5 16  2  0  0  0  0
  6 17  2  0  0  0  0
  8 21  1  1  0  0  0
  8 12  1  0  0  0  0
  9  1  1  0  0  0  0
 10 19  1  0  0  0  0
 10 18  2  0  0  0  0
 13 18  1  6  0  0  0
 13  8  1  0  0  0  0
 14  5  1  0  0  0  0
 14  1  2  0  0  0  0
 15  4  1  0  0  0  0
 16 12  1  0  0  0  0
 16 17  1  0  0  0  0
 19  3  2  0  0  0  0
 20 15  2  0  0  0  0
 20 19  1  0  0  0  0
 21 23  1  0  0  0  0
 23 22  1  1  0  0  0
 24 31  1  0  0  0  0
 25 30  1  0  0  0  0
 27 24  2  0  0  0  0
 28 24  1  0  0  0  0
 28 25  1  0  0  0  0
 29 26  2  0  0  0  0
 30 23  1  6  0  0  0
 30 29  1  0  0  0  0
 31 29  1  0  0  0  0
M  END
>  <MODEL>
2

>  <REMARK>
 VINA RESULT:      -8.2      3.730      6.990
  Name = 
  3 active torsions:
  status: ('A' for Active; 'I' for Inactive)
    1  A    between atoms: C_5  and  C_16
    2  A    between atoms: C_5  and  C_30
    3  A    between atoms: C_10  and  C_16
                            x       y       z     vdW  Elec       q    Type
                         _______ _______ _______ _____ _____    ______ ____

>  <TORSDO>
F 3

$$$$
=
 OpenBabel11112417043D

 31 35  0  0  1  0  0  0  0  0999 V2000
  185.2410  178.5260  146.1370 C   0  0  0  0  0  0  0  0  0  0  0  0
  188.6160  177.8910  144.4890 C   0  0  2  0  0  3  0  0  0  0  0  0
  189.2280  176.6580  145.1270 C   0  0  0  0  0  0  0  0  0  0  0  0
  189.3160  174.9520  146.8360 C   0  0  0  0  0  0  0  0  0  0  0  0
  187.1230  178.0240  144.6870 C   0  0  0  0  0  0  0  0  0  0  0  0
  184.3610  178.3180  145.0730 C   0  0  0  0  0  3  0  0  0  0  0  0
  188.6620  176.0330  146.2450 C   0  0  0  0  0  3  0  0  0  0  0  0
  188.0720  177.1650  142.0940 C   0  0  1  0  0  3  0  0  0  0  0  0
  184.7610  178.8660  147.3570 F   0  0  0  0  0  0  0  0  0  0  0  0
  191.0850  176.8270  143.5130 N   0  0  0  0  0  0  0  0  0  0  0  0
  188.7380  174.3030  147.9630 N   0  0  0  0  0  1  0  0  0  0  0  0
  186.7110  177.5200  142.3340 O   0  0  0  0  0  0  0  0  0  0  0  0
  188.9990  178.0040  142.9950 C   0  0  2  0  0  3  0  0  0  0  0  0
  186.6180  178.3850  145.9440 C   0  0  0  0  0  3  0  0  0  0  0  0
  190.5090  174.5230  146.3450 N   0  0  0  0  0  0  0  0  0  0  0  0
  186.2310  177.8270  143.6130 C   0  0  0  0  0  0  0  0  0  0  0  0
  184.8560  177.9740  143.8120 C   0  0  0  0  0  3  0  0  0  0  0  0
  190.4540  177.6820  142.7630 C   0  0  0  0  0  3  0  0  0  0  0  0
  190.4670  176.1980  144.6430 C   0  0  0  0  0  0  0  0  0  0  0  0
  191.0940  175.1210  145.2730 C   0  0  0  0  0  3  0  0  0  0  0  0
  188.2540  175.6650  142.3120 C   0  0  0  0  0  2  0  0  0  0  0  0
  187.8160  175.4940  139.9580 O   0  0  0  0  0  1  0  0  0  0  0  0
  188.5450  174.9320  141.0090 C   0  0  2  0  0  3  0  0  0  0  0  0
  190.4410  171.3580  141.2150 C   0  0  0  0  0  0  0  0  0  0  0  0
  188.6660  172.7900  142.4470 C   0  0  0  0  0  2  0  0  0  0  0  0
  188.2260  172.9060  138.7800 O   0  0  0  0  0  0  0  0  0  0  0  0
  191.0160  170.2130  141.3660 N   0  0  0  0  0  2  0  0  0  0  0  0
  190.4650  172.5450  142.5530 S   0  0  0  0  0  0  0  0  0  0  0  0
  188.7390  172.6610  139.9030 C   0  0  0  0  0  0  0  0  0  0  0  0
  188.2600  173.4270  141.1100 C   0  0  2  0  0  3  0  0  0  0  0  0
  189.7450  171.6460  140.0020 N   0  0  0  0  0  2  0  0  0  0  0  0
  1  9  1  0  0  0  0
  2  5  1  6  0  0  0
  2  3  1  0  0  0  0
  3  7  1  0  0  0  0
  4 11  1  0  0  0  0
  5 14  2  0  0  0  0
  6  1  2  0  0  0  0
  7  4  2  0  0  0  0
  8 21  1  1  0  0  0
  8 12  1  0  0  0  0
  8 13  1  0  0  0  0
 10 19  1  0  0  0  0
 12 16  1  0  0  0  0
 13 18  1  1  0  0  0
 13  2  1  0  0  0  0
 14  1  1  0  0  0  0
 15  4  1  0  0  0  0
 16 17  2  0  0  0  0
 16  5  1  0  0  0  0
 17  6  1  0  0  0  0
 18 10  2  0  0  0  0
 19  3  2  0  0  0  0
 19 20  1  0  0  0  0
 20 15  2  0  0  0  0
 23 22  1  6  0  0  0
 23 21  1  0  0  0  0
 24 27  2  0  0  0  0
 24 28  1  0  0  0  0
 25 28  1  0  0  0  0
 26 29  2  0  0  0  0
 29 31  1  0  0  0  0
 29 30  1  0  0  0  0
 30 23  1  6  0  0  0
 30 25  1  0  0  0  0
 31 24  1  0  0  0  0
M  END
>  <MODEL>
3

>  <REMARK>
 VINA RESULT:      -8.0      3.157      5.095
  Name = 
  3 active torsions:
  status: ('A' for Active; 'I' for Inactive)
    1  A    between atoms: C_5  and  C_16
    2  A    between atoms: C_5  and  C_30
    3  A    between atoms: C_10  and  C_16
                            x       y       z     vdW  Elec       q    Type
                         _______ _______ _______ _____ _____    ______ ____

>  <TORSDO>
F 3

$$$$
=
 OpenBabel11112417043D

 31 35  0  0  1  0  0  0  0  0999 V2000
  186.2190  177.5520  147.2740 C   0  0  0  0  0  0  0  0  0  0  0  0
  189.0790  177.7810  144.7690 C   0  0  2  0  0  3  0  0  0  0  0  0
  190.2370  176.9540  145.2970 C   0  0  0  0  0  0  0  0  0  0  0  0
  191.3580  175.7070  147.0380 C   0  0  0  0  0  0  0  0  0  0  0  0
  187.7380  177.4470  145.3830 C   0  0  0  0  0  0  0  0  0  0  0  0
  185.2450  176.8780  146.5330 C   0  0  0  0  0  3  0  0  0  0  0  0
  190.2300  176.3890  146.5790 C   0  0  0  0  0  3  0  0  0  0  0  0
  188.2720  176.4990  142.7040 C   0  0  1  0  0  3  0  0  0  0  0  0
  185.9610  177.9280  148.5490 F   0  0  0  0  0  0  0  0  0  0  0  0
  191.4480  177.4330  143.2030 N   0  0  0  0  0  0  0  0  0  0  0  0
  191.3520  175.1170  148.3330 N   0  0  0  0  0  1  0  0  0  0  0  0
  186.9780  176.4230  143.3010 O   0  0  0  0  0  0  0  0  0  0  0  0
  189.0170  177.7440  143.2240 C   0  0  2  0  0  3  0  0  0  0  0  0
  187.4600  177.8400  146.6990 C   0  0  0  0  0  3  0  0  0  0  0  0
  192.4670  175.6150  146.2560 N   0  0  0  0  0  0  0  0  0  0  0  0
  186.7480  176.7780  144.6350 C   0  0  0  0  0  0  0  0  0  0  0  0
  185.5070  176.4970  145.2150 C   0  0  0  0  0  3  0  0  0  0  0  0
  190.3850  177.8830  142.6040 C   0  0  0  0  0  3  0  0  0  0  0  0
  191.3990  176.8490  144.5110 C   0  0  0  0  0  0  0  0  0  0  0  0
  192.5100  176.1700  145.0150 C   0  0  0  0  0  3  0  0  0  0  0  0
  189.0390  175.2080  142.9790 C   0  0  0  0  0  2  0  0  0  0  0  0
  187.5570  173.5720  142.0360 O   0  0  0  0  0  1  0  0  0  0  0  0
  188.8110  174.1680  141.8890 C   0  0  2  0  0  3  0  0  0  0  0  0
  191.8610  172.7160  144.1260 C   0  0  0  0  0  0  0  0  0  0  0  0
  189.7160  171.9610  142.8820 C   0  0  0  0  0  2  0  0  0  0  0  0
  191.6680  174.4000  140.9080 O   0  0  0  0  0  0  0  0  0  0  0  0
  192.7840  172.1770  144.8500 N   0  0  0  0  0  2  0  0  0  0  0  0
  190.1430  172.4900  144.5690 S   0  0  0  0  0  0  0  0  0  0  0  0
  191.2990  173.6880  141.8770 C   0  0  0  0  0  0  0  0  0  0  0  0
  189.9110  173.0970  141.8670 C   0  0  2  0  0  3  0  0  0  0  0  0
  192.2170  173.4400  142.9480 N   0  0  0  0  0  2  0  0  0  0  0  0
  1  9  1  0  0  0  0
  2  3  1  1  0  0  0
  2  5  1  0  0  0  0
  3  7  1  0  0  0  0
  4 11  1  0  0  0  0
  5 14  2  0  0  0  0
  6  1  2  0  0  0  0
  7  4  2  0  0  0  0
  8 21  1  1  0  0  0
  8 13  1  0  0  0  0
  8 12  1  0  0  0  0
 10 19  1  0  0  0  0
 12 16  1  0  0  0  0
 13 18  1  6  0  0  0
 13  2  1  0  0  0  0
 14  1  1  0  0  0  0
 15  4  1  0  0  0  0
 16 17  2  0  0  0  0
 16  5  1  0  0  0  0
 17  6  1  0  0  0  0
 18 10  2  0  0  0  0
 19 20  1  0  0  0  0
 19  3  2  0  0  0  0
 20 15  2  0  0  0  0
 23 22  1  1  0  0  0
 23 21  1  0  0  0  0
 24 28  1  0  0  0  0
 24 27  2  0  0  0  0
 25 28  1  0  0  0  0
 26 29  2  0  0  0  0
 29 31  1  0  0  0  0
 30 29  1  0  0  0  0
 30 23  1  1  0  0  0
 30 25  1  0  0  0  0
 31 24  1  0  0  0  0
M  END
>  <MODEL>
4

>  <REMARK>
 VINA RESULT:      -7.9      2.851      4.695
  Name = 
  3 active torsions:
  status: ('A' for Active; 'I' for Inactive)
    1  A    between atoms: C_5  and  C_16
    2  A    between atoms: C_5  and  C_30
    3  A    between atoms: C_10  and  C_16
                            x       y       z     vdW  Elec       q    Type
                         _______ _______ _______ _____ _____    ______ ____

>  <TORSDO>
F 3

$$$$
=
 OpenBabel11112417043D

 31 35  0  0  1  0  0  0  0  0999 V2000
  186.1020  177.8160  147.4660 C   0  0  0  0  0  0  0  0  0  0  0  0
  188.7470  177.7740  144.7260 C   0  0  2  0  0  3  0  0  0  0  0  0
  189.9220  176.9480  145.2160 C   0  0  0  0  0  0  0  0  0  0  0  0
  191.1500  175.7890  146.9450 C   0  0  0  0  0  0  0  0  0  0  0  0
  187.4540  177.5290  145.4700 C   0  0  0  0  0  0  0  0  0  0  0  0
  185.0510  177.1260  146.8580 C   0  0  0  0  0  3  0  0  0  0  0  0
  190.0070  176.4740  146.5310 C   0  0  0  0  0  3  0  0  0  0  0  0
  187.7350  176.3800  142.8310 C   0  0  1  0  0  3  0  0  0  0  0  0
  185.9620  178.2880  148.7280 F   0  0  0  0  0  0  0  0  0  0  0  0
  190.9660  177.2400  143.0010 N   0  0  0  0  0  0  0  0  0  0  0  0
  191.2370  175.2910  148.2750 N   0  0  0  0  0  1  0  0  0  0  0  0
  186.4940  176.3880  143.5360 O   0  0  0  0  0  0  0  0  0  0  0  0
  188.5550  177.6320  143.1980 C   0  0  2  0  0  3  0  0  0  0  0  0
  187.2980  178.0220  146.7720 C   0  0  0  0  0  3  0  0  0  0  0  0
  192.1860  175.6050  146.0840 N   0  0  0  0  0  0  0  0  0  0  0  0
  186.3860  176.8430  144.8560 C   0  0  0  0  0  0  0  0  0  0  0  0
  185.1910  176.6440  145.5530 C   0  0  0  0  0  3  0  0  0  0  0  0
  189.8700  177.6820  142.4600 C   0  0  0  0  0  3  0  0  0  0  0  0
  191.0110  176.7490  144.3480 C   0  0  0  0  0  0  0  0  0  0  0  0
  192.1410  176.0700  144.8070 C   0  0  0  0  0  3  0  0  0  0  0  0
  188.4860  175.0860  143.1350 C   0  0  0  0  0  2  0  0  0  0  0  0
  188.5390  172.7740  142.4920 O   0  0  0  0  0  1  0  0  0  0  0  0
  188.3490  174.0700  142.0090 C   0  0  2  0  0  3  0  0  0  0  0  0
  190.3310  172.1960  139.0130 C   0  0  0  0  0  0  0  0  0  0  0  0
  188.7050  174.1660  139.4510 C   0  0  0  0  0  2  0  0  0  0  0  0
  191.3770  173.9930  141.9970 O   0  0  0  0  0  0  0  0  0  0  0  0
  190.9080  171.6420  138.0000 N   0  0  0  0  0  2  0  0  0  0  0  0
  188.5550  172.4070  139.0150 S   0  0  0  0  0  0  0  0  0  0  0  0
  190.6490  173.6710  141.0230 C   0  0  0  0  0  0  0  0  0  0  0  0
  189.3150  174.3520  140.8490 C   0  0  2  0  0  3  0  0  0  0  0  0
  191.1210  172.6850  140.0980 N   0  0  0  0  0  2  0  0  0  0  0  0
  1  9  1  0  0  0  0
  2  3  1  1  0  0  0
  2  5  1  0  0  0  0
  3  7  1  0  0  0  0
  4 11  1  0  0  0  0
  5 14  1  0  0  0  0
  6  1  1  0  0  0  0
  7  4  2  0  0  0  0
  8 21  1  1  0  0  0
  8 13  1  0  0  0  0
  8 12  1  0  0  0  0
 10 19  1  0  0  0  0
 12 16  1  0  0  0  0
 13 18  1  6  0  0  0
 13  2  1  0  0  0  0
 14  1  2  0  0  0  0
 15  4  1  0  0  0  0
 16  5  2  0  0  0  0
 16 17  1  0  0  0  0
 17  6  2  0  0  0  0
 18 10  2  0  0  0  0
 19 20  1  0  0  0  0
 19  3  2  0  0  0  0
 20 15  2  0  0  0  0
 23 22  1  1  0  0  0
 23 21  1  0  0  0  0
 24 28  1  0  0  0  0
 24 31  1  0  0  0  0
 25 30  1  0  0  0  0
 27 24  2  0  0  0  0
 28 25  1  0  0  0  0
 29 26  2  0  0  0  0
 30 29  1  0  0  0  0
 30 23  1  1  0  0  0
 31 29  1  0  0  0  0
M  END
>  <MODEL>
5

>  <REMARK>
 VINA RESULT:      -7.9      3.310      5.292
  Name = 
  3 active torsions:
  status: ('A' for Active; 'I' for Inactive)
    1  A    between atoms: C_5  and  C_16
    2  A    between atoms: C_5  and  C_30
    3  A    between atoms: C_10  and  C_16
                            x       y       z     vdW  Elec       q    Type
                         _______ _______ _______ _____ _____    ______ ____

>  <TORSDO>
F 3

$$$$
=
 OpenBabel11112417043D

 31 35  0  0  1  0  0  0  0  0999 V2000
  185.3260  178.1790  145.0580 C   0  0  0  0  0  0  0  0  0  0  0  0
  189.0340  177.7870  144.2860 C   0  0  2  0  0  3  0  0  0  0  0  0
  189.5810  176.6640  145.1470 C   0  0  0  0  0  0  0  0  0  0  0  0
  189.4050  175.0830  146.9670 C   0  0  0  0  0  0  0  0  0  0  0  0
  187.5310  177.7810  144.1250 C   0  0  0  0  0  0  0  0  0  0  0  0
  184.7420  177.8180  143.8420 C   0  0  0  0  0  3  0  0  0  0  0  0
  188.8210  176.0550  146.1540 C   0  0  0  0  0  3  0  0  0  0  0  0
  189.1330  176.8640  141.8990 C   0  0  1  0  0  3  0  0  0  0  0  0
  184.5450  178.5440  146.1030 F   0  0  0  0  0  0  0  0  0  0  0  0
  191.7450  176.9190  143.9920 N   0  0  0  0  0  0  0  0  0  0  0  0
  188.6350  174.4500  147.9820 N   0  0  0  0  0  1  0  0  0  0  0  0
  187.7290  177.0940  141.7900 O   0  0  0  0  0  0  0  0  0  0  0  0
  189.7490  177.8460  142.9140 C   0  0  2  0  0  3  0  0  0  0  0  0
  186.7160  178.1650  145.1980 C   0  0  0  0  0  3  0  0  0  0  0  0
  190.7120  174.7470  146.7990 N   0  0  0  0  0  0  0  0  0  0  0  0
  186.9380  177.4290  142.8950 C   0  0  0  0  0  0  0  0  0  0  0  0
  185.5470  177.4490  142.7610 C   0  0  0  0  0  3  0  0  0  0  0  0
  191.2390  177.6580  143.0490 C   0  0  0  0  0  3  0  0  0  0  0  0
  190.9320  176.3010  144.9990 C   0  0  0  0  0  0  0  0  0  0  0  0
  191.4810  175.3340  145.8430 C   0  0  0  0  0  3  0  0  0  0  0  0
  189.3840  175.4070  142.2770 C   0  0  0  0  0  2  0  0  0  0  0  0
  188.1060  173.8950  140.9180 O   0  0  0  0  0  1  0  0  0  0  0  0
  189.3620  174.4910  141.0590 C   0  0  2  0  0  3  0  0  0  0  0  0
  191.6020  172.3940  143.7040 C   0  0  0  0  0  0  0  0  0  0  0  0
  190.0000  172.0690  141.6930 C   0  0  0  0  0  2  0  0  0  0  0  0
  192.3690  174.8500  141.1330 O   0  0  0  0  0  0  0  0  0  0  0  0
  192.2700  171.6520  144.5220 N   0  0  0  0  0  2  0  0  0  0  0  0
  189.8450  172.1320  143.5040 S   0  0  0  0  0  0  0  0  0  0  0  0
  191.7430  173.9290  141.7190 C   0  0  0  0  0  0  0  0  0  0  0  0
  190.4580  173.4170  141.1170 C   0  0  2  0  0  3  0  0  0  0  0  0
  192.2830  173.3800  142.9270 N   0  0  0  0  0  2  0  0  0  0  0  0
  1 14  1  0  0  0  0
  1  9  1  0  0  0  0
  2  5  1  6  0  0  0
  2  3  1  0  0  0  0
  3  7  1  0  0  0  0
  4 11  1  0  0  0  0
  5 14  2  0  0  0  0
  6  1  2  0  0  0  0
  7  4  2  0  0  0  0
  8 21  1  1  0  0  0
  8 13  1  0  0  0  0
 10 19  1  0  0  0  0
 12  8  1  0  0  0  0
 12 16  1  0  0  0  0
 13 18  1  1  0  0  0
 13  2  1  0  0  0  0
 15  4  1  0  0  0  0
 16  5  1  0  0  0  0
 17 16  2  0  0  0  0
 17  6  1  0  0  0  0
 18 10  2  0  0  0  0
 19  3  2  0  0  0  0
 19 20  1  0  0  0  0
 20 15  2  0  0  0  0
 23 22  1  1  0  0  0
 23 21  1  0  0  0  0
 24 27  2  0  0  0  0
 25 28  1  0  0  0  0
 26 29  2  0  0  0  0
 28 24  1  0  0  0  0
 29 31  1  0  0  0  0
 30 23  1  1  0  0  0
 30 25  1  0  0  0  0
 30 29  1  0  0  0  0
 31 24  1  0  0  0  0
M  END
>  <MODEL>
6

>  <REMARK>
 VINA RESULT:      -7.7      3.105      4.703
  Name = 
  3 active torsions:
  status: ('A' for Active; 'I' for Inactive)
    1  A    between atoms: C_5  and  C_16
    2  A    between atoms: C_5  and  C_30
    3  A    between atoms: C_10  and  C_16
                            x       y       z     vdW  Elec       q    Type
                         _______ _______ _______ _____ _____    ______ ____

>  <TORSDO>
F 3

$$$$
=
 OpenBabel11112417043D

 31 35  0  0  1  0  0  0  0  0999 V2000
  185.6750  178.2590  140.8400 C   0  0  0  0  0  0  0  0  0  0  0  0
  188.4230  178.0280  143.4660 C   0  0  2  0  0  3  0  0  0  0  0  0
  187.7780  177.6900  144.7970 C   0  0  0  0  0  0  0  0  0  0  0  0
  185.8550  177.4280  146.2380 C   0  0  0  0  0  0  0  0  0  0  0  0
  187.5690  177.7170  142.2570 C   0  0  0  0  0  0  0  0  0  0  0  0
  185.9930  177.1900  139.9990 C   0  0  0  0  0  3  0  0  0  0  0  0
  186.3880  177.6660  144.9710 C   0  0  0  0  0  3  0  0  0  0  0  0
  189.7630  175.9310  142.8580 C   0  0  1  0  0  3  0  0  0  0  0  0
  184.6030  179.0400  140.5650 F   0  0  0  0  0  0  0  0  0  0  0  0
  190.0350  177.5440  145.7800 N   0  0  0  0  0  0  0  0  0  0  0  0
  184.4440  177.3870  146.4180 N   0  0  0  0  0  1  0  0  0  0  0  0
  189.0240  175.8560  141.6400 O   0  0  0  0  0  0  0  0  0  0  0  0
  189.8290  177.3930  143.3420 C   0  0  2  0  0  3  0  0  0  0  0  0
  186.4640  178.5260  141.9620 C   0  0  0  0  0  3  0  0  0  0  0  0
  186.6800  177.2460  147.3030 N   0  0  0  0  0  0  0  0  0  0  0  0
  187.8940  176.6460  141.4000 C   0  0  0  0  0  0  0  0  0  0  0  0
  187.1030  176.3880  140.2770 C   0  0  0  0  0  3  0  0  0  0  0  0
  190.6210  177.5300  144.6190 C   0  0  0  0  0  3  0  0  0  0  0  0
  188.6080  177.5040  145.9170 C   0  0  0  0  0  0  0  0  0  0  0  0
  188.0330  177.2830  147.1700 C   0  0  0  0  0  3  0  0  0  0  0  0
  189.1330  175.0050  143.8960 C   0  0  0  0  0  2  0  0  0  0  0  0
  189.6910  173.1080  145.2570 O   0  0  0  0  0  1  0  0  0  0  0  0
  189.8710  173.6760  143.9930 C   0  0  2  0  0  3  0  0  0  0  0  0
  193.3710  171.6620  144.3120 C   0  0  0  0  0  0  0  0  0  0  0  0
  191.8770  172.8750  142.5760 C   0  0  0  0  0  2  0  0  0  0  0  0
  192.0900  174.7440  145.7570 O   0  0  0  0  0  0  0  0  0  0  0  0
  194.4870  171.0130  144.3230 N   0  0  0  0  0  2  0  0  0  0  0  0
  192.0730  171.1720  143.1840 S   0  0  0  0  0  0  0  0  0  0  0  0
  192.2250  173.8140  144.9200 C   0  0  0  0  0  0  0  0  0  0  0  0
  191.3670  173.8140  143.6790 C   0  0  2  0  0  3  0  0  0  0  0  0
  193.2050  172.7980  145.1600 N   0  0  0  0  0  2  0  0  0  0  0  0
  1 14  1  0  0  0  0
  2  5  1  6  0  0  0
  2  3  1  0  0  0  0
  3  7  2  0  0  0  0
  3 19  1  0  0  0  0
  4 11  1  0  0  0  0
  4 15  2  0  0  0  0
  6 17  1  0  0  0  0
  6  1  2  0  0  0  0
  7  4  1  0  0  0  0
  8 13  1  0  0  0  0
  8 21  1  1  0  0  0
  9  1  1  0  0  0  0
 10 19  1  0  0  0  0
 12  8  1  0  0  0  0
 13  2  1  0  0  0  0
 13 18  1  1  0  0  0
 14  5  2  0  0  0  0
 16 12  1  0  0  0  0
 16  5  1  0  0  0  0
 17 16  2  0  0  0  0
 18 10  2  0  0  0  0
 19 20  2  0  0  0  0
 20 15  1  0  0  0  0
 21 23  1  0  0  0  0
 23 22  1  1  0  0  0
 24 27  2  0  0  0  0
 24 31  1  0  0  0  0
 25 28  1  0  0  0  0
 25 30  1  0  0  0  0
 28 24  1  0  0  0  0
 29 31  1  0  0  0  0
 29 26  2  0  0  0  0
 30 23  1  1  0  0  0
 30 29  1  0  0  0  0
M  END
>  <MODEL>
7

>  <REMARK>
 VINA RESULT:      -7.4      3.238      4.844
  Name = 
  3 active torsions:
  status: ('A' for Active; 'I' for Inactive)
    1  A    between atoms: C_5  and  C_16
    2  A    between atoms: C_5  and  C_30
    3  A    between atoms: C_10  and  C_16
                            x       y       z     vdW  Elec       q    Type
                         _______ _______ _______ _____ _____    ______ ____

>  <TORSDO>
F 3

$$$$
=
 OpenBabel11112417043D

 31 35  0  0  1  0  0  0  0  0999 V2000
  184.9690  178.3860  144.8120 C   0  0  0  0  0  0  0  0  0  0  0  0
  188.7060  177.9170  144.2490 C   0  0  2  0  0  3  0  0  0  0  0  0
  189.1910  176.8210  145.1800 C   0  0  0  0  0  0  0  0  0  0  0  0
  188.8990  175.3160  147.0480 C   0  0  0  0  0  0  0  0  0  0  0  0
  187.2130  177.9230  144.0110 C   0  0  0  0  0  0  0  0  0  0  0  0
  184.4430  177.9850  143.5820 C   0  0  0  0  0  3  0  0  0  0  0  0
  188.3720  176.2630  146.1690 C   0  0  0  0  0  3  0  0  0  0  0  0
  188.9130  176.8990  141.9070 C   0  0  1  0  0  3  0  0  0  0  0  0
  184.1410  178.8010  145.8000 F   0  0  0  0  0  0  0  0  0  0  0  0
  191.4150  177.0040  144.1300 N   0  0  0  0  0  0  0  0  0  0  0  0
  188.0680  174.7340  148.0460 N   0  0  0  0  0  1  0  0  0  0  0  0
  187.5200  177.1430  141.7170 O   0  0  0  0  0  0  0  0  0  0  0  0
  189.4910  177.9130  142.9150 C   0  0  2  0  0  3  0  0  0  0  0  0
  186.3500  178.3600  145.0240 C   0  0  0  0  0  3  0  0  0  0  0  0
  190.2080  174.9570  146.9620 N   0  0  0  0  0  0  0  0  0  0  0  0
  186.6780  177.5310  142.7660 C   0  0  0  0  0  0  0  0  0  0  0  0
  185.2960  177.5630  142.5600 C   0  0  0  0  0  3  0  0  0  0  0  0
  190.9690  177.7110  143.1340 C   0  0  0  0  0  3  0  0  0  0  0  0
  190.5430  176.4370  145.1170 C   0  0  0  0  0  0  0  0  0  0  0  0
  191.0330  175.4960  146.0250 C   0  0  0  0  0  3  0  0  0  0  0  0
  189.1230  175.4540  142.3540 C   0  0  0  0  0  2  0  0  0  0  0  0
  187.9380  173.6640  141.2800 O   0  0  0  0  0  1  0  0  0  0  0  0
  189.0660  174.4820  141.1830 C   0  0  2  0  0  3  0  0  0  0  0  0
  190.4000  170.9800  139.6440 C   0  0  0  0  0  0  0  0  0  0  0  0
  190.9120  173.5210  139.6520 C   0  0  0  0  0  2  0  0  0  0  0  0
  190.0390  172.2810  143.0220 O   0  0  0  0  0  0  0  0  0  0  0  0
  190.8740  169.9130  139.0950 N   0  0  0  0  0  2  0  0  0  0  0  0
  189.9450  172.3750  138.6220 S   0  0  0  0  0  0  0  0  0  0  0  0
  190.2070  172.2990  141.7750 C   0  0  0  0  0  0  0  0  0  0  0  0
  190.3360  173.6270  141.0720 C   0  0  2  0  0  3  0  0  0  0  0  0
  190.2950  171.0580  141.0660 N   0  0  0  0  0  2  0  0  0  0  0  0
  1 14  1  0  0  0  0
  1  9  1  0  0  0  0
  2  5  1  6  0  0  0
  2  3  1  0  0  0  0
  3  7  1  0  0  0  0
  4 11  1  0  0  0  0
  5 14  2  0  0  0  0
  6  1  2  0  0  0  0
  7  4  2  0  0  0  0
  8 21  1  1  0  0  0
  8 13  1  0  0  0  0
 10 19  1  0  0  0  0
 12  8  1  0  0  0  0
 12 16  1  0  0  0  0
 13 18  1  1  0  0  0
 13  2  1  0  0  0  0
 15  4  1  0  0  0  0
 16  5  1  0  0  0  0
 17 16  2  0  0  0  0
 17  6  1  0  0  0  0
 18 10  2  0  0  0  0
 19  3  2  0  0  0  0
 19 20  1  0  0  0  0
 20 15  2  0  0  0  0
 23 22  1  1  0  0  0
 23 21  1  0  0  0  0
 24 31  1  0  0  0  0
 25 30  1  0  0  0  0
 27 24  2  0  0  0  0
 28 24  1  0  0  0  0
 28 25  1  0  0  0  0
 29 26  2  0  0  0  0
 30 23  1  6  0  0  0
 30 29  1  0  0  0  0
 31 29  1  0  0  0  0
M  END
>  <MODEL>
8

>  <REMARK>
 VINA RESULT:      -7.3      3.485      5.341
  Name = 
  3 active torsions:
  status: ('A' for Active; 'I' for Inactive)
    1  A    between atoms: C_5  and  C_16
    2  A    between atoms: C_5  and  C_30
    3  A    between atoms: C_10  and  C_16
                            x       y       z     vdW  Elec       q    Type
                         _______ _______ _______ _____ _____    ______ ____

>  <TORSDO>
F 3

$$$$
=
 OpenBabel11112417043D

 31 35  0  0  1  0  0  0  0  0999 V2000
  190.5390  172.9930  138.6690 C   0  0  0  0  0  0  0  0  0  0  0  0
  190.6340  173.6330  142.4220 C   0  0  2  0  0  3  0  0  0  0  0  0
  191.7720  174.5950  142.7080 C   0  0  0  0  0  0  0  0  0  0  0  0
  193.7610  175.8100  142.0680 C   0  0  0  0  0  0  0  0  0  0  0  0
  190.1680  173.6230  140.9840 C   0  0  0  0  0  0  0  0  0  0  0  0
  189.3090  173.5520  138.3150 C   0  0  0  0  0  3  0  0  0  0  0  0
  192.6890  174.9860  141.7240 C   0  0  0  0  0  3  0  0  0  0  0  0
  188.5170  174.9800  142.9310 C   0  0  1  0  0  3  0  0  0  0  0  0
  191.3190  172.4190  137.7210 F   0  0  0  0  0  0  0  0  0  0  0  0
  191.0660  174.6220  145.0710 N   0  0  0  0  0  0  0  0  0  0  0  0
  194.6870  176.2220  141.0690 N   0  0  0  0  0  1  0  0  0  0  0  0
  188.0800  174.7310  141.5950 O   0  0  0  0  0  0  0  0  0  0  0  0
  189.4530  173.8480  143.3970 C   0  0  2  0  0  3  0  0  0  0  0  0
  190.9650  173.0230  139.9990 C   0  0  0  0  0  3  0  0  0  0  0  0
  193.9300  176.2110  143.3560 N   0  0  0  0  0  0  0  0  0  0  0  0
  188.9220  174.1760  140.6240 C   0  0  0  0  0  0  0  0  0  0  0  0
  188.5000  174.1380  139.2920 C   0  0  0  0  0  3  0  0  0  0  0  0
  189.9250  174.0540  144.8140 C   0  0  0  0  0  3  0  0  0  0  0  0
  191.9730  175.0200  144.0340 C   0  0  0  0  0  0  0  0  0  0  0  0
  193.0670  175.8330  144.3370 C   0  0  0  0  0  3  0  0  0  0  0  0
  189.1850  176.3510  143.0020 C   0  0  0  0  0  2  0  0  0  0  0  0
  188.9680  177.9960  144.7370 O   0  0  0  0  0  1  0  0  0  0  0  0
  188.2930  177.3850  143.6770 C   0  0  2  0  0  3  0  0  0  0  0  0
  184.8880  178.3890  145.6290 C   0  0  0  0  0  0  0  0  0  0  0  0
  185.7230  177.2970  143.4310 C   0  0  0  0  0  2  0  0  0  0  0  0
  187.6510  176.1410  146.3640 O   0  0  0  0  0  0  0  0  0  0  0  0
  183.7590  178.6970  146.1720 N   0  0  0  0  0  2  0  0  0  0  0  0
  185.2650  178.9690  143.9800 S   0  0  0  0  0  0  0  0  0  0  0  0
  186.8390  176.8040  145.6690 C   0  0  0  0  0  0  0  0  0  0  0  0
  186.9690  176.7810  144.1670 C   0  0  2  0  0  3  0  0  0  0  0  0
  185.8020  177.5410  146.3270 N   0  0  0  0  0  2  0  0  0  0  0  0
  1 14  1  0  0  0  0
  2  5  1  6  0  0  0
  2  3  1  0  0  0  0
  2 13  1  0  0  0  0
  3 19  1  0  0  0  0
  4 15  2  0  0  0  0
  6  1  2  0  0  0  0
  6 17  1  0  0  0  0
  7  4  1  0  0  0  0
  7  3  2  0  0  0  0
  8 21  1  6  0  0  0
  8 13  1  0  0  0  0
  9  1  1  0  0  0  0
 11  4  1  0  0  0  0
 12  8  1  0  0  0  0
 13 18  1  1  0  0  0
 14  5  2  0  0  0  0
 15 20  1  0  0  0  0
 16  5  1  0  0  0  0
 16 12  1  0  0  0  0
 17 16  2  0  0  0  0
 18 10  2  0  0  0  0
 19 20  2  0  0  0  0
 19 10  1  0  0  0  0
 21 23  1  0  0  0  0
 23 22  1  1  0  0  0
 24 27  2  0  0  0  0
 24 31  1  0  0  0  0
 25 28  1  0  0  0  0
 25 30  1  0  0  0  0
 28 24  1  0  0  0  0
 29 31  1  0  0  0  0
 29 26  2  0  0  0  0
 30 23  1  1  0  0  0
 30 29  1  0  0  0  0
M  END
>  <MODEL>
9

>  <REMARK>
 VINA RESULT:      -7.2      3.905      7.552
  Name = 
  3 active torsions:
  status: ('A' for Active; 'I' for Inactive)
    1  A    between atoms: C_5  and  C_16
    2  A    between atoms: C_5  and  C_30
    3  A    between atoms: C_10  and  C_16
                            x       y       z     vdW  Elec       q    Type
                         _______ _______ _______ _____ _____    ______ ____

>  <TORSDO>
F 3

$$$$
