=
 OpenBabel11112417363D

 28 31  0  0  1  0  0  0  0  0999 V2000
  187.1100  177.9540  145.0460 C   0  0  0  0  0  0  0  0  0  0  0  0
  190.3160  178.0010  146.9270 O   0  0  0  0  0  0  0  0  0  0  0  0
  186.3360  176.5530  147.3450 C   0  0  0  0  0  3  0  0  0  0  0  0
  187.4110  178.6430  143.7490 C   0  0  0  0  0  2  0  0  0  0  0  0
  189.9990  175.6360  147.5680 O   0  0  0  0  0  0  0  0  0  0  0  0
  190.6670  176.5760  146.6040 S   0  0  0  0  0  0  0  0  0  0  0  0
  192.8110  174.9830  146.0300 C   0  0  2  0  0  3  0  0  0  0  0  0
  190.2710  176.2000  144.9590 N   0  0  1  0  0  0  0  0  0  0  0  0
  186.5390  177.2770  140.2590 C   0  0  0  0  0  1  0  0  0  0  0  0
  188.5570  174.9870  143.7190 C   0  0  2  0  0  3  0  0  0  0  0  0
  192.2080  174.7720  144.6310 C   0  0  0  0  0  2  0  0  0  0  0  0
  192.4350  176.3310  146.6680 C   0  0  0  0  0  2  0  0  0  0  0  0
  187.4410  177.6540  141.4170 C   0  0  2  0  0  3  0  0  0  0  0  0
  187.7920  176.7760  145.4160 C   0  0  0  0  0  0  0  0  0  0  0  0
  194.3180  174.8620  145.9560 C   0  0  0  0  0  1  0  0  0  0  0  0
  188.4570  176.5350  141.6800 C   0  0  0  0  0  2  0  0  0  0  0  0
  187.3770  176.0660  146.5500 C   0  0  0  0  0  3  0  0  0  0  0  0
  186.0650  178.4320  145.8440 C   0  0  0  0  0  3  0  0  0  0  0  0
  185.6880  177.7400  146.9980 C   0  0  0  0  0  3  0  0  0  0  0  0
  186.5880  178.0070  142.6360 C   0  0  0  0  0  2  0  0  0  0  0  0
  189.9180  174.3310  143.5250 C   0  0  1  0  0  3  0  0  0  0  0  0
  187.8380  175.3320  142.4020 C   0  0  1  0  0  3  0  0  0  0  0  0
  190.6890  174.8310  144.7330 C   0  0  2  0  0  3  0  0  0  0  0  0
  188.8720  176.2430  144.5170 C   0  0  1  0  0  3  0  0  0  0  0  0
  188.6340  174.5470  140.4910 C   0  0  0  0  0  1  0  0  0  0  0  0
  187.7830  174.2260  141.5500 O   0  0  0  0  0  0  0  0  0  0  0  0
  189.7670  172.8190  143.5720 C   0  0  0  0  0  2  0  0  0  0  0  0
  189.6270  172.3460  145.0060 C   0  0  0  0  0  1  0  0  0  0  0  0
  1 14  2  0  0  0  0
  1 18  1  0  0  0  0
  4  1  1  0  0  0  0
  6 12  1  0  0  0  0
  6  2  2  0  0  0  0
  6  5  2  0  0  0  0
  7 15  1  6  0  0  0
  7 12  1  0  0  0  0
  8  6  1  1  0  0  0
  9 13  1  0  0  0  0
 10 24  1  0  0  0  0
 11 23  1  0  0  0  0
 11  7  1  0  0  0  0
 13 16  1  0  0  0  0
 13 20  1  0  0  0  0
 14 17  1  0  0  0  0
 16 22  1  0  0  0  0
 17  3  2  0  0  0  0
 18 19  2  0  0  0  0
 19  3  1  0  0  0  0
 20  4  1  0  0  0  0
 21 27  1  0  0  0  0
 21 10  1  0  0  0  0
 21 23  1  0  0  0  0
 22 10  1  0  0  0  0
 23  8  1  0  0  0  0
 24  8  1  0  0  0  0
 24 14  1  0  0  0  0
 25 26  1  0  0  0  0
 26 22  1  0  0  0  0
 27 28  1  0  0  0  0
M  END
>  <MODEL>
1

>  <REMARK>
 VINA RESULT:      -7.7      0.000      0.000
  Name = 
  2 active torsions:
  status: ('A' for Active; 'I' for Inactive)
    1  A    between atoms: C_5  and  C_24
    2  A    between atoms: O_17  and  C_25
                            x       y       z     vdW  Elec       q    Type
                         _______ _______ _______ _____ _____    ______ ____

>  <TORSDO>
F 2

$$$$
=
 OpenBabel11112417363D

 28 31  0  0  1  0  0  0  0  0999 V2000
  191.3150  173.9360  142.0750 C   0  0  0  0  0  0  0  0  0  0  0  0
  188.1840  175.3870  140.6920 O   0  0  0  0  0  0  0  0  0  0  0  0
  189.5150  171.8880  142.7160 C   0  0  0  0  0  3  0  0  0  0  0  0
  192.3650  174.9790  141.8340 C   0  0  0  0  0  2  0  0  0  0  0  0
  186.9350  174.6550  142.6940 O   0  0  0  0  0  0  0  0  0  0  0  0
  187.6420  175.8040  142.0300 S   0  0  0  0  0  0  0  0  0  0  0  0
  186.2130  177.8000  143.2260 C   0  0  2  0  0  3  0  0  0  0  0  0
  188.9000  176.4510  143.0310 N   0  0  1  0  0  0  0  0  0  0  0  0
  194.8200  176.3050  144.4840 C   0  0  0  0  0  1  0  0  0  0  0  0
  190.2590  175.7680  144.9360 C   0  0  2  0  0  3  0  0  0  0  0  0
  187.4750  178.1430  144.0350 C   0  0  0  0  0  2  0  0  0  0  0  0
  186.5090  177.1720  141.8540 C   0  0  0  0  0  2  0  0  0  0  0  0
  193.6320  176.3540  143.5430 C   0  0  2  0  0  3  0  0  0  0  0  0
  190.1870  174.2150  142.8750 C   0  0  0  0  0  0  0  0  0  0  0  0
  185.3750  179.0470  143.0410 C   0  0  0  0  0  1  0  0  0  0  0  0
  192.4190  176.9660  144.2560 C   0  0  0  0  0  2  0  0  0  0  0  0
  189.3110  173.1770  143.2160 C   0  0  0  0  0  3  0  0  0  0  0  0
  191.5160  172.6420  141.5830 C   0  0  0  0  0  3  0  0  0  0  0  0
  190.6110  171.6230  141.8920 C   0  0  0  0  0  3  0  0  0  0  0  0
  193.3710  174.9570  142.9780 C   0  0  0  0  0  2  0  0  0  0  0  0
  189.3730  176.9480  145.3120 C   0  0  1  0  0  3  0  0  0  0  0  0
  191.7540  175.9910  145.2340 C   0  0  1  0  0  3  0  0  0  0  0  0
  188.2730  176.8660  144.2700 C   0  0  2  0  0  3  0  0  0  0  0  0
  190.0180  175.5950  143.4440 C   0  0  1  0  0  3  0  0  0  0  0  0
  192.2560  175.2450  147.2580 C   0  0  0  0  0  1  0  0  0  0  0  0
  191.9510  176.4100  146.5520 O   0  0  0  0  0  0  0  0  0  0  0  0
  188.8080  176.7380  146.7080 C   0  0  0  0  0  2  0  0  0  0  0  0
  188.5870  175.2610  146.9720 C   0  0  0  0  0  1  0  0  0  0  0  0
  1 14  1  0  0  0  0
  2  6  2  0  0  0  0
  3 17  1  0  0  0  0
  4  1  1  0  0  0  0
  4 20  1  0  0  0  0
  6  5  2  0  0  0  0
  7 15  1  6  0  0  0
  7 11  1  0  0  0  0
  8  6  1  6  0  0  0
  8 24  1  0  0  0  0
  8 23  1  0  0  0  0
 10 22  1  0  0  0  0
 10 21  1  0  0  0  0
 11 23  1  0  0  0  0
 12  6  1  0  0  0  0
 12  7  1  0  0  0  0
 13 16  1  0  0  0  0
 13  9  1  0  0  0  0
 14 17  2  0  0  0  0
 14 24  1  0  0  0  0
 16 22  1  0  0  0  0
 18 19  1  0  0  0  0
 18  1  2  0  0  0  0
 19  3  2  0  0  0  0
 20 13  1  0  0  0  0
 21 27  1  0  0  0  0
 22 26  1  0  0  0  0
 23 21  1  0  0  0  0
 24 10  1  0  0  0  0
 26 25  1  0  0  0  0
 27 28  1  0  0  0  0
M  END
>  <MODEL>
2

>  <REMARK>
 VINA RESULT:      -7.6      2.063      6.369
  Name = 
  2 active torsions:
  status: ('A' for Active; 'I' for Inactive)
    1  A    between atoms: C_5  and  C_24
    2  A    between atoms: O_17  and  C_25
                            x       y       z     vdW  Elec       q    Type
                         _______ _______ _______ _____ _____    ______ ____

>  <TORSDO>
F 2

$$$$
=
 OpenBabel11112417363D

 28 31  0  0  1  0  0  0  0  0999 V2000
  191.8770  174.1380  144.7430 C   0  0  0  0  0  0  0  0  0  0  0  0
  189.7720  176.0400  147.1450 O   0  0  0  0  0  0  0  0  0  0  0  0
  193.0660  176.6660  144.5240 C   0  0  0  0  0  3  0  0  0  0  0  0
  191.3000  172.7550  144.7310 C   0  0  0  0  0  2  0  0  0  0  0  0
  189.6650  177.9460  145.5760 O   0  0  0  0  0  0  0  0  0  0  0  0
  188.9570  176.7190  146.0800 S   0  0  0  0  0  0  0  0  0  0  0  0
  186.4160  177.5730  145.5560 C   0  0  2  0  0  3  0  0  0  0  0  0
  188.5790  175.6190  144.7950 N   0  0  1  0  0  0  0  0  0  0  0  0
  190.3750  170.7660  141.5700 C   0  0  0  0  0  1  0  0  0  0  0  0
  189.2980  175.1530  142.5120 C   0  0  2  0  0  3  0  0  0  0  0  0
  186.3580  176.5310  144.4270 C   0  0  0  0  0  2  0  0  0  0  0  0
  187.3520  177.1820  146.7120 C   0  0  0  0  0  2  0  0  0  0  0  0
  190.1190  171.5640  142.8330 C   0  0  2  0  0  3  0  0  0  0  0  0
  191.1010  175.2510  144.3580 C   0  0  0  0  0  0  0  0  0  0  0  0
  185.0220  177.8140  146.0950 C   0  0  0  0  0  1  0  0  0  0  0  0
  189.0220  172.6070  142.5850 C   0  0  0  0  0  2  0  0  0  0  0  0
  191.7120  176.5040  144.2210 C   0  0  0  0  0  3  0  0  0  0  0  0
  193.2350  174.3070  145.0380 C   0  0  0  0  0  3  0  0  0  0  0  0
  193.8240  175.5700  144.9420 C   0  0  0  0  0  3  0  0  0  0  0  0
  191.4330  172.1630  143.3330 C   0  0  0  0  0  2  0  0  0  0  0  0
  187.8440  175.6080  142.5290 C   0  0  1  0  0  3  0  0  0  0  0  0
  189.5230  173.8150  141.7850 C   0  0  1  0  0  3  0  0  0  0  0  0
  187.7580  176.3490  143.8510 C   0  0  2  0  0  3  0  0  0  0  0  0
  189.6600  175.0440  143.9860 C   0  0  1  0  0  3  0  0  0  0  0  0
  190.0310  173.7260  139.6320 C   0  0  0  0  0  1  0  0  0  0  0  0
  188.9510  173.8280  140.5100 O   0  0  0  0  0  0  0  0  0  0  0  0
  187.5920  176.5540  141.3660 C   0  0  0  0  0  2  0  0  0  0  0  0
  188.2580  177.8930  141.6180 C   0  0  0  0  0  1  0  0  0  0  0  0
  1 18  1  0  0  0  0
  3 19  1  0  0  0  0
  4  1  1  0  0  0  0
  5  6  2  0  0  0  0
  6 12  1  0  0  0  0
  6  2  2  0  0  0  0
  7 15  1  1  0  0  0
  7 12  1  0  0  0  0
  8  6  1  1  0  0  0
  9 13  1  0  0  0  0
 10 21  1  0  0  0  0
 10 24  1  0  0  0  0
 11  7  1  0  0  0  0
 13 20  1  0  0  0  0
 14  1  2  0  0  0  0
 16 13  1  0  0  0  0
 17 14  1  0  0  0  0
 17  3  2  0  0  0  0
 19 18  2  0  0  0  0
 20  4  1  0  0  0  0
 21 23  1  0  0  0  0
 22 10  1  0  0  0  0
 22 16  1  0  0  0  0
 23 11  1  0  0  0  0
 23  8  1  0  0  0  0
 24 14  1  0  0  0  0
 24  8  1  0  0  0  0
 25 26  1  0  0  0  0
 26 22  1  0  0  0  0
 27 28  1  0  0  0  0
 27 21  1  0  0  0  0
M  END
>  <MODEL>
3

>  <REMARK>
 VINA RESULT:      -7.6      1.480      5.455
  Name = 
  2 active torsions:
  status: ('A' for Active; 'I' for Inactive)
    1  A    between atoms: C_5  and  C_24
    2  A    between atoms: O_17  and  C_25
                            x       y       z     vdW  Elec       q    Type
                         _______ _______ _______ _____ _____    ______ ____

>  <TORSDO>
F 2

$$$$
=
 OpenBabel11112417363D

 28 31  0  0  1  0  0  0  0  0999 V2000
  191.5290  174.0450  142.7570 C   0  0  0  0  0  0  0  0  0  0  0  0
  188.6830  175.2080  140.6670 O   0  0  0  0  0  0  0  0  0  0  0  0
  189.8420  171.8180  142.9640 C   0  0  0  0  0  3  0  0  0  0  0  0
  192.4960  175.1910  142.7670 C   0  0  0  0  0  2  0  0  0  0  0  0
  187.0770  174.3180  142.3210 O   0  0  0  0  0  0  0  0  0  0  0  0
  187.8020  175.5430  141.8380 S   0  0  0  0  0  0  0  0  0  0  0  0
  185.9380  177.3660  142.6540 C   0  0  2  0  0  3  0  0  0  0  0  0
  188.7170  176.2920  143.1050 N   0  0  1  0  0  0  0  0  0  0  0  0
  194.1130  176.7000  145.9150 C   0  0  0  0  0  1  0  0  0  0  0  0
  189.6510  175.7080  145.2800 C   0  0  2  0  0  3  0  0  0  0  0  0
  186.9330  177.8150  143.7360 C   0  0  0  0  0  2  0  0  0  0  0  0
  186.6110  176.7970  141.3930 C   0  0  0  0  0  2  0  0  0  0  0  0
  193.1810  176.6490  144.7210 C   0  0  2  0  0  3  0  0  0  0  0  0
  190.2220  174.1960  143.2670 C   0  0  0  0  0  0  0  0  0  0  0  0
  185.0480  178.5280  142.2710 C   0  0  0  0  0  1  0  0  0  0  0  0
  191.7790  177.1260  145.1240 C   0  0  0  0  0  2  0  0  0  0  0  0
  189.3980  173.0700  143.3960 C   0  0  0  0  0  3  0  0  0  0  0  0
  191.9680  172.7860  142.3330 C   0  0  0  0  0  3  0  0  0  0  0  0
  191.1220  171.6780  142.4240 C   0  0  0  0  0  3  0  0  0  0  0  0
  193.2010  175.2450  144.1160 C   0  0  0  0  0  2  0  0  0  0  0  0
  188.5880  176.7880  145.4310 C   0  0  1  0  0  3  0  0  0  0  0  0
  191.0030  176.0710  145.9220 C   0  0  1  0  0  3  0  0  0  0  0  0
  187.7780  176.6190  144.1590 C   0  0  2  0  0  3  0  0  0  0  0  0
  189.7860  175.5410  143.7740 C   0  0  1  0  0  3  0  0  0  0  0  0
  191.1350  175.3520  148.0120 C   0  0  0  0  0  1  0  0  0  0  0  0
  190.8410  176.4820  147.2470 O   0  0  0  0  0  0  0  0  0  0  0  0
  187.7340  176.4970  146.6550 C   0  0  0  0  0  2  0  0  0  0  0  0
  187.1800  177.7850  147.2330 C   0  0  0  0  0  1  0  0  0  0  0  0
  1  4  1  0  0  0  0
  1 14  1  0  0  0  0
  2  6  2  0  0  0  0
  3 17  1  0  0  0  0
  4 20  1  0  0  0  0
  6  5  2  0  0  0  0
  7 15  1  6  0  0  0
  7 11  1  0  0  0  0
  8  6  1  6  0  0  0
  8 24  1  0  0  0  0
  8 23  1  0  0  0  0
 10 21  1  0  0  0  0
 10 22  1  0  0  0  0
 11 23  1  0  0  0  0
 12  6  1  0  0  0  0
 12  7  1  0  0  0  0
 13 16  1  0  0  0  0
 13  9  1  0  0  0  0
 14 17  2  0  0  0  0
 14 24  1  0  0  0  0
 16 22  1  0  0  0  0
 18 19  1  0  0  0  0
 18  1  2  0  0  0  0
 19  3  2  0  0  0  0
 20 13  1  0  0  0  0
 21 27  1  0  0  0  0
 22 26  1  0  0  0  0
 23 21  1  0  0  0  0
 24 10  1  0  0  0  0
 26 25  1  0  0  0  0
 27 28  1  0  0  0  0
M  END
>  <MODEL>
4

>  <REMARK>
 VINA RESULT:      -7.6      1.862      6.501
  Name = 
  2 active torsions:
  status: ('A' for Active; 'I' for Inactive)
    1  A    between atoms: C_5  and  C_24
    2  A    between atoms: O_17  and  C_25
                            x       y       z     vdW  Elec       q    Type
                         _______ _______ _______ _____ _____    ______ ____

>  <TORSDO>
F 2

$$$$
=
 OpenBabel11112417363D

 28 31  0  0  1  0  0  0  0  0999 V2000
  186.2040  176.7930  143.2250 C   0  0  0  0  0  0  0  0  0  0  0  0
  187.2210  173.5310  141.7610 O   0  0  0  0  0  0  0  0  0  0  0  0
  187.1990  177.6660  140.7550 C   0  0  0  0  0  3  0  0  0  0  0  0
  185.6920  176.4610  144.5940 C   0  0  0  0  0  2  0  0  0  0  0  0
  189.3160  174.5360  140.9220 O   0  0  0  0  0  0  0  0  0  0  0  0
  188.6860  173.7310  142.0240 S   0  0  0  0  0  0  0  0  0  0  0  0
  190.9340  172.3550  142.7450 C   0  0  2  0  0  3  0  0  0  0  0  0
  188.9410  174.4570  143.5770 N   0  0  1  0  0  0  0  0  0  0  0  0
  186.7540  178.2230  147.8460 C   0  0  0  0  0  1  0  0  0  0  0  0
  189.5180  176.6350  144.5090 C   0  0  2  0  0  3  0  0  0  0  0  0
  190.9560  173.1820  144.0410 C   0  0  0  0  0  2  0  0  0  0  0  0
  189.5240  172.1600  142.1610 C   0  0  0  0  0  2  0  0  0  0  0  0
  186.6850  177.0930  146.8370 C   0  0  2  0  0  3  0  0  0  0  0  0
  187.5360  176.5050  142.8600 C   0  0  0  0  0  0  0  0  0  0  0  0
  191.5680  171.0040  142.9960 C   0  0  0  0  0  1  0  0  0  0  0  0
  188.0790  176.4900  146.6230 C   0  0  0  0  0  2  0  0  0  0  0  0
  188.0320  176.9730  141.6370 C   0  0  0  0  0  3  0  0  0  0  0  0
  185.3770  177.4930  142.3390 C   0  0  0  0  0  3  0  0  0  0  0  0
  185.8690  177.9160  141.1020 C   0  0  0  0  0  3  0  0  0  0  0  0
  186.0310  177.5980  145.5500 C   0  0  0  0  0  2  0  0  0  0  0  0
  190.6080  175.6180  144.8230 C   0  0  1  0  0  3  0  0  0  0  0  0
  188.9780  177.3720  145.7480 C   0  0  1  0  0  3  0  0  0  0  0  0
  190.3750  174.5620  143.7570 C   0  0  2  0  0  3  0  0  0  0  0  0
  188.4290  175.8060  143.8450 C   0  0  1  0  0  3  0  0  0  0  0  0
  190.0990  177.1010  147.6380 C   0  0  0  0  0  1  0  0  0  0  0  0
  190.0160  177.9160  146.5080 O   0  0  0  0  0  0  0  0  0  0  0  0
  191.9740  176.2630  144.6520 C   0  0  0  0  0  2  0  0  0  0  0  0
  191.9830  177.1660  143.4330 C   0  0  0  0  0  1  0  0  0  0  0  0
  1  4  1  0  0  0  0
  2  6  2  0  0  0  0
  3 19  2  0  0  0  0
  3 17  1  0  0  0  0
  4 20  1  0  0  0  0
  5  6  2  0  0  0  0
  6 12  1  0  0  0  0
  7 15  1  1  0  0  0
  7 11  1  0  0  0  0
  8  6  1  6  0  0  0
  8 23  1  0  0  0  0
  8 24  1  0  0  0  0
 10 21  1  0  0  0  0
 10 22  1  0  0  0  0
 12  7  1  0  0  0  0
 13  9  1  0  0  0  0
 14  1  1  0  0  0  0
 14 24  1  0  0  0  0
 16 13  1  0  0  0  0
 17 14  2  0  0  0  0
 18  1  2  0  0  0  0
 19 18  1  0  0  0  0
 20 13  1  0  0  0  0
 22 26  1  0  0  0  0
 22 16  1  0  0  0  0
 23 11  1  0  0  0  0
 23 21  1  0  0  0  0
 24 10  1  0  0  0  0
 26 25  1  0  0  0  0
 27 21  1  0  0  0  0
 28 27  1  0  0  0  0
M  END
>  <MODEL>
5

>  <REMARK>
 VINA RESULT:      -7.4      1.882      4.949
  Name = 
  2 active torsions:
  status: ('A' for Active; 'I' for Inactive)
    1  A    between atoms: C_5  and  C_24
    2  A    between atoms: O_17  and  C_25
                            x       y       z     vdW  Elec       q    Type
                         _______ _______ _______ _____ _____    ______ ____

>  <TORSDO>
F 2

$$$$
=
 OpenBabel11112417363D

 28 31  0  0  1  0  0  0  0  0999 V2000
  188.6960  176.7020  145.7660 C   0  0  0  0  0  0  0  0  0  0  0  0
  192.2670  177.1660  146.6900 O   0  0  0  0  0  0  0  0  0  0  0  0
  189.1100  174.3690  147.2610 C   0  0  0  0  0  3  0  0  0  0  0  0
  188.3610  177.8840  144.9060 C   0  0  0  0  0  2  0  0  0  0  0  0
  192.7210  174.7840  146.2130 O   0  0  0  0  0  0  0  0  0  0  0  0
  192.7830  176.1860  145.6740 S   0  0  0  0  0  0  0  0  0  0  0  0
  194.8780  175.7840  143.9670 C   0  0  2  0  0  3  0  0  0  0  0  0
  191.9230  176.3380  144.1770 N   0  0  1  0  0  0  0  0  0  0  0  0
  186.6320  177.7080  141.4730 C   0  0  0  0  0  1  0  0  0  0  0  0
  190.1910  175.1580  142.9310 C   0  0  2  0  0  3  0  0  0  0  0  0
  193.8810  175.9150  142.8030 C   0  0  0  0  0  2  0  0  0  0  0  0
  194.4670  176.5720  145.2230 C   0  0  0  0  0  2  0  0  0  0  0  0
  187.7810  177.9160  142.4410 C   0  0  2  0  0  3  0  0  0  0  0  0
  189.7040  175.7920  145.3860 C   0  0  0  0  0  0  0  0  0  0  0  0
  196.2490  176.2370  143.5130 C   0  0  0  0  0  1  0  0  0  0  0  0
  189.0420  177.2130  141.9220 C   0  0  0  0  0  2  0  0  0  0  0  0
  189.8820  174.6130  146.1220 C   0  0  0  0  0  3  0  0  0  0  0  0
  187.9230  176.4480  146.9040 C   0  0  0  0  0  3  0  0  0  0  0  0
  188.1390  175.2910  147.6570 C   0  0  0  0  0  3  0  0  0  0  0  0
  187.3580  177.4640  143.8390 C   0  0  0  0  0  2  0  0  0  0  0  0
  191.5030  175.1450  142.1580 C   0  0  1  0  0  3  0  0  0  0  0  0
  188.9960  175.6930  142.1210 C   0  0  1  0  0  3  0  0  0  0  0  0
  192.5220  175.3940  143.2550 C   0  0  2  0  0  3  0  0  0  0  0  0
  190.4850  176.0490  144.1280 C   0  0  1  0  0  3  0  0  0  0  0  0
  188.1320  173.8990  141.1540 C   0  0  0  0  0  1  0  0  0  0  0  0
  188.8860  175.0430  140.8890 O   0  0  0  0  0  0  0  0  0  0  0  0
  191.7130  173.7760  141.5310 C   0  0  0  0  0  2  0  0  0  0  0  0
  191.4170  172.6810  142.5390 C   0  0  0  0  0  1  0  0  0  0  0  0
  1 18  1  0  0  0  0
  3 19  1  0  0  0  0
  4  1  1  0  0  0  0
  6  5  2  0  0  0  0
  6  2  2  0  0  0  0
  7 15  1  6  0  0  0
  7 12  1  0  0  0  0
  8  6  1  1  0  0  0
  9 13  1  0  0  0  0
 10 24  1  0  0  0  0
 11 23  1  0  0  0  0
 11  7  1  0  0  0  0
 12  6  1  0  0  0  0
 13 20  1  0  0  0  0
 14  1  2  0  0  0  0
 14 17  1  0  0  0  0
 16 22  1  0  0  0  0
 16 13  1  0  0  0  0
 17  3  2  0  0  0  0
 18 19  2  0  0  0  0
 20  4  1  0  0  0  0
 21 10  1  0  0  0  0
 21 23  1  0  0  0  0
 22 10  1  0  0  0  0
 23  8  1  0  0  0  0
 24  8  1  0  0  0  0
 24 14  1  0  0  0  0
 26 25  1  0  0  0  0
 26 22  1  0  0  0  0
 27 21  1  0  0  0  0
 27 28  1  0  0  0  0
M  END
>  <MODEL>
6

>  <REMARK>
 VINA RESULT:      -7.3      1.868      2.378
  Name = 
  2 active torsions:
  status: ('A' for Active; 'I' for Inactive)
    1  A    between atoms: C_5  and  C_24
    2  A    between atoms: O_17  and  C_25
                            x       y       z     vdW  Elec       q    Type
                         _______ _______ _______ _____ _____    ______ ____

>  <TORSDO>
F 2

$$$$
=
 OpenBabel11112417363D

 28 31  0  0  1  0  0  0  0  0999 V2000
  187.7850  176.9800  144.7330 C   0  0  0  0  0  0  0  0  0  0  0  0
  187.1200  174.1740  142.3880 O   0  0  0  0  0  0  0  0  0  0  0  0
  187.2790  178.4270  142.3880 C   0  0  0  0  0  3  0  0  0  0  0  0
  188.1240  176.3230  146.0380 C   0  0  0  0  0  2  0  0  0  0  0  0
  188.4640  175.2890  140.6390 O   0  0  0  0  0  0  0  0  0  0  0  0
  188.4670  174.2480  141.7250 S   0  0  0  0  0  0  0  0  0  0  0  0
  190.4050  172.6560  140.6440 C   0  0  2  0  0  3  0  0  0  0  0  0
  189.7150  174.5390  142.8920 N   0  0  1  0  0  0  0  0  0  0  0  0
  191.1980  177.1470  148.2010 C   0  0  0  0  0  1  0  0  0  0  0  0
  191.1200  176.3810  143.6510 C   0  0  2  0  0  3  0  0  0  0  0  0
  191.3380  173.1190  141.7750 C   0  0  0  0  0  2  0  0  0  0  0  0
  188.9160  172.6670  141.0270 C   0  0  0  0  0  2  0  0  0  0  0  0
  190.3410  176.3200  147.2630 C   0  0  2  0  0  3  0  0  0  0  0  0
  188.5660  176.7500  143.5820 C   0  0  0  0  0  0  0  0  0  0  0  0
  190.8020  171.2650  140.1980 C   0  0  0  0  0  1  0  0  0  0  0  0
  191.2010  175.7440  146.1310 C   0  0  0  0  0  2  0  0  0  0  0  0
  188.3250  177.5010  142.4240 C   0  0  0  0  0  3  0  0  0  0  0  0
  186.7430  177.9130  144.6910 C   0  0  0  0  0  3  0  0  0  0  0  0
  186.4820  178.6250  143.5180 C   0  0  0  0  0  3  0  0  0  0  0  0
  189.1630  177.1620  146.7710 C   0  0  0  0  0  2  0  0  0  0  0  0
  191.9740  175.2800  143.0360 C   0  0  1  0  0  3  0  0  0  0  0  0
  191.5590  176.7910  145.0690 C   0  0  1  0  0  3  0  0  0  0  0  0
  190.9690  174.5450  142.1680 C   0  0  2  0  0  3  0  0  0  0  0  0
  189.7190  175.7900  143.6600 C   0  0  1  0  0  3  0  0  0  0  0  0
  193.4800  176.0880  145.9170 C   0  0  0  0  0  1  0  0  0  0  0  0
  192.9240  177.0840  145.1120 O   0  0  0  0  0  0  0  0  0  0  0  0
  193.0690  175.9000  142.1820 C   0  0  0  0  0  2  0  0  0  0  0  0
  194.3920  175.2020  142.4310 C   0  0  0  0  0  1  0  0  0  0  0  0
  1  4  1  0  0  0  0
  3 17  2  0  0  0  0
  3 19  1  0  0  0  0
  4 20  1  0  0  0  0
  5  6  2  0  0  0  0
  6  2  2  0  0  0  0
  7 15  1  1  0  0  0
  7 12  1  0  0  0  0
  7 11  1  0  0  0  0
  8  6  1  6  0  0  0
  8 24  1  0  0  0  0
 10 24  1  0  0  0  0
 10 22  1  0  0  0  0
 11 23  1  0  0  0  0
 12  6  1  0  0  0  0
 13  9  1  0  0  0  0
 14 24  1  0  0  0  0
 14  1  2  0  0  0  0
 16 13  1  0  0  0  0
 17 14  1  0  0  0  0
 18  1  1  0  0  0  0
 19 18  2  0  0  0  0
 20 13  1  0  0  0  0
 21 10  1  0  0  0  0
 22 26  1  0  0  0  0
 22 16  1  0  0  0  0
 23  8  1  0  0  0  0
 23 21  1  0  0  0  0
 26 25  1  0  0  0  0
 27 28  1  0  0  0  0
 27 21  1  0  0  0  0
M  END
>  <MODEL>
7

>  <REMARK>
 VINA RESULT:      -7.1      2.257      5.264
  Name = 
  2 active torsions:
  status: ('A' for Active; 'I' for Inactive)
    1  A    between atoms: C_5  and  C_24
    2  A    between atoms: O_17  and  C_25
                            x       y       z     vdW  Elec       q    Type
                         _______ _______ _______ _____ _____    ______ ____

>  <TORSDO>
F 2

$$$$
=
 OpenBabel11112417363D

 28 31  0  0  1  0  0  0  0  0999 V2000
  190.6810  176.7420  145.5890 C   0  0  0  0  0  0  0  0  0  0  0  0
  194.2630  177.6940  145.2960 O   0  0  0  0  0  0  0  0  0  0  0  0
  191.6560  175.6860  147.9950 C   0  0  0  0  0  3  0  0  0  0  0  0
  190.0480  177.2170  144.3160 C   0  0  0  0  0  2  0  0  0  0  0  0
  194.9440  175.4730  146.1380 O   0  0  0  0  0  0  0  0  0  0  0  0
  194.7230  176.3160  144.9130 S   0  0  0  0  0  0  0  0  0  0  0  0
  196.5280  175.0370  143.3100 C   0  0  2  0  0  3  0  0  0  0  0  0
  193.6070  175.5750  143.8140 N   0  0  1  0  0  0  0  0  0  0  0  0
  187.7950  175.0900  142.0350 C   0  0  0  0  0  1  0  0  0  0  0  0
  191.8610  173.8740  143.8470 C   0  0  2  0  0  3  0  0  0  0  0  0
  195.3390  174.4670  142.5200 C   0  0  0  0  0  2  0  0  0  0  0  0
  196.2380  176.3960  143.9700 C   0  0  0  0  0  2  0  0  0  0  0  0
  189.0540  175.8280  142.4460 C   0  0  2  0  0  3  0  0  0  0  0  0
  191.7220  175.7910  145.5710 C   0  0  0  0  0  0  0  0  0  0  0  0
  197.7280  175.1660  142.3960 C   0  0  0  0  0  1  0  0  0  0  0  0
  190.2900  174.9700  142.1460 C   0  0  0  0  0  2  0  0  0  0  0  0
  192.1800  175.2460  146.7770 C   0  0  0  0  0  3  0  0  0  0  0  0
  190.1570  177.1740  146.8130 C   0  0  0  0  0  3  0  0  0  0  0  0
  190.6520  176.6570  148.0130 C   0  0  0  0  0  3  0  0  0  0  0  0
  188.9420  176.2510  143.9110 C   0  0  0  0  0  2  0  0  0  0  0  0
  193.0100  173.4370  142.9480 C   0  0  1  0  0  3  0  0  0  0  0  0
  190.4830  173.8360  143.1590 C   0  0  1  0  0  3  0  0  0  0  0  0
  194.1600  174.2810  143.4680 C   0  0  2  0  0  3  0  0  0  0  0  0
  192.2340  175.2930  144.2490 C   0  0  1  0  0  3  0  0  0  0  0  0
  189.3800  171.9340  143.4210 C   0  0  0  0  0  1  0  0  0  0  0  0
  190.2520  172.5970  142.5560 O   0  0  0  0  0  0  0  0  0  0  0  0
  193.2910  171.9580  143.1590 C   0  0  0  0  0  2  0  0  0  0  0  0
  193.4400  171.6540  144.6380 C   0  0  0  0  0  1  0  0  0  0  0  0
  1 18  1  0  0  0  0
  3 19  1  0  0  0  0
  4  1  1  0  0  0  0
  6  2  2  0  0  0  0
  6  5  2  0  0  0  0
  7 15  1  6  0  0  0
  7 12  1  0  0  0  0
  8 24  1  0  0  0  0
  8  6  1  1  0  0  0
  9 13  1  0  0  0  0
 10 24  1  0  0  0  0
 11  7  1  0  0  0  0
 11 23  1  0  0  0  0
 12  6  1  0  0  0  0
 13 20  1  0  0  0  0
 14  1  2  0  0  0  0
 14 17  1  0  0  0  0
 16 13  1  0  0  0  0
 16 22  1  0  0  0  0
 17  3  2  0  0  0  0
 18 19  2  0  0  0  0
 20  4  1  0  0  0  0
 21 27  1  0  0  0  0
 21 23  1  0  0  0  0
 21 10  1  0  0  0  0
 22 10  1  0  0  0  0
 23  8  1  0  0  0  0
 24 14  1  0  0  0  0
 26 22  1  0  0  0  0
 26 25  1  0  0  0  0
 27 28  1  0  0  0  0
M  END
>  <MODEL>
8

>  <REMARK>
 VINA RESULT:      -7.1      2.783      3.984
  Name = 
  2 active torsions:
  status: ('A' for Active; 'I' for Inactive)
    1  A    between atoms: C_5  and  C_24
    2  A    between atoms: O_17  and  C_25
                            x       y       z     vdW  Elec       q    Type
                         _______ _______ _______ _____ _____    ______ ____

>  <TORSDO>
F 2

$$$$
=
 OpenBabel11112417363D

 28 31  0  0  1  0  0  0  0  0999 V2000
  189.0620  176.5320  144.8280 C   0  0  0  0  0  0  0  0  0  0  0  0
  188.5870  173.2910  143.0700 O   0  0  0  0  0  0  0  0  0  0  0  0
  189.3160  177.3860  142.1720 C   0  0  0  0  0  3  0  0  0  0  0  0
  188.9970  176.1950  146.2870 C   0  0  0  0  0  2  0  0  0  0  0  0
  190.4390  173.8320  141.5260 O   0  0  0  0  0  0  0  0  0  0  0  0
  190.0480  173.0960  142.7780 S   0  0  0  0  0  0  0  0  0  0  0  0
  191.9500  171.1430  142.6120 C   0  0  2  0  0  3  0  0  0  0  0  0
  191.0180  173.5710  144.1330 N   0  0  1  0  0  0  0  0  0  0  0  0
  191.5670  177.2920  148.9330 C   0  0  0  0  0  1  0  0  0  0  0  0
  192.4450  175.4310  144.8030 C   0  0  2  0  0  3  0  0  0  0  0  0
  192.6480  171.7990  143.8150 C   0  0  0  0  0  2  0  0  0  0  0  0
  190.4280  171.3620  142.5860 C   0  0  0  0  0  2  0  0  0  0  0  0
  190.8470  176.3260  148.0120 C   0  0  2  0  0  3  0  0  0  0  0  0
  190.0510  175.9650  143.9970 C   0  0  0  0  0  0  0  0  0  0  0  0
  192.2470  169.6580  142.6030 C   0  0  0  0  0  1  0  0  0  0  0  0
  191.8610  175.4240  147.2970 C   0  0  0  0  0  2  0  0  0  0  0  0
  190.1900  176.4220  142.6800 C   0  0  0  0  0  3  0  0  0  0  0  0
  188.1950  177.5020  144.3140 C   0  0  0  0  0  3  0  0  0  0  0  0
  188.3130  177.9180  142.9850 C   0  0  0  0  0  3  0  0  0  0  0  0
  189.9420  177.1070  147.0600 C   0  0  0  0  0  2  0  0  0  0  0  0
  193.2610  174.1500  144.6870 C   0  0  1  0  0  3  0  0  0  0  0  0
  192.5940  176.1440  146.1590 C   0  0  1  0  0  3  0  0  0  0  0  0
  192.3950  173.3010  143.7740 C   0  0  2  0  0  3  0  0  0  0  0  0
  191.0130  174.9690  144.5800 C   0  0  1  0  0  3  0  0  0  0  0  0
  194.2890  177.5410  145.8800 C   0  0  0  0  0  1  0  0  0  0  0  0
  193.9390  176.3340  146.4870 O   0  0  0  0  0  0  0  0  0  0  0  0
  194.5980  174.4530  144.0300 C   0  0  0  0  0  2  0  0  0  0  0  0
  194.4020  175.3410  142.8160 C   0  0  0  0  0  1  0  0  0  0  0  0
  1  4  1  0  0  0  0
  3 17  2  0  0  0  0
  3 19  1  0  0  0  0
  4 20  1  0  0  0  0
  5  6  2  0  0  0  0
  6  2  2  0  0  0  0
  7 15  1  1  0  0  0
  7 11  1  0  0  0  0
  8  6  1  6  0  0  0
  8 24  1  0  0  0  0
 10 22  1  0  0  0  0
 12  7  1  0  0  0  0
 12  6  1  0  0  0  0
 13  9  1  0  0  0  0
 14 24  1  0  0  0  0
 14  1  2  0  0  0  0
 16 13  1  0  0  0  0
 17 14  1  0  0  0  0
 18  1  1  0  0  0  0
 19 18  2  0  0  0  0
 20 13  1  0  0  0  0
 21 10  1  0  0  0  0
 22 26  1  0  0  0  0
 22 16  1  0  0  0  0
 23 11  1  0  0  0  0
 23  8  1  0  0  0  0
 23 21  1  0  0  0  0
 24 10  1  0  0  0  0
 25 26  1  0  0  0  0
 27 21  1  0  0  0  0
 28 27  1  0  0  0  0
M  END
>  <MODEL>
9

>  <REMARK>
 VINA RESULT:      -6.9      2.461      5.576
  Name = 
  2 active torsions:
  status: ('A' for Active; 'I' for Inactive)
    1  A    between atoms: C_5  and  C_24
    2  A    between atoms: O_17  and  C_25
                            x       y       z     vdW  Elec       q    Type
                         _______ _______ _______ _____ _____    ______ ____

>  <TORSDO>
F 2

$$$$
