=
 OpenBabel11112416273D

 32 38  0  0  1  0  0  0  0  0999 V2000
  192.3250  174.9740  144.3730 C   0  0  1  0  0  3  0  0  0  0  0  0
  187.6100  177.1590  143.4770 C   0  0  0  0  0  0  0  0  0  0  0  0
  185.9420  177.8750  147.9840 C   0  0  0  0  0  3  0  0  0  0  0  0
  184.6930  178.4560  147.4540 C   0  0  0  0  0  3  0  0  0  0  0  0
  186.0760  177.4710  141.5080 C   0  0  0  0  0  0  0  0  0  0  0  0
  184.6990  177.7720  141.1470 C   0  0  0  0  0  0  0  0  0  0  0  0
  190.0080  176.4720  143.1580 C   0  0  1  0  0  3  0  0  0  0  0  0
  189.2300  177.0660  145.4240 C   0  0  0  0  0  2  0  0  0  0  0  0
  182.5420  178.3760  141.3710 C   0  0  0  0  0  0  0  0  0  0  0  0
  191.3780  175.7880  145.2560 C   0  0  2  0  0  3  0  0  0  0  0  0
  186.9940  177.6610  147.1880 C   0  0  0  0  0  3  0  0  0  0  0  0
  187.8750  177.2870  144.9010 N   0  0  0  0  0  0  0  0  0  0  0  0
  186.9910  178.1050  145.7430 C   0  0  1  0  0  3  0  0  0  0  0  0
  185.3400  178.0650  143.8930 C   0  0  0  0  0  0  0  0  0  0  0  0
  182.7960  178.1300  140.1220 N   0  0  0  0  0  0  0  0  0  0  0  0
  191.7110  174.5550  143.0210 C   0  0  0  0  0  2  0  0  0  0  0  0
  189.9920  176.0260  144.6220 C   0  0  2  0  0  3  0  0  0  0  0  0
  184.1490  177.7520  139.9770 N   0  0  0  0  0  0  0  0  0  0  0  0
  190.9480  175.6530  142.2680 C   0  0  0  0  0  2  0  0  0  0  0  0
  192.5290  176.4760  144.5300 C   0  0  1  0  0  3  0  0  0  0  0  0
  184.5140  178.6080  146.1390 C   0  0  0  0  0  3  0  0  0  0  0  0
  185.5870  178.2200  145.1990 C   0  0  0  0  0  0  0  0  0  0  0  0
  184.0060  178.3180  143.3890 N   0  0  0  0  0  0  0  0  0  0  0  0
  188.5960  176.4140  142.6080 C   0  0  0  0  0  2  0  0  0  0  0  0
  186.9180  177.1790  140.6170 O   0  0  0  0  0  0  0  0  0  0  0  0
  181.2160  178.8080  141.8870 C   0  0  0  0  0  1  0  0  0  0  0  0
  186.4210  177.5660  142.9670 C   0  0  0  0  0  0  0  0  0  0  0  0
  183.7500  178.1650  142.1300 C   0  0  0  0  0  0  0  0  0  0  0  0
  193.5860  176.7150  145.4470 O   0  0  0  0  0  0  0  0  0  0  0  0
  194.8520  176.1470  145.2900 C   0  0  0  0  0  0  0  0  0  0  0  0
  195.6980  176.4420  144.0960 C   0  0  0  0  0  1  0  0  0  0  0  0
  195.2930  175.3680  146.1740 O   0  0  0  0  0  0  0  0  0  0  0  0
  1 16  1  6  0  0  0
  1 20  1  0  0  0  0
  1 10  1  0  0  0  0
  2 12  1  0  0  0  0
  4  3  1  0  0  0  0
  5 27  1  0  0  0  0
  6  5  1  0  0  0  0
  6 28  1  0  0  0  0
  7 19  1  6  0  0  0
  7 17  1  0  0  0  0
  9 26  1  0  0  0  0
  9 28  1  0  0  0  0
 11  3  2  0  0  0  0
 12  8  1  0  0  0  0
 12 13  1  0  0  0  0
 13 11  1  0  0  0  0
 14 22  2  0  0  0  0
 15  9  2  0  0  0  0
 17 10  1  0  0  0  0
 17  8  1  0  0  0  0
 18 15  1  0  0  0  0
 18  6  2  0  0  0  0
 19 16  1  0  0  0  0
 20 10  1  0  0  0  0
 20 29  1  0  0  0  0
 21  4  2  0  0  0  0
 22 13  1  0  0  0  0
 22 21  1  0  0  0  0
 23 14  1  0  0  0  0
 24  7  1  0  0  0  0
 24  2  1  0  0  0  0
 25  5  2  0  0  0  0
 27  2  2  0  0  0  0
 27 14  1  0  0  0  0
 28 23  2  0  0  0  0
 30 29  1  0  0  0  0
 30 32  2  0  0  0  0
 31 30  1  0  0  0  0
M  END
>  <MODEL>
1

>  <REMARK>
 VINA RESULT:      -9.4      0.000      0.000
  Name = 
  2 active torsions:
  status: ('A' for Active; 'I' for Inactive)
    1  A    between atoms: C_20  and  O_29
    2  A    between atoms: O_29  and  C_30
                            x       y       z     vdW  Elec       q    Type
                         _______ _______ _______ _____ _____    ______ ____

>  <TORSDO>
F 2

$$$$
=
 OpenBabel11112416273D

 32 38  0  0  1  0  0  0  0  0999 V2000
  185.0330  177.3440  146.2730 C   0  0  1  0  0  3  0  0  0  0  0  0
  189.9330  176.0690  144.8010 C   0  0  0  0  0  0  0  0  0  0  0  0
  189.1590  173.6300  140.6710 C   0  0  0  0  0  3  0  0  0  0  0  0
  190.6090  173.4120  140.5010 C   0  0  0  0  0  3  0  0  0  0  0  0
  192.2220  176.0750  145.8440 C   0  0  0  0  0  0  0  0  0  0  0  0
  193.5620  175.5250  145.7030 C   0  0  0  0  0  0  0  0  0  0  0  0
  188.0200  177.3060  145.8660 C   0  0  1  0  0  3  0  0  0  0  0  0
  187.6830  176.2700  143.6510 C   0  0  0  0  0  2  0  0  0  0  0  0
  195.3100  174.4290  144.8020 C   0  0  0  0  0  0  0  0  0  0  0  0
  185.6290  176.9010  144.9350 C   0  0  2  0  0  3  0  0  0  0  0  0
  188.6940  174.4940  141.5790 C   0  0  0  0  0  3  0  0  0  0  0  0
  189.0570  175.7470  143.6870 N   0  0  0  0  0  0  0  0  0  0  0  0
  189.6290  175.3640  142.3890 C   0  0  1  0  0  3  0  0  0  0  0  0
  191.7950  175.0180  143.5460 C   0  0  0  0  0  0  0  0  0  0  0  0
  195.6600  174.9390  145.9440 N   0  0  0  0  0  0  0  0  0  0  0  0
  186.0090  177.2230  147.4610 C   0  0  0  0  0  2  0  0  0  0  0  0
  187.0890  176.4150  145.0400 C   0  0  2  0  0  3  0  0  0  0  0  0
  194.5660  175.6280  146.5110 N   0  0  0  0  0  2  0  0  0  0  0  0
  187.4300  177.7440  147.2100 C   0  0  0  0  0  2  0  0  0  0  0  0
  185.4360  178.3840  145.2340 C   0  0  1  0  0  3  0  0  0  0  0  0
  191.4830  173.9260  141.3700 C   0  0  0  0  0  3  0  0  0  0  0  0
  191.0040  174.7500  142.5000 C   0  0  0  0  0  0  0  0  0  0  0  0
  193.1550  174.5220  143.5500 N   0  0  0  0  0  2  0  0  0  0  0  0
  189.3300  176.5770  146.0900 C   0  0  0  0  0  2  0  0  0  0  0  0
  191.9300  176.7910  146.8390 O   0  0  0  0  0  0  0  0  0  0  0  0
  196.2150  173.6410  143.9240 C   0  0  0  0  0  1  0  0  0  0  0  0
  191.2540  175.7690  144.7370 C   0  0  0  0  0  0  0  0  0  0  0  0
  193.9300  174.7670  144.5580 C   0  0  0  0  0  0  0  0  0  0  0  0
  184.2770  178.8510  144.5600 O   0  0  0  0  0  0  0  0  0  0  0  0
  184.0870  178.6680  143.1890 C   0  0  0  0  0  0  0  0  0  0  0  0
  185.2340  178.6660  142.2340 C   0  0  0  0  0  1  0  0  0  0  0  0
  182.9210  178.5000  142.7450 O   0  0  0  0  0  0  0  0  0  0  0  0
  1 16  1  1  0  0  0
  2 24  1  0  0  0  0
  3 11  2  0  0  0  0
  4  3  1  0  0  0  0
  4 21  2  0  0  0  0
  5 25  2  0  0  0  0
  6  5  1  0  0  0  0
  6 18  1  0  0  0  0
  7 24  1  1  0  0  0
  7 19  1  0  0  0  0
  8 12  1  0  0  0  0
  8 17  1  0  0  0  0
  9 15  2  0  0  0  0
 10 17  1  0  0  0  0
 10 20  1  0  0  0  0
 10  1  1  0  0  0  0
 11 13  1  0  0  0  0
 12  2  1  0  0  0  0
 13 22  1  0  0  0  0
 13 12  1  0  0  0  0
 14 23  1  0  0  0  0
 14 27  1  0  0  0  0
 15 18  1  0  0  0  0
 17  7  1  0  0  0  0
 19 16  1  0  0  0  0
 20  1  1  0  0  0  0
 21 22  1  0  0  0  0
 22 14  2  0  0  0  0
 23 28  1  0  0  0  0
 26  9  1  0  0  0  0
 27  2  2  0  0  0  0
 27  5  1  0  0  0  0
 28  9  1  0  0  0  0
 28  6  2  0  0  0  0
 29 20  1  0  0  0  0
 30 29  1  0  0  0  0
 31 30  1  0  0  0  0
 32 30  2  0  0  0  0
M  END
>  <MODEL>
2

>  <REMARK>
 VINA RESULT:      -8.7      2.927      8.939
  Name = 
  2 active torsions:
  status: ('A' for Active; 'I' for Inactive)
    1  A    between atoms: C_20  and  O_29
    2  A    between atoms: O_29  and  C_30
                            x       y       z     vdW  Elec       q    Type
                         _______ _______ _______ _____ _____    ______ ____

>  <TORSDO>
F 2

$$$$
=
 OpenBabel11112416273D

 32 38  0  0  1  0  0  0  0  0999 V2000
  185.9140  179.1350  143.8730 C   0  0  1  0  0  3  0  0  0  0  0  0
  188.9710  174.9240  143.0170 C   0  0  0  0  0  0  0  0  0  0  0  0
  192.3610  175.4020  146.4650 C   0  0  0  0  0  3  0  0  0  0  0  0
  193.0300  174.1690  146.0100 C   0  0  0  0  0  3  0  0  0  0  0  0
  189.2600  173.2040  141.2040 C   0  0  0  0  0  0  0  0  0  0  0  0
  190.1850  172.2040  140.6910 C   0  0  0  0  0  0  0  0  0  0  0  0
  186.9470  176.4160  143.0780 C   0  0  1  0  0  3  0  0  0  0  0  0
  188.5450  176.4970  144.9580 C   0  0  0  0  0  2  0  0  0  0  0  0
  191.9780  170.8480  140.5780 C   0  0  0  0  0  0  0  0  0  0  0  0
  186.9450  178.4120  144.7410 C   0  0  2  0  0  3  0  0  0  0  0  0
  191.1400  175.7260  146.0250 C   0  0  0  0  0  3  0  0  0  0  0  0
  189.3930  175.5070  144.2800 N   0  0  0  0  0  0  0  0  0  0  0  0
  190.3500  174.7920  145.1360 C   0  0  1  0  0  3  0  0  0  0  0  0
  190.8790  173.3510  143.1890 C   0  0  0  0  0  0  0  0  0  0  0  0
  191.2260  170.6600  139.5360 N   0  0  0  0  0  0  0  0  0  0  0  0
  185.8900  178.6570  142.4060 C   0  0  0  0  0  2  0  0  0  0  0  0
  187.7620  177.3500  143.9760 C   0  0  2  0  0  3  0  0  0  0  0  0
  190.1000  171.5090  139.6040 N   0  0  0  0  0  0  0  0  0  0  0  0
  185.9200  177.1370  142.2010 C   0  0  0  0  0  2  0  0  0  0  0  0
  185.4630  178.0850  144.8810 C   0  0  1  0  0  3  0  0  0  0  0  0
  192.5200  173.4430  145.0110 C   0  0  0  0  0  3  0  0  0  0  0  0
  191.2540  173.8570  144.3690 C   0  0  0  0  0  0  0  0  0  0  0  0
  191.7110  172.3520  142.5490 N   0  0  0  0  0  0  0  0  0  0  0  0
  187.8970  175.6130  142.2100 C   0  0  0  0  0  2  0  0  0  0  0  0
  188.1910  173.4580  140.5860 O   0  0  0  0  0  0  0  0  0  0  0  0
  193.2450  170.1170  140.8390 C   0  0  0  0  0  1  0  0  0  0  0  0
  189.6390  173.8640  142.4990 C   0  0  0  0  0  0  0  0  0  0  0  0
  191.3650  171.8590  141.4040 C   0  0  0  0  0  0  0  0  0  0  0  0
  184.9470  178.7300  146.0350 O   0  0  0  0  0  0  0  0  0  0  0  0
  185.6110  178.7050  147.2640 C   0  0  0  0  0  0  0  0  0  0  0  0
  185.9410  177.4210  147.9480 C   0  0  0  0  0  1  0  0  0  0  0  0
  185.9410  179.7910  147.8080 O   0  0  0  0  0  0  0  0  0  0  0  0
  1 16  1  6  0  0  0
  1 10  1  0  0  0  0
  1 20  1  0  0  0  0
  2 12  1  0  0  0  0
  4  3  1  0  0  0  0
  5 27  1  0  0  0  0
  6  5  1  0  0  0  0
  6 28  1  0  0  0  0
  7 19  1  6  0  0  0
  7 17  1  0  0  0  0
  9 26  1  0  0  0  0
  9 28  1  0  0  0  0
 10 20  1  0  0  0  0
 11  3  2  0  0  0  0
 12  8  1  0  0  0  0
 12 13  1  0  0  0  0
 13 11  1  0  0  0  0
 14 22  2  0  0  0  0
 15 18  1  0  0  0  0
 15  9  2  0  0  0  0
 17 10  1  0  0  0  0
 17  8  1  0  0  0  0
 18  6  2  0  0  0  0
 19 16  1  0  0  0  0
 20 29  1  0  0  0  0
 21  4  2  0  0  0  0
 22 21  1  0  0  0  0
 22 13  1  0  0  0  0
 23 14  1  0  0  0  0
 24  2  1  0  0  0  0
 24  7  1  0  0  0  0
 25  5  2  0  0  0  0
 27  2  2  0  0  0  0
 27 14  1  0  0  0  0
 28 23  2  0  0  0  0
 29 30  1  0  0  0  0
 30 32  2  0  0  0  0
 30 31  1  0  0  0  0
M  END
>  <MODEL>
3

>  <REMARK>
 VINA RESULT:      -8.4      3.645      7.743
  Name = 
  2 active torsions:
  status: ('A' for Active; 'I' for Inactive)
    1  A    between atoms: C_20  and  O_29
    2  A    between atoms: O_29  and  C_30
                            x       y       z     vdW  Elec       q    Type
                         _______ _______ _______ _____ _____    ______ ____

>  <TORSDO>
F 2

$$$$
=
 OpenBabel11112416273D

 32 38  0  0  1  0  0  0  0  0999 V2000
  186.0830  177.3080  145.9940 C   0  0  1  0  0  3  0  0  0  0  0  0
  190.8630  175.6800  144.4760 C   0  0  0  0  0  0  0  0  0  0  0  0
  189.8720  173.2860  140.3660 C   0  0  0  0  0  3  0  0  0  0  0  0
  191.3000  172.9650  140.1820 C   0  0  0  0  0  3  0  0  0  0  0  0
  193.1580  175.5280  145.4940 C   0  0  0  0  0  0  0  0  0  0  0  0
  194.4540  174.8830  145.3410 C   0  0  0  0  0  0  0  0  0  0  0  0
  189.0550  177.0550  145.5550 C   0  0  1  0  0  3  0  0  0  0  0  0
  188.6210  176.0360  143.3490 C   0  0  0  0  0  2  0  0  0  0  0  0
  196.1100  173.6620  144.4270 C   0  0  0  0  0  0  0  0  0  0  0  0
  186.6310  176.8180  144.6520 C   0  0  2  0  0  3  0  0  0  0  0  0
  189.4800  174.1850  141.2750 C   0  0  0  0  0  3  0  0  0  0  0  0
  189.9540  175.4180  143.3730 N   0  0  0  0  0  0  0  0  0  0  0  0
  190.4830  174.9900  142.0700 C   0  0  1  0  0  3  0  0  0  0  0  0
  192.6310  174.4950  143.2060 C   0  0  0  0  0  0  0  0  0  0  0  0
  196.5080  174.1510  145.5620 N   0  0  0  0  0  0  0  0  0  0  0  0
  187.0610  177.1220  147.1720 C   0  0  0  0  0  2  0  0  0  0  0  0
  188.0540  176.2300  144.7440 C   0  0  2  0  0  3  0  0  0  0  0  0
  195.4720  174.9180  146.1380 N   0  0  0  0  0  2  0  0  0  0  0  0
  188.5130  177.5390  146.9040 C   0  0  0  0  0  2  0  0  0  0  0  0
  186.5470  178.3120  144.9460 C   0  0  1  0  0  3  0  0  0  0  0  0
  192.2190  173.4190  141.0390 C   0  0  0  0  0  3  0  0  0  0  0  0
  191.8120  174.2800  142.1700 C   0  0  0  0  0  0  0  0  0  0  0  0
  193.9530  173.9040  143.1980 N   0  0  0  0  0  2  0  0  0  0  0  0
  190.3130  176.2350  145.7680 C   0  0  0  0  0  2  0  0  0  0  0  0
  192.9290  176.2670  146.4890 O   0  0  0  0  0  0  0  0  0  0  0  0
  196.9470  172.8090  143.5430 C   0  0  0  0  0  1  0  0  0  0  0  0
  192.1590  175.2870  144.3990 C   0  0  0  0  0  0  0  0  0  0  0  0
  194.7540  174.0960  144.1960 C   0  0  0  0  0  0  0  0  0  0  0  0
  185.4170  178.8580  144.2820 O   0  0  0  0  0  0  0  0  0  0  0  0
  185.2090  178.6990  142.9100 C   0  0  0  0  0  0  0  0  0  0  0  0
  183.8820  178.2900  142.3630 C   0  0  0  0  0  1  0  0  0  0  0  0
  186.1620  178.9060  142.1140 O   0  0  0  0  0  0  0  0  0  0  0  0
  1 16  1  1  0  0  0
  2 24  1  0  0  0  0
  3 11  2  0  0  0  0
  4  3  1  0  0  0  0
  4 21  2  0  0  0  0
  5 25  2  0  0  0  0
  6  5  1  0  0  0  0
  6 18  1  0  0  0  0
  7 24  1  1  0  0  0
  7 19  1  0  0  0  0
  8 12  1  0  0  0  0
  8 17  1  0  0  0  0
  9 15  2  0  0  0  0
 10 17  1  0  0  0  0
 10 20  1  0  0  0  0
 10  1  1  0  0  0  0
 11 13  1  0  0  0  0
 12  2  1  0  0  0  0
 13 22  1  0  0  0  0
 13 12  1  0  0  0  0
 14 27  1  0  0  0  0
 15 18  1  0  0  0  0
 17  7  1  0  0  0  0
 19 16  1  0  0  0  0
 20  1  1  0  0  0  0
 21 22  1  0  0  0  0
 22 14  2  0  0  0  0
 23 14  1  0  0  0  0
 23 28  1  0  0  0  0
 26  9  1  0  0  0  0
 27  2  2  0  0  0  0
 27  5  1  0  0  0  0
 28  9  1  0  0  0  0
 28  6  2  0  0  0  0
 29 20  1  0  0  0  0
 30 29  1  0  0  0  0
 31 30  1  0  0  0  0
 32 30  2  0  0  0  0
M  END
>  <MODEL>
4

>  <REMARK>
 VINA RESULT:      -8.2      3.156      9.187
  Name = 
  2 active torsions:
  status: ('A' for Active; 'I' for Inactive)
    1  A    between atoms: C_20  and  O_29
    2  A    between atoms: O_29  and  C_30
                            x       y       z     vdW  Elec       q    Type
                         _______ _______ _______ _____ _____    ______ ____

>  <TORSDO>
F 2

$$$$
=
 OpenBabel11112416273D

 32 38  0  0  1  0  0  0  0  0999 V2000
  195.5900  175.3020  144.6820 C   0  0  1  0  0  3  0  0  0  0  0  0
  190.4150  176.1730  145.2040 C   0  0  0  0  0  0  0  0  0  0  0  0
  188.6990  174.7570  140.8840 C   0  0  0  0  0  3  0  0  0  0  0  0
  187.3220  175.0930  141.2960 C   0  0  0  0  0  3  0  0  0  0  0  0
  188.9120  177.3880  146.8130 C   0  0  0  0  0  0  0  0  0  0  0  0
  187.5760  177.9470  146.9570 C   0  0  0  0  0  0  0  0  0  0  0  0
  192.8100  175.6770  145.7880 C   0  0  1  0  0  3  0  0  0  0  0  0
  191.8770  174.7500  143.6990 C   0  0  0  0  0  2  0  0  0  0  0  0
  185.4280  178.4270  146.4860 C   0  0  0  0  0  0  0  0  0  0  0  0
  194.3720  174.7890  143.9120 C   0  0  2  0  0  3  0  0  0  0  0  0
  189.6920  174.7110  141.7770 C   0  0  0  0  0  3  0  0  0  0  0  0
  190.5990  175.4210  143.9730 N   0  0  0  0  0  0  0  0  0  0  0  0
  189.4310  174.8890  143.2560 C   0  0  1  0  0  3  0  0  0  0  0  0
  188.0160  176.3970  144.6240 C   0  0  0  0  0  0  0  0  0  0  0  0
  185.7510  178.9580  147.6260 N   0  0  0  0  0  0  0  0  0  0  0  0
  195.2640  176.4280  145.6850 C   0  0  0  0  0  2  0  0  0  0  0  0
  193.0570  175.5020  144.2880 C   0  0  2  0  0  3  0  0  0  0  0  0
  187.0980  178.6580  147.9250 N   0  0  0  0  0  2  0  0  0  0  0  0
  194.0250  176.2000  146.5610 C   0  0  0  0  0  2  0  0  0  0  0  0
  194.9770  173.9520  145.0330 C   0  0  1  0  0  3  0  0  0  0  0  0
  187.0680  175.5410  142.5280 C   0  0  0  0  0  3  0  0  0  0  0  0
  188.1670  175.6760  143.5070 C   0  0  0  0  0  0  0  0  0  0  0  0
  186.7390  177.0260  144.8940 N   0  0  0  0  0  2  0  0  0  0  0  0
  191.6300  176.6070  145.9900 C   0  0  0  0  0  2  0  0  0  0  0  0
  189.7660  177.5400  147.7280 O   0  0  0  0  0  0  0  0  0  0  0  0
  184.0820  178.5350  145.8630 C   0  0  0  0  0  1  0  0  0  0  0  0
  189.1820  176.6110  145.5570 C   0  0  0  0  0  0  0  0  0  0  0  0
  186.5800  177.7330  145.9650 C   0  0  0  0  0  0  0  0  0  0  0  0
  195.7670  172.9150  144.4710 O   0  0  0  0  0  0  0  0  0  0  0  0
  196.8330  172.3330  145.1600 C   0  0  0  0  0  0  0  0  0  0  0  0
  197.8140  171.4420  144.4740 C   0  0  0  0  0  1  0  0  0  0  0  0
  196.9730  172.5640  146.3890 O   0  0  0  0  0  0  0  0  0  0  0  0
  1 20  1  0  0  0  0
  1 16  1  1  0  0  0
  2 27  2  0  0  0  0
  2 24  1  0  0  0  0
  3  4  1  0  0  0  0
  3 11  2  0  0  0  0
  4 21  2  0  0  0  0
  5  6  1  0  0  0  0
  5 25  2  0  0  0  0
  6 18  1  0  0  0  0
  7 24  1  6  0  0  0
  7 19  1  0  0  0  0
  8 12  1  0  0  0  0
  8 17  1  0  0  0  0
  9 15  2  0  0  0  0
 10 17  1  0  0  0  0
 10  1  1  0  0  0  0
 10 20  1  0  0  0  0
 11 13  1  0  0  0  0
 12  2  1  0  0  0  0
 13 22  1  0  0  0  0
 13 12  1  0  0  0  0
 14 23  1  0  0  0  0
 14 27  1  0  0  0  0
 15 18  1  0  0  0  0
 16 19  1  0  0  0  0
 17  7  1  0  0  0  0
 21 22  1  0  0  0  0
 22 14  2  0  0  0  0
 23 28  1  0  0  0  0
 26  9  1  0  0  0  0
 27  5  1  0  0  0  0
 28  9  1  0  0  0  0
 28  6  2  0  0  0  0
 29 20  1  0  0  0  0
 29 30  1  0  0  0  0
 30 32  2  0  0  0  0
 31 30  1  0  0  0  0
M  END
>  <MODEL>
5

>  <REMARK>
 VINA RESULT:      -8.0      2.979      5.247
  Name = 
  2 active torsions:
  status: ('A' for Active; 'I' for Inactive)
    1  A    between atoms: C_20  and  O_29
    2  A    between atoms: O_29  and  C_30
                            x       y       z     vdW  Elec       q    Type
                         _______ _______ _______ _____ _____    ______ ____

>  <TORSDO>
F 2

$$$$
=
 OpenBabel11112416273D

 32 38  0  0  1  0  0  0  0  0999 V2000
  185.6200  177.0930  145.6070 C   0  0  1  0  0  3  0  0  0  0  0  0
  190.2840  175.8760  143.4690 C   0  0  0  0  0  0  0  0  0  0  0  0
  189.0520  172.5380  140.1600 C   0  0  0  0  0  3  0  0  0  0  0  0
  190.4620  172.3920  139.7500 C   0  0  0  0  0  3  0  0  0  0  0  0
  192.7090  176.2750  144.0050 C   0  0  0  0  0  0  0  0  0  0  0  0
  194.0540  175.8040  143.7110 C   0  0  0  0  0  0  0  0  0  0  0  0
  188.4690  177.1780  144.6240 C   0  0  1  0  0  3  0  0  0  0  0  0
  187.8550  175.6580  142.7790 C   0  0  0  0  0  2  0  0  0  0  0  0
  195.7220  174.6640  142.7180 C   0  0  0  0  0  0  0  0  0  0  0  0
  186.0090  176.4100  144.2960 C   0  0  2  0  0  3  0  0  0  0  0  0
  188.6660  173.5450  140.9490 C   0  0  0  0  0  3  0  0  0  0  0  0
  189.2620  175.2560  142.6420 N   0  0  0  0  0  0  0  0  0  0  0  0
  189.6280  174.6370  141.3600 C   0  0  1  0  0  3  0  0  0  0  0  0
  191.9930  174.7100  142.1030 C   0  0  0  0  0  0  0  0  0  0  0  0
  196.2130  175.4370  143.6380 N   0  0  0  0  0  0  0  0  0  0  0  0
  186.8030  177.3070  146.5740 C   0  0  0  0  0  2  0  0  0  0  0  0
  187.5090  176.0640  144.2000 C   0  0  2  0  0  3  0  0  0  0  0  0
  195.1700  176.1550  144.2620 N   0  0  0  0  0  2  0  0  0  0  0  0
  188.0870  177.8590  145.9420 C   0  0  0  0  0  2  0  0  0  0  0  0
  185.7080  177.9040  144.3200 C   0  0  1  0  0  3  0  0  0  0  0  0
  191.4160  173.1450  140.3020 C   0  0  0  0  0  3  0  0  0  0  0  0
  191.0600  174.1620  141.3150 C   0  0  0  0  0  0  0  0  0  0  0  0
  193.3790  174.3250  141.9330 N   0  0  0  0  0  2  0  0  0  0  0  0
  189.8720  176.6120  144.7220 C   0  0  0  0  0  2  0  0  0  0  0  0
  192.5240  177.1700  144.8720 O   0  0  0  0  0  0  0  0  0  0  0  0
  196.5350  173.7690  141.8530 C   0  0  0  0  0  1  0  0  0  0  0  0
  191.5960  175.6650  143.2010 C   0  0  0  0  0  0  0  0  0  0  0  0
  194.2910  174.8400  142.6930 C   0  0  0  0  0  0  0  0  0  0  0  0
  184.4010  178.1270  143.8130 O   0  0  0  0  0  0  0  0  0  0  0  0
  184.1380  178.2190  142.4450 C   0  0  0  0  0  0  0  0  0  0  0  0
  185.2380  178.2640  141.4380 C   0  0  0  0  0  1  0  0  0  0  0  0
  182.9440  178.2630  142.0490 O   0  0  0  0  0  0  0  0  0  0  0  0
  1 16  1  1  0  0  0
  2 24  1  0  0  0  0
  3 11  2  0  0  0  0
  4  3  1  0  0  0  0
  4 21  2  0  0  0  0
  5 25  2  0  0  0  0
  6  5  1  0  0  0  0
  6 18  1  0  0  0  0
  7 24  1  1  0  0  0
  7 19  1  0  0  0  0
  8 17  1  0  0  0  0
  9 15  2  0  0  0  0
 10 20  1  0  0  0  0
 10  1  1  0  0  0  0
 11 13  1  0  0  0  0
 12  8  1  0  0  0  0
 12  2  1  0  0  0  0
 13 12  1  0  0  0  0
 14 27  1  0  0  0  0
 15 18  1  0  0  0  0
 17 10  1  0  0  0  0
 17  7  1  0  0  0  0
 19 16  1  0  0  0  0
 20  1  1  0  0  0  0
 21 22  1  0  0  0  0
 22 13  1  0  0  0  0
 22 14  2  0  0  0  0
 23 14  1  0  0  0  0
 23 28  1  0  0  0  0
 26  9  1  0  0  0  0
 27  2  2  0  0  0  0
 27  5  1  0  0  0  0
 28  9  1  0  0  0  0
 28  6  2  0  0  0  0
 29 20  1  0  0  0  0
 30 29  1  0  0  0  0
 31 30  1  0  0  0  0
 32 30  2  0  0  0  0
M  END
>  <MODEL>
6

>  <REMARK>
 VINA RESULT:      -8.0      3.219      8.961
  Name = 
  2 active torsions:
  status: ('A' for Active; 'I' for Inactive)
    1  A    between atoms: C_20  and  O_29
    2  A    between atoms: O_29  and  C_30
                            x       y       z     vdW  Elec       q    Type
                         _______ _______ _______ _____ _____    ______ ____

>  <TORSDO>
F 2

$$$$
=
 OpenBabel11112416273D

 32 38  0  0  1  0  0  0  0  0999 V2000
  195.1780  174.8840  145.4640 C   0  0  1  0  0  3  0  0  0  0  0  0
  190.2690  175.7870  143.7630 C   0  0  0  0  0  0  0  0  0  0  0  0
  190.2720  173.6050  139.4220 C   0  0  0  0  0  3  0  0  0  0  0  0
  188.8670  173.9970  139.1990 C   0  0  0  0  0  3  0  0  0  0  0  0
  188.3380  177.2570  144.4260 C   0  0  0  0  0  0  0  0  0  0  0  0
  187.0880  177.8200  143.9390 C   0  0  0  0  0  0  0  0  0  0  0  0
  192.2160  175.4260  145.3130 C   0  0  1  0  0  3  0  0  0  0  0  0
  192.1070  174.1310  143.2140 C   0  0  0  0  0  2  0  0  0  0  0  0
  185.3230  178.1890  142.5910 C   0  0  0  0  0  0  0  0  0  0  0  0
  194.3230  174.2300  144.3770 C   0  0  2  0  0  3  0  0  0  0  0  0
  190.8380  173.7290  140.6270 C   0  0  0  0  0  3  0  0  0  0  0  0
  190.8670  174.8290  142.8490 N   0  0  0  0  0  0  0  0  0  0  0  0
  190.0370  174.1660  141.8320 C   0  0  1  0  0  3  0  0  0  0  0  0
  188.2990  175.8820  142.2610 C   0  0  0  0  0  0  0  0  0  0  0  0
  185.2130  178.9180  143.6590 N   0  0  0  0  0  0  0  0  0  0  0  0
  194.5600  176.1690  146.0540 C   0  0  0  0  0  2  0  0  0  0  0  0
  193.0120  174.9870  144.0820 C   0  0  2  0  0  3  0  0  0  0  0  0
  186.3180  178.6890  144.5070 N   0  0  0  0  0  2  0  0  0  0  0  0
  193.0670  176.0900  146.4000 C   0  0  0  0  0  2  0  0  0  0  0  0
  194.3950  173.6130  145.7690 C   0  0  1  0  0  3  0  0  0  0  0  0
  188.1840  174.6560  140.1380 C   0  0  0  0  0  3  0  0  0  0  0  0
  188.8260  174.9740  141.4320 C   0  0  0  0  0  0  0  0  0  0  0  0
  187.0590  176.5370  141.8990 N   0  0  0  0  0  2  0  0  0  0  0  0
  191.1090  176.3660  144.8770 C   0  0  0  0  0  2  0  0  0  0  0  0
  188.7800  177.5790  145.5620 O   0  0  0  0  0  0  0  0  0  0  0  0
  184.3330  178.1720  141.4820 C   0  0  0  0  0  1  0  0  0  0  0  0
  189.0240  176.2700  143.5260 C   0  0  0  0  0  0  0  0  0  0  0  0
  186.5410  177.4230  142.6870 C   0  0  0  0  0  0  0  0  0  0  0  0
  195.2750  172.5000  145.7440 O   0  0  0  0  0  0  0  0  0  0  0  0
  194.8120  171.1850  145.6550 C   0  0  0  0  0  0  0  0  0  0  0  0
  195.5650  170.0480  146.2610 C   0  0  0  0  0  1  0  0  0  0  0  0
  193.7340  170.9510  145.0500 O   0  0  0  0  0  0  0  0  0  0  0  0
  1 20  1  0  0  0  0
  1 16  1  1  0  0  0
  2 24  1  0  0  0  0
  3 11  2  0  0  0  0
  4  3  1  0  0  0  0
  4 21  2  0  0  0  0
  5 25  2  0  0  0  0
  6  5  1  0  0  0  0
  6 18  1  0  0  0  0
  7 24  1  6  0  0  0
  7 19  1  0  0  0  0
  8 17  1  0  0  0  0
  9 28  1  0  0  0  0
  9 15  2  0  0  0  0
 10  1  1  0  0  0  0
 10 20  1  0  0  0  0
 11 13  1  0  0  0  0
 12  8  1  0  0  0  0
 12  2  1  0  0  0  0
 13 12  1  0  0  0  0
 14 27  1  0  0  0  0
 15 18  1  0  0  0  0
 16 19  1  0  0  0  0
 17 10  1  0  0  0  0
 17  7  1  0  0  0  0
 21 22  1  0  0  0  0
 22 13  1  0  0  0  0
 22 14  2  0  0  0  0
 23 14  1  0  0  0  0
 23 28  1  0  0  0  0
 26  9  1  0  0  0  0
 27  2  2  0  0  0  0
 27  5  1  0  0  0  0
 28  6  2  0  0  0  0
 29 20  1  0  0  0  0
 30 29  1  0  0  0  0
 30 31  1  0  0  0  0
 32 30  2  0  0  0  0
M  END
>  <MODEL>
7

>  <REMARK>
 VINA RESULT:      -8.0      2.685      5.216
  Name = 
  2 active torsions:
  status: ('A' for Active; 'I' for Inactive)
    1  A    between atoms: C_20  and  O_29
    2  A    between atoms: O_29  and  C_30
                            x       y       z     vdW  Elec       q    Type
                         _______ _______ _______ _____ _____    ______ ____

>  <TORSDO>
F 2

$$$$
=
 OpenBabel11112416273D

 32 38  0  0  1  0  0  0  0  0999 V2000
  187.0940  177.9510  142.7920 C   0  0  1  0  0  3  0  0  0  0  0  0
  190.5800  174.1210  143.7840 C   0  0  0  0  0  0  0  0  0  0  0  0
  194.1620  176.5460  145.9970 C   0  0  0  0  0  3  0  0  0  0  0  0
  194.9420  175.3030  146.1460 C   0  0  0  0  0  3  0  0  0  0  0  0
  190.9320  171.7320  143.0800 C   0  0  0  0  0  0  0  0  0  0  0  0
  191.9290  170.6740  143.0240 C   0  0  0  0  0  0  0  0  0  0  0  0
  188.3950  175.2900  143.3580 C   0  0  1  0  0  3  0  0  0  0  0  0
  190.1230  176.4440  144.6910 C   0  0  0  0  0  2  0  0  0  0  0  0
  193.8650  169.5780  143.3700 C   0  0  0  0  0  0  0  0  0  0  0  0
  188.2790  177.8550  143.7540 C   0  0  2  0  0  3  0  0  0  0  0  0
  192.8770  176.5120  145.6290 C   0  0  0  0  0  3  0  0  0  0  0  0
  191.0300  175.3030  144.5010 N   0  0  0  0  0  0  0  0  0  0  0  0
  192.1410  175.2030  145.4590 C   0  0  1  0  0  3  0  0  0  0  0  0
  192.6810  172.9960  144.4650 C   0  0  0  0  0  0  0  0  0  0  0  0
  193.0570  168.8260  142.6860 N   0  0  0  0  0  0  0  0  0  0  0  0
  187.0060  176.7790  141.7930 C   0  0  0  0  0  2  0  0  0  0  0  0
  189.1570  176.6060  143.5320 C   0  0  2  0  0  3  0  0  0  0  0  0
  191.8420  169.5100  142.4680 N   0  0  0  0  0  0  0  0  0  0  0  0
  187.2130  175.3800  142.3880 C   0  0  0  0  0  2  0  0  0  0  0  0
  186.8680  177.5530  144.2460 C   0  0  1  0  0  3  0  0  0  0  0  0
  194.4470  174.1320  145.7380 C   0  0  0  0  0  3  0  0  0  0  0  0
  193.0880  174.0670  145.1580 C   0  0  0  0  0  0  0  0  0  0  0  0
  193.5760  171.8670  144.3160 N   0  0  0  0  0  0  0  0  0  0  0  0
  189.3620  174.2170  142.8970 C   0  0  0  0  0  2  0  0  0  0  0  0
  189.7900  171.5570  142.5750 O   0  0  0  0  0  0  0  0  0  0  0  0
  195.2330  169.1740  143.7880 C   0  0  0  0  0  1  0  0  0  0  0  0
  191.3320  172.9930  143.7910 C   0  0  0  0  0  0  0  0  0  0  0  0
  193.2000  170.8280  143.6420 C   0  0  0  0  0  0  0  0  0  0  0  0
  186.3740  178.6700  144.9690 O   0  0  0  0  0  0  0  0  0  0  0  0
  185.0200  178.8210  145.2750 C   0  0  0  0  0  0  0  0  0  0  0  0
  184.4410  178.2930  146.5450 C   0  0  0  0  0  1  0  0  0  0  0  0
  184.2670  179.4170  144.4610 O   0  0  0  0  0  0  0  0  0  0  0  0
  1 16  1  6  0  0  0
  1 10  1  0  0  0  0
  1 20  1  0  0  0  0
  2 27  2  0  0  0  0
  2 12  1  0  0  0  0
  3  4  1  0  0  0  0
  5 27  1  0  0  0  0
  6  5  1  0  0  0  0
  6 28  1  0  0  0  0
  7 19  1  6  0  0  0
  7 17  1  0  0  0  0
  9 28  1  0  0  0  0
  9 26  1  0  0  0  0
 10 20  1  0  0  0  0
 11  3  2  0  0  0  0
 12  8  1  0  0  0  0
 12 13  1  0  0  0  0
 13 11  1  0  0  0  0
 14 22  2  0  0  0  0
 15  9  2  0  0  0  0
 16 19  1  0  0  0  0
 17 10  1  0  0  0  0
 17  8  1  0  0  0  0
 18 15  1  0  0  0  0
 18  6  2  0  0  0  0
 20 29  1  0  0  0  0
 21  4  2  0  0  0  0
 22 13  1  0  0  0  0
 22 21  1  0  0  0  0
 23 14  1  0  0  0  0
 24  7  1  0  0  0  0
 24  2  1  0  0  0  0
 25  5  2  0  0  0  0
 27 14  1  0  0  0  0
 28 23  2  0  0  0  0
 29 30  1  0  0  0  0
 30 31  1  0  0  0  0
 32 30  2  0  0  0  0
M  END
>  <MODEL>
8

>  <REMARK>
 VINA RESULT:      -8.0      3.962      8.869
  Name = 
  2 active torsions:
  status: ('A' for Active; 'I' for Inactive)
    1  A    between atoms: C_20  and  O_29
    2  A    between atoms: O_29  and  C_30
                            x       y       z     vdW  Elec       q    Type
                         _______ _______ _______ _____ _____    ______ ____

>  <TORSDO>
F 2

$$$$
=
 OpenBabel11112416273D

 32 38  0  0  1  0  0  0  0  0999 V2000
  190.6050  172.1080  139.4860 C   0  0  1  0  0  3  0  0  0  0  0  0
  188.8600  175.5350  143.0940 C   0  0  0  0  0  0  0  0  0  0  0  0
  192.2600  175.2000  146.5500 C   0  0  0  0  0  3  0  0  0  0  0  0
  191.5530  176.2000  147.3730 C   0  0  0  0  0  3  0  0  0  0  0  0
  186.7360  176.8030  143.5440 C   0  0  0  0  0  0  0  0  0  0  0  0
  186.0130  177.5260  144.5810 C   0  0  0  0  0  0  0  0  0  0  0  0
  189.2620  174.4230  140.8750 C   0  0  1  0  0  3  0  0  0  0  0  0
  191.0850  174.4540  142.5390 C   0  0  0  0  0  2  0  0  0  0  0  0
  185.5940  178.5330  146.5500 C   0  0  0  0  0  0  0  0  0  0  0  0
  191.2890  172.8120  140.6590 C   0  0  2  0  0  3  0  0  0  0  0  0
  191.9200  174.9950  145.2740 C   0  0  0  0  0  3  0  0  0  0  0  0
  190.2040  175.1470  143.4900 N   0  0  0  0  0  0  0  0  0  0  0  0
  190.8800  175.8530  144.5880 C   0  0  1  0  0  3  0  0  0  0  0  0
  188.6730  176.7880  145.2250 C   0  0  0  0  0  0  0  0  0  0  0  0
  184.5520  178.6330  145.7810 N   0  0  0  0  0  0  0  0  0  0  0  0
  189.0730  172.2910  139.4560 C   0  0  0  0  0  2  0  0  0  0  0  0
  190.3100  173.5630  141.5850 C   0  0  2  0  0  3  0  0  0  0  0  0
  184.8120  178.0030  144.5450 N   0  0  0  0  0  0  0  0  0  0  0  0
  188.5680  173.7180  139.7060 C   0  0  0  0  0  2  0  0  0  0  0  0
  191.3930  173.3910  139.2520 C   0  0  1  0  0  3  0  0  0  0  0  0
  190.4410  176.7910  146.9270 C   0  0  0  0  0  3  0  0  0  0  0  0
  189.9220  176.4660  145.5810 C   0  0  0  0  0  0  0  0  0  0  0  0
  187.8300  177.5000  146.1630 N   0  0  0  0  0  0  0  0  0  0  0  0
  188.2300  174.8810  141.8870 C   0  0  0  0  0  2  0  0  0  0  0  0
  186.2040  176.6070  142.4180 O   0  0  0  0  0  0  0  0  0  0  0  0
  185.6760  179.0900  147.9260 C   0  0  0  0  0  1  0  0  0  0  0  0
  188.1270  176.3550  143.8870 C   0  0  0  0  0  0  0  0  0  0  0  0
  186.6180  177.8110  145.8360 C   0  0  0  0  0  0  0  0  0  0  0  0
  192.6640  173.0710  138.7060 O   0  0  0  0  0  0  0  0  0  0  0  0
  193.8570  173.4740  139.3090 C   0  0  0  0  0  0  0  0  0  0  0  0
  194.1680  174.9160  139.5400 C   0  0  0  0  0  1  0  0  0  0  0  0
  194.6920  172.6030  139.6670 O   0  0  0  0  0  0  0  0  0  0  0  0
  1 16  1  1  0  0  0
  1 10  1  0  0  0  0
  2 12  1  0  0  0  0
  2 27  2  0  0  0  0
  3  4  1  0  0  0  0
  5 27  1  0  0  0  0
  5  6  1  0  0  0  0
  6 28  1  0  0  0  0
  7 19  1  6  0  0  0
  7 17  1  0  0  0  0
  7 24  1  0  0  0  0
  8 12  1  0  0  0  0
  9 26  1  0  0  0  0
 10 17  1  0  0  0  0
 11  3  2  0  0  0  0
 12 13  1  0  0  0  0
 13 11  1  0  0  0  0
 13 22  1  0  0  0  0
 14 22  2  0  0  0  0
 14 23  1  0  0  0  0
 15  9  2  0  0  0  0
 16 19  1  0  0  0  0
 17  8  1  0  0  0  0
 18  6  2  0  0  0  0
 18 15  1  0  0  0  0
 20  1  1  0  0  0  0
 20 10  1  0  0  0  0
 21  4  2  0  0  0  0
 22 21  1  0  0  0  0
 24  2  1  0  0  0  0
 25  5  2  0  0  0  0
 27 14  1  0  0  0  0
 28 23  2  0  0  0  0
 28  9  1  0  0  0  0
 29 20  1  0  0  0  0
 29 30  1  0  0  0  0
 30 31  1  0  0  0  0
 30 32  2  0  0  0  0
M  END
>  <MODEL>
9

>  <REMARK>
 VINA RESULT:      -7.9      2.992      5.132
  Name = 
  2 active torsions:
  status: ('A' for Active; 'I' for Inactive)
    1  A    between atoms: C_20  and  O_29
    2  A    between atoms: O_29  and  C_30
                            x       y       z     vdW  Elec       q    Type
                         _______ _______ _______ _____ _____    ______ ____

>  <TORSDO>
F 2

$$$$
