=
 OpenBabel11112416173D

 30 35  0  0  1  0  0  0  0  0999 V2000
  188.6780  176.8100  145.1030 C   0  0  1  0  0  3  0  0  0  0  0  0
  186.9230  177.6420  146.7470 C   0  0  2  0  0  3  0  0  0  0  0  0
  186.1710  177.4220  141.9290 N   0  0  0  0  0  2  0  0  0  0  0  0
  189.3760  177.1320  143.7720 C   0  0  1  0  0  3  0  0  0  0  0  0
  189.6680  176.5470  146.2550 C   0  0  0  0  0  2  0  0  0  0  0  0
  192.7300  175.9670  144.5460 O   0  0  0  0  0  0  0  0  0  0  0  0
  189.0830  174.3370  143.2190 C   0  0  1  0  0  3  0  0  0  0  0  0
  191.5820  176.3690  144.6650 C   0  0  0  0  0  0  0  0  0  0  0  0
  187.9100  174.8970  142.3990 C   0  0  2  0  0  3  0  0  0  0  0  0
  186.9140  176.5500  141.0210 C   0  0  1  0  0  3  0  0  0  0  0  0
  191.1080  176.9790  145.9650 C   0  0  2  0  0  3  0  0  0  0  0  0
  190.6670  176.3550  143.4690 C   0  0  1  0  0  3  0  0  0  0  0  0
  185.6000  178.3820  146.8880 C   0  0  0  0  0  2  0  0  0  0  0  0
  187.5140  173.8500  141.4610 N   0  0  0  0  0  2  0  0  0  0  0  0
  189.0780  172.8470  142.9710 C   0  0  0  0  0  2  0  0  0  0  0  0
  187.7520  178.0150  147.8060 O   0  0  0  0  0  1  0  0  0  0  0  0
  187.0530  177.7610  142.9750 C   0  0  2  0  0  3  0  0  0  0  0  0
  184.6720  177.9710  145.7630 C   0  0  0  0  0  2  0  0  0  0  0  0
  187.6310  177.9130  145.4000 C   0  0  2  0  0  3  0  0  0  0  0  0
  188.4000  177.2940  142.6060 C   0  0  2  0  0  3  0  0  0  0  0  0
  187.2040  177.2780  139.7200 C   0  0  0  0  0  1  0  0  0  0  0  0
  188.1820  176.1650  141.6830 N   0  0  1  0  0  0  0  0  0  0  0  0
  187.8550  172.5970  142.1170 C   0  0  0  0  0  2  0  0  0  0  0  0
  190.8820  174.8440  141.4710 C   0  0  0  0  0  1  0  0  0  0  0  0
  185.2320  178.4770  144.4470 C   0  0  0  0  0  2  0  0  0  0  0  0
  186.6460  178.0160  144.2290 C   0  0  1  0  0  3  0  0  0  0  0  0
  190.4700  174.9320  142.9340 C   0  0  2  0  0  3  0  0  0  0  0  0
  192.0080  176.6030  147.1380 C   0  0  0  0  0  2  0  0  0  0  0  0
  191.5590  177.8660  149.2420 C   0  0  0  0  0  1  0  0  0  0  0  0
  191.2400  176.6120  148.4510 C   0  0  0  0  0  2  0  0  0  0  0  0
  1 19  1  0  0  0  0
  1  5  1  1  0  0  0
  2 13  1  0  0  0  0
  2 16  1  1  0  0  0
  3 17  1  0  0  0  0
  4  1  1  0  0  0  0
  6  8  2  0  0  0  0
  8 11  1  0  0  0  0
  9  7  1  0  0  0  0
 10 22  1  0  0  0  0
 10  3  1  0  0  0  0
 11  5  1  0  0  0  0
 11 28  1  0  0  0  0
 12  4  1  0  0  0  0
 12  8  1  0  0  0  0
 14 23  1  0  0  0  0
 14  9  1  0  0  0  0
 15  7  1  0  0  0  0
 17 26  1  0  0  0  0
 18 13  1  0  0  0  0
 19  2  1  0  0  0  0
 20 17  1  0  0  0  0
 20  4  1  0  0  0  0
 21 10  1  0  0  0  0
 22  9  1  0  0  0  0
 22 20  1  0  0  0  0
 23 15  1  0  0  0  0
 24 27  1  0  0  0  0
 25 18  1  0  0  0  0
 26 25  1  0  0  0  0
 26 19  1  0  0  0  0
 27  7  1  0  0  0  0
 27 12  1  0  0  0  0
 28 30  1  0  0  0  0
 30 29  1  0  0  0  0
M  END
>  <MODEL>
1

>  <REMARK>
 VINA RESULT:      -7.9      0.000      0.000
  Name = 
  2 active torsions:
  status: ('A' for Active; 'I' for Inactive)
    1  A    between atoms: C_11  and  C_28
    2  A    between atoms: C_28  and  C_30
                            x       y       z     vdW  Elec       q    Type
                         _______ _______ _______ _____ _____    ______ ____

>  <TORSDO>
F 2

$$$$
=
 OpenBabel11112416173D

 30 35  0  0  1  0  0  0  0  0999 V2000
  190.4670  176.3080  144.7560 C   0  0  1  0  0  3  0  0  0  0  0  0
  189.0840  177.1030  146.7390 C   0  0  2  0  0  3  0  0  0  0  0  0
  187.1390  176.0160  142.3950 N   0  0  0  0  0  2  0  0  0  0  0  0
  190.7110  176.5220  143.2540 C   0  0  1  0  0  3  0  0  0  0  0  0
  191.7590  176.3870  145.5940 C   0  0  0  0  0  2  0  0  0  0  0  0
  194.3110  176.0310  143.1460 O   0  0  0  0  0  0  0  0  0  0  0  0
  190.8290  173.6640  143.1100 C   0  0  1  0  0  3  0  0  0  0  0  0
  193.1800  176.2620  143.5480 C   0  0  0  0  0  0  0  0  0  0  0  0
  189.3960  173.8980  142.6100 C   0  0  2  0  0  3  0  0  0  0  0  0
  187.7700  175.1390  141.4100 C   0  0  1  0  0  3  0  0  0  0  0  0
  192.9580  176.9860  144.8560 C   0  0  2  0  0  3  0  0  0  0  0  0
  192.0010  175.9190  142.6760 C   0  0  1  0  0  3  0  0  0  0  0  0
  187.7280  177.6410  147.1760 C   0  0  0  0  0  2  0  0  0  0  0  0
  188.9760  172.6680  141.9440 N   0  0  0  0  0  2  0  0  0  0  0  0
  191.0480  172.1710  143.0350 C   0  0  0  0  0  2  0  0  0  0  0  0
  190.0750  177.7620  147.4660 O   0  0  0  0  0  1  0  0  0  0  0  0
  188.1840  176.6480  143.1000 C   0  0  2  0  0  3  0  0  0  0  0  0
  186.6340  176.9180  146.4170 C   0  0  0  0  0  2  0  0  0  0  0  0
  189.3430  177.2660  145.2230 C   0  0  2  0  0  3  0  0  0  0  0  0
  189.4490  176.3450  142.4090 C   0  0  2  0  0  3  0  0  0  0  0  0
  187.5570  175.6900  140.0110 C   0  0  0  0  0  1  0  0  0  0  0  0
  189.2180  175.0650  141.7150 N   0  0  1  0  0  0  0  0  0  0  0  0
  189.7150  171.6030  142.6020 C   0  0  0  0  0  2  0  0  0  0  0  0
  191.9670  174.1650  140.8740 C   0  0  0  0  0  1  0  0  0  0  0  0
  186.7150  177.2930  144.9490 C   0  0  0  0  0  2  0  0  0  0  0  0
  188.0820  177.0300  144.3830 C   0  0  1  0  0  3  0  0  0  0  0  0
  191.9490  174.4160  142.3760 C   0  0  2  0  0  3  0  0  0  0  0  0
  194.1920  176.9440  145.7520 C   0  0  0  0  0  2  0  0  0  0  0  0
  195.5470  174.8760  146.0890 C   0  0  0  0  0  1  0  0  0  0  0  0
  194.2910  175.6220  146.4970 C   0  0  0  0  0  2  0  0  0  0  0  0
  1 19  1  0  0  0  0
  1  5  1  1  0  0  0
  2 13  1  0  0  0  0
  2 16  1  1  0  0  0
  3 17  1  0  0  0  0
  4  1  1  0  0  0  0
  6  8  2  0  0  0  0
  8 11  1  0  0  0  0
  9  7  1  0  0  0  0
 10 22  1  0  0  0  0
 10  3  1  0  0  0  0
 11  5  1  0  0  0  0
 11 28  1  0  0  0  0
 12  4  1  0  0  0  0
 12  8  1  0  0  0  0
 14 23  1  0  0  0  0
 14  9  1  0  0  0  0
 15  7  1  0  0  0  0
 17 26  1  0  0  0  0
 18 13  1  0  0  0  0
 19  2  1  0  0  0  0
 20 17  1  0  0  0  0
 20  4  1  0  0  0  0
 21 10  1  0  0  0  0
 22 20  1  0  0  0  0
 22  9  1  0  0  0  0
 23 15  1  0  0  0  0
 24 27  1  0  0  0  0
 25 18  1  0  0  0  0
 26 25  1  0  0  0  0
 26 19  1  0  0  0  0
 27 12  1  0  0  0  0
 27  7  1  0  0  0  0
 28 30  1  0  0  0  0
 29 30  1  0  0  0  0
M  END
>  <MODEL>
2

>  <REMARK>
 VINA RESULT:      -7.7      1.660      2.261
  Name = 
  2 active torsions:
  status: ('A' for Active; 'I' for Inactive)
    1  A    between atoms: C_11  and  C_28
    2  A    between atoms: C_28  and  C_30
                            x       y       z     vdW  Elec       q    Type
                         _______ _______ _______ _____ _____    ______ ____

>  <TORSDO>
F 2

$$$$
=
 OpenBabel11112416173D

 30 35  0  0  1  0  0  0  0  0999 V2000
  187.7780  176.6270  142.3840 C   0  0  1  0  0  3  0  0  0  0  0  0
  186.0520  178.4960  142.4380 C   0  0  2  0  0  3  0  0  0  0  0  0
  188.0740  176.6160  146.4650 N   0  0  0  0  0  2  0  0  0  0  0  0
  188.1550  175.2740  143.0080 C   0  0  1  0  0  3  0  0  0  0  0  0
  187.7220  176.5860  140.8440 C   0  0  0  0  0  2  0  0  0  0  0  0
  189.4810  173.5960  140.0700 O   0  0  0  0  0  0  0  0  0  0  0  0
  190.8320  176.2910  143.0080 C   0  0  1  0  0  3  0  0  0  0  0  0
  188.8690  174.3720  140.7890 C   0  0  0  0  0  0  0  0  0  0  0  0
  190.4560  176.5300  144.4780 C   0  0  2  0  0  3  0  0  0  0  0  0
  189.3570  175.9160  146.4880 C   0  0  1  0  0  3  0  0  0  0  0  0
  187.7090  175.1770  140.2470 C   0  0  2  0  0  3  0  0  0  0  0  0
  189.2040  174.4400  142.2560 C   0  0  1  0  0  3  0  0  0  0  0  0
  185.0960  179.2830  143.3240 C   0  0  0  0  0  2  0  0  0  0  0  0
  191.7050  176.7430  145.2040 N   0  0  0  0  0  2  0  0  0  0  0  0
  192.2680  176.7440  142.8780 C   0  0  0  0  0  2  0  0  0  0  0  0
  185.4350  178.2810  141.2060 O   0  0  0  0  0  1  0  0  0  0  0  0
  187.5020  176.3670  145.2000 C   0  0  2  0  0  3  0  0  0  0  0  0
  185.7570  179.5530  144.6600 C   0  0  0  0  0  2  0  0  0  0  0  0
  186.4830  177.1470  143.0570 C   0  0  2  0  0  3  0  0  0  0  0  0
  188.3100  175.3360  144.5280 C   0  0  2  0  0  3  0  0  0  0  0  0
  189.2840  174.7300  147.4340 C   0  0  0  0  0  1  0  0  0  0  0  0
  189.6580  175.4540  145.1130 N   0  0  1  0  0  0  0  0  0  0  0  0
  192.6210  177.3170  144.2320 C   0  0  0  0  0  2  0  0  0  0  0  0
  191.4090  173.8140  143.2910 C   0  0  0  0  0  1  0  0  0  0  0  0
  185.9380  178.2410  145.4000 C   0  0  0  0  0  2  0  0  0  0  0  0
  186.6910  177.2360  144.5740 C   0  0  1  0  0  3  0  0  0  0  0  0
  190.6620  174.8610  142.4750 C   0  0  2  0  0  3  0  0  0  0  0  0
  187.7300  175.2590  138.7240 C   0  0  0  0  0  2  0  0  0  0  0  0
  186.5390  176.1280  136.7100 C   0  0  0  0  0  1  0  0  0  0  0  0
  186.7180  176.2710  138.2100 C   0  0  0  0  0  2  0  0  0  0  0  0
  1  5  1  6  0  0  0
  1  4  1  0  0  0  0
  1 19  1  0  0  0  0
  2 16  1  6  0  0  0
  2 19  1  0  0  0  0
  2 13  1  0  0  0  0
  3 10  1  0  0  0  0
  4 20  1  0  0  0  0
  6  8  2  0  0  0  0
  7  9  1  0  0  0  0
  8 12  1  0  0  0  0
  9 22  1  0  0  0  0
  9 14  1  0  0  0  0
 10 21  1  0  0  0  0
 11  8  1  0  0  0  0
 11  5  1  0  0  0  0
 12 27  1  0  0  0  0
 12  4  1  0  0  0  0
 13 18  1  0  0  0  0
 15  7  1  0  0  0  0
 15 23  1  0  0  0  0
 17  3  1  0  0  0  0
 18 25  1  0  0  0  0
 19 26  1  0  0  0  0
 20 22  1  0  0  0  0
 20 17  1  0  0  0  0
 22 10  1  0  0  0  0
 23 14  1  0  0  0  0
 26 17  1  0  0  0  0
 26 25  1  0  0  0  0
 27  7  1  0  0  0  0
 27 24  1  0  0  0  0
 28 11  1  0  0  0  0
 29 30  1  0  0  0  0
 30 28  1  0  0  0  0
M  END
>  <MODEL>
3

>  <REMARK>
 VINA RESULT:      -7.4      2.662      5.668
  Name = 
  2 active torsions:
  status: ('A' for Active; 'I' for Inactive)
    1  A    between atoms: C_11  and  C_28
    2  A    between atoms: C_28  and  C_30
                            x       y       z     vdW  Elec       q    Type
                         _______ _______ _______ _____ _____    ______ ____

>  <TORSDO>
F 2

$$$$
=
 OpenBabel11112416173D

 30 35  0  0  1  0  0  0  0  0999 V2000
  188.6830  175.3770  143.3190 C   0  0  1  0  0  3  0  0  0  0  0  0
  186.7870  177.0660  143.1500 C   0  0  2  0  0  3  0  0  0  0  0  0
  189.6380  176.6430  147.0900 N   0  0  0  0  0  2  0  0  0  0  0  0
  189.3080  174.3080  144.2280 C   0  0  1  0  0  3  0  0  0  0  0  0
  188.3820  174.8610  141.8980 C   0  0  0  0  0  2  0  0  0  0  0  0
  190.3210  171.8880  141.7130 O   0  0  0  0  0  0  0  0  0  0  0  0
  191.8160  175.4320  143.4230 C   0  0  1  0  0  3  0  0  0  0  0  0
  189.7500  172.8090  142.2770 C   0  0  0  0  0  0  0  0  0  0  0  0
  191.6590  176.0900  144.8020 C   0  0  2  0  0  3  0  0  0  0  0  0
  190.9790  176.0610  147.0740 C   0  0  1  0  0  3  0  0  0  0  0  0
  188.4330  173.3370  141.7530 C   0  0  2  0  0  3  0  0  0  0  0  0
  190.3090  173.3460  143.5680 C   0  0  1  0  0  3  0  0  0  0  0  0
  185.9040  178.0290  143.9320 C   0  0  0  0  0  2  0  0  0  0  0  0
  192.9770  176.5900  145.1830 N   0  0  0  0  0  2  0  0  0  0  0  0
  193.1500  175.9070  142.8960 C   0  0  0  0  0  2  0  0  0  0  0  0
  186.0060  176.4450  142.1750 O   0  0  0  0  0  1  0  0  0  0  0  0
  188.9000  175.9830  146.0870 C   0  0  2  0  0  3  0  0  0  0  0  0
  186.7390  178.7370  144.9800 C   0  0  0  0  0  2  0  0  0  0  0  0
  187.4640  176.0010  144.0440 C   0  0  2  0  0  3  0  0  0  0  0  0
  189.7000  174.8440  145.6050 C   0  0  2  0  0  3  0  0  0  0  0  0
  191.1980  175.2220  148.3210 C   0  0  0  0  0  1  0  0  0  0  0  0
  191.1030  175.2170  145.8630 N   0  0  1  0  0  0  0  0  0  0  0  0
  193.6510  176.8890  143.9300 C   0  0  0  0  0  2  0  0  0  0  0  0
  192.7100  173.2020  144.3020 C   0  0  0  0  0  1  0  0  0  0  0  0
  187.1860  177.7300  146.0230 C   0  0  0  0  0  2  0  0  0  0  0  0
  187.9040  176.5660  145.3990 C   0  0  1  0  0  3  0  0  0  0  0  0
  191.7250  173.9000  143.3740 C   0  0  2  0  0  3  0  0  0  0  0  0
  188.1960  172.9470  140.2970 C   0  0  0  0  0  2  0  0  0  0  0  0
  189.8750  173.5520  138.5540 C   0  0  0  0  0  1  0  0  0  0  0  0
  188.6750  174.0330  139.3470 C   0  0  0  0  0  2  0  0  0  0  0  0
  1  5  1  6  0  0  0
  1 19  1  0  0  0  0
  1  4  1  0  0  0  0
  2 16  1  6  0  0  0
  2 13  1  0  0  0  0
  2 19  1  0  0  0  0
  4 20  1  0  0  0  0
  6  8  2  0  0  0  0
  7  9  1  0  0  0  0
  8 12  1  0  0  0  0
  9 14  1  0  0  0  0
  9 22  1  0  0  0  0
 10  3  1  0  0  0  0
 10 21  1  0  0  0  0
 11  5  1  0  0  0  0
 11  8  1  0  0  0  0
 12  4  1  0  0  0  0
 13 18  1  0  0  0  0
 15  7  1  0  0  0  0
 15 23  1  0  0  0  0
 17  3  1  0  0  0  0
 18 25  1  0  0  0  0
 19 26  1  0  0  0  0
 20 22  1  0  0  0  0
 20 17  1  0  0  0  0
 22 10  1  0  0  0  0
 23 14  1  0  0  0  0
 26 25  1  0  0  0  0
 26 17  1  0  0  0  0
 27  7  1  0  0  0  0
 27 12  1  0  0  0  0
 27 24  1  0  0  0  0
 28 11  1  0  0  0  0
 29 30  1  0  0  0  0
 30 28  1  0  0  0  0
M  END
>  <MODEL>
4

>  <REMARK>
 VINA RESULT:      -7.1      2.790      5.631
  Name = 
  2 active torsions:
  status: ('A' for Active; 'I' for Inactive)
    1  A    between atoms: C_11  and  C_28
    2  A    between atoms: C_28  and  C_30
                            x       y       z     vdW  Elec       q    Type
                         _______ _______ _______ _____ _____    ______ ____

>  <TORSDO>
F 2

$$$$
=
 OpenBabel11112416173D

 30 35  0  0  1  0  0  0  0  0999 V2000
  191.5270  174.2330  144.0980 C   0  0  1  0  0  3  0  0  0  0  0  0
  190.4060  172.2920  142.8920 C   0  0  2  0  0  3  0  0  0  0  0  0
  194.1540  174.7920  141.0120 N   0  0  0  0  0  2  0  0  0  0  0  0
  192.0280  175.6740  143.9200 C   0  0  1  0  0  3  0  0  0  0  0  0
  190.5740  174.0680  145.2980 C   0  0  0  0  0  2  0  0  0  0  0  0
  191.1610  177.0260  147.1810 O   0  0  0  0  0  0  0  0  0  0  0  0
  194.2970  174.8180  145.4440 C   0  0  1  0  0  3  0  0  0  0  0  0
  191.1880  176.3180  146.1850 C   0  0  0  0  0  0  0  0  0  0  0  0
  194.8870  174.7520  144.0270 C   0  0  2  0  0  3  0  0  0  0  0  0
  195.1100  175.5610  141.8090 C   0  0  1  0  0  3  0  0  0  0  0  0
  190.0410  175.3850  145.8690 C   0  0  2  0  0  3  0  0  0  0  0  0
  192.3250  176.4610  145.2070 C   0  0  1  0  0  3  0  0  0  0  0  0
  190.2560  171.5750  141.5570 C   0  0  0  0  0  2  0  0  0  0  0  0
  196.3390  174.7070  144.1760 N   0  0  0  0  0  2  0  0  0  0  0  0
  195.4260  174.4340  146.3720 C   0  0  0  0  0  2  0  0  0  0  0  0
  189.1630  172.3100  143.5250 O   0  0  0  0  0  1  0  0  0  0  0  0
  192.9240  174.8410  141.7000 C   0  0  2  0  0  3  0  0  0  0  0  0
  191.6020  171.5190  140.8640 C   0  0  0  0  0  2  0  0  0  0  0  0
  190.9480  173.7330  142.7500 C   0  0  2  0  0  3  0  0  0  0  0  0
  193.0510  175.8200  142.7930 C   0  0  2  0  0  3  0  0  0  0  0  0
  195.4600  176.8550  141.0950 C   0  0  0  0  0  1  0  0  0  0  0  0
  194.4880  175.8550  143.1210 N   0  0  1  0  0  0  0  0  0  0  0  0
  196.5730  174.0630  145.4590 C   0  0  0  0  0  2  0  0  0  0  0  0
  194.6200  177.3390  145.7400 C   0  0  0  0  0  1  0  0  0  0  0  0
  192.0200  172.9250  140.4740 C   0  0  0  0  0  2  0  0  0  0  0  0
  192.0150  173.8540  141.6550 C   0  0  1  0  0  3  0  0  0  0  0  0
  193.6720  176.1550  145.8710 C   0  0  2  0  0  3  0  0  0  0  0  0
  189.1740  175.1060  147.0940 C   0  0  0  0  0  2  0  0  0  0  0  0
  187.7490  176.6180  145.7130 C   0  0  0  0  0  1  0  0  0  0  0  0
  187.8550  175.8590  147.0220 C   0  0  0  0  0  2  0  0  0  0  0  0
  1  5  1  1  0  0  0
  2 16  1  6  0  0  0
  3 17  1  0  0  0  0
  3 10  1  0  0  0  0
  4  1  1  0  0  0  0
  4 12  1  0  0  0  0
  5 11  1  0  0  0  0
  7 27  1  0  0  0  0
  7 15  1  0  0  0  0
  8  6  2  0  0  0  0
  9 14  1  0  0  0  0
  9  7  1  0  0  0  0
 10 22  1  0  0  0  0
 11  8  1  0  0  0  0
 11 28  1  0  0  0  0
 12 27  1  0  0  0  0
 12  8  1  0  0  0  0
 13  2  1  0  0  0  0
 14 23  1  0  0  0  0
 17 20  1  0  0  0  0
 18 13  1  0  0  0  0
 19  2  1  0  0  0  0
 19  1  1  0  0  0  0
 20 22  1  0  0  0  0
 20  4  1  0  0  0  0
 21 10  1  0  0  0  0
 22  9  1  0  0  0  0
 23 15  1  0  0  0  0
 24 27  1  0  0  0  0
 25 18  1  0  0  0  0
 25 26  1  0  0  0  0
 26 17  1  0  0  0  0
 26 19  1  0  0  0  0
 29 30  1  0  0  0  0
 30 28  1  0  0  0  0
M  END
>  <MODEL>
5

>  <REMARK>
 VINA RESULT:      -6.9      3.571      6.585
  Name = 
  2 active torsions:
  status: ('A' for Active; 'I' for Inactive)
    1  A    between atoms: C_11  and  C_28
    2  A    between atoms: C_28  and  C_30
                            x       y       z     vdW  Elec       q    Type
                         _______ _______ _______ _____ _____    ______ ____

>  <TORSDO>
F 2

$$$$
=
 OpenBabel11112416173D

 30 35  0  0  1  0  0  0  0  0999 V2000
  190.3000  174.2430  142.8520 C   0  0  1  0  0  3  0  0  0  0  0  0
  188.5810  175.6180  141.5750 C   0  0  2  0  0  3  0  0  0  0  0  0
  190.1910  176.8270  146.0220 N   0  0  0  0  0  2  0  0  0  0  0  0
  190.6100  173.6130  144.2190 C   0  0  1  0  0  3  0  0  0  0  0  0
  190.3950  173.2360  141.6880 C   0  0  0  0  0  2  0  0  0  0  0  0
  192.2160  170.5420  143.1240 O   0  0  0  0  0  0  0  0  0  0  0  0
  193.2760  174.5630  143.7830 C   0  0  1  0  0  3  0  0  0  0  0  0
  191.5370  171.5590  143.1390 C   0  0  0  0  0  0  0  0  0  0  0  0
  192.7570  175.6520  144.7330 C   0  0  2  0  0  3  0  0  0  0  0  0
  191.4640  176.3780  146.5840 C   0  0  1  0  0  3  0  0  0  0  0  0
  190.4390  171.7690  142.1210 C   0  0  2  0  0  3  0  0  0  0  0  0
  191.7260  172.5570  144.2500 C   0  0  1  0  0  3  0  0  0  0  0  0
  187.5440  176.7270  141.6830 C   0  0  0  0  0  2  0  0  0  0  0  0
  193.9290  176.3500  145.2540 N   0  0  0  0  0  2  0  0  0  0  0  0
  194.7190  174.9180  143.5070 C   0  0  0  0  0  2  0  0  0  0  0  0
  188.0880  174.6360  140.7150 O   0  0  0  0  0  1  0  0  0  0  0  0
  189.7460  175.8020  145.1620 C   0  0  2  0  0  3  0  0  0  0  0  0
  188.0700  177.8190  142.5920 C   0  0  0  0  0  2  0  0  0  0  0  0
  188.9450  174.9910  142.9400 C   0  0  2  0  0  3  0  0  0  0  0  0
  190.6140  174.6290  145.3610 C   0  0  2  0  0  3  0  0  0  0  0  0
  191.2960  176.0520  148.0580 C   0  0  0  0  0  1  0  0  0  0  0  0
  191.8980  175.1710  145.8420 N   0  0  1  0  0  0  0  0  0  0  0  0
  194.9380  176.2360  144.2140 C   0  0  0  0  0  2  0  0  0  0  0  0
  193.8160  172.8590  145.6150 C   0  0  0  0  0  1  0  0  0  0  0  0
  188.1740  177.2820  144.0070 C   0  0  0  0  0  2  0  0  0  0  0  0
  189.0030  176.0290  144.0670 C   0  0  1  0  0  3  0  0  0  0  0  0
  193.1560  173.1090  144.2650 C   0  0  2  0  0  3  0  0  0  0  0  0
  190.6090  170.8720  140.8980 C   0  0  0  0  0  2  0  0  0  0  0  0
  189.8730  170.6080  138.5290 C   0  0  0  0  0  1  0  0  0  0  0  0
  190.2260  171.6010  139.6190 C   0  0  0  0  0  2  0  0  0  0  0  0
  1  5  1  6  0  0  0
  1 19  1  0  0  0  0
  1  4  1  0  0  0  0
  2 16  1  6  0  0  0
  2 13  1  0  0  0  0
  2 19  1  0  0  0  0
  3 10  1  0  0  0  0
  4 12  1  0  0  0  0
  4 20  1  0  0  0  0
  5 11  1  0  0  0  0
  6  8  2  0  0  0  0
  7 27  1  0  0  0  0
  7  9  1  0  0  0  0
  8 12  1  0  0  0  0
  9 14  1  0  0  0  0
  9 22  1  0  0  0  0
 10 21  1  0  0  0  0
 11  8  1  0  0  0  0
 12 27  1  0  0  0  0
 13 18  1  0  0  0  0
 15  7  1  0  0  0  0
 15 23  1  0  0  0  0
 17 20  1  0  0  0  0
 17  3  1  0  0  0  0
 18 25  1  0  0  0  0
 19 26  1  0  0  0  0
 20 22  1  0  0  0  0
 22 10  1  0  0  0  0
 23 14  1  0  0  0  0
 25 26  1  0  0  0  0
 26 17  1  0  0  0  0
 27 24  1  0  0  0  0
 28 11  1  0  0  0  0
 29 30  1  0  0  0  0
 30 28  1  0  0  0  0
M  END
>  <MODEL>
6

>  <REMARK>
 VINA RESULT:      -6.9      3.266      6.343
  Name = 
  2 active torsions:
  status: ('A' for Active; 'I' for Inactive)
    1  A    between atoms: C_11  and  C_28
    2  A    between atoms: C_28  and  C_30
                            x       y       z     vdW  Elec       q    Type
                         _______ _______ _______ _____ _____    ______ ____

>  <TORSDO>
F 2

$$$$
=
 OpenBabel11112416173D

 30 35  0  0  1  0  0  0  0  0999 V2000
  188.6510  175.7840  142.7860 C   0  0  1  0  0  3  0  0  0  0  0  0
  188.8690  174.0470  140.9380 C   0  0  2  0  0  3  0  0  0  0  0  0
  192.5620  175.2900  143.8790 N   0  0  0  0  0  2  0  0  0  0  0  0
  189.3180  177.0230  143.4020 C   0  0  1  0  0  3  0  0  0  0  0  0
  187.1680  176.0100  142.4310 C   0  0  0  0  0  2  0  0  0  0  0  0
  186.3560  178.9390  144.2740 O   0  0  0  0  0  0  0  0  0  0  0  0
  188.6630  175.8270  145.9210 C   0  0  1  0  0  3  0  0  0  0  0  0
  187.1030  178.1290  143.7450 C   0  0  0  0  0  0  0  0  0  0  0  0
  190.1470  175.4430  145.8200 C   0  0  2  0  0  3  0  0  0  0  0  0
  192.3920  175.8910  145.2010 C   0  0  1  0  0  3  0  0  0  0  0  0
  186.7330  177.4780  142.4330 C   0  0  2  0  0  3  0  0  0  0  0  0
  188.4550  177.8650  144.3550 C   0  0  1  0  0  3  0  0  0  0  0  0
  189.8480  173.2300  140.1060 C   0  0  0  0  0  2  0  0  0  0  0  0
  190.5750  175.0580  147.1620 N   0  0  0  0  0  2  0  0  0  0  0  0
  188.1950  175.2930  147.2540 C   0  0  0  0  0  2  0  0  0  0  0  0
  187.8180  174.4500  140.1130 O   0  0  0  0  0  1  0  0  0  0  0  0
  191.4750  175.7260  143.0940 C   0  0  2  0  0  3  0  0  0  0  0  0
  190.9840  172.7580  140.9900 C   0  0  0  0  0  2  0  0  0  0  0  0
  189.5200  175.2800  141.6060 C   0  0  2  0  0  3  0  0  0  0  0  0
  190.7590  176.7700  143.8470 C   0  0  2  0  0  3  0  0  0  0  0  0
  193.4480  176.9590  145.4260 C   0  0  0  0  0  1  0  0  0  0  0  0
  191.0390  176.4890  145.2670 N   0  0  1  0  0  0  0  0  0  0  0  0
  189.3810  174.5410  147.8120 C   0  0  0  0  0  2  0  0  0  0  0  0
  189.0710  178.2070  146.7690 C   0  0  0  0  0  1  0  0  0  0  0  0
  191.8010  173.9570  141.4340 C   0  0  0  0  0  2  0  0  0  0  0  0
  190.9440  174.9970  142.0990 C   0  0  1  0  0  3  0  0  0  0  0  0
  188.3250  177.3190  145.7820 C   0  0  2  0  0  3  0  0  0  0  0  0
  185.2370  177.5750  142.1450 C   0  0  0  0  0  2  0  0  0  0  0  0
  183.4870  178.2890  140.5160 C   0  0  0  0  0  1  0  0  0  0  0  0
  184.9720  178.2840  140.8260 C   0  0  0  0  0  2  0  0  0  0  0  0
  1  5  1  6  0  0  0
  1  4  1  0  0  0  0
  2 16  1  6  0  0  0
  2 19  1  0  0  0  0
  3 10  1  0  0  0  0
  4 20  1  0  0  0  0
  4 12  1  0  0  0  0
  5 11  1  0  0  0  0
  7 15  1  0  0  0  0
  8  6  2  0  0  0  0
  8 12  1  0  0  0  0
  9  7  1  0  0  0  0
  9 14  1  0  0  0  0
 10 22  1  0  0  0  0
 10 21  1  0  0  0  0
 11  8  1  0  0  0  0
 12 27  1  0  0  0  0
 13  2  1  0  0  0  0
 13 18  1  0  0  0  0
 14 23  1  0  0  0  0
 15 23  1  0  0  0  0
 17 20  1  0  0  0  0
 17  3  1  0  0  0  0
 18 25  1  0  0  0  0
 19 26  1  0  0  0  0
 19  1  1  0  0  0  0
 20 22  1  0  0  0  0
 22  9  1  0  0  0  0
 25 26  1  0  0  0  0
 26 17  1  0  0  0  0
 27  7  1  0  0  0  0
 27 24  1  0  0  0  0
 28 11  1  0  0  0  0
 29 30  1  0  0  0  0
 30 28  1  0  0  0  0
M  END
>  <MODEL>
7

>  <REMARK>
 VINA RESULT:      -6.9      2.825      6.590
  Name = 
  2 active torsions:
  status: ('A' for Active; 'I' for Inactive)
    1  A    between atoms: C_11  and  C_28
    2  A    between atoms: C_28  and  C_30
                            x       y       z     vdW  Elec       q    Type
                         _______ _______ _______ _____ _____    ______ ____

>  <TORSDO>
F 2

$$$$
=
 OpenBabel11112416173D

 30 35  0  0  1  0  0  0  0  0999 V2000
  192.0220  175.6010  144.4760 C   0  0  1  0  0  3  0  0  0  0  0  0
  191.4670  176.4170  146.8220 C   0  0  2  0  0  3  0  0  0  0  0  0
  188.1710  176.1960  143.2270 N   0  0  0  0  0  2  0  0  0  0  0  0
  191.8630  175.9300  142.9840 C   0  0  1  0  0  3  0  0  0  0  0  0
  193.4860  175.3450  144.8850 C   0  0  0  0  0  2  0  0  0  0  0  0
  195.0910  174.7920  141.7620 O   0  0  0  0  0  0  0  0  0  0  0  0
  191.3290  173.1330  142.6710 C   0  0  1  0  0  3  0  0  0  0  0  0
  194.1990  175.1830  142.5000 C   0  0  0  0  0  0  0  0  0  0  0  0
  189.8960  173.6840  142.6410 C   0  0  2  0  0  3  0  0  0  0  0  0
  188.2930  175.3300  142.0550 C   0  0  1  0  0  3  0  0  0  0  0  0
  194.5210  175.7880  143.8480 C   0  0  2  0  0  3  0  0  0  0  0  0
  192.7740  175.1640  142.0110 C   0  0  1  0  0  3  0  0  0  0  0  0
  190.4390  177.1460  147.6760 C   0  0  0  0  0  2  0  0  0  0  0  0
  189.0530  172.6350  142.0750 N   0  0  0  0  0  2  0  0  0  0  0  0
  191.1970  171.6430  142.4590 C   0  0  0  0  0  2  0  0  0  0  0  0
  192.7410  176.7960  147.2460 O   0  0  0  0  0  1  0  0  0  0  0  0
  189.4840  176.5410  143.6110 C   0  0  2  0  0  3  0  0  0  0  0  0
  189.0460  176.7280  147.2520 C   0  0  0  0  0  2  0  0  0  0  0  0
  191.3080  176.6950  145.3100 C   0  0  2  0  0  3  0  0  0  0  0  0
  190.4030  176.0850  142.5550 C   0  0  2  0  0  3  0  0  0  0  0  0
  187.8080  176.0620  140.8160 C   0  0  0  0  0  1  0  0  0  0  0  0
  189.7180  174.9550  141.9020 N   0  0  1  0  0  0  0  0  0  0  0  0
  189.7080  171.3840  142.4240 C   0  0  0  0  0  2  0  0  0  0  0  0
  191.8550  173.6560  140.2210 C   0  0  0  0  0  1  0  0  0  0  0  0
  188.7790  177.2400  145.8490 C   0  0  0  0  0  2  0  0  0  0  0  0
  189.8380  176.7910  144.8820 C   0  0  1  0  0  3  0  0  0  0  0  0
  192.3230  173.7400  141.6680 C   0  0  2  0  0  3  0  0  0  0  0  0
  195.9230  175.4190  144.3230 C   0  0  0  0  0  2  0  0  0  0  0  0
  197.0880  173.7510  145.7680 C   0  0  0  0  0  1  0  0  0  0  0  0
  195.8780  174.6570  145.6390 C   0  0  0  0  0  2  0  0  0  0  0  0
  1  5  1  1  0  0  0
  1 19  1  0  0  0  0
  2 16  1  1  0  0  0
  2 13  1  0  0  0  0
  3 17  1  0  0  0  0
  4  1  1  0  0  0  0
  6  8  2  0  0  0  0
  8 11  1  0  0  0  0
  9  7  1  0  0  0  0
 10  3  1  0  0  0  0
 11 28  1  0  0  0  0
 11  5  1  0  0  0  0
 12  8  1  0  0  0  0
 12  4  1  0  0  0  0
 14 23  1  0  0  0  0
 14  9  1  0  0  0  0
 15  7  1  0  0  0  0
 17 26  1  0  0  0  0
 18 13  1  0  0  0  0
 19  2  1  0  0  0  0
 20  4  1  0  0  0  0
 20 17  1  0  0  0  0
 21 10  1  0  0  0  0
 22 10  1  0  0  0  0
 22 20  1  0  0  0  0
 22  9  1  0  0  0  0
 23 15  1  0  0  0  0
 24 27  1  0  0  0  0
 25 18  1  0  0  0  0
 26 19  1  0  0  0  0
 26 25  1  0  0  0  0
 27 12  1  0  0  0  0
 27  7  1  0  0  0  0
 28 30  1  0  0  0  0
 30 29  1  0  0  0  0
M  END
>  <MODEL>
8

>  <REMARK>
 VINA RESULT:      -6.7      2.407      3.743
  Name = 
  2 active torsions:
  status: ('A' for Active; 'I' for Inactive)
    1  A    between atoms: C_11  and  C_28
    2  A    between atoms: C_28  and  C_30
                            x       y       z     vdW  Elec       q    Type
                         _______ _______ _______ _____ _____    ______ ____

>  <TORSDO>
F 2

$$$$
=
 OpenBabel11112416173D

 30 35  0  0  1  0  0  0  0  0999 V2000
  191.0890  174.0500  143.5980 C   0  0  1  0  0  3  0  0  0  0  0  0
  189.4540  173.0270  141.9370 C   0  0  2  0  0  3  0  0  0  0  0  0
  193.9790  174.3980  140.7230 N   0  0  0  0  0  2  0  0  0  0  0  0
  192.0790  175.2070  143.8040 C   0  0  1  0  0  3  0  0  0  0  0  0
  190.0480  173.9380  144.7290 C   0  0  0  0  0  2  0  0  0  0  0  0
  191.4920  175.8910  147.3240 O   0  0  0  0  0  0  0  0  0  0  0  0
  193.7720  173.2270  144.9950 C   0  0  1  0  0  3  0  0  0  0  0  0
  191.3450  175.5030  146.1740 C   0  0  0  0  0  0  0  0  0  0  0  0
  194.4100  173.3200  143.6010 C   0  0  2  0  0  3  0  0  0  0  0  0
  195.0780  174.5360  141.6770 C   0  0  1  0  0  3  0  0  0  0  0  0
  189.9710  175.1640  145.6430 C   0  0  2  0  0  3  0  0  0  0  0  0
  192.5320  175.4730  145.2480 C   0  0  1  0  0  3  0  0  0  0  0  0
  189.1660  172.7830  140.4620 C   0  0  0  0  0  2  0  0  0  0  0  0
  195.7350  172.7160  143.7020 N   0  0  0  0  0  2  0  0  0  0  0  0
  194.6150  172.2350  145.7620 C   0  0  0  0  0  2  0  0  0  0  0  0
  188.2510  173.3300  142.5770 O   0  0  0  0  0  1  0  0  0  0  0  0
  192.7960  174.7090  141.4240 C   0  0  2  0  0  3  0  0  0  0  0  0
  190.4560  172.4250  139.7520 C   0  0  0  0  0  2  0  0  0  0  0  0
  190.4790  174.1590  142.1770 C   0  0  2  0  0  3  0  0  0  0  0  0
  193.1730  175.2580  142.7360 C   0  0  2  0  0  3  0  0  0  0  0  0
  195.9190  175.7530  141.3300 C   0  0  0  0  0  1  0  0  0  0  0  0
  194.4990  174.6860  143.0330 N   0  0  1  0  0  0  0  0  0  0  0  0
  195.6260  171.7240  144.7600 C   0  0  0  0  0  2  0  0  0  0  0  0
  194.9400  175.2940  145.9510 C   0  0  0  0  0  1  0  0  0  0  0  0
  191.3720  173.6350  139.7460 C   0  0  0  0  0  2  0  0  0  0  0  0
  191.6030  174.1650  141.1330 C   0  0  1  0  0  3  0  0  0  0  0  0
  193.6280  174.5400  145.7780 C   0  0  2  0  0  3  0  0  0  0  0  0
  188.9680  174.9110  146.7650 C   0  0  0  0  0  2  0  0  0  0  0  0
  187.7770  176.7330  145.5450 C   0  0  0  0  0  1  0  0  0  0  0  0
  187.9740  176.0560  146.8880 C   0  0  0  0  0  2  0  0  0  0  0  0
  1  4  1  0  0  0  0
  1  5  1  1  0  0  0
  2 19  1  0  0  0  0
  2 16  1  1  0  0  0
  3 17  1  0  0  0  0
  3 10  1  0  0  0  0
  4 12  1  0  0  0  0
  5 11  1  0  0  0  0
  7 15  1  0  0  0  0
  7 27  1  0  0  0  0
  8  6  2  0  0  0  0
  9 14  1  0  0  0  0
  9  7  1  0  0  0  0
 10 22  1  0  0  0  0
 11  8  1  0  0  0  0
 11 28  1  0  0  0  0
 12 27  1  0  0  0  0
 12  8  1  0  0  0  0
 13  2  1  0  0  0  0
 14 23  1  0  0  0  0
 17 20  1  0  0  0  0
 18 13  1  0  0  0  0
 19  1  1  0  0  0  0
 20 22  1  0  0  0  0
 20  4  1  0  0  0  0
 21 10  1  0  0  0  0
 22  9  1  0  0  0  0
 23 15  1  0  0  0  0
 25 18  1  0  0  0  0
 25 26  1  0  0  0  0
 26 17  1  0  0  0  0
 26 19  1  0  0  0  0
 27 24  1  0  0  0  0
 28 30  1  0  0  0  0
 29 30  1  0  0  0  0
M  END
>  <MODEL>
9

>  <REMARK>
 VINA RESULT:      -6.6      3.706      6.361
  Name = 
  2 active torsions:
  status: ('A' for Active; 'I' for Inactive)
    1  A    between atoms: C_11  and  C_28
    2  A    between atoms: C_28  and  C_30
                            x       y       z     vdW  Elec       q    Type
                         _______ _______ _______ _____ _____    ______ ____

>  <TORSDO>
F 2

$$$$
