=
 OpenBabel11112417153D

 37 42  0  0  1  0  0  0  0  0999 V2000
  194.8640  176.0420  144.5490 C   0  0  0  0  0  0  0  0  0  0  0  0
  190.8690  175.9610  145.7730 C   0  0  0  0  0  0  0  0  0  0  0  0
  189.3110  177.9380  144.4760 O   0  0  0  0  0  1  0  0  0  0  0  0
  193.1330  176.4370  146.3880 C   0  0  0  0  0  0  0  0  0  0  0  0
  190.0910  175.6510  144.5350 C   0  0  1  0  0  3  0  0  0  0  0  0
  192.1880  176.0130  145.4710 C   0  0  0  0  0  0  0  0  0  0  0  0
  188.9080  176.6040  144.3500 C   0  0  1  0  0  3  0  0  0  0  0  0
  192.7110  176.7950  147.6350 N   0  0  0  0  0  0  0  0  0  0  0  0
  192.4470  175.8260  144.1040 N   0  0  0  0  0  0  0  0  0  0  0  0
  195.1350  174.5570  144.7210 C   0  0  0  0  0  1  0  0  0  0  0  0
  188.9550  176.5710  147.3060 C   0  0  0  0  0  2  0  0  0  0  0  0
  191.3820  176.7640  147.9740 C   0  0  0  0  0  3  0  0  0  0  0  0
  193.7220  176.2450  143.5280 C   0  0  0  0  0  2  0  0  0  0  0  0
  190.4130  176.3510  147.0370 C   0  0  0  0  0  0  0  0  0  0  0  0
  191.1600  175.7620  143.4090 C   0  0  1  0  0  3  0  0  0  0  0  0
  194.5480  176.6740  145.9270 C   0  0  0  0  0  2  0  0  0  0  0  0
  187.7750  176.2570  145.3440 C   0  0  1  0  0  3  0  0  0  0  0  0
  196.1180  176.6910  144.0000 C   0  0  0  0  0  1  0  0  0  0  0  0
  188.1580  175.6680  146.5770 O   0  0  0  0  0  0  0  0  0  0  0  0
  190.9170  173.2320  143.1730 C   0  0  0  0  0  2  0  0  0  0  0  0
  190.7840  172.1340  142.2260 N   0  0  0  0  0  0  0  0  0  0  0  0
  188.7270  172.7220  141.0230 C   0  0  2  0  0  3  0  0  0  0  0  0
  189.3580  171.8520  142.1060 C   0  0  0  0  0  2  0  0  0  0  0  0
  188.8510  174.1790  141.3690 C   0  0  0  0  0  0  0  0  0  0  0  0
  187.8970  174.8050  141.8030 O   0  0  0  0  0  0  0  0  0  0  0  0
  190.1920  174.8400  141.2510 C   0  0  0  0  0  2  0  0  0  0  0  0
  187.3890  172.3640  140.8560 O   0  0  0  0  0  1  0  0  0  0  0  0
  191.1250  174.5720  142.4460 C   0  0  1  0  0  3  0  0  0  0  0  0
  192.1630  171.4050  144.0890 C   0  0  0  0  0  1  0  0  0  0  0  0
  191.3900  170.9740  142.8580 C   0  0  0  0  0  2  0  0  0  0  0  0
  185.5710  177.0260  146.3240 C   0  0  0  0  0  3  0  0  0  0  0  0
  186.6380  177.2320  145.4370 C   0  0  0  0  0  0  0  0  0  0  0  0
  186.6530  178.3730  144.6280 C   0  0  0  0  0  3  0  0  0  0  0  0
  185.6280  180.4030  143.9140 F   0  0  0  0  0  0  0  0  0  0  0  0
  184.5470  179.0910  145.5830 C   0  0  0  0  0  3  0  0  0  0  0  0
  185.6100  179.3000  144.6990 C   0  0  0  0  0  0  0  0  0  0  0  0
  184.5270  177.9530  146.3960 C   0  0  0  0  0  3  0  0  0  0  0  0
  1 10  1  0  0  0  0
  1 16  1  0  0  0  0
  2 14  1  0  0  0  0
  4  8  2  0  0  0  0
  5  2  1  1  0  0  0
  6  2  2  0  0  0  0
  6  4  1  0  0  0  0
  7  3  1  1  0  0  0
  7  5  1  0  0  0  0
  7 17  1  0  0  0  0
  8 12  1  0  0  0  0
  9  6  1  0  0  0  0
 13  9  1  0  0  0  0
 13  1  1  0  0  0  0
 14 11  1  0  0  0  0
 14 12  2  0  0  0  0
 15  9  1  1  0  0  0
 15  5  1  0  0  0  0
 16  4  1  0  0  0  0
 17 32  1  1  0  0  0
 17 19  1  0  0  0  0
 18  1  1  0  0  0  0
 19 11  1  0  0  0  0
 21 30  1  0  0  0  0
 21 20  1  0  0  0  0
 22 27  1  1  0  0  0
 22 24  1  0  0  0  0
 22 23  1  0  0  0  0
 23 21  1  0  0  0  0
 24 25  2  0  0  0  0
 26 24  1  0  0  0  0
 28 26  1  6  0  0  0
 28 20  1  0  0  0  0
 28 15  1  0  0  0  0
 30 29  1  0  0  0  0
 31 37  1  0  0  0  0
 32 31  2  0  0  0  0
 33 36  2  0  0  0  0
 33 32  1  0  0  0  0
 34 36  1  0  0  0  0
 35 37  2  0  0  0  0
 36 35  1  0  0  0  0
M  END
>  <MODEL>
1

>  <REMARK>
 VINA RESULT:      -9.3      0.000      0.000
  Name = 
  3 active torsions:
  status: ('A' for Active; 'I' for Inactive)
    1  A    between atoms: N_4  and  C_37
    2  A    between atoms: C_21  and  C_27
    3  A    between atoms: C_23  and  C_30
                            x       y       z     vdW  Elec       q    Type
                         _______ _______ _______ _____ _____    ______ ____

>  <TORSDO>
F 3

$$$$
=
 OpenBabel11112417153D

 37 42  0  0  1  0  0  0  0  0999 V2000
  191.0700  171.6830  140.9880 C   0  0  0  0  0  0  0  0  0  0  0  0
  189.5920  175.3320  142.3880 C   0  0  0  0  0  0  0  0  0  0  0  0
  188.1850  175.0520  144.8310 O   0  0  0  0  0  1  0  0  0  0  0  0
  189.4340  173.6280  140.7160 C   0  0  0  0  0  0  0  0  0  0  0  0
  190.2670  175.5440  143.7060 C   0  0  1  0  0  3  0  0  0  0  0  0
  190.0090  174.1600  141.8550 C   0  0  0  0  0  0  0  0  0  0  0  0
  189.2720  175.9320  144.8020 C   0  0  1  0  0  3  0  0  0  0  0  0
  188.4270  174.3240  140.1120 N   0  0  0  0  0  0  0  0  0  0  0  0
  190.8900  173.4570  142.6930 N   0  0  0  0  0  0  0  0  0  0  0  0
  192.3010  172.2420  140.2950 C   0  0  0  0  0  1  0  0  0  0  0  0
  187.8790  177.1860  142.5150 C   0  0  0  0  0  2  0  0  0  0  0  0
  187.9710  175.5110  140.6290 C   0  0  0  0  0  3  0  0  0  0  0  0
  191.1220  172.0300  142.4930 C   0  0  0  0  0  2  0  0  0  0  0  0
  188.5420  176.0470  141.8010 C   0  0  0  0  0  0  0  0  0  0  0  0
  190.9740  174.1810  143.9630 C   0  0  1  0  0  3  0  0  0  0  0  0
  189.7940  172.2260  140.2960 C   0  0  0  0  0  2  0  0  0  0  0  0
  188.8120  177.3970  144.6190 C   0  0  1  0  0  3  0  0  0  0  0  0
  191.0880  170.1760  140.8420 C   0  0  0  0  0  1  0  0  0  0  0  0
  188.8010  177.9080  143.2950 O   0  0  0  0  0  0  0  0  0  0  0  0
  193.1530  175.4660  143.6170 C   0  0  0  0  0  2  0  0  0  0  0  0
  194.5040  175.6710  144.1180 N   0  0  0  0  0  0  0  0  0  0  0  0
  194.1020  176.4250  146.4190 C   0  0  2  0  0  3  0  0  0  0  0  0
  194.4550  176.8370  144.9940 C   0  0  0  0  0  2  0  0  0  0  0  0
  192.7410  175.7900  146.4710 C   0  0  0  0  0  0  0  0  0  0  0  0
  191.7730  176.4100  146.8840 O   0  0  0  0  0  0  0  0  0  0  0  0
  192.5670  174.4030  145.9260 C   0  0  0  0  0  2  0  0  0  0  0  0
  194.1610  177.5400  147.2570 O   0  0  0  0  0  1  0  0  0  0  0  0
  192.4340  174.3480  144.3930 C   0  0  1  0  0  3  0  0  0  0  0  0
  196.5540  176.7820  143.4340 C   0  0  0  0  0  1  0  0  0  0  0  0
  195.3150  176.0410  142.9700 C   0  0  0  0  0  2  0  0  0  0  0  0
  187.6420  177.5780  146.8570 C   0  0  0  0  0  3  0  0  0  0  0  0
  187.6750  177.8590  145.4830 C   0  0  0  0  0  0  0  0  0  0  0  0
  186.6350  178.5920  144.9020 C   0  0  0  0  0  3  0  0  0  0  0  0
  184.5620  179.7490  145.1200 F   0  0  0  0  0  0  0  0  0  0  0  0
  185.5360  178.7560  147.0540 C   0  0  0  0  0  3  0  0  0  0  0  0
  185.5670  179.0400  145.6860 C   0  0  0  0  0  0  0  0  0  0  0  0
  186.5740  178.0250  147.6400 C   0  0  0  0  0  3  0  0  0  0  0  0
  1 13  1  0  0  0  0
  4  6  2  0  0  0  0
  5  2  1  6  0  0  0
  5 15  1  0  0  0  0
  5  7  1  0  0  0  0
  6  2  1  0  0  0  0
  6  9  1  0  0  0  0
  7  3  1  6  0  0  0
  8 12  2  0  0  0  0
  8  4  1  0  0  0  0
 10  1  1  0  0  0  0
 11 19  1  0  0  0  0
 12 14  1  0  0  0  0
 13  9  1  0  0  0  0
 14  2  2  0  0  0  0
 14 11  1  0  0  0  0
 15  9  1  6  0  0  0
 15 28  1  0  0  0  0
 16  4  1  0  0  0  0
 16  1  1  0  0  0  0
 17  7  1  0  0  0  0
 17 32  1  6  0  0  0
 18  1  1  0  0  0  0
 19 17  1  0  0  0  0
 20 21  1  0  0  0  0
 21 23  1  0  0  0  0
 22 24  1  0  0  0  0
 22 27  1  1  0  0  0
 23 22  1  0  0  0  0
 24 25  2  0  0  0  0
 26 24  1  0  0  0  0
 28 20  1  6  0  0  0
 28 26  1  0  0  0  0
 30 29  1  0  0  0  0
 30 21  1  0  0  0  0
 31 37  1  0  0  0  0
 32 31  2  0  0  0  0
 33 32  1  0  0  0  0
 33 36  2  0  0  0  0
 34 36  1  0  0  0  0
 35 37  2  0  0  0  0
 36 35  1  0  0  0  0
M  END
>  <MODEL>
2

>  <REMARK>
 VINA RESULT:      -8.8      1.935      5.468
  Name = 
  3 active torsions:
  status: ('A' for Active; 'I' for Inactive)
    1  A    between atoms: N_4  and  C_37
    2  A    between atoms: C_21  and  C_27
    3  A    between atoms: C_23  and  C_30
                            x       y       z     vdW  Elec       q    Type
                         _______ _______ _______ _____ _____    ______ ____

>  <TORSDO>
F 3

$$$$
=
 OpenBabel11112417153D

 37 42  0  0  1  0  0  0  0  0999 V2000
  194.8030  175.9270  144.2760 C   0  0  0  0  0  0  0  0  0  0  0  0
  190.8270  175.8810  145.5630 C   0  0  0  0  0  0  0  0  0  0  0  0
  189.2840  177.9200  144.3440 O   0  0  0  0  0  1  0  0  0  0  0  0
  193.1090  176.3010  146.1530 C   0  0  0  0  0  0  0  0  0  0  0  0
  190.0240  175.6190  144.3290 C   0  0  1  0  0  3  0  0  0  0  0  0
  192.1420  175.9190  145.2410 C   0  0  0  0  0  0  0  0  0  0  0  0
  188.8550  176.5970  144.1900 C   0  0  1  0  0  3  0  0  0  0  0  0
  192.7130  176.6330  147.4160 N   0  0  0  0  0  0  0  0  0  0  0  0
  192.3760  175.7650  143.8650 N   0  0  0  0  0  0  0  0  0  0  0  0
  195.0500  174.4330  144.4040 C   0  0  0  0  0  1  0  0  0  0  0  0
  188.9490  176.4840  147.1420 C   0  0  0  0  0  2  0  0  0  0  0  0
  191.3890  176.6160  147.7760 C   0  0  0  0  0  3  0  0  0  0  0  0
  193.6490  176.1760  143.2800 C   0  0  0  0  0  2  0  0  0  0  0  0
  190.3990  176.2460  146.8440 C   0  0  0  0  0  0  0  0  0  0  0  0
  191.0770  175.7420  143.1890 C   0  0  1  0  0  3  0  0  0  0  0  0
  194.5200  176.5270  145.6760 C   0  0  0  0  0  2  0  0  0  0  0  0
  187.7320  176.2430  145.1930 C   0  0  1  0  0  3  0  0  0  0  0  0
  196.0590  176.5690  143.7250 C   0  0  0  0  0  1  0  0  0  0  0  0
  188.1250  175.6150  146.4030 O   0  0  0  0  0  0  0  0  0  0  0  0
  192.2950  174.4330  141.3670 C   0  0  0  0  0  2  0  0  0  0  0  0
  192.2380  173.2590  140.5070 N   0  0  0  0  0  0  0  0  0  0  0  0
  192.1170  171.4230  142.1310 C   0  0  2  0  0  3  0  0  0  0  0  0
  193.0040  172.2130  141.1740 C   0  0  0  0  0  2  0  0  0  0  0  0
  191.5720  172.3130  143.2120 C   0  0  0  0  0  0  0  0  0  0  0  0
  192.0430  172.2940  144.3390 O   0  0  0  0  0  0  0  0  0  0  0  0
  190.4900  173.2940  142.8670 C   0  0  0  0  0  2  0  0  0  0  0  0
  192.8440  170.3650  142.6800 O   0  0  0  0  0  1  0  0  0  0  0  0
  191.0060  174.5790  142.1960 C   0  0  1  0  0  3  0  0  0  0  0  0
  193.9090  174.7570  139.5750 C   0  0  0  0  0  1  0  0  0  0  0  0
  192.9640  173.6050  139.2960 C   0  0  0  0  0  2  0  0  0  0  0  0
  185.5470  177.0130  146.2130 C   0  0  0  0  0  3  0  0  0  0  0  0
  186.6150  177.2350  145.3300 C   0  0  0  0  0  0  0  0  0  0  0  0
  186.6480  178.4070  144.5670 C   0  0  0  0  0  3  0  0  0  0  0  0
  185.6590  180.4830  143.9410 F   0  0  0  0  0  0  0  0  0  0  0  0
  184.5590  179.1250  145.5610 C   0  0  0  0  0  3  0  0  0  0  0  0
  185.6230  179.3500  144.6810 C   0  0  0  0  0  0  0  0  0  0  0  0
  184.5210  177.9560  146.3270 C   0  0  0  0  0  3  0  0  0  0  0  0
  1 10  1  0  0  0  0
  1 16  1  0  0  0  0
  2 14  1  0  0  0  0
  4  8  2  0  0  0  0
  5  2  1  1  0  0  0
  6  2  2  0  0  0  0
  6  4  1  0  0  0  0
  7  5  1  0  0  0  0
  7  3  1  1  0  0  0
  7 17  1  0  0  0  0
  8 12  1  0  0  0  0
  9  6  1  0  0  0  0
 13  9  1  0  0  0  0
 13  1  1  0  0  0  0
 14 11  1  0  0  0  0
 14 12  2  0  0  0  0
 15  9  1  1  0  0  0
 15  5  1  0  0  0  0
 16  4  1  0  0  0  0
 17 32  1  1  0  0  0
 17 19  1  0  0  0  0
 18  1  1  0  0  0  0
 19 11  1  0  0  0  0
 21 23  1  0  0  0  0
 21 20  1  0  0  0  0
 22 27  1  1  0  0  0
 22 24  1  0  0  0  0
 23 22  1  0  0  0  0
 24 25  2  0  0  0  0
 26 24  1  0  0  0  0
 28 20  1  1  0  0  0
 28 26  1  0  0  0  0
 28 15  1  0  0  0  0
 30 29  1  0  0  0  0
 30 21  1  0  0  0  0
 31 37  1  0  0  0  0
 32 31  2  0  0  0  0
 33 36  2  0  0  0  0
 33 32  1  0  0  0  0
 34 36  1  0  0  0  0
 35 37  2  0  0  0  0
 36 35  1  0  0  0  0
M  END
>  <MODEL>
3

>  <REMARK>
 VINA RESULT:      -8.8      1.771      2.242
  Name = 
  3 active torsions:
  status: ('A' for Active; 'I' for Inactive)
    1  A    between atoms: N_4  and  C_37
    2  A    between atoms: C_21  and  C_27
    3  A    between atoms: C_23  and  C_30
                            x       y       z     vdW  Elec       q    Type
                         _______ _______ _______ _____ _____    ______ ____

>  <TORSDO>
F 3

$$$$
=
 OpenBabel11112417153D

 37 42  0  0  1  0  0  0  0  0999 V2000
  195.1060  175.8380  144.4740 C   0  0  0  0  0  0  0  0  0  0  0  0
  191.0550  175.8500  145.5030 C   0  0  0  0  0  0  0  0  0  0  0  0
  189.5870  177.7870  144.0480 O   0  0  0  0  0  1  0  0  0  0  0  0
  193.2930  176.3280  146.2070 C   0  0  0  0  0  0  0  0  0  0  0  0
  190.3340  175.4960  144.2420 C   0  0  1  0  0  3  0  0  0  0  0  0
  192.3880  175.8760  145.2640 C   0  0  0  0  0  0  0  0  0  0  0  0
  189.1740  176.4530  143.9600 C   0  0  1  0  0  3  0  0  0  0  0  0
  192.8150  176.7430  147.4160 N   0  0  0  0  0  0  0  0  0  0  0  0
  192.7100  175.6280  143.9200 N   0  0  0  0  0  0  0  0  0  0  0  0
  195.3490  174.3580  144.7220 C   0  0  0  0  0  1  0  0  0  0  0  0
  189.0770  176.5460  146.9130 C   0  0  0  0  0  2  0  0  0  0  0  0
  191.4700  176.7410  147.6910 C   0  0  0  0  0  3  0  0  0  0  0  0
  194.0170  176.0080  143.3910 C   0  0  0  0  0  2  0  0  0  0  0  0
  190.5430  176.2990  146.7250 C   0  0  0  0  0  0  0  0  0  0  0  0
  191.4580  175.5480  143.1660 C   0  0  1  0  0  3  0  0  0  0  0  0
  194.7310  176.5310  145.8080 C   0  0  0  0  0  2  0  0  0  0  0  0
  187.9890  176.1610  144.9100 C   0  0  1  0  0  3  0  0  0  0  0  0
  196.3920  176.4490  143.9610 C   0  0  0  0  0  1  0  0  0  0  0  0
  188.3050  175.6210  146.1840 O   0  0  0  0  0  0  0  0  0  0  0  0
  190.9390  173.0570  142.9670 C   0  0  0  0  0  2  0  0  0  0  0  0
  190.8500  171.9310  142.0480 N   0  0  0  0  0  0  0  0  0  0  0  0
  189.1560  172.6940  140.4440 C   0  0  2  0  0  3  0  0  0  0  0  0
  189.4490  171.8180  141.6570 C   0  0  0  0  0  2  0  0  0  0  0  0
  189.3990  174.1430  140.7600 C   0  0  0  0  0  0  0  0  0  0  0  0
  188.4690  174.9040  140.9780 O   0  0  0  0  0  0  0  0  0  0  0  0
  190.8120  174.6300  140.8900 C   0  0  0  0  0  2  0  0  0  0  0  0
  187.8400  172.4920  140.0260 O   0  0  0  0  0  1  0  0  0  0  0  0
  191.4560  174.3190  142.2530 C   0  0  1  0  0  3  0  0  0  0  0  0
  192.6200  170.3640  142.6090 C   0  0  0  0  0  1  0  0  0  0  0  0
  191.1670  170.7440  142.8230 C   0  0  0  0  0  2  0  0  0  0  0  0
  186.8180  178.2020  143.9780 C   0  0  0  0  0  3  0  0  0  0  0  0
  186.8620  177.1510  144.9060 C   0  0  0  0  0  0  0  0  0  0  0  0
  185.8320  177.0130  145.8430 C   0  0  0  0  0  3  0  0  0  0  0  0
  183.7730  177.7810  146.7650 F   0  0  0  0  0  0  0  0  0  0  0  0
  184.7270  178.9650  144.9310 C   0  0  0  0  0  3  0  0  0  0  0  0
  184.7670  177.9180  145.8560 C   0  0  0  0  0  0  0  0  0  0  0  0
  185.7530  179.1070  143.9910 C   0  0  0  0  0  3  0  0  0  0  0  0
  1 10  1  0  0  0  0
  1 16  1  0  0  0  0
  2 14  1  0  0  0  0
  4  8  2  0  0  0  0
  5  2  1  1  0  0  0
  6  2  2  0  0  0  0
  6  4  1  0  0  0  0
  7  3  1  1  0  0  0
  7  5  1  0  0  0  0
  7 17  1  0  0  0  0
  8 12  1  0  0  0  0
  9  6  1  0  0  0  0
 13  9  1  0  0  0  0
 13  1  1  0  0  0  0
 14 11  1  0  0  0  0
 14 12  2  0  0  0  0
 15  9  1  1  0  0  0
 15  5  1  0  0  0  0
 16  4  1  0  0  0  0
 17 32  1  1  0  0  0
 17 19  1  0  0  0  0
 18  1  1  0  0  0  0
 19 11  1  0  0  0  0
 21 30  1  0  0  0  0
 21 20  1  0  0  0  0
 22 27  1  1  0  0  0
 22 24  1  0  0  0  0
 22 23  1  0  0  0  0
 23 21  1  0  0  0  0
 24 26  1  0  0  0  0
 24 25  2  0  0  0  0
 28 26  1  6  0  0  0
 28 20  1  0  0  0  0
 28 15  1  0  0  0  0
 29 30  1  0  0  0  0
 31 37  2  0  0  0  0
 31 32  1  0  0  0  0
 32 33  2  0  0  0  0
 33 36  1  0  0  0  0
 35 36  2  0  0  0  0
 36 34  1  0  0  0  0
 37 35  1  0  0  0  0
M  END
>  <MODEL>
4

>  <REMARK>
 VINA RESULT:      -8.8      0.916      1.218
  Name = 
  3 active torsions:
  status: ('A' for Active; 'I' for Inactive)
    1  A    between atoms: N_4  and  C_37
    2  A    between atoms: C_21  and  C_27
    3  A    between atoms: C_23  and  C_30
                            x       y       z     vdW  Elec       q    Type
                         _______ _______ _______ _____ _____    ______ ____

>  <TORSDO>
F 3

$$$$
=
 OpenBabel11112417153D

 37 42  0  0  1  0  0  0  0  0999 V2000
  189.4910  172.3430  139.4400 C   0  0  0  0  0  0  0  0  0  0  0  0
  188.1980  175.9000  141.2130 C   0  0  0  0  0  0  0  0  0  0  0  0
  186.2700  175.4470  143.2390 O   0  0  0  0  0  1  0  0  0  0  0  0
  188.2010  174.5410  139.2430 C   0  0  0  0  0  0  0  0  0  0  0  0
  188.5910  175.7810  142.6510 C   0  0  1  0  0  3  0  0  0  0  0  0
  188.5760  174.7800  140.5530 C   0  0  0  0  0  0  0  0  0  0  0  0
  187.4360  176.1360  143.5900 C   0  0  1  0  0  3  0  0  0  0  0  0
  187.4410  175.4780  138.6050 N   0  0  0  0  0  0  0  0  0  0  0  0
  189.1620  173.8180  141.3910 N   0  0  0  0  0  0  0  0  0  0  0  0
  190.9020  172.8070  139.1170 C   0  0  0  0  0  1  0  0  0  0  0  0
  186.7350  177.9540  141.3670 C   0  0  0  0  0  2  0  0  0  0  0  0
  187.0310  176.6210  139.2450 C   0  0  0  0  0  3  0  0  0  0  0  0
  189.2570  172.4250  140.9650 C   0  0  0  0  0  2  0  0  0  0  0  0
  187.3950  176.8590  140.5860 C   0  0  0  0  0  0  0  0  0  0  0  0
  189.0560  174.3000  142.7690 C   0  0  1  0  0  3  0  0  0  0  0  0
  188.4720  173.1890  138.6360 C   0  0  0  0  0  2  0  0  0  0  0  0
  187.2080  177.6660  143.6110 C   0  0  1  0  0  3  0  0  0  0  0  0
  189.3590  170.8970  139.0110 C   0  0  0  0  0  1  0  0  0  0  0  0
  187.5470  178.3830  142.4340 O   0  0  0  0  0  0  0  0  0  0  0  0
  191.2430  175.4440  143.4210 C   0  0  0  0  0  2  0  0  0  0  0  0
  192.4630  175.3170  144.2060 N   0  0  0  0  0  0  0  0  0  0  0  0
  191.5950  175.0600  146.4870 C   0  0  2  0  0  3  0  0  0  0  0  0
  192.2230  176.0060  145.4690 C   0  0  0  0  0  2  0  0  0  0  0  0
  190.2600  174.5660  146.0060 C   0  0  0  0  0  0  0  0  0  0  0  0
  189.2210  175.0250  146.4550 O   0  0  0  0  0  0  0  0  0  0  0  0
  190.2170  173.5550  144.8990 C   0  0  0  0  0  2  0  0  0  0  0  0
  191.4700  175.7100  147.7160 O   0  0  0  0  0  1  0  0  0  0  0  0
  190.3960  174.1610  143.4950 C   0  0  1  0  0  3  0  0  0  0  0  0
  193.3880  175.8000  142.0120 C   0  0  0  0  0  1  0  0  0  0  0  0
  193.4830  176.0740  143.5010 C   0  0  0  0  0  2  0  0  0  0  0  0
  184.8540  178.5980  143.5970 C   0  0  0  0  0  3  0  0  0  0  0  0
  185.9750  178.1530  144.3140 C   0  0  0  0  0  0  0  0  0  0  0  0
  185.9450  178.1540  145.7130 C   0  0  0  0  0  3  0  0  0  0  0  0
  184.7820  178.5950  147.7460 F   0  0  0  0  0  0  0  0  0  0  0  0
  183.6920  179.0400  145.6740 C   0  0  0  0  0  3  0  0  0  0  0  0
  184.8060  178.5960  146.3920 C   0  0  0  0  0  0  0  0  0  0  0  0
  183.7150  179.0410  144.2760 C   0  0  0  0  0  3  0  0  0  0  0  0
  1 13  1  0  0  0  0
  4  6  1  0  0  0  0
  5  2  1  6  0  0  0
  5 15  1  0  0  0  0
  5  7  1  0  0  0  0
  6  2  2  0  0  0  0
  6  9  1  0  0  0  0
  7  3  1  6  0  0  0
  7 17  1  0  0  0  0
  8  4  2  0  0  0  0
  8 12  1  0  0  0  0
 10  1  1  0  0  0  0
 11 19  1  0  0  0  0
 12 14  2  0  0  0  0
 13  9  1  0  0  0  0
 14  2  1  0  0  0  0
 14 11  1  0  0  0  0
 15  9  1  6  0  0  0
 15 28  1  0  0  0  0
 16  4  1  0  0  0  0
 16  1  1  0  0  0  0
 17 32  1  6  0  0  0
 18  1  1  0  0  0  0
 19 17  1  0  0  0  0
 20 21  1  0  0  0  0
 21 23  1  0  0  0  0
 22 27  1  1  0  0  0
 23 22  1  0  0  0  0
 24 25  2  0  0  0  0
 24 22  1  0  0  0  0
 26 24  1  0  0  0  0
 28 20  1  1  0  0  0
 28 26  1  0  0  0  0
 29 30  1  0  0  0  0
 30 21  1  0  0  0  0
 31 37  2  0  0  0  0
 31 32  1  0  0  0  0
 32 33  2  0  0  0  0
 33 36  1  0  0  0  0
 35 36  2  0  0  0  0
 36 34  1  0  0  0  0
 37 35  1  0  0  0  0
M  END
>  <MODEL>
5

>  <REMARK>
 VINA RESULT:      -8.8      2.249      5.789
  Name = 
  3 active torsions:
  status: ('A' for Active; 'I' for Inactive)
    1  A    between atoms: N_4  and  C_37
    2  A    between atoms: C_21  and  C_27
    3  A    between atoms: C_23  and  C_30
                            x       y       z     vdW  Elec       q    Type
                         _______ _______ _______ _____ _____    ______ ____

>  <TORSDO>
F 3

$$$$
=
 OpenBabel11112417153D

 37 42  0  0  1  0  0  0  0  0999 V2000
  192.8760  171.1110  143.3400 C   0  0  0  0  0  0  0  0  0  0  0  0
  190.4480  174.5090  143.4950 C   0  0  0  0  0  0  0  0  0  0  0  0
  189.0420  174.7100  145.9460 O   0  0  0  0  0  1  0  0  0  0  0  0
  190.8120  172.3630  142.4990 C   0  0  0  0  0  0  0  0  0  0  0  0
  190.9810  175.3150  144.6360 C   0  0  1  0  0  3  0  0  0  0  0  0
  191.1760  173.3750  143.3690 C   0  0  0  0  0  0  0  0  0  0  0  0
  189.8670  175.7770  145.5780 C   0  0  1  0  0  3  0  0  0  0  0  0
  189.6920  172.5340  141.7390 N   0  0  0  0  0  0  0  0  0  0  0  0
  192.1660  173.2440  144.3570 N   0  0  0  0  0  0  0  0  0  0  0  0
  193.9550  171.7030  142.4490 C   0  0  0  0  0  1  0  0  0  0  0  0
  188.3130  175.7910  143.0640 C   0  0  0  0  0  2  0  0  0  0  0  0
  188.9230  173.6660  141.8460 C   0  0  0  0  0  3  0  0  0  0  0  0
  192.7640  171.9420  144.6380 C   0  0  0  0  0  2  0  0  0  0  0  0
  189.2800  174.6910  142.7460 C   0  0  0  0  0  0  0  0  0  0  0  0
  192.0000  174.3470  145.3060 C   0  0  1  0  0  3  0  0  0  0  0  0
  191.5390  171.0450  142.5590 C   0  0  0  0  0  2  0  0  0  0  0  0
  189.0580  176.9270  144.9330 C   0  0  1  0  0  3  0  0  0  0  0  0
  193.2860  169.7010  143.7080 C   0  0  0  0  0  1  0  0  0  0  0  0
  188.9810  176.9450  143.5170 O   0  0  0  0  0  0  0  0  0  0  0  0
  194.5360  174.0660  145.3790 C   0  0  0  0  0  2  0  0  0  0  0  0
  195.8040  174.7590  145.5600 N   0  0  0  0  0  0  0  0  0  0  0  0
  195.7620  176.4130  143.7470 C   0  0  2  0  0  3  0  0  0  0  0  0
  196.3060  175.0710  144.2260 C   0  0  0  0  0  2  0  0  0  0  0  0
  194.2630  176.3770  143.6460 C   0  0  0  0  0  0  0  0  0  0  0  0
  193.7090  176.2700  142.5630 O   0  0  0  0  0  0  0  0  0  0  0  0
  193.4510  176.3900  144.9070 C   0  0  0  0  0  2  0  0  0  0  0  0
  196.3340  176.7390  142.5170 O   0  0  0  0  0  1  0  0  0  0  0  0
  193.3460  175.0170  145.5940 C   0  0  1  0  0  3  0  0  0  0  0  0
  196.3010  172.3880  145.7420 C   0  0  0  0  0  1  0  0  0  0  0  0
  196.7200  173.7910  146.1380 C   0  0  0  0  0  2  0  0  0  0  0  0
  187.4530  176.8060  146.8870 C   0  0  0  0  0  3  0  0  0  0  0  0
  187.8000  177.3420  145.6380 C   0  0  0  0  0  0  0  0  0  0  0  0
  186.9650  178.2900  145.0380 C   0  0  0  0  0  3  0  0  0  0  0  0
  184.9860  179.6170  145.0910 F   0  0  0  0  0  0  0  0  0  0  0  0
  185.4470  178.1620  146.9200 C   0  0  0  0  0  3  0  0  0  0  0  0
  185.7910  178.6990  145.6760 C   0  0  0  0  0  0  0  0  0  0  0  0
  186.2780  177.2150  147.5260 C   0  0  0  0  0  3  0  0  0  0  0  0
  1 18  1  0  0  0  0
  1 13  1  0  0  0  0
  4 16  1  0  0  0  0
  4  6  2  0  0  0  0
  5  2  1  6  0  0  0
  5 15  1  0  0  0  0
  5  7  1  0  0  0  0
  6  2  1  0  0  0  0
  6  9  1  0  0  0  0
  7  3  1  6  0  0  0
  8 12  2  0  0  0  0
  8  4  1  0  0  0  0
  9 13  1  0  0  0  0
 10  1  1  0  0  0  0
 11 19  1  0  0  0  0
 12 14  1  0  0  0  0
 14 11  1  0  0  0  0
 14  2  2  0  0  0  0
 15  9  1  6  0  0  0
 15 28  1  0  0  0  0
 16  1  1  0  0  0  0
 17  7  1  0  0  0  0
 17 32  1  1  0  0  0
 19 17  1  0  0  0  0
 20 21  1  0  0  0  0
 20 28  1  0  0  0  0
 21 30  1  0  0  0  0
 22 27  1  6  0  0  0
 22 23  1  0  0  0  0
 23 21  1  0  0  0  0
 24 22  1  0  0  0  0
 24 26  1  0  0  0  0
 25 24  2  0  0  0  0
 28 26  1  6  0  0  0
 29 30  1  0  0  0  0
 31 37  1  0  0  0  0
 32 31  2  0  0  0  0
 33 32  1  0  0  0  0
 33 36  2  0  0  0  0
 34 36  1  0  0  0  0
 35 37  2  0  0  0  0
 36 35  1  0  0  0  0
M  END
>  <MODEL>
6

>  <REMARK>
 VINA RESULT:      -8.5      2.110      5.019
  Name = 
  3 active torsions:
  status: ('A' for Active; 'I' for Inactive)
    1  A    between atoms: N_4  and  C_37
    2  A    between atoms: C_21  and  C_27
    3  A    between atoms: C_23  and  C_30
                            x       y       z     vdW  Elec       q    Type
                         _______ _______ _______ _____ _____    ______ ____

>  <TORSDO>
F 3

$$$$
=
 OpenBabel11112417153D

 37 42  0  0  1  0  0  0  0  0999 V2000
  194.6640  175.3190  144.8700 C   0  0  0  0  0  0  0  0  0  0  0  0
  190.5880  175.8240  145.6420 C   0  0  0  0  0  0  0  0  0  0  0  0
  189.4220  177.8050  143.9870 O   0  0  0  0  0  1  0  0  0  0  0  0
  192.8210  176.1090  146.4550 C   0  0  0  0  0  0  0  0  0  0  0  0
  189.9040  175.4660  144.3610 C   0  0  1  0  0  3  0  0  0  0  0  0
  191.9270  175.6940  145.4850 C   0  0  0  0  0  0  0  0  0  0  0  0
  188.8720  176.5190  143.9510 C   0  0  1  0  0  3  0  0  0  0  0  0
  192.3240  176.6510  147.6050 N   0  0  0  0  0  0  0  0  0  0  0  0
  192.2950  175.3270  144.1810 N   0  0  0  0  0  0  0  0  0  0  0  0
  194.7310  173.8420  145.2190 C   0  0  0  0  0  1  0  0  0  0  0  0
  188.6210  176.8140  146.8820 C   0  0  0  0  0  2  0  0  0  0  0  0
  190.9750  176.8080  147.7950 C   0  0  0  0  0  3  0  0  0  0  0  0
  193.6620  175.5320  143.7130 C   0  0  0  0  0  2  0  0  0  0  0  0
  190.0600  176.4030  146.8010 C   0  0  0  0  0  0  0  0  0  0  0  0
  191.0850  175.3290  143.3560 C   0  0  1  0  0  3  0  0  0  0  0  0
  194.2930  176.1340  146.1350 C   0  0  0  0  0  2  0  0  0  0  0  0
  187.6110  176.4150  144.8420 C   0  0  1  0  0  3  0  0  0  0  0  0
  196.0360  175.7580  144.4030 C   0  0  0  0  0  1  0  0  0  0  0  0
  187.7950  175.9300  146.1630 O   0  0  0  0  0  0  0  0  0  0  0  0
  189.9390  174.1430  141.4080 C   0  0  0  0  0  2  0  0  0  0  0  0
  189.9530  172.9560  140.5650 N   0  0  0  0  0  0  0  0  0  0  0  0
  192.1870  173.0550  139.5530 C   0  0  2  0  0  3  0  0  0  0  0  0
  190.6950  173.3050  139.3590 C   0  0  0  0  0  2  0  0  0  0  0  0
  192.7330  173.9140  140.6590 C   0  0  0  0  0  0  0  0  0  0  0  0
  193.3870  174.9160  140.4110 O   0  0  0  0  0  0  0  0  0  0  0  0
  192.3940  173.5700  142.0790 C   0  0  0  0  0  2  0  0  0  0  0  0
  192.8630  173.2980  138.3570 O   0  0  0  0  0  1  0  0  0  0  0  0
  191.0000  174.0500  142.5190 C   0  0  1  0  0  3  0  0  0  0  0  0
  188.2440  173.5910  138.9610 C   0  0  0  0  0  1  0  0  0  0  0  0
  188.5760  172.7260  140.1610 C   0  0  0  0  0  2  0  0  0  0  0  0
  186.6270  178.4030  143.6230 C   0  0  0  0  0  3  0  0  0  0  0  0
  186.6000  177.5160  144.7090 C   0  0  0  0  0  0  0  0  0  0  0  0
  185.6080  177.6490  145.6860 C   0  0  0  0  0  3  0  0  0  0  0  0
  183.6920  178.7880  146.5310 F   0  0  0  0  0  0  0  0  0  0  0  0
  184.6800  179.5460  144.5000 C   0  0  0  0  0  3  0  0  0  0  0  0
  184.6500  178.6620  145.5830 C   0  0  0  0  0  0  0  0  0  0  0  0
  185.6690  179.4160  143.5190 C   0  0  0  0  0  3  0  0  0  0  0  0
  1 10  1  0  0  0  0
  1 16  1  0  0  0  0
  2 14  1  0  0  0  0
  4  8  2  0  0  0  0
  5  2  1  1  0  0  0
  6  2  2  0  0  0  0
  6  4  1  0  0  0  0
  7  3  1  1  0  0  0
  7  5  1  0  0  0  0
  7 17  1  0  0  0  0
  8 12  1  0  0  0  0
  9  6  1  0  0  0  0
 13  9  1  0  0  0  0
 13  1  1  0  0  0  0
 14 11  1  0  0  0  0
 14 12  2  0  0  0  0
 15  9  1  1  0  0  0
 15  5  1  0  0  0  0
 16  4  1  0  0  0  0
 17 32  1  1  0  0  0
 17 19  1  0  0  0  0
 18  1  1  0  0  0  0
 19 11  1  0  0  0  0
 21 20  1  0  0  0  0
 22 27  1  6  0  0  0
 22 24  1  0  0  0  0
 23 22  1  0  0  0  0
 23 21  1  0  0  0  0
 24 26  1  0  0  0  0
 25 24  2  0  0  0  0
 26 28  1  0  0  0  0
 28 20  1  6  0  0  0
 28 15  1  0  0  0  0
 29 30  1  0  0  0  0
 30 21  1  0  0  0  0
 31 32  1  0  0  0  0
 32 33  2  0  0  0  0
 35 36  2  0  0  0  0
 36 33  1  0  0  0  0
 36 34  1  0  0  0  0
 37 31  2  0  0  0  0
 37 35  1  0  0  0  0
M  END
>  <MODEL>
7

>  <REMARK>
 VINA RESULT:      -8.4      1.876      2.549
  Name = 
  3 active torsions:
  status: ('A' for Active; 'I' for Inactive)
    1  A    between atoms: N_4  and  C_37
    2  A    between atoms: C_21  and  C_27
    3  A    between atoms: C_23  and  C_30
                            x       y       z     vdW  Elec       q    Type
                         _______ _______ _______ _____ _____    ______ ____

>  <TORSDO>
F 3

$$$$
=
 OpenBabel11112417153D

 37 42  0  0  1  0  0  0  0  0999 V2000
  190.8430  171.6720  141.5620 C   0  0  0  0  0  0  0  0  0  0  0  0
  189.1730  175.4420  142.2460 C   0  0  0  0  0  0  0  0  0  0  0  0
  187.3130  175.4170  144.3820 O   0  0  0  0  0  1  0  0  0  0  0  0
  189.3200  173.5650  140.7680 C   0  0  0  0  0  0  0  0  0  0  0  0
  189.5810  175.7990  143.6400 C   0  0  1  0  0  3  0  0  0  0  0  0
  189.6700  174.2210  141.9340 C   0  0  0  0  0  0  0  0  0  0  0  0
  188.3970  176.2960  144.4720 C   0  0  1  0  0  3  0  0  0  0  0  0
  188.4600  174.1850  139.9080 N   0  0  0  0  0  0  0  0  0  0  0  0
  190.3600  173.6190  142.9980 N   0  0  0  0  0  0  0  0  0  0  0  0
  192.1940  172.1620  141.0670 C   0  0  0  0  0  1  0  0  0  0  0  0
  187.4950  177.2860  141.8360 C   0  0  0  0  0  2  0  0  0  0  0  0
  187.9300  175.4180  140.1950 C   0  0  0  0  0  3  0  0  0  0  0  0
  190.6060  172.1800  143.0020 C   0  0  0  0  0  2  0  0  0  0  0  0
  188.2690  176.0810  141.3920 C   0  0  0  0  0  0  0  0  0  0  0  0
  190.2050  174.4770  144.1750 C   0  0  1  0  0  3  0  0  0  0  0  0
  189.7350  172.1290  140.5800 C   0  0  0  0  0  2  0  0  0  0  0  0
  188.0030  177.7300  144.0470 C   0  0  1  0  0  3  0  0  0  0  0  0
  190.8680  170.1580  141.5860 C   0  0  0  0  0  1  0  0  0  0  0  0
  188.2580  178.0950  142.6990 O   0  0  0  0  0  0  0  0  0  0  0  0
  192.5440  173.5490  144.6050 C   0  0  0  0  0  2  0  0  0  0  0  0
  193.8500  173.8370  145.1820 N   0  0  0  0  0  0  0  0  0  0  0  0
  194.5650  175.8080  143.9080 C   0  0  2  0  0  3  0  0  0  0  0  0
  194.6990  174.3000  144.0910 C   0  0  0  0  0  2  0  0  0  0  0  0
  193.1550  176.1790  143.5440 C   0  0  0  0  0  0  0  0  0  0  0  0
  192.8570  176.4620  142.3940 O   0  0  0  0  0  0  0  0  0  0  0  0
  192.0930  176.1180  144.6010 C   0  0  0  0  0  2  0  0  0  0  0  0
  195.4600  176.2430  142.9290 O   0  0  0  0  0  1  0  0  0  0  0  0
  191.5550  174.7000  144.8620 C   0  0  1  0  0  3  0  0  0  0  0  0
  193.7520  171.4340  144.8400 C   0  0  0  0  0  1  0  0  0  0  0  0
  194.3910  172.5620  145.6250 C   0  0  0  0  0  2  0  0  0  0  0  0
  185.8280  179.0060  143.8250 C   0  0  0  0  0  3  0  0  0  0  0  0
  186.7260  178.2750  144.6170 C   0  0  0  0  0  0  0  0  0  0  0  0
  186.4270  178.0370  145.9620 C   0  0  0  0  0  3  0  0  0  0  0  0
  184.9550  178.2960  147.8190 F   0  0  0  0  0  0  0  0  0  0  0  0
  184.3480  179.2580  145.7250 C   0  0  0  0  0  3  0  0  0  0  0  0
  185.2410  178.5280  146.5160 C   0  0  0  0  0  0  0  0  0  0  0  0
  184.6420  179.4970  144.3790 C   0  0  0  0  0  3  0  0  0  0  0  0
  1 18  1  0  0  0  0
  1 13  1  0  0  0  0
  4  6  2  0  0  0  0
  5  2  1  6  0  0  0
  5 15  1  0  0  0  0
  5  7  1  0  0  0  0
  6  2  1  0  0  0  0
  6  9  1  0  0  0  0
  7  3  1  6  0  0  0
  8 12  2  0  0  0  0
  8  4  1  0  0  0  0
  9 13  1  0  0  0  0
 10  1  1  0  0  0  0
 11 19  1  0  0  0  0
 12 14  1  0  0  0  0
 14 11  1  0  0  0  0
 14  2  2  0  0  0  0
 15  9  1  6  0  0  0
 15 28  1  0  0  0  0
 16  4  1  0  0  0  0
 16  1  1  0  0  0  0
 17  7  1  0  0  0  0
 17 32  1  6  0  0  0
 19 17  1  0  0  0  0
 20 28  1  0  0  0  0
 20 21  1  0  0  0  0
 21 30  1  0  0  0  0
 22 27  1  6  0  0  0
 22 23  1  0  0  0  0
 23 21  1  0  0  0  0
 24 22  1  0  0  0  0
 24 26  1  0  0  0  0
 25 24  2  0  0  0  0
 28 26  1  6  0  0  0
 29 30  1  0  0  0  0
 31 37  2  0  0  0  0
 31 32  1  0  0  0  0
 32 33  2  0  0  0  0
 33 36  1  0  0  0  0
 35 36  2  0  0  0  0
 36 34  1  0  0  0  0
 37 35  1  0  0  0  0
M  END
>  <MODEL>
8

>  <REMARK>
 VINA RESULT:      -8.0      2.195      5.100
  Name = 
  3 active torsions:
  status: ('A' for Active; 'I' for Inactive)
    1  A    between atoms: N_4  and  C_37
    2  A    between atoms: C_21  and  C_27
    3  A    between atoms: C_23  and  C_30
                            x       y       z     vdW  Elec       q    Type
                         _______ _______ _______ _____ _____    ______ ____

>  <TORSDO>
F 3

$$$$
=
 OpenBabel11112417153D

 37 42  0  0  1  0  0  0  0  0999 V2000
  194.0860  175.8590  145.2970 C   0  0  0  0  0  0  0  0  0  0  0  0
  189.9970  175.7580  144.4430 C   0  0  0  0  0  0  0  0  0  0  0  0
  189.3000  177.5160  142.3340 O   0  0  0  0  0  1  0  0  0  0  0  0
  191.6900  176.3870  146.0130 C   0  0  0  0  0  0  0  0  0  0  0  0
  189.9080  175.2820  143.0280 C   0  0  1  0  0  3  0  0  0  0  0  0
  191.2980  175.8270  144.8100 C   0  0  0  0  0  0  0  0  0  0  0  0
  188.9810  176.1610  142.1860 C   0  0  1  0  0  3  0  0  0  0  0  0
  190.7240  176.8660  146.8500 N   0  0  0  0  0  0  0  0  0  0  0  0
  192.1820  175.5000  143.7700 N   0  0  0  0  0  0  0  0  0  0  0  0
  194.2100  174.4130  145.7500 C   0  0  0  0  0  1  0  0  0  0  0  0
  187.5930  176.4600  144.7790 C   0  0  0  0  0  2  0  0  0  0  0  0
  189.3970  176.8210  146.5070 C   0  0  0  0  0  3  0  0  0  0  0  0
  193.5840  175.9010  143.8360 C   0  0  0  0  0  2  0  0  0  0  0  0
  188.9940  176.2680  145.2740 C   0  0  0  0  0  0  0  0  0  0  0  0
  191.3910  175.3080  142.5530 C   0  0  1  0  0  3  0  0  0  0  0  0
  193.1560  176.6280  146.2680 C   0  0  0  0  0  2  0  0  0  0  0  0
  187.5020  175.8830  142.5430 C   0  0  1  0  0  3  0  0  0  0  0  0
  195.4610  176.4910  145.3500 C   0  0  0  0  0  1  0  0  0  0  0  0
  187.2300  175.4510  143.8670 O   0  0  0  0  0  0  0  0  0  0  0  0
  191.2660  172.7590  142.5420 C   0  0  0  0  0  2  0  0  0  0  0  0
  191.5850  171.5560  141.7850 N   0  0  0  0  0  0  0  0  0  0  0  0
  190.3380  171.9020  139.7000 C   0  0  2  0  0  3  0  0  0  0  0  0
  190.3800  171.1920  141.0490 C   0  0  0  0  0  2  0  0  0  0  0  0
  190.2970  173.3930  139.8820 C   0  0  0  0  0  0  0  0  0  0  0  0
  189.2550  174.0150  139.7400 O   0  0  0  0  0  0  0  0  0  0  0  0
  191.5420  174.1040  140.3250 C   0  0  0  0  0  2  0  0  0  0  0  0
  189.2320  171.4610  138.9720 O   0  0  0  0  0  1  0  0  0  0  0  0
  191.8030  174.0180  141.8390 C   0  0  1  0  0  3  0  0  0  0  0  0
  192.0260  171.1190  144.1340 C   0  0  0  0  0  1  0  0  0  0  0  0
  191.8140  170.5060  142.7640 C   0  0  0  0  0  2  0  0  0  0  0  0
  186.5860  177.2810  140.6410 C   0  0  0  0  0  3  0  0  0  0  0  0
  186.4820  176.8170  141.9610 C   0  0  0  0  0  0  0  0  0  0  0  0
  185.4020  177.2230  142.7530 C   0  0  0  0  0  3  0  0  0  0  0  0
  183.3920  178.4780  143.0040 F   0  0  0  0  0  0  0  0  0  0  0  0
  184.5420  178.5490  140.9180 C   0  0  0  0  0  3  0  0  0  0  0  0
  184.4350  178.0880  142.2340 C   0  0  0  0  0  0  0  0  0  0  0  0
  185.6180  178.1450  140.1220 C   0  0  0  0  0  3  0  0  0  0  0  0
  1 18  1  0  0  0  0
  1 10  1  0  0  0  0
  1 16  1  0  0  0  0
  2  6  2  0  0  0  0
  2 14  1  0  0  0  0
  4 16  1  0  0  0  0
  4  8  2  0  0  0  0
  5  2  1  1  0  0  0
  6  4  1  0  0  0  0
  7  3  1  1  0  0  0
  7 17  1  0  0  0  0
  7  5  1  0  0  0  0
  9 13  1  0  0  0  0
  9  6  1  0  0  0  0
 11 14  1  0  0  0  0
 12  8  1  0  0  0  0
 13  1  1  0  0  0  0
 14 12  2  0  0  0  0
 15  5  1  0  0  0  0
 15  9  1  1  0  0  0
 17 32  1  1  0  0  0
 17 19  1  0  0  0  0
 19 11  1  0  0  0  0
 21 20  1  0  0  0  0
 21 30  1  0  0  0  0
 22 27  1  1  0  0  0
 22 24  1  0  0  0  0
 22 23  1  0  0  0  0
 23 21  1  0  0  0  0
 24 26  1  0  0  0  0
 25 24  2  0  0  0  0
 28 26  1  6  0  0  0
 28 20  1  0  0  0  0
 28 15  1  0  0  0  0
 30 29  1  0  0  0  0
 31 32  1  0  0  0  0
 32 33  2  0  0  0  0
 35 36  2  0  0  0  0
 36 33  1  0  0  0  0
 36 34  1  0  0  0  0
 37 31  2  0  0  0  0
 37 35  1  0  0  0  0
M  END
>  <MODEL>
9

>  <REMARK>
 VINA RESULT:      -7.9      2.052      2.517
  Name = 
  3 active torsions:
  status: ('A' for Active; 'I' for Inactive)
    1  A    between atoms: N_4  and  C_37
    2  A    between atoms: C_21  and  C_27
    3  A    between atoms: C_23  and  C_30
                            x       y       z     vdW  Elec       q    Type
                         _______ _______ _______ _____ _____    ______ ____

>  <TORSDO>
F 3

$$$$
