=
 OpenBabel11112417043D

 31 35  0  0  1  0  0  0  0  0999 V2000
  184.6600  178.1580  146.8900 C   0  0  0  0  0  0  0  0  0  0  0  0
  187.1390  176.1070  144.8530 C   0  0  2  0  0  3  0  0  0  0  0  0
  187.1310  176.6460  143.4390 C   0  0  0  0  0  0  0  0  0  0  0  0
  185.9870  177.7480  141.5980 C   0  0  0  0  0  0  0  0  0  0  0  0
  186.5800  177.0690  145.8760 C   0  0  0  0  0  0  0  0  0  0  0  0
  185.5020  178.8230  147.7820 C   0  0  0  0  0  3  0  0  0  0  0  0
  186.0140  177.3250  142.9300 C   0  0  0  0  0  3  0  0  0  0  0  0
  189.4750  176.6950  145.7420 C   0  0  2  0  0  3  0  0  0  0  0  0
  183.3220  178.3600  146.9420 F   0  0  0  0  0  0  0  0  0  0  0  0
  189.4130  175.6400  143.1040 C   0  0  0  0  0  2  0  0  0  0  0  0
  184.8830  178.4330  141.1100 O   0  0  0  0  0  1  0  0  0  0  0  0
  188.8310  177.4830  146.7870 N   0  0  0  0  0  2  0  0  0  0  0  0
  188.5360  175.5780  145.2500 C   0  0  2  0  0  3  0  0  0  0  0  0
  185.1950  177.2790  145.9440 C   0  0  0  0  0  3  0  0  0  0  0  0
  187.0710  177.4810  140.7590 C   0  0  0  0  0  3  0  0  0  0  0  0
  187.4250  177.7390  146.7820 C   0  0  0  0  0  0  0  0  0  0  0  0
  186.8820  178.6100  147.7330 C   0  0  0  0  0  3  0  0  0  0  0  0
  189.1010  174.8050  144.2040 O   0  0  0  0  0  0  0  0  0  0  0  0
  188.2000  176.3470  142.5760 C   0  0  0  0  0  0  0  0  0  0  0  0
  188.1780  176.7830  141.2480 C   0  0  0  0  0  3  0  0  0  0  0  0
  192.0760  177.1830  144.6840 O   0  0  0  0  0  0  0  0  0  0  0  0
  191.9860  176.4140  145.6800 C   0  0  0  0  0  0  0  0  0  0  0  0
  190.7100  176.1210  146.2530 N   0  0  0  0  0  2  0  0  0  0  0  0
  195.7130  175.7380  144.7490 N   0  0  0  0  0  0  0  0  0  0  0  0
  194.3310  176.8250  146.4530 C   0  0  0  0  0  2  0  0  0  0  0  0
  193.2260  173.5050  145.6690 O   0  0  0  0  0  0  0  0  0  0  0  0
  196.5190  176.0060  143.5730 C   0  0  0  0  0  1  0  0  0  0  0  0
  195.1310  177.0140  145.1610 C   0  0  0  0  0  2  0  0  0  0  0  0
  193.6760  174.6190  145.4580 C   0  0  0  0  0  0  0  0  0  0  0  0
  193.2110  175.7930  146.2730 C   0  0  2  0  0  3  0  0  0  0  0  0
  194.6360  174.8430  144.3270 C   0  0  0  0  0  2  0  0  0  0  0  0
  1  9  1  0  0  0  0
  1  6  1  0  0  0  0
  2  3  1  6  0  0  0
  2 13  1  0  0  0  0
  2  5  1  0  0  0  0
  4  7  2  0  0  0  0
  5 14  1  0  0  0  0
  5 16  2  0  0  0  0
  7  3  1  0  0  0  0
  8 23  1  1  0  0  0
  8 12  1  0  0  0  0
 10 18  1  0  0  0  0
 11  4  1  0  0  0  0
 13 18  1  6  0  0  0
 13  8  1  0  0  0  0
 14  1  2  0  0  0  0
 15 20  2  0  0  0  0
 15  4  1  0  0  0  0
 16 12  1  0  0  0  0
 16 17  1  0  0  0  0
 17  6  2  0  0  0  0
 19 10  1  0  0  0  0
 19  3  2  0  0  0  0
 20 19  1  0  0  0  0
 21 22  2  0  0  0  0
 22 23  1  0  0  0  0
 24 28  1  0  0  0  0
 27 24  1  0  0  0  0
 28 25  1  0  0  0  0
 29 26  2  0  0  0  0
 29 30  1  0  0  0  0
 30 22  1  6  0  0  0
 30 25  1  0  0  0  0
 31 24  1  0  0  0  0
 31 29  1  0  0  0  0
M  END
>  <MODEL>
1

>  <REMARK>
 VINA RESULT:      -9.0      0.000      0.000
  Name = 
  2 active torsions:
  status: ('A' for Active; 'I' for Inactive)
    1  A    between atoms: C_5  and  C_30
    2  A    between atoms: C_10  and  N_16
                            x       y       z     vdW  Elec       q    Type
                         _______ _______ _______ _____ _____    ______ ____

>  <TORSDO>
F 2

$$$$
=
 OpenBabel11112417043D

 31 35  0  0  1  0  0  0  0  0999 V2000
  187.1240  177.2570  140.8160 C   0  0  0  0  0  0  0  0  0  0  0  0
  188.2580  177.7860  144.4120 C   0  0  2  0  0  3  0  0  0  0  0  0
  187.0190  177.9130  145.2720 C   0  0  0  0  0  0  0  0  0  0  0  0
  184.6830  178.5300  145.5440 C   0  0  0  0  0  0  0  0  0  0  0  0
  188.0070  177.1280  143.0750 C   0  0  0  0  0  0  0  0  0  0  0  0
  187.5520  175.9520  140.5690 C   0  0  0  0  0  3  0  0  0  0  0  0
  185.7990  178.3390  144.7250 C   0  0  0  0  0  3  0  0  0  0  0  0
  189.3300  175.5790  145.1700 C   0  0  2  0  0  3  0  0  0  0  0  0
  186.4860  177.9560  139.8470 F   0  0  0  0  0  0  0  0  0  0  0  0
  188.4070  177.2600  147.2670 C   0  0  0  0  0  2  0  0  0  0  0  0
  183.4780  178.9370  144.9900 O   0  0  0  0  0  1  0  0  0  0  0  0
  189.1780  175.0870  143.8050 N   0  0  0  0  0  2  0  0  0  0  0  0
  189.4180  177.1160  145.1850 C   0  0  2  0  0  3  0  0  0  0  0  0
  187.3560  177.8460  142.0620 C   0  0  0  0  0  3  0  0  0  0  0  0
  184.7810  178.3120  146.9200 C   0  0  0  0  0  3  0  0  0  0  0  0
  188.4420  175.8130  142.8180 C   0  0  0  0  0  0  0  0  0  0  0  0
  188.2150  175.2320  141.5660 C   0  0  0  0  0  3  0  0  0  0  0  0
  189.5280  177.6490  146.4950 O   0  0  0  0  0  0  0  0  0  0  0  0
  187.1190  177.7350  146.6640 C   0  0  0  0  0  0  0  0  0  0  0  0
  185.9970  177.9120  147.4800 C   0  0  0  0  0  3  0  0  0  0  0  0
  192.0040  176.1080  144.3330 O   0  0  0  0  0  0  0  0  0  0  0  0
  191.8410  175.3190  145.3050 C   0  0  0  0  0  0  0  0  0  0  0  0
  190.5260  175.0050  145.7670 N   0  0  0  0  0  2  0  0  0  0  0  0
  195.6980  174.9810  144.8270 N   0  0  0  0  0  0  0  0  0  0  0  0
  194.0280  175.7580  146.4400 C   0  0  0  0  0  2  0  0  0  0  0  0
  193.2820  172.5110  145.1150 O   0  0  0  0  0  0  0  0  0  0  0  0
  196.6280  175.4440  143.8140 C   0  0  0  0  0  1  0  0  0  0  0  0
  194.9740  176.1580  145.3050 C   0  0  0  0  0  2  0  0  0  0  0  0
  193.6730  173.6660  145.1040 C   0  0  0  0  0  0  0  0  0  0  0  0
  193.0200  174.6960  145.9830 C   0  0  2  0  0  3  0  0  0  0  0  0
  194.7540  174.0880  144.1530 C   0  0  0  0  0  2  0  0  0  0  0  0
  1 14  1  0  0  0  0
  2  5  1  6  0  0  0
  2 13  1  0  0  0  0
  2  3  1  0  0  0  0
  3 19  1  0  0  0  0
  4 15  2  0  0  0  0
  6  1  2  0  0  0  0
  6 17  1  0  0  0  0
  7  3  2  0  0  0  0
  7  4  1  0  0  0  0
  8 13  1  0  0  0  0
  8 23  1  6  0  0  0
  9  1  1  0  0  0  0
 11  4  1  0  0  0  0
 12  8  1  0  0  0  0
 13 18  1  1  0  0  0
 14  5  2  0  0  0  0
 15 20  1  0  0  0  0
 16  5  1  0  0  0  0
 16 12  1  0  0  0  0
 17 16  2  0  0  0  0
 18 10  1  0  0  0  0
 19 10  1  0  0  0  0
 19 20  2  0  0  0  0
 21 22  2  0  0  0  0
 22 23  1  0  0  0  0
 24 28  1  0  0  0  0
 27 24  1  0  0  0  0
 28 25  1  0  0  0  0
 29 26  2  0  0  0  0
 29 30  1  0  0  0  0
 30 22  1  6  0  0  0
 30 25  1  0  0  0  0
 31 24  1  0  0  0  0
 31 29  1  0  0  0  0
M  END
>  <MODEL>
2

>  <REMARK>
 VINA RESULT:      -8.8      2.033      3.988
  Name = 
  2 active torsions:
  status: ('A' for Active; 'I' for Inactive)
    1  A    between atoms: C_5  and  C_30
    2  A    between atoms: C_10  and  N_16
                            x       y       z     vdW  Elec       q    Type
                         _______ _______ _______ _____ _____    ______ ____

>  <TORSDO>
F 2

$$$$
=
 OpenBabel11112417043D

 31 35  0  0  1  0  0  0  0  0999 V2000
  184.7990  177.8510  146.8150 C   0  0  0  0  0  0  0  0  0  0  0  0
  186.9630  176.2080  144.1490 C   0  0  2  0  0  3  0  0  0  0  0  0
  186.6170  176.8420  142.8190 C   0  0  0  0  0  0  0  0  0  0  0  0
  185.0280  177.9510  141.3510 C   0  0  0  0  0  0  0  0  0  0  0  0
  186.5510  177.0350  145.3450 C   0  0  0  0  0  0  0  0  0  0  0  0
  185.7500  178.5330  147.5770 C   0  0  0  0  0  3  0  0  0  0  0  0
  185.3660  177.4400  142.6070 C   0  0  0  0  0  3  0  0  0  0  0  0
  189.3760  176.9630  144.6010 C   0  0  2  0  0  3  0  0  0  0  0  0
  183.4890  177.9140  147.1530 F   0  0  0  0  0  0  0  0  0  0  0  0
  188.8550  176.0950  141.9440 C   0  0  0  0  0  2  0  0  0  0  0  0
  183.7930  178.5550  141.1560 O   0  0  0  0  0  1  0  0  0  0  0  0
  188.8990  177.6060  145.8200 N   0  0  0  0  0  2  0  0  0  0  0  0
  188.4520  175.7950  144.2090 C   0  0  2  0  0  3  0  0  0  0  0  0
  185.1980  177.0990  145.7070 C   0  0  0  0  0  3  0  0  0  0  0  0
  185.9320  177.8540  140.2900 C   0  0  0  0  0  3  0  0  0  0  0  0
  187.5060  177.7200  146.1200 C   0  0  0  0  0  0  0  0  0  0  0  0
  187.1020  178.4630  147.2340 C   0  0  0  0  0  3  0  0  0  0  0  0
  188.8500  175.1580  143.0050 O   0  0  0  0  0  0  0  0  0  0  0  0
  187.5050  176.7120  141.7350 C   0  0  0  0  0  0  0  0  0  0  0  0
  187.1710  177.2380  140.4830 C   0  0  0  0  0  3  0  0  0  0  0  0
  191.7060  178.0540  143.3740 O   0  0  0  0  0  0  0  0  0  0  0  0
  191.8610  177.0790  144.1600 C   0  0  0  0  0  0  0  0  0  0  0  0
  190.7330  176.4800  144.8000 N   0  0  0  0  0  2  0  0  0  0  0  0
  193.6130  173.6450  144.7560 N   0  0  0  0  0  0  0  0  0  0  0  0
  193.6930  175.6080  143.2960 C   0  0  0  0  0  2  0  0  0  0  0  0
  193.5300  176.4620  146.7750 O   0  0  0  0  0  0  0  0  0  0  0  0
  193.1390  172.2750  144.8230 C   0  0  0  0  0  1  0  0  0  0  0  0
  193.1580  174.1850  143.4760 C   0  0  0  0  0  2  0  0  0  0  0  0
  193.2830  175.8330  145.7590 C   0  0  0  0  0  0  0  0  0  0  0  0
  193.2270  176.5310  144.4290 C   0  0  2  0  0  3  0  0  0  0  0  0
  192.9500  174.3720  145.8380 C   0  0  0  0  0  2  0  0  0  0  0  0
  1  9  1  0  0  0  0
  1  6  1  0  0  0  0
  2  3  1  6  0  0  0
  2 13  1  0  0  0  0
  2  5  1  0  0  0  0
  4  7  2  0  0  0  0
  5 14  1  0  0  0  0
  5 16  2  0  0  0  0
  7  3  1  0  0  0  0
  8 23  1  1  0  0  0
  8 12  1  0  0  0  0
 10 18  1  0  0  0  0
 11  4  1  0  0  0  0
 12 16  1  0  0  0  0
 13 18  1  6  0  0  0
 13  8  1  0  0  0  0
 14  1  2  0  0  0  0
 15 20  2  0  0  0  0
 15  4  1  0  0  0  0
 16 17  1  0  0  0  0
 17  6  2  0  0  0  0
 19 10  1  0  0  0  0
 19  3  2  0  0  0  0
 20 19  1  0  0  0  0
 21 22  2  0  0  0  0
 22 23  1  0  0  0  0
 24 27  1  0  0  0  0
 24 31  1  0  0  0  0
 25 28  1  0  0  0  0
 25 30  1  0  0  0  0
 28 24  1  0  0  0  0
 29 31  1  0  0  0  0
 29 26  2  0  0  0  0
 30 22  1  6  0  0  0
 30 29  1  0  0  0  0
M  END
>  <MODEL>
3

>  <REMARK>
 VINA RESULT:      -8.8      1.378      1.870
  Name = 
  2 active torsions:
  status: ('A' for Active; 'I' for Inactive)
    1  A    between atoms: C_5  and  C_30
    2  A    between atoms: C_10  and  N_16
                            x       y       z     vdW  Elec       q    Type
                         _______ _______ _______ _____ _____    ______ ____

>  <TORSDO>
F 2

$$$$
=
 OpenBabel11112417043D

 31 35  0  0  1  0  0  0  0  0999 V2000
  186.4570  177.8890  140.8010 C   0  0  0  0  0  0  0  0  0  0  0  0
  188.3330  177.9160  144.1140 C   0  0  2  0  0  3  0  0  0  0  0  0
  187.3130  177.7670  145.2220 C   0  0  0  0  0  0  0  0  0  0  0  0
  185.0630  178.0840  146.0870 C   0  0  0  0  0  0  0  0  0  0  0  0
  187.8310  177.4720  142.7590 C   0  0  0  0  0  0  0  0  0  0  0  0
  186.9020  176.6960  140.2290 C   0  0  0  0  0  3  0  0  0  0  0  0
  185.9770  178.1510  145.0320 C   0  0  0  0  0  3  0  0  0  0  0  0
  189.6870  175.7360  144.2020 C   0  0  2  0  0  3  0  0  0  0  0  0
  185.5750  178.6730  140.1350 F   0  0  0  0  0  0  0  0  0  0  0  0
  189.1520  176.9330  146.7250 C   0  0  0  0  0  2  0  0  0  0  0  0
  183.7400  178.4520  145.8830 O   0  0  0  0  0  1  0  0  0  0  0  0
  189.2640  175.4690  142.8320 N   0  0  0  0  0  2  0  0  0  0  0  0
  189.6770  177.2490  144.4880 C   0  0  2  0  0  3  0  0  0  0  0  0
  186.9250  178.2800  142.0590 C   0  0  0  0  0  3  0  0  0  0  0  0
  185.4800  177.6470  147.3470 C   0  0  0  0  0  3  0  0  0  0  0  0
  188.2800  176.2710  142.1750 C   0  0  0  0  0  0  0  0  0  0  0  0
  187.8160  175.8910  140.9120 C   0  0  0  0  0  3  0  0  0  0  0  0
  190.0440  177.5600  145.8220 O   0  0  0  0  0  0  0  0  0  0  0  0
  187.7330  177.3670  146.5040 C   0  0  0  0  0  0  0  0  0  0  0  0
  186.8140  177.2860  147.5540 C   0  0  0  0  0  3  0  0  0  0  0  0
  190.2680  173.0710  145.0320 O   0  0  0  0  0  0  0  0  0  0  0  0
  191.2440  173.8450  144.8260 C   0  0  0  0  0  0  0  0  0  0  0  0
  191.0200  175.1960  144.4180 N   0  0  0  0  0  2  0  0  0  0  0  0
  194.9000  175.1540  144.4580 N   0  0  0  0  0  0  0  0  0  0  0  0
  193.3750  174.1660  146.0980 C   0  0  0  0  0  2  0  0  0  0  0  0
  193.3690  172.4260  142.9630 O   0  0  0  0  0  0  0  0  0  0  0  0
  195.4760  176.4160  144.0300 C   0  0  0  0  0  1  0  0  0  0  0  0
  193.9640  175.4630  145.5370 C   0  0  0  0  0  2  0  0  0  0  0  0
  193.4080  173.3850  143.7160 C   0  0  0  0  0  0  0  0  0  0  0  0
  192.6480  173.3630  145.0130 C   0  0  2  0  0  3  0  0  0  0  0  0
  194.1490  174.6280  143.3180 C   0  0  0  0  0  2  0  0  0  0  0  0
  1 14  1  0  0  0  0
  2  5  1  6  0  0  0
  2 13  1  0  0  0  0
  2  3  1  0  0  0  0
  3 19  1  0  0  0  0
  4 15  2  0  0  0  0
  6  1  2  0  0  0  0
  6 17  1  0  0  0  0
  7  3  2  0  0  0  0
  7  4  1  0  0  0  0
  8 23  1  6  0  0  0
  8 13  1  0  0  0  0
  9  1  1  0  0  0  0
 11  4  1  0  0  0  0
 12  8  1  0  0  0  0
 13 18  1  1  0  0  0
 14  5  2  0  0  0  0
 15 20  1  0  0  0  0
 16  5  1  0  0  0  0
 16 12  1  0  0  0  0
 17 16  2  0  0  0  0
 18 10  1  0  0  0  0
 19 10  1  0  0  0  0
 19 20  2  0  0  0  0
 22 21  2  0  0  0  0
 23 22  1  0  0  0  0
 24 28  1  0  0  0  0
 26 29  2  0  0  0  0
 27 24  1  0  0  0  0
 28 25  1  0  0  0  0
 29 30  1  0  0  0  0
 30 22  1  6  0  0  0
 30 25  1  0  0  0  0
 31 29  1  0  0  0  0
 31 24  1  0  0  0  0
M  END
>  <MODEL>
4

>  <REMARK>
 VINA RESULT:      -8.7      2.219      4.222
  Name = 
  2 active torsions:
  status: ('A' for Active; 'I' for Inactive)
    1  A    between atoms: C_5  and  C_30
    2  A    between atoms: C_10  and  N_16
                            x       y       z     vdW  Elec       q    Type
                         _______ _______ _______ _____ _____    ______ ____

>  <TORSDO>
F 2

$$$$
=
 OpenBabel11112417043D

 31 35  0  0  1  0  0  0  0  0999 V2000
  185.5690  178.2920  140.9260 C   0  0  0  0  0  0  0  0  0  0  0  0
  188.1570  178.1190  143.7130 C   0  0  2  0  0  3  0  0  0  0  0  0
  187.4560  177.6320  144.9630 C   0  0  0  0  0  0  0  0  0  0  0  0
  185.4530  177.4320  146.3270 C   0  0  0  0  0  0  0  0  0  0  0  0
  187.4090  177.8120  142.4360 C   0  0  0  0  0  0  0  0  0  0  0  0
  186.0140  177.2930  140.0590 C   0  0  0  0  0  3  0  0  0  0  0  0
  186.0750  177.8130  145.1350 C   0  0  0  0  0  3  0  0  0  0  0  0
  189.7600  176.2080  143.1020 C   0  0  2  0  0  3  0  0  0  0  0  0
  184.4620  179.0100  140.6210 F   0  0  0  0  0  0  0  0  0  0  0  0
  189.6890  176.8950  145.8590 C   0  0  0  0  0  2  0  0  0  0  0  0
  184.0840  177.6000  146.4800 O   0  0  0  0  0  1  0  0  0  0  0  0
  189.0620  176.0900  141.8260 N   0  0  0  0  0  2  0  0  0  0  0  0
  189.6240  177.6360  143.6630 C   0  0  2  0  0  3  0  0  0  0  0  0
  186.2670  178.5560  142.1070 C   0  0  0  0  0  3  0  0  0  0  0  0
  186.2090  176.8810  147.3650 C   0  0  0  0  0  3  0  0  0  0  0  0
  187.8570  176.8080  141.5550 C   0  0  0  0  0  0  0  0  0  0  0  0
  187.1590  176.5560  140.3690 C   0  0  0  0  0  3  0  0  0  0  0  0
  190.2540  177.7950  144.9240 O   0  0  0  0  0  0  0  0  0  0  0  0
  188.2150  177.1160  146.0290 C   0  0  0  0  0  0  0  0  0  0  0  0
  187.5890  176.7210  147.2140 C   0  0  0  0  0  3  0  0  0  0  0  0
  191.0770  173.9730  144.2830 O   0  0  0  0  0  0  0  0  0  0  0  0
  191.7610  174.7290  143.5400 C   0  0  0  0  0  0  0  0  0  0  0  0
  191.1640  175.8720  142.9260 N   0  0  0  0  0  2  0  0  0  0  0  0
  194.5450  172.2800  144.7520 N   0  0  0  0  0  0  0  0  0  0  0  0
  193.4160  173.0400  142.7180 C   0  0  0  0  0  2  0  0  0  0  0  0
  194.4680  175.7450  144.8230 O   0  0  0  0  0  0  0  0  0  0  0  0
  194.5790  171.1980  145.7180 C   0  0  0  0  0  1  0  0  0  0  0  0
  193.4590  171.9800  143.8210 C   0  0  0  0  0  2  0  0  0  0  0  0
  194.0220  174.6440  144.5470 C   0  0  0  0  0  0  0  0  0  0  0  0
  193.2100  174.4450  143.2970 C   0  0  2  0  0  3  0  0  0  0  0  0
  194.2080  173.4950  145.4940 C   0  0  0  0  0  2  0  0  0  0  0  0
  1 14  1  0  0  0  0
  2  5  1  6  0  0  0
  2  3  1  0  0  0  0
  3  7  2  0  0  0  0
  3 19  1  0  0  0  0
  4 11  1  0  0  0  0
  4 15  2  0  0  0  0
  6 17  1  0  0  0  0
  6  1  2  0  0  0  0
  7  4  1  0  0  0  0
  8 23  1  6  0  0  0
  8 13  1  0  0  0  0
  9  1  1  0  0  0  0
 10 19  1  0  0  0  0
 12  8  1  0  0  0  0
 13  2  1  0  0  0  0
 13 18  1  1  0  0  0
 14  5  2  0  0  0  0
 16 12  1  0  0  0  0
 16  5  1  0  0  0  0
 17 16  2  0  0  0  0
 18 10  1  0  0  0  0
 19 20  2  0  0  0  0
 20 15  1  0  0  0  0
 22 21  2  0  0  0  0
 23 22  1  0  0  0  0
 24 31  1  0  0  0  0
 24 27  1  0  0  0  0
 25 30  1  0  0  0  0
 25 28  1  0  0  0  0
 28 24  1  0  0  0  0
 29 26  2  0  0  0  0
 29 31  1  0  0  0  0
 30 22  1  1  0  0  0
 30 29  1  0  0  0  0
M  END
>  <MODEL>
5

>  <REMARK>
 VINA RESULT:      -8.2      2.540      4.533
  Name = 
  2 active torsions:
  status: ('A' for Active; 'I' for Inactive)
    1  A    between atoms: C_5  and  C_30
    2  A    between atoms: C_10  and  N_16
                            x       y       z     vdW  Elec       q    Type
                         _______ _______ _______ _____ _____    ______ ____

>  <TORSDO>
F 2

$$$$
=
 OpenBabel11112417043D

 31 35  0  0  1  0  0  0  0  0999 V2000
  194.6020  176.5100  145.0070 C   0  0  0  0  0  0  0  0  0  0  0  0
  191.2040  176.5800  143.2910 C   0  0  2  0  0  3  0  0  0  0  0  0
  191.0710  175.3090  142.4810 C   0  0  0  0  0  0  0  0  0  0  0  0
  192.0690  173.4890  141.2150 C   0  0  0  0  0  0  0  0  0  0  0  0
  192.2580  176.5070  144.3720 C   0  0  0  0  0  0  0  0  0  0  0  0
  194.2430  176.4070  146.3520 C   0  0  0  0  0  3  0  0  0  0  0  0
  192.2050  174.6170  142.0290 C   0  0  0  0  0  3  0  0  0  0  0  0
  189.4460  176.3360  145.1460 C   0  0  2  0  0  3  0  0  0  0  0  0
  195.9100  176.5610  144.6570 F   0  0  0  0  0  0  0  0  0  0  0  0
  188.5720  175.5990  142.5440 C   0  0  0  0  0  2  0  0  0  0  0  0
  193.1970  172.8030  140.7860 O   0  0  0  0  0  1  0  0  0  0  0  0
  190.5270  176.4260  146.1220 N   0  0  0  0  0  2  0  0  0  0  0  0
  189.8370  177.0490  143.8380 C   0  0  2  0  0  3  0  0  0  0  0  0
  193.6140  176.5670  144.0200 C   0  0  0  0  0  3  0  0  0  0  0  0
  190.7990  173.0530  140.8310 C   0  0  0  0  0  3  0  0  0  0  0  0
  191.9010  176.4080  145.7310 C   0  0  0  0  0  0  0  0  0  0  0  0
  192.8940  176.3620  146.7140 C   0  0  0  0  0  3  0  0  0  0  0  0
  188.8330  176.9580  142.8400 O   0  0  0  0  0  0  0  0  0  0  0  0
  189.7980  174.8860  142.0560 C   0  0  0  0  0  0  0  0  0  0  0  0
  189.6640  173.7490  141.2540 C   0  0  0  0  0  3  0  0  0  0  0  0
  187.9680  175.3090  147.3560 O   0  0  0  0  0  0  0  0  0  0  0  0
  187.5480  176.3690  146.8150 C   0  0  0  0  0  0  0  0  0  0  0  0
  188.2380  176.9310  145.6970 N   0  0  0  0  0  2  0  0  0  0  0  0
  184.8360  178.9000  145.6080 N   0  0  0  0  0  0  0  0  0  0  0  0
  185.0770  176.6440  146.5280 C   0  0  0  0  0  2  0  0  0  0  0  0
  186.9860  179.0930  148.3200 O   0  0  0  0  0  0  0  0  0  0  0  0
  184.6190  179.6250  144.3690 C   0  0  0  0  0  1  0  0  0  0  0  0
  184.9310  177.4840  145.2560 C   0  0  0  0  0  2  0  0  0  0  0  0
  186.4920  178.5440  147.3500 C   0  0  0  0  0  0  0  0  0  0  0  0
  186.3200  177.0500  147.3300 C   0  0  2  0  0  3  0  0  0  0  0  0
  186.1270  179.3430  146.1340 C   0  0  0  0  0  2  0  0  0  0  0  0
  1  6  1  0  0  0  0
  2  3  1  1  0  0  0
  2 13  1  0  0  0  0
  2  5  1  0  0  0  0
  4  7  1  0  0  0  0
  5 16  2  0  0  0  0
  6 17  2  0  0  0  0
  7  3  2  0  0  0  0
  8 23  1  1  0  0  0
  8 12  1  0  0  0  0
  9  1  1  0  0  0  0
 10 18  1  0  0  0  0
 11  4  1  0  0  0  0
 13 18  1  6  0  0  0
 13  8  1  0  0  0  0
 14  5  1  0  0  0  0
 14  1  2  0  0  0  0
 15  4  2  0  0  0  0
 15 20  1  0  0  0  0
 16 12  1  0  0  0  0
 16 17  1  0  0  0  0
 19  3  1  0  0  0  0
 19 10  1  0  0  0  0
 20 19  2  0  0  0  0
 22 21  2  0  0  0  0
 23 22  1  0  0  0  0
 24 31  1  0  0  0  0
 25 30  1  0  0  0  0
 27 24  1  0  0  0  0
 28 24  1  0  0  0  0
 28 25  1  0  0  0  0
 29 26  2  0  0  0  0
 30 22  1  6  0  0  0
 30 29  1  0  0  0  0
 31 29  1  0  0  0  0
M  END
>  <MODEL>
6

>  <REMARK>
 VINA RESULT:      -8.1      3.378      7.325
  Name = 
  2 active torsions:
  status: ('A' for Active; 'I' for Inactive)
    1  A    between atoms: C_5  and  C_30
    2  A    between atoms: C_10  and  N_16
                            x       y       z     vdW  Elec       q    Type
                         _______ _______ _______ _____ _____    ______ ____

>  <TORSDO>
F 2

$$$$
=
 OpenBabel11112417043D

 31 35  0  0  1  0  0  0  0  0999 V2000
  186.1950  178.7730  142.6920 C   0  0  0  0  0  0  0  0  0  0  0  0
  189.2740  176.7650  143.6850 C   0  0  2  0  0  3  0  0  0  0  0  0
  188.9760  176.0870  145.0050 C   0  0  0  0  0  0  0  0  0  0  0  0
  187.8080  176.0220  147.1370 C   0  0  0  0  0  0  0  0  0  0  0  0
  188.0390  177.2110  142.9370 C   0  0  0  0  0  0  0  0  0  0  0  0
  185.7620  178.0890  141.5540 C   0  0  0  0  0  3  0  0  0  0  0  0
  188.0170  176.6100  145.8870 C   0  0  0  0  0  3  0  0  0  0  0  0
  189.4540  174.8300  142.0080 C   0  0  2  0  0  3  0  0  0  0  0  0
  185.5150  179.8590  143.1300 F   0  0  0  0  0  0  0  0  0  0  0  0
  190.7790  174.4110  144.4880 C   0  0  0  0  0  2  0  0  0  0  0  0
  186.8450  176.5380  147.9940 O   0  0  0  0  0  1  0  0  0  0  0  0
  188.3460  175.4250  141.2690 N   0  0  0  0  0  2  0  0  0  0  0  0
  190.2120  175.9060  142.8070 C   0  0  2  0  0  3  0  0  0  0  0  0
  187.3340  178.3400  143.3770 C   0  0  0  0  0  3  0  0  0  0  0  0
  188.5670  174.9160  147.5250 C   0  0  0  0  0  3  0  0  0  0  0  0
  187.6000  176.5290  141.7850 C   0  0  0  0  0  0  0  0  0  0  0  0
  186.4660  176.9730  141.0980 C   0  0  0  0  0  3  0  0  0  0  0  0
  191.2780  175.3720  143.5760 O   0  0  0  0  0  0  0  0  0  0  0  0
  189.7630  174.9990  145.4210 C   0  0  0  0  0  0  0  0  0  0  0  0
  189.5420  174.4020  146.6660 C   0  0  0  0  0  3  0  0  0  0  0  0
  189.5120  172.0270  141.4910 O   0  0  0  0  0  0  0  0  0  0  0  0
  190.3300  172.7540  140.8620 C   0  0  0  0  0  0  0  0  0  0  0  0
  190.3590  174.1650  141.0830 N   0  0  0  0  0  2  0  0  0  0  0  0
  190.4630  171.7160  137.1040 N   0  0  0  0  0  0  0  0  0  0  0  0
  191.6120  173.1240  138.7440 C   0  0  0  0  0  2  0  0  0  0  0  0
  190.9980  169.8020  139.9450 O   0  0  0  0  0  0  0  0  0  0  0  0
  189.5030  171.7590  136.0160 C   0  0  0  0  0  1  0  0  0  0  0  0
  190.5510  173.0730  137.6420 C   0  0  0  0  0  2  0  0  0  0  0  0
  190.7690  170.8420  139.3510 C   0  0  0  0  0  0  0  0  0  0  0  0
  191.2870  172.1500  139.8830 C   0  0  2  0  0  3  0  0  0  0  0  0
  189.8980  170.8380  138.1290 C   0  0  0  0  0  2  0  0  0  0  0  0
  1  9  1  0  0  0  0
  1 14  1  0  0  0  0
  2  5  1  6  0  0  0
  2  3  1  0  0  0  0
  3 19  2  0  0  0  0
  3  7  1  0  0  0  0
  4 15  1  0  0  0  0
  4 11  1  0  0  0  0
  5 14  2  0  0  0  0
  6  1  2  0  0  0  0
  7  4  2  0  0  0  0
  8 23  1  6  0  0  0
  8 13  1  0  0  0  0
 10 19  1  0  0  0  0
 12 16  1  0  0  0  0
 12  8  1  0  0  0  0
 13 18  1  1  0  0  0
 13  2  1  0  0  0  0
 16  5  1  0  0  0  0
 17  6  1  0  0  0  0
 17 16  2  0  0  0  0
 18 10  1  0  0  0  0
 19 20  1  0  0  0  0
 20 15  2  0  0  0  0
 22 23  1  0  0  0  0
 22 21  2  0  0  0  0
 24 28  1  0  0  0  0
 24 31  1  0  0  0  0
 25 30  1  0  0  0  0
 27 24  1  0  0  0  0
 28 25  1  0  0  0  0
 29 30  1  0  0  0  0
 29 26  2  0  0  0  0
 30 22  1  1  0  0  0
 31 29  1  0  0  0  0
M  END
>  <MODEL>
7

>  <REMARK>
 VINA RESULT:      -7.6      4.226      6.301
  Name = 
  2 active torsions:
  status: ('A' for Active; 'I' for Inactive)
    1  A    between atoms: C_5  and  C_30
    2  A    between atoms: C_10  and  N_16
                            x       y       z     vdW  Elec       q    Type
                         _______ _______ _______ _____ _____    ______ ____

>  <TORSDO>
F 2

$$$$
=
 OpenBabel11112417043D

 31 35  0  0  1  0  0  0  0  0999 V2000
  188.0240  174.3940  139.7710 C   0  0  0  0  0  0  0  0  0  0  0  0
  188.9640  176.5960  142.7310 C   0  0  2  0  0  3  0  0  0  0  0  0
  187.6810  177.1110  143.3480 C   0  0  0  0  0  0  0  0  0  0  0  0
  185.3470  177.7630  143.1490 C   0  0  0  0  0  0  0  0  0  0  0  0
  188.7750  175.3740  141.8620 C   0  0  0  0  0  0  0  0  0  0  0  0
  188.4370  173.1350  140.2070 C   0  0  0  0  0  3  0  0  0  0  0  0
  186.5040  177.2120  142.5910 C   0  0  0  0  0  3  0  0  0  0  0  0
  189.9430  175.0350  144.5190 C   0  0  2  0  0  3  0  0  0  0  0  0
  187.4580  174.5360  138.5480 F   0  0  0  0  0  0  0  0  0  0  0  0
  188.9390  177.5100  145.4910 C   0  0  0  0  0  2  0  0  0  0  0  0
  184.1840  177.8430  142.3950 O   0  0  0  0  0  1  0  0  0  0  0  0
  189.8580  173.9460  143.5520 N   0  0  0  0  0  2  0  0  0  0  0  0
  190.0620  176.3910  143.7990 C   0  0  2  0  0  3  0  0  0  0  0  0
  188.1980  175.5120  140.5920 C   0  0  0  0  0  3  0  0  0  0  0  0
  185.3610  178.2350  144.4640 C   0  0  0  0  0  3  0  0  0  0  0  0
  189.1950  174.1010  142.2960 C   0  0  0  0  0  0  0  0  0  0  0  0
  189.0270  172.9890  141.4650 C   0  0  0  0  0  3  0  0  0  0  0  0
  190.1100  177.4890  144.6960 O   0  0  0  0  0  0  0  0  0  0  0  0
  187.6970  177.6250  144.6570 C   0  0  0  0  0  0  0  0  0  0  0  0
  186.5350  178.1630  145.2180 C   0  0  0  0  0  3  0  0  0  0  0  0
  192.5760  174.3820  143.6440 O   0  0  0  0  0  0  0  0  0  0  0  0
  192.3880  174.5120  144.8850 C   0  0  0  0  0  0  0  0  0  0  0  0
  191.0900  174.8290  145.3890 N   0  0  0  0  0  2  0  0  0  0  0  0
  196.2840  174.7030  144.9500 N   0  0  0  0  0  0  0  0  0  0  0  0
  194.3020  175.6330  146.0450 C   0  0  0  0  0  2  0  0  0  0  0  0
  194.1880  172.0610  145.7540 O   0  0  0  0  0  0  0  0  0  0  0  0
  197.2920  174.9930  143.9470 C   0  0  0  0  0  1  0  0  0  0  0  0
  195.3520  175.8300  144.9480 C   0  0  0  0  0  2  0  0  0  0  0  0
  194.4260  173.2090  145.4170 C   0  0  0  0  0  0  0  0  0  0  0  0
  193.5200  174.3290  145.8470 C   0  0  2  0  0  3  0  0  0  0  0  0
  195.5770  173.5040  144.5010 C   0  0  0  0  0  2  0  0  0  0  0  0
  1  6  2  0  0  0  0
  1 14  1  0  0  0  0
  2  5  1  1  0  0  0
  2  3  1  0  0  0  0
  2 13  1  0  0  0  0
  3 19  1  0  0  0  0
  4 15  2  0  0  0  0
  5 16  1  0  0  0  0
  6 17  1  0  0  0  0
  7  4  1  0  0  0  0
  7  3  2  0  0  0  0
  8 23  1  1  0  0  0
  9  1  1  0  0  0  0
 11  4  1  0  0  0  0
 12  8  1  0  0  0  0
 13  8  1  0  0  0  0
 13 18  1  1  0  0  0
 14  5  2  0  0  0  0
 15 20  1  0  0  0  0
 16 12  1  0  0  0  0
 17 16  2  0  0  0  0
 18 10  1  0  0  0  0
 19 20  2  0  0  0  0
 19 10  1  0  0  0  0
 21 22  2  0  0  0  0
 22 23  1  0  0  0  0
 27 24  1  0  0  0  0
 28 24  1  0  0  0  0
 28 25  1  0  0  0  0
 29 26  2  0  0  0  0
 29 30  1  0  0  0  0
 30 22  1  6  0  0  0
 30 25  1  0  0  0  0
 31 24  1  0  0  0  0
 31 29  1  0  0  0  0
M  END
>  <MODEL>
8

>  <REMARK>
 VINA RESULT:      -7.5      2.538      4.385
  Name = 
  2 active torsions:
  status: ('A' for Active; 'I' for Inactive)
    1  A    between atoms: C_5  and  C_30
    2  A    between atoms: C_10  and  N_16
                            x       y       z     vdW  Elec       q    Type
                         _______ _______ _______ _____ _____    ______ ____

>  <TORSDO>
F 2

$$$$
=
 OpenBabel11112417043D

 31 35  0  0  1  0  0  0  0  0999 V2000
  186.3840  178.4520  144.8090 C   0  0  0  0  0  0  0  0  0  0  0  0
  189.7180  177.0060  143.6760 C   0  0  2  0  0  3  0  0  0  0  0  0
  190.4740  176.5670  144.9120 C   0  0  0  0  0  0  0  0  0  0  0  0
  190.9720  176.7910  147.2810 C   0  0  0  0  0  0  0  0  0  0  0  0
  188.2320  177.1690  143.8960 C   0  0  0  0  0  0  0  0  0  0  0  0
  185.4780  177.5220  144.2960 C   0  0  0  0  0  3  0  0  0  0  0  0
  190.2130  177.1460  146.1630 C   0  0  0  0  0  3  0  0  0  0  0  0
  189.1830  174.8140  142.4500 C   0  0  2  0  0  3  0  0  0  0  0  0
  185.9340  179.5260  145.5020 F   0  0  0  0  0  0  0  0  0  0  0  0
  191.8310  175.0200  143.4630 C   0  0  0  0  0  2  0  0  0  0  0  0
  190.6940  177.3580  148.5170 O   0  0  0  0  0  1  0  0  0  0  0  0
  187.7670  175.1370  142.5830 N   0  0  0  0  0  2  0  0  0  0  0  0
  190.0350  176.0970  142.4670 C   0  0  2  0  0  3  0  0  0  0  0  0
  187.7550  178.2810  144.6040 C   0  0  0  0  0  3  0  0  0  0  0  0
  192.0100  175.8640  147.1550 C   0  0  0  0  0  3  0  0  0  0  0  0
  187.3130  176.2350  143.3760 C   0  0  0  0  0  0  0  0  0  0  0  0
  185.9410  176.4180  143.5760 C   0  0  0  0  0  3  0  0  0  0  0  0
  191.4260  175.8350  142.3790 O   0  0  0  0  0  0  0  0  0  0  0  0
  191.5470  175.6670  144.7870 C   0  0  0  0  0  0  0  0  0  0  0  0
  192.2960  175.3010  145.9090 C   0  0  0  0  0  3  0  0  0  0  0  0
  189.3180  171.9760  142.2180 O   0  0  0  0  0  0  0  0  0  0  0  0
  189.4530  172.6560  141.1630 C   0  0  0  0  0  0  0  0  0  0  0  0
  189.4050  174.0820  141.2130 N   0  0  0  0  0  2  0  0  0  0  0  0
  191.6420  173.0470  137.9580 N   0  0  0  0  0  0  0  0  0  0  0  0
  191.1030  171.4400  139.7260 C   0  0  0  0  0  2  0  0  0  0  0  0
  188.1910  172.9520  138.2780 O   0  0  0  0  0  0  0  0  0  0  0  0
  192.6450  174.0080  137.5390 C   0  0  0  0  0  1  0  0  0  0  0  0
  192.0730  172.5280  139.2560 C   0  0  0  0  0  2  0  0  0  0  0  0
  189.3340  172.8920  138.7020 C   0  0  0  0  0  0  0  0  0  0  0  0
  189.6720  171.9790  139.8470 C   0  0  2  0  0  3  0  0  0  0  0  0
  190.3960  173.7910  138.1380 C   0  0  0  0  0  2  0  0  0  0  0  0
  1  9  1  0  0  0  0
  2  5  1  1  0  0  0
  2  3  1  0  0  0  0
  3  7  1  0  0  0  0
  4 11  1  0  0  0  0
  5 14  2  0  0  0  0
  6  1  2  0  0  0  0
  7  4  2  0  0  0  0
  8 23  1  6  0  0  0
  8 13  1  0  0  0  0
  8 12  1  0  0  0  0
 10 19  1  0  0  0  0
 12 16  1  0  0  0  0
 13 18  1  1  0  0  0
 13  2  1  0  0  0  0
 14  1  1  0  0  0  0
 15  4  1  0  0  0  0
 16 17  2  0  0  0  0
 16  5  1  0  0  0  0
 17  6  1  0  0  0  0
 18 10  1  0  0  0  0
 19  3  2  0  0  0  0
 19 20  1  0  0  0  0
 20 15  2  0  0  0  0
 22 23  1  0  0  0  0
 22 21  2  0  0  0  0
 24 31  1  0  0  0  0
 24 28  1  0  0  0  0
 25 30  1  0  0  0  0
 26 29  2  0  0  0  0
 27 24  1  0  0  0  0
 28 25  1  0  0  0  0
 29 30  1  0  0  0  0
 30 22  1  1  0  0  0
 31 29  1  0  0  0  0
M  END
>  <MODEL>
9

>  <REMARK>
 VINA RESULT:      -7.5      3.738      6.048
  Name = 
  2 active torsions:
  status: ('A' for Active; 'I' for Inactive)
    1  A    between atoms: C_5  and  C_30
    2  A    between atoms: C_10  and  N_16
                            x       y       z     vdW  Elec       q    Type
                         _______ _______ _______ _____ _____    ______ ____

>  <TORSDO>
F 2

$$$$
