=
 OpenBabel11112416433D

 32 37  0  0  1  0  0  0  0  0999 V2000
  195.1530  175.5740  146.1360 C   0  0  0  0  0  2  0  0  0  0  0  0
  189.9700  176.2360  144.2100 C   0  0  2  0  0  3  0  0  0  0  0  0
  190.1810  173.7180  139.9730 C   0  0  0  0  0  2  0  0  0  0  0  0
  188.6600  173.6390  139.9250 C   0  0  0  0  0  2  0  0  0  0  0  0
  187.7860  177.3940  144.9680 C   0  0  1  0  0  3  0  0  0  0  0  0
  186.2480  177.4670  144.8440 C   0  0  1  0  0  3  0  0  0  0  0  0
  192.1230  176.7020  145.4660 C   0  0  2  0  0  3  0  0  0  0  0  0
  192.0270  175.0560  143.5230 C   0  0  0  0  0  2  0  0  0  0  0  0
  185.7700  178.2700  142.6000 C   0  0  2  0  0  3  0  0  0  0  0  0
  194.1830  176.3640  143.9140 C   0  0  0  0  0  2  0  0  0  0  0  0
  190.6520  173.7510  141.4230 C   0  0  0  0  0  2  0  0  0  0  0  0
  190.5430  175.0420  143.5430 N   0  0  2  0  0  0  0  0  0  0  0  0
  190.0610  174.9700  142.1530 C   0  0  2  0  0  3  0  0  0  0  0  0
  187.8820  176.0130  142.8660 C   0  0  1  0  0  3  0  0  0  0  0  0
  185.7420  179.4640  143.5380 C   0  0  0  0  0  2  0  0  0  0  0  0
  194.2000  176.5170  146.7220 N   0  0  0  0  0  2  0  0  0  0  0  0
  192.6590  176.3450  144.0630 C   0  0  2  0  0  3  0  0  0  0  0  0
  185.8190  178.9190  144.9590 C   0  0  0  0  0  2  0  0  0  0  0  0
  192.8500  175.9840  146.5990 C   0  0  0  0  0  2  0  0  0  0  0  0
  194.8420  175.2130  144.6780 C   0  0  1  0  0  3  0  0  0  0  0  0
  188.0530  174.8270  140.6630 C   0  0  0  0  0  2  0  0  0  0  0  0
  188.5290  174.8500  142.1190 C   0  0  1  0  0  3  0  0  0  0  0  0
  186.3740  175.8200  142.9100 C   0  0  0  0  0  2  0  0  0  0  0  0
  190.6280  176.4040  145.5860 C   0  0  0  0  0  2  0  0  0  0  0  0
  188.1000  177.4480  146.4550 C   0  0  0  0  0  1  0  0  0  0  0  0
  184.5750  178.3140  141.6710 C   0  0  0  0  0  1  0  0  0  0  0  0
  188.4260  176.1450  144.2960 C   0  0  1  0  0  3  0  0  0  0  0  0
  185.6920  177.0480  143.4940 C   0  0  1  0  0  3  0  0  0  0  0  0
  196.0700  174.8060  144.0110 N   0  0  0  0  0  2  0  0  0  0  0  0
  196.1120  173.7380  143.0640 C   0  0  0  0  0  0  0  0  0  0  0  0
  197.3980  173.3940  142.4030 C   0  0  0  0  0  1  0  0  0  0  0  0
  195.0730  173.0820  142.7860 O   0  0  0  0  0  0  0  0  0  0  0  0
  1 16  1  0  0  0  0
  2 27  1  0  0  0  0
  2 24  1  1  0  0  0
  3 11  1  0  0  0  0
  4  3  1  0  0  0  0
  4 21  1  0  0  0  0
  5 25  1  1  0  0  0
  6 18  1  6  0  0  0
  6  5  1  0  0  0  0
  7 24  1  6  0  0  0
  7 19  1  0  0  0  0
  9 26  1  6  0  0  0
  9 28  1  0  0  0  0
  9 15  1  0  0  0  0
 10 17  1  0  0  0  0
 10 20  1  0  0  0  0
 12  8  1  6  0  0  0
 12  2  1  0  0  0  0
 13 11  1  1  0  0  0
 13 12  1  0  0  0  0
 14 23  1  1  0  0  0
 14 27  1  0  0  0  0
 15 18  1  0  0  0  0
 17  8  1  1  0  0  0
 17  7  1  0  0  0  0
 19 16  1  0  0  0  0
 20 29  1  6  0  0  0
 20  1  1  0  0  0  0
 22 21  1  6  0  0  0
 22 13  1  0  0  0  0
 22 14  1  0  0  0  0
 23 28  1  0  0  0  0
 27  5  1  0  0  0  0
 28  6  1  0  0  0  0
 30 29  1  0  0  0  0
 31 30  1  0  0  0  0
 32 30  2  0  0  0  0
M  END
>  <MODEL>
1

>  <REMARK>
 VINA RESULT:      -9.4      0.000      0.000
  Name = 
  1 active torsions:
  status: ('A' for Active; 'I' for Inactive)
    1  A    between atoms: C_20  and  N_29
                            x       y       z     vdW  Elec       q    Type
                         _______ _______ _______ _____ _____    ______ ____

>  <TORSDO>
F 1

$$$$
=
 OpenBabel11112416433D

 32 37  0  0  1  0  0  0  0  0999 V2000
  191.2790  170.8980  140.3800 C   0  0  0  0  0  2  0  0  0  0  0  0
  188.4160  175.2170  142.4200 C   0  0  2  0  0  3  0  0  0  0  0  0
  189.9660  175.2840  147.1030 C   0  0  0  0  0  2  0  0  0  0  0  0
  189.4740  176.7170  147.2630 C   0  0  0  0  0  2  0  0  0  0  0  0
  186.7130  176.9600  141.5520 C   0  0  1  0  0  3  0  0  0  0  0  0
  186.0630  178.3460  141.7510 C   0  0  1  0  0  3  0  0  0  0  0  0
  189.0190  173.2350  140.9590 C   0  0  2  0  0  3  0  0  0  0  0  0
  190.1070  173.6120  143.2320 C   0  0  0  0  0  2  0  0  0  0  0  0
  184.7220  178.1990  143.7740 C   0  0  2  0  0  3  0  0  0  0  0  0
  189.7760  171.2170  142.4150 C   0  0  0  0  0  2  0  0  0  0  0  0
  190.3880  175.0390  145.6580 C   0  0  0  0  0  2  0  0  0  0  0  0
  189.5830  174.9990  143.3090 N   0  0  2  0  0  0  0  0  0  0  0  0
  189.2040  175.2750  144.7040 C   0  0  2  0  0  3  0  0  0  0  0  0
  187.5990  177.0450  143.9060 C   0  0  1  0  0  3  0  0  0  0  0  0
  183.8060  177.9500  142.5880 C   0  0  0  0  0  2  0  0  0  0  0  0
  190.1880  171.5450  139.6520 N   0  0  0  0  0  2  0  0  0  0  0  0
  189.2670  172.6610  142.3700 C   0  0  2  0  0  3  0  0  0  0  0  0
  184.6060  178.2650  141.3300 C   0  0  0  0  0  2  0  0  0  0  0  0
  190.1570  172.9640  139.9790 C   0  0  0  0  0  2  0  0  0  0  0  0
  191.2120  171.1050  141.8990 C   0  0  1  0  0  3  0  0  0  0  0  0
  188.3140  176.9800  146.3090 C   0  0  0  0  0  2  0  0  0  0  0  0
  188.7490  176.7350  144.8600 C   0  0  1  0  0  3  0  0  0  0  0  0
  187.2340  178.5180  144.0020 C   0  0  0  0  0  2  0  0  0  0  0  0
  188.7700  174.7430  141.0050 C   0  0  0  0  0  2  0  0  0  0  0  0
  187.0660  176.8580  140.0760 C   0  0  0  0  0  1  0  0  0  0  0  0
  184.0660  179.1640  144.7400 C   0  0  0  0  0  1  0  0  0  0  0  0
  187.9530  176.6960  142.4530 C   0  0  1  0  0  3  0  0  0  0  0  0
  185.9800  178.8150  143.1930 C   0  0  1  0  0  3  0  0  0  0  0  0
  191.9010  170.0090  142.5640 N   0  0  0  0  0  2  0  0  0  0  0  0
  192.6670  170.1930  143.7550 C   0  0  0  0  0  0  0  0  0  0  0  0
  193.3230  169.0220  144.3940 C   0  0  0  0  0  1  0  0  0  0  0  0
  192.7970  171.3370  144.2680 O   0  0  0  0  0  0  0  0  0  0  0  0
  1 20  1  0  0  0  0
  2 24  1  6  0  0  0
  2 27  1  0  0  0  0
  2 12  1  0  0  0  0
  3  4  1  0  0  0  0
  5 25  1  6  0  0  0
  5  6  1  0  0  0  0
  5 27  1  0  0  0  0
  6 18  1  1  0  0  0
  6 28  1  0  0  0  0
  7 19  1  6  0  0  0
  7 24  1  0  0  0  0
  7 17  1  0  0  0  0
  9 26  1  1  0  0  0
 11  3  1  0  0  0  0
 12  8  1  1  0  0  0
 12 13  1  0  0  0  0
 13 22  1  0  0  0  0
 13 11  1  1  0  0  0
 14 23  1  6  0  0  0
 14 22  1  0  0  0  0
 15  9  1  0  0  0  0
 16 19  1  0  0  0  0
 16  1  1  0  0  0  0
 17 10  1  6  0  0  0
 17  8  1  0  0  0  0
 18 15  1  0  0  0  0
 20 10  1  0  0  0  0
 20 29  1  1  0  0  0
 21  4  1  0  0  0  0
 22 21  1  1  0  0  0
 27 14  1  0  0  0  0
 28  9  1  0  0  0  0
 28 23  1  0  0  0  0
 29 30  1  0  0  0  0
 30 32  2  0  0  0  0
 30 31  1  0  0  0  0
M  END
>  <MODEL>
2

>  <REMARK>
 VINA RESULT:      -8.6      2.898      5.142
  Name = 
  1 active torsions:
  status: ('A' for Active; 'I' for Inactive)
    1  A    between atoms: C_20  and  N_29
                            x       y       z     vdW  Elec       q    Type
                         _______ _______ _______ _____ _____    ______ ____

>  <TORSDO>
F 1

$$$$
=
 OpenBabel11112416433D

 32 37  0  0  1  0  0  0  0  0999 V2000
  190.1670  171.6680  138.9470 C   0  0  0  0  0  2  0  0  0  0  0  0
  188.7550  175.0700  143.1230 C   0  0  2  0  0  3  0  0  0  0  0  0
  192.5960  174.5120  146.1690 C   0  0  0  0  0  2  0  0  0  0  0  0
  192.2320  175.8030  146.8920 C   0  0  0  0  0  2  0  0  0  0  0  0
  186.8090  176.6680  143.7080 C   0  0  1  0  0  3  0  0  0  0  0  0
  186.3340  177.8830  144.5350 C   0  0  1  0  0  3  0  0  0  0  0  0
  188.5220  173.4980  141.1470 C   0  0  2  0  0  3  0  0  0  0  0  0
  190.6580  173.6120  142.5310 C   0  0  0  0  0  2  0  0  0  0  0  0
  186.3100  177.1730  146.8600 C   0  0  2  0  0  3  0  0  0  0  0  0
  190.0010  171.3840  141.4750 C   0  0  0  0  0  2  0  0  0  0  0  0
  192.1730  174.5990  144.7070 C   0  0  0  0  0  2  0  0  0  0  0  0
  190.2230  174.8680  143.1920 N   0  0  2  0  0  0  0  0  0  0  0  0
  190.6550  174.8270  144.5980 C   0  0  2  0  0  3  0  0  0  0  0  0
  188.8270  176.4540  145.1960 C   0  0  1  0  0  3  0  0  0  0  0  0
  184.9030  177.0110  146.3090 C   0  0  0  0  0  2  0  0  0  0  0  0
  188.8390  172.2660  139.0710 N   0  0  0  0  0  2  0  0  0  0  0  0
  189.5110  172.7200  142.0410 C   0  0  2  0  0  3  0  0  0  0  0  0
  184.8840  177.6650  144.9320 C   0  0  0  0  0  2  0  0  0  0  0  0
  188.9530  173.5820  139.6860 C   0  0  0  0  0  2  0  0  0  0  0  0
  190.9290  171.5820  140.2750 C   0  0  1  0  0  3  0  0  0  0  0  0
  190.7330  176.0600  146.7770 C   0  0  0  0  0  2  0  0  0  0  0  0
  190.3190  176.1500  145.3050 C   0  0  1  0  0  3  0  0  0  0  0  0
  188.5340  177.8140  145.8090 C   0  0  0  0  0  2  0  0  0  0  0  0
  188.2970  174.9190  141.6680 C   0  0  0  0  0  2  0  0  0  0  0  0
  186.3070  176.8910  142.2900 C   0  0  0  0  0  1  0  0  0  0  0  0
  186.2580  177.8380  148.2200 C   0  0  0  0  0  1  0  0  0  0  0  0
  188.3460  176.4320  143.7380 C   0  0  1  0  0  3  0  0  0  0  0  0
  187.0350  178.0640  145.8700 C   0  0  1  0  0  3  0  0  0  0  0  0
  191.8980  170.4980  140.2050 N   0  0  0  0  0  2  0  0  0  0  0  0
  193.1690  170.5590  140.8540 C   0  0  0  0  0  0  0  0  0  0  0  0
  194.0980  169.4030  140.7600 C   0  0  0  0  0  1  0  0  0  0  0  0
  193.5130  171.5840  141.5010 O   0  0  0  0  0  0  0  0  0  0  0  0
  1 16  1  0  0  0  0
  1 20  1  0  0  0  0
  2 24  1  6  0  0  0
  2 12  1  0  0  0  0
  2 27  1  0  0  0  0
  3  4  1  0  0  0  0
  5 25  1  6  0  0  0
  5 27  1  0  0  0  0
  5  6  1  0  0  0  0
  6 18  1  1  0  0  0
  6 28  1  0  0  0  0
  7 19  1  6  0  0  0
  7 24  1  0  0  0  0
  7 17  1  0  0  0  0
  9 26  1  1  0  0  0
 11  3  1  0  0  0  0
 12  8  1  1  0  0  0
 12 13  1  0  0  0  0
 13 11  1  6  0  0  0
 13 22  1  0  0  0  0
 14 22  1  0  0  0  0
 14 23  1  6  0  0  0
 15  9  1  0  0  0  0
 16 19  1  0  0  0  0
 17 10  1  6  0  0  0
 17  8  1  0  0  0  0
 18 15  1  0  0  0  0
 20 29  1  6  0  0  0
 20 10  1  0  0  0  0
 21  4  1  0  0  0  0
 22 21  1  1  0  0  0
 23 28  1  0  0  0  0
 27 14  1  0  0  0  0
 28  9  1  0  0  0  0
 29 30  1  0  0  0  0
 30 32  2  0  0  0  0
 31 30  1  0  0  0  0
M  END
>  <MODEL>
3

>  <REMARK>
 VINA RESULT:      -8.6      2.369      5.316
  Name = 
  1 active torsions:
  status: ('A' for Active; 'I' for Inactive)
    1  A    between atoms: C_20  and  N_29
                            x       y       z     vdW  Elec       q    Type
                         _______ _______ _______ _____ _____    ______ ____

>  <TORSDO>
F 1

$$$$
=
 OpenBabel11112416433D

 32 37  0  0  1  0  0  0  0  0999 V2000
  185.9230  176.7380  143.5090 C   0  0  0  0  0  2  0  0  0  0  0  0
  191.2240  175.2920  142.6050 C   0  0  2  0  0  3  0  0  0  0  0  0
  193.3640  176.7910  146.7900 C   0  0  0  0  0  2  0  0  0  0  0  0
  194.5690  175.8990  146.5130 C   0  0  0  0  0  2  0  0  0  0  0  0
  192.5980  174.1440  140.7400 C   0  0  1  0  0  3  0  0  0  0  0  0
  193.8800  173.3690  140.3650 C   0  0  1  0  0  3  0  0  0  0  0  0
  188.8310  175.9860  142.1380 C   0  0  2  0  0  3  0  0  0  0  0  0
  189.9030  176.3090  144.4270 C   0  0  0  0  0  2  0  0  0  0  0  0
  195.7310  174.9240  140.6270 C   0  0  2  0  0  3  0  0  0  0  0  0
  188.1420  177.9860  143.6530 C   0  0  0  0  0  2  0  0  0  0  0  0
  192.1090  176.1650  146.1920 C   0  0  0  0  0  2  0  0  0  0  0  0
  191.0450  175.4300  144.0710 N   0  0  2  0  0  0  0  0  0  0  0  0
  192.2670  175.9900  144.6710 C   0  0  2  0  0  3  0  0  0  0  0  0
  193.6500  174.8150  142.9250 C   0  0  1  0  0  3  0  0  0  0  0  0
  195.3200  174.9300  139.1640 C   0  0  0  0  0  2  0  0  0  0  0  0
  186.4170  176.3020  142.2040 N   0  0  0  0  0  2  0  0  0  0  0  0
  189.2340  176.9990  143.2310 C   0  0  2  0  0  3  0  0  0  0  0  0
  194.3190  173.7970  138.9760 C   0  0  0  0  0  2  0  0  0  0  0  0
  187.4800  175.3220  142.3880 C   0  0  0  0  0  2  0  0  0  0  0  0
  187.0190  177.2920  144.4270 C   0  0  1  0  0  3  0  0  0  0  0  0
  194.7310  175.6940  145.0100 C   0  0  0  0  0  2  0  0  0  0  0  0
  193.4660  175.0620  144.4200 C   0  0  1  0  0  3  0  0  0  0  0  0
  194.7740  173.8150  142.7040 C   0  0  0  0  0  2  0  0  0  0  0  0
  189.8850  174.8910  141.9740 C   0  0  0  0  0  2  0  0  0  0  0  0
  191.4440  173.4160  140.0680 C   0  0  0  0  0  1  0  0  0  0  0  0
  197.2400  174.8400  140.7390 C   0  0  0  0  0  1  0  0  0  0  0  0
  192.3630  174.2960  142.2700 C   0  0  1  0  0  3  0  0  0  0  0  0
  195.0940  173.6840  141.2230 C   0  0  1  0  0  3  0  0  0  0  0  0
  186.4250  178.2140  145.3830 N   0  0  0  0  0  2  0  0  0  0  0  0
  186.3020  177.9080  146.7730 C   0  0  0  0  0  0  0  0  0  0  0  0
  185.7060  178.9100  147.6960 C   0  0  0  0  0  1  0  0  0  0  0  0
  186.6870  176.7970  147.2240 O   0  0  0  0  0  0  0  0  0  0  0  0
  1 20  1  0  0  0  0
  2 24  1  6  0  0  0
  2 12  1  0  0  0  0
  4  3  1  0  0  0  0
  5 25  1  1  0  0  0
  5 27  1  0  0  0  0
  6 18  1  6  0  0  0
  6  5  1  0  0  0  0
  6 28  1  0  0  0  0
  7 24  1  1  0  0  0
  7 19  1  0  0  0  0
  7 17  1  0  0  0  0
  9 26  1  6  0  0  0
  9 28  1  0  0  0  0
 10 20  1  0  0  0  0
 11  3  1  0  0  0  0
 12  8  1  6  0  0  0
 12 13  1  0  0  0  0
 13 11  1  1  0  0  0
 14 23  1  1  0  0  0
 14 22  1  0  0  0  0
 15  9  1  0  0  0  0
 16 19  1  0  0  0  0
 16  1  1  0  0  0  0
 17 10  1  1  0  0  0
 17  8  1  0  0  0  0
 18 15  1  0  0  0  0
 20 29  1  1  0  0  0
 21  4  1  0  0  0  0
 22 13  1  0  0  0  0
 22 21  1  6  0  0  0
 27  2  1  0  0  0  0
 27 14  1  0  0  0  0
 28 23  1  0  0  0  0
 29 30  1  0  0  0  0
 30 32  2  0  0  0  0
 30 31  1  0  0  0  0
M  END
>  <MODEL>
4

>  <REMARK>
 VINA RESULT:      -7.9      2.839      8.320
  Name = 
  1 active torsions:
  status: ('A' for Active; 'I' for Inactive)
    1  A    between atoms: C_20  and  N_29
                            x       y       z     vdW  Elec       q    Type
                         _______ _______ _______ _____ _____    ______ ____

>  <TORSDO>
F 1

$$$$
=
 OpenBabel11112416433D

 32 37  0  0  1  0  0  0  0  0999 V2000
  190.6620  171.0950  138.3840 C   0  0  0  0  0  2  0  0  0  0  0  0
  189.4000  174.3050  142.7550 C   0  0  2  0  0  3  0  0  0  0  0  0
  186.9120  177.9690  140.5820 C   0  0  0  0  0  2  0  0  0  0  0  0
  186.3110  178.3770  141.9210 C   0  0  0  0  0  2  0  0  0  0  0  0
  189.7660  174.2740  145.3150 C   0  0  1  0  0  3  0  0  0  0  0  0
  189.2970  174.7800  146.6970 C   0  0  1  0  0  3  0  0  0  0  0  0
  190.6390  172.6370  141.3030 C   0  0  2  0  0  3  0  0  0  0  0  0
  188.9720  174.2960  140.3240 C   0  0  0  0  0  2  0  0  0  0  0  0
  189.7780  177.1620  146.7630 C   0  0  2  0  0  3  0  0  0  0  0  0
  190.9610  173.5740  138.8980 C   0  0  0  0  0  2  0  0  0  0  0  0
  187.1740  176.4670  140.5680 C   0  0  0  0  0  2  0  0  0  0  0  0
  188.4470  174.6390  141.6690 N   0  0  2  0  0  0  0  0  0  0  0  0
  188.1470  176.0800  141.6970 C   0  0  2  0  0  3  0  0  0  0  0  0
  188.4050  176.0750  144.2020 C   0  0  1  0  0  3  0  0  0  0  0  0
  190.9320  176.4340  147.4320 C   0  0  0  0  0  2  0  0  0  0  0  0
  191.2440  170.8970  139.7110 N   0  0  0  0  0  2  0  0  0  0  0  0
  190.4240  173.8020  140.3140 C   0  0  2  0  0  3  0  0  0  0  0  0
  190.5150  174.9760  147.5820 C   0  0  0  0  0  2  0  0  0  0  0  0
  190.2720  171.2720  140.7290 C   0  0  0  0  0  2  0  0  0  0  0  0
  190.1470  172.5200  138.1450 C   0  0  1  0  0  3  0  0  0  0  0  0
  187.2490  177.9830  143.0570 C   0  0  0  0  0  2  0  0  0  0  0  0
  187.5040  176.4720  143.0370 C   0  0  1  0  0  3  0  0  0  0  0  0
  187.7060  176.3760  145.5190 C   0  0  0  0  0  2  0  0  0  0  0  0
  189.8490  172.8470  142.5950 C   0  0  0  0  0  2  0  0  0  0  0  0
  189.9960  172.7770  145.4610 C   0  0  0  0  0  1  0  0  0  0  0  0
  189.3630  178.3530  147.6030 C   0  0  0  0  0  1  0  0  0  0  0  0
  188.7850  174.5880  144.1490 C   0  0  1  0  0  3  0  0  0  0  0  0
  188.6490  176.1530  146.6910 C   0  0  1  0  0  3  0  0  0  0  0  0
  190.1580  172.8020  136.7180 N   0  0  0  0  0  2  0  0  0  0  0  0
  189.3720  173.8420  136.1330 C   0  0  0  0  0  0  0  0  0  0  0  0
  189.4530  174.0900  134.6700 C   0  0  0  0  0  1  0  0  0  0  0  0
  188.6070  174.5480  136.8440 O   0  0  0  0  0  0  0  0  0  0  0  0
  1 16  1  0  0  0  0
  2 24  1  1  0  0  0
  2 27  1  0  0  0  0
  3  4  1  0  0  0  0
  4 21  1  0  0  0  0
  5 25  1  1  0  0  0
  5  6  1  0  0  0  0
  6 18  1  1  0  0  0
  7 19  1  6  0  0  0
  7 24  1  0  0  0  0
  9 15  1  0  0  0  0
  9 26  1  1  0  0  0
 11  3  1  0  0  0  0
 12  8  1  6  0  0  0
 12 13  1  0  0  0  0
 12  2  1  0  0  0  0
 13 11  1  6  0  0  0
 13 22  1  0  0  0  0
 14 23  1  1  0  0  0
 15 18  1  0  0  0  0
 16 19  1  0  0  0  0
 17 10  1  6  0  0  0
 17  8  1  0  0  0  0
 17  7  1  0  0  0  0
 20 29  1  6  0  0  0
 20  1  1  0  0  0  0
 20 10  1  0  0  0  0
 22 21  1  6  0  0  0
 22 14  1  0  0  0  0
 23 28  1  0  0  0  0
 27 14  1  0  0  0  0
 27  5  1  0  0  0  0
 28  6  1  0  0  0  0
 28  9  1  0  0  0  0
 30 29  1  0  0  0  0
 30 32  2  0  0  0  0
 31 30  1  0  0  0  0
M  END
>  <MODEL>
5

>  <REMARK>
 VINA RESULT:      -7.7      3.651      6.285
  Name = 
  1 active torsions:
  status: ('A' for Active; 'I' for Inactive)
    1  A    between atoms: C_20  and  N_29
                            x       y       z     vdW  Elec       q    Type
                         _______ _______ _______ _____ _____    ______ ____

>  <TORSDO>
F 1

$$$$
=
 OpenBabel11112416433D

 32 37  0  0  1  0  0  0  0  0999 V2000
  197.6560  175.2900  140.9430 C   0  0  0  0  0  2  0  0  0  0  0  0
  192.9110  175.1550  143.8540 C   0  0  2  0  0  3  0  0  0  0  0  0
  189.8560  173.0070  140.6300 C   0  0  0  0  0  2  0  0  0  0  0  0
  188.8850  172.6650  141.7530 C   0  0  0  0  0  2  0  0  0  0  0  0
  192.0940  175.8540  146.2060 C   0  0  1  0  0  3  0  0  0  0  0  0
  191.0440  175.6630  147.3230 C   0  0  1  0  0  3  0  0  0  0  0  0
  195.1980  175.9070  143.0600 C   0  0  2  0  0  3  0  0  0  0  0  0
  193.7060  174.4060  141.6400 C   0  0  0  0  0  2  0  0  0  0  0  0
  188.9420  176.5200  146.4530 C   0  0  2  0  0  3  0  0  0  0  0  0
  195.2690  176.0450  140.4630 C   0  0  0  0  0  2  0  0  0  0  0  0
  191.2830  173.0240  141.1670 C   0  0  0  0  0  2  0  0  0  0  0  0
  192.8070  174.1290  142.7880 N   0  0  2  0  0  0  0  0  0  0  0  0
  191.4230  174.0670  142.2900 C   0  0  2  0  0  3  0  0  0  0  0  0
  190.5810  174.6580  144.5890 C   0  0  1  0  0  3  0  0  0  0  0  0
  189.5940  177.6240  147.2680 C   0  0  0  0  0  2  0  0  0  0  0  0
  197.4760  176.0070  142.2050 N   0  0  0  0  0  2  0  0  0  0  0  0
  194.4470  175.7470  141.7210 C   0  0  2  0  0  3  0  0  0  0  0  0
  190.7880  177.0050  147.9850 C   0  0  0  0  0  2  0  0  0  0  0  0
  196.5770  175.2540  143.0690 C   0  0  0  0  0  2  0  0  0  0  0  0
  196.3400  174.9800  140.2200 C   0  0  1  0  0  3  0  0  0  0  0  0
  189.0230  173.6740  142.8880 C   0  0  0  0  0  2  0  0  0  0  0  0
  190.4590  173.6810  143.4230 C   0  0  1  0  0  3  0  0  0  0  0  0
  189.6960  174.2000  145.7380 C   0  0  0  0  0  2  0  0  0  0  0  0
  194.3870  175.3420  144.2260 C   0  0  0  0  0  2  0  0  0  0  0  0
  193.4520  175.8620  146.8900 C   0  0  0  0  0  1  0  0  0  0  0  0
  187.4720  176.4150  146.8070 C   0  0  0  0  0  1  0  0  0  0  0  0
  192.0310  174.7870  145.0760 C   0  0  1  0  0  3  0  0  0  0  0  0
  189.6650  175.2450  146.8420 C   0  0  1  0  0  3  0  0  0  0  0  0
  196.5960  174.8420  138.7940 N   0  0  0  0  0  2  0  0  0  0  0  0
  195.9340  173.8690  137.9840 C   0  0  0  0  0  0  0  0  0  0  0  0
  196.2270  173.8030  136.5280 C   0  0  0  0  0  1  0  0  0  0  0  0
  195.1070  173.0640  138.4900 O   0  0  0  0  0  0  0  0  0  0  0  0
  1 16  1  0  0  0  0
  2 24  1  1  0  0  0
  2 27  1  0  0  0  0
  3 11  1  0  0  0  0
  3  4  1  0  0  0  0
  4 21  1  0  0  0  0
  5 25  1  1  0  0  0
  5  6  1  0  0  0  0
  6 18  1  6  0  0  0
  7 19  1  6  0  0  0
  7 24  1  0  0  0  0
  8 17  1  0  0  0  0
  9 26  1  1  0  0  0
  9 28  1  0  0  0  0
  9 15  1  0  0  0  0
 12  8  1  6  0  0  0
 12  2  1  0  0  0  0
 13 11  1  6  0  0  0
 13 12  1  0  0  0  0
 13 22  1  0  0  0  0
 14 27  1  0  0  0  0
 14 23  1  1  0  0  0
 15 18  1  0  0  0  0
 16 19  1  0  0  0  0
 17 10  1  6  0  0  0
 17  7  1  0  0  0  0
 20 29  1  6  0  0  0
 20 10  1  0  0  0  0
 20  1  1  0  0  0  0
 22 21  1  6  0  0  0
 22 14  1  0  0  0  0
 23 28  1  0  0  0  0
 27  5  1  0  0  0  0
 28  6  1  0  0  0  0
 30 32  2  0  0  0  0
 30 29  1  0  0  0  0
 31 30  1  0  0  0  0
M  END
>  <MODEL>
6

>  <REMARK>
 VINA RESULT:      -7.6      2.744      4.419
  Name = 
  1 active torsions:
  status: ('A' for Active; 'I' for Inactive)
    1  A    between atoms: C_20  and  N_29
                            x       y       z     vdW  Elec       q    Type
                         _______ _______ _______ _____ _____    ______ ____

>  <TORSDO>
F 1

$$$$
=
 OpenBabel11112416433D

 32 37  0  0  1  0  0  0  0  0999 V2000
  186.0790  178.7250  144.0080 C   0  0  0  0  0  2  0  0  0  0  0  0
  189.8800  174.8250  142.8490 C   0  0  2  0  0  3  0  0  0  0  0  0
  188.1920  173.0700  138.5590 C   0  0  0  0  0  2  0  0  0  0  0  0
  189.5520  172.4540  138.2560 C   0  0  0  0  0  2  0  0  0  0  0  0
  192.0440  173.8920  143.9140 C   0  0  1  0  0  3  0  0  0  0  0  0
  193.3720  173.1330  143.6980 C   0  0  1  0  0  3  0  0  0  0  0  0
  188.4120  176.3960  144.1910 C   0  0  2  0  0  3  0  0  0  0  0  0
  187.8640  175.7710  141.7830 C   0  0  0  0  0  2  0  0  0  0  0  0
  192.7790  170.8400  143.1470 C   0  0  2  0  0  3  0  0  0  0  0  0
  185.9420  176.2550  143.3890 C   0  0  0  0  0  2  0  0  0  0  0  0
  188.3680  174.3270  139.4030 C   0  0  0  0  0  2  0  0  0  0  0  0
  189.2130  175.1870  141.5750 N   0  0  2  0  0  0  0  0  0  0  0  0
  189.0760  173.9910  140.7270 C   0  0  2  0  0  3  0  0  0  0  0  0
  191.2280  173.0860  141.6740 C   0  0  1  0  0  3  0  0  0  0  0  0
  193.0690  170.9020  144.6380 C   0  0  0  0  0  2  0  0  0  0  0  0
  187.0820  178.2790  144.9750 N   0  0  0  0  0  2  0  0  0  0  0  0
  187.3810  175.7550  143.2390 C   0  0  2  0  0  3  0  0  0  0  0  0
  193.6510  172.2810  144.9240 C   0  0  0  0  0  2  0  0  0  0  0  0
  188.3060  177.9160  144.2740 C   0  0  0  0  0  2  0  0  0  0  0  0
  185.7900  177.6990  142.9050 C   0  0  1  0  0  3  0  0  0  0  0  0
  190.2810  172.1340  139.5560 C   0  0  0  0  0  2  0  0  0  0  0  0
  190.4570  173.4040  140.3950 C   0  0  1  0  0  3  0  0  0  0  0  0
  192.6270  172.6050  141.3240 C   0  0  0  0  0  2  0  0  0  0  0  0
  189.8430  176.0320  143.7940 C   0  0  0  0  0  2  0  0  0  0  0  0
  192.3750  175.1020  144.7740 C   0  0  0  0  0  1  0  0  0  0  0  0
  193.4660  169.6350  142.5380 C   0  0  0  0  0  1  0  0  0  0  0  0
  191.3200  174.3060  142.6020 C   0  0  1  0  0  3  0  0  0  0  0  0
  193.3540  172.1180  142.5680 C   0  0  1  0  0  3  0  0  0  0  0  0
  184.4470  177.9160  142.3870 N   0  0  0  0  0  2  0  0  0  0  0  0
  184.1800  178.0990  140.9960 C   0  0  0  0  0  0  0  0  0  0  0  0
  182.7800  178.2910  140.5360 C   0  0  0  0  0  1  0  0  0  0  0  0
  185.1190  178.1050  140.1560 O   0  0  0  0  0  0  0  0  0  0  0  0
  1 16  1  0  0  0  0
  2 24  1  1  0  0  0
  3 11  1  0  0  0  0
  4  3  1  0  0  0  0
  4 21  1  0  0  0  0
  5 25  1  1  0  0  0
  6  5  1  0  0  0  0
  6 18  1  1  0  0  0
  7 24  1  6  0  0  0
  7 19  1  0  0  0  0
  9 26  1  6  0  0  0
  9 15  1  0  0  0  0
 12  8  1  1  0  0  0
 12  2  1  0  0  0  0
 13 11  1  6  0  0  0
 13 12  1  0  0  0  0
 14 23  1  6  0  0  0
 14 27  1  0  0  0  0
 15 18  1  0  0  0  0
 17  8  1  6  0  0  0
 17 10  1  0  0  0  0
 17  7  1  0  0  0  0
 19 16  1  0  0  0  0
 20 29  1  1  0  0  0
 20 10  1  0  0  0  0
 20  1  1  0  0  0  0
 22 21  1  1  0  0  0
 22 13  1  0  0  0  0
 22 14  1  0  0  0  0
 23 28  1  0  0  0  0
 27  2  1  0  0  0  0
 27  5  1  0  0  0  0
 28  9  1  0  0  0  0
 28  6  1  0  0  0  0
 30 29  1  0  0  0  0
 31 30  1  0  0  0  0
 32 30  2  0  0  0  0
M  END
>  <MODEL>
7

>  <REMARK>
 VINA RESULT:      -7.6      3.201      7.803
  Name = 
  1 active torsions:
  status: ('A' for Active; 'I' for Inactive)
    1  A    between atoms: C_20  and  N_29
                            x       y       z     vdW  Elec       q    Type
                         _______ _______ _______ _____ _____    ______ ____

>  <TORSDO>
F 1

$$$$
=
 OpenBabel11112416433D

 32 37  0  0  1  0  0  0  0  0999 V2000
  189.4970  177.5190  147.4870 C   0  0  0  0  0  2  0  0  0  0  0  0
  192.7750  173.6600  145.1690 C   0  0  2  0  0  3  0  0  0  0  0  0
  189.6700  171.5410  141.9750 C   0  0  0  0  0  2  0  0  0  0  0  0
  190.8420  170.9460  141.2050 C   0  0  0  0  0  2  0  0  0  0  0  0
  195.2310  172.8750  145.3650 C   0  0  1  0  0  3  0  0  0  0  0  0
  196.4150  172.1430  144.6950 C   0  0  1  0  0  3  0  0  0  0  0  0
  191.8490  175.2820  146.8840 C   0  0  2  0  0  3  0  0  0  0  0  0
  190.4540  174.4630  144.9150 C   0  0  0  0  0  2  0  0  0  0  0  0
  195.7870  169.7990  144.5480 C   0  0  2  0  0  3  0  0  0  0  0  0
  189.2720  175.0070  147.1110 C   0  0  0  0  0  2  0  0  0  0  0  0
  190.0850  172.8620  142.6120 C   0  0  0  0  0  2  0  0  0  0  0  0
  191.6500  173.9060  144.2350 N   0  0  2  0  0  0  0  0  0  0  0  0
  191.2660  172.6470  143.5760 C   0  0  2  0  0  3  0  0  0  0  0  0
  193.6640  171.8810  143.6650 C   0  0  1  0  0  3  0  0  0  0  0  0
  196.6230  169.9800  145.8040 C   0  0  0  0  0  2  0  0  0  0  0  0
  190.8180  177.1770  148.0130 N   0  0  0  0  0  2  0  0  0  0  0  0
  190.5700  174.5410  146.4430 C   0  0  2  0  0  3  0  0  0  0  0  0
  197.1910  171.3940  145.7630 C   0  0  0  0  0  2  0  0  0  0  0  0
  191.6970  176.8000  146.9140 C   0  0  0  0  0  2  0  0  0  0  0  0
  188.8650  176.4060  146.6420 C   0  0  1  0  0  3  0  0  0  0  0  0
  192.0320  170.7450  142.1370 C   0  0  0  0  0  2  0  0  0  0  0  0
  192.4440  172.0790  142.7690 C   0  0  1  0  0  3  0  0  0  0  0  0
  194.8460  171.4180  142.8290 C   0  0  0  0  0  2  0  0  0  0  0  0
  193.0360  174.9330  145.9840 C   0  0  0  0  0  2  0  0  0  0  0  0
  195.7980  174.1550  145.9590 C   0  0  0  0  0  1  0  0  0  0  0  0
  196.2540  168.5740  143.7890 C   0  0  0  0  0  1  0  0  0  0  0  0
  194.0360  173.1690  144.4140 C   0  0  1  0  0  3  0  0  0  0  0  0
  196.0220  171.0470  143.7190 C   0  0  1  0  0  3  0  0  0  0  0  0
  187.4160  176.5420  146.6730 N   0  0  0  0  0  2  0  0  0  0  0  0
  186.6950  177.3030  145.7030 C   0  0  0  0  0  0  0  0  0  0  0  0
  185.2120  177.3780  145.7820 C   0  0  0  0  0  1  0  0  0  0  0  0
  187.3010  177.9140  144.7830 O   0  0  0  0  0  0  0  0  0  0  0  0
  1 16  1  0  0  0  0
  2 24  1  6  0  0  0
  3 11  1  0  0  0  0
  4  3  1  0  0  0  0
  4 21  1  0  0  0  0
  5 25  1  6  0  0  0
  6  5  1  0  0  0  0
  6 18  1  1  0  0  0
  7 24  1  6  0  0  0
  7 19  1  0  0  0  0
  9 26  1  6  0  0  0
  9 15  1  0  0  0  0
 12  8  1  1  0  0  0
 12  2  1  0  0  0  0
 13 11  1  6  0  0  0
 13 12  1  0  0  0  0
 14 23  1  6  0  0  0
 14 27  1  0  0  0  0
 17  8  1  6  0  0  0
 17  7  1  0  0  0  0
 17 10  1  0  0  0  0
 18 15  1  0  0  0  0
 19 16  1  0  0  0  0
 20 29  1  1  0  0  0
 20 10  1  0  0  0  0
 20  1  1  0  0  0  0
 22 21  1  1  0  0  0
 22 13  1  0  0  0  0
 22 14  1  0  0  0  0
 23 28  1  0  0  0  0
 27  2  1  0  0  0  0
 27  5  1  0  0  0  0
 28  9  1  0  0  0  0
 28  6  1  0  0  0  0
 30 31  1  0  0  0  0
 30 29  1  0  0  0  0
 32 30  2  0  0  0  0
M  END
>  <MODEL>
8

>  <REMARK>
 VINA RESULT:      -7.5      3.181      8.184
  Name = 
  1 active torsions:
  status: ('A' for Active; 'I' for Inactive)
    1  A    between atoms: C_20  and  N_29
                            x       y       z     vdW  Elec       q    Type
                         _______ _______ _______ _____ _____    ______ ____

>  <TORSDO>
F 1

$$$$
=
 OpenBabel11112416433D

 32 37  0  0  1  0  0  0  0  0999 V2000
  193.1950  170.3010  141.5130 C   0  0  0  0  0  2  0  0  0  0  0  0
  190.0940  174.5260  143.3970 C   0  0  2  0  0  3  0  0  0  0  0  0
  192.1290  175.3260  147.8190 C   0  0  0  0  0  2  0  0  0  0  0  0
  191.4960  176.7110  147.8790 C   0  0  0  0  0  2  0  0  0  0  0  0
  188.1170  175.9650  142.5570 C   0  0  1  0  0  3  0  0  0  0  0  0
  187.3370  177.2920  142.6790 C   0  0  1  0  0  3  0  0  0  0  0  0
  190.7580  172.4500  142.1020 C   0  0  2  0  0  3  0  0  0  0  0  0
  192.0370  173.2130  144.1690 C   0  0  0  0  0  2  0  0  0  0  0  0
  186.2520  177.2610  144.8550 C   0  0  2  0  0  3  0  0  0  0  0  0
  191.8980  170.7140  143.6690 C   0  0  0  0  0  2  0  0  0  0  0  0
  192.4160  174.9490  146.3700 C   0  0  0  0  0  2  0  0  0  0  0  0
  191.3680  174.5380  144.1550 N   0  0  2  0  0  0  0  0  0  0  0  0
  191.1150  174.9450  145.5470 C   0  0  2  0  0  3  0  0  0  0  0  0
  189.2390  176.4300  144.7610 C   0  0  1  0  0  3  0  0  0  0  0  0
  185.2460  176.7760  143.8250 C   0  0  0  0  0  2  0  0  0  0  0  0
  191.9630  170.7390  140.8570 N   0  0  0  0  0  2  0  0  0  0  0  0
  191.2230  172.0830  143.5260 C   0  0  2  0  0  3  0  0  0  0  0  0
  185.8620  177.0130  142.4510 C   0  0  0  0  0  2  0  0  0  0  0  0
  191.8060  172.1770  141.0260 C   0  0  0  0  0  2  0  0  0  0  0  0
  193.2710  170.6860  142.9960 C   0  0  1  0  0  3  0  0  0  0  0  0
  190.2160  176.7350  147.0500 C   0  0  0  0  0  2  0  0  0  0  0  0
  190.5150  176.3590  145.5960 C   0  0  1  0  0  3  0  0  0  0  0  0
  188.7190  177.8590  144.7370 C   0  0  0  0  0  2  0  0  0  0  0  0
  190.3430  173.9190  142.0110 C   0  0  0  0  0  2  0  0  0  0  0  0
  188.3160  175.7190  141.0690 C   0  0  0  0  0  1  0  0  0  0  0  0
  185.5990  178.2660  145.7810 C   0  0  0  0  0  1  0  0  0  0  0  0
  189.4700  175.9420  143.3230 C   0  0  1  0  0  3  0  0  0  0  0  0
  187.3590  177.9250  144.0600 C   0  0  1  0  0  3  0  0  0  0  0  0
  194.1510  169.7560  143.6890 N   0  0  0  0  0  2  0  0  0  0  0  0
  195.3960  170.1580  144.2630 C   0  0  0  0  0  0  0  0  0  0  0  0
  196.2310  169.1580  144.9790 C   0  0  0  0  0  1  0  0  0  0  0  0
  195.7960  171.3480  144.1650 O   0  0  0  0  0  0  0  0  0  0  0  0
  1 20  1  0  0  0  0
  2 24  1  6  0  0  0
  2 12  1  0  0  0  0
  3  4  1  0  0  0  0
  5 25  1  6  0  0  0
  5  6  1  0  0  0  0
  5 27  1  0  0  0  0
  6 18  1  1  0  0  0
  6 28  1  0  0  0  0
  7 19  1  6  0  0  0
  7 17  1  0  0  0  0
  9 26  1  1  0  0  0
 11  3  1  0  0  0  0
 12  8  1  1  0  0  0
 12 13  1  0  0  0  0
 13 22  1  0  0  0  0
 13 11  1  1  0  0  0
 14 23  1  6  0  0  0
 14 22  1  0  0  0  0
 15  9  1  0  0  0  0
 16 19  1  0  0  0  0
 16  1  1  0  0  0  0
 17 10  1  6  0  0  0
 17  8  1  0  0  0  0
 18 15  1  0  0  0  0
 20 10  1  0  0  0  0
 20 29  1  1  0  0  0
 21  4  1  0  0  0  0
 22 21  1  1  0  0  0
 24  7  1  0  0  0  0
 27  2  1  0  0  0  0
 27 14  1  0  0  0  0
 28 23  1  0  0  0  0
 28  9  1  0  0  0  0
 29 30  1  0  0  0  0
 30 31  1  0  0  0  0
 32 30  2  0  0  0  0
M  END
>  <MODEL>
9

>  <REMARK>
 VINA RESULT:      -7.2      2.483      4.875
  Name = 
  1 active torsions:
  status: ('A' for Active; 'I' for Inactive)
    1  A    between atoms: C_20  and  N_29
                            x       y       z     vdW  Elec       q    Type
                         _______ _______ _______ _____ _____    ______ ____

>  <TORSDO>
F 1

$$$$
