=
 OpenBabel11112417363D

 28 32  0  0  1  0  0  0  0  0999 V2000
  188.3670  175.0740  142.6560 C   0  0  2  0  0  3  0  0  0  0  0  0
  192.4670  176.1540  142.2380 F   0  0  0  0  0  0  0  0  0  0  0  0
  189.3130  177.9230  147.5770 N   0  0  0  0  0  1  0  0  0  0  0  0
  188.9090  172.1950  142.2930 C   0  0  0  0  0  2  0  0  0  0  0  0
  191.2170  176.4600  146.9610 C   0  0  2  0  0  3  0  0  0  0  0  0
  188.4850  176.5070  142.1220 C   0  0  0  0  0  2  0  0  0  0  0  0
  192.4170  177.2980  144.1760 F   0  0  0  0  0  0  0  0  0  0  0  0
  192.7370  176.0820  143.5920 C   0  0  0  0  0  0  0  0  0  0  0  0
  194.4950  175.6270  145.2250 C   0  0  0  0  0  0  0  0  0  0  0  0
  191.9110  174.9430  144.2150 C   0  0  1  0  0  3  0  0  0  0  0  0
  186.8040  178.3340  143.9570 C   0  0  0  0  0  1  0  0  0  0  0  0
  189.8750  174.9950  145.5750 C   0  0  1  0  0  3  0  0  0  0  0  0
  193.4550  175.1680  146.0880 N   0  0  0  0  0  2  0  0  0  0  0  0
  194.2190  175.7990  143.7760 C   0  0  0  0  0  2  0  0  0  0  0  0
  188.1400  177.7420  144.3650 C   0  0  1  0  0  3  0  0  0  0  0  0
  189.7290  174.4570  143.0420 C   0  0  2  0  0  3  0  0  0  0  0  0
  189.9250  177.1470  146.5080 C   0  0  1  0  0  3  0  0  0  0  0  0
  195.6290  175.9030  145.6920 O   0  0  0  0  0  0  0  0  0  0  0  0
  187.9150  176.4720  145.1970 C   0  0  0  0  0  2  0  0  0  0  0  0
  189.5920  172.9730  143.4100 C   0  0  0  0  0  2  0  0  0  0  0  0
  187.6760  174.2360  141.5810 C   0  0  0  0  0  2  0  0  0  0  0  0
  187.5320  172.7860  142.0260 C   0  0  0  0  0  2  0  0  0  0  0  0
  189.0290  177.5200  143.1390 C   0  0  0  0  0  2  0  0  0  0  0  0
  191.1130  175.0150  146.4500 C   0  0  1  0  0  3  0  0  0  0  0  0
  189.0270  176.0810  146.0830 N   0  0  1  0  0  0  0  0  0  0  0  0
  192.2480  174.6000  145.6140 N   0  0  1  0  0  0  0  0  0  0  0  0
  191.3400  176.4400  148.3530 O   0  0  0  0  0  1  0  0  0  0  0  0
  190.4230  175.2440  144.1640 C   0  0  2  0  0  3  0  0  0  0  0  0
  1 21  1  6  0  0  0
  1 16  1  0  0  0  0
  2  8  1  0  0  0  0
  4 20  1  0  0  0  0
  5 27  1  1  0  0  0
  6  1  1  0  0  0  0
  6 23  1  0  0  0  0
  8 14  1  0  0  0  0
  8  7  1  0  0  0  0
  9 18  2  0  0  0  0
  9 13  1  0  0  0  0
 10  8  1  1  0  0  0
 10 26  1  0  0  0  0
 11 15  1  0  0  0  0
 12 25  1  0  0  0  0
 12 24  1  0  0  0  0
 14  9  1  0  0  0  0
 15 19  1  0  0  0  0
 16 20  1  0  0  0  0
 16 28  1  0  0  0  0
 17  5  1  0  0  0  0
 17  3  1  0  0  0  0
 19 25  1  0  0  0  0
 21 22  1  0  0  0  0
 22  4  1  0  0  0  0
 23 15  1  0  0  0  0
 24  5  1  0  0  0  0
 25 17  1  0  0  0  0
 26 13  1  0  0  0  0
 26 24  1  0  0  0  0
 28 10  1  0  0  0  0
 28 12  1  0  0  0  0
M  END
>  <MODEL>
1

>  <REMARK>
 VINA RESULT:      -7.8      0.000      0.000
  Name = 
  0 active torsions:
  status: ('A' for Active; 'I' for Inactive)
                            x       y       z     vdW  Elec       q    Type
                         _______ _______ _______ _____ _____    ______ ____

>  <TORSDO>
F 0

$$$$
=
 OpenBabel11112417363D

 28 32  0  0  1  0  0  0  0  0999 V2000
  191.3370  175.8820  146.3980 C   0  0  2  0  0  3  0  0  0  0  0  0
  190.9550  171.9210  144.8780 F   0  0  0  0  0  0  0  0  0  0  0  0
  186.8780  176.4610  142.7900 N   0  0  0  0  0  1  0  0  0  0  0  0
  194.1620  176.1120  145.5690 C   0  0  0  0  0  2  0  0  0  0  0  0
  188.6590  175.0110  141.8540 C   0  0  2  0  0  3  0  0  0  0  0  0
  190.2580  175.1190  147.1750 C   0  0  0  0  0  2  0  0  0  0  0  0
  189.1350  172.4980  143.6870 F   0  0  0  0  0  0  0  0  0  0  0  0
  190.5090  172.3240  143.6330 C   0  0  0  0  0  0  0  0  0  0  0  0
  190.4570  171.7130  141.2690 C   0  0  0  0  0  0  0  0  0  0  0  0
  191.2100  173.6370  143.2430 C   0  0  1  0  0  3  0  0  0  0  0  0
  187.6840  176.8220  147.1250 C   0  0  0  0  0  1  0  0  0  0  0  0
  190.4040  175.9500  143.2470 C   0  0  1  0  0  3  0  0  0  0  0  0
  190.4210  173.1140  140.9970 N   0  0  0  0  0  2  0  0  0  0  0  0
  190.8500  171.2420  142.6220 C   0  0  0  0  0  2  0  0  0  0  0  0
  188.2020  176.0560  145.9220 C   0  0  1  0  0  3  0  0  0  0  0  0
  191.8890  175.0910  145.1910 C   0  0  2  0  0  3  0  0  0  0  0  0
  188.0770  175.6920  143.0960 C   0  0  1  0  0  3  0  0  0  0  0  0
  190.1390  170.8860  140.3770 O   0  0  0  0  0  0  0  0  0  0  0  0
  189.0020  176.9950  145.0100 C   0  0  0  0  0  2  0  0  0  0  0  0
  193.0800  175.8100  144.5420 C   0  0  0  0  0  2  0  0  0  0  0  0
  192.4570  176.2280  147.3790 C   0  0  0  0  0  2  0  0  0  0  0  0
  193.5840  176.9780  146.6810 C   0  0  0  0  0  2  0  0  0  0  0  0
  188.9870  174.8200  146.3680 C   0  0  0  0  0  2  0  0  0  0  0  0
  190.1680  175.2950  141.9000 C   0  0  1  0  0  3  0  0  0  0  0  0
  189.1230  176.5730  143.6020 N   0  0  1  0  0  0  0  0  0  0  0  0
  191.0000  174.0850  141.8490 N   0  0  1  0  0  0  0  0  0  0  0  0
  188.1340  175.5400  140.6720 O   0  0  0  0  0  1  0  0  0  0  0  0
  190.7990  174.7790  144.1560 C   0  0  2  0  0  3  0  0  0  0  0  0
  1  6  1  1  0  0  0
  1 21  1  0  0  0  0
  3 17  1  0  0  0  0
  4 22  1  0  0  0  0
  5 27  1  6  0  0  0
  5 24  1  0  0  0  0
  5 17  1  0  0  0  0
  8  7  1  0  0  0  0
  8  2  1  0  0  0  0
  9 14  1  0  0  0  0
 10  8  1  1  0  0  0
 10 28  1  0  0  0  0
 12 25  1  0  0  0  0
 12 28  1  0  0  0  0
 13  9  1  0  0  0  0
 13 26  1  0  0  0  0
 14  8  1  0  0  0  0
 15 23  1  0  0  0  0
 15 11  1  0  0  0  0
 16  1  1  0  0  0  0
 17 25  1  0  0  0  0
 18  9  2  0  0  0  0
 19 15  1  0  0  0  0
 20 16  1  0  0  0  0
 20  4  1  0  0  0  0
 22 21  1  0  0  0  0
 23  6  1  0  0  0  0
 24 12  1  0  0  0  0
 25 19  1  0  0  0  0
 26 24  1  0  0  0  0
 26 10  1  0  0  0  0
 28 16  1  0  0  0  0
M  END
>  <MODEL>
2

>  <REMARK>
 VINA RESULT:      -7.5      3.366      5.358
  Name = 
  0 active torsions:
  status: ('A' for Active; 'I' for Inactive)
                            x       y       z     vdW  Elec       q    Type
                         _______ _______ _______ _____ _____    ______ ____

>  <TORSDO>
F 0

$$$$
=
 OpenBabel11112417363D

 28 32  0  0  1  0  0  0  0  0999 V2000
  189.6290  174.9170  145.3640 C   0  0  2  0  0  3  0  0  0  0  0  0
  193.5700  173.7080  146.4410 F   0  0  0  0  0  0  0  0  0  0  0  0
  191.9450  173.8140  140.2010 N   0  0  0  0  0  1  0  0  0  0  0  0
  189.8610  177.5140  146.7480 C   0  0  0  0  0  2  0  0  0  0  0  0
  193.5320  174.9730  141.7120 C   0  0  2  0  0  3  0  0  0  0  0  0
  189.7150  173.3870  145.4250 C   0  0  0  0  0  2  0  0  0  0  0  0
  194.0740  173.2590  144.2940 F   0  0  0  0  0  0  0  0  0  0  0  0
  194.1550  174.2130  145.2950 C   0  0  0  0  0  0  0  0  0  0  0  0
  196.2210  175.1530  144.3940 C   0  0  0  0  0  0  0  0  0  0  0  0
  193.4270  175.5040  144.8790 C   0  0  1  0  0  3  0  0  0  0  0  0
  188.6650  172.2780  142.7420 C   0  0  0  0  0  1  0  0  0  0  0  0
  191.7930  175.9230  143.1030 C   0  0  1  0  0  3  0  0  0  0  0  0
  195.3930  175.8820  143.4880 N   0  0  0  0  0  2  0  0  0  0  0  0
  195.6140  174.5230  145.5930 C   0  0  0  0  0  2  0  0  0  0  0  0
  190.0150  172.9540  142.8960 C   0  0  1  0  0  3  0  0  0  0  0  0
  190.9970  175.6090  145.5520 C   0  0  2  0  0  3  0  0  0  0  0  0
  192.2220  174.1920  141.5790 C   0  0  1  0  0  3  0  0  0  0  0  0
  197.4520  175.0300  144.1660 O   0  0  0  0  0  0  0  0  0  0  0  0
  189.9100  174.4290  142.4830 C   0  0  0  0  0  2  0  0  0  0  0  0
  190.8480  177.1330  145.6540 C   0  0  0  0  0  2  0  0  0  0  0  0
  188.6390  175.3680  146.4370 C   0  0  0  0  0  2  0  0  0  0  0  0
  188.5060  176.8850  146.4550 C   0  0  0  0  0  2  0  0  0  0  0  0
  190.5600  172.7540  144.3120 C   0  0  0  0  0  2  0  0  0  0  0  0
  193.2050  176.1730  142.6120 C   0  0  1  0  0  3  0  0  0  0  0  0
  191.1740  175.0730  142.0800 N   0  0  1  0  0  0  0  0  0  0  0  0
  194.0700  176.2790  143.7960 N   0  0  1  0  0  0  0  0  0  0  0  0
  193.9890  175.4430  140.4780 O   0  0  0  0  0  1  0  0  0  0  0  0
  191.9970  175.2220  144.4530 C   0  0  2  0  0  3  0  0  0  0  0  0
  1  6  1  1  0  0  0
  1 16  1  0  0  0  0
  1 21  1  0  0  0  0
  3 17  1  0  0  0  0
  5 27  1  6  0  0  0
  5 24  1  0  0  0  0
  7  8  1  0  0  0  0
  8 14  1  0  0  0  0
  8  2  1  0  0  0  0
  9 14  1  0  0  0  0
 10  8  1  6  0  0  0
 11 15  1  0  0  0  0
 12 28  1  0  0  0  0
 13 26  1  0  0  0  0
 13  9  1  0  0  0  0
 15 23  1  0  0  0  0
 16 20  1  0  0  0  0
 17  5  1  0  0  0  0
 17 25  1  0  0  0  0
 18  9  2  0  0  0  0
 19 15  1  0  0  0  0
 20  4  1  0  0  0  0
 21 22  1  0  0  0  0
 22  4  1  0  0  0  0
 23  6  1  0  0  0  0
 24 12  1  0  0  0  0
 24 26  1  0  0  0  0
 25 19  1  0  0  0  0
 25 12  1  0  0  0  0
 26 10  1  0  0  0  0
 28 10  1  0  0  0  0
 28 16  1  0  0  0  0
M  END
>  <MODEL>
3

>  <REMARK>
 VINA RESULT:      -7.5      2.880      4.850
  Name = 
  0 active torsions:
  status: ('A' for Active; 'I' for Inactive)
                            x       y       z     vdW  Elec       q    Type
                         _______ _______ _______ _____ _____    ______ ____

>  <TORSDO>
F 0

$$$$
=
 OpenBabel11112417363D

 28 32  0  0  1  0  0  0  0  0999 V2000
  192.0770  175.7410  145.2340 C   0  0  2  0  0  3  0  0  0  0  0  0
  189.4490  178.6390  143.5470 F   0  0  0  0  0  0  0  0  0  0  0  0
  190.9100  173.3870  140.1020 N   0  0  0  0  0  1  0  0  0  0  0  0
  190.4000  175.3640  147.6340 C   0  0  0  0  0  2  0  0  0  0  0  0
  188.9050  174.4110  141.1420 C   0  0  2  0  0  3  0  0  0  0  0  0
  192.8560  176.6900  144.3150 C   0  0  0  0  0  2  0  0  0  0  0  0
  189.3400  177.4910  141.6150 F   0  0  0  0  0  0  0  0  0  0  0  0
  188.7130  177.7150  142.8300 C   0  0  0  0  0  0  0  0  0  0  0  0
  186.4990  177.2530  141.9080 C   0  0  0  0  0  0  0  0  0  0  0  0
  188.6100  176.4090  143.6390 C   0  0  1  0  0  3  0  0  0  0  0  0
  194.4180  174.9650  142.2880 C   0  0  0  0  0  1  0  0  0  0  0  0
  189.7820  174.2730  143.3950 C   0  0  1  0  0  3  0  0  0  0  0  0
  186.8060  175.8710  142.0910 N   0  0  0  0  0  2  0  0  0  0  0  0
  187.3220  178.2810  142.5950 C   0  0  0  0  0  2  0  0  0  0  0  0
  192.9170  175.1760  142.2230 C   0  0  1  0  0  3  0  0  0  0  0  0
  190.5510  175.9750  145.1940 C   0  0  2  0  0  3  0  0  0  0  0  0
  190.4320  174.2890  141.1410 C   0  0  1  0  0  3  0  0  0  0  0  0
  185.5530  177.5970  141.1550 O   0  0  0  0  0  0  0  0  0  0  0  0
  192.1940  173.9920  142.8790 C   0  0  0  0  0  2  0  0  0  0  0  0
  189.8220  175.1270  146.2460 C   0  0  0  0  0  2  0  0  0  0  0  0
  192.6180  175.9210  146.6510 C   0  0  0  0  0  2  0  0  0  0  0  0
  191.8830  175.0210  147.6360 C   0  0  0  0  0  2  0  0  0  0  0  0
  192.5370  176.5320  142.8230 C   0  0  0  0  0  2  0  0  0  0  0  0
  188.4840  174.2730  142.6120 C   0  0  1  0  0  3  0  0  0  0  0  0
  190.7970  173.7790  142.4570 N   0  0  1  0  0  0  0  0  0  0  0  0
  187.6750  175.3970  143.1040 N   0  0  1  0  0  0  0  0  0  0  0  0
  188.2980  173.3940  140.3990 O   0  0  0  0  0  1  0  0  0  0  0  0
  189.9660  175.7430  143.7930 C   0  0  2  0  0  3  0  0  0  0  0  0
  1  6  1  6  0  0  0
  1 21  1  0  0  0  0
  3 17  1  0  0  0  0
  4 22  1  0  0  0  0
  5 27  1  6  0  0  0
  5 24  1  0  0  0  0
  7  8  1  0  0  0  0
  8  2  1  0  0  0  0
  9 13  1  0  0  0  0
  9 14  1  0  0  0  0
 10  8  1  6  0  0  0
 10 28  1  0  0  0  0
 12 28  1  0  0  0  0
 13 26  1  0  0  0  0
 14  8  1  0  0  0  0
 15 11  1  0  0  0  0
 15 23  1  0  0  0  0
 15 19  1  0  0  0  0
 16  1  1  0  0  0  0
 16 20  1  0  0  0  0
 17  5  1  0  0  0  0
 17 25  1  0  0  0  0
 18  9  2  0  0  0  0
 20  4  1  0  0  0  0
 21 22  1  0  0  0  0
 23  6  1  0  0  0  0
 24 26  1  0  0  0  0
 24 12  1  0  0  0  0
 25 19  1  0  0  0  0
 25 12  1  0  0  0  0
 26 10  1  0  0  0  0
 28 16  1  0  0  0  0
M  END
>  <MODEL>
4

>  <REMARK>
 VINA RESULT:      -7.3      3.321      6.173
  Name = 
  0 active torsions:
  status: ('A' for Active; 'I' for Inactive)
                            x       y       z     vdW  Elec       q    Type
                         _______ _______ _______ _____ _____    ______ ____

>  <TORSDO>
F 0

$$$$
=
 OpenBabel11112417363D

 28 32  0  0  1  0  0  0  0  0999 V2000
  193.2260  175.9740  145.6360 C   0  0  2  0  0  3  0  0  0  0  0  0
  191.1690  172.4120  144.5240 F   0  0  0  0  0  0  0  0  0  0  0  0
  187.7270  177.6720  145.9640 N   0  0  0  0  0  1  0  0  0  0  0  0
  194.8190  176.0350  143.1510 C   0  0  0  0  0  2  0  0  0  0  0  0
  188.1450  176.2240  143.9950 C   0  0  2  0  0  3  0  0  0  0  0  0
  192.7790  175.2080  146.8870 C   0  0  0  0  0  2  0  0  0  0  0  0
  189.1750  173.3890  144.8880 F   0  0  0  0  0  0  0  0  0  0  0  0
  190.1180  173.0770  143.9210 C   0  0  0  0  0  0  0  0  0  0  0  0
  188.4320  172.9050  142.1630 C   0  0  0  0  0  0  0  0  0  0  0  0
  190.6460  174.3540  143.2430 C   0  0  1  0  0  3  0  0  0  0  0  0
  191.1910  177.1660  148.6690 C   0  0  0  0  0  1  0  0  0  0  0  0
  190.5180  176.7030  143.9220 C   0  0  1  0  0  3  0  0  0  0  0  0
  188.5100  174.3280  142.0690 N   0  0  0  0  0  2  0  0  0  0  0  0
  189.5000  172.1610  142.8770 C   0  0  0  0  0  2  0  0  0  0  0  0
  190.6430  176.5730  147.3840 C   0  0  1  0  0  3  0  0  0  0  0  0
  192.6960  175.3540  144.3240 C   0  0  2  0  0  3  0  0  0  0  0  0
  188.6540  176.7340  145.3460 C   0  0  1  0  0  3  0  0  0  0  0  0
  187.4550  172.2910  141.6630 O   0  0  0  0  0  0  0  0  0  0  0  0
  190.8330  177.5660  146.2290 C   0  0  0  0  0  2  0  0  0  0  0  0
  193.2980  176.0410  143.0910 C   0  0  0  0  0  2  0  0  0  0  0  0
  194.7540  176.0140  145.6390 C   0  0  0  0  0  2  0  0  0  0  0  0
  195.2850  176.7470  144.4130 C   0  0  0  0  0  2  0  0  0  0  0  0
  191.2620  175.1990  147.1170 C   0  0  0  0  0  2  0  0  0  0  0  0
  189.3430  176.3280  143.0400 C   0  0  1  0  0  3  0  0  0  0  0  0
  189.9280  177.3900  145.0770 N   0  0  1  0  0  0  0  0  0  0  0  0
  189.6810  175.0620  142.3740 N   0  0  1  0  0  0  0  0  0  0  0  0
  187.1010  177.0100  143.4980 O   0  0  0  0  0  1  0  0  0  0  0  0
  191.1610  175.3530  144.2640 C   0  0  2  0  0  3  0  0  0  0  0  0
  1 21  1  6  0  0  0
  1  6  1  0  0  0  0
  4 22  1  0  0  0  0
  5 27  1  6  0  0  0
  5 17  1  0  0  0  0
  6 23  1  0  0  0  0
  8  2  1  0  0  0  0
  8  7  1  0  0  0  0
  9 14  1  0  0  0  0
 10  8  1  1  0  0  0
 10 28  1  0  0  0  0
 12 28  1  0  0  0  0
 12 25  1  0  0  0  0
 13  9  1  0  0  0  0
 13 26  1  0  0  0  0
 14  8  1  0  0  0  0
 15 11  1  0  0  0  0
 16  1  1  0  0  0  0
 17  3  1  0  0  0  0
 18  9  2  0  0  0  0
 19 15  1  0  0  0  0
 20  4  1  0  0  0  0
 20 16  1  0  0  0  0
 22 21  1  0  0  0  0
 23 15  1  0  0  0  0
 24 12  1  0  0  0  0
 24  5  1  0  0  0  0
 25 17  1  0  0  0  0
 25 19  1  0  0  0  0
 26 24  1  0  0  0  0
 26 10  1  0  0  0  0
 28 16  1  0  0  0  0
M  END
>  <MODEL>
5

>  <REMARK>
 VINA RESULT:      -7.2      2.909      5.394
  Name = 
  0 active torsions:
  status: ('A' for Active; 'I' for Inactive)
                            x       y       z     vdW  Elec       q    Type
                         _______ _______ _______ _____ _____    ______ ____

>  <TORSDO>
F 0

$$$$
=
 OpenBabel11112417363D

 28 32  0  0  1  0  0  0  0  0999 V2000
  191.6250  175.1840  144.9150 C   0  0  2  0  0  3  0  0  0  0  0  0
  189.0970  174.1510  141.6440 F   0  0  0  0  0  0  0  0  0  0  0  0
  186.6860  177.7450  146.4260 N   0  0  0  0  0  1  0  0  0  0  0  0
  193.6570  176.4310  143.1740 C   0  0  0  0  0  2  0  0  0  0  0  0
  187.1600  177.9780  144.0040 C   0  0  2  0  0  3  0  0  0  0  0  0
  190.7780  173.9550  145.2670 C   0  0  0  0  0  2  0  0  0  0  0  0
  187.3360  175.1580  142.6210 F   0  0  0  0  0  0  0  0  0  0  0  0
  188.3610  175.3200  141.7020 C   0  0  0  0  0  0  0  0  0  0  0  0
  187.0660  176.8970  140.3600 C   0  0  0  0  0  0  0  0  0  0  0  0
  189.2830  176.4810  142.1140 C   0  0  1  0  0  3  0  0  0  0  0  0
  189.3380  174.5410  147.9340 C   0  0  0  0  0  1  0  0  0  0  0  0
  189.5450  177.6420  144.2550 C   0  0  1  0  0  3  0  0  0  0  0  0
  187.4750  177.8950  141.2950 N   0  0  0  0  0  2  0  0  0  0  0  0
  187.7780  175.5940  140.3250 C   0  0  0  0  0  2  0  0  0  0  0  0
  188.9410  175.1750  146.6140 C   0  0  1  0  0  3  0  0  0  0  0  0
  191.2440  175.8120  143.5550 C   0  0  2  0  0  3  0  0  0  0  0  0
  187.4870  177.2550  145.3130 C   0  0  1  0  0  3  0  0  0  0  0  0
  186.0990  177.1130  139.5860 O   0  0  0  0  0  0  0  0  0  0  0  0
  189.5730  176.5680  146.4930 C   0  0  0  0  0  2  0  0  0  0  0  0
  192.2190  176.9300  143.1580 C   0  0  0  0  0  2  0  0  0  0  0  0
  193.0910  174.7530  144.9220 C   0  0  0  0  0  2  0  0  0  0  0  0
  194.0050  175.9180  144.5640 C   0  0  0  0  0  2  0  0  0  0  0  0
  189.2820  174.2450  145.4460 C   0  0  0  0  0  2  0  0  0  0  0  0
  188.5180  178.3360  143.3820 C   0  0  1  0  0  3  0  0  0  0  0  0
  188.9020  177.4980  145.5670 N   0  0  1  0  0  0  0  0  0  0  0  0
  188.6930  177.8340  142.0130 N   0  0  1  0  0  0  0  0  0  0  0  0
  186.4370  179.1540  144.2220 O   0  0  0  0  0  1  0  0  0  0  0  0
  189.7920  176.3100  143.5350 C   0  0  2  0  0  3  0  0  0  0  0  0
  1 21  1  6  0  0  0
  1  6  1  0  0  0  0
  2  8  1  0  0  0  0
  4 22  1  0  0  0  0
  5 27  1  1  0  0  0
  5 17  1  0  0  0  0
  6 23  1  0  0  0  0
  8  7  1  0  0  0  0
  9 13  1  0  0  0  0
 10  8  1  1  0  0  0
 10 28  1  0  0  0  0
 12 25  1  0  0  0  0
 13 26  1  0  0  0  0
 14  9  1  0  0  0  0
 14  8  1  0  0  0  0
 15 11  1  0  0  0  0
 16  1  1  0  0  0  0
 17 25  1  0  0  0  0
 17  3  1  0  0  0  0
 18  9  2  0  0  0  0
 19 15  1  0  0  0  0
 20  4  1  0  0  0  0
 20 16  1  0  0  0  0
 22 21  1  0  0  0  0
 23 15  1  0  0  0  0
 24  5  1  0  0  0  0
 24 12  1  0  0  0  0
 25 19  1  0  0  0  0
 26 10  1  0  0  0  0
 26 24  1  0  0  0  0
 28 16  1  0  0  0  0
 28 12  1  0  0  0  0
M  END
>  <MODEL>
6

>  <REMARK>
 VINA RESULT:      -7.2      3.213      5.533
  Name = 
  0 active torsions:
  status: ('A' for Active; 'I' for Inactive)
                            x       y       z     vdW  Elec       q    Type
                         _______ _______ _______ _____ _____    ______ ____

>  <TORSDO>
F 0

$$$$
=
 OpenBabel11112417363D

 28 32  0  0  1  0  0  0  0  0999 V2000
  192.0350  175.1120  145.8340 C   0  0  2  0  0  3  0  0  0  0  0  0
  190.0950  176.0000  142.1460 F   0  0  0  0  0  0  0  0  0  0  0  0
  193.7430  170.6970  142.5430 N   0  0  0  0  0  1  0  0  0  0  0  0
  189.5110  175.1390  147.3660 C   0  0  0  0  0  2  0  0  0  0  0  0
  191.3590  171.2710  142.1770 C   0  0  2  0  0  3  0  0  0  0  0  0
  193.0010  175.8350  144.8880 C   0  0  0  0  0  2  0  0  0  0  0  0
  191.0650  174.2300  141.1500 F   0  0  0  0  0  0  0  0  0  0  0  0
  189.9210  174.6750  141.7930 C   0  0  0  0  0  0  0  0  0  0  0  0
  188.4830  173.1460  140.5440 C   0  0  0  0  0  0  0  0  0  0  0  0
  189.6480  173.8430  143.0580 C   0  0  1  0  0  3  0  0  0  0  0  0
  195.5610  174.1230  144.6720 C   0  0  0  0  0  1  0  0  0  0  0  0
  191.0990  172.3400  144.3350 C   0  0  1  0  0  3  0  0  0  0  0  0
  188.8690  172.1490  141.4890 N   0  0  0  0  0  2  0  0  0  0  0  0
  188.7320  174.5780  140.8510 C   0  0  0  0  0  2  0  0  0  0  0  0
  194.2480  173.7510  144.0070 C   0  0  1  0  0  3  0  0  0  0  0  0
  190.6850  174.7600  145.1690 C   0  0  2  0  0  3  0  0  0  0  0  0
  192.7100  171.7020  142.7540 C   0  0  1  0  0  3  0  0  0  0  0  0
  187.9550  172.8130  139.4520 O   0  0  0  0  0  0  0  0  0  0  0  0
  193.4870  172.7450  144.8810 C   0  0  0  0  0  2  0  0  0  0  0  0
  189.6850  174.1930  146.1860 C   0  0  0  0  0  2  0  0  0  0  0  0
  191.8220  176.0080  147.0530 C   0  0  0  0  0  2  0  0  0  0  0  0
  190.8560  175.3670  148.0420 C   0  0  0  0  0  2  0  0  0  0  0  0
  193.4390  175.0070  143.6730 C   0  0  0  0  0  2  0  0  0  0  0  0
  190.3280  171.5800  143.2740 C   0  0  1  0  0  3  0  0  0  0  0  0
  192.4940  171.9100  144.1810 N   0  0  1  0  0  0  0  0  0  0  0  0
  189.2280  172.4440  142.8260 N   0  0  1  0  0  0  0  0  0  0  0  0
  191.3230  169.9030  141.8940 O   0  0  0  0  0  1  0  0  0  0  0  0
  190.8590  173.8110  143.9740 C   0  0  2  0  0  3  0  0  0  0  0  0
  1  6  1  6  0  0  0
  1 21  1  0  0  0  0
  3 17  1  0  0  0  0
  4 22  1  0  0  0  0
  5 27  1  1  0  0  0
  5 17  1  0  0  0  0
  5 24  1  0  0  0  0
  7  8  1  0  0  0  0
  8  2  1  0  0  0  0
  9 14  1  0  0  0  0
  9 13  1  0  0  0  0
 10  8  1  6  0  0  0
 10 28  1  0  0  0  0
 13 26  1  0  0  0  0
 14  8  1  0  0  0  0
 15 11  1  0  0  0  0
 15 19  1  0  0  0  0
 16  1  1  0  0  0  0
 16 20  1  0  0  0  0
 17 25  1  0  0  0  0
 18  9  2  0  0  0  0
 20  4  1  0  0  0  0
 21 22  1  0  0  0  0
 23 15  1  0  0  0  0
 23  6  1  0  0  0  0
 24 12  1  0  0  0  0
 25 12  1  0  0  0  0
 25 19  1  0  0  0  0
 26 10  1  0  0  0  0
 26 24  1  0  0  0  0
 28 12  1  0  0  0  0
 28 16  1  0  0  0  0
M  END
>  <MODEL>
7

>  <REMARK>
 VINA RESULT:      -7.0      3.633      6.289
  Name = 
  0 active torsions:
  status: ('A' for Active; 'I' for Inactive)
                            x       y       z     vdW  Elec       q    Type
                         _______ _______ _______ _____ _____    ______ ____

>  <TORSDO>
F 0

$$$$
=
 OpenBabel11112417363D

 28 32  0  0  1  0  0  0  0  0999 V2000
  188.2200  175.4430  141.7760 C   0  0  2  0  0  3  0  0  0  0  0  0
  191.4920  177.0580  143.9760 F   0  0  0  0  0  0  0  0  0  0  0  0
  185.4850  178.5550  145.7850 N   0  0  0  0  0  1  0  0  0  0  0  0
  189.1020  172.6540  142.1800 C   0  0  0  0  0  2  0  0  0  0  0  0
  187.4420  177.3460  146.7100 C   0  0  2  0  0  3  0  0  0  0  0  0
  188.5400  176.8600  141.2850 C   0  0  0  0  0  2  0  0  0  0  0  0
  190.0950  178.2480  145.2800 F   0  0  0  0  0  0  0  0  0  0  0  0
  190.8170  177.0690  145.1830 C   0  0  0  0  0  0  0  0  0  0  0  0
  191.1130  176.9120  147.6020 C   0  0  0  0  0  0  0  0  0  0  0  0
  189.8820  175.8490  145.2520 C   0  0  1  0  0  3  0  0  0  0  0  0
  185.9270  178.4990  141.3830 C   0  0  0  0  0  1  0  0  0  0  0  0
  187.4560  175.6670  144.9650 C   0  0  1  0  0  3  0  0  0  0  0  0
  189.8040  176.3440  147.6380 N   0  0  0  0  0  2  0  0  0  0  0  0
  191.8370  176.9970  146.3080 C   0  0  0  0  0  2  0  0  0  0  0  0
  186.7140  178.1090  142.6190 C   0  0  1  0  0  3  0  0  0  0  0  0
  189.0450  175.0310  143.0160 C   0  0  2  0  0  3  0  0  0  0  0  0
  186.7080  177.8350  145.4580 C   0  0  1  0  0  3  0  0  0  0  0  0
  191.6390  177.3560  148.6540 O   0  0  0  0  0  0  0  0  0  0  0  0
  186.1060  176.8480  143.2490 C   0  0  0  0  0  2  0  0  0  0  0  0
  188.8240  173.5540  143.3750 C   0  0  0  0  0  2  0  0  0  0  0  0
  188.4710  174.4830  140.6140 C   0  0  0  0  0  2  0  0  0  0  0  0
  188.1910  173.0420  141.0240 C   0  0  0  0  0  2  0  0  0  0  0  0
  188.2020  177.9700  142.2890 C   0  0  0  0  0  2  0  0  0  0  0  0
  187.8160  175.8850  146.4220 C   0  0  1  0  0  3  0  0  0  0  0  0
  186.3970  176.6420  144.6800 N   0  0  1  0  0  0  0  0  0  0  0  0
  189.2510  175.6010  146.5670 N   0  0  1  0  0  0  0  0  0  0  0  0
  186.6270  177.3890  147.8450 O   0  0  0  0  0  1  0  0  0  0  0  0
  188.7700  175.9410  144.2220 C   0  0  2  0  0  3  0  0  0  0  0  0
  1 21  1  6  0  0  0
  1 16  1  0  0  0  0
  2  8  1  0  0  0  0
  4 20  1  0  0  0  0
  5 27  1  1  0  0  0
  6  1  1  0  0  0  0
  6 23  1  0  0  0  0
  8  7  1  0  0  0  0
  8 14  1  0  0  0  0
  9 13  1  0  0  0  0
  9 18  2  0  0  0  0
 10  8  1  1  0  0  0
 10 26  1  0  0  0  0
 11 15  1  0  0  0  0
 12 24  1  0  0  0  0
 14  9  1  0  0  0  0
 15 19  1  0  0  0  0
 16 20  1  0  0  0  0
 16 28  1  0  0  0  0
 17  3  1  0  0  0  0
 17  5  1  0  0  0  0
 19 25  1  0  0  0  0
 21 22  1  0  0  0  0
 22  4  1  0  0  0  0
 23 15  1  0  0  0  0
 24 26  1  0  0  0  0
 24  5  1  0  0  0  0
 25 12  1  0  0  0  0
 25 17  1  0  0  0  0
 26 13  1  0  0  0  0
 28 12  1  0  0  0  0
 28 10  1  0  0  0  0
M  END
>  <MODEL>
8

>  <REMARK>
 VINA RESULT:      -6.8      2.116      2.930
  Name = 
  0 active torsions:
  status: ('A' for Active; 'I' for Inactive)
                            x       y       z     vdW  Elec       q    Type
                         _______ _______ _______ _____ _____    ______ ____

>  <TORSDO>
F 0

$$$$
=
 OpenBabel11112417363D

 28 32  0  0  1  0  0  0  0  0999 V2000
  190.8470  175.4510  145.5040 C   0  0  2  0  0  3  0  0  0  0  0  0
  193.4070  172.0800  145.9900 F   0  0  0  0  0  0  0  0  0  0  0  0
  193.7930  175.5200  140.5480 N   0  0  0  0  0  1  0  0  0  0  0  0
  191.7840  176.7380  147.9900 C   0  0  0  0  0  2  0  0  0  0  0  0
  195.2360  174.9710  142.4890 C   0  0  2  0  0  3  0  0  0  0  0  0
  190.2430  174.2230  144.8110 C   0  0  0  0  0  2  0  0  0  0  0  0
  194.2420  172.3500  143.9170 F   0  0  0  0  0  0  0  0  0  0  0  0
  194.4460  172.6260  145.2600 C   0  0  0  0  0  0  0  0  0  0  0  0
  196.8750  172.6440  145.0080 C   0  0  0  0  0  0  0  0  0  0  0  0
  194.4950  174.1450  145.5030 C   0  0  1  0  0  3  0  0  0  0  0  0
  189.6090  175.0080  141.8940 C   0  0  0  0  0  1  0  0  0  0  0  0
  193.7670  176.0190  144.1050 C   0  0  1  0  0  3  0  0  0  0  0  0
  196.7310  173.9870  144.5470 N   0  0  0  0  0  2  0  0  0  0  0  0
  195.7480  171.9920  145.7230 C   0  0  0  0  0  2  0  0  0  0  0  0
  191.0170  174.7670  142.4070 C   0  0  1  0  0  3  0  0  0  0  0  0
  192.2680  175.1980  146.0550 C   0  0  2  0  0  3  0  0  0  0  0  0
  193.8110  175.1060  141.9440 C   0  0  1  0  0  3  0  0  0  0  0  0
  197.9410  172.0120  144.7930 O   0  0  0  0  0  0  0  0  0  0  0  0
  191.6780  176.1040  142.7650 C   0  0  0  0  0  2  0  0  0  0  0  0
  192.7710  176.3870  146.8860 C   0  0  0  0  0  2  0  0  0  0  0  0
  189.8950  175.8650  146.6250 C   0  0  0  0  0  2  0  0  0  0  0  0
  190.4310  177.0750  147.3790 C   0  0  0  0  0  2  0  0  0  0  0  0
  191.0050  173.7620  143.5610 C   0  0  0  0  0  2  0  0  0  0  0  0
  195.2230  175.6840  143.8500 C   0  0  1  0  0  3  0  0  0  0  0  0
  193.1530  176.1080  142.7750 N   0  0  1  0  0  0  0  0  0  0  0  0
  195.6820  174.8420  144.9630 N   0  0  1  0  0  0  0  0  0  0  0  0
  196.1740  175.5940  141.6600 O   0  0  0  0  0  1  0  0  0  0  0  0
  193.2640  174.8370  144.9440 C   0  0  2  0  0  3  0  0  0  0  0  0
  1  6  1  1  0  0  0
  1 16  1  0  0  0  0
  1 21  1  0  0  0  0
  3 17  1  0  0  0  0
  5 27  1  6  0  0  0
  5 24  1  0  0  0  0
  7  8  1  0  0  0  0
  8 14  1  0  0  0  0
  8  2  1  0  0  0  0
  9 14  1  0  0  0  0
 10  8  1  6  0  0  0
 11 15  1  0  0  0  0
 12 28  1  0  0  0  0
 13 26  1  0  0  0  0
 13  9  1  0  0  0  0
 15 19  1  0  0  0  0
 15 23  1  0  0  0  0
 16 20  1  0  0  0  0
 17  5  1  0  0  0  0
 17 25  1  0  0  0  0
 18  9  2  0  0  0  0
 19 25  1  0  0  0  0
 20  4  1  0  0  0  0
 21 22  1  0  0  0  0
 22  4  1  0  0  0  0
 23  6  1  0  0  0  0
 24 12  1  0  0  0  0
 24 26  1  0  0  0  0
 25 12  1  0  0  0  0
 26 10  1  0  0  0  0
 28 10  1  0  0  0  0
 28 16  1  0  0  0  0
M  END
>  <MODEL>
9

>  <REMARK>
 VINA RESULT:      -6.7      3.346      5.290
  Name = 
  0 active torsions:
  status: ('A' for Active; 'I' for Inactive)
                            x       y       z     vdW  Elec       q    Type
                         _______ _______ _______ _____ _____    ______ ____

>  <TORSDO>
F 0

$$$$
