=
 OpenBabel11112416143D

 30 35  0  0  1  0  0  0  0  0999 V2000
  186.9940  177.0790  143.9780 C   0  0  1  0  0  3  0  0  0  0  0  0
  185.0520  178.1600  145.2470 C   0  0  0  0  0  0  0  0  0  0  0  0
  189.4360  177.2400  147.5660 C   0  0  0  0  0  2  0  0  0  0  0  0
  188.2980  176.2810  144.1920 C   0  0  1  0  0  3  0  0  0  0  0  0
  186.1190  176.3310  143.1680 O   0  0  0  0  0  0  0  0  0  0  0  0
  188.5210  175.5370  140.6300 O   0  0  0  0  0  0  0  0  0  0  0  0
  191.3270  176.5450  143.0770 C   0  0  1  0  0  3  0  0  0  0  0  0
  188.0670  175.9340  141.7380 C   0  0  0  0  0  0  0  0  0  0  0  0
  191.6220  176.8150  144.5300 C   0  0  2  0  0  3  0  0  0  0  0  0
  190.6650  176.7960  146.8590 C   0  0  0  0  0  0  0  0  0  0  0  0
  186.6160  176.3460  141.8370 C   0  0  2  0  0  3  0  0  0  0  0  0
  188.9240  176.0230  142.8920 N   0  0  0  0  0  0  0  0  0  0  0  0
  184.5100  178.7010  146.4160 C   0  0  0  0  0  3  0  0  0  0  0  0
  192.7700  175.8770  144.8110 C   0  0  0  0  0  2  0  0  0  0  0  0
  192.6660  176.0700  142.5540 C   0  0  0  0  0  2  0  0  0  0  0  0
  184.3090  178.2150  144.0740 O   0  0  0  0  0  1  0  0  0  0  0  0
  188.4190  176.9350  146.4910 C   0  0  2  0  0  3  0  0  0  0  0  0
  185.2380  178.6890  147.6060 C   0  0  0  0  0  3  0  0  0  0  0  0
  186.3370  177.5800  145.2640 C   0  0  0  0  0  0  0  0  0  0  0  0
  189.1480  177.0860  145.1700 C   0  0  1  0  0  3  0  0  0  0  0  0
  191.7710  176.6590  147.4450 O   0  0  0  0  0  0  0  0  0  0  0  0
  190.4960  176.6040  145.4500 N   0  0  0  0  0  0  0  0  0  0  0  0
  193.5060  175.7030  143.6260 O   0  0  0  0  0  0  0  0  0  0  0  0
  190.4100  174.3420  143.6070 O   0  0  0  0  0  1  0  0  0  0  0  0
  186.5220  178.1430  147.6350 C   0  0  0  0  0  3  0  0  0  0  0  0
  187.0870  177.6200  146.4680 C   0  0  0  0  0  0  0  0  0  0  0  0
  190.2710  175.4740  142.7960 C   0  0  2  0  0  3  0  0  0  0  0  0
  186.3750  177.6610  141.1590 C   0  0  0  0  0  3  0  0  0  0  0  0
  184.0590  178.2820  140.3180 O   0  0  0  0  0  0  0  0  0  0  0  0
  185.1860  177.9800  140.7270 C   0  0  0  0  0  0  0  0  0  0  0  0
  1  5  1  1  0  0  0
  1  4  1  0  0  0  0
  1 19  1  0  0  0  0
  2 19  2  0  0  0  0
  2 13  1  0  0  0  0
  4 12  1  6  0  0  0
  4 20  1  0  0  0  0
  6  8  2  0  0  0  0
  7 15  1  6  0  0  0
  7  9  1  0  0  0  0
  8 11  1  0  0  0  0
  8 12  1  0  0  0  0
  9 14  1  1  0  0  0
  9 22  1  0  0  0  0
 10 21  2  0  0  0  0
 10  3  1  0  0  0  0
 11 28  1  1  0  0  0
 11  5  1  0  0  0  0
 13 18  2  0  0  0  0
 15 23  1  0  0  0  0
 16  2  1  0  0  0  0
 17  3  1  1  0  0  0
 18 25  1  0  0  0  0
 19 26  1  0  0  0  0
 20 22  1  1  0  0  0
 20 17  1  0  0  0  0
 22 10  1  0  0  0  0
 23 14  1  0  0  0  0
 26 17  1  0  0  0  0
 26 25  2  0  0  0  0
 27 12  1  0  0  0  0
 27  7  1  0  0  0  0
 27 24  1  1  0  0  0
 29 30  2  0  0  0  0
 30 28  2  0  0  0  0
M  END
>  <MODEL>
1

>  <REMARK>
 VINA RESULT:      -9.2      0.000      0.000
  Name = 
  1 active torsions:
  status: ('A' for Active; 'I' for Inactive)
    1  A    between atoms: C_11  and  C_28
                            x       y       z     vdW  Elec       q    Type
                         _______ _______ _______ _____ _____    ______ ____

>  <TORSDO>
F 1

$$$$
=
 OpenBabel11112416143D

 30 35  0  0  1  0  0  0  0  0999 V2000
  189.2080  175.7610  143.7770 C   0  0  1  0  0  3  0  0  0  0  0  0
  191.0310  174.7090  145.2320 C   0  0  0  0  0  0  0  0  0  0  0  0
  187.7340  177.9720  147.2130 C   0  0  0  0  0  2  0  0  0  0  0  0
  188.2540  176.9730  143.7020 C   0  0  1  0  0  3  0  0  0  0  0  0
  190.0340  175.7480  142.6370 O   0  0  0  0  0  0  0  0  0  0  0  0
  187.4020  176.1880  140.2450 O   0  0  0  0  0  0  0  0  0  0  0  0
  185.0910  177.3370  143.1120 C   0  0  1  0  0  3  0  0  0  0  0  0
  187.9820  176.1590  141.3650 C   0  0  0  0  0  0  0  0  0  0  0  0
  185.0870  177.8200  144.5400 C   0  0  2  0  0  3  0  0  0  0  0  0
  186.5370  178.4760  146.4910 C   0  0  0  0  0  0  0  0  0  0  0  0
  189.2500  175.3510  141.5210 C   0  0  2  0  0  3  0  0  0  0  0  0
  187.4310  176.8640  142.4940 N   0  0  0  0  0  0  0  0  0  0  0  0
  191.6690  174.5550  146.4670 C   0  0  0  0  0  3  0  0  0  0  0  0
  184.3330  179.1230  144.4420 C   0  0  0  0  0  2  0  0  0  0  0  0
  183.8440  177.9820  142.5450 C   0  0  0  0  0  2  0  0  0  0  0  0
  191.4330  173.9160  144.1650 O   0  0  0  0  0  1  0  0  0  0  0  0
  188.5110  177.4260  146.0380 C   0  0  2  0  0  3  0  0  0  0  0  0
  191.2750  175.3160  147.5680 C   0  0  0  0  0  3  0  0  0  0  0  0
  189.9910  175.6500  145.0850 C   0  0  0  0  0  0  0  0  0  0  0  0
  187.4760  177.0010  145.0140 C   0  0  1  0  0  3  0  0  0  0  0  0
  185.6800  179.2200  147.0350 O   0  0  0  0  0  0  0  0  0  0  0  0
  186.4130  177.9900  145.1480 N   0  0  0  0  0  0  0  0  0  0  0  0
  183.4120  179.0300  143.3840 O   0  0  0  0  0  0  0  0  0  0  0  0
  186.6640  179.0900  142.4570 O   0  0  0  0  0  1  0  0  0  0  0  0
  190.2290  176.2310  147.4470 C   0  0  0  0  0  3  0  0  0  0  0  0
  189.5650  176.3790  146.2250 C   0  0  0  0  0  0  0  0  0  0  0  0
  186.2980  177.7530  142.2680 C   0  0  2  0  0  3  0  0  0  0  0  0
  188.9620  173.8810  141.5260 C   0  0  0  0  0  3  0  0  0  0  0  0
  188.0930  172.7220  139.4370 O   0  0  0  0  0  0  0  0  0  0  0  0
  188.5160  173.2850  140.4540 C   0  0  0  0  0  0  0  0  0  0  0  0
  1  5  1  6  0  0  0
  1 19  1  0  0  0  0
  2 13  1  0  0  0  0
  4 12  1  6  0  0  0
  4  1  1  0  0  0  0
  4 20  1  0  0  0  0
  6  8  2  0  0  0  0
  7 15  1  6  0  0  0
  7  9  1  0  0  0  0
  8 11  1  0  0  0  0
  8 12  1  0  0  0  0
  9 14  1  6  0  0  0
  9 22  1  0  0  0  0
 10 21  2  0  0  0  0
 10  3  1  0  0  0  0
 11 28  1  1  0  0  0
 11  5  1  0  0  0  0
 13 18  2  0  0  0  0
 15 23  1  0  0  0  0
 16  2  1  0  0  0  0
 17 26  1  0  0  0  0
 17  3  1  1  0  0  0
 19  2  2  0  0  0  0
 19 26  1  0  0  0  0
 20 22  1  6  0  0  0
 20 17  1  0  0  0  0
 22 10  1  0  0  0  0
 23 14  1  0  0  0  0
 25 18  1  0  0  0  0
 26 25  2  0  0  0  0
 27 24  1  1  0  0  0
 27 12  1  0  0  0  0
 27  7  1  0  0  0  0
 29 30  2  0  0  0  0
 30 28  2  0  0  0  0
M  END
>  <MODEL>
2

>  <REMARK>
 VINA RESULT:      -8.5      2.044      5.545
  Name = 
  1 active torsions:
  status: ('A' for Active; 'I' for Inactive)
    1  A    between atoms: C_11  and  C_28
                            x       y       z     vdW  Elec       q    Type
                         _______ _______ _______ _____ _____    ______ ____

>  <TORSDO>
F 1

$$$$
=
 OpenBabel11112416143D

 30 35  0  0  1  0  0  0  0  0999 V2000
  187.4580  176.7810  143.9390 C   0  0  1  0  0  3  0  0  0  0  0  0
  185.5900  178.2470  142.9850 C   0  0  0  0  0  0  0  0  0  0  0  0
  188.1310  175.0690  140.0050 C   0  0  0  0  0  2  0  0  0  0  0  0
  188.7160  175.9860  143.5280 C   0  0  1  0  0  3  0  0  0  0  0  0
  187.8150  177.7590  144.8870 O   0  0  0  0  0  0  0  0  0  0  0  0
  189.6890  175.5690  147.0160 O   0  0  0  0  0  0  0  0  0  0  0  0
  189.8130  173.0010  144.1400 C   0  0  1  0  0  3  0  0  0  0  0  0
  189.0750  175.9720  145.9910 C   0  0  0  0  0  0  0  0  0  0  0  0
  189.6090  172.8410  142.6560 C   0  0  2  0  0  3  0  0  0  0  0  0
  189.0900  174.0530  140.5100 C   0  0  0  0  0  0  0  0  0  0  0  0
  188.0860  177.1090  146.1210 C   0  0  2  0  0  3  0  0  0  0  0  0
  189.2870  175.3420  144.7140 N   0  0  0  0  0  0  0  0  0  0  0  0
  184.8050  178.6780  141.9110 C   0  0  0  0  0  3  0  0  0  0  0  0
  190.9250  172.2550  142.2060 C   0  0  0  0  0  2  0  0  0  0  0  0
  190.8360  171.9280  144.4480 C   0  0  0  0  0  2  0  0  0  0  0  0
  185.2970  178.7120  144.2600 O   0  0  0  0  0  1  0  0  0  0  0  0
  188.0420  175.9460  141.2310 C   0  0  2  0  0  3  0  0  0  0  0  0
  185.0540  178.2110  140.6200 C   0  0  0  0  0  3  0  0  0  0  0  0
  186.6540  177.3480  142.7690 C   0  0  0  0  0  0  0  0  0  0  0  0
  188.2880  175.0320  142.4170 C   0  0  1  0  0  3  0  0  0  0  0  0
  189.6450  173.2100  139.7570 O   0  0  0  0  0  0  0  0  0  0  0  0
  189.2750  174.0740  141.9310 N   0  0  0  0  0  0  0  0  0  0  0  0
  191.4600  171.4940  143.2600 O   0  0  0  0  0  0  0  0  0  0  0  0
  191.3930  174.8330  143.7890 O   0  0  0  0  0  1  0  0  0  0  0  0
  186.0850  177.2990  140.3920 C   0  0  0  0  0  3  0  0  0  0  0  0
  186.8630  176.8410  141.4600 C   0  0  0  0  0  0  0  0  0  0  0  0
  190.3560  174.3570  144.5990 C   0  0  2  0  0  3  0  0  0  0  0  0
  186.8330  176.6650  146.8130 C   0  0  0  0  0  3  0  0  0  0  0  0
  185.2030  178.3680  147.7630 O   0  0  0  0  0  0  0  0  0  0  0  0
  185.9960  177.5390  147.3010 C   0  0  0  0  0  0  0  0  0  0  0  0
  1 19  1  6  0  0  0
  1  5  1  0  0  0  0
  2 16  1  0  0  0  0
  3 10  1  0  0  0  0
  4  1  1  0  0  0  0
  4 12  1  1  0  0  0
  5 11  1  0  0  0  0
  7 15  1  6  0  0  0
  7 27  1  0  0  0  0
  8 11  1  0  0  0  0
  8  6  2  0  0  0  0
  9 14  1  6  0  0  0
  9  7  1  0  0  0  0
 10 22  1  0  0  0  0
 11 28  1  6  0  0  0
 12  8  1  0  0  0  0
 13  2  2  0  0  0  0
 14 23  1  0  0  0  0
 17  3  1  6  0  0  0
 17 26  1  0  0  0  0
 17 20  1  0  0  0  0
 18 13  1  0  0  0  0
 19  2  1  0  0  0  0
 20 22  1  6  0  0  0
 20  4  1  0  0  0  0
 21 10  2  0  0  0  0
 22  9  1  0  0  0  0
 23 15  1  0  0  0  0
 25 18  2  0  0  0  0
 25 26  1  0  0  0  0
 26 19  2  0  0  0  0
 27 24  1  6  0  0  0
 27 12  1  0  0  0  0
 28 30  2  0  0  0  0
 30 29  2  0  0  0  0
M  END
>  <MODEL>
3

>  <REMARK>
 VINA RESULT:      -8.1      2.065      5.021
  Name = 
  1 active torsions:
  status: ('A' for Active; 'I' for Inactive)
    1  A    between atoms: C_11  and  C_28
                            x       y       z     vdW  Elec       q    Type
                         _______ _______ _______ _____ _____    ______ ____

>  <TORSDO>
F 1

$$$$
=
 OpenBabel11112416143D

 30 35  0  0  1  0  0  0  0  0999 V2000
  187.8390  175.9070  143.1020 C   0  0  1  0  0  3  0  0  0  0  0  0
  185.9530  177.6320  142.9780 C   0  0  0  0  0  0  0  0  0  0  0  0
  189.1500  177.6020  146.8800 C   0  0  0  0  0  2  0  0  0  0  0  0
  188.7930  175.2100  144.0970 C   0  0  1  0  0  3  0  0  0  0  0  0
  187.0660  174.9340  142.4400 O   0  0  0  0  0  0  0  0  0  0  0  0
  189.8040  172.7970  141.5580 O   0  0  0  0  0  0  0  0  0  0  0  0
  191.9790  174.6350  144.1600 C   0  0  1  0  0  3  0  0  0  0  0  0
  189.1730  173.7230  142.1360 C   0  0  0  0  0  0  0  0  0  0  0  0
  191.9160  175.5580  145.3490 C   0  0  2  0  0  3  0  0  0  0  0  0
  190.3770  176.7660  146.9340 C   0  0  0  0  0  0  0  0  0  0  0  0
  187.9010  174.2520  141.5140 C   0  0  2  0  0  3  0  0  0  0  0  0
  189.6710  174.2950  143.3610 N   0  0  0  0  0  0  0  0  0  0  0  0
  185.2590  178.7210  143.5140 C   0  0  0  0  0  3  0  0  0  0  0  0
  192.6710  174.7850  146.4030 C   0  0  0  0  0  2  0  0  0  0  0  0
  193.2490  173.8530  144.4180 C   0  0  0  0  0  2  0  0  0  0  0  0
  185.6020  177.1660  141.7180 O   0  0  0  0  0  1  0  0  0  0  0  0
  188.4280  176.8960  145.7560 C   0  0  2  0  0  3  0  0  0  0  0  0
  185.6010  179.2330  144.7660 C   0  0  0  0  0  3  0  0  0  0  0  0
  186.9960  177.0280  143.7090 C   0  0  0  0  0  0  0  0  0  0  0  0
  189.5090  176.3160  144.8640 C   0  0  1  0  0  3  0  0  0  0  0  0
  191.2070  176.8410  147.8780 O   0  0  0  0  0  0  0  0  0  0  0  0
  190.5640  175.9210  145.7920 N   0  0  0  0  0  0  0  0  0  0  0  0
  193.6410  173.9900  145.7660 O   0  0  0  0  0  0  0  0  0  0  0  0
  190.4350  173.0630  145.2170 O   0  0  0  0  0  1  0  0  0  0  0  0
  186.6490  178.6660  145.4910 C   0  0  0  0  0  3  0  0  0  0  0  0
  187.3690  177.5910  144.9570 C   0  0  0  0  0  0  0  0  0  0  0  0
  190.8110  173.6580  144.0080 C   0  0  2  0  0  3  0  0  0  0  0  0
  188.1920  175.0790  140.2990 C   0  0  0  0  0  3  0  0  0  0  0  0
  188.1910  174.0290  137.9850 O   0  0  0  0  0  0  0  0  0  0  0  0
  188.1910  174.5410  139.1110 C   0  0  0  0  0  0  0  0  0  0  0  0
  1  5  1  1  0  0  0
  1 19  1  0  0  0  0
  1  4  1  0  0  0  0
  2 13  2  0  0  0  0
  2 19  1  0  0  0  0
  3 10  1  0  0  0  0
  4 12  1  6  0  0  0
  4 20  1  0  0  0  0
  6  8  2  0  0  0  0
  7 15  1  1  0  0  0
  7  9  1  0  0  0  0
  8 12  1  0  0  0  0
  9 22  1  0  0  0  0
  9 14  1  1  0  0  0
 10 21  2  0  0  0  0
 11 28  1  6  0  0  0
 11  8  1  0  0  0  0
 11  5  1  0  0  0  0
 12 27  1  0  0  0  0
 13 18  1  0  0  0  0
 15 23  1  0  0  0  0
 16  2  1  0  0  0  0
 17  3  1  1  0  0  0
 18 25  2  0  0  0  0
 19 26  2  0  0  0  0
 20 17  1  0  0  0  0
 20 22  1  1  0  0  0
 22 10  1  0  0  0  0
 23 14  1  0  0  0  0
 26 25  1  0  0  0  0
 26 17  1  0  0  0  0
 27  7  1  0  0  0  0
 27 24  1  1  0  0  0
 29 30  2  0  0  0  0
 30 28  2  0  0  0  0
M  END
>  <MODEL>
4

>  <REMARK>
 VINA RESULT:      -8.0      1.787      2.524
  Name = 
  1 active torsions:
  status: ('A' for Active; 'I' for Inactive)
    1  A    between atoms: C_11  and  C_28
                            x       y       z     vdW  Elec       q    Type
                         _______ _______ _______ _____ _____    ______ ____

>  <TORSDO>
F 1

$$$$
=
 OpenBabel11112416143D

 30 35  0  0  1  0  0  0  0  0999 V2000
  188.4710  175.0590  142.9570 C   0  0  1  0  0  3  0  0  0  0  0  0
  186.6780  176.8620  143.2390 C   0  0  0  0  0  0  0  0  0  0  0  0
  190.2120  176.1850  146.7740 C   0  0  0  0  0  2  0  0  0  0  0  0
  189.4730  174.1980  143.7570 C   0  0  1  0  0  3  0  0  0  0  0  0
  187.5900  174.2150  142.2550 O   0  0  0  0  0  0  0  0  0  0  0  0
  190.1160  172.0990  140.8470 O   0  0  0  0  0  0  0  0  0  0  0  0
  192.6160  173.4860  143.4350 C   0  0  1  0  0  3  0  0  0  0  0  0
  189.5920  172.9670  141.5960 C   0  0  0  0  0  0  0  0  0  0  0  0
  192.7120  174.2460  144.7330 C   0  0  2  0  0  3  0  0  0  0  0  0
  191.3920  175.2990  146.6010 C   0  0  0  0  0  0  0  0  0  0  0  0
  188.2980  173.6260  141.1730 C   0  0  2  0  0  3  0  0  0  0  0  0
  190.2290  173.3510  142.8290 N   0  0  0  0  0  0  0  0  0  0  0  0
  186.0960  177.9000  143.9730 C   0  0  0  0  0  3  0  0  0  0  0  0
  193.5170  173.3100  145.6010 C   0  0  0  0  0  2  0  0  0  0  0  0
  193.8600  172.6250  143.4670 C   0  0  0  0  0  2  0  0  0  0  0  0
  186.1890  176.5810  141.9690 O   0  0  0  0  0  1  0  0  0  0  0  0
  189.3540  175.6640  145.6450 C   0  0  2  0  0  3  0  0  0  0  0  0
  186.5790  178.2270  145.2410 C   0  0  0  0  0  3  0  0  0  0  0  0
  187.7500  176.1250  143.7820 C   0  0  0  0  0  0  0  0  0  0  0  0
  190.3160  175.1620  144.5860 C   0  0  1  0  0  3  0  0  0  0  0  0
  192.3080  175.2140  147.4610 O   0  0  0  0  0  0  0  0  0  0  0  0
  191.4270  174.6050  145.3480 N   0  0  0  0  0  0  0  0  0  0  0  0
  194.3800  172.5660  144.7770 O   0  0  0  0  0  0  0  0  0  0  0  0
  191.0920  171.8550  144.4300 O   0  0  0  0  0  1  0  0  0  0  0  0
  187.6570  177.5260  145.7820 C   0  0  0  0  0  3  0  0  0  0  0  0
  188.2650  176.5020  145.0490 C   0  0  0  0  0  0  0  0  0  0  0  0
  191.3880  172.5870  143.2760 C   0  0  2  0  0  3  0  0  0  0  0  0
  188.5210  174.5930  140.0510 C   0  0  0  0  0  3  0  0  0  0  0  0
  188.1100  173.8990  137.6410 O   0  0  0  0  0  0  0  0  0  0  0  0
  188.3100  174.2370  138.8140 C   0  0  0  0  0  0  0  0  0  0  0  0
  1  5  1  1  0  0  0
  1  4  1  0  0  0  0
  1 19  1  0  0  0  0
  2 19  2  0  0  0  0
  2 13  1  0  0  0  0
  4 12  1  6  0  0  0
  4 20  1  0  0  0  0
  6  8  2  0  0  0  0
  7 15  1  1  0  0  0
  7  9  1  0  0  0  0
  8 12  1  0  0  0  0
  9 22  1  0  0  0  0
  9 14  1  1  0  0  0
 10  3  1  0  0  0  0
 10 21  2  0  0  0  0
 11 28  1  6  0  0  0
 11  8  1  0  0  0  0
 11  5  1  0  0  0  0
 12 27  1  0  0  0  0
 13 18  2  0  0  0  0
 15 23  1  0  0  0  0
 16  2  1  0  0  0  0
 17  3  1  1  0  0  0
 18 25  1  0  0  0  0
 19 26  1  0  0  0  0
 20 22  1  1  0  0  0
 20 17  1  0  0  0  0
 22 10  1  0  0  0  0
 23 14  1  0  0  0  0
 26 17  1  0  0  0  0
 26 25  2  0  0  0  0
 27  7  1  0  0  0  0
 27 24  1  1  0  0  0
 29 30  2  0  0  0  0
 30 28  2  0  0  0  0
M  END
>  <MODEL>
5

>  <REMARK>
 VINA RESULT:      -7.6      2.291      3.130
  Name = 
  1 active torsions:
  status: ('A' for Active; 'I' for Inactive)
    1  A    between atoms: C_11  and  C_28
                            x       y       z     vdW  Elec       q    Type
                         _______ _______ _______ _____ _____    ______ ____

>  <TORSDO>
F 1

$$$$
=
 OpenBabel11112416143D

 30 35  0  0  1  0  0  0  0  0999 V2000
  189.3140  176.6340  145.1720 C   0  0  1  0  0  3  0  0  0  0  0  0
  187.1520  177.7270  145.9960 C   0  0  0  0  0  0  0  0  0  0  0  0
  187.4170  175.7320  141.3710 C   0  0  0  0  0  2  0  0  0  0  0  0
  190.0670  176.2370  143.8840 C   0  0  1  0  0  3  0  0  0  0  0  0
  190.1120  177.5200  145.9220 O   0  0  0  0  0  0  0  0  0  0  0  0
  193.1100  175.5620  145.7760 O   0  0  0  0  0  0  0  0  0  0  0  0
  191.5650  173.5510  142.8690 C   0  0  1  0  0  3  0  0  0  0  0  0
  191.9430  175.9500  145.4960 C   0  0  0  0  0  0  0  0  0  0  0  0
  190.4590  173.5650  141.8460 C   0  0  2  0  0  3  0  0  0  0  0  0
  188.5610  174.9160  140.8890 C   0  0  0  0  0  0  0  0  0  0  0  0
  191.1780  176.7810  146.5020 C   0  0  2  0  0  3  0  0  0  0  0  0
  191.3290  175.5840  144.2460 N   0  0  0  0  0  0  0  0  0  0  0  0
  185.8230  178.1070  145.7910 C   0  0  0  0  0  3  0  0  0  0  0  0
  191.2110  173.3880  140.5490 C   0  0  0  0  0  2  0  0  0  0  0  0
  192.6340  172.7250  142.1860 C   0  0  0  0  0  2  0  0  0  0  0  0
  187.7190  177.9160  147.2500 O   0  0  0  0  0  1  0  0  0  0  0  0
  188.0690  176.3710  142.5740 C   0  0  2  0  0  3  0  0  0  0  0  0
  185.2120  177.9090  144.5520 C   0  0  0  0  0  3  0  0  0  0  0  0
  187.8960  177.1550  144.9430 C   0  0  0  0  0  0  0  0  0  0  0  0
  189.1090  175.3810  143.0620 C   0  0  1  0  0  3  0  0  0  0  0  0
  188.5660  174.3530  139.7630 O   0  0  0  0  0  0  0  0  0  0  0  0
  189.6230  174.7730  141.8400 N   0  0  0  0  0  0  0  0  0  0  0  0
  192.3700  172.6330  140.8030 O   0  0  0  0  0  0  0  0  0  0  0  0
  192.3600  175.7420  142.1340 O   0  0  0  0  0  1  0  0  0  0  0  0
  185.9240  177.3180  143.5080 C   0  0  0  0  0  3  0  0  0  0  0  0
  187.2480  176.9110  143.7050 C   0  0  0  0  0  0  0  0  0  0  0  0
  192.1490  174.9150  143.2430 C   0  0  2  0  0  3  0  0  0  0  0  0
  190.7260  175.9510  147.6630 C   0  0  0  0  0  3  0  0  0  0  0  0
  188.9410  174.1660  147.3640 O   0  0  0  0  0  0  0  0  0  0  0  0
  189.8100  175.0340  147.5100 C   0  0  0  0  0  0  0  0  0  0  0  0
  1 19  1  6  0  0  0
  1  5  1  0  0  0  0
  2 16  1  0  0  0  0
  4 12  1  1  0  0  0
  4  1  1  0  0  0  0
  5 11  1  0  0  0  0
  7 15  1  6  0  0  0
  7 27  1  0  0  0  0
  8  6  2  0  0  0  0
  8 11  1  0  0  0  0
  9 14  1  6  0  0  0
  9  7  1  0  0  0  0
 10  3  1  0  0  0  0
 10 22  1  0  0  0  0
 11 28  1  1  0  0  0
 12  8  1  0  0  0  0
 13  2  1  0  0  0  0
 14 23  1  0  0  0  0
 17  3  1  6  0  0  0
 17 20  1  0  0  0  0
 17 26  1  0  0  0  0
 18 13  2  0  0  0  0
 19  2  2  0  0  0  0
 20 22  1  6  0  0  0
 20  4  1  0  0  0  0
 21 10  2  0  0  0  0
 22  9  1  0  0  0  0
 23 15  1  0  0  0  0
 25 26  2  0  0  0  0
 25 18  1  0  0  0  0
 26 19  1  0  0  0  0
 27 24  1  6  0  0  0
 27 12  1  0  0  0  0
 29 30  2  0  0  0  0
 30 28  2  0  0  0  0
M  END
>  <MODEL>
6

>  <REMARK>
 VINA RESULT:      -7.4      2.227      5.038
  Name = 
  1 active torsions:
  status: ('A' for Active; 'I' for Inactive)
    1  A    between atoms: C_11  and  C_28
                            x       y       z     vdW  Elec       q    Type
                         _______ _______ _______ _____ _____    ______ ____

>  <TORSDO>
F 1

$$$$
=
 OpenBabel11112416143D

 30 35  0  0  1  0  0  0  0  0999 V2000
  189.8570  176.1920  144.9560 C   0  0  1  0  0  3  0  0  0  0  0  0
  187.7940  177.4080  145.8580 C   0  0  0  0  0  0  0  0  0  0  0  0
  187.4550  174.4640  141.7760 C   0  0  0  0  0  2  0  0  0  0  0  0
  190.4260  175.5360  143.6790 C   0  0  1  0  0  3  0  0  0  0  0  0
  190.7160  177.2300  145.3670 O   0  0  0  0  0  0  0  0  0  0  0  0
  193.7460  175.3270  145.1700 O   0  0  0  0  0  0  0  0  0  0  0  0
  191.8790  172.7150  143.0330 C   0  0  1  0  0  3  0  0  0  0  0  0
  192.5340  175.6300  145.0010 C   0  0  0  0  0  0  0  0  0  0  0  0
  190.6330  172.4930  142.2160 C   0  0  2  0  0  3  0  0  0  0  0  0
  188.5510  173.5790  141.3050 C   0  0  0  0  0  0  0  0  0  0  0  0
  191.8910  176.6480  145.9150 C   0  0  2  0  0  3  0  0  0  0  0  0
  191.7570  174.9940  143.9680 N   0  0  0  0  0  0  0  0  0  0  0  0
  186.4320  177.7170  145.7880 C   0  0  0  0  0  3  0  0  0  0  0  0
  191.1890  172.0500  140.8850 C   0  0  0  0  0  2  0  0  0  0  0  0
  192.8710  171.7750  142.3810 C   0  0  0  0  0  2  0  0  0  0  0  0
  188.5330  177.8710  146.9400 O   0  0  0  0  0  1  0  0  0  0  0  0
  188.2490  175.3580  142.7000 C   0  0  2  0  0  3  0  0  0  0  0  0
  185.6530  177.2470  144.7310 C   0  0  0  0  0  3  0  0  0  0  0  0
  188.3970  176.6320  144.8470 C   0  0  0  0  0  0  0  0  0  0  0  0
  189.3960  174.5100  143.2170 C   0  0  1  0  0  3  0  0  0  0  0  0
  188.4140  172.7860  140.3370 O   0  0  0  0  0  0  0  0  0  0  0  0
  189.7500  173.6590  142.0870 N   0  0  0  0  0  0  0  0  0  0  0  0
  192.4070  171.3830  141.1080 O   0  0  0  0  0  0  0  0  0  0  0  0
  192.4510  174.7070  141.7360 O   0  0  0  0  0  1  0  0  0  0  0  0
  186.2270  176.4540  143.7370 C   0  0  0  0  0  3  0  0  0  0  0  0
  187.5830  176.1170  143.8060 C   0  0  0  0  0  0  0  0  0  0  0  0
  192.4480  174.1360  143.0140 C   0  0  2  0  0  3  0  0  0  0  0  0
  191.6570  176.0820  147.2830 C   0  0  0  0  0  3  0  0  0  0  0  0
  191.5280  177.6060  149.3120 O   0  0  0  0  0  0  0  0  0  0  0  0
  191.5910  176.8640  148.3250 C   0  0  0  0  0  0  0  0  0  0  0  0
  1 19  1  6  0  0  0
  1  5  1  0  0  0  0
  2 16  1  0  0  0  0
  4 12  1  1  0  0  0
  4  1  1  0  0  0  0
  5 11  1  0  0  0  0
  7 15  1  6  0  0  0
  8  6  2  0  0  0  0
  8 11  1  0  0  0  0
  9 14  1  6  0  0  0
  9  7  1  0  0  0  0
 10  3  1  0  0  0  0
 10 22  1  0  0  0  0
 11 28  1  1  0  0  0
 12  8  1  0  0  0  0
 13  2  1  0  0  0  0
 14 23  1  0  0  0  0
 17  3  1  1  0  0  0
 17 20  1  0  0  0  0
 17 26  1  0  0  0  0
 18 13  2  0  0  0  0
 19  2  2  0  0  0  0
 20 22  1  6  0  0  0
 20  4  1  0  0  0  0
 21 10  2  0  0  0  0
 22  9  1  0  0  0  0
 23 15  1  0  0  0  0
 25 26  2  0  0  0  0
 25 18  1  0  0  0  0
 26 19  1  0  0  0  0
 27 24  1  6  0  0  0
 27  7  1  0  0  0  0
 27 12  1  0  0  0  0
 28 30  2  0  0  0  0
 30 29  2  0  0  0  0
M  END
>  <MODEL>
7

>  <REMARK>
 VINA RESULT:      -7.3      2.555      5.510
  Name = 
  1 active torsions:
  status: ('A' for Active; 'I' for Inactive)
    1  A    between atoms: C_11  and  C_28
                            x       y       z     vdW  Elec       q    Type
                         _______ _______ _______ _____ _____    ______ ____

>  <TORSDO>
F 1

$$$$
=
 OpenBabel11112416143D

 30 35  0  0  1  0  0  0  0  0999 V2000
  190.6430  174.7920  143.8590 C   0  0  1  0  0  3  0  0  0  0  0  0
  192.9900  173.7820  143.9840 C   0  0  0  0  0  0  0  0  0  0  0  0
  191.4400  177.1030  147.4490 C   0  0  0  0  0  2  0  0  0  0  0  0
  189.8080  176.0030  144.3310 C   0  0  1  0  0  3  0  0  0  0  0  0
  190.6390  174.7450  142.4520 O   0  0  0  0  0  0  0  0  0  0  0  0
  187.0960  175.1190  142.0610 O   0  0  0  0  0  0  0  0  0  0  0  0
  186.8990  176.3520  145.7100 C   0  0  1  0  0  3  0  0  0  0  0  0
  188.2250  175.1220  142.6230 C   0  0  0  0  0  0  0  0  0  0  0  0
  187.7300  176.8760  146.8530 C   0  0  2  0  0  3  0  0  0  0  0  0
  190.0400  177.5880  147.5580 C   0  0  0  0  0  0  0  0  0  0  0  0
  189.3540  174.3170  142.0210 C   0  0  2  0  0  3  0  0  0  0  0  0
  188.4330  175.8590  143.8430 N   0  0  0  0  0  0  0  0  0  0  0  0
  194.2360  173.6630  144.6080 C   0  0  0  0  0  3  0  0  0  0  0  0
  187.0420  178.1770  147.1880 C   0  0  0  0  0  2  0  0  0  0  0  0
  185.5480  176.9820  145.9710 C   0  0  0  0  0  2  0  0  0  0  0  0
  192.6990  172.9580  142.9040 O   0  0  0  0  0  1  0  0  0  0  0  0
  191.3850  176.5230  146.0550 C   0  0  2  0  0  3  0  0  0  0  0  0
  194.5530  174.4550  145.7120 C   0  0  0  0  0  3  0  0  0  0  0  0
  192.0480  174.7180  144.4550 C   0  0  0  0  0  0  0  0  0  0  0  0
  189.9520  176.0690  145.8480 C   0  0  1  0  0  3  0  0  0  0  0  0
  189.6560  178.3480  148.4850 O   0  0  0  0  0  0  0  0  0  0  0  0
  189.1560  177.0630  146.5590 N   0  0  0  0  0  0  0  0  0  0  0  0
  185.6760  178.0540  146.8790 O   0  0  0  0  0  0  0  0  0  0  0  0
  187.7550  178.0840  144.2120 O   0  0  0  0  0  1  0  0  0  0  0  0
  193.6220  175.3680  146.2090 C   0  0  0  0  0  3  0  0  0  0  0  0
  192.3640  175.4800  145.6100 C   0  0  0  0  0  0  0  0  0  0  0  0
  187.3700  176.7420  144.3070 C   0  0  2  0  0  3  0  0  0  0  0  0
  189.1490  172.8480  142.2310 C   0  0  0  0  0  3  0  0  0  0  0  0
  190.2260  171.1520  140.6740 O   0  0  0  0  0  0  0  0  0  0  0  0
  189.7020  171.9770  141.4320 C   0  0  0  0  0  0  0  0  0  0  0  0
  1  5  1  6  0  0  0
  1  4  1  0  0  0  0
  1 19  1  0  0  0  0
  2 19  2  0  0  0  0
  2 13  1  0  0  0  0
  3 10  1  0  0  0  0
  4 12  1  1  0  0  0
  4 20  1  0  0  0  0
  6  8  2  0  0  0  0
  7 15  1  1  0  0  0
  7  9  1  0  0  0  0
  8 12  1  0  0  0  0
  9 14  1  6  0  0  0
 10 21  2  0  0  0  0
 11 28  1  1  0  0  0
 11  5  1  0  0  0  0
 11  8  1  0  0  0  0
 12 27  1  0  0  0  0
 13 18  2  0  0  0  0
 15 23  1  0  0  0  0
 16  2  1  0  0  0  0
 17  3  1  1  0  0  0
 18 25  1  0  0  0  0
 19 26  1  0  0  0  0
 20 17  1  0  0  0  0
 20 22  1  6  0  0  0
 22  9  1  0  0  0  0
 22 10  1  0  0  0  0
 23 14  1  0  0  0  0
 26 17  1  0  0  0  0
 26 25  2  0  0  0  0
 27 24  1  1  0  0  0
 27  7  1  0  0  0  0
 29 30  2  0  0  0  0
 30 28  2  0  0  0  0
M  END
>  <MODEL>
8

>  <REMARK>
 VINA RESULT:      -7.3      2.112      6.011
  Name = 
  1 active torsions:
  status: ('A' for Active; 'I' for Inactive)
    1  A    between atoms: C_11  and  C_28
                            x       y       z     vdW  Elec       q    Type
                         _______ _______ _______ _____ _____    ______ ____

>  <TORSDO>
F 1

$$$$
=
 OpenBabel11112416143D

 30 35  0  0  1  0  0  0  0  0999 V2000
  188.6720  175.1390  141.6680 C   0  0  1  0  0  3  0  0  0  0  0  0
  187.0950  176.4450  140.1340 C   0  0  0  0  0  0  0  0  0  0  0  0
  187.7400  177.8420  144.9380 C   0  0  0  0  0  2  0  0  0  0  0  0
  188.9710  174.8570  143.1570 C   0  0  1  0  0  3  0  0  0  0  0  0
  188.3920  173.9250  141.0130 O   0  0  0  0  0  0  0  0  0  0  0  0
  191.2330  172.1390  142.2700 O   0  0  0  0  0  0  0  0  0  0  0  0
  191.6540  174.8600  144.9710 C   0  0  1  0  0  3  0  0  0  0  0  0
  190.3690  173.0520  142.1640 C   0  0  0  0  0  0  0  0  0  0  0  0
  190.9480  176.0040  145.6520 C   0  0  2  0  0  3  0  0  0  0  0  0
  188.7730  177.2600  145.8340 C   0  0  0  0  0  0  0  0  0  0  0  0
  189.6070  173.2030  140.8670 C   0  0  2  0  0  3  0  0  0  0  0  0
  190.1280  173.9610  143.2540 N   0  0  0  0  0  0  0  0  0  0  0  0
  186.1960  177.4930  139.9160 C   0  0  0  0  0  3  0  0  0  0  0  0
  191.0490  175.6290  147.1100 C   0  0  0  0  0  2  0  0  0  0  0  0
  192.6140  174.3840  146.0400 C   0  0  0  0  0  2  0  0  0  0  0  0
  187.4770  175.6530  139.0580 O   0  0  0  0  0  1  0  0  0  0  0  0
  187.7410  176.7870  143.8560 C   0  0  2  0  0  3  0  0  0  0  0  0
  185.8100  178.3260  140.9680 C   0  0  0  0  0  3  0  0  0  0  0  0
  187.6080  176.2090  141.4260 C   0  0  0  0  0  0  0  0  0  0  0  0
  189.1450  176.2130  143.8330 C   0  0  1  0  0  3  0  0  0  0  0  0
  188.9750  177.6860  147.0010 O   0  0  0  0  0  0  0  0  0  0  0  0
  189.5570  176.2230  145.2320 N   0  0  0  0  0  0  0  0  0  0  0  0
  192.2280  174.8870  147.3010 O   0  0  0  0  0  0  0  0  0  0  0  0
  189.8240  173.3300  145.5030 O   0  0  0  0  0  1  0  0  0  0  0  0
  186.3290  178.1230  142.2470 C   0  0  0  0  0  3  0  0  0  0  0  0
  187.2480  177.0940  142.4750 C   0  0  0  0  0  0  0  0  0  0  0  0
  190.7680  173.6900  144.5360 C   0  0  2  0  0  3  0  0  0  0  0  0
  190.4760  173.7700  139.7870 C   0  0  0  0  0  3  0  0  0  0  0  0
  189.9890  173.2830  137.3410 O   0  0  0  0  0  0  0  0  0  0  0  0
  190.2270  173.5200  138.5310 C   0  0  0  0  0  0  0  0  0  0  0  0
  1  5  1  1  0  0  0
  1  4  1  0  0  0  0
  2 19  1  0  0  0  0
  3 10  1  0  0  0  0
  4 12  1  6  0  0  0
  4 20  1  0  0  0  0
  7  9  1  0  0  0  0
  7 15  1  1  0  0  0
  8  6  2  0  0  0  0
  8 12  1  0  0  0  0
  9 14  1  1  0  0  0
 10 21  2  0  0  0  0
 11 28  1  6  0  0  0
 11  5  1  0  0  0  0
 11  8  1  0  0  0  0
 12 27  1  0  0  0  0
 13  2  2  0  0  0  0
 13 18  1  0  0  0  0
 14 23  1  0  0  0  0
 15 23  1  0  0  0  0
 16  2  1  0  0  0  0
 17  3  1  1  0  0  0
 18 25  2  0  0  0  0
 19  1  1  0  0  0  0
 19 26  2  0  0  0  0
 20 17  1  0  0  0  0
 20 22  1  1  0  0  0
 22  9  1  0  0  0  0
 22 10  1  0  0  0  0
 25 26  1  0  0  0  0
 26 17  1  0  0  0  0
 27  7  1  0  0  0  0
 27 24  1  1  0  0  0
 29 30  2  0  0  0  0
 30 28  2  0  0  0  0
M  END
>  <MODEL>
9

>  <REMARK>
 VINA RESULT:      -7.2      2.450      4.356
  Name = 
  1 active torsions:
  status: ('A' for Active; 'I' for Inactive)
    1  A    between atoms: C_11  and  C_28
                            x       y       z     vdW  Elec       q    Type
                         _______ _______ _______ _____ _____    ______ ____

>  <TORSDO>
F 1

$$$$
