=
 OpenBabel11112417533D

 34 41  0  0  1  0  0  0  0  0999 V2000
  189.4740  175.0200  141.9630 C   0  0  1  0  0  3  0  0  0  0  0  0
  187.1850  175.5580  142.5460 C   0  0  0  0  0  2  0  0  0  0  0  0
  195.9850  174.6520  142.9150 C   0  0  2  0  0  3  0  0  0  0  0  0
  191.8630  174.4240  141.5360 C   0  0  0  0  0  0  0  0  0  0  0  0
  193.6030  174.7940  143.2760 C   0  0  1  0  0  3  0  0  0  0  0  0
  195.6200  175.4770  144.8350 C   0  0  0  0  0  2  0  0  0  0  0  0
  196.8400  174.8730  144.1400 C   0  0  0  0  0  2  0  0  0  0  0  0
  195.1790  175.2560  140.6230 C   0  0  0  0  0  2  0  0  0  0  0  0
  188.9040  176.3000  143.8090 C   0  0  2  0  0  3  0  0  0  0  0  0
  188.7550  176.3030  146.9120 C   0  0  0  0  0  2  0  0  0  0  0  0
  192.4950  175.3070  144.2220 C   0  0  0  0  0  2  0  0  0  0  0  0
  194.2050  174.2850  140.9510 O   0  0  0  0  0  0  0  0  0  0  0  0
  190.2360  176.0260  144.5270 C   0  0  1  0  0  3  0  0  0  0  0  0
  186.5400  176.3510  143.6780 C   0  0  0  0  0  2  0  0  0  0  0  0
  193.2510  174.9330  141.7710 C   0  0  1  0  0  3  0  0  0  0  0  0
  196.4110  175.1920  141.5600 C   0  0  0  0  0  2  0  0  0  0  0  0
  187.5360  176.1230  145.9840 C   0  0  2  0  0  3  0  0  0  0  0  0
  190.8340  174.6870  142.6080 C   0  0  1  0  0  3  0  0  0  0  0  0
  194.9110  175.5290  143.4950 C   0  0  1  0  0  3  0  0  0  0  0  0
  191.2830  175.7620  143.5190 N   0  0  2  0  0  0  0  0  0  0  0  0
  190.0820  173.4000  140.2090 C   0  0  0  0  0  3  0  0  0  0  0  0
  189.6210  177.5120  146.5490 C   0  0  0  0  0  2  0  0  0  0  0  0
  191.4990  173.7830  140.4150 C   0  0  0  0  0  3  0  0  0  0  0  0
  190.6290  177.2070  145.4320 C   0  0  0  0  0  2  0  0  0  0  0  0
  187.6850  176.7700  144.5920 C   0  0  1  0  0  3  0  0  0  0  0  0
  189.1180  173.9410  140.9690 C   0  0  0  0  0  3  0  0  0  0  0  0
  188.4920  175.1440  143.0350 N   0  0  2  0  0  0  0  0  0  0  0  0
  186.2990  176.6740  146.6790 C   0  0  0  0  0  2  0  0  0  0  0  0
  186.5420  178.1010  147.1430 C   0  0  0  0  0  2  0  0  0  0  0  0
  184.8220  179.5440  144.2890 C   0  0  0  0  0  2  0  0  0  0  0  0
  184.2220  178.2550  146.2310 C   0  0  0  0  0  2  0  0  0  0  0  0
  185.4780  179.0270  146.5810 C   0  0  0  0  0  3  0  0  0  0  0  0
  183.6360  178.9790  145.0440 C   0  0  0  0  0  2  0  0  0  0  0  0
  185.9620  179.6490  145.2860 C   0  0  0  0  0  2  0  0  0  0  0  0
  1 26  1  6  0  0  0
  1 18  1  0  0  0  0
  1 27  1  0  0  0  0
  2 27  1  0  0  0  0
  2 14  1  0  0  0  0
  3 16  1  6  0  0  0
  3 19  1  0  0  0  0
  3  7  1  0  0  0  0
  4 15  1  0  0  0  0
  4 18  1  0  0  0  0
  5 19  1  0  0  0  0
  5 11  1  1  0  0  0
  7  6  1  0  0  0  0
  8 12  1  0  0  0  0
  8 16  1  0  0  0  0
  9 13  1  0  0  0  0
  9 25  1  0  0  0  0
 12 15  1  0  0  0  0
 13 24  1  0  0  0  0
 14 25  1  0  0  0  0
 15  5  1  0  0  0  0
 17 28  1  0  0  0  0
 17 10  1  0  0  0  0
 18 20  1  0  0  0  0
 19  6  1  0  0  0  0
 20 11  1  0  0  0  0
 20 13  1  0  0  0  0
 21 23  1  0  0  0  0
 21 26  2  0  0  0  0
 22 10  1  0  0  0  0
 23  4  2  0  0  0  0
 24 22  1  0  0  0  0
 25 17  1  0  0  0  0
 27  9  1  0  0  0  0
 28 29  1  0  0  0  0
 30 33  1  0  0  0  0
 30 34  1  0  0  0  0
 31 32  1  0  0  0  0
 32 29  1  0  0  0  0
 33 31  1  0  0  0  0
 34 32  1  0  0  0  0
M  END
>  <MODEL>
1

>  <REMARK>
 VINA RESULT:      -8.9      0.000      0.000
  Name = 
  3 active torsions:
  status: ('A' for Active; 'I' for Inactive)
    1  A    between atoms: C_17  and  C_28
    2  A    between atoms: C_28  and  C_29
    3  A    between atoms: C_29  and  C_32
                            x       y       z     vdW  Elec       q    Type
                         _______ _______ _______ _____ _____    ______ ____

>  <TORSDO>
F 3

$$$$
=
 OpenBabel11112417533D

 34 41  0  0  1  0  0  0  0  0999 V2000
  192.1930  175.9230  145.6480 C   0  0  1  0  0  3  0  0  0  0  0  0
  189.9480  176.0210  146.5500 C   0  0  0  0  0  2  0  0  0  0  0  0
  196.7440  175.3510  140.9150 C   0  0  2  0  0  3  0  0  0  0  0  0
  194.4480  175.9080  144.5700 C   0  0  0  0  0  0  0  0  0  0  0  0
  194.6820  175.7690  142.0960 C   0  0  1  0  0  3  0  0  0  0  0  0
  195.1220  175.2300  139.5510 C   0  0  0  0  0  2  0  0  0  0  0  0
  196.6390  175.3590  139.4080 C   0  0  0  0  0  2  0  0  0  0  0  0
  197.2060  174.2400  143.1090 C   0  0  0  0  0  2  0  0  0  0  0  0
  190.3070  175.3930  144.4110 C   0  0  2  0  0  3  0  0  0  0  0  0
  188.4650  176.3590  142.1050 C   0  0  0  0  0  2  0  0  0  0  0  0
  193.1410  175.7820  141.9880 C   0  0  0  0  0  2  0  0  0  0  0  0
  196.6040  175.4270  143.5860 O   0  0  0  0  0  0  0  0  0  0  0  0
  191.0120  175.6200  143.0630 C   0  0  1  0  0  3  0  0  0  0  0  0
  188.5630  175.7430  145.9740 C   0  0  0  0  0  2  0  0  0  0  0  0
  195.2060  175.2470  143.4610 C   0  0  1  0  0  3  0  0  0  0  0  0
  197.6430  174.3560  141.6280 C   0  0  0  0  0  2  0  0  0  0  0  0
  188.1130  176.4710  143.6020 C   0  0  2  0  0  3  0  0  0  0  0  0
  192.9800  176.1780  144.3470 C   0  0  1  0  0  3  0  0  0  0  0  0
  195.3120  174.9060  141.0210 C   0  0  1  0  0  3  0  0  0  0  0  0
  192.4580  175.3670  143.2270 N   0  0  2  0  0  0  0  0  0  0  0  0
  194.1700  176.7920  146.8340 C   0  0  0  0  0  3  0  0  0  0  0  0
  188.9250  174.9590  141.6920 C   0  0  0  0  0  2  0  0  0  0  0  0
  195.0080  176.2350  145.7450 C   0  0  0  0  0  3  0  0  0  0  0  0
  190.4160  174.7180  141.9690 C   0  0  0  0  0  2  0  0  0  0  0  0
  188.7870  175.4160  144.5030 C   0  0  1  0  0  3  0  0  0  0  0  0
  192.8340  176.6960  146.7760 C   0  0  0  0  0  3  0  0  0  0  0  0
  190.8070  176.3140  145.4140 N   0  0  2  0  0  0  0  0  0  0  0  0
  186.6010  176.3960  143.7630 C   0  0  0  0  0  2  0  0  0  0  0  0
  185.9820  177.7760  143.6170 C   0  0  0  0  0  2  0  0  0  0  0  0
  185.5420  177.5470  147.2140 C   0  0  0  0  0  2  0  0  0  0  0  0
  185.8760  179.2970  145.5950 C   0  0  0  0  0  2  0  0  0  0  0  0
  185.2100  178.1440  144.8720 C   0  0  0  0  0  3  0  0  0  0  0  0
  185.5980  179.0530  147.0580 C   0  0  0  0  0  2  0  0  0  0  0  0
  185.2160  176.9800  145.8440 C   0  0  0  0  0  2  0  0  0  0  0  0
  1 26  1  1  0  0  0
  3  7  1  6  0  0  0
  3 19  1  0  0  0  0
  3 16  1  0  0  0  0
  4 23  2  0  0  0  0
  5 11  1  1  0  0  0
  5 15  1  0  0  0  0
  6 19  1  0  0  0  0
  7  6  1  0  0  0  0
  8 12  1  0  0  0  0
  9 25  1  0  0  0  0
  9 27  1  0  0  0  0
 10 17  1  0  0  0  0
 11 20  1  0  0  0  0
 13 20  1  0  0  0  0
 13  9  1  0  0  0  0
 14  2  1  0  0  0  0
 15 12  1  0  0  0  0
 15  4  1  0  0  0  0
 16  8  1  0  0  0  0
 17 28  1  0  0  0  0
 17 25  1  0  0  0  0
 18  4  1  0  0  0  0
 18  1  1  0  0  0  0
 19  5  1  0  0  0  0
 20 18  1  0  0  0  0
 22 24  1  0  0  0  0
 22 10  1  0  0  0  0
 23 21  1  0  0  0  0
 24 13  1  0  0  0  0
 25 14  1  0  0  0  0
 26 21  2  0  0  0  0
 27  1  1  0  0  0  0
 27  2  1  0  0  0  0
 29 28  1  0  0  0  0
 29 32  1  0  0  0  0
 31 33  1  0  0  0  0
 32 31  1  0  0  0  0
 32 34  1  0  0  0  0
 33 30  1  0  0  0  0
 34 30  1  0  0  0  0
M  END
>  <MODEL>
2

>  <REMARK>
 VINA RESULT:      -8.9      1.505      3.923
  Name = 
  3 active torsions:
  status: ('A' for Active; 'I' for Inactive)
    1  A    between atoms: C_17  and  C_28
    2  A    between atoms: C_28  and  C_29
    3  A    between atoms: C_29  and  C_32
                            x       y       z     vdW  Elec       q    Type
                         _______ _______ _______ _____ _____    ______ ____

>  <TORSDO>
F 3

$$$$
=
 OpenBabel11112417533D

 34 41  0  0  1  0  0  0  0  0999 V2000
  190.3720  173.8740  141.5780 C   0  0  1  0  0  3  0  0  0  0  0  0
  188.2670  174.9580  141.0720 C   0  0  0  0  0  2  0  0  0  0  0  0
  196.0930  173.0500  144.7470 C   0  0  2  0  0  3  0  0  0  0  0  0
  192.5190  172.8010  142.2740 C   0  0  0  0  0  0  0  0  0  0  0  0
  193.8370  173.6990  144.1850 C   0  0  1  0  0  3  0  0  0  0  0  0
  195.5440  174.7400  145.9060 C   0  0  0  0  0  2  0  0  0  0  0  0
  196.6650  173.7030  145.9830 C   0  0  0  0  0  2  0  0  0  0  0  0
  196.0520  172.5900  142.2870 C   0  0  0  0  0  2  0  0  0  0  0  0
  189.7830  175.9520  142.4180 C   0  0  2  0  0  3  0  0  0  0  0  0
  188.9230  177.4680  144.9890 C   0  0  0  0  0  2  0  0  0  0  0  0
  192.7360  174.7600  144.3960 C   0  0  0  0  0  2  0  0  0  0  0  0
  194.7900  172.0520  142.6330 O   0  0  0  0  0  0  0  0  0  0  0  0
  190.7740  175.8630  143.5910 C   0  0  1  0  0  3  0  0  0  0  0  0
  187.6330  176.2830  141.4830 C   0  0  0  0  0  2  0  0  0  0  0  0
  193.9010  173.1480  142.7350 C   0  0  1  0  0  3  0  0  0  0  0  0
  196.9590  172.8020  143.5240 C   0  0  0  0  0  2  0  0  0  0  0  0
  187.9560  177.0470  143.8650 C   0  0  2  0  0  3  0  0  0  0  0  0
  191.3900  173.6950  142.7230 C   0  0  1  0  0  3  0  0  0  0  0  0
  195.2130  174.2460  144.5110 C   0  0  1  0  0  3  0  0  0  0  0  0
  191.9050  174.9960  143.2020 N   0  0  2  0  0  0  0  0  0  0  0  0
  190.8780  171.5410  140.9690 C   0  0  0  0  0  3  0  0  0  0  0  0
  190.1610  178.2110  144.4790 C   0  0  0  0  0  2  0  0  0  0  0  0
  192.2560  171.7610  141.4670 C   0  0  0  0  0  3  0  0  0  0  0  0
  191.2690  177.2610  144.0020 C   0  0  0  0  0  2  0  0  0  0  0  0
  188.6040  176.9150  142.4720 C   0  0  1  0  0  3  0  0  0  0  0  0
  189.9620  172.5160  141.0610 C   0  0  0  0  0  3  0  0  0  0  0  0
  189.2470  174.6420  142.0990 N   0  0  2  0  0  0  0  0  0  0  0  0
  186.8040  178.0410  143.8050 C   0  0  0  0  0  2  0  0  0  0  0  0
  185.4910  177.3530  144.1430 C   0  0  0  0  0  2  0  0  0  0  0  0
  186.0320  177.5840  147.7260 C   0  0  0  0  0  2  0  0  0  0  0  0
  185.6180  179.1100  145.9120 C   0  0  0  0  0  2  0  0  0  0  0  0
  185.0110  177.7790  145.5180 C   0  0  0  0  0  3  0  0  0  0  0  0
  185.7720  179.0420  147.4120 C   0  0  0  0  0  2  0  0  0  0  0  0
  185.4760  176.7820  146.5620 C   0  0  0  0  0  2  0  0  0  0  0  0
  1 26  1  1  0  0  0
  1 27  1  0  0  0  0
  1 18  1  0  0  0  0
  2 14  1  0  0  0  0
  2 27  1  0  0  0  0
  3 16  1  6  0  0  0
  3  7  1  0  0  0  0
  4 18  1  0  0  0  0
  4 15  1  0  0  0  0
  5 11  1  6  0  0  0
  5 19  1  0  0  0  0
  6  7  1  0  0  0  0
  8 12  1  0  0  0  0
  8 16  1  0  0  0  0
  9 25  1  0  0  0  0
  9 13  1  0  0  0  0
 12 15  1  0  0  0  0
 13 24  1  0  0  0  0
 14 25  1  0  0  0  0
 15  5  1  0  0  0  0
 17 10  1  0  0  0  0
 18 20  1  0  0  0  0
 19  3  1  0  0  0  0
 19  6  1  0  0  0  0
 20 13  1  0  0  0  0
 20 11  1  0  0  0  0
 21 26  2  0  0  0  0
 21 23  1  0  0  0  0
 22 10  1  0  0  0  0
 23  4  2  0  0  0  0
 24 22  1  0  0  0  0
 25 17  1  0  0  0  0
 27  9  1  0  0  0  0
 28 17  1  0  0  0  0
 28 29  1  0  0  0  0
 29 32  1  0  0  0  0
 31 33  1  0  0  0  0
 32 31  1  0  0  0  0
 32 34  1  0  0  0  0
 33 30  1  0  0  0  0
 34 30  1  0  0  0  0
M  END
>  <MODEL>
3

>  <REMARK>
 VINA RESULT:      -8.9      1.635      2.271
  Name = 
  3 active torsions:
  status: ('A' for Active; 'I' for Inactive)
    1  A    between atoms: C_17  and  C_28
    2  A    between atoms: C_28  and  C_29
    3  A    between atoms: C_29  and  C_32
                            x       y       z     vdW  Elec       q    Type
                         _______ _______ _______ _____ _____    ______ ____

>  <TORSDO>
F 3

$$$$
=
 OpenBabel11112417533D

 34 41  0  0  1  0  0  0  0  0999 V2000
  190.1630  174.3930  141.3330 C   0  0  1  0  0  3  0  0  0  0  0  0
  187.8160  174.6500  141.8740 C   0  0  0  0  0  2  0  0  0  0  0  0
  196.6360  175.4080  142.0420 C   0  0  2  0  0  3  0  0  0  0  0  0
  192.6190  174.1360  140.9510 C   0  0  0  0  0  0  0  0  0  0  0  0
  194.2690  175.2170  142.4690 C   0  0  1  0  0  3  0  0  0  0  0  0
  196.1330  176.6010  143.7240 C   0  0  0  0  0  2  0  0  0  0  0  0
  197.4400  176.0660  143.1390 C   0  0  0  0  0  2  0  0  0  0  0  0
  195.7290  175.2840  139.7130 C   0  0  0  0  0  2  0  0  0  0  0  0
  189.3760  175.9660  142.8420 C   0  0  2  0  0  3  0  0  0  0  0  0
  189.2360  176.7010  145.8560 C   0  0  0  0  0  2  0  0  0  0  0  0
  193.0880  175.7440  143.3140 C   0  0  0  0  0  2  0  0  0  0  0  0
  194.9470  174.2680  140.3080 O   0  0  0  0  0  0  0  0  0  0  0  0
  190.7380  176.1120  143.5430 C   0  0  1  0  0  3  0  0  0  0  0  0
  187.0410  175.5710  142.8120 C   0  0  0  0  0  2  0  0  0  0  0  0
  193.8940  174.9210  140.9920 C   0  0  1  0  0  3  0  0  0  0  0  0
  196.9550  175.6660  140.5800 C   0  0  0  0  0  2  0  0  0  0  0  0
  188.0680  176.0900  145.0570 C   0  0  2  0  0  3  0  0  0  0  0  0
  191.5620  174.4700  141.9750 C   0  0  1  0  0  3  0  0  0  0  0  0
  195.4230  176.1990  142.4440 C   0  0  1  0  0  3  0  0  0  0  0  0
  191.8120  175.7960  142.5790 N   0  0  2  0  0  0  0  0  0  0  0  0
  191.0480  172.5250  139.9920 C   0  0  0  0  0  3  0  0  0  0  0  0
  189.8700  177.9160  145.1750 C   0  0  0  0  0  2  0  0  0  0  0  0
  192.3740  173.1870  140.0350 C   0  0  0  0  0  3  0  0  0  0  0  0
  190.9130  177.5280  144.1180 C   0  0  0  0  0  2  0  0  0  0  0  0
  188.0940  176.3930  143.5440 C   0  0  1  0  0  3  0  0  0  0  0  0
  190.0050  173.0590  140.6440 C   0  0  0  0  0  3  0  0  0  0  0  0
  189.1770  174.6020  142.3870 N   0  0  2  0  0  0  0  0  0  0  0  0
  186.7530  176.5710  145.6550 C   0  0  0  0  0  2  0  0  0  0  0  0
  186.9840  177.7870  146.5360 C   0  0  0  0  0  2  0  0  0  0  0  0
  184.5990  179.3130  144.2630 C   0  0  0  0  0  2  0  0  0  0  0  0
  184.5440  178.3100  146.4500 C   0  0  0  0  0  2  0  0  0  0  0  0
  185.9430  178.8540  146.2460 C   0  0  0  0  0  3  0  0  0  0  0  0
  183.6890  179.0410  145.4430 C   0  0  0  0  0  2  0  0  0  0  0  0
  186.0220  179.2740  144.7910 C   0  0  0  0  0  2  0  0  0  0  0  0
  1 26  1  1  0  0  0
  1 18  1  0  0  0  0
  1 27  1  0  0  0  0
  2 27  1  0  0  0  0
  2 14  1  0  0  0  0
  3 16  1  6  0  0  0
  3 19  1  0  0  0  0
  3  7  1  0  0  0  0
  4 15  1  0  0  0  0
  4 18  1  0  0  0  0
  5 11  1  1  0  0  0
  7  6  1  0  0  0  0
  8 12  1  0  0  0  0
  8 16  1  0  0  0  0
  9 13  1  0  0  0  0
  9 25  1  0  0  0  0
 12 15  1  0  0  0  0
 13 24  1  0  0  0  0
 14 25  1  0  0  0  0
 15  5  1  0  0  0  0
 17 28  1  0  0  0  0
 17 10  1  0  0  0  0
 18 20  1  0  0  0  0
 19  5  1  0  0  0  0
 19  6  1  0  0  0  0
 20 11  1  0  0  0  0
 20 13  1  0  0  0  0
 21 23  1  0  0  0  0
 21 26  2  0  0  0  0
 22 10  1  0  0  0  0
 23  4  2  0  0  0  0
 24 22  1  0  0  0  0
 25 17  1  0  0  0  0
 27  9  1  0  0  0  0
 28 29  1  0  0  0  0
 30 34  1  0  0  0  0
 30 33  1  0  0  0  0
 32 31  1  0  0  0  0
 32 29  1  0  0  0  0
 33 31  1  0  0  0  0
 34 32  1  0  0  0  0
M  END
>  <MODEL>
4

>  <REMARK>
 VINA RESULT:      -8.6      1.026      1.132
  Name = 
  3 active torsions:
  status: ('A' for Active; 'I' for Inactive)
    1  A    between atoms: C_17  and  C_28
    2  A    between atoms: C_28  and  C_29
    3  A    between atoms: C_29  and  C_32
                            x       y       z     vdW  Elec       q    Type
                         _______ _______ _______ _____ _____    ______ ____

>  <TORSDO>
F 3

$$$$
=
 OpenBabel11112417533D

 34 41  0  0  1  0  0  0  0  0999 V2000
  189.1320  175.0150  143.1800 C   0  0  1  0  0  3  0  0  0  0  0  0
  190.9940  173.6110  142.5260 C   0  0  0  0  0  2  0  0  0  0  0  0
  185.8090  179.1400  147.1030 C   0  0  2  0  0  3  0  0  0  0  0  0
  187.3310  176.5750  143.9320 C   0  0  0  0  0  0  0  0  0  0  0  0
  187.5760  177.8990  146.0250 C   0  0  1  0  0  3  0  0  0  0  0  0
  187.4940  179.0640  148.3910 C   0  0  0  0  0  2  0  0  0  0  0  0
  186.2170  179.9040  148.3400 C   0  0  0  0  0  2  0  0  0  0  0  0
  184.5040  177.3720  145.9060 C   0  0  0  0  0  2  0  0  0  0  0  0
  190.8650  174.4590  144.6150 C   0  0  2  0  0  3  0  0  0  0  0  0
  193.3720  175.5730  146.0720 C   0  0  0  0  0  2  0  0  0  0  0  0
  188.9820  177.2850  146.2030 C   0  0  0  0  0  2  0  0  0  0  0  0
  185.4140  177.7070  144.8770 O   0  0  0  0  0  0  0  0  0  0  0  0
  190.6020  175.6540  145.5470 C   0  0  1  0  0  3  0  0  0  0  0  0
  192.2420  173.1060  143.2430 C   0  0  0  0  0  2  0  0  0  0  0  0
  186.6190  177.0260  145.1700 C   0  0  1  0  0  3  0  0  0  0  0  0
  184.4640  178.4400  147.0270 C   0  0  0  0  0  2  0  0  0  0  0  0
  193.4220  174.6990  144.8030 C   0  0  2  0  0  3  0  0  0  0  0  0
  188.7960  176.2410  144.0530 C   0  0  1  0  0  3  0  0  0  0  0  0
  186.8930  178.1300  147.3580 C   0  0  1  0  0  3  0  0  0  0  0  0
  189.1740  176.0230  145.4660 N   0  0  2  0  0  0  0  0  0  0  0  0
  187.4620  175.8820  141.5900 C   0  0  0  0  0  3  0  0  0  0  0  0
  192.4910  174.9870  147.1780 C   0  0  0  0  0  2  0  0  0  0  0  0
  186.7170  176.4310  142.7470 C   0  0  0  0  0  3  0  0  0  0  0  0
  191.0040  175.3250  146.9950 C   0  0  0  0  0  2  0  0  0  0  0  0
  192.2150  173.7550  144.6210 C   0  0  1  0  0  3  0  0  0  0  0  0
  188.6320  175.2530  141.7760 C   0  0  0  0  0  3  0  0  0  0  0  0
  190.5750  174.8090  143.2370 N   0  0  2  0  0  0  0  0  0  0  0  0
  194.7120  173.8900  144.8080 C   0  0  0  0  0  2  0  0  0  0  0  0
  195.8820  174.7600  145.2370 C   0  0  0  0  0  2  0  0  0  0  0  0
  196.1450  175.1980  141.6420 C   0  0  0  0  0  2  0  0  0  0  0  0
  196.2450  176.6040  143.5920 C   0  0  0  0  0  2  0  0  0  0  0  0
  196.6730  175.2160  144.0240 C   0  0  0  0  0  3  0  0  0  0  0  0
  196.4160  176.6180  142.0920 C   0  0  0  0  0  2  0  0  0  0  0  0
  196.3880  174.3050  142.8460 C   0  0  0  0  0  2  0  0  0  0  0  0
  1 26  1  6  0  0  0
  1 27  1  0  0  0  0
  1 18  1  0  0  0  0
  2 27  1  0  0  0  0
  2 14  1  0  0  0  0
  3 16  1  1  0  0  0
  3 19  1  0  0  0  0
  3  7  1  0  0  0  0
  4 18  1  0  0  0  0
  4 15  1  0  0  0  0
  5 11  1  1  0  0  0
  5 19  1  0  0  0  0
  7  6  1  0  0  0  0
  8 16  1  0  0  0  0
  9 25  1  0  0  0  0
  9 13  1  0  0  0  0
 10 22  1  0  0  0  0
 12 15  1  0  0  0  0
 12  8  1  0  0  0  0
 13 24  1  0  0  0  0
 14 25  1  0  0  0  0
 15  5  1  0  0  0  0
 17 28  1  0  0  0  0
 17 10  1  0  0  0  0
 18 20  1  0  0  0  0
 19  6  1  0  0  0  0
 20 13  1  0  0  0  0
 20 11  1  0  0  0  0
 21 26  2  0  0  0  0
 21 23  1  0  0  0  0
 23  4  2  0  0  0  0
 24 22  1  0  0  0  0
 25 17  1  0  0  0  0
 27  9  1  0  0  0  0
 28 29  1  0  0  0  0
 30 33  1  0  0  0  0
 30 34  1  0  0  0  0
 31 32  1  0  0  0  0
 32 29  1  0  0  0  0
 33 31  1  0  0  0  0
 34 32  1  0  0  0  0
M  END
>  <MODEL>
5

>  <REMARK>
 VINA RESULT:      -8.5      2.275      8.208
  Name = 
  3 active torsions:
  status: ('A' for Active; 'I' for Inactive)
    1  A    between atoms: C_17  and  C_28
    2  A    between atoms: C_28  and  C_29
    3  A    between atoms: C_29  and  C_32
                            x       y       z     vdW  Elec       q    Type
                         _______ _______ _______ _____ _____    ______ ____

>  <TORSDO>
F 3

$$$$
=
 OpenBabel11112417533D

 34 41  0  0  1  0  0  0  0  0999 V2000
  190.0980  173.3380  142.3810 C   0  0  1  0  0  3  0  0  0  0  0  0
  187.8590  174.2290  142.1390 C   0  0  0  0  0  2  0  0  0  0  0  0
  196.1880  172.9970  144.8770 C   0  0  2  0  0  3  0  0  0  0  0  0
  192.3980  172.4590  142.8070 C   0  0  0  0  0  0  0  0  0  0  0  0
  193.8350  173.4420  144.5850 C   0  0  1  0  0  3  0  0  0  0  0  0
  195.6220  174.6080  146.1370 C   0  0  0  0  0  2  0  0  0  0  0  0
  196.8330  173.6800  146.0600 C   0  0  0  0  0  2  0  0  0  0  0  0
  195.9140  172.5790  142.4250 C   0  0  0  0  0  2  0  0  0  0  0  0
  189.4200  175.3370  143.3380 C   0  0  2  0  0  3  0  0  0  0  0  0
  188.7190  176.7210  146.0290 C   0  0  0  0  0  2  0  0  0  0  0  0
  192.6720  174.3920  144.9460 C   0  0  0  0  0  2  0  0  0  0  0  0
  194.7540  171.9190  142.8920 O   0  0  0  0  0  0  0  0  0  0  0  0
  190.5400  175.3210  144.3920 C   0  0  1  0  0  3  0  0  0  0  0  0
  187.1570  175.4820  142.6550 C   0  0  0  0  0  2  0  0  0  0  0  0
  193.7850  172.9250  143.1220 C   0  0  1  0  0  3  0  0  0  0  0  0
  196.9310  172.8530  143.5600 C   0  0  0  0  0  2  0  0  0  0  0  0
  187.6740  176.2310  145.0070 C   0  0  2  0  0  3  0  0  0  0  0  0
  191.2490  173.2360  143.4010 C   0  0  1  0  0  3  0  0  0  0  0  0
  195.1820  174.1100  144.7730 C   0  0  1  0  0  3  0  0  0  0  0  0
  191.6940  174.5700  143.8570 N   0  0  2  0  0  0  0  0  0  0  0  0
  190.7420  171.0740  141.6550 C   0  0  0  0  0  3  0  0  0  0  0  0
  189.8190  177.5850  145.4070 C   0  0  0  0  0  2  0  0  0  0  0  0
  192.1420  171.4130  142.0050 C   0  0  0  0  0  3  0  0  0  0  0  0
  190.9490  176.7510  144.7850 C   0  0  0  0  0  2  0  0  0  0  0  0
  188.1720  176.1840  143.5480 C   0  0  1  0  0  3  0  0  0  0  0  0
  189.7580  171.9570  141.8750 C   0  0  0  0  0  3  0  0  0  0  0  0
  188.9730  173.9890  143.0440 N   0  0  2  0  0  0  0  0  0  0  0  0
  186.4370  177.1130  145.1020 C   0  0  0  0  0  2  0  0  0  0  0  0
  186.7590  178.5280  144.6500 C   0  0  0  0  0  2  0  0  0  0  0  0
  184.9770  178.2860  141.4960 C   0  0  0  0  0  2  0  0  0  0  0  0
  184.4190  178.2150  143.8350 C   0  0  0  0  0  2  0  0  0  0  0  0
  185.6850  179.0380  143.7060 C   0  0  0  0  0  3  0  0  0  0  0  0
  183.8080  178.2170  142.4550 C   0  0  0  0  0  2  0  0  0  0  0  0
  186.1410  178.8820  142.2680 C   0  0  0  0  0  2  0  0  0  0  0  0
  1 26  1  1  0  0  0
  1 27  1  0  0  0  0
  1 18  1  0  0  0  0
  2 14  1  0  0  0  0
  2 27  1  0  0  0  0
  3 16  1  6  0  0  0
  3  7  1  0  0  0  0
  4 15  1  0  0  0  0
  4 18  1  0  0  0  0
  5 19  1  0  0  0  0
  5 11  1  6  0  0  0
  7  6  1  0  0  0  0
  8 12  1  0  0  0  0
  8 16  1  0  0  0  0
  9 25  1  0  0  0  0
  9 13  1  0  0  0  0
 12 15  1  0  0  0  0
 13 24  1  0  0  0  0
 14 25  1  0  0  0  0
 15  5  1  0  0  0  0
 17 28  1  0  0  0  0
 17 10  1  0  0  0  0
 18 20  1  0  0  0  0
 19  3  1  0  0  0  0
 19  6  1  0  0  0  0
 20 13  1  0  0  0  0
 20 11  1  0  0  0  0
 21 26  2  0  0  0  0
 21 23  1  0  0  0  0
 22 10  1  0  0  0  0
 23  4  2  0  0  0  0
 24 22  1  0  0  0  0
 25 17  1  0  0  0  0
 27  9  1  0  0  0  0
 29 28  1  0  0  0  0
 30 34  1  0  0  0  0
 30 33  1  0  0  0  0
 32 31  1  0  0  0  0
 32 29  1  0  0  0  0
 33 31  1  0  0  0  0
 34 32  1  0  0  0  0
M  END
>  <MODEL>
6

>  <REMARK>
 VINA RESULT:      -8.5      1.836      2.158
  Name = 
  3 active torsions:
  status: ('A' for Active; 'I' for Inactive)
    1  A    between atoms: C_17  and  C_28
    2  A    between atoms: C_28  and  C_29
    3  A    between atoms: C_29  and  C_32
                            x       y       z     vdW  Elec       q    Type
                         _______ _______ _______ _____ _____    ______ ____

>  <TORSDO>
F 3

$$$$
=
 OpenBabel11112417533D

 34 41  0  0  1  0  0  0  0  0999 V2000
  189.3430  174.8410  141.9910 C   0  0  1  0  0  3  0  0  0  0  0  0
  188.1870  176.8090  142.8000 C   0  0  0  0  0  2  0  0  0  0  0  0
  193.0330  169.4040  142.5110 C   0  0  2  0  0  3  0  0  0  0  0  0
  190.4920  172.7290  141.3100 C   0  0  0  0  0  0  0  0  0  0  0  0
  191.5600  171.2510  143.0050 C   0  0  1  0  0  3  0  0  0  0  0  0
  193.0710  169.7870  144.5970 C   0  0  0  0  0  2  0  0  0  0  0  0
  193.5190  168.6260  143.7100 C   0  0  0  0  0  2  0  0  0  0  0  0
  193.3900  170.8620  140.5080 C   0  0  0  0  0  2  0  0  0  0  0  0
  189.6060  175.6710  144.1380 C   0  0  2  0  0  3  0  0  0  0  0  0
  188.9510  175.1480  147.1290 C   0  0  0  0  0  2  0  0  0  0  0  0
  191.0690  172.2190  144.1030 C   0  0  0  0  0  2  0  0  0  0  0  0
  191.9820  170.9600  140.6030 O   0  0  0  0  0  0  0  0  0  0  0  0
  190.1170  174.3310  144.6940 C   0  0  1  0  0  3  0  0  0  0  0  0
  188.1660  177.5510  144.1330 C   0  0  0  0  0  2  0  0  0  0  0  0
  191.7140  171.9170  141.6110 C   0  0  1  0  0  3  0  0  0  0  0  0
  193.9540  169.6810  141.3350 C   0  0  0  0  0  2  0  0  0  0  0  0
  188.2100  176.1700  146.2430 C   0  0  2  0  0  3  0  0  0  0  0  0
  189.8410  173.4590  142.4590 C   0  0  1  0  0  3  0  0  0  0  0  0
  192.9030  170.6420  143.3550 C   0  0  1  0  0  3  0  0  0  0  0  0
  190.7680  173.5730  143.6050 N   0  0  2  0  0  0  0  0  0  0  0  0
  188.8320  173.7580  139.8380 C   0  0  0  0  0  3  0  0  0  0  0  0
  190.4750  175.2840  147.0690 C   0  0  0  0  0  2  0  0  0  0  0  0
  189.9830  172.8540  140.0750 C   0  0  0  0  0  3  0  0  0  0  0  0
  191.0890  174.5540  145.8660 C   0  0  0  0  0  2  0  0  0  0  0  0
  189.0430  176.7330  145.0730 C   0  0  1  0  0  3  0  0  0  0  0  0
  188.4880  174.6700  140.7580 C   0  0  0  0  0  3  0  0  0  0  0  0
  188.6180  175.4520  143.0990 N   0  0  2  0  0  0  0  0  0  0  0  0
  187.7110  177.3130  147.1170 C   0  0  0  0  0  2  0  0  0  0  0  0
  186.3200  177.0080  147.6460 C   0  0  0  0  0  2  0  0  0  0  0  0
  185.5050  179.6070  145.2460 C   0  0  0  0  0  2  0  0  0  0  0  0
  184.8110  177.3460  145.6860 C   0  0  0  0  0  2  0  0  0  0  0  0
  185.2960  177.9240  146.9990 C   0  0  0  0  0  3  0  0  0  0  0  0
  184.5170  178.5430  144.8150 C   0  0  0  0  0  2  0  0  0  0  0  0
  185.9350  179.2570  146.6590 C   0  0  0  0  0  2  0  0  0  0  0  0
  1 26  1  6  0  0  0
  1 18  1  0  0  0  0
  1 27  1  0  0  0  0
  2 27  1  0  0  0  0
  2 14  1  0  0  0  0
  3 16  1  6  0  0  0
  3 19  1  0  0  0  0
  3  7  1  0  0  0  0
  4 15  1  0  0  0  0
  4 18  1  0  0  0  0
  5 19  1  0  0  0  0
  5 11  1  1  0  0  0
  7  6  1  0  0  0  0
  8 12  1  0  0  0  0
  8 16  1  0  0  0  0
  9 13  1  0  0  0  0
  9 25  1  0  0  0  0
 12 15  1  0  0  0  0
 13 24  1  0  0  0  0
 14 25  1  0  0  0  0
 15  5  1  0  0  0  0
 17 28  1  0  0  0  0
 17 10  1  0  0  0  0
 18 20  1  0  0  0  0
 19  6  1  0  0  0  0
 20 11  1  0  0  0  0
 20 13  1  0  0  0  0
 21 23  1  0  0  0  0
 21 26  2  0  0  0  0
 22 10  1  0  0  0  0
 23  4  2  0  0  0  0
 24 22  1  0  0  0  0
 25 17  1  0  0  0  0
 27  9  1  0  0  0  0
 28 29  1  0  0  0  0
 30 34  1  0  0  0  0
 31 32  1  0  0  0  0
 32 29  1  0  0  0  0
 33 30  1  0  0  0  0
 33 31  1  0  0  0  0
 34 32  1  0  0  0  0
M  END
>  <MODEL>
7

>  <REMARK>
 VINA RESULT:      -8.4      2.661      3.100
  Name = 
  3 active torsions:
  status: ('A' for Active; 'I' for Inactive)
    1  A    between atoms: C_17  and  C_28
    2  A    between atoms: C_28  and  C_29
    3  A    between atoms: C_29  and  C_32
                            x       y       z     vdW  Elec       q    Type
                         _______ _______ _______ _____ _____    ______ ____

>  <TORSDO>
F 3

$$$$
=
 OpenBabel11112417533D

 34 41  0  0  1  0  0  0  0  0999 V2000
  192.1930  175.5920  145.2930 C   0  0  1  0  0  3  0  0  0  0  0  0
  190.5810  177.3980  145.2080 C   0  0  0  0  0  2  0  0  0  0  0  0
  194.6710  169.6780  143.7720 C   0  0  2  0  0  3  0  0  0  0  0  0
  193.8200  173.6980  145.2070 C   0  0  0  0  0  0  0  0  0  0  0  0
  193.4370  171.7500  143.7050 C   0  0  1  0  0  3  0  0  0  0  0  0
  192.9970  169.4510  142.4870 C   0  0  0  0  0  2  0  0  0  0  0  0
  194.2840  168.6600  142.7250 C   0  0  0  0  0  2  0  0  0  0  0  0
  194.9050  170.4600  146.1380 C   0  0  0  0  0  2  0  0  0  0  0  0
  190.1090  175.3840  144.3010 C   0  0  2  0  0  3  0  0  0  0  0  0
  188.6410  175.1350  141.5760 C   0  0  0  0  0  2  0  0  0  0  0  0
  192.1550  172.4450  143.1950 C   0  0  0  0  0  2  0  0  0  0  0  0
  195.1380  171.6880  145.4760 O   0  0  0  0  0  0  0  0  0  0  0  0
  190.5370  174.1870  143.4360 C   0  0  1  0  0  3  0  0  0  0  0  0
  189.1780  177.5370  144.6270 C   0  0  0  0  0  2  0  0  0  0  0  0
  193.8670  172.2040  145.1270 C   0  0  1  0  0  3  0  0  0  0  0  0
  195.0270  169.2460  145.1840 C   0  0  0  0  0  2  0  0  0  0  0  0
  188.7140  176.4320  142.4070 C   0  0  2  0  0  3  0  0  0  0  0  0
  192.7120  174.4010  144.4640 C   0  0  1  0  0  3  0  0  0  0  0  0
  193.2790  170.2440  143.7500 C   0  0  1  0  0  3  0  0  0  0  0  0
  191.6240  173.4590  144.1220 N   0  0  2  0  0  0  0  0  0  0  0  0
  194.5210  175.8870  146.0440 C   0  0  0  0  0  3  0  0  0  0  0  0
  188.1910  173.9180  142.3870 C   0  0  0  0  0  2  0  0  0  0  0  0
  194.6920  174.4190  145.9280 C   0  0  0  0  0  3  0  0  0  0  0  0
  189.3450  173.2550  143.1540 C   0  0  0  0  0  2  0  0  0  0  0  0
  188.8900  176.2160  143.9240 C   0  0  1  0  0  3  0  0  0  0  0  0
  193.3590  176.4610  145.7000 C   0  0  0  0  0  3  0  0  0  0  0  0
  191.2140  176.3070  144.4820 N   0  0  2  0  0  0  0  0  0  0  0  0
  187.4640  177.2600  142.1460 C   0  0  0  0  0  2  0  0  0  0  0  0
  186.2460  176.5880  142.7590 C   0  0  0  0  0  2  0  0  0  0  0  0
  185.6750  178.7870  145.5910 C   0  0  0  0  0  2  0  0  0  0  0  0
  185.8790  179.0170  143.2040 C   0  0  0  0  0  2  0  0  0  0  0  0
  185.3820  177.6120  143.4730 C   0  0  0  0  0  3  0  0  0  0  0  0
  185.5660  179.7910  144.4620 C   0  0  0  0  0  2  0  0  0  0  0  0
  185.4760  177.4140  144.9740 C   0  0  0  0  0  2  0  0  0  0  0  0
  1 26  1  6  0  0  0
  3  7  1  6  0  0  0
  3 16  1  0  0  0  0
  4 23  2  0  0  0  0
  5 11  1  1  0  0  0
  5 19  1  0  0  0  0
  5 15  1  0  0  0  0
  6  7  1  0  0  0  0
  6 19  1  0  0  0  0
  9 27  1  0  0  0  0
 10 22  1  0  0  0  0
 10 17  1  0  0  0  0
 11 20  1  0  0  0  0
 12  8  1  0  0  0  0
 13 20  1  0  0  0  0
 13  9  1  0  0  0  0
 14  2  1  0  0  0  0
 15  4  1  0  0  0  0
 15 12  1  0  0  0  0
 16  8  1  0  0  0  0
 17 25  1  0  0  0  0
 18  4  1  0  0  0  0
 18  1  1  0  0  0  0
 19  3  1  0  0  0  0
 20 18  1  0  0  0  0
 22 24  1  0  0  0  0
 23 21  1  0  0  0  0
 24 13  1  0  0  0  0
 25  9  1  0  0  0  0
 25 14  1  0  0  0  0
 26 21  2  0  0  0  0
 27  2  1  0  0  0  0
 27  1  1  0  0  0  0
 28 17  1  0  0  0  0
 28 29  1  0  0  0  0
 29 32  1  0  0  0  0
 31 32  1  0  0  0  0
 31 33  1  0  0  0  0
 32 34  1  0  0  0  0
 33 30  1  0  0  0  0
 34 30  1  0  0  0  0
M  END
>  <MODEL>
8

>  <REMARK>
 VINA RESULT:      -8.3      2.884      4.704
  Name = 
  3 active torsions:
  status: ('A' for Active; 'I' for Inactive)
    1  A    between atoms: C_17  and  C_28
    2  A    between atoms: C_28  and  C_29
    3  A    between atoms: C_29  and  C_32
                            x       y       z     vdW  Elec       q    Type
                         _______ _______ _______ _____ _____    ______ ____

>  <TORSDO>
F 3

$$$$
=
 OpenBabel11112417533D

 34 41  0  0  1  0  0  0  0  0999 V2000
  190.0390  174.9910  143.1450 C   0  0  1  0  0  3  0  0  0  0  0  0
  192.1550  173.9980  142.5110 C   0  0  0  0  0  2  0  0  0  0  0  0
  185.9760  178.6020  146.8720 C   0  0  2  0  0  3  0  0  0  0  0  0
  187.9480  176.1590  143.8570 C   0  0  0  0  0  0  0  0  0  0  0  0
  187.9470  177.7030  145.8090 C   0  0  1  0  0  3  0  0  0  0  0  0
  187.6740  179.0450  148.0640 C   0  0  0  0  0  2  0  0  0  0  0  0
  186.2350  179.5570  148.0130 C   0  0  0  0  0  2  0  0  0  0  0  0
  185.0830  176.4700  145.9110 C   0  0  0  0  0  2  0  0  0  0  0  0
  191.9030  174.9950  144.5220 C   0  0  2  0  0  3  0  0  0  0  0  0
  194.1250  176.7970  145.7300 C   0  0  0  0  0  2  0  0  0  0  0  0
  189.4630  177.4520  145.9600 C   0  0  0  0  0  2  0  0  0  0  0  0
  185.8520  176.9040  144.8070 O   0  0  0  0  0  0  0  0  0  0  0  0
  191.3980  176.1830  145.3580 C   0  0  1  0  0  3  0  0  0  0  0  0
  193.5110  173.8690  143.1980 C   0  0  0  0  0  2  0  0  0  0  0  0
  187.1930  176.5520  145.0890 C   0  0  1  0  0  3  0  0  0  0  0  0
  184.8310  177.6050  146.9340 C   0  0  0  0  0  2  0  0  0  0  0  0
  194.3360  175.8380  144.5420 C   0  0  2  0  0  3  0  0  0  0  0  0
  189.4540  176.1860  143.9240 C   0  0  1  0  0  3  0  0  0  0  0  0
  187.2750  177.8990  147.1530 C   0  0  1  0  0  3  0  0  0  0  0  0
  189.9210  176.2020  145.3270 N   0  0  2  0  0  0  0  0  0  0  0  0
  188.1580  175.2870  141.5810 C   0  0  0  0  0  3  0  0  0  0  0  0
  193.4460  176.1350  146.9320 C   0  0  0  0  0  2  0  0  0  0  0  0
  187.3440  175.7600  142.7270 C   0  0  0  0  0  3  0  0  0  0  0  0
  191.9160  176.1000  146.8050 C   0  0  0  0  0  2  0  0  0  0  0  0
  193.3800  174.6270  144.5130 C   0  0  1  0  0  3  0  0  0  0  0  0
  189.4480  174.9670  141.7550 C   0  0  0  0  0  3  0  0  0  0  0  0
  191.4910  175.1310  143.1370 N   0  0  2  0  0  0  0  0  0  0  0  0
  195.7800  175.3540  144.5450 C   0  0  0  0  0  2  0  0  0  0  0  0
  196.0640  174.5410  145.7970 C   0  0  0  0  0  2  0  0  0  0  0  0
  197.1300  171.1430  145.0900 C   0  0  0  0  0  2  0  0  0  0  0  0
  197.3470  173.3020  144.0500 C   0  0  0  0  0  2  0  0  0  0  0  0
  197.1760  173.5410  145.5360 C   0  0  0  0  0  3  0  0  0  0  0  0
  197.7890  171.8640  143.9330 C   0  0  0  0  0  2  0  0  0  0  0  0
  196.8170  172.1960  146.1380 C   0  0  0  0  0  2  0  0  0  0  0  0
  1 26  1  6  0  0  0
  1 18  1  0  0  0  0
  2 27  1  0  0  0  0
  2 14  1  0  0  0  0
  3 16  1  1  0  0  0
  3 19  1  0  0  0  0
  3  7  1  0  0  0  0
  4 18  1  0  0  0  0
  4 15  1  0  0  0  0
  5 11  1  1  0  0  0
  5 19  1  0  0  0  0
  7  6  1  0  0  0  0
  8 16  1  0  0  0  0
  9 13  1  0  0  0  0
 10 22  1  0  0  0  0
 12 15  1  0  0  0  0
 12  8  1  0  0  0  0
 13 24  1  0  0  0  0
 14 25  1  0  0  0  0
 15  5  1  0  0  0  0
 17 28  1  0  0  0  0
 17 10  1  0  0  0  0
 18 20  1  0  0  0  0
 19  6  1  0  0  0  0
 20 13  1  0  0  0  0
 20 11  1  0  0  0  0
 21 26  2  0  0  0  0
 21 23  1  0  0  0  0
 23  4  2  0  0  0  0
 24 22  1  0  0  0  0
 25  9  1  0  0  0  0
 25 17  1  0  0  0  0
 27  1  1  0  0  0  0
 27  9  1  0  0  0  0
 28 29  1  0  0  0  0
 30 34  1  0  0  0  0
 31 32  1  0  0  0  0
 32 29  1  0  0  0  0
 32 34  1  0  0  0  0
 33 31  1  0  0  0  0
 33 30  1  0  0  0  0
M  END
>  <MODEL>
9

>  <REMARK>
 VINA RESULT:      -8.3      2.338      8.551
  Name = 
  3 active torsions:
  status: ('A' for Active; 'I' for Inactive)
    1  A    between atoms: C_17  and  C_28
    2  A    between atoms: C_28  and  C_29
    3  A    between atoms: C_29  and  C_32
                            x       y       z     vdW  Elec       q    Type
                         _______ _______ _______ _____ _____    ______ ____

>  <TORSDO>
F 3

$$$$
