=
 OpenBabel11112417253D

 37 44  0  0  1  0  0  0  0  0999 V2000
  193.9490  174.5640  144.0290 C   0  0  0  0  0  2  0  0  0  0  0  0
  193.1810  171.4910  140.3610 C   0  0  0  0  0  0  0  0  0  0  0  0
  190.3700  174.7240  141.3360 C   0  0  1  0  0  3  0  0  0  0  0  0
  194.8970  174.5930  145.2240 C   0  0  1  0  0  0  0  0  0  0  0  0
  190.4540  176.3460  144.8610 C   0  0  0  0  0  2  0  0  0  0  0  0
  191.0470  172.7630  139.8540 C   0  0  1  0  0  3  0  0  0  0  0  0
  190.7400  174.8580  142.8200 C   0  0  1  0  0  3  0  0  0  0  0  0
  193.9600  176.7060  146.4010 C   0  0  2  0  0  3  0  0  0  0  0  0
  191.5290  173.8970  140.7500 C   0  0  2  0  0  3  0  0  0  0  0  0
  189.7640  175.3530  143.9070 C   0  0  2  0  0  3  0  0  0  0  0  0
  190.1630  173.3160  138.8430 N   0  0  0  0  0  2  0  0  0  0  0  0
  194.5690  175.3020  146.5460 C   0  0  0  0  0  2  0  0  0  0  0  0
  192.3810  173.3610  141.9100 C   0  0  2  0  0  3  0  0  0  0  0  0
  194.5810  172.0180  140.1130 C   0  0  0  0  0  1  0  0  0  0  0  0
  187.8430  174.2610  141.5520 C   0  0  0  0  0  3  0  0  0  0  0  0
  188.8740  173.5850  139.4890 C   0  0  0  0  0  2  0  0  0  0  0  0
  192.7350  171.8690  141.7900 C   0  0  0  0  0  2  0  0  0  0  0  0
  192.4290  176.7150  146.3880 C   0  0  0  0  0  2  0  0  0  0  0  0
  191.8690  175.9230  145.2190 C   0  0  1  0  0  3  0  0  0  0  0  0
  188.9990  174.1920  140.8760 C   0  0  0  0  0  0  0  0  0  0  0  0
  191.6280  173.6740  143.1940 C   0  0  1  0  0  3  0  0  0  0  0  0
  192.2440  172.0320  139.2600 C   0  0  0  0  0  2  0  0  0  0  0  0
  188.4560  175.9050  143.3330 C   0  0  1  0  0  3  0  0  0  0  0  0
  193.2170  169.9800  140.2600 C   0  0  0  0  0  1  0  0  0  0  0  0
  191.9390  174.5430  145.4830 O   0  0  0  0  0  0  0  0  0  0  0  0
  194.4830  177.3990  145.3060 O   0  0  0  0  0  1  0  0  0  0  0  0
  192.5860  173.9280  144.3860 C   0  0  2  0  0  3  0  0  0  0  0  0
  187.6110  174.7140  142.9530 C   0  0  0  0  0  2  0  0  0  0  0  0
  195.8260  173.4800  145.3220 C   0  0  0  0  0  2  0  0  0  0  0  0
  196.2930  174.7870  144.8200 N   0  0  0  0  0  2  0  0  0  0  0  0
  187.6190  176.3950  145.6390 C   0  0  0  0  0  3  0  0  0  0  0  0
  187.6820  176.7660  144.2930 C   0  0  0  0  0  0  0  0  0  0  0  0
  187.0200  177.9280  143.8680 C   0  0  0  0  0  3  0  0  0  0  0  0
  185.6330  179.8700  144.3770 N   0  0  0  0  0  1  0  0  0  0  0  0
  186.2630  178.3070  146.1000 N   0  0  0  0  0  0  0  0  0  0  0  0
  186.3100  178.6900  144.7960 C   0  0  0  0  0  0  0  0  0  0  0  0
  186.8980  177.1850  146.5360 C   0  0  0  0  0  3  0  0  0  0  0  0
  1 27  1  0  0  0  0
  2 17  1  0  0  0  0
  3 20  1  1  0  0  0
  3  7  1  0  0  0  0
  4  1  1  6  0  0  0
  4 29  1  0  0  0  0
  4 12  1  0  0  0  0
  5 19  1  0  0  0  0
  6 22  1  6  0  0  0
  6  9  1  0  0  0  0
  7 21  1  0  0  0  0
  7 10  1  0  0  0  0
  8 12  1  0  0  0  0
  9  3  1  0  0  0  0
  9 13  1  0  0  0  0
 10  5  1  0  0  0  0
 11 16  1  0  0  0  0
 11  6  1  0  0  0  0
 13 21  1  0  0  0  0
 14  2  1  0  0  0  0
 15 28  1  0  0  0  0
 16 20  1  0  0  0  0
 17 13  1  0  0  0  0
 18  8  1  0  0  0  0
 19 25  1  0  0  0  0
 19 18  1  0  0  0  0
 20 15  2  0  0  0  0
 21 27  1  0  0  0  0
 22  2  1  0  0  0  0
 23 10  1  0  0  0  0
 23 32  1  0  0  0  0
 24  2  1  0  0  0  0
 26  8  1  0  0  0  0
 27 25  1  0  0  0  0
 28 23  1  0  0  0  0
 30  4  1  0  0  0  0
 30 29  1  0  0  0  0
 31 37  1  0  0  0  0
 32 31  2  0  0  0  0
 33 32  1  0  0  0  0
 33 36  2  0  0  0  0
 34 36  1  0  0  0  0
 35 37  2  0  0  0  0
 36 35  1  0  0  0  0
M  END
>  <MODEL>
1

>  <REMARK>
 VINA RESULT:      -8.3      0.000      0.000
  Name = 
  1 active torsions:
  status: ('A' for Active; 'I' for Inactive)
    1  A    between atoms: C_23  and  C_30
                            x       y       z     vdW  Elec       q    Type
                         _______ _______ _______ _____ _____    ______ ____

>  <TORSDO>
F 1

$$$$
=
 OpenBabel11112417253D

 37 44  0  0  1  0  0  0  0  0999 V2000
  190.2600  173.5760  140.1960 C   0  0  0  0  0  2  0  0  0  0  0  0
  187.3470  176.5890  142.6310 C   0  0  0  0  0  0  0  0  0  0  0  0
  191.5030  175.8490  143.8540 C   0  0  1  0  0  3  0  0  0  0  0  0
  190.0480  172.5130  139.1220 C   0  0  1  0  0  0  0  0  0  0  0  0
  193.3360  172.6650  142.6030 C   0  0  0  0  0  2  0  0  0  0  0  0
  189.2850  177.0580  144.1990 C   0  0  1  0  0  3  0  0  0  0  0  0
  191.6430  174.4560  143.2230 C   0  0  1  0  0  3  0  0  0  0  0  0
  192.4730  171.5990  139.0090 C   0  0  2  0  0  3  0  0  0  0  0  0
  190.2330  176.4160  143.1940 C   0  0  2  0  0  3  0  0  0  0  0  0
  192.5920  173.3630  143.7560 C   0  0  2  0  0  3  0  0  0  0  0  0
  190.0240  178.0410  144.9700 N   0  0  0  0  0  2  0  0  0  0  0  0
  190.9680  171.2970  138.9450 C   0  0  0  0  0  2  0  0  0  0  0  0
  189.5370  175.2860  142.4210 C   0  0  2  0  0  3  0  0  0  0  0  0
  187.2610  177.0720  141.1970 C   0  0  0  0  0  1  0  0  0  0  0  0
  192.0810  175.2830  146.3010 C   0  0  0  0  0  3  0  0  0  0  0  0
  190.8400  177.3100  145.9450 C   0  0  0  0  0  2  0  0  0  0  0  0
  188.0210  175.2000  142.6660 C   0  0  0  0  0  2  0  0  0  0  0  0
  193.0730  171.4450  140.4090 C   0  0  0  0  0  2  0  0  0  0  0  0
  192.4390  172.4010  141.4040 C   0  0  1  0  0  3  0  0  0  0  0  0
  191.4980  176.0620  145.3800 C   0  0  0  0  0  0  0  0  0  0  0  0
  190.2550  173.9950  142.7840 C   0  0  1  0  0  3  0  0  0  0  0  0
  188.0880  177.6530  143.4700 C   0  0  0  0  0  2  0  0  0  0  0  0
  193.5410  173.8720  144.8430 C   0  0  1  0  0  3  0  0  0  0  0  0
  185.9390  176.4460  143.1710 C   0  0  0  0  0  1  0  0  0  0  0  0
  191.1780  171.9260  141.8050 O   0  0  0  0  0  0  0  0  0  0  0  0
  192.7860  172.8430  138.4550 O   0  0  0  0  0  1  0  0  0  0  0  0
  190.2450  172.9730  141.6190 C   0  0  2  0  0  3  0  0  0  0  0  0
  192.7380  173.9580  146.1180 C   0  0  0  0  0  2  0  0  0  0  0  0
  188.6800  172.3390  138.6660 C   0  0  0  0  0  2  0  0  0  0  0  0
  189.6420  173.0950  137.8390 N   0  0  0  0  0  2  0  0  0  0  0  0
  196.0060  173.4550  144.7450 C   0  0  0  0  0  3  0  0  0  0  0  0
  194.7340  172.9840  145.0780 C   0  0  0  0  0  0  0  0  0  0  0  0
  194.5960  171.6970  145.6170 C   0  0  0  0  0  3  0  0  0  0  0  0
  195.6060  169.6010  146.3550 N   0  0  0  0  0  1  0  0  0  0  0  0
  196.9600  171.3910  145.4770 N   0  0  0  0  0  0  0  0  0  0  0  0
  195.7320  170.9090  145.8100 C   0  0  0  0  0  0  0  0  0  0  0  0
  197.1180  172.6360  144.9530 C   0  0  0  0  0  3  0  0  0  0  0  0
  1 27  1  0  0  0  0
  2 17  1  0  0  0  0
  2 24  1  0  0  0  0
  2 22  1  0  0  0  0
  3 20  1  1  0  0  0
  4 29  1  1  0  0  0
  4  1  1  0  0  0  0
  5 10  1  0  0  0  0
  6 22  1  6  0  0  0
  6 11  1  0  0  0  0
  7 10  1  0  0  0  0
  7  3  1  0  0  0  0
  8 18  1  0  0  0  0
  9  3  1  0  0  0  0
  9  6  1  0  0  0  0
 10 23  1  0  0  0  0
 11 16  1  0  0  0  0
 12  8  1  0  0  0  0
 12  4  1  0  0  0  0
 13 17  1  0  0  0  0
 13 21  1  0  0  0  0
 13  9  1  0  0  0  0
 14  2  1  0  0  0  0
 18 19  1  0  0  0  0
 19 25  1  0  0  0  0
 19  5  1  0  0  0  0
 20 16  1  0  0  0  0
 20 15  2  0  0  0  0
 21  7  1  0  0  0  0
 23 32  1  0  0  0  0
 23 28  1  0  0  0  0
 26  8  1  0  0  0  0
 27 25  1  0  0  0  0
 27 21  1  0  0  0  0
 28 15  1  0  0  0  0
 30 29  1  0  0  0  0
 30  4  1  0  0  0  0
 31 37  2  0  0  0  0
 31 32  1  0  0  0  0
 32 33  2  0  0  0  0
 33 36  1  0  0  0  0
 35 36  2  0  0  0  0
 36 34  1  0  0  0  0
 37 35  1  0  0  0  0
M  END
>  <MODEL>
2

>  <REMARK>
 VINA RESULT:      -8.2      2.301      7.839
  Name = 
  1 active torsions:
  status: ('A' for Active; 'I' for Inactive)
    1  A    between atoms: C_23  and  C_30
                            x       y       z     vdW  Elec       q    Type
                         _______ _______ _______ _____ _____    ______ ____

>  <TORSDO>
F 1

$$$$
=
 OpenBabel11112417253D

 37 44  0  0  1  0  0  0  0  0999 V2000
  193.0450  171.9910  141.3450 C   0  0  0  0  0  2  0  0  0  0  0  0
  196.6190  173.9970  143.9330 C   0  0  0  0  0  0  0  0  0  0  0  0
  192.3940  175.0010  144.6020 C   0  0  1  0  0  3  0  0  0  0  0  0
  192.9800  171.1750  140.0580 C   0  0  1  0  0  0  0  0  0  0  0  0
  189.7820  174.2740  141.8250 C   0  0  0  0  0  2  0  0  0  0  0  0
  194.8510  175.2740  145.2260 C   0  0  1  0  0  3  0  0  0  0  0  0
  191.8900  174.6550  143.1940 C   0  0  1  0  0  3  0  0  0  0  0  0
  190.4000  171.0510  139.8170 C   0  0  2  0  0  3  0  0  0  0  0  0
  193.7860  174.3450  144.6560 C   0  0  2  0  0  3  0  0  0  0  0  0
  190.6640  175.3190  142.5330 C   0  0  2  0  0  3  0  0  0  0  0  0
  194.3940  175.7680  146.5130 N   0  0  0  0  0  2  0  0  0  0  0  0
  191.7640  171.1720  139.1200 C   0  0  0  0  0  2  0  0  0  0  0  0
  194.1600  173.8760  143.2420 C   0  0  2  0  0  3  0  0  0  0  0  0
  196.8690  172.5060  144.0530 C   0  0  0  0  0  1  0  0  0  0  0  0
  191.6260  177.4570  144.7540 C   0  0  0  0  0  3  0  0  0  0  0  0
  193.3860  176.8010  146.2520 C   0  0  0  0  0  2  0  0  0  0  0  0
  195.5880  174.2560  142.8140 C   0  0  0  0  0  2  0  0  0  0  0  0
  189.7490  172.4000  140.1340 C   0  0  0  0  0  2  0  0  0  0  0  0
  190.5990  173.2300  141.0800 C   0  0  1  0  0  3  0  0  0  0  0  0
  192.4230  176.4480  145.1320 C   0  0  0  0  0  0  0  0  0  0  0  0
  193.1060  174.4330  142.2980 C   0  0  1  0  0  3  0  0  0  0  0  0
  196.1830  174.5400  145.3110 C   0  0  0  0  0  2  0  0  0  0  0  0
  189.8670  176.2000  143.4980 C   0  0  1  0  0  3  0  0  0  0  0  0
  197.9210  174.6670  143.5430 C   0  0  0  0  0  1  0  0  0  0  0  0
  191.6710  173.8200  140.3860 O   0  0  0  0  0  0  0  0  0  0  0  0
  190.4550  170.2340  140.9490 O   0  0  0  0  0  1  0  0  0  0  0  0
  192.8600  173.5030  141.0830 C   0  0  2  0  0  3  0  0  0  0  0  0
  190.6330  177.4920  143.6420 C   0  0  0  0  0  2  0  0  0  0  0  0
  194.2570  170.8760  139.4330 C   0  0  0  0  0  2  0  0  0  0  0  0
  193.5610  169.8380  140.2190 N   0  0  0  0  0  2  0  0  0  0  0  0
  187.4130  176.4160  143.9390 C   0  0  0  0  0  3  0  0  0  0  0  0
  188.4710  176.5110  143.0310 C   0  0  0  0  0  0  0  0  0  0  0  0
  188.2070  176.8890  141.7060 C   0  0  0  0  0  3  0  0  0  0  0  0
  186.6130  177.5440  139.9780 N   0  0  0  0  0  1  0  0  0  0  0  0
  185.8830  177.0600  142.2230 N   0  0  0  0  0  0  0  0  0  0  0  0
  186.8940  177.1600  141.3190 C   0  0  0  0  0  0  0  0  0  0  0  0
  186.1140  176.6960  143.5130 C   0  0  0  0  0  3  0  0  0  0  0  0
  2 14  1  0  0  0  0
  2 22  1  0  0  0  0
  3  9  1  0  0  0  0
  3 20  1  6  0  0  0
  4 12  1  6  0  0  0
  4 30  1  0  0  0  0
  4  1  1  0  0  0  0
  5 10  1  0  0  0  0
  6 22  1  1  0  0  0
  6 11  1  0  0  0  0
  7  3  1  0  0  0  0
  8 18  1  0  0  0  0
  8 26  1  0  0  0  0
  9  6  1  0  0  0  0
 10  7  1  0  0  0  0
 10 23  1  0  0  0  0
 12  8  1  0  0  0  0
 13  9  1  0  0  0  0
 15 20  2  0  0  0  0
 16 11  1  0  0  0  0
 17 13  1  0  0  0  0
 17  2  1  0  0  0  0
 18 19  1  0  0  0  0
 19  5  1  0  0  0  0
 20 16  1  0  0  0  0
 21  7  1  0  0  0  0
 21 13  1  0  0  0  0
 23 28  1  0  0  0  0
 24  2  1  0  0  0  0
 25 19  1  0  0  0  0
 25 27  1  0  0  0  0
 27  1  1  0  0  0  0
 27 21  1  0  0  0  0
 28 15  1  0  0  0  0
 29  4  1  0  0  0  0
 29 30  1  0  0  0  0
 32 23  1  0  0  0  0
 32 31  2  0  0  0  0
 33 32  1  0  0  0  0
 34 36  1  0  0  0  0
 35 37  2  0  0  0  0
 36 33  2  0  0  0  0
 36 35  1  0  0  0  0
 37 31  1  0  0  0  0
M  END
>  <MODEL>
3

>  <REMARK>
 VINA RESULT:      -8.0      2.323      5.592
  Name = 
  1 active torsions:
  status: ('A' for Active; 'I' for Inactive)
    1  A    between atoms: C_23  and  C_30
                            x       y       z     vdW  Elec       q    Type
                         _______ _______ _______ _____ _____    ______ ____

>  <TORSDO>
F 1

$$$$
=
 OpenBabel11112417253D

 37 44  0  0  1  0  0  0  0  0999 V2000
  191.5030  172.5400  141.5080 C   0  0  0  0  0  2  0  0  0  0  0  0
  194.1030  173.8310  145.3890 C   0  0  0  0  0  0  0  0  0  0  0  0
  189.9560  175.1600  144.7980 C   0  0  1  0  0  3  0  0  0  0  0  0
  191.8300  171.9050  140.1600 C   0  0  1  0  0  0  0  0  0  0  0  0
  188.3920  175.0580  141.2480 C   0  0  0  0  0  2  0  0  0  0  0  0
  192.0730  175.1040  146.2190 C   0  0  1  0  0  3  0  0  0  0  0  0
  189.9360  175.0490  143.2670 C   0  0  1  0  0  3  0  0  0  0  0  0
  189.4780  172.0710  139.0790 C   0  0  2  0  0  3  0  0  0  0  0  0
  191.2130  174.3670  145.1990 C   0  0  2  0  0  3  0  0  0  0  0  0
  189.0390  175.9100  142.3550 C   0  0  2  0  0  3  0  0  0  0  0  0
  191.2380  175.4730  147.3480 N   0  0  0  0  0  2  0  0  0  0  0  0
  191.0010  172.1430  138.8900 C   0  0  0  0  0  2  0  0  0  0  0  0
  192.0150  174.0460  143.9290 C   0  0  2  0  0  3  0  0  0  0  0  0
  194.2200  172.3190  145.3530 C   0  0  0  0  0  1  0  0  0  0  0  0
  189.3110  177.6410  145.0680 C   0  0  0  0  0  3  0  0  0  0  0  0
  190.4300  176.6270  146.9370 C   0  0  0  0  0  2  0  0  0  0  0  0
  193.5210  174.3330  144.0500 C   0  0  0  0  0  2  0  0  0  0  0  0
  188.8300  173.4280  139.3720 C   0  0  0  0  0  2  0  0  0  0  0  0
  189.3560  174.0410  140.6570 C   0  0  1  0  0  3  0  0  0  0  0  0
  189.8810  176.5170  145.5240 C   0  0  0  0  0  0  0  0  0  0  0  0
  191.3680  174.8220  142.7910 C   0  0  1  0  0  3  0  0  0  0  0  0
  193.2590  174.2360  146.6170 C   0  0  0  0  0  2  0  0  0  0  0  0
  188.0120  176.7370  143.1330 C   0  0  1  0  0  3  0  0  0  0  0  0
  195.4930  174.4110  145.5490 C   0  0  0  0  0  1  0  0  0  0  0  0
  190.6270  174.6040  140.4470 O   0  0  0  0  0  0  0  0  0  0  0  0
  189.1080  171.1160  140.0280 O   0  0  0  0  0  1  0  0  0  0  0  0
  191.4960  174.0830  141.4340 C   0  0  2  0  0  3  0  0  0  0  0  0
  188.7520  177.9170  143.7140 C   0  0  0  0  0  2  0  0  0  0  0  0
  193.2260  171.5610  139.9440 C   0  0  0  0  0  2  0  0  0  0  0  0
  192.2530  170.5060  140.2930 N   0  0  0  0  0  2  0  0  0  0  0  0
  187.0710  177.4390  140.9230 C   0  0  0  0  0  3  0  0  0  0  0  0
  186.8710  177.2430  142.2920 C   0  0  0  0  0  0  0  0  0  0  0  0
  185.6160  177.5260  142.8510 C   0  0  0  0  0  3  0  0  0  0  0  0
  183.3140  178.2910  142.5850 N   0  0  0  0  0  1  0  0  0  0  0  0
  184.8120  178.1820  140.7010 N   0  0  0  0  0  0  0  0  0  0  0  0
  184.5910  177.9990  142.0310 C   0  0  0  0  0  0  0  0  0  0  0  0
  186.0200  177.9140  140.1360 C   0  0  0  0  0  3  0  0  0  0  0  0
  2 24  1  0  0  0  0
  2 22  1  0  0  0  0
  3  9  1  0  0  0  0
  3 20  1  6  0  0  0
  4 12  1  6  0  0  0
  4 30  1  0  0  0  0
  4  1  1  0  0  0  0
  5 10  1  0  0  0  0
  6 22  1  1  0  0  0
  6 11  1  0  0  0  0
  7  3  1  0  0  0  0
  8 18  1  0  0  0  0
  8 26  1  0  0  0  0
  9  6  1  0  0  0  0
 10 23  1  0  0  0  0
 10  7  1  0  0  0  0
 12  8  1  0  0  0  0
 13 17  1  0  0  0  0
 13  9  1  0  0  0  0
 14  2  1  0  0  0  0
 15 20  2  0  0  0  0
 16 11  1  0  0  0  0
 17  2  1  0  0  0  0
 18 19  1  0  0  0  0
 19  5  1  0  0  0  0
 20 16  1  0  0  0  0
 21  7  1  0  0  0  0
 21 13  1  0  0  0  0
 23 28  1  0  0  0  0
 25 19  1  0  0  0  0
 25 27  1  0  0  0  0
 27  1  1  0  0  0  0
 27 21  1  0  0  0  0
 28 15  1  0  0  0  0
 29  4  1  0  0  0  0
 29 30  1  0  0  0  0
 31 32  1  0  0  0  0
 32 33  2  0  0  0  0
 32 23  1  0  0  0  0
 35 36  2  0  0  0  0
 36 34  1  0  0  0  0
 36 33  1  0  0  0  0
 37 35  1  0  0  0  0
 37 31  2  0  0  0  0
M  END
>  <MODEL>
4

>  <REMARK>
 VINA RESULT:      -7.9      2.483      5.692
  Name = 
  1 active torsions:
  status: ('A' for Active; 'I' for Inactive)
    1  A    between atoms: C_23  and  C_30
                            x       y       z     vdW  Elec       q    Type
                         _______ _______ _______ _____ _____    ______ ____

>  <TORSDO>
F 1

$$$$
=
 OpenBabel11112417253D

 37 44  0  0  1  0  0  0  0  0999 V2000
  188.0140  177.1330  144.0400 C   0  0  0  0  0  2  0  0  0  0  0  0
  191.2930  176.0000  147.4240 C   0  0  0  0  0  0  0  0  0  0  0  0
  191.9030  175.0810  143.1700 C   0  0  1  0  0  3  0  0  0  0  0  0
  186.5530  177.5740  144.0660 C   0  0  1  0  0  0  0  0  0  0  0  0
  188.8520  174.9620  140.7730 C   0  0  0  0  0  2  0  0  0  0  0  0
  192.7510  175.0600  145.5750 C   0  0  1  0  0  3  0  0  0  0  0  0
  190.4210  175.0240  142.7730 C   0  0  1  0  0  3  0  0  0  0  0  0
  186.1040  177.5500  141.5110 C   0  0  2  0  0  3  0  0  0  0  0  0
  191.8780  175.7700  144.5470 C   0  0  2  0  0  3  0  0  0  0  0  0
  189.8760  174.1710  141.6080 C   0  0  2  0  0  3  0  0  0  0  0  0
  194.0870  174.9130  145.0250 N   0  0  0  0  0  2  0  0  0  0  0  0
  185.5640  177.2890  142.9260 C   0  0  0  0  0  2  0  0  0  0  0  0
  190.4210  175.8570  145.0240 C   0  0  2  0  0  3  0  0  0  0  0  0
  191.0270  177.4760  147.6480 C   0  0  0  0  0  1  0  0  0  0  0  0
  192.6510  172.7320  142.4180 C   0  0  0  0  0  3  0  0  0  0  0  0
  194.0420  173.8180  144.0500 C   0  0  0  0  0  2  0  0  0  0  0  0
  190.2140  175.4200  146.4850 C   0  0  0  0  0  2  0  0  0  0  0  0
  186.7230  176.3150  140.8510 C   0  0  0  0  0  2  0  0  0  0  0  0
  187.9150  175.7940  141.6350 C   0  0  1  0  0  3  0  0  0  0  0  0
  192.8010  173.8300  143.1730 C   0  0  0  0  0  0  0  0  0  0  0  0
  189.5880  175.0360  144.0520 C   0  0  1  0  0  3  0  0  0  0  0  0
  192.7310  175.8300  146.8880 C   0  0  0  0  0  2  0  0  0  0  0  0
  190.9820  173.5540  140.7490 C   0  0  1  0  0  3  0  0  0  0  0  0
  191.1910  175.2910  148.7580 C   0  0  0  0  0  1  0  0  0  0  0  0
  187.4840  175.0730  142.7630 O   0  0  0  0  0  0  0  0  0  0  0  0
  186.9760  178.6410  141.4700 O   0  0  0  0  0  1  0  0  0  0  0  0
  188.1530  175.6010  143.8910 C   0  0  2  0  0  3  0  0  0  0  0  0
  191.5220  172.3720  141.5150 C   0  0  0  0  0  2  0  0  0  0  0  0
  185.9640  177.7350  145.3840 C   0  0  0  0  0  2  0  0  0  0  0  0
  186.3910  178.9230  144.6190 N   0  0  0  0  0  2  0  0  0  0  0  0
  189.7480  171.9250  139.3060 C   0  0  0  0  0  3  0  0  0  0  0  0
  190.5170  173.0880  139.3960 C   0  0  0  0  0  0  0  0  0  0  0  0
  190.8400  173.7910  138.2250 C   0  0  0  0  0  3  0  0  0  0  0  0
  190.7120  174.0170  135.7990 N   0  0  0  0  0  1  0  0  0  0  0  0
  189.6430  172.1790  136.9330 N   0  0  0  0  0  0  0  0  0  0  0  0
  190.3900  173.3140  136.9940 C   0  0  0  0  0  0  0  0  0  0  0  0
  189.3160  171.4810  138.0540 C   0  0  0  0  0  3  0  0  0  0  0  0
  1  4  1  0  0  0  0
  2 14  1  0  0  0  0
  2 24  1  0  0  0  0
  3 20  1  1  0  0  0
  3  9  1  0  0  0  0
  4 12  1  6  0  0  0
  4 30  1  0  0  0  0
  4 29  1  0  0  0  0
  5 10  1  0  0  0  0
  5 19  1  0  0  0  0
  6 22  1  1  0  0  0
  7  3  1  0  0  0  0
  7 21  1  0  0  0  0
  8 12  1  0  0  0  0
  9 13  1  0  0  0  0
  9  6  1  0  0  0  0
 10  7  1  0  0  0  0
 11  6  1  0  0  0  0
 13 17  1  0  0  0  0
 15 20  2  0  0  0  0
 16 11  1  0  0  0  0
 17  2  1  0  0  0  0
 18  8  1  0  0  0  0
 18 19  1  0  0  0  0
 19 25  1  0  0  0  0
 20 16  1  0  0  0  0
 21 13  1  0  0  0  0
 22  2  1  0  0  0  0
 23 28  1  0  0  0  0
 23 10  1  0  0  0  0
 25 27  1  0  0  0  0
 26  8  1  0  0  0  0
 27  1  1  0  0  0  0
 27 21  1  0  0  0  0
 28 15  1  0  0  0  0
 30 29  1  0  0  0  0
 31 32  1  0  0  0  0
 32 23  1  0  0  0  0
 33 32  2  0  0  0  0
 34 36  1  0  0  0  0
 35 36  2  0  0  0  0
 35 37  1  0  0  0  0
 36 33  1  0  0  0  0
 37 31  2  0  0  0  0
M  END
>  <MODEL>
5

>  <REMARK>
 VINA RESULT:      -7.7      2.213      7.552
  Name = 
  1 active torsions:
  status: ('A' for Active; 'I' for Inactive)
    1  A    between atoms: C_23  and  C_30
                            x       y       z     vdW  Elec       q    Type
                         _______ _______ _______ _____ _____    ______ ____

>  <TORSDO>
F 1

$$$$
=
 OpenBabel11112417253D

 37 44  0  0  1  0  0  0  0  0999 V2000
  190.7690  174.9160  143.3450 C   0  0  0  0  0  2  0  0  0  0  0  0
  189.7980  173.2570  138.8960 C   0  0  0  0  0  0  0  0  0  0  0  0
  191.6140  170.7260  141.9960 C   0  0  1  0  0  3  0  0  0  0  0  0
  190.8320  176.3000  143.9840 C   0  0  1  0  0  0  0  0  0  0  0  0
  193.3700  172.3770  145.0390 C   0  0  0  0  0  2  0  0  0  0  0  0
  190.6930  171.0020  139.6350 C   0  0  1  0  0  3  0  0  0  0  0  0
  192.2540  171.8570  142.8150 C   0  0  1  0  0  3  0  0  0  0  0  0
  191.7080  175.6000  146.3230 C   0  0  2  0  0  3  0  0  0  0  0  0
  190.6160  171.4640  141.0850 C   0  0  2  0  0  3  0  0  0  0  0  0
  193.5240  171.6830  143.6720 C   0  0  2  0  0  3  0  0  0  0  0  0
  190.5480  169.5580  139.6010 N   0  0  0  0  0  2  0  0  0  0  0  0
  191.7250  176.6350  145.1880 C   0  0  0  0  0  2  0  0  0  0  0  0
  190.8750  172.9740  141.1980 C   0  0  2  0  0  3  0  0  0  0  0  0
  188.4860  173.8590  139.3590 C   0  0  0  0  0  1  0  0  0  0  0  0
  193.7080  169.3110  141.4900 C   0  0  0  0  0  3  0  0  0  0  0  0
  191.8250  168.9790  140.0340 C   0  0  0  0  0  2  0  0  0  0  0  0
  190.9310  173.7030  139.8450 C   0  0  0  0  0  2  0  0  0  0  0  0
  192.8100  174.5420  146.2080 C   0  0  0  0  0  2  0  0  0  0  0  0
  192.6800  173.7270  144.9330 C   0  0  1  0  0  3  0  0  0  0  0  0
  192.4570  169.7030  141.2110 C   0  0  0  0  0  0  0  0  0  0  0  0
  192.1560  173.1440  142.0000 C   0  0  1  0  0  3  0  0  0  0  0  0
  189.6370  171.7240  138.8080 C   0  0  0  0  0  2  0  0  0  0  0  0
  193.9650  170.2230  143.8030 C   0  0  1  0  0  3  0  0  0  0  0  0
  190.1020  173.7880  137.5110 C   0  0  0  0  0  1  0  0  0  0  0  0
  193.1580  174.4600  143.8320 O   0  0  0  0  0  0  0  0  0  0  0  0
  190.4520  175.0100  146.4830 O   0  0  0  0  0  1  0  0  0  0  0  0
  192.1510  174.4480  142.8380 C   0  0  2  0  0  3  0  0  0  0  0  0
  194.6480  169.8570  142.5080 C   0  0  0  0  0  2  0  0  0  0  0  0
  190.5100  177.4160  143.1110 C   0  0  0  0  0  2  0  0  0  0  0  0
  189.5100  176.9280  144.0810 N   0  0  0  0  0  2  0  0  0  0  0  0
  196.1900  170.5350  144.9040 C   0  0  0  0  0  3  0  0  0  0  0  0
  194.9130  169.9700  144.9440 C   0  0  0  0  0  0  0  0  0  0  0  0
  194.5450  169.1780  146.0420 C   0  0  0  0  0  3  0  0  0  0  0  0
  195.1010  168.1660  148.1920 N   0  0  0  0  0  1  0  0  0  0  0  0
  196.6990  169.5280  147.0090 N   0  0  0  0  0  0  0  0  0  0  0  0
  195.4610  168.9680  147.0730 C   0  0  0  0  0  0  0  0  0  0  0  0
  197.0780  170.3000  145.9550 C   0  0  0  0  0  3  0  0  0  0  0  0
  1  4  1  0  0  0  0
  2 14  1  0  0  0  0
  2 17  1  0  0  0  0
  3 20  1  6  0  0  0
  3  7  1  0  0  0  0
  4 29  1  6  0  0  0
  4 30  1  0  0  0  0
  4 12  1  0  0  0  0
  6 22  1  6  0  0  0
  6  9  1  0  0  0  0
  7 10  1  0  0  0  0
  8 26  1  0  0  0  0
  9 13  1  0  0  0  0
  9  3  1  0  0  0  0
 10 23  1  0  0  0  0
 10  5  1  0  0  0  0
 11  6  1  0  0  0  0
 11 16  1  0  0  0  0
 12  8  1  0  0  0  0
 13 21  1  0  0  0  0
 15 28  1  0  0  0  0
 16 20  1  0  0  0  0
 17 13  1  0  0  0  0
 18  8  1  0  0  0  0
 19  5  1  0  0  0  0
 19 18  1  0  0  0  0
 20 15  2  0  0  0  0
 21  7  1  0  0  0  0
 21 27  1  0  0  0  0
 22  2  1  0  0  0  0
 23 32  1  0  0  0  0
 24  2  1  0  0  0  0
 25 19  1  0  0  0  0
 27  1  1  0  0  0  0
 27 25  1  0  0  0  0
 28 23  1  0  0  0  0
 29 30  1  0  0  0  0
 31 32  2  0  0  0  0
 31 37  1  0  0  0  0
 32 33  1  0  0  0  0
 33 36  2  0  0  0  0
 35 36  1  0  0  0  0
 36 34  1  0  0  0  0
 37 35  2  0  0  0  0
M  END
>  <MODEL>
6

>  <REMARK>
 VINA RESULT:      -7.7      2.717      6.924
  Name = 
  1 active torsions:
  status: ('A' for Active; 'I' for Inactive)
    1  A    between atoms: C_23  and  C_30
                            x       y       z     vdW  Elec       q    Type
                         _______ _______ _______ _____ _____    ______ ____

>  <TORSDO>
F 1

$$$$
=
 OpenBabel11112417253D

 37 44  0  0  1  0  0  0  0  0999 V2000
  192.6750  172.4160  141.2600 C   0  0  0  0  0  2  0  0  0  0  0  0
  196.6040  174.2680  143.4100 C   0  0  0  0  0  0  0  0  0  0  0  0
  192.5400  175.0330  144.8970 C   0  0  1  0  0  3  0  0  0  0  0  0
  192.4030  171.7400  139.9200 C   0  0  1  0  0  0  0  0  0  0  0  0
  189.5010  174.5080  142.5400 C   0  0  0  0  0  2  0  0  0  0  0  0
  195.0620  175.3320  145.1200 C   0  0  1  0  0  3  0  0  0  0  0  0
  191.8060  174.8210  143.5650 C   0  0  1  0  0  3  0  0  0  0  0  0
  189.8230  171.5440  140.1090 C   0  0  2  0  0  3  0  0  0  0  0  0
  193.9320  174.4290  144.6390 C   0  0  2  0  0  3  0  0  0  0  0  0
  190.4720  175.5040  143.2010 C   0  0  2  0  0  3  0  0  0  0  0  0
  194.8260  175.6670  146.5130 N   0  0  0  0  0  2  0  0  0  0  0  0
  191.0430  171.7910  139.2080 C   0  0  0  0  0  2  0  0  0  0  0  0
  194.0650  174.1280  143.1390 C   0  0  2  0  0  3  0  0  0  0  0  0
  196.8990  172.7840  143.3180 C   0  0  0  0  0  1  0  0  0  0  0  0
  191.7620  177.4270  145.4510 C   0  0  0  0  0  3  0  0  0  0  0  0
  193.7680  176.6820  146.5450 C   0  0  0  0  0  2  0  0  0  0  0  0
  195.3890  174.6060  142.5190 C   0  0  0  0  0  2  0  0  0  0  0  0
  189.2110  172.8260  140.6810 C   0  0  0  0  0  2  0  0  0  0  0  0
  190.1960  173.5820  141.5550 C   0  0  1  0  0  3  0  0  0  0  0  0
  192.6320  176.4150  145.5720 C   0  0  0  0  0  0  0  0  0  0  0  0
  192.8520  174.7420  142.4560 C   0  0  1  0  0  3  0  0  0  0  0  0
  196.4020  174.6440  144.8940 C   0  0  0  0  0  2  0  0  0  0  0  0
  189.8370  176.2460  144.3800 C   0  0  1  0  0  3  0  0  0  0  0  0
  197.8050  175.0250  142.8820 C   0  0  0  0  0  1  0  0  0  0  0  0
  191.1200  174.2830  140.7600 O   0  0  0  0  0  0  0  0  0  0  0  0
  190.0890  170.6130  141.1160 O   0  0  0  0  0  1  0  0  0  0  0  0
  192.4180  173.9390  141.2040 C   0  0  2  0  0  3  0  0  0  0  0  0
  190.5920  177.5430  144.5350 C   0  0  0  0  0  2  0  0  0  0  0  0
  193.5580  171.5590  139.0570 C   0  0  0  0  0  2  0  0  0  0  0  0
  193.0290  170.4170  139.8290 N   0  0  0  0  0  2  0  0  0  0  0  0
  187.9060  176.8770  142.9200 C   0  0  0  0  0  3  0  0  0  0  0  0
  188.3750  176.5510  144.1950 C   0  0  0  0  0  0  0  0  0  0  0  0
  187.4770  176.5200  145.2720 C   0  0  0  0  0  3  0  0  0  0  0  0
  185.2100  176.7900  146.1350 N   0  0  0  0  0  1  0  0  0  0  0  0
  185.7000  177.1320  143.8000 N   0  0  0  0  0  0  0  0  0  0  0  0
  186.1320  176.8170  145.0510 C   0  0  0  0  0  0  0  0  0  0  0  0
  186.5520  177.1670  142.7400 C   0  0  0  0  0  3  0  0  0  0  0  0
  2 22  1  0  0  0  0
  3 20  1  6  0  0  0
  4 29  1  6  0  0  0
  4  1  1  0  0  0  0
  5 10  1  0  0  0  0
  6 22  1  1  0  0  0
  6 11  1  0  0  0  0
  7  3  1  0  0  0  0
  8 18  1  0  0  0  0
  8 26  1  0  0  0  0
  9  3  1  0  0  0  0
  9  6  1  0  0  0  0
 10  7  1  0  0  0  0
 10 23  1  0  0  0  0
 11 16  1  0  0  0  0
 12  4  1  0  0  0  0
 12  8  1  0  0  0  0
 13  9  1  0  0  0  0
 14  2  1  0  0  0  0
 15 20  2  0  0  0  0
 17 13  1  0  0  0  0
 17  2  1  0  0  0  0
 18 19  1  0  0  0  0
 19  5  1  0  0  0  0
 20 16  1  0  0  0  0
 21 13  1  0  0  0  0
 21  7  1  0  0  0  0
 23 28  1  0  0  0  0
 24  2  1  0  0  0  0
 25 27  1  0  0  0  0
 25 19  1  0  0  0  0
 27  1  1  0  0  0  0
 27 21  1  0  0  0  0
 28 15  1  0  0  0  0
 29 30  1  0  0  0  0
 30  4  1  0  0  0  0
 31 32  1  0  0  0  0
 32 23  1  0  0  0  0
 32 33  2  0  0  0  0
 35 36  2  0  0  0  0
 36 33  1  0  0  0  0
 36 34  1  0  0  0  0
 37 31  2  0  0  0  0
 37 35  1  0  0  0  0
M  END
>  <MODEL>
7

>  <REMARK>
 VINA RESULT:      -7.6      2.058      5.499
  Name = 
  1 active torsions:
  status: ('A' for Active; 'I' for Inactive)
    1  A    between atoms: C_23  and  C_30
                            x       y       z     vdW  Elec       q    Type
                         _______ _______ _______ _____ _____    ______ ____

>  <TORSDO>
F 1

$$$$
=
 OpenBabel11112417253D

 37 44  0  0  1  0  0  0  0  0999 V2000
  191.5590  173.2280  141.2990 C   0  0  0  0  0  2  0  0  0  0  0  0
  195.9050  174.5730  142.9690 C   0  0  0  0  0  0  0  0  0  0  0  0
  192.2100  175.2400  145.2510 C   0  0  1  0  0  3  0  0  0  0  0  0
  191.0210  172.7830  139.9430 C   0  0  1  0  0  0  0  0  0  0  0  0
  188.7880  175.2050  143.4200 C   0  0  0  0  0  2  0  0  0  0  0  0
  194.7470  175.4080  145.0650 C   0  0  1  0  0  3  0  0  0  0  0  0
  191.2490  175.2680  144.0540 C   0  0  1  0  0  3  0  0  0  0  0  0
  188.5040  172.6530  140.5550 C   0  0  2  0  0  3  0  0  0  0  0  0
  193.4970  174.6340  144.6630 C   0  0  2  0  0  3  0  0  0  0  0  0
  189.9180  176.0480  144.0390 C   0  0  2  0  0  3  0  0  0  0  0  0
  194.7730  175.5270  146.5120 N   0  0  0  0  0  2  0  0  0  0  0  0
  189.5670  172.9960  139.4990 C   0  0  0  0  0  2  0  0  0  0  0  0
  193.3540  174.5700  143.1350 C   0  0  2  0  0  3  0  0  0  0  0  0
  196.0860  173.1120  142.6050 C   0  0  0  0  0  1  0  0  0  0  0  0
  191.6910  177.5430  146.2860 C   0  0  0  0  0  3  0  0  0  0  0  0
  193.8020  176.5620  146.8830 C   0  0  0  0  0  2  0  0  0  0  0  0
  194.5810  175.0920  142.3690 C   0  0  0  0  0  2  0  0  0  0  0  0
  188.0800  173.8500  141.4120 C   0  0  0  0  0  2  0  0  0  0  0  0
  189.2460  174.4220  142.2000 C   0  0  1  0  0  3  0  0  0  0  0  0
  192.5030  176.4930  146.0980 C   0  0  0  0  0  0  0  0  0  0  0  0
  192.0840  175.3280  142.7780 C   0  0  1  0  0  3  0  0  0  0  0  0
  195.9830  174.7170  144.5050 C   0  0  0  0  0  2  0  0  0  0  0  0
  189.5410  176.6170  145.4100 C   0  0  1  0  0  3  0  0  0  0  0  0
  197.0450  175.3600  142.3550 C   0  0  0  0  0  1  0  0  0  0  0  0
  190.0630  175.2060  141.3670 O   0  0  0  0  0  0  0  0  0  0  0  0
  188.8780  171.5660  141.3480 O   0  0  0  0  0  1  0  0  0  0  0  0
  191.3930  174.7490  141.5170 C   0  0  2  0  0  3  0  0  0  0  0  0
  190.3920  177.8450  145.6210 C   0  0  0  0  0  2  0  0  0  0  0  0
  191.9990  172.6980  138.8710 C   0  0  0  0  0  2  0  0  0  0  0  0
  191.5370  171.4690  139.5450 N   0  0  0  0  0  2  0  0  0  0  0  0
  187.3230  176.4290  146.5530 C   0  0  0  0  0  3  0  0  0  0  0  0
  188.0920  177.0000  145.5350 C   0  0  0  0  0  0  0  0  0  0  0  0
  187.4950  177.9130  144.6520 C   0  0  0  0  0  3  0  0  0  0  0  0
  185.5280  179.1550  143.9160 N   0  0  0  0  0  1  0  0  0  0  0  0
  185.4190  177.6610  145.8040 N   0  0  0  0  0  0  0  0  0  0  0  0
  186.1450  178.2320  144.8050 C   0  0  0  0  0  0  0  0  0  0  0  0
  185.9760  176.7750  146.6720 C   0  0  0  0  0  3  0  0  0  0  0  0
  1 27  1  0  0  0  0
  2 22  1  0  0  0  0
  3 20  1  6  0  0  0
  4 29  1  6  0  0  0
  4  1  1  0  0  0  0
  5 10  1  0  0  0  0
  6 22  1  1  0  0  0
  6 11  1  0  0  0  0
  7  3  1  0  0  0  0
  8 26  1  0  0  0  0
  8 18  1  0  0  0  0
  9  6  1  0  0  0  0
  9  3  1  0  0  0  0
 10  7  1  0  0  0  0
 10 23  1  0  0  0  0
 11 16  1  0  0  0  0
 12  4  1  0  0  0  0
 12  8  1  0  0  0  0
 13  9  1  0  0  0  0
 14  2  1  0  0  0  0
 17  2  1  0  0  0  0
 17 13  1  0  0  0  0
 18 19  1  0  0  0  0
 19  5  1  0  0  0  0
 20 15  2  0  0  0  0
 20 16  1  0  0  0  0
 21 13  1  0  0  0  0
 21  7  1  0  0  0  0
 23 32  1  0  0  0  0
 23 28  1  0  0  0  0
 24  2  1  0  0  0  0
 25 27  1  0  0  0  0
 25 19  1  0  0  0  0
 27 21  1  0  0  0  0
 28 15  1  0  0  0  0
 29 30  1  0  0  0  0
 30  4  1  0  0  0  0
 31 37  1  0  0  0  0
 32 31  2  0  0  0  0
 33 36  2  0  0  0  0
 33 32  1  0  0  0  0
 34 36  1  0  0  0  0
 35 37  2  0  0  0  0
 36 35  1  0  0  0  0
M  END
>  <MODEL>
8

>  <REMARK>
 VINA RESULT:      -7.6      1.869      5.382
  Name = 
  1 active torsions:
  status: ('A' for Active; 'I' for Inactive)
    1  A    between atoms: C_23  and  C_30
                            x       y       z     vdW  Elec       q    Type
                         _______ _______ _______ _____ _____    ______ ____

>  <TORSDO>
F 1

$$$$
=
 OpenBabel11112417253D

 37 44  0  0  1  0  0  0  0  0999 V2000
  192.3630  175.0690  145.3030 C   0  0  0  0  0  2  0  0  0  0  0  0
  196.3360  172.2990  145.4880 C   0  0  0  0  0  0  0  0  0  0  0  0
  194.2660  173.1780  141.7130 C   0  0  1  0  0  3  0  0  0  0  0  0
  191.3810  175.6070  146.3390 C   0  0  1  0  0  0  0  0  0  0  0  0
  190.5770  174.3820  141.7790 C   0  0  0  0  0  2  0  0  0  0  0  0
  196.1900  172.0690  142.9670 C   0  0  1  0  0  3  0  0  0  0  0  0
  192.8780  173.4440  142.3130 C   0  0  1  0  0  3  0  0  0  0  0  0
  189.6750  176.6960  144.7170 C   0  0  2  0  0  3  0  0  0  0  0  0
  195.2010  173.2290  142.9350 C   0  0  2  0  0  3  0  0  0  0  0  0
  191.5550  173.2150  141.5530 C   0  0  2  0  0  3  0  0  0  0  0  0
  196.8960  172.0290  141.6990 N   0  0  0  0  0  2  0  0  0  0  0  0
  189.9130  175.9260  146.0260 C   0  0  0  0  0  2  0  0  0  0  0  0
  194.3420  173.2580  144.2070 C   0  0  2  0  0  3  0  0  0  0  0  0
  196.7360  173.5660  146.2190 C   0  0  0  0  0  1  0  0  0  0  0  0
  193.6750  171.2920  140.0570 C   0  0  0  0  0  3  0  0  0  0  0  0
  195.9830  171.4500  140.7070 C   0  0  0  0  0  2  0  0  0  0  0  0
  194.8040  172.2770  145.2980 C   0  0  0  0  0  2  0  0  0  0  0  0
  189.4020  175.7910  143.5120 C   0  0  0  0  0  2  0  0  0  0  0  0
  190.5740  174.8710  143.2180 C   0  0  1  0  0  3  0  0  0  0  0  0
  194.5550  171.9540  140.8230 C   0  0  0  0  0  0  0  0  0  0  0  0
  192.9050  173.0080  143.7760 C   0  0  1  0  0  3  0  0  0  0  0  0
  197.1220  172.2200  144.1610 C   0  0  0  0  0  2  0  0  0  0  0  0
  191.7630  172.9020  140.0690 C   0  0  1  0  0  3  0  0  0  0  0  0
  196.7240  171.1120  146.3460 C   0  0  0  0  0  1  0  0  0  0  0  0
  190.5920  173.7950  144.1230 O   0  0  0  0  0  0  0  0  0  0  0  0
  190.6980  177.6080  144.4470 O   0  0  0  0  0  1  0  0  0  0  0  0
  191.8850  173.7330  144.6920 C   0  0  2  0  0  3  0  0  0  0  0  0
  192.1960  171.4590  139.9850 C   0  0  0  0  0  2  0  0  0  0  0  0
  191.6690  175.2640  147.7220 C   0  0  0  0  0  2  0  0  0  0  0  0
  191.9940  176.6120  147.2150 N   0  0  0  0  0  2  0  0  0  0  0  0
  189.3190  172.5490  139.6620 C   0  0  0  0  0  3  0  0  0  0  0  0
  190.5310  173.0920  139.2270 C   0  0  0  0  0  0  0  0  0  0  0  0
  190.5720  173.7970  138.0140 C   0  0  0  0  0  3  0  0  0  0  0  0
  189.4320  174.6530  136.0340 N   0  0  0  0  0  1  0  0  0  0  0  0
  188.2370  173.4020  137.7110 N   0  0  0  0  0  0  0  0  0  0  0  0
  189.4040  173.9410  137.2650 C   0  0  0  0  0  0  0  0  0  0  0  0
  188.1720  172.7150  138.8830 C   0  0  0  0  0  3  0  0  0  0  0  0
  2 14  1  0  0  0  0
  2 24  1  0  0  0  0
  3 20  1  1  0  0  0
  3  7  1  0  0  0  0
  3  9  1  0  0  0  0
  4  1  1  6  0  0  0
  4 30  1  0  0  0  0
  4 29  1  0  0  0  0
  5 19  1  0  0  0  0
  6 22  1  1  0  0  0
  7 21  1  0  0  0  0
  8 12  1  0  0  0  0
  9  6  1  0  0  0  0
  9 13  1  0  0  0  0
 10  5  1  0  0  0  0
 10  7  1  0  0  0  0
 11  6  1  0  0  0  0
 12  4  1  0  0  0  0
 13 17  1  0  0  0  0
 15 20  2  0  0  0  0
 16 20  1  0  0  0  0
 16 11  1  0  0  0  0
 17  2  1  0  0  0  0
 18  8  1  0  0  0  0
 19 18  1  0  0  0  0
 19 25  1  0  0  0  0
 21 13  1  0  0  0  0
 21 27  1  0  0  0  0
 22  2  1  0  0  0  0
 23 10  1  0  0  0  0
 25 27  1  0  0  0  0
 26  8  1  0  0  0  0
 27  1  1  0  0  0  0
 28 15  1  0  0  0  0
 28 23  1  0  0  0  0
 30 29  1  0  0  0  0
 32 31  1  0  0  0  0
 32 23  1  0  0  0  0
 33 32  2  0  0  0  0
 34 36  1  0  0  0  0
 35 37  1  0  0  0  0
 36 35  2  0  0  0  0
 36 33  1  0  0  0  0
 37 31  2  0  0  0  0
M  END
>  <MODEL>
9

>  <REMARK>
 VINA RESULT:      -7.5      2.531      5.888
  Name = 
  1 active torsions:
  status: ('A' for Active; 'I' for Inactive)
    1  A    between atoms: C_23  and  C_30
                            x       y       z     vdW  Elec       q    Type
                         _______ _______ _______ _____ _____    ______ ____

>  <TORSDO>
F 1

$$$$
