=
 OpenBabel11112416433D

 32 37  0  0  1  0  0  0  0  0999 V2000
  186.8870  177.1640  140.4940 C   0  0  0  0  0  2  0  0  0  0  0  0
  190.6300  175.9020  143.5810 C   0  0  2  0  0  3  0  0  0  0  0  0
  190.5360  177.5380  148.2400 C   0  0  0  0  0  3  0  0  0  0  0  0
  191.5660  176.6640  148.5760 C   0  0  0  0  0  3  0  0  0  0  0  0
  192.5170  174.2930  142.9680 C   0  0  2  0  0  3  0  0  0  0  0  0
  193.9750  174.0660  143.3720 C   0  0  2  0  0  3  0  0  0  0  0  0
  188.1690  175.6920  142.9050 C   0  0  1  0  0  3  0  0  0  0  0  0
  188.9060  177.6590  144.3380 C   0  0  0  0  0  2  0  0  0  0  0  0
  194.9510  172.4990  145.0050 C   0  0  2  0  0  3  0  0  0  0  0  0
  186.9670  177.9970  142.7640 C   0  0  0  0  0  2  0  0  0  0  0  0
  190.0670  177.5900  146.9280 C   0  0  0  0  0  3  0  0  0  0  0  0
  190.1180  176.8170  144.6700 C   0  0  0  0  0  0  0  0  0  0  0  0
  190.6190  176.7730  145.9230 C   0  0  0  0  0  0  0  0  0  0  0  0
  192.2570  175.1030  145.3410 C   0  0  0  0  0  0  0  0  0  0  0  0
  195.1600  172.0560  143.5910 C   0  0  0  0  0  2  0  0  0  0  0  0
  187.8160  175.9480  140.6330 C   0  0  0  0  0  2  0  0  0  0  0  0
  188.2830  177.2440  143.0040 C   0  0  2  0  0  3  0  0  0  0  0  0
  194.6100  172.8920  142.7030 C   0  0  0  0  0  2  0  0  0  0  0  0
  187.4820  175.1880  141.7710 O   0  0  0  0  0  0  0  0  0  0  0  0
  186.1250  177.3930  141.7260 N   0  0  0  0  0  0  0  0  0  0  0  0
  192.1300  175.8460  147.5960 C   0  0  0  0  0  3  0  0  0  0  0  0
  191.6770  175.8890  146.2670 C   0  0  0  0  0  0  0  0  0  0  0  0
  193.2950  174.1810  145.7130 N   0  0  0  0  0  0  0  0  0  0  0  0
  189.5110  174.9630  143.1070 C   0  0  0  0  0  2  0  0  0  0  0  0
  192.4890  174.9160  141.5770 C   0  0  0  0  0  1  0  0  0  0  0  0
  194.2330  171.3950  145.7630 C   0  0  0  0  0  1  0  0  0  0  0  0
  191.8370  175.1560  143.9580 N   0  0  0  0  0  0  0  0  0  0  0  0
  194.0560  173.6660  144.7980 C   0  0  0  0  0  0  0  0  0  0  0  0
  185.0890  178.3640  141.4140 C   0  0  0  0  0  2  0  0  0  0  0  0
  183.7800  177.9650  142.0760 C   0  0  2  0  0  3  0  0  0  0  0  0
  182.6300  178.2910  141.1490 C   0  0  0  0  0  1  0  0  0  0  0  0
  183.6220  178.6660  143.2720 O   0  0  0  0  0  1  0  0  0  0  0  0
  1 16  1  0  0  0  0
  1 20  1  0  0  0  0
  2 24  1  1  0  0  0
  2 27  1  0  0  0  0
  2 12  1  0  0  0  0
  3  4  1  0  0  0  0
  5 25  1  6  0  0  0
  5  6  1  0  0  0  0
  5 27  1  0  0  0  0
  6 18  1  6  0  0  0
  6 28  1  0  0  0  0
  7 17  1  0  0  0  0
  7 24  1  6  0  0  0
  8 12  1  0  0  0  0
  9 26  1  1  0  0  0
 11  3  2  0  0  0  0
 12 13  2  0  0  0  0
 13 22  1  0  0  0  0
 13 11  1  0  0  0  0
 14 23  1  0  0  0  0
 14 22  2  0  0  0  0
 15  9  1  0  0  0  0
 16 19  1  0  0  0  0
 17 10  1  1  0  0  0
 17  8  1  0  0  0  0
 18 15  1  0  0  0  0
 19  7  1  0  0  0  0
 20 10  1  0  0  0  0
 21  4  2  0  0  0  0
 22 21  1  0  0  0  0
 27 14  1  0  0  0  0
 28  9  1  0  0  0  0
 28 23  2  0  0  0  0
 29 20  1  0  0  0  0
 29 30  1  0  0  0  0
 30 31  1  6  0  0  0
 30 32  1  0  0  0  0
M  END
>  <MODEL>
1

>  <REMARK>
 VINA RESULT:      -7.8      0.000      0.000
  Name = 
  2 active torsions:
  status: ('A' for Active; 'I' for Inactive)
    1  A    between atoms: N_20  and  C_29
    2  A    between atoms: C_29  and  C_30
                            x       y       z     vdW  Elec       q    Type
                         _______ _______ _______ _____ _____    ______ ____

>  <TORSDO>
F 2

$$$$
=
 OpenBabel11112416433D

 32 37  0  0  1  0  0  0  0  0999 V2000
  187.1660  177.3780  146.7010 C   0  0  0  0  0  2  0  0  0  0  0  0
  190.9210  175.1770  144.2150 C   0  0  2  0  0  3  0  0  0  0  0  0
  190.1260  173.5910  139.6050 C   0  0  0  0  0  3  0  0  0  0  0  0
  191.4940  173.4030  139.4260 C   0  0  0  0  0  3  0  0  0  0  0  0
  193.3100  174.9810  145.1000 C   0  0  2  0  0  3  0  0  0  0  0  0
  194.4990  174.0350  144.9210 C   0  0  2  0  0  3  0  0  0  0  0  0
  189.3480  177.1760  144.5060 C   0  0  1  0  0  3  0  0  0  0  0  0
  188.5490  175.1370  143.2140 C   0  0  0  0  0  2  0  0  0  0  0  0
  196.4670  174.2100  143.4480 C   0  0  2  0  0  3  0  0  0  0  0  0
  186.8370  176.4900  144.4750 C   0  0  0  0  0  2  0  0  0  0  0  0
  189.6410  174.0460  140.8310 C   0  0  0  0  0  3  0  0  0  0  0  0
  190.0150  174.7960  143.0650 C   0  0  0  0  0  0  0  0  0  0  0  0
  190.5100  174.3200  141.9040 C   0  0  0  0  0  0  0  0  0  0  0  0
  192.7790  174.3420  142.7190 C   0  0  0  0  0  0  0  0  0  0  0  0
  196.7910  174.5230  144.8750 C   0  0  0  0  0  2  0  0  0  0  0  0
  188.6960  177.5190  146.6990 C   0  0  0  0  0  2  0  0  0  0  0  0
  188.2990  176.0250  144.4340 C   0  0  2  0  0  3  0  0  0  0  0  0
  195.7200  174.4540  145.6730 C   0  0  0  0  0  2  0  0  0  0  0  0
  189.1400  178.1470  145.5180 O   0  0  0  0  0  0  0  0  0  0  0  0
  186.6080  177.6300  145.3690 N   0  0  0  0  0  0  0  0  0  0  0  0
  192.3750  173.6660  140.4750 C   0  0  0  0  0  3  0  0  0  0  0  0
  191.9050  174.1180  141.7200 C   0  0  0  0  0  0  0  0  0  0  0  0
  194.1900  174.1770  142.5050 N   0  0  0  0  0  0  0  0  0  0  0  0
  190.8060  176.6800  144.5080 C   0  0  0  0  0  2  0  0  0  0  0  0
  192.6960  174.7370  146.4730 C   0  0  0  0  0  1  0  0  0  0  0  0
  196.8660  175.3930  142.5830 C   0  0  0  0  0  1  0  0  0  0  0  0
  192.3190  174.7690  144.0220 N   0  0  0  0  0  0  0  0  0  0  0  0
  194.9890  174.0840  143.5220 C   0  0  0  0  0  0  0  0  0  0  0  0
  185.1670  177.7530  145.5240 C   0  0  0  0  0  2  0  0  0  0  0  0
  184.6720  179.0150  144.8380 C   0  0  2  0  0  3  0  0  0  0  0  0
  184.0340  178.6490  143.5150 C   0  0  0  0  0  1  0  0  0  0  0  0
  185.7410  179.8810  144.6120 O   0  0  0  0  0  1  0  0  0  0  0  0
  2 24  1  6  0  0  0
  3 11  2  0  0  0  0
  4  3  1  0  0  0  0
  4 21  2  0  0  0  0
  5 25  1  1  0  0  0
  6  5  1  0  0  0  0
  6 18  1  1  0  0  0
  7 24  1  1  0  0  0
  7 19  1  0  0  0  0
  9 26  1  6  0  0  0
  9 28  1  0  0  0  0
  9 15  1  0  0  0  0
 10 20  1  0  0  0  0
 11 13  1  0  0  0  0
 12  8  1  0  0  0  0
 12  2  1  0  0  0  0
 13 12  2  0  0  0  0
 14 27  1  0  0  0  0
 15 18  1  0  0  0  0
 16  1  1  0  0  0  0
 17  8  1  6  0  0  0
 17 10  1  0  0  0  0
 17  7  1  0  0  0  0
 19 16  1  0  0  0  0
 20 29  1  0  0  0  0
 20  1  1  0  0  0  0
 21 22  1  0  0  0  0
 22 13  1  0  0  0  0
 22 14  2  0  0  0  0
 23 14  1  0  0  0  0
 23 28  2  0  0  0  0
 27  2  1  0  0  0  0
 27  5  1  0  0  0  0
 28  6  1  0  0  0  0
 30 31  1  6  0  0  0
 30 29  1  0  0  0  0
 32 30  1  0  0  0  0
M  END
>  <MODEL>
2

>  <REMARK>
 VINA RESULT:      -7.7      2.262      4.510
  Name = 
  2 active torsions:
  status: ('A' for Active; 'I' for Inactive)
    1  A    between atoms: N_20  and  C_29
    2  A    between atoms: C_29  and  C_30
                            x       y       z     vdW  Elec       q    Type
                         _______ _______ _______ _____ _____    ______ ____

>  <TORSDO>
F 2

$$$$
=
 OpenBabel11112416433D

 32 37  0  0  1  0  0  0  0  0999 V2000
  194.5450  173.7900  141.6570 C   0  0  0  0  0  2  0  0  0  0  0  0
  190.7340  175.8020  144.2160 C   0  0  2  0  0  3  0  0  0  0  0  0
  191.5660  177.5410  148.7640 C   0  0  0  0  0  3  0  0  0  0  0  0
  190.3200  178.1620  148.7630 C   0  0  0  0  0  3  0  0  0  0  0  0
  188.3960  176.1740  143.2570 C   0  0  2  0  0  3  0  0  0  0  0  0
  186.9640  176.2590  143.7890 C   0  0  2  0  0  3  0  0  0  0  0  0
  192.9540  176.1020  142.9790 C   0  0  1  0  0  3  0  0  0  0  0  0
  192.9730  175.3730  145.4140 C   0  0  0  0  0  2  0  0  0  0  0  0
  185.5970  178.2240  144.3770 C   0  0  2  0  0  3  0  0  0  0  0  0
  194.8440  174.5810  143.9240 C   0  0  0  0  0  2  0  0  0  0  0  0
  191.9690  176.7850  147.6630 C   0  0  0  0  0  3  0  0  0  0  0  0
  191.5660  175.9260  145.4730 C   0  0  0  0  0  0  0  0  0  0  0  0
  191.1340  176.6320  146.5400 C   0  0  0  0  0  0  0  0  0  0  0  0
  189.0120  177.1260  145.5090 C   0  0  0  0  0  0  0  0  0  0  0  0
  185.1910  177.6140  143.0720 C   0  0  0  0  0  2  0  0  0  0  0  0
  193.2730  174.5650  141.2790 C   0  0  0  0  0  2  0  0  0  0  0  0
  193.3650  174.9870  143.9870 C   0  0  2  0  0  3  0  0  0  0  0  0
  185.9470  176.5620  142.7380 C   0  0  0  0  0  2  0  0  0  0  0  0
  193.3860  175.9220  141.6400 O   0  0  0  0  0  0  0  0  0  0  0  0
  195.3930  174.5710  142.5630 N   0  0  0  0  0  0  0  0  0  0  0  0
  189.4760  178.0220  147.6620 C   0  0  0  0  0  3  0  0  0  0  0  0
  189.8590  177.2590  146.5460 C   0  0  0  0  0  0  0  0  0  0  0  0
  187.7450  177.8030  145.5090 N   0  0  0  0  0  0  0  0  0  0  0  0
  191.4570  176.4590  143.0330 C   0  0  0  0  0  2  0  0  0  0  0  0
  188.5670  174.8430  142.5340 C   0  0  0  0  0  1  0  0  0  0  0  0
  185.9410  179.6850  144.1490 C   0  0  0  0  0  1  0  0  0  0  0  0
  189.3650  176.3130  144.3660 N   0  0  0  0  0  0  0  0  0  0  0  0
  186.8170  177.4340  144.6820 C   0  0  0  0  0  0  0  0  0  0  0  0
  196.6770  173.8950  142.6380 C   0  0  0  0  0  2  0  0  0  0  0  0
  197.7860  174.8190  142.1660 C   0  0  2  0  0  3  0  0  0  0  0  0
  197.5810  176.1940  142.7630 C   0  0  0  0  0  1  0  0  0  0  0  0
  197.7630  174.9130  140.7740 O   0  0  0  0  0  1  0  0  0  0  0  0
  1 20  1  0  0  0  0
  2 24  1  6  0  0  0
  2 27  1  0  0  0  0
  2 12  1  0  0  0  0
  4  3  1  0  0  0  0
  5 25  1  1  0  0  0
  5  6  1  0  0  0  0
  5 27  1  0  0  0  0
  6 18  1  6  0  0  0
  6 28  1  0  0  0  0
  7 24  1  6  0  0  0
  7 17  1  0  0  0  0
  8 12  1  0  0  0  0
  9 26  1  6  0  0  0
  9 28  1  0  0  0  0
 11  3  2  0  0  0  0
 12 13  2  0  0  0  0
 13 22  1  0  0  0  0
 13 11  1  0  0  0  0
 14 23  1  0  0  0  0
 14 22  2  0  0  0  0
 15  9  1  0  0  0  0
 16 19  1  0  0  0  0
 16  1  1  0  0  0  0
 17 10  1  1  0  0  0
 17  8  1  0  0  0  0
 18 15  1  0  0  0  0
 19  7  1  0  0  0  0
 20 29  1  0  0  0  0
 20 10  1  0  0  0  0
 21  4  2  0  0  0  0
 22 21  1  0  0  0  0
 27 14  1  0  0  0  0
 28 23  2  0  0  0  0
 30 29  1  0  0  0  0
 30 31  1  1  0  0  0
 32 30  1  0  0  0  0
M  END
>  <MODEL>
3

>  <REMARK>
 VINA RESULT:      -7.7      2.858      7.787
  Name = 
  2 active torsions:
  status: ('A' for Active; 'I' for Inactive)
    1  A    between atoms: N_20  and  C_29
    2  A    between atoms: C_29  and  C_30
                            x       y       z     vdW  Elec       q    Type
                         _______ _______ _______ _____ _____    ______ ____

>  <TORSDO>
F 2

$$$$
=
 OpenBabel11112416433D

 32 37  0  0  1  0  0  0  0  0999 V2000
  187.6530  177.3990  145.6790 C   0  0  0  0  0  2  0  0  0  0  0  0
  191.5850  174.9150  143.8110 C   0  0  2  0  0  3  0  0  0  0  0  0
  191.2990  173.0930  139.2280 C   0  0  0  0  0  3  0  0  0  0  0  0
  192.6690  172.8430  139.2340 C   0  0  0  0  0  3  0  0  0  0  0  0
  193.8340  174.6800  145.0000 C   0  0  2  0  0  3  0  0  0  0  0  0
  194.9920  173.6810  145.0250 C   0  0  2  0  0  3  0  0  0  0  0  0
  190.0800  176.9860  143.7920 C   0  0  1  0  0  3  0  0  0  0  0  0
  189.3560  174.9070  142.5200 C   0  0  0  0  0  2  0  0  0  0  0  0
  197.1340  173.6940  143.8050 C   0  0  2  0  0  3  0  0  0  0  0  0
  187.5640  176.3950  143.4800 C   0  0  0  0  0  2  0  0  0  0  0  0
  190.6860  173.6370  140.3570 C   0  0  0  0  0  3  0  0  0  0  0  0
  190.8130  174.5020  142.5770 C   0  0  0  0  0  0  0  0  0  0  0  0
  191.4270  173.9400  141.5150 C   0  0  0  0  0  0  0  0  0  0  0  0
  193.5750  173.9240  142.6090 C   0  0  0  0  0  0  0  0  0  0  0  0
  197.2910  174.0780  145.2430 C   0  0  0  0  0  2  0  0  0  0  0  0
  189.1760  177.4820  145.8630 C   0  0  0  0  0  2  0  0  0  0  0  0
  188.9970  175.8730  143.6500 C   0  0  2  0  0  3  0  0  0  0  0  0
  196.1270  174.0960  145.9010 C   0  0  0  0  0  2  0  0  0  0  0  0
  189.7920  178.0220  144.7170 O   0  0  0  0  0  0  0  0  0  0  0  0
  187.2770  177.5940  144.2750 N   0  0  0  0  0  0  0  0  0  0  0  0
  193.4230  173.1330  140.3710 C   0  0  0  0  0  3  0  0  0  0  0  0
  192.8230  173.6750  141.5210 C   0  0  0  0  0  0  0  0  0  0  0  0
  194.9930  173.6930  142.5850 N   0  0  0  0  0  0  0  0  0  0  0  0
  191.5030  176.4360  144.0050 C   0  0  0  0  0  2  0  0  0  0  0  0
  193.0440  174.5410  146.2960 C   0  0  0  0  0  1  0  0  0  0  0  0
  197.6910  174.8080  142.9360 C   0  0  0  0  0  1  0  0  0  0  0  0
  192.9760  174.4430  143.8180 N   0  0  0  0  0  0  0  0  0  0  0  0
  195.6540  173.6290  143.6980 C   0  0  0  0  0  0  0  0  0  0  0  0
  185.8350  177.7810  144.2400 C   0  0  0  0  0  2  0  0  0  0  0  0
  185.4450  179.0100  145.0440 C   0  0  2  0  0  3  0  0  0  0  0  0
  184.1010  178.7750  145.6980 C   0  0  0  0  0  1  0  0  0  0  0  0
  185.3620  180.1190  144.2020 O   0  0  0  0  0  1  0  0  0  0  0  0
  1 16  1  0  0  0  0
  2 27  1  0  0  0  0
  2 24  1  6  0  0  0
  3  4  1  0  0  0  0
  3 11  2  0  0  0  0
  4 21  2  0  0  0  0
  5  6  1  0  0  0  0
  5 25  1  1  0  0  0
  6 18  1  1  0  0  0
  7 24  1  1  0  0  0
  7 19  1  0  0  0  0
  8 12  1  0  0  0  0
  9 26  1  6  0  0  0
  9 15  1  0  0  0  0
 10 17  1  0  0  0  0
 10 20  1  0  0  0  0
 11 13  1  0  0  0  0
 12  2  1  0  0  0  0
 13 22  1  0  0  0  0
 13 12  2  0  0  0  0
 14 27  1  0  0  0  0
 15 18  1  0  0  0  0
 17  8  1  6  0  0  0
 17  7  1  0  0  0  0
 19 16  1  0  0  0  0
 20  1  1  0  0  0  0
 21 22  1  0  0  0  0
 22 14  2  0  0  0  0
 23 14  1  0  0  0  0
 23 28  2  0  0  0  0
 27  5  1  0  0  0  0
 28  9  1  0  0  0  0
 28  6  1  0  0  0  0
 29 20  1  0  0  0  0
 29 30  1  0  0  0  0
 30 31  1  6  0  0  0
 32 30  1  0  0  0  0
M  END
>  <MODEL>
4

>  <REMARK>
 VINA RESULT:      -7.7      2.281      4.645
  Name = 
  2 active torsions:
  status: ('A' for Active; 'I' for Inactive)
    1  A    between atoms: N_20  and  C_29
    2  A    between atoms: C_29  and  C_30
                            x       y       z     vdW  Elec       q    Type
                         _______ _______ _______ _____ _____    ______ ____

>  <TORSDO>
F 2

$$$$
=
 OpenBabel11112416433D

 32 37  0  0  1  0  0  0  0  0999 V2000
  191.3500  171.3590  141.7320 C   0  0  0  0  0  2  0  0  0  0  0  0
  188.5280  175.3620  142.7970 C   0  0  2  0  0  3  0  0  0  0  0  0
  185.9010  177.4610  139.1780 C   0  0  0  0  0  3  0  0  0  0  0  0
  185.1980  178.2140  140.1150 C   0  0  0  0  0  3  0  0  0  0  0  0
  188.1930  176.2990  145.1490 C   0  0  2  0  0  3  0  0  0  0  0  0
  187.8790  177.6560  145.7830 C   0  0  2  0  0  3  0  0  0  0  0  0
  188.6860  172.8900  142.1490 C   0  0  1  0  0  3  0  0  0  0  0  0
  188.8590  174.6670  140.3390 C   0  0  0  0  0  2  0  0  0  0  0  0
  185.7310  178.6090  146.5270 C   0  0  2  0  0  3  0  0  0  0  0  0
  190.1050  172.5030  140.0020 C   0  0  0  0  0  2  0  0  0  0  0  0
  186.9100  176.5940  139.5970 C   0  0  0  0  0  3  0  0  0  0  0  0
  188.1960  175.5890  141.3380 C   0  0  0  0  0  0  0  0  0  0  0  0
  187.2410  176.4640  140.9590 C   0  0  0  0  0  0  0  0  0  0  0  0
  186.8200  177.1750  143.2240 C   0  0  0  0  0  0  0  0  0  0  0  0
  186.5800  178.1480  147.6700 C   0  0  0  0  0  2  0  0  0  0  0  0
  190.5800  171.8460  142.9690 C   0  0  0  0  0  2  0  0  0  0  0  0
  189.5800  173.5110  141.0330 C   0  0  2  0  0  3  0  0  0  0  0  0
  187.7350  177.6080  147.2690 C   0  0  0  0  0  2  0  0  0  0  0  0
  189.1900  171.7220  142.7750 O   0  0  0  0  0  0  0  0  0  0  0  0
  190.4580  171.2010  140.5790 N   0  0  0  0  0  0  0  0  0  0  0  0
  185.5100  178.1040  141.4700 C   0  0  0  0  0  3  0  0  0  0  0  0
  186.5290  177.2420  141.9120 C   0  0  0  0  0  0  0  0  0  0  0  0
  186.0610  177.9320  144.1800 N   0  0  0  0  0  0  0  0  0  0  0  0
  188.2080  173.9150  143.1950 C   0  0  0  0  0  2  0  0  0  0  0  0
  189.6590  175.9720  145.4030 C   0  0  0  0  0  1  0  0  0  0  0  0
  184.3870  177.9040  146.5980 C   0  0  0  0  0  1  0  0  0  0  0  0
  187.8900  176.3270  143.7010 N   0  0  0  0  0  0  0  0  0  0  0  0
  186.5280  178.1130  145.3760 C   0  0  0  0  0  0  0  0  0  0  0  0
  191.2010  170.4820  139.5570 C   0  0  0  0  0  2  0  0  0  0  0  0
  190.6350  170.7900  138.1820 C   0  0  2  0  0  3  0  0  0  0  0  0
  189.7510  169.6460  137.7360 C   0  0  0  0  0  1  0  0  0  0  0  0
  191.6750  170.9540  137.2670 O   0  0  0  0  0  1  0  0  0  0  0  0
  1 16  1  0  0  0  0
  2 24  1  1  0  0  0
  2 27  1  0  0  0  0
  3 11  2  0  0  0  0
  3  4  1  0  0  0  0
  4 21  2  0  0  0  0
  5 25  1  6  0  0  0
  5  6  1  0  0  0  0
  6 18  1  1  0  0  0
  7 19  1  0  0  0  0
  7 24  1  1  0  0  0
  8 17  1  0  0  0  0
  8 12  1  0  0  0  0
  9 26  1  1  0  0  0
  9 15  1  0  0  0  0
 10 20  1  0  0  0  0
 11 13  1  0  0  0  0
 12  2  1  0  0  0  0
 13 12  2  0  0  0  0
 13 22  1  0  0  0  0
 14 27  1  0  0  0  0
 14 23  1  0  0  0  0
 17 10  1  6  0  0  0
 17  7  1  0  0  0  0
 18 15  1  0  0  0  0
 19 16  1  0  0  0  0
 20  1  1  0  0  0  0
 21 22  1  0  0  0  0
 22 14  2  0  0  0  0
 23 28  2  0  0  0  0
 27  5  1  0  0  0  0
 28  6  1  0  0  0  0
 28  9  1  0  0  0  0
 29 20  1  0  0  0  0
 30 31  1  6  0  0  0
 30 29  1  0  0  0  0
 32 30  1  0  0  0  0
M  END
>  <MODEL>
5

>  <REMARK>
 VINA RESULT:      -7.6      3.397      7.988
  Name = 
  2 active torsions:
  status: ('A' for Active; 'I' for Inactive)
    1  A    between atoms: N_20  and  C_29
    2  A    between atoms: C_29  and  C_30
                            x       y       z     vdW  Elec       q    Type
                         _______ _______ _______ _____ _____    ______ ____

>  <TORSDO>
F 2

$$$$
=
 OpenBabel11112416433D

 32 37  0  0  1  0  0  0  0  0999 V2000
  188.2440  177.1520  146.8880 C   0  0  0  0  0  2  0  0  0  0  0  0
  191.6630  175.1210  143.8370 C   0  0  2  0  0  3  0  0  0  0  0  0
  190.2050  173.3460  139.4640 C   0  0  0  0  0  3  0  0  0  0  0  0
  191.5320  173.2410  139.0560 C   0  0  0  0  0  3  0  0  0  0  0  0
  194.1750  175.1050  144.3010 C   0  0  2  0  0  3  0  0  0  0  0  0
  195.3780  174.2330  143.9390 C   0  0  2  0  0  3  0  0  0  0  0  0
  190.0290  177.0220  144.3550 C   0  0  1  0  0  3  0  0  0  0  0  0
  189.1630  174.8980  143.2600 C   0  0  0  0  0  2  0  0  0  0  0  0
  197.0500  174.4880  142.1460 C   0  0  2  0  0  3  0  0  0  0  0  0
  187.6020  176.1760  144.7700 C   0  0  0  0  0  2  0  0  0  0  0  0
  189.9050  173.8070  140.7460 C   0  0  0  0  0  3  0  0  0  0  0  0
  190.6030  174.6470  142.8680 C   0  0  0  0  0  0  0  0  0  0  0  0
  190.9240  174.1690  141.6470 C   0  0  0  0  0  0  0  0  0  0  0  0
  193.2920  174.3610  142.0600 C   0  0  0  0  0  0  0  0  0  0  0  0
  197.5900  174.8650  143.4900 C   0  0  0  0  0  2  0  0  0  0  0  0
  189.7380  177.3910  146.6200 C   0  0  0  0  0  2  0  0  0  0  0  0
  189.0650  175.8050  144.4870 C   0  0  2  0  0  3  0  0  0  0  0  0
  196.6780  174.7510  144.4610 C   0  0  0  0  0  2  0  0  0  0  0  0
  189.9310  178.0090  145.3690 O   0  0  0  0  0  0  0  0  0  0  0  0
  187.4510  177.3270  145.6680 N   0  0  0  0  0  0  0  0  0  0  0  0
  192.5580  173.5920  139.9330 C   0  0  0  0  0  3  0  0  0  0  0  0
  192.2780  174.0510  141.2310 C   0  0  0  0  0  0  0  0  0  0  0  0
  194.6540  174.2800  141.6100 N   0  0  0  0  0  0  0  0  0  0  0  0
  191.4970  176.6210  144.1160 C   0  0  0  0  0  2  0  0  0  0  0  0
  193.8230  174.8650  145.7640 C   0  0  0  0  0  1  0  0  0  0  0  0
  197.2140  175.6670  141.2030 C   0  0  0  0  0  1  0  0  0  0  0  0
  193.0320  174.7970  143.4140 N   0  0  0  0  0  0  0  0  0  0  0  0
  195.6180  174.2700  142.4760 C   0  0  0  0  0  0  0  0  0  0  0  0
  186.0530  177.3620  146.0660 C   0  0  0  0  0  2  0  0  0  0  0  0
  185.4930  178.7630  145.8900 C   0  0  2  0  0  3  0  0  0  0  0  0
  183.9820  178.6980  145.8530 C   0  0  0  0  0  1  0  0  0  0  0  0
  185.9610  179.3130  144.6970 O   0  0  0  0  0  1  0  0  0  0  0  0
  2 24  1  6  0  0  0
  3 11  2  0  0  0  0
  4  3  1  0  0  0  0
  4 21  2  0  0  0  0
  5 25  1  1  0  0  0
  6  5  1  0  0  0  0
  6 18  1  1  0  0  0
  7 24  1  1  0  0  0
  7 17  1  0  0  0  0
  7 19  1  0  0  0  0
  9 26  1  6  0  0  0
  9 28  1  0  0  0  0
  9 15  1  0  0  0  0
 10 20  1  0  0  0  0
 11 13  1  0  0  0  0
 12  8  1  0  0  0  0
 12  2  1  0  0  0  0
 13 12  2  0  0  0  0
 14 27  1  0  0  0  0
 15 18  1  0  0  0  0
 16  1  1  0  0  0  0
 17  8  1  6  0  0  0
 17 10  1  0  0  0  0
 19 16  1  0  0  0  0
 20 29  1  0  0  0  0
 20  1  1  0  0  0  0
 21 22  1  0  0  0  0
 22 13  1  0  0  0  0
 22 14  2  0  0  0  0
 23 14  1  0  0  0  0
 23 28  2  0  0  0  0
 27  2  1  0  0  0  0
 27  5  1  0  0  0  0
 28  6  1  0  0  0  0
 30 31  1  6  0  0  0
 30 29  1  0  0  0  0
 32 30  1  0  0  0  0
M  END
>  <MODEL>
6

>  <REMARK>
 VINA RESULT:      -7.5      2.637      4.917
  Name = 
  2 active torsions:
  status: ('A' for Active; 'I' for Inactive)
    1  A    between atoms: N_20  and  C_29
    2  A    between atoms: C_29  and  C_30
                            x       y       z     vdW  Elec       q    Type
                         _______ _______ _______ _____ _____    ______ ____

>  <TORSDO>
F 2

$$$$
=
 OpenBabel11112416433D

 32 37  0  0  1  0  0  0  0  0999 V2000
  187.2960  176.8050  141.0630 C   0  0  0  0  0  2  0  0  0  0  0  0
  191.5210  174.5930  142.6060 C   0  0  2  0  0  3  0  0  0  0  0  0
  194.1160  176.6850  146.2520 C   0  0  0  0  0  3  0  0  0  0  0  0
  194.8860  175.5310  146.3750 C   0  0  0  0  0  3  0  0  0  0  0  0
  192.3470  172.3280  141.7630 C   0  0  2  0  0  3  0  0  0  0  0  0
  193.6900  171.6150  141.5940 C   0  0  2  0  0  3  0  0  0  0  0  0
  189.0900  175.2550  143.0620 C   0  0  1  0  0  3  0  0  0  0  0  0
  190.9410  176.9500  143.4670 C   0  0  0  0  0  2  0  0  0  0  0  0
  194.8330  170.0000  143.0640 C   0  0  2  0  0  3  0  0  0  0  0  0
  188.6750  177.8090  142.7790 C   0  0  0  0  0  2  0  0  0  0  0  0
  193.1170  176.7540  145.2810 C   0  0  0  0  0  3  0  0  0  0  0  0
  191.8710  175.7570  143.5060 C   0  0  0  0  0  0  0  0  0  0  0  0
  192.8700  175.6750  144.4100 C   0  0  0  0  0  0  0  0  0  0  0  0
  193.4860  173.4520  143.7110 C   0  0  0  0  0  0  0  0  0  0  0  0
  194.2120  169.3470  141.8690 C   0  0  0  0  0  2  0  0  0  0  0  0
  187.7910  175.3540  141.1500 C   0  0  0  0  0  2  0  0  0  0  0  0
  189.6720  176.6470  142.6700 C   0  0  2  0  0  3  0  0  0  0  0  0
  193.5700  170.2170  141.0830 C   0  0  0  0  0  2  0  0  0  0  0  0
  187.8370  174.9190  142.4900 O   0  0  0  0  0  0  0  0  0  0  0  0
  187.3090  177.4510  142.3790 N   0  0  0  0  0  0  0  0  0  0  0  0
  194.6600  174.4500  145.5220 C   0  0  0  0  0  3  0  0  0  0  0  0
  193.6640  174.5030  144.5320 C   0  0  0  0  0  0  0  0  0  0  0  0
  194.2660  172.2570  143.8760 N   0  0  0  0  0  0  0  0  0  0  0  0
  190.0980  174.1010  142.9030 C   0  0  0  0  0  2  0  0  0  0  0  0
  191.8420  172.7450  140.3870 C   0  0  0  0  0  1  0  0  0  0  0  0
  194.2810  169.3500  144.3210 C   0  0  0  0  0  1  0  0  0  0  0  0
  192.4960  173.4960  142.6580 N   0  0  0  0  0  0  0  0  0  0  0  0
  194.3210  171.3870  142.9160 C   0  0  0  0  0  0  0  0  0  0  0  0
  186.5730  178.6990  142.2530 C   0  0  0  0  0  2  0  0  0  0  0  0
  185.3400  178.6730  143.1400 C   0  0  2  0  0  3  0  0  0  0  0  0
  185.4360  179.7830  144.1640 C   0  0  0  0  0  1  0  0  0  0  0  0
  185.2560  177.4450  143.7970 O   0  0  0  0  0  1  0  0  0  0  0  0
  1 16  1  0  0  0  0
  1 20  1  0  0  0  0
  2 27  1  0  0  0  0
  2 24  1  1  0  0  0
  2 12  1  0  0  0  0
  3  4  1  0  0  0  0
  5 25  1  6  0  0  0
  5 27  1  0  0  0  0
  6 18  1  1  0  0  0
  6  5  1  0  0  0  0
  6 28  1  0  0  0  0
  7 24  1  6  0  0  0
  8 12  1  0  0  0  0
  9 26  1  1  0  0  0
 11  3  2  0  0  0  0
 12 13  2  0  0  0  0
 13 22  1  0  0  0  0
 13 11  1  0  0  0  0
 14 23  1  0  0  0  0
 14 22  2  0  0  0  0
 15  9  1  0  0  0  0
 16 19  1  0  0  0  0
 17 10  1  1  0  0  0
 17  7  1  0  0  0  0
 17  8  1  0  0  0  0
 18 15  1  0  0  0  0
 19  7  1  0  0  0  0
 20 10  1  0  0  0  0
 21  4  2  0  0  0  0
 22 21  1  0  0  0  0
 27 14  1  0  0  0  0
 28  9  1  0  0  0  0
 28 23  2  0  0  0  0
 29 20  1  0  0  0  0
 29 30  1  0  0  0  0
 30 32  1  0  0  0  0
 30 31  1  1  0  0  0
M  END
>  <MODEL>
7

>  <REMARK>
 VINA RESULT:      -7.3      1.987      2.634
  Name = 
  2 active torsions:
  status: ('A' for Active; 'I' for Inactive)
    1  A    between atoms: N_20  and  C_29
    2  A    between atoms: C_29  and  C_30
                            x       y       z     vdW  Elec       q    Type
                         _______ _______ _______ _____ _____    ______ ____

>  <TORSDO>
F 2

$$$$
=
 OpenBabel11112416433D

 32 37  0  0  1  0  0  0  0  0999 V2000
  191.5260  170.8230  138.6260 C   0  0  0  0  0  2  0  0  0  0  0  0
  190.8180  174.2710  142.1940 C   0  0  2  0  0  3  0  0  0  0  0  0
  186.3180  176.2250  142.7670 C   0  0  0  0  0  3  0  0  0  0  0  0
  186.7100  176.7920  143.9770 C   0  0  0  0  0  3  0  0  0  0  0  0
  192.5950  174.9680  143.8920 C   0  0  2  0  0  3  0  0  0  0  0  0
  192.9340  176.2110  144.7170 C   0  0  2  0  0  3  0  0  0  0  0  0
  190.4030  171.9060  141.3060 C   0  0  1  0  0  3  0  0  0  0  0  0
  188.9460  173.8200  140.4840 C   0  0  0  0  0  2  0  0  0  0  0  0
  192.3760  176.7750  147.0500 C   0  0  2  0  0  3  0  0  0  0  0  0
  189.3770  171.8970  138.9140 C   0  0  0  0  0  2  0  0  0  0  0  0
  187.2330  175.4880  142.0150 C   0  0  0  0  0  3  0  0  0  0  0  0
  189.4100  174.5560  141.7220 C   0  0  0  0  0  0  0  0  0  0  0  0
  188.5580  175.3060  142.4530 C   0  0  0  0  0  0  0  0  0  0  0  0
  190.2190  175.7730  144.1370 C   0  0  0  0  0  0  0  0  0  0  0  0
  193.8050  176.3610  146.8870 C   0  0  0  0  0  2  0  0  0  0  0  0
  192.1380  171.0950  140.0090 C   0  0  0  0  0  2  0  0  0  0  0  0
  189.9410  172.7350  140.0700 C   0  0  2  0  0  3  0  0  0  0  0  0
  194.1040  176.0300  145.6270 C   0  0  0  0  0  2  0  0  0  0  0  0
  191.2230  170.7810  141.0330 O   0  0  0  0  0  0  0  0  0  0  0  0
  190.0760  170.6220  138.7170 N   0  0  0  0  0  0  0  0  0  0  0  0
  188.0190  176.6270  144.4290 C   0  0  0  0  0  3  0  0  0  0  0  0
  188.9580  175.8950  143.6830 C   0  0  0  0  0  0  0  0  0  0  0  0
  190.5970  176.3350  145.4040 N   0  0  0  0  0  0  0  0  0  0  0  0
  191.0040  172.7660  142.4340 C   0  0  0  0  0  2  0  0  0  0  0  0
  193.6100  174.8430  142.7620 C   0  0  0  0  0  1  0  0  0  0  0  0
  191.7190  175.8760  148.0820 C   0  0  0  0  0  1  0  0  0  0  0  0
  191.2150  175.0590  143.3680 N   0  0  0  0  0  0  0  0  0  0  0  0
  191.8510  176.4920  145.6900 C   0  0  0  0  0  0  0  0  0  0  0  0
  189.6340  170.1010  137.4340 C   0  0  0  0  0  2  0  0  0  0  0  0
  190.3430  170.8240  136.3010 C   0  0  2  0  0  3  0  0  0  0  0  0
  189.3210  171.5490  135.4520 C   0  0  0  0  0  1  0  0  0  0  0  0
  191.0320  169.9050  135.5100 O   0  0  0  0  0  1  0  0  0  0  0  0
  1 20  1  0  0  0  0
  1 16  1  0  0  0  0
  2 24  1  1  0  0  0
  2 27  1  0  0  0  0
  3  4  1  0  0  0  0
  4 21  2  0  0  0  0
  5 25  1  6  0  0  0
  5  6  1  0  0  0  0
  6 18  1  1  0  0  0
  6 28  1  0  0  0  0
  7 24  1  1  0  0  0
  8 12  1  0  0  0  0
  9 26  1  1  0  0  0
 11 13  1  0  0  0  0
 11  3  2  0  0  0  0
 12  2  1  0  0  0  0
 12 13  2  0  0  0  0
 13 22  1  0  0  0  0
 14 23  1  0  0  0  0
 15  9  1  0  0  0  0
 16 19  1  0  0  0  0
 17 10  1  6  0  0  0
 17  8  1  0  0  0  0
 17  7  1  0  0  0  0
 18 15  1  0  0  0  0
 19  7  1  0  0  0  0
 20 10  1  0  0  0  0
 22 14  2  0  0  0  0
 22 21  1  0  0  0  0
 23 28  2  0  0  0  0
 27  5  1  0  0  0  0
 27 14  1  0  0  0  0
 28  9  1  0  0  0  0
 29 20  1  0  0  0  0
 30 31  1  6  0  0  0
 30 29  1  0  0  0  0
 32 30  1  0  0  0  0
M  END
>  <MODEL>
8

>  <REMARK>
 VINA RESULT:      -7.2      3.751      6.305
  Name = 
  2 active torsions:
  status: ('A' for Active; 'I' for Inactive)
    1  A    between atoms: N_20  and  C_29
    2  A    between atoms: C_29  and  C_30
                            x       y       z     vdW  Elec       q    Type
                         _______ _______ _______ _____ _____    ______ ____

>  <TORSDO>
F 2

$$$$
=
 OpenBabel11112416433D

 32 37  0  0  1  0  0  0  0  0999 V2000
  185.9900  178.2360  142.7890 C   0  0  0  0  0  2  0  0  0  0  0  0
  189.5090  174.7190  142.1830 C   0  0  2  0  0  3  0  0  0  0  0  0
  192.9460  174.1530  145.6860 C   0  0  0  0  0  3  0  0  0  0  0  0
  193.3530  172.9550  145.1040 C   0  0  0  0  0  3  0  0  0  0  0  0
  189.5490  173.0420  140.2570 C   0  0  2  0  0  3  0  0  0  0  0  0
  190.6000  172.2380  139.4890 C   0  0  2  0  0  3  0  0  0  0  0  0
  187.4370  175.5670  143.4240 C   0  0  1  0  0  3  0  0  0  0  0  0
  189.7340  176.4120  144.1110 C   0  0  0  0  0  2  0  0  0  0  0  0
  191.3560  169.9120  139.7840 C   0  0  2  0  0  3  0  0  0  0  0  0
  187.7630  177.9530  144.4110 C   0  0  0  0  0  2  0  0  0  0  0  0
  191.9220  174.8980  145.1020 C   0  0  0  0  0  3  0  0  0  0  0  0
  190.2720  175.1880  143.4030 C   0  0  0  0  0  0  0  0  0  0  0  0
  191.2850  174.4650  143.9240 C   0  0  0  0  0  0  0  0  0  0  0  0
  191.1510  172.7970  142.1880 C   0  0  0  0  0  0  0  0  0  0  0  0
  190.4570  170.0760  138.5980 C   0  0  0  0  0  2  0  0  0  0  0  0
  186.0440  176.8610  142.1060 C   0  0  0  0  0  2  0  0  0  0  0  0
  188.3600  176.8140  143.5730 C   0  0  2  0  0  3  0  0  0  0  0  0
  190.0250  171.3320  138.4500 C   0  0  0  0  0  2  0  0  0  0  0  0
  186.0900  175.8270  143.0620 O   0  0  0  0  0  0  0  0  0  0  0  0
  186.3200  178.1340  144.2140 N   0  0  0  0  0  0  0  0  0  0  0  0
  192.7370  172.5070  143.9350 C   0  0  0  0  0  3  0  0  0  0  0  0
  191.7090  173.2470  143.3270 C   0  0  0  0  0  0  0  0  0  0  0  0
  191.5580  171.5410  141.6210 N   0  0  0  0  0  0  0  0  0  0  0  0
  188.0400  174.4560  142.5430 C   0  0  0  0  0  2  0  0  0  0  0  0
  189.0550  174.1760  139.3650 C   0  0  0  0  0  1  0  0  0  0  0  0
  190.7640  168.8620  140.7080 C   0  0  0  0  0  1  0  0  0  0  0  0
  190.1190  173.5600  141.5200 N   0  0  0  0  0  0  0  0  0  0  0  0
  191.2610  171.2650  140.3900 C   0  0  0  0  0  0  0  0  0  0  0  0
  185.9740  179.4060  144.8270 C   0  0  0  0  0  2  0  0  0  0  0  0
  185.0140  179.1870  145.9840 C   0  0  2  0  0  3  0  0  0  0  0  0
  185.7890  179.1810  147.2840 C   0  0  0  0  0  1  0  0  0  0  0  0
  184.3600  177.9640  145.8310 O   0  0  0  0  0  1  0  0  0  0  0  0
  1 20  1  0  0  0  0
  2 24  1  1  0  0  0
  2 12  1  0  0  0  0
  4  3  1  0  0  0  0
  5 25  1  6  0  0  0
  5 27  1  0  0  0  0
  6 18  1  6  0  0  0
  6  5  1  0  0  0  0
  6 28  1  0  0  0  0
  7 24  1  6  0  0  0
  7 17  1  0  0  0  0
  9 28  1  0  0  0  0
  9 26  1  1  0  0  0
 11  3  2  0  0  0  0
 12 13  2  0  0  0  0
 12  8  1  0  0  0  0
 13 11  1  0  0  0  0
 14 22  2  0  0  0  0
 15  9  1  0  0  0  0
 16  1  1  0  0  0  0
 16 19  1  0  0  0  0
 17  8  1  1  0  0  0
 17 10  1  0  0  0  0
 18 15  1  0  0  0  0
 19  7  1  0  0  0  0
 20 10  1  0  0  0  0
 20 29  1  0  0  0  0
 21  4  2  0  0  0  0
 22 13  1  0  0  0  0
 22 21  1  0  0  0  0
 23 14  1  0  0  0  0
 27  2  1  0  0  0  0
 27 14  1  0  0  0  0
 28 23  2  0  0  0  0
 29 30  1  0  0  0  0
 30 31  1  1  0  0  0
 32 30  1  0  0  0  0
M  END
>  <MODEL>
9

>  <REMARK>
 VINA RESULT:      -7.2      3.037      4.270
  Name = 
  2 active torsions:
  status: ('A' for Active; 'I' for Inactive)
    1  A    between atoms: N_20  and  C_29
    2  A    between atoms: C_29  and  C_30
                            x       y       z     vdW  Elec       q    Type
                         _______ _______ _______ _____ _____    ______ ____

>  <TORSDO>
F 2

$$$$
