=
 OpenBabel11112417473D

 34 40  0  0  1  0  0  0  0  0999 V2000
  190.1450  176.6230  146.5690 C   0  0  0  0  0  0  0  0  0  0  0  0
  187.6890  177.2770  146.6680 C   0  0  0  0  0  2  0  0  0  0  0  0
  195.8480  176.1280  143.5730 C   0  0  0  0  0  0  0  0  0  0  0  0
  192.5130  176.3440  146.2320 C   0  0  0  0  0  0  0  0  0  0  0  0
  193.3830  175.6370  143.9560 N   0  0  2  0  0  0  0  0  0  0  0  0
  194.4350  175.1650  141.7900 C   0  0  0  0  0  1  0  0  0  0  0  0
  196.6220  177.0280  143.1520 O   0  0  0  0  0  0  0  0  0  0  0  0
  195.4870  174.1720  145.1320 C   0  0  0  0  0  2  0  0  0  0  0  0
  188.5110  176.1050  144.7220 C   0  0  2  0  0  3  0  0  0  0  0  0
  187.6080  177.5450  141.9820 C   0  0  0  0  0  3  0  0  0  0  0  0
  192.1590  176.2930  143.4830 C   0  0  0  0  0  2  0  0  0  0  0  0
  194.4540  174.8320  146.0400 C   0  0  0  0  0  2  0  0  0  0  0  0
  189.6610  176.4250  143.7590 C   0  0  1  0  0  3  0  0  0  0  0  0
  186.5400  177.1300  145.6820 C   0  0  0  0  0  2  0  0  0  0  0  0
  193.7060  175.9910  145.3670 C   0  0  2  0  0  3  0  0  0  0  0  0
  196.3410  175.1780  144.5210 N   0  0  0  0  0  2  0  0  0  0  0  0
  187.3200  177.9320  143.4140 C   0  0  2  0  0  3  0  0  0  0  0  0
  191.2090  176.2730  145.7280 C   0  0  0  0  0  0  0  0  0  0  0  0
  194.4420  176.0620  143.0170 C   0  0  2  0  0  3  0  0  0  0  0  0
  190.9680  175.8360  144.3100 C   0  0  2  0  0  3  0  0  0  0  0  0
  191.6670  177.1110  148.3090 C   0  0  0  0  0  3  0  0  0  0  0  0
  188.4900  176.6850  141.5830 N   0  0  0  0  0  0  0  0  0  0  0  0
  192.7120  176.7680  147.5100 N   0  0  0  0  0  0  0  0  0  0  0  0
  189.3170  175.8200  142.4060 C   0  0  0  0  0  2  0  0  0  0  0  0
  187.1570  176.7150  144.3410 C   0  0  1  0  0  3  0  0  0  0  0  0
  190.3950  177.0400  147.8390 N   0  0  0  0  0  0  0  0  0  0  0  0
  188.8080  176.5980  146.0530 N   0  0  0  0  0  0  0  0  0  0  0  0
  186.1760  178.7360  143.4380 O   0  0  0  0  0  0  0  0  0  0  0  0
  185.7430  178.7840  142.1090 C   0  0  0  0  0  2  0  0  0  0  0  0
  182.2070  178.4010  142.0770 N   0  0  0  0  0  2  0  0  0  0  0  0
  183.9750  178.0400  140.5300 C   0  0  0  0  0  2  0  0  0  0  0  0
  184.4590  177.9900  141.9540 C   0  0  2  0  0  3  0  0  0  0  0  0
  182.5310  178.4370  140.6600 C   0  0  0  0  0  2  0  0  0  0  0  0
  183.4140  178.5840  142.7740 N   0  0  0  0  0  2  0  0  0  0  0  0
  1 26  1  0  0  0  0
  3 16  1  0  0  0  0
  4 23  2  0  0  0  0
  5 11  1  6  0  0  0
  5 15  1  0  0  0  0
  7  3  2  0  0  0  0
  8 12  1  0  0  0  0
  9 27  1  1  0  0  0
 10 17  1  0  0  0  0
 13 24  1  6  0  0  0
 13 20  1  0  0  0  0
 13  9  1  0  0  0  0
 14  2  1  0  0  0  0
 15 12  1  1  0  0  0
 15  4  1  0  0  0  0
 16  8  1  0  0  0  0
 17 28  1  6  0  0  0
 17 25  1  0  0  0  0
 18  4  1  0  0  0  0
 18  1  2  0  0  0  0
 19  6  1  6  0  0  0
 19  3  1  0  0  0  0
 19  5  1  0  0  0  0
 20 11  1  6  0  0  0
 20 18  1  0  0  0  0
 22 10  2  0  0  0  0
 22 24  1  0  0  0  0
 23 21  1  0  0  0  0
 25  9  1  0  0  0  0
 25 14  1  1  0  0  0
 26 21  2  0  0  0  0
 27  1  1  0  0  0  0
 27  2  1  0  0  0  0
 29 28  1  0  0  0  0
 30 34  1  0  0  0  0
 31 33  1  0  0  0  0
 31 32  1  0  0  0  0
 32 29  1  6  0  0  0
 32 34  1  0  0  0  0
 33 30  1  0  0  0  0
M  END
>  <MODEL>
1

>  <REMARK>
 VINA RESULT:      -8.6      0.000      0.000
  Name = 
  3 active torsions:
  status: ('A' for Active; 'I' for Inactive)
    1  A    between atoms: C_17  and  O_28
    2  A    between atoms: O_28  and  C_29
    3  A    between atoms: C_29  and  C_32
                            x       y       z     vdW  Elec       q    Type
                         _______ _______ _______ _____ _____    ______ ____

>  <TORSDO>
F 3

$$$$
=
 OpenBabel11112417473D

 34 40  0  0  1  0  0  0  0  0999 V2000
  192.2420  176.1680  145.6440 C   0  0  0  0  0  0  0  0  0  0  0  0
  190.0760  177.0340  146.6590 C   0  0  0  0  0  2  0  0  0  0  0  0
  196.1720  174.9380  140.6650 C   0  0  0  0  0  0  0  0  0  0  0  0
  194.2460  175.6620  144.4070 C   0  0  0  0  0  0  0  0  0  0  0  0
  194.0670  174.6920  142.0700 N   0  0  2  0  0  0  0  0  0  0  0  0
  194.1090  173.9500  139.7310 C   0  0  0  0  0  1  0  0  0  0  0  0
  196.7400  175.7290  139.8680 O   0  0  0  0  0  0  0  0  0  0  0  0
  196.4050  173.1600  142.4450 C   0  0  0  0  0  2  0  0  0  0  0  0
  189.9710  175.6350  144.6920 C   0  0  2  0  0  3  0  0  0  0  0  0
  188.0780  176.9070  142.4120 C   0  0  0  0  0  3  0  0  0  0  0  0
  192.7850  175.4070  142.0650 C   0  0  0  0  0  2  0  0  0  0  0  0
  195.8680  173.9800  143.6150 C   0  0  0  0  0  2  0  0  0  0  0  0
  190.6330  175.7720  143.3150 C   0  0  1  0  0  3  0  0  0  0  0  0
  188.6180  176.9010  146.2480 C   0  0  0  0  0  2  0  0  0  0  0  0
  194.9580  175.1360  143.1770 C   0  0  2  0  0  3  0  0  0  0  0  0
  196.9720  174.0330  141.4310 N   0  0  0  0  0  2  0  0  0  0  0  0
  188.4240  177.4380  143.7840 C   0  0  2  0  0  3  0  0  0  0  0  0
  192.8480  175.6590  144.4880 C   0  0  0  0  0  0  0  0  0  0  0  0
  194.6600  174.9440  140.7400 C   0  0  2  0  0  3  0  0  0  0  0  0
  192.0240  175.1240  143.3500 C   0  0  2  0  0  3  0  0  0  0  0  0
  194.3660  176.6720  146.5480 C   0  0  0  0  0  3  0  0  0  0  0  0
  188.6790  175.9440  141.7890 N   0  0  0  0  0  0  0  0  0  0  0  0
  194.9720  176.1750  145.4370 N   0  0  0  0  0  0  0  0  0  0  0  0
  189.7360  175.0850  142.2960 C   0  0  0  0  0  2  0  0  0  0  0  0
  188.6070  176.3230  144.8280 C   0  0  1  0  0  3  0  0  0  0  0  0
  193.0110  176.6700  146.6470 N   0  0  0  0  0  0  0  0  0  0  0  0
  190.8120  176.2130  145.7220 N   0  0  0  0  0  0  0  0  0  0  0  0
  187.4270  178.3350  144.1800 O   0  0  0  0  0  0  0  0  0  0  0  0
  186.2530  177.8460  143.5980 C   0  0  0  0  0  2  0  0  0  0  0  0
  184.6490  177.3830  146.7390 N   0  0  0  0  0  2  0  0  0  0  0  0
  185.2300  179.2450  145.3790 C   0  0  0  0  0  2  0  0  0  0  0  0
  185.0970  177.9820  144.5710 C   0  0  2  0  0  3  0  0  0  0  0  0
  185.0560  178.7780  146.7970 C   0  0  0  0  0  2  0  0  0  0  0  0
  185.1190  176.8750  145.5150 N   0  0  0  0  0  2  0  0  0  0  0  0
  1 27  1  0  0  0  0
  1 26  1  0  0  0  0
  3 19  1  0  0  0  0
  3 16  1  0  0  0  0
  4 18  1  0  0  0  0
  4 23  2  0  0  0  0
  5 11  1  6  0  0  0
  5 15  1  0  0  0  0
  7  3  2  0  0  0  0
  8 12  1  0  0  0  0
  9 25  1  0  0  0  0
  9 27  1  1  0  0  0
 10 17  1  0  0  0  0
 13 24  1  6  0  0  0
 13 20  1  0  0  0  0
 13  9  1  0  0  0  0
 14  2  1  0  0  0  0
 15 12  1  1  0  0  0
 15  4  1  0  0  0  0
 16  8  1  0  0  0  0
 17 28  1  1  0  0  0
 17 25  1  0  0  0  0
 18  1  2  0  0  0  0
 19  6  1  6  0  0  0
 19  5  1  0  0  0  0
 20 11  1  6  0  0  0
 20 18  1  0  0  0  0
 21 26  2  0  0  0  0
 22 24  1  0  0  0  0
 22 10  2  0  0  0  0
 23 21  1  0  0  0  0
 25 14  1  1  0  0  0
 27  2  1  0  0  0  0
 29 28  1  0  0  0  0
 30 33  1  0  0  0  0
 31 33  1  0  0  0  0
 32 29  1  6  0  0  0
 32 31  1  0  0  0  0
 32 34  1  0  0  0  0
 34 30  1  0  0  0  0
M  END
>  <MODEL>
2

>  <REMARK>
 VINA RESULT:      -8.4      2.097      2.858
  Name = 
  3 active torsions:
  status: ('A' for Active; 'I' for Inactive)
    1  A    between atoms: C_17  and  O_28
    2  A    between atoms: O_28  and  C_29
    3  A    between atoms: C_29  and  C_32
                            x       y       z     vdW  Elec       q    Type
                         _______ _______ _______ _____ _____    ______ ____

>  <TORSDO>
F 3

$$$$
=
 OpenBabel11112417473D

 34 40  0  0  1  0  0  0  0  0999 V2000
  189.3980  174.2300  142.4850 C   0  0  0  0  0  0  0  0  0  0  0  0
  187.1310  175.3660  142.6870 C   0  0  0  0  0  2  0  0  0  0  0  0
  195.0220  172.1520  144.8920 C   0  0  0  0  0  0  0  0  0  0  0  0
  191.4700  173.0190  142.6870 C   0  0  0  0  0  0  0  0  0  0  0  0
  193.2880  173.8890  144.2270 N   0  0  2  0  0  0  0  0  0  0  0  0
  195.0780  174.4440  145.8120 C   0  0  0  0  0  1  0  0  0  0  0  0
  195.2550  171.2710  145.7600 O   0  0  0  0  0  0  0  0  0  0  0  0
  195.3080  172.9350  142.5060 C   0  0  0  0  0  2  0  0  0  0  0  0
  189.0600  176.4140  143.6960 C   0  0  2  0  0  3  0  0  0  0  0  0
  188.4930  177.2860  146.7490 C   0  0  0  0  0  3  0  0  0  0  0  0
  192.1500  174.4750  144.9460 C   0  0  0  0  0  2  0  0  0  0  0  0
  193.8510  172.7950  142.0770 C   0  0  0  0  0  2  0  0  0  0  0  0
  190.0820  175.8880  144.7110 C   0  0  1  0  0  3  0  0  0  0  0  0
  186.6680  176.6300  143.3960 C   0  0  0  0  0  2  0  0  0  0  0  0
  192.8650  172.8450  143.2520 C   0  0  2  0  0  3  0  0  0  0  0  0
  195.6070  172.0170  143.5930 N   0  0  0  0  0  2  0  0  0  0  0  0
  187.5790  176.6080  145.7550 C   0  0  2  0  0  3  0  0  0  0  0  0
  190.6850  174.1270  143.0290 C   0  0  0  0  0  0  0  0  0  0  0  0
  194.1740  173.3450  145.2780 C   0  0  2  0  0  3  0  0  0  0  0  0
  191.2190  175.1720  143.9680 C   0  0  2  0  0  3  0  0  0  0  0  0
  189.7040  172.1840  141.3450 C   0  0  0  0  0  3  0  0  0  0  0  0
  189.7750  177.4280  146.6370 N   0  0  0  0  0  0  0  0  0  0  0  0
  190.9580  172.0700  141.8570 N   0  0  0  0  0  0  0  0  0  0  0  0
  190.6090  177.0770  145.5000 C   0  0  0  0  0  2  0  0  0  0  0  0
  187.8180  177.0730  144.3080 C   0  0  1  0  0  3  0  0  0  0  0  0
  188.9310  173.2560  141.6600 N   0  0  0  0  0  0  0  0  0  0  0  0
  188.5660  175.3350  142.8630 N   0  0  0  0  0  0  0  0  0  0  0  0
  186.2540  176.8340  146.1410 O   0  0  0  0  0  0  0  0  0  0  0  0
  186.2950  178.0120  146.8920 C   0  0  0  0  0  2  0  0  0  0  0  0
  184.9190  179.9710  144.2610 N   0  0  0  0  0  2  0  0  0  0  0  0
  184.0930  178.3510  145.7920 C   0  0  0  0  0  2  0  0  0  0  0  0
  185.3310  179.0310  146.3100 C   0  0  2  0  0  3  0  0  0  0  0  0
  183.9400  178.9060  144.4030 C   0  0  0  0  0  2  0  0  0  0  0  0
  185.9510  179.6990  145.1760 N   0  0  0  0  0  2  0  0  0  0  0  0
  1 27  1  0  0  0  0
  1 18  1  0  0  0  0
  2 27  1  0  0  0  0
  2 14  1  0  0  0  0
  3 19  1  0  0  0  0
  3  7  2  0  0  0  0
  4 18  2  0  0  0  0
  4 15  1  0  0  0  0
  5 11  1  1  0  0  0
  5 19  1  0  0  0  0
  8 16  1  0  0  0  0
  9 27  1  1  0  0  0
  9 25  1  0  0  0  0
  9 13  1  0  0  0  0
 12  8  1  0  0  0  0
 13 24  1  6  0  0  0
 15 12  1  6  0  0  0
 15  5  1  0  0  0  0
 16  3  1  0  0  0  0
 17 28  1  1  0  0  0
 17 10  1  0  0  0  0
 18 20  1  0  0  0  0
 19  6  1  6  0  0  0
 20 13  1  0  0  0  0
 20 11  1  1  0  0  0
 21 26  1  0  0  0  0
 21 23  2  0  0  0  0
 22 10  2  0  0  0  0
 23  4  1  0  0  0  0
 24 22  1  0  0  0  0
 25 14  1  6  0  0  0
 25 17  1  0  0  0  0
 26  1  2  0  0  0  0
 28 29  1  0  0  0  0
 30 33  1  0  0  0  0
 30 34  1  0  0  0  0
 31 32  1  0  0  0  0
 32 29  1  6  0  0  0
 33 31  1  0  0  0  0
 34 32  1  0  0  0  0
M  END
>  <MODEL>
3

>  <REMARK>
 VINA RESULT:      -8.4      2.583      4.345
  Name = 
  3 active torsions:
  status: ('A' for Active; 'I' for Inactive)
    1  A    between atoms: C_17  and  O_28
    2  A    between atoms: O_28  and  C_29
    3  A    between atoms: C_29  and  C_32
                            x       y       z     vdW  Elec       q    Type
                         _______ _______ _______ _____ _____    ______ ____

>  <TORSDO>
F 3

$$$$
=
 OpenBabel11112417473D

 34 40  0  0  1  0  0  0  0  0999 V2000
  192.2840  176.0050  145.6070 C   0  0  0  0  0  0  0  0  0  0  0  0
  189.9640  176.6280  146.4400 C   0  0  0  0  0  2  0  0  0  0  0  0
  196.6690  175.0920  140.9500 C   0  0  0  0  0  0  0  0  0  0  0  0
  194.4160  175.7090  144.5240 C   0  0  0  0  0  0  0  0  0  0  0  0
  194.5200  174.6350  142.2280 N   0  0  2  0  0  0  0  0  0  0  0  0
  194.8140  173.8150  139.9340 C   0  0  0  0  0  1  0  0  0  0  0  0
  197.1880  175.9170  140.1540 O   0  0  0  0  0  0  0  0  0  0  0  0
  196.9980  173.4270  142.8220 C   0  0  0  0  0  2  0  0  0  0  0  0
  190.1680  175.1510  144.5390 C   0  0  2  0  0  3  0  0  0  0  0  0
  188.2930  176.0850  142.0860 C   0  0  0  0  0  3  0  0  0  0  0  0
  193.1630  175.1810  142.1080 C   0  0  0  0  0  2  0  0  0  0  0  0
  196.2850  174.2170  143.9160 C   0  0  0  0  0  2  0  0  0  0  0  0
  190.9010  175.3190  143.2010 C   0  0  1  0  0  3  0  0  0  0  0  0
  188.5650  176.2950  145.9440 C   0  0  0  0  0  2  0  0  0  0  0  0
  195.2710  175.2310  143.3680 C   0  0  2  0  0  3  0  0  0  0  0  0
  197.5210  174.3260  141.8070 N   0  0  0  0  0  2  0  0  0  0  0  0
  188.4760  176.7070  143.4510 C   0  0  2  0  0  3  0  0  0  0  0  0
  193.0270  175.5320  144.5170 C   0  0  0  0  0  0  0  0  0  0  0  0
  195.1670  174.9090  140.9290 C   0  0  2  0  0  3  0  0  0  0  0  0
  192.3560  174.8540  143.3540 C   0  0  2  0  0  3  0  0  0  0  0  0
  194.2630  176.8080  146.6180 C   0  0  0  0  0  3  0  0  0  0  0  0
  189.0500  175.1820  141.5490 N   0  0  0  0  0  0  0  0  0  0  0  0
  195.0000  176.3500  145.5730 N   0  0  0  0  0  0  0  0  0  0  0  0
  190.1680  174.4850  142.1610 C   0  0  0  0  0  2  0  0  0  0  0  0
  188.7240  175.6660  144.5560 C   0  0  1  0  0  3  0  0  0  0  0  0
  192.9150  176.6380  146.6310 N   0  0  0  0  0  0  0  0  0  0  0  0
  190.8580  175.8710  145.5920 N   0  0  0  0  0  0  0  0  0  0  0  0
  187.3500  177.4860  143.7410 O   0  0  0  0  0  0  0  0  0  0  0  0
  187.1380  178.2520  142.5910 C   0  0  0  0  0  2  0  0  0  0  0  0
  183.6310  178.4670  143.1430 N   0  0  0  0  0  2  0  0  0  0  0  0
  185.5730  179.4350  144.1150 C   0  0  0  0  0  2  0  0  0  0  0  0
  185.8180  178.9920  142.6980 C   0  0  2  0  0  3  0  0  0  0  0  0
  184.1770  178.9560  144.4000 C   0  0  0  0  0  2  0  0  0  0  0  0
  184.7260  178.1000  142.3420 N   0  0  0  0  0  2  0  0  0  0  0  0
  1 26  1  0  0  0  0
  3 16  1  0  0  0  0
  4 23  2  0  0  0  0
  5 11  1  6  0  0  0
  5 15  1  0  0  0  0
  7  3  2  0  0  0  0
  8 12  1  0  0  0  0
  9 25  1  0  0  0  0
  9 27  1  1  0  0  0
 10 17  1  0  0  0  0
 13 24  1  6  0  0  0
 13 20  1  0  0  0  0
 13  9  1  0  0  0  0
 14  2  1  0  0  0  0
 15 12  1  1  0  0  0
 15  4  1  0  0  0  0
 16  8  1  0  0  0  0
 17 28  1  1  0  0  0
 17 25  1  0  0  0  0
 18  4  1  0  0  0  0
 18  1  2  0  0  0  0
 19  6  1  6  0  0  0
 19  3  1  0  0  0  0
 19  5  1  0  0  0  0
 20 11  1  6  0  0  0
 20 18  1  0  0  0  0
 21 26  2  0  0  0  0
 22 10  2  0  0  0  0
 22 24  1  0  0  0  0
 23 21  1  0  0  0  0
 25 14  1  1  0  0  0
 27  1  1  0  0  0  0
 27  2  1  0  0  0  0
 29 28  1  0  0  0  0
 30 33  1  0  0  0  0
 31 33  1  0  0  0  0
 32 29  1  1  0  0  0
 32 31  1  0  0  0  0
 34 32  1  0  0  0  0
 34 30  1  0  0  0  0
M  END
>  <MODEL>
4

>  <REMARK>
 VINA RESULT:      -8.3      1.769      2.467
  Name = 
  3 active torsions:
  status: ('A' for Active; 'I' for Inactive)
    1  A    between atoms: C_17  and  O_28
    2  A    between atoms: O_28  and  C_29
    3  A    between atoms: C_29  and  C_32
                            x       y       z     vdW  Elec       q    Type
                         _______ _______ _______ _____ _____    ______ ____

>  <TORSDO>
F 3

$$$$
=
 OpenBabel11112417473D

 34 40  0  0  1  0  0  0  0  0999 V2000
  188.0070  176.4280  141.5440 C   0  0  0  0  0  0  0  0  0  0  0  0
  186.0020  176.9220  140.0590 C   0  0  0  0  0  2  0  0  0  0  0  0
  190.8840  175.7760  147.2920 C   0  0  0  0  0  0  0  0  0  0  0  0
  189.6230  175.7920  143.2130 C   0  0  0  0  0  0  0  0  0  0  0  0
  189.6980  177.0290  145.4260 N   0  0  2  0  0  0  0  0  0  0  0  0
  189.7940  177.9550  147.6960 C   0  0  0  0  0  1  0  0  0  0  0  0
  190.6720  174.9440  148.2140 O   0  0  0  0  0  0  0  0  0  0  0  0
  192.4960  176.7200  145.5910 C   0  0  0  0  0  2  0  0  0  0  0  0
  186.4680  178.3870  141.9230 C   0  0  2  0  0  3  0  0  0  0  0  0
  183.8390  178.9320  143.7100 C   0  0  0  0  0  3  0  0  0  0  0  0
  188.2780  177.2630  145.1380 C   0  0  0  0  0  2  0  0  0  0  0  0
  191.7750  176.2260  144.3410 C   0  0  0  0  0  2  0  0  0  0  0  0
  186.6410  178.0970  143.4200 C   0  0  1  0  0  3  0  0  0  0  0  0
  184.9160  177.9860  140.1110 C   0  0  0  0  0  2  0  0  0  0  0  0
  190.2800  175.9600  144.5680 C   0  0  2  0  0  3  0  0  0  0  0  0
  192.1940  175.8600  146.7240 N   0  0  0  0  0  2  0  0  0  0  0  0
  184.0020  178.0880  142.4670 C   0  0  2  0  0  3  0  0  0  0  0  0
  188.5860  176.6380  142.8030 C   0  0  0  0  0  0  0  0  0  0  0  0
  189.7540  176.6850  146.8620 C   0  0  2  0  0  3  0  0  0  0  0  0
  188.1060  177.7400  143.7060 C   0  0  2  0  0  3  0  0  0  0  0  0
  189.4460  174.5910  141.1770 C   0  0  0  0  0  3  0  0  0  0  0  0
  184.7940  179.4090  144.4420 N   0  0  0  0  0  0  0  0  0  0  0  0
  190.0240  174.7830  142.3920 N   0  0  0  0  0  0  0  0  0  0  0  0
  186.2230  179.3430  144.1870 C   0  0  0  0  0  2  0  0  0  0  0  0
  185.0280  178.6690  141.4790 C   0  0  1  0  0  3  0  0  0  0  0  0
  188.4430  175.4070  140.7600 N   0  0  0  0  0  0  0  0  0  0  0  0
  186.9140  177.2580  141.1300 N   0  0  0  0  0  0  0  0  0  0  0  0
  182.7500  177.9410  141.8600 O   0  0  0  0  0  0  0  0  0  0  0  0
  181.9590  178.9480  142.4210 C   0  0  0  0  0  2  0  0  0  0  0  0
  179.4790  177.9930  140.0570 N   0  0  0  0  0  2  0  0  0  0  0  0
  179.4820  178.8040  142.2930 C   0  0  0  0  0  2  0  0  0  0  0  0
  180.7360  179.1890  141.5550 C   0  0  2  0  0  3  0  0  0  0  0  0
  178.7560  177.9190  141.3170 C   0  0  0  0  0  2  0  0  0  0  0  0
  180.8020  178.3490  140.3700 N   0  0  0  0  0  2  0  0  0  0  0  0
  1 18  1  0  0  0  0
  2 14  1  0  0  0  0
  2 27  1  0  0  0  0
  3  7  2  0  0  0  0
  4 15  1  0  0  0  0
  5 11  1  6  0  0  0
  5 19  1  0  0  0  0
  8 16  1  0  0  0  0
  9 27  1  6  0  0  0
  9 13  1  0  0  0  0
 10 22  2  0  0  0  0
 12  8  1  0  0  0  0
 13 20  1  0  0  0  0
 13 24  1  1  0  0  0
 15 12  1  6  0  0  0
 15  5  1  0  0  0  0
 16  3  1  0  0  0  0
 17 28  1  6  0  0  0
 17 10  1  0  0  0  0
 18  4  2  0  0  0  0
 18 20  1  0  0  0  0
 19  3  1  0  0  0  0
 19  6  1  1  0  0  0
 20 11  1  1  0  0  0
 21 23  2  0  0  0  0
 23  4  1  0  0  0  0
 24 22  1  0  0  0  0
 25 14  1  6  0  0  0
 25  9  1  0  0  0  0
 25 17  1  0  0  0  0
 26 21  1  0  0  0  0
 26  1  2  0  0  0  0
 27  1  1  0  0  0  0
 28 29  1  0  0  0  0
 30 34  1  0  0  0  0
 30 33  1  0  0  0  0
 32 31  1  0  0  0  0
 32 29  1  1  0  0  0
 33 31  1  0  0  0  0
 34 32  1  0  0  0  0
M  END
>  <MODEL>
5

>  <REMARK>
 VINA RESULT:      -8.2      2.571      5.100
  Name = 
  3 active torsions:
  status: ('A' for Active; 'I' for Inactive)
    1  A    between atoms: C_17  and  O_28
    2  A    between atoms: O_28  and  C_29
    3  A    between atoms: C_29  and  C_32
                            x       y       z     vdW  Elec       q    Type
                         _______ _______ _______ _____ _____    ______ ____

>  <TORSDO>
F 3

$$$$
=
 OpenBabel11112417473D

 34 40  0  0  1  0  0  0  0  0999 V2000
  192.1580  176.0090  146.1580 C   0  0  0  0  0  0  0  0  0  0  0  0
  190.0620  177.3160  146.7640 C   0  0  0  0  0  2  0  0  0  0  0  0
  195.9500  172.8220  142.0100 C   0  0  0  0  0  0  0  0  0  0  0  0
  194.1130  174.9670  145.2120 C   0  0  0  0  0  0  0  0  0  0  0  0
  193.8490  173.2310  143.3820 N   0  0  2  0  0  0  0  0  0  0  0  0
  193.8200  171.6930  141.4700 C   0  0  0  0  0  1  0  0  0  0  0  0
  196.5580  173.2340  140.9880 O   0  0  0  0  0  0  0  0  0  0  0  0
  196.0900  171.7960  144.3150 C   0  0  0  0  0  2  0  0  0  0  0  0
  189.8480  175.3100  145.4340 C   0  0  2  0  0  3  0  0  0  0  0  0
  188.0140  175.7880  142.8250 C   0  0  0  0  0  3  0  0  0  0  0  0
  192.6150  173.9740  143.1020 C   0  0  0  0  0  2  0  0  0  0  0  0
  195.6180  173.0140  145.1020 C   0  0  0  0  0  2  0  0  0  0  0  0
  190.5030  174.8990  144.1090 C   0  0  1  0  0  3  0  0  0  0  0  0
  188.5930  177.1350  146.4100 C   0  0  0  0  0  2  0  0  0  0  0  0
  194.7780  173.9890  144.2650 C   0  0  2  0  0  3  0  0  0  0  0  0
  196.7000  172.2070  143.0610 N   0  0  0  0  0  2  0  0  0  0  0  0
  188.4070  176.7550  143.9170 C   0  0  2  0  0  3  0  0  0  0  0  0
  192.7190  175.0800  145.2720 C   0  0  0  0  0  0  0  0  0  0  0  0
  194.4420  172.9490  142.0580 C   0  0  2  0  0  3  0  0  0  0  0  0
  191.8510  174.2230  144.3930 C   0  0  2  0  0  3  0  0  0  0  0  0
  194.3190  176.6720  146.8450 C   0  0  0  0  0  3  0  0  0  0  0  0
  188.5470  174.6290  142.6000 N   0  0  0  0  0  0  0  0  0  0  0  0
  194.8800  175.7710  145.9970 N   0  0  0  0  0  0  0  0  0  0  0  0
  189.5530  173.9480  143.3960 C   0  0  0  0  0  2  0  0  0  0  0  0
  188.5320  176.0840  145.2950 C   0  0  1  0  0  3  0  0  0  0  0  0
  192.9680  176.7900  146.9210 N   0  0  0  0  0  0  0  0  0  0  0  0
  190.7340  176.1680  146.1970 N   0  0  0  0  0  0  0  0  0  0  0  0
  187.4720  177.7950  143.9490 O   0  0  0  0  0  0  0  0  0  0  0  0
  186.2420  177.1800  143.6990 C   0  0  0  0  0  2  0  0  0  0  0  0
  184.7780  177.7680  146.8870 N   0  0  0  0  0  2  0  0  0  0  0  0
  185.5650  179.1190  145.0960 C   0  0  0  0  0  2  0  0  0  0  0  0
  185.1830  177.7400  144.6300 C   0  0  2  0  0  3  0  0  0  0  0  0
  185.4050  179.0460  146.5890 C   0  0  0  0  0  2  0  0  0  0  0  0
  185.0860  176.9070  145.8190 N   0  0  0  0  0  2  0  0  0  0  0  0
  1 27  1  0  0  0  0
  1 26  1  0  0  0  0
  3 19  1  0  0  0  0
  3 16  1  0  0  0  0
  4 18  1  0  0  0  0
  4 23  2  0  0  0  0
  5 11  1  6  0  0  0
  5 15  1  0  0  0  0
  7  3  2  0  0  0  0
  8 12  1  0  0  0  0
  9 27  1  6  0  0  0
 10 17  1  0  0  0  0
 13 24  1  1  0  0  0
 13 20  1  0  0  0  0
 13  9  1  0  0  0  0
 14  2  1  0  0  0  0
 15 12  1  1  0  0  0
 15  4  1  0  0  0  0
 16  8  1  0  0  0  0
 17 28  1  1  0  0  0
 17 25  1  0  0  0  0
 18  1  2  0  0  0  0
 19  6  1  1  0  0  0
 19  5  1  0  0  0  0
 20 11  1  6  0  0  0
 20 18  1  0  0  0  0
 21 26  2  0  0  0  0
 22 10  2  0  0  0  0
 22 24  1  0  0  0  0
 23 21  1  0  0  0  0
 25  9  1  0  0  0  0
 25 14  1  1  0  0  0
 27  2  1  0  0  0  0
 29 28  1  0  0  0  0
 31 33  1  0  0  0  0
 32 29  1  6  0  0  0
 32 31  1  0  0  0  0
 32 34  1  0  0  0  0
 33 30  1  0  0  0  0
 34 30  1  0  0  0  0
M  END
>  <MODEL>
6

>  <REMARK>
 VINA RESULT:      -8.1      2.338      3.015
  Name = 
  3 active torsions:
  status: ('A' for Active; 'I' for Inactive)
    1  A    between atoms: C_17  and  O_28
    2  A    between atoms: O_28  and  C_29
    3  A    between atoms: C_29  and  C_32
                            x       y       z     vdW  Elec       q    Type
                         _______ _______ _______ _____ _____    ______ ____

>  <TORSDO>
F 3

$$$$
=
 OpenBabel11112417473D

 34 40  0  0  1  0  0  0  0  0999 V2000
  189.4180  174.7110  142.4180 C   0  0  0  0  0  0  0  0  0  0  0  0
  188.0200  176.7510  143.0110 C   0  0  0  0  0  2  0  0  0  0  0  0
  193.2130  169.7040  143.9260 C   0  0  0  0  0  0  0  0  0  0  0  0
  190.6040  172.6230  142.2230 C   0  0  0  0  0  0  0  0  0  0  0  0
  192.5890  172.1610  143.7320 N   0  0  2  0  0  0  0  0  0  0  0  0
  194.3930  171.4390  145.2310 C   0  0  0  0  0  1  0  0  0  0  0  0
  192.9610  168.6720  144.6010 O   0  0  0  0  0  0  0  0  0  0  0  0
  193.8870  170.6960  141.7020 C   0  0  0  0  0  2  0  0  0  0  0  0
  190.1990  176.4910  144.0220 C   0  0  2  0  0  3  0  0  0  0  0  0
  190.0990  176.9080  147.2180 C   0  0  0  0  0  3  0  0  0  0  0  0
  191.8870  173.0780  144.6380 C   0  0  0  0  0  2  0  0  0  0  0  0
  192.5620  171.3800  141.3810 C   0  0  0  0  0  2  0  0  0  0  0  0
  190.8060  175.3410  144.8360 C   0  0  1  0  0  3  0  0  0  0  0  0
  188.2400  177.9110  143.9710 C   0  0  0  0  0  2  0  0  0  0  0  0
  191.7160  171.6770  142.6270 C   0  0  2  0  0  3  0  0  0  0  0  0
  193.6710  169.5570  142.5790 N   0  0  0  0  0  2  0  0  0  0  0  0
  188.9830  176.9790  146.2010 C   0  0  2  0  0  3  0  0  0  0  0  0
  190.4720  173.8820  142.8220 C   0  0  0  0  0  0  0  0  0  0  0  0
  193.0690  171.0570  144.5890 C   0  0  2  0  0  3  0  0  0  0  0  0
  191.4440  174.3200  143.8830 C   0  0  2  0  0  3  0  0  0  0  0  0
  188.6770  173.0500  140.9100 C   0  0  0  0  0  3  0  0  0  0  0  0
  191.2820  176.4190  147.0240 N   0  0  0  0  0  0  0  0  0  0  0  0
  189.6980  172.2350  141.2850 N   0  0  0  0  0  0  0  0  0  0  0  0
  191.8450  175.9340  145.7760 C   0  0  0  0  0  2  0  0  0  0  0  0
  189.4440  177.5410  144.8450 C   0  0  1  0  0  3  0  0  0  0  0  0
  188.5380  174.2770  141.4760 N   0  0  0  0  0  0  0  0  0  0  0  0
  189.2440  175.9830  143.0560 N   0  0  0  0  0  0  0  0  0  0  0  0
  187.9430  177.7480  146.7330 O   0  0  0  0  0  0  0  0  0  0  0  0
  187.0430  176.8180  147.2630 C   0  0  0  0  0  2  0  0  0  0  0  0
  184.5730  179.0410  145.9960 N   0  0  0  0  0  2  0  0  0  0  0  0
  185.2260  176.7950  145.5700 C   0  0  0  0  0  2  0  0  0  0  0  0
  185.6190  177.2390  146.9530 C   0  0  2  0  0  3  0  0  0  0  0  0
  184.6640  178.0410  144.9440 C   0  0  0  0  0  2  0  0  0  0  0  0
  185.5230  178.6900  146.9720 N   0  0  0  0  0  2  0  0  0  0  0  0
  1 18  1  0  0  0  0
  1 27  1  0  0  0  0
  2 27  1  0  0  0  0
  2 14  1  0  0  0  0
  3 19  1  0  0  0  0
  3  7  2  0  0  0  0
  4 15  1  0  0  0  0
  4 18  2  0  0  0  0
  5 19  1  0  0  0  0
  5 11  1  1  0  0  0
  8 16  1  0  0  0  0
  9 27  1  6  0  0  0
  9 13  1  0  0  0  0
  9 25  1  0  0  0  0
 12  8  1  0  0  0  0
 13 24  1  1  0  0  0
 15 12  1  6  0  0  0
 15  5  1  0  0  0  0
 16  3  1  0  0  0  0
 17 28  1  1  0  0  0
 17 10  1  0  0  0  0
 18 20  1  0  0  0  0
 19  6  1  6  0  0  0
 20 11  1  1  0  0  0
 20 13  1  0  0  0  0
 21 23  2  0  0  0  0
 21 26  1  0  0  0  0
 22 10  2  0  0  0  0
 23  4  1  0  0  0  0
 24 22  1  0  0  0  0
 25 14  1  6  0  0  0
 25 17  1  0  0  0  0
 26  1  2  0  0  0  0
 28 29  1  0  0  0  0
 30 34  1  0  0  0  0
 31 32  1  0  0  0  0
 32 34  1  0  0  0  0
 32 29  1  6  0  0  0
 33 31  1  0  0  0  0
 33 30  1  0  0  0  0
M  END
>  <MODEL>
7

>  <REMARK>
 VINA RESULT:      -8.0      3.348      5.243
  Name = 
  3 active torsions:
  status: ('A' for Active; 'I' for Inactive)
    1  A    between atoms: C_17  and  O_28
    2  A    between atoms: O_28  and  C_29
    3  A    between atoms: C_29  and  C_32
                            x       y       z     vdW  Elec       q    Type
                         _______ _______ _______ _____ _____    ______ ____

>  <TORSDO>
F 3

$$$$
=
 OpenBabel11112417473D

 34 40  0  0  1  0  0  0  0  0999 V2000
  190.8060  173.7520  141.7750 C   0  0  0  0  0  0  0  0  0  0  0  0
  188.3230  174.1600  142.1460 C   0  0  0  0  0  2  0  0  0  0  0  0
  197.0400  174.4150  143.3400 C   0  0  0  0  0  0  0  0  0  0  0  0
  193.1820  173.3600  141.8450 C   0  0  0  0  0  0  0  0  0  0  0  0
  194.7380  175.2110  142.6100 N   0  0  2  0  0  0  0  0  0  0  0  0
  196.3840  176.7910  143.5150 C   0  0  0  0  0  1  0  0  0  0  0  0
  197.6680  174.0050  144.3510 O   0  0  0  0  0  0  0  0  0  0  0  0
  196.7520  174.3580  140.8300 C   0  0  0  0  0  2  0  0  0  0  0  0
  189.8570  176.0170  142.3410 C   0  0  2  0  0  3  0  0  0  0  0  0
  189.3750  177.6940  145.0530 C   0  0  0  0  0  3  0  0  0  0  0  0
  193.5570  175.6470  143.3650 C   0  0  0  0  0  2  0  0  0  0  0  0
  195.4000  173.6520  140.8030 C   0  0  0  0  0  2  0  0  0  0  0  0
  191.1100  176.2080  143.2060 C   0  0  1  0  0  3  0  0  0  0  0  0
  187.5270  175.3940  142.5420 C   0  0  0  0  0  2  0  0  0  0  0  0
  194.6030  173.8170  142.1040 C   0  0  2  0  0  3  0  0  0  0  0  0
  197.4800  174.0130  142.0400 N   0  0  0  0  0  2  0  0  0  0  0  0
  188.6530  176.4720  144.5340 C   0  0  2  0  0  3  0  0  0  0  0  0
  192.1000  174.2310  142.0180 C   0  0  0  0  0  0  0  0  0  0  0  0
  195.8740  175.3590  143.5440 C   0  0  2  0  0  3  0  0  0  0  0  0
  192.3330  175.6480  142.4650 C   0  0  2  0  0  3  0  0  0  0  0  0
  191.6840  171.6250  141.2410 C   0  0  0  0  0  3  0  0  0  0  0  0
  190.5010  178.1610  144.6160 N   0  0  0  0  0  0  0  0  0  0  0  0
  192.9470  172.0740  141.4660 N   0  0  0  0  0  0  0  0  0  0  0  0
  191.2680  177.6980  143.4730 C   0  0  0  0  0  2  0  0  0  0  0  0
  188.5420  176.4490  143.0000 C   0  0  1  0  0  3  0  0  0  0  0  0
  190.6240  172.4580  141.3980 N   0  0  0  0  0  0  0  0  0  0  0  0
  189.6860  174.6190  141.9930 N   0  0  0  0  0  0  0  0  0  0  0  0
  187.3870  176.4160  145.1270 O   0  0  0  0  0  0  0  0  0  0  0  0
  187.6360  176.4210  146.5030 C   0  0  0  0  0  2  0  0  0  0  0  0
  185.2560  178.8380  147.5730 N   0  0  0  0  0  2  0  0  0  0  0  0
  185.1830  176.7910  146.3670 C   0  0  0  0  0  2  0  0  0  0  0  0
  186.3970  176.8760  147.2520 C   0  0  2  0  0  3  0  0  0  0  0  0
  184.5420  178.1430  146.5140 C   0  0  0  0  0  2  0  0  0  0  0  0
  186.5410  178.2710  147.6360 N   0  0  0  0  0  2  0  0  0  0  0  0
  1 27  1  0  0  0  0
  1 18  1  0  0  0  0
  2 14  1  0  0  0  0
  3 19  1  0  0  0  0
  3  7  2  0  0  0  0
  4 18  2  0  0  0  0
  4 15  1  0  0  0  0
  5 11  1  1  0  0  0
  5 19  1  0  0  0  0
  8 16  1  0  0  0  0
  9 27  1  1  0  0  0
  9 25  1  0  0  0  0
  9 13  1  0  0  0  0
 12  8  1  0  0  0  0
 13 24  1  6  0  0  0
 15 12  1  6  0  0  0
 15  5  1  0  0  0  0
 16  3  1  0  0  0  0
 17 10  1  0  0  0  0
 17 28  1  1  0  0  0
 18 20  1  0  0  0  0
 19  6  1  6  0  0  0
 20 13  1  0  0  0  0
 20 11  1  1  0  0  0
 21 26  1  0  0  0  0
 21 23  2  0  0  0  0
 22 10  2  0  0  0  0
 23  4  1  0  0  0  0
 24 22  1  0  0  0  0
 25 14  1  1  0  0  0
 25 17  1  0  0  0  0
 26  1  2  0  0  0  0
 27  2  1  0  0  0  0
 28 29  1  0  0  0  0
 30 34  1  0  0  0  0
 31 33  1  0  0  0  0
 31 32  1  0  0  0  0
 32 29  1  6  0  0  0
 32 34  1  0  0  0  0
 33 30  1  0  0  0  0
M  END
>  <MODEL>
8

>  <REMARK>
 VINA RESULT:      -8.0      2.986      4.652
  Name = 
  3 active torsions:
  status: ('A' for Active; 'I' for Inactive)
    1  A    between atoms: C_17  and  O_28
    2  A    between atoms: O_28  and  C_29
    3  A    between atoms: C_29  and  C_32
                            x       y       z     vdW  Elec       q    Type
                         _______ _______ _______ _____ _____    ______ ____

>  <TORSDO>
F 3

$$$$
=
 OpenBabel11112417473D

 34 40  0  0  1  0  0  0  0  0999 V2000
  191.3900  175.2880  145.4320 C   0  0  0  0  0  0  0  0  0  0  0  0
  189.7520  177.2140  145.7030 C   0  0  0  0  0  2  0  0  0  0  0  0
  194.4610  170.7990  141.9430 C   0  0  0  0  0  0  0  0  0  0  0  0
  193.0190  173.6310  144.7950 C   0  0  0  0  0  0  0  0  0  0  0  0
  192.4460  171.9310  143.0020 N   0  0  2  0  0  0  0  0  0  0  0  0
  192.1660  170.3400  141.1540 C   0  0  0  0  0  1  0  0  0  0  0  0
  195.2860  170.9310  141.0010 O   0  0  0  0  0  0  0  0  0  0  0  0
  193.9970  169.9510  144.2770 C   0  0  0  0  0  2  0  0  0  0  0  0
  189.0820  175.2780  144.4220 C   0  0  2  0  0  3  0  0  0  0  0  0
  187.8160  176.1030  141.5720 C   0  0  0  0  0  3  0  0  0  0  0  0
  191.5490  172.9930  142.5330 C   0  0  0  0  0  2  0  0  0  0  0  0
  193.8390  171.3090  144.9540 C   0  0  0  0  0  2  0  0  0  0  0  0
  189.7290  174.5920  143.2120 C   0  0  1  0  0  3  0  0  0  0  0  0
  188.3540  177.4650  145.1580 C   0  0  0  0  0  2  0  0  0  0  0  0
  193.4530  172.4300  143.9790 C   0  0  2  0  0  3  0  0  0  0  0  0
  194.8510  170.0630  143.1060 N   0  0  0  0  0  2  0  0  0  0  0  0
  188.3590  176.9810  142.6760 C   0  0  2  0  0  3  0  0  0  0  0  0
  191.7340  174.1690  144.6600 C   0  0  0  0  0  0  0  0  0  0  0  0
  193.0750  171.3850  141.7820 C   0  0  2  0  0  3  0  0  0  0  0  0
  190.7530  173.5570  143.6990 C   0  0  2  0  0  3  0  0  0  0  0  0
  193.5510  175.3060  146.3860 C   0  0  0  0  0  3  0  0  0  0  0  0
  187.9820  174.8240  141.4590 N   0  0  0  0  0  0  0  0  0  0  0  0
  193.9000  174.2170  145.6510 N   0  0  0  0  0  0  0  0  0  0  0  0
  188.6220  173.9270  142.4060 C   0  0  0  0  0  2  0  0  0  0  0  0
  188.1000  176.4060  144.0800 C   0  0  1  0  0  3  0  0  0  0  0  0
  192.3060  175.8370  146.2730 N   0  0  0  0  0  0  0  0  0  0  0  0
  190.0940  175.8770  145.2700 N   0  0  0  0  0  0  0  0  0  0  0  0
  187.7990  178.2570  142.5480 O   0  0  0  0  0  0  0  0  0  0  0  0
  186.6140  178.0580  141.8340 C   0  0  0  0  0  2  0  0  0  0  0  0
  184.2990  178.2880  144.5250 N   0  0  0  0  0  2  0  0  0  0  0  0
  185.9400  179.7130  143.5600 C   0  0  0  0  0  2  0  0  0  0  0  0
  185.4490  178.6810  142.5810 C   0  0  2  0  0  3  0  0  0  0  0  0
  185.2570  179.3350  144.8450 C   0  0  0  0  0  2  0  0  0  0  0  0
  184.7610  177.6600  143.3550 N   0  0  0  0  0  2  0  0  0  0  0  0
  1 26  1  0  0  0  0
  3 16  1  0  0  0  0
  4 23  2  0  0  0  0
  5 11  1  6  0  0  0
  5 15  1  0  0  0  0
  7  3  2  0  0  0  0
  8 12  1  0  0  0  0
  9 27  1  1  0  0  0
 10 17  1  0  0  0  0
 13 24  1  1  0  0  0
 13 20  1  0  0  0  0
 13  9  1  0  0  0  0
 14  2  1  0  0  0  0
 15  4  1  0  0  0  0
 15 12  1  1  0  0  0
 16  8  1  0  0  0  0
 17 28  1  1  0  0  0
 17 25  1  0  0  0  0
 18  4  1  0  0  0  0
 18  1  2  0  0  0  0
 19  6  1  1  0  0  0
 19  3  1  0  0  0  0
 19  5  1  0  0  0  0
 20 11  1  6  0  0  0
 20 18  1  0  0  0  0
 22 10  2  0  0  0  0
 22 24  1  0  0  0  0
 23 21  1  0  0  0  0
 25  9  1  0  0  0  0
 25 14  1  1  0  0  0
 26 21  2  0  0  0  0
 27  1  1  0  0  0  0
 27  2  1  0  0  0  0
 29 28  1  0  0  0  0
 30 33  1  0  0  0  0
 31 33  1  0  0  0  0
 32 29  1  1  0  0  0
 32 34  1  0  0  0  0
 32 31  1  0  0  0  0
 34 30  1  0  0  0  0
M  END
>  <MODEL>
9

>  <REMARK>
 VINA RESULT:      -7.9      2.836      3.366
  Name = 
  3 active torsions:
  status: ('A' for Active; 'I' for Inactive)
    1  A    between atoms: C_17  and  O_28
    2  A    between atoms: O_28  and  C_29
    3  A    between atoms: C_29  and  C_32
                            x       y       z     vdW  Elec       q    Type
                         _______ _______ _______ _____ _____    ______ ____

>  <TORSDO>
F 3

$$$$
