=
 OpenBabel11112417433D

 34 42  0  0  1  0  0  0  0  0999 V2000
  189.4830  174.8020  142.6870 C   0  0  0  0  0  0  0  0  0  0  0  0
  191.6940  173.5190  142.7230 C   0  0  0  0  0  2  0  0  0  0  0  0
  185.0540  178.9510  145.5230 C   0  0  2  0  0  0  0  0  0  0  0  0
  187.5390  176.2410  142.7680 C   0  0  0  0  0  0  0  0  0  0  0  0
  187.2850  177.9240  144.6130 C   0  0  1  0  0  3  0  0  0  0  0  0
  186.2080  178.6310  147.0260 C   0  0  2  0  0  3  0  0  0  0  0  0
  184.9470  179.1620  146.9350 O   0  0  0  0  0  0  0  0  0  0  0  0
  184.2270  178.0040  143.3780 C   0  0  0  0  0  2  0  0  0  0  0  0
  190.6080  174.0780  144.8110 C   0  0  2  0  0  3  0  0  0  0  0  0
  192.7200  175.3050  146.8360 C   0  0  0  0  0  3  0  0  0  0  0  0
  188.5040  177.2800  145.3050 C   0  0  0  0  0  2  0  0  0  0  0  0
  185.5990  177.8570  142.7180 C   0  0  0  0  0  2  0  0  0  0  0  0
  190.1890  175.4250  145.4040 C   0  0  1  0  0  3  0  0  0  0  0  0
  192.5490  172.9660  143.8540 C   0  0  0  0  0  2  0  0  0  0  0  0
  186.5550  177.0310  143.5900 C   0  0  1  0  0  3  0  0  0  0  0  0
  184.1640  179.1840  144.3490 C   0  0  0  0  0  2  0  0  0  0  0  0
  192.9900  174.6170  145.7110 C   0  0  0  0  0  0  0  0  0  0  0  0
  188.6160  175.6280  143.4220 C   0  0  0  0  0  0  0  0  0  0  0  0
  186.3190  178.4480  145.6190 C   0  0  2  0  0  3  0  0  0  0  0  0
  188.7830  175.8200  144.9180 C   0  0  2  0  0  3  0  0  0  0  0  0
  188.2140  175.2880  140.6940 C   0  0  0  0  0  3  0  0  0  0  0  0
  191.4220  175.3250  147.5370 C   0  0  0  0  0  3  0  0  0  0  0  0
  187.3620  176.0530  141.4300 N   0  0  0  0  0  0  0  0  0  0  0  0
  190.2520  175.3610  146.8970 C   0  0  0  0  0  3  0  0  0  0  0  0
  192.0220  173.5860  145.1520 C   0  0  1  0  0  3  0  0  0  0  0  0
  189.2900  174.6460  141.3100 C   0  0  0  0  0  3  0  0  0  0  0  0
  190.5470  174.1240  143.3660 N   0  0  0  0  0  0  0  0  0  0  0  0
  194.2320  174.7760  145.0800 O   0  0  0  0  0  0  0  0  0  0  0  0
  194.5590  175.8980  144.2650 C   0  0  0  0  0  2  0  0  0  0  0  0
  194.9660  176.8460  141.2090 O   0  0  0  0  0  0  0  0  0  0  0  0
  196.4960  176.3540  142.8090 C   0  0  0  0  0  2  0  0  0  0  0  0
  195.3370  175.4390  143.0460 C   0  0  2  0  0  3  0  0  0  0  0  0
  196.3010  176.9040  141.4780 N   0  0  0  0  0  2  0  0  0  0  0  0
  194.5120  175.6640  141.8120 C   0  0  0  0  0  2  0  0  0  0  0  0
  1 27  1  0  0  0  0
  1 18  1  0  0  0  0
  2 27  1  0  0  0  0
  2 14  1  0  0  0  0
  3 16  1  1  0  0  0
  3 19  1  0  0  0  0
  3  7  1  0  0  0  0
  3  6  1  0  0  0  0
  4 18  2  0  0  0  0
  4 15  1  0  0  0  0
  5 11  1  1  0  0  0
  5 19  1  0  0  0  0
  6  7  1  6  0  0  0
  8 16  1  0  0  0  0
  9 27  1  6  0  0  0
  9 25  1  0  0  0  0
  9 13  1  0  0  0  0
 10 22  1  0  0  0  0
 12  8  1  0  0  0  0
 13 24  1  1  0  0  0
 14 25  1  0  0  0  0
 15 12  1  6  0  0  0
 15  5  1  0  0  0  0
 17 10  2  0  0  0  0
 18 20  1  0  0  0  0
 19  6  1  0  0  0  0
 20 11  1  0  0  0  0
 20 13  1  0  0  0  0
 21 26  1  0  0  0  0
 21 23  2  0  0  0  0
 23  4  1  0  0  0  0
 24 22  2  0  0  0  0
 25 17  1  0  0  0  0
 26  1  2  0  0  0  0
 28 17  1  0  0  0  0
 29 28  1  0  0  0  0
 30 33  1  0  0  0  0
 30 34  1  0  0  0  0
 31 32  1  0  0  0  0
 32 29  1  0  0  0  0
 33 31  1  0  0  0  0
 34 32  1  0  0  0  0
M  END
>  <MODEL>
1

>  <REMARK>
 VINA RESULT:      -9.2      0.000      0.000
  Name = 
  3 active torsions:
  status: ('A' for Active; 'I' for Inactive)
    1  A    between atoms: C_17  and  O_28
    2  A    between atoms: O_28  and  C_29
    3  A    between atoms: C_29  and  C_32
                            x       y       z     vdW  Elec       q    Type
                         _______ _______ _______ _____ _____    ______ ____

>  <TORSDO>
F 3

$$$$
=
 OpenBabel11112417433D

 34 42  0  0  1  0  0  0  0  0999 V2000
  189.4860  174.7680  142.7050 C   0  0  0  0  0  0  0  0  0  0  0  0
  191.6880  173.4730  142.7820 C   0  0  0  0  0  2  0  0  0  0  0  0
  185.0290  178.9440  145.4580 C   0  0  2  0  0  0  0  0  0  0  0  0
  187.5480  176.2190  142.7500 C   0  0  0  0  0  0  0  0  0  0  0  0
  187.2710  177.9040  144.5900 C   0  0  1  0  0  3  0  0  0  0  0  0
  186.1540  178.6190  146.9820 C   0  0  2  0  0  3  0  0  0  0  0  0
  184.8980  179.1580  146.8680 O   0  0  0  0  0  0  0  0  0  0  0  0
  184.2360  178.0010  143.2980 C   0  0  0  0  0  2  0  0  0  0  0  0
  190.5670  174.0390  144.8500 C   0  0  2  0  0  3  0  0  0  0  0  0
  192.6480  175.2550  146.9130 C   0  0  0  0  0  3  0  0  0  0  0  0
  188.4730  177.2540  145.3040 C   0  0  0  0  0  2  0  0  0  0  0  0
  185.6190  177.8460  142.6640 C   0  0  0  0  0  2  0  0  0  0  0  0
  190.1450  175.3880  145.4350 C   0  0  1  0  0  3  0  0  0  0  0  0
  192.5180  172.9150  143.9290 C   0  0  0  0  0  2  0  0  0  0  0  0
  186.5540  177.0150  143.5530 C   0  0  1  0  0  3  0  0  0  0  0  0
  184.1620  179.1820  144.2680 C   0  0  0  0  0  2  0  0  0  0  0  0
  192.9350  174.5650  145.7930 C   0  0  0  0  0  0  0  0  0  0  0  0
  188.6090  175.6000  143.4240 C   0  0  0  0  0  0  0  0  0  0  0  0
  186.2890  178.4350  145.5770 C   0  0  2  0  0  3  0  0  0  0  0  0
  188.7500  175.7920  144.9230 C   0  0  2  0  0  3  0  0  0  0  0  0
  188.2560  175.2600  140.6900 C   0  0  0  0  0  3  0  0  0  0  0  0
  191.3380  175.2830  147.5900 C   0  0  0  0  0  3  0  0  0  0  0  0
  187.3950  176.0310  141.4090 N   0  0  0  0  0  0  0  0  0  0  0  0
  190.1810  175.3250  146.9290 C   0  0  0  0  0  3  0  0  0  0  0  0
  191.9710  173.5390  145.2170 C   0  0  1  0  0  3  0  0  0  0  0  0
  189.3160  174.6130  141.3250 C   0  0  0  0  0  3  0  0  0  0  0  0
  190.5320  174.0840  143.4050 N   0  0  0  0  0  0  0  0  0  0  0  0
  194.1890  174.7160  145.1850 O   0  0  0  0  0  0  0  0  0  0  0  0
  195.3650  175.0890  145.8980 C   0  0  0  0  0  2  0  0  0  0  0  0
  196.3640  172.0370  145.5890 O   0  0  0  0  0  0  0  0  0  0  0  0
  196.1900  173.6880  144.0440 C   0  0  0  0  0  2  0  0  0  0  0  0
  196.5660  174.3570  145.3280 C   0  0  2  0  0  3  0  0  0  0  0  0
  196.4390  172.2710  144.2480 N   0  0  0  0  0  2  0  0  0  0  0  0
  196.8960  173.1810  146.2010 C   0  0  0  0  0  2  0  0  0  0  0  0
  1 27  1  0  0  0  0
  1 18  1  0  0  0  0
  2 27  1  0  0  0  0
  2 14  1  0  0  0  0
  3 16  1  1  0  0  0
  3 19  1  0  0  0  0
  3  7  1  0  0  0  0
  3  6  1  0  0  0  0
  4 18  2  0  0  0  0
  4 15  1  0  0  0  0
  5 11  1  1  0  0  0
  5 19  1  0  0  0  0
  6  7  1  6  0  0  0
  8 16  1  0  0  0  0
  9 27  1  6  0  0  0
  9 25  1  0  0  0  0
  9 13  1  0  0  0  0
 10 22  1  0  0  0  0
 12  8  1  0  0  0  0
 13 24  1  1  0  0  0
 14 25  1  0  0  0  0
 15 12  1  6  0  0  0
 15  5  1  0  0  0  0
 17 10  2  0  0  0  0
 18 20  1  0  0  0  0
 19  6  1  0  0  0  0
 20 11  1  0  0  0  0
 20 13  1  0  0  0  0
 21 26  1  0  0  0  0
 21 23  2  0  0  0  0
 23  4  1  0  0  0  0
 24 22  2  0  0  0  0
 25 17  1  0  0  0  0
 26  1  2  0  0  0  0
 28 17  1  0  0  0  0
 28 29  1  0  0  0  0
 30 34  1  0  0  0  0
 31 33  1  0  0  0  0
 31 32  1  0  0  0  0
 32 29  1  0  0  0  0
 32 34  1  0  0  0  0
 33 30  1  0  0  0  0
M  END
>  <MODEL>
2

>  <REMARK>
 VINA RESULT:      -9.1      1.529      1.919
  Name = 
  3 active torsions:
  status: ('A' for Active; 'I' for Inactive)
    1  A    between atoms: C_17  and  O_28
    2  A    between atoms: O_28  and  C_29
    3  A    between atoms: C_29  and  C_32
                            x       y       z     vdW  Elec       q    Type
                         _______ _______ _______ _____ _____    ______ ____

>  <TORSDO>
F 3

$$$$
=
 OpenBabel11112417433D

 34 42  0  0  1  0  0  0  0  0999 V2000
  189.8340  174.8730  144.6680 C   0  0  0  0  0  0  0  0  0  0  0  0
  191.4570  173.2530  143.5380 C   0  0  0  0  0  2  0  0  0  0  0  0
  184.2560  178.5820  144.6240 C   0  0  2  0  0  0  0  0  0  0  0  0
  188.0820  176.2430  145.6220 C   0  0  0  0  0  0  0  0  0  0  0  0
  185.9200  176.5720  144.3910 C   0  0  1  0  0  3  0  0  0  0  0  0
  184.3440  178.1050  142.7640 C   0  0  2  0  0  3  0  0  0  0  0  0
  183.6260  179.0640  143.4310 O   0  0  0  0  0  0  0  0  0  0  0  0
  185.6060  178.9260  146.6830 C   0  0  0  0  0  2  0  0  0  0  0  0
  190.1130  174.7340  142.1770 C   0  0  2  0  0  3  0  0  0  0  0  0
  188.7870  173.1110  139.7950 C   0  0  0  0  0  3  0  0  0  0  0  0
  186.5590  175.8730  143.1750 C   0  0  0  0  0  2  0  0  0  0  0  0
  186.2040  177.5180  146.7290 C   0  0  0  0  0  2  0  0  0  0  0  0
  188.5970  174.9140  142.0720 C   0  0  1  0  0  3  0  0  0  0  0  0
  191.8130  172.9970  142.0810 C   0  0  0  0  0  2  0  0  0  0  0  0
  186.9110  177.1660  145.4130 C   0  0  1  0  0  3  0  0  0  0  0  0
  184.2060  178.9500  146.0680 C   0  0  0  0  0  2  0  0  0  0  0  0
  189.8120  172.7100  140.5700 C   0  0  0  0  0  0  0  0  0  0  0  0
  188.6760  175.6520  144.4990 C   0  0  0  0  0  0  0  0  0  0  0  0
  184.9460  177.6130  143.9560 C   0  0  2  0  0  3  0  0  0  0  0  0
  188.0940  175.9180  143.1240 C   0  0  2  0  0  3  0  0  0  0  0  0
  189.7120  175.2520  147.0460 C   0  0  0  0  0  3  0  0  0  0  0  0
  188.3100  174.5010  139.6580 C   0  0  0  0  0  3  0  0  0  0  0  0
  188.6140  176.0350  146.8600 N   0  0  0  0  0  0  0  0  0  0  0  0
  188.2340  175.3460  140.6860 C   0  0  0  0  0  3  0  0  0  0  0  0
  190.7510  173.7050  141.2330 C   0  0  1  0  0  3  0  0  0  0  0  0
  190.3430  174.6580  145.9530 C   0  0  0  0  0  3  0  0  0  0  0  0
  190.4790  174.3210  143.5140 N   0  0  0  0  0  0  0  0  0  0  0  0
  190.0900  171.3410  140.7000 O   0  0  0  0  0  0  0  0  0  0  0  0
  190.6370  170.5500  139.6500 C   0  0  0  0  0  2  0  0  0  0  0  0
  193.1290  169.7180  141.5220 O   0  0  0  0  0  0  0  0  0  0  0  0
  190.9310  169.1880  141.6840 C   0  0  0  0  0  2  0  0  0  0  0  0
  191.2310  169.2760  140.2210 C   0  0  2  0  0  3  0  0  0  0  0  0
  192.2200  169.1300  142.3500 N   0  0  0  0  0  2  0  0  0  0  0  0
  192.7290  169.3770  140.2220 C   0  0  0  0  0  2  0  0  0  0  0  0
  1 26  1  0  0  0  0
  3 16  1  6  0  0  0
  4 23  2  0  0  0  0
  5 11  1  6  0  0  0
  5 15  1  0  0  0  0
  6  7  1  1  0  0  0
  6 19  1  0  0  0  0
  6  3  1  0  0  0  0
  7  3  1  0  0  0  0
  8 12  1  0  0  0  0
  9 27  1  1  0  0  0
 10 17  2  0  0  0  0
 13 24  1  6  0  0  0
 13  9  1  0  0  0  0
 13 20  1  0  0  0  0
 14  2  1  0  0  0  0
 15  4  1  0  0  0  0
 15 12  1  1  0  0  0
 16  8  1  0  0  0  0
 17 28  1  0  0  0  0
 17 25  1  0  0  0  0
 18  1  2  0  0  0  0
 18  4  1  0  0  0  0
 19  5  1  0  0  0  0
 19  3  1  0  0  0  0
 20 11  1  0  0  0  0
 20 18  1  0  0  0  0
 22 10  1  0  0  0  0
 22 24  2  0  0  0  0
 23 21  1  0  0  0  0
 25 14  1  0  0  0  0
 25  9  1  0  0  0  0
 26 21  2  0  0  0  0
 27  2  1  0  0  0  0
 27  1  1  0  0  0  0
 29 32  1  0  0  0  0
 29 28  1  0  0  0  0
 30 33  1  0  0  0  0
 31 33  1  0  0  0  0
 32 34  1  0  0  0  0
 32 31  1  0  0  0  0
 34 30  1  0  0  0  0
M  END
>  <MODEL>
3

>  <REMARK>
 VINA RESULT:      -8.5      2.930      5.181
  Name = 
  3 active torsions:
  status: ('A' for Active; 'I' for Inactive)
    1  A    between atoms: C_17  and  O_28
    2  A    between atoms: O_28  and  C_29
    3  A    between atoms: C_29  and  C_32
                            x       y       z     vdW  Elec       q    Type
                         _______ _______ _______ _____ _____    ______ ____

>  <TORSDO>
F 3

$$$$
=
 OpenBabel11112417433D

 34 42  0  0  1  0  0  0  0  0999 V2000
  192.1820  176.3740  145.8350 C   0  0  0  0  0  0  0  0  0  0  0  0
  189.9000  176.7990  146.9050 C   0  0  0  0  0  2  0  0  0  0  0  0
  196.0380  175.2700  140.4690 C   0  0  2  0  0  0  0  0  0  0  0  0
  194.2590  176.1570  144.6110 C   0  0  0  0  0  0  0  0  0  0  0  0
  194.2730  176.3050  142.1050 C   0  0  1  0  0  3  0  0  0  0  0  0
  194.3020  175.0580  139.6710 C   0  0  2  0  0  3  0  0  0  0  0  0
  195.5570  174.7130  139.2400 O   0  0  0  0  0  0  0  0  0  0  0  0
  197.3110  175.1130  142.5990 C   0  0  0  0  0  2  0  0  0  0  0  0
  190.0260  175.5930  144.8120 C   0  0  2  0  0  3  0  0  0  0  0  0
  187.8940  176.7480  142.7660 C   0  0  0  0  0  3  0  0  0  0  0  0
  192.7320  176.2800  142.1410 C   0  0  0  0  0  2  0  0  0  0  0  0
  196.4620  176.1210  143.3770 C   0  0  0  0  0  2  0  0  0  0  0  0
  190.6160  175.9830  143.4550 C   0  0  1  0  0  3  0  0  0  0  0  0
  188.4820  176.4220  146.5000 C   0  0  0  0  0  2  0  0  0  0  0  0
  194.9760  175.7370  143.3560 C   0  0  1  0  0  3  0  0  0  0  0  0
  197.3770  175.4300  141.1040 C   0  0  0  0  0  2  0  0  0  0  0  0
  187.9260  176.9530  144.0960 C   0  0  0  0  0  0  0  0  0  0  0  0
  192.8600  176.0850  144.6370 C   0  0  0  0  0  0  0  0  0  0  0  0
  194.7880  175.6350  140.8780 C   0  0  2  0  0  3  0  0  0  0  0  0
  192.1150  175.6390  143.3930 C   0  0  2  0  0  3  0  0  0  0  0  0
  194.2980  176.8490  146.8880 C   0  0  0  0  0  3  0  0  0  0  0  0
  188.6150  175.6810  142.0450 C   0  0  0  0  0  3  0  0  0  0  0  0
  194.9400  176.5300  145.7310 N   0  0  0  0  0  0  0  0  0  0  0  0
  189.8550  175.3040  142.3600 C   0  0  0  0  0  3  0  0  0  0  0  0
  188.5490  175.9420  145.0460 C   0  0  1  0  0  3  0  0  0  0  0  0
  192.9070  176.7750  146.9620 C   0  0  0  0  0  3  0  0  0  0  0  0
  190.7560  176.2390  145.8810 N   0  0  0  0  0  0  0  0  0  0  0  0
  187.2870  178.0750  144.6420 O   0  0  0  0  0  0  0  0  0  0  0  0
  186.0760  178.6170  144.1230 C   0  0  0  0  0  2  0  0  0  0  0  0
  184.0670  177.8080  146.5120 O   0  0  0  0  0  0  0  0  0  0  0  0
  185.9630  179.0500  146.5470 C   0  0  0  0  0  2  0  0  0  0  0  0
  185.3110  179.3210  145.2280 C   0  0  2  0  0  3  0  0  0  0  0  0
  184.9500  178.4020  147.3630 N   0  0  0  0  0  2  0  0  0  0  0  0
  183.9730  178.6660  145.4070 C   0  0  0  0  0  2  0  0  0  0  0  0
  1 27  1  0  0  0  0
  1 26  1  0  0  0  0
  3 19  1  0  0  0  0
  3 16  1  1  0  0  0
  4 18  1  0  0  0  0
  4 23  2  0  0  0  0
  5 11  1  1  0  0  0
  5 15  1  0  0  0  0
  6  7  1  6  0  0  0
  6  3  1  0  0  0  0
  6 19  1  0  0  0  0
  7  3  1  0  0  0  0
  8 12  1  0  0  0  0
  9 25  1  0  0  0  0
  9 27  1  1  0  0  0
 10 17  2  0  0  0  0
 11 20  1  0  0  0  0
 13 24  1  6  0  0  0
 13  9  1  0  0  0  0
 14  2  1  0  0  0  0
 15 12  1  1  0  0  0
 15  4  1  0  0  0  0
 16  8  1  0  0  0  0
 17 28  1  0  0  0  0
 17 25  1  0  0  0  0
 18  1  2  0  0  0  0
 19  5  1  0  0  0  0
 20 13  1  0  0  0  0
 20 18  1  0  0  0  0
 21 26  2  0  0  0  0
 22 24  2  0  0  0  0
 22 10  1  0  0  0  0
 23 21  1  0  0  0  0
 25 14  1  0  0  0  0
 27  2  1  0  0  0  0
 29 28  1  0  0  0  0
 29 32  1  0  0  0  0
 30 33  1  0  0  0  0
 31 33  1  0  0  0  0
 32 34  1  0  0  0  0
 32 31  1  0  0  0  0
 34 30  1  0  0  0  0
M  END
>  <MODEL>
4

>  <REMARK>
 VINA RESULT:      -8.4      2.233      8.788
  Name = 
  3 active torsions:
  status: ('A' for Active; 'I' for Inactive)
    1  A    between atoms: C_17  and  O_28
    2  A    between atoms: O_28  and  C_29
    3  A    between atoms: C_29  and  C_32
                            x       y       z     vdW  Elec       q    Type
                         _______ _______ _______ _____ _____    ______ ____

>  <TORSDO>
F 3

$$$$
=
 OpenBabel11112417433D

 34 42  0  0  1  0  0  0  0  0999 V2000
  189.6240  177.1890  146.3390 C   0  0  0  0  0  0  0  0  0  0  0  0
  191.8370  176.4070  147.3520 C   0  0  0  0  0  2  0  0  0  0  0  0
  185.4530  177.8420  141.1370 C   0  0  2  0  0  0  0  0  0  0  0  0
  187.5250  177.6740  145.2340 C   0  0  0  0  0  0  0  0  0  0  0  0
  187.0920  176.8280  142.9110 C   0  0  1  0  0  3  0  0  0  0  0  0
  187.0390  177.2730  140.2130 C   0  0  2  0  0  3  0  0  0  0  0  0
  185.8760  177.8490  139.7690 O   0  0  0  0  0  0  0  0  0  0  0  0
  184.6080  178.9840  143.1780 C   0  0  0  0  0  2  0  0  0  0  0  0
  191.7310  176.9430  144.9960 C   0  0  2  0  0  3  0  0  0  0  0  0
  193.1300  174.6550  143.3010 C   0  0  0  0  0  3  0  0  0  0  0  0
  188.5690  176.3880  142.8460 C   0  0  0  0  0  2  0  0  0  0  0  0
  185.2560  178.0310  144.1840 C   0  0  0  0  0  2  0  0  0  0  0  0
  190.8580  176.3830  143.8700 C   0  0  1  0  0  3  0  0  0  0  0  0
  193.2250  176.1990  146.7650 C   0  0  0  0  0  2  0  0  0  0  0  0
  186.7700  177.9170  143.9550 C   0  0  1  0  0  3  0  0  0  0  0  0
  184.2320  178.2890  141.8690 C   0  0  0  0  0  2  0  0  0  0  0  0
  193.2450  174.8590  144.6260 C   0  0  0  0  0  0  0  0  0  0  0  0
  188.8780  177.3170  145.1540 C   0  0  0  0  0  0  0  0  0  0  0  0
  186.6020  177.2440  141.5670 C   0  0  2  0  0  3  0  0  0  0  0  0
  189.5200  177.1380  143.7910 C   0  0  2  0  0  3  0  0  0  0  0  0
  187.6420  177.7080  147.6110 C   0  0  0  0  0  3  0  0  0  0  0  0
  192.6290  175.6390  142.3230 C   0  0  0  0  0  3  0  0  0  0  0  0
  186.9450  177.8650  146.4530 N   0  0  0  0  0  0  0  0  0  0  0  0
  191.6010  176.4520  142.5730 C   0  0  0  0  0  3  0  0  0  0  0  0
  193.0730  176.2400  145.2410 C   0  0  1  0  0  3  0  0  0  0  0  0
  188.9950  177.3690  147.5750 C   0  0  0  0  0  3  0  0  0  0  0  0
  191.0220  176.8870  146.2550 N   0  0  0  0  0  0  0  0  0  0  0  0
  193.6270  173.8000  145.4620 O   0  0  0  0  0  0  0  0  0  0  0  0
  194.7220  172.9340  145.1780 C   0  0  0  0  0  2  0  0  0  0  0  0
  197.8960  172.7170  144.6470 O   0  0  0  0  0  0  0  0  0  0  0  0
  196.5640  174.5400  144.8520 C   0  0  0  0  0  2  0  0  0  0  0  0
  195.9970  173.5050  145.7710 C   0  0  2  0  0  3  0  0  0  0  0  0
  197.8940  174.0720  144.5000 N   0  0  0  0  0  2  0  0  0  0  0  0
  197.0720  172.4570  145.7510 C   0  0  0  0  0  2  0  0  0  0  0  0
  1 26  1  0  0  0  0
  3 19  1  0  0  0  0
  3 16  1  1  0  0  0
  4 23  2  0  0  0  0
  5 11  1  6  0  0  0
  5 15  1  0  0  0  0
  6  7  1  6  0  0  0
  6  3  1  0  0  0  0
  6 19  1  0  0  0  0
  7  3  1  0  0  0  0
  8 12  1  0  0  0  0
  9 25  1  0  0  0  0
  9 27  1  1  0  0  0
 10 17  2  0  0  0  0
 11 20  1  0  0  0  0
 13 24  1  6  0  0  0
 13  9  1  0  0  0  0
 14  2  1  0  0  0  0
 15 12  1  1  0  0  0
 15  4  1  0  0  0  0
 16  8  1  0  0  0  0
 17 25  1  0  0  0  0
 17 28  1  0  0  0  0
 18  4  1  0  0  0  0
 18  1  2  0  0  0  0
 19  5  1  0  0  0  0
 20 13  1  0  0  0  0
 20 18  1  0  0  0  0
 22 24  2  0  0  0  0
 22 10  1  0  0  0  0
 23 21  1  0  0  0  0
 25 14  1  0  0  0  0
 26 21  2  0  0  0  0
 27  1  1  0  0  0  0
 27  2  1  0  0  0  0
 29 28  1  0  0  0  0
 29 32  1  0  0  0  0
 30 34  1  0  0  0  0
 31 32  1  0  0  0  0
 33 30  1  0  0  0  0
 33 31  1  0  0  0  0
 34 32  1  0  0  0  0
M  END
>  <MODEL>
5

>  <REMARK>
 VINA RESULT:      -8.2      2.665      4.205
  Name = 
  3 active torsions:
  status: ('A' for Active; 'I' for Inactive)
    1  A    between atoms: C_17  and  O_28
    2  A    between atoms: O_28  and  C_29
    3  A    between atoms: C_29  and  C_32
                            x       y       z     vdW  Elec       q    Type
                         _______ _______ _______ _____ _____    ______ ____

>  <TORSDO>
F 3

$$$$
=
 OpenBabel11112417433D

 34 42  0  0  1  0  0  0  0  0999 V2000
  187.9850  176.1180  141.4750 C   0  0  0  0  0  0  0  0  0  0  0  0
  185.9890  176.8180  140.0390 C   0  0  0  0  0  2  0  0  0  0  0  0
  191.3010  176.0630  147.2960 C   0  0  2  0  0  0  0  0  0  0  0  0
  189.6810  175.4030  143.0470 C   0  0  0  0  0  0  0  0  0  0  0  0
  189.4040  175.8570  145.5000 C   0  0  1  0  0  3  0  0  0  0  0  0
  189.9710  177.3930  147.6920 C   0  0  2  0  0  3  0  0  0  0  0  0
  191.1470  177.0590  148.3130 O   0  0  0  0  0  0  0  0  0  0  0  0
  192.5850  174.9790  145.4640 C   0  0  0  0  0  2  0  0  0  0  0  0
  186.6370  178.1870  141.9250 C   0  0  2  0  0  3  0  0  0  0  0  0
  184.0790  178.9440  143.6440 C   0  0  0  0  0  3  0  0  0  0  0  0
  188.1860  176.7360  145.1540 C   0  0  0  0  0  2  0  0  0  0  0  0
  191.3700  174.4770  144.6810 C   0  0  0  0  0  2  0  0  0  0  0  0
  186.7710  177.8600  143.4140 C   0  0  1  0  0  3  0  0  0  0  0  0
  185.0440  178.0090  140.0950 C   0  0  0  0  0  2  0  0  0  0  0  0
  190.4040  175.6230  144.3490 C   0  0  1  0  0  3  0  0  0  0  0  0
  192.3310  175.0350  146.9710 C   0  0  0  0  0  2  0  0  0  0  0  0
  184.0910  178.4570  142.3890 C   0  0  0  0  0  0  0  0  0  0  0  0
  188.6040  176.2420  142.7310 C   0  0  0  0  0  0  0  0  0  0  0  0
  190.1150  176.3820  146.7000 C   0  0  2  0  0  3  0  0  0  0  0  0
  188.1710  177.3030  143.7260 C   0  0  2  0  0  3  0  0  0  0  0  0
  189.4850  174.3060  140.9440 C   0  0  0  0  0  3  0  0  0  0  0  0
  185.2310  179.5510  144.3370 C   0  0  0  0  0  3  0  0  0  0  0  0
  190.0960  174.4650  142.1500 N   0  0  0  0  0  0  0  0  0  0  0  0
  186.4740  179.0790  144.2280 C   0  0  0  0  0  3  0  0  0  0  0  0
  185.2650  178.6880  141.4510 C   0  0  1  0  0  3  0  0  0  0  0  0
  188.4190  175.1310  140.5840 C   0  0  0  0  0  3  0  0  0  0  0  0
  186.9260  177.0170  141.1260 N   0  0  0  0  0  0  0  0  0  0  0  0
  182.9570  177.7990  141.8890 O   0  0  0  0  0  0  0  0  0  0  0  0
  182.0780  178.3760  140.9280 C   0  0  0  0  0  2  0  0  0  0  0  0
  179.1530  179.4650  140.1140 O   0  0  0  0  0  0  0  0  0  0  0  0
  179.7710  177.9640  141.6970 C   0  0  0  0  0  2  0  0  0  0  0  0
  180.8720  178.9750  141.6290 C   0  0  2  0  0  3  0  0  0  0  0  0
  178.6460  178.5560  140.9950 N   0  0  0  0  0  2  0  0  0  0  0  0
  180.2610  180.0340  140.7570 C   0  0  0  0  0  2  0  0  0  0  0  0
  1 18  1  0  0  0  0
  2 14  1  0  0  0  0
  2 27  1  0  0  0  0
  3 16  1  6  0  0  0
  3  6  1  0  0  0  0
  3  7  1  0  0  0  0
  4 15  1  0  0  0  0
  5 11  1  6  0  0  0
  5 19  1  0  0  0  0
  6  7  1  1  0  0  0
  8 16  1  0  0  0  0
  9 27  1  6  0  0  0
  9 13  1  0  0  0  0
 10 22  1  0  0  0  0
 12  8  1  0  0  0  0
 13 20  1  0  0  0  0
 13 24  1  1  0  0  0
 14 25  1  0  0  0  0
 15 12  1  1  0  0  0
 15  5  1  0  0  0  0
 17 10  2  0  0  0  0
 18  4  2  0  0  0  0
 18 20  1  0  0  0  0
 19  3  1  0  0  0  0
 19  6  1  0  0  0  0
 20 11  1  0  0  0  0
 21 23  2  0  0  0  0
 23  4  1  0  0  0  0
 24 22  2  0  0  0  0
 25  9  1  0  0  0  0
 25 17  1  0  0  0  0
 26 21  1  0  0  0  0
 26  1  2  0  0  0  0
 27  1  1  0  0  0  0
 28 17  1  0  0  0  0
 29 32  1  0  0  0  0
 29 28  1  0  0  0  0
 30 34  1  0  0  0  0
 30 33  1  0  0  0  0
 32 31  1  0  0  0  0
 33 31  1  0  0  0  0
 34 32  1  0  0  0  0
M  END
>  <MODEL>
6

>  <REMARK>
 VINA RESULT:      -8.2      3.153      8.845
  Name = 
  3 active torsions:
  status: ('A' for Active; 'I' for Inactive)
    1  A    between atoms: C_17  and  O_28
    2  A    between atoms: O_28  and  C_29
    3  A    between atoms: C_29  and  C_32
                            x       y       z     vdW  Elec       q    Type
                         _______ _______ _______ _____ _____    ______ ____

>  <TORSDO>
F 3

$$$$
=
 OpenBabel11112417433D

 34 42  0  0  1  0  0  0  0  0999 V2000
  192.3170  176.1900  145.8180 C   0  0  0  0  0  0  0  0  0  0  0  0
  190.0810  176.3660  147.0440 C   0  0  0  0  0  2  0  0  0  0  0  0
  195.8930  175.3510  140.2160 C   0  0  2  0  0  0  0  0  0  0  0  0
  194.3120  176.1880  144.4480 C   0  0  0  0  0  0  0  0  0  0  0  0
  194.1280  176.2230  141.9440 C   0  0  1  0  0  3  0  0  0  0  0  0
  194.1480  174.8810  139.5610 C   0  0  2  0  0  3  0  0  0  0  0  0
  195.4040  174.6820  139.0480 O   0  0  0  0  0  0  0  0  0  0  0  0
  197.3240  175.4560  142.2460 C   0  0  0  0  0  2  0  0  0  0  0  0
  190.2150  175.0930  144.9910 C   0  0  2  0  0  3  0  0  0  0  0  0
  187.8090  175.8700  143.0750 C   0  0  0  0  0  3  0  0  0  0  0  0
  192.6100  176.0010  142.0990 C   0  0  0  0  0  2  0  0  0  0  0  0
  196.4070  176.3800  143.0500 C   0  0  0  0  0  2  0  0  0  0  0  0
  190.6510  175.4940  143.5800 C   0  0  1  0  0  3  0  0  0  0  0  0
  188.7000  175.7910  146.7620 C   0  0  0  0  0  2  0  0  0  0  0  0
  194.9870  175.8080  143.1570 C   0  0  1  0  0  3  0  0  0  0  0  0
  197.2410  175.7110  140.7410 C   0  0  0  0  0  2  0  0  0  0  0  0
  187.9090  176.1370  144.3900 C   0  0  0  0  0  0  0  0  0  0  0  0
  192.9400  175.9380  144.5830 C   0  0  0  0  0  0  0  0  0  0  0  0
  194.6380  175.5700  140.7060 C   0  0  2  0  0  3  0  0  0  0  0  0
  192.1740  175.3430  143.4160 C   0  0  2  0  0  3  0  0  0  0  0  0
  194.4220  176.9820  146.6890 C   0  0  0  0  0  3  0  0  0  0  0  0
  188.6110  174.8730  142.3400 C   0  0  0  0  0  3  0  0  0  0  0  0
  195.0160  176.6960  145.4980 N   0  0  0  0  0  0  0  0  0  0  0  0
  189.9100  174.6740  142.5710 C   0  0  0  0  0  3  0  0  0  0  0  0
  188.7260  175.2590  145.3260 C   0  0  1  0  0  3  0  0  0  0  0  0
  193.0610  176.7330  146.8710 C   0  0  0  0  0  3  0  0  0  0  0  0
  190.9280  175.8750  145.9780 N   0  0  0  0  0  0  0  0  0  0  0  0
  187.1680  177.1910  144.9430 O   0  0  0  0  0  0  0  0  0  0  0  0
  185.7730  177.1080  145.2190 C   0  0  0  0  0  2  0  0  0  0  0  0
  186.3550  179.1430  142.7860 O   0  0  0  0  0  0  0  0  0  0  0  0
  184.6180  177.7290  143.1310 C   0  0  0  0  0  2  0  0  0  0  0  0
  185.0360  178.2120  144.4830 C   0  0  2  0  0  3  0  0  0  0  0  0
  185.2530  178.6210  142.1770 N   0  0  0  0  0  2  0  0  0  0  0  0
  185.9990  179.3090  144.1320 C   0  0  0  0  0  2  0  0  0  0  0  0
  1 27  1  0  0  0  0
  1 26  1  0  0  0  0
  3 19  1  0  0  0  0
  3 16  1  1  0  0  0
  4 18  1  0  0  0  0
  4 23  2  0  0  0  0
  5 11  1  1  0  0  0
  5 15  1  0  0  0  0
  6  7  1  6  0  0  0
  6  3  1  0  0  0  0
  6 19  1  0  0  0  0
  7  3  1  0  0  0  0
  8 12  1  0  0  0  0
  9 25  1  0  0  0  0
  9 27  1  1  0  0  0
 10 17  2  0  0  0  0
 11 20  1  0  0  0  0
 13 24  1  6  0  0  0
 13  9  1  0  0  0  0
 14  2  1  0  0  0  0
 15 12  1  6  0  0  0
 15  4  1  0  0  0  0
 16  8  1  0  0  0  0
 17 28  1  0  0  0  0
 17 25  1  0  0  0  0
 18  1  2  0  0  0  0
 19  5  1  0  0  0  0
 20 13  1  0  0  0  0
 20 18  1  0  0  0  0
 21 26  2  0  0  0  0
 22 24  2  0  0  0  0
 22 10  1  0  0  0  0
 23 21  1  0  0  0  0
 25 14  1  0  0  0  0
 27  2  1  0  0  0  0
 28 29  1  0  0  0  0
 30 34  1  0  0  0  0
 31 32  1  0  0  0  0
 32 29  1  0  0  0  0
 33 30  1  0  0  0  0
 33 31  1  0  0  0  0
 34 32  1  0  0  0  0
M  END
>  <MODEL>
7

>  <REMARK>
 VINA RESULT:      -8.1      2.135      8.484
  Name = 
  3 active torsions:
  status: ('A' for Active; 'I' for Inactive)
    1  A    between atoms: C_17  and  O_28
    2  A    between atoms: O_28  and  C_29
    3  A    between atoms: C_29  and  C_32
                            x       y       z     vdW  Elec       q    Type
                         _______ _______ _______ _____ _____    ______ ____

>  <TORSDO>
F 3

$$$$
=
 OpenBabel11112417433D

 34 42  0  0  1  0  0  0  0  0999 V2000
  192.3590  176.2770  146.0640 C   0  0  0  0  0  0  0  0  0  0  0  0
  194.7650  175.4150  146.1360 C   0  0  0  0  0  2  0  0  0  0  0  0
  186.4810  177.0300  142.9400 C   0  0  2  0  0  0  0  0  0  0  0  0
  190.0120  176.8370  145.8740 C   0  0  0  0  0  0  0  0  0  0  0  0
  188.6580  175.9740  143.9450 C   0  0  1  0  0  3  0  0  0  0  0  0
  187.5440  176.3770  141.4790 C   0  0  2  0  0  3  0  0  0  0  0  0
  186.3220  176.9960  141.5180 O   0  0  0  0  0  0  0  0  0  0  0  0
  186.5630  178.2420  145.1100 C   0  0  0  0  0  2  0  0  0  0  0  0
  193.7430  175.9160  144.0010 C   0  0  2  0  0  3  0  0  0  0  0  0
  194.2690  173.5400  141.9650 C   0  0  0  0  0  3  0  0  0  0  0  0
  189.9690  175.4670  143.3110 C   0  0  0  0  0  2  0  0  0  0  0  0
  187.5260  177.2780  145.8050 C   0  0  0  0  0  2  0  0  0  0  0  0
  192.4750  175.3770  143.3360 C   0  0  1  0  0  3  0  0  0  0  0  0
  195.7940  175.1350  145.0510 C   0  0  0  0  0  2  0  0  0  0  0  0
  188.8170  177.0920  144.9940 C   0  0  1  0  0  3  0  0  0  0  0  0
  185.6710  177.5440  144.0820 C   0  0  0  0  0  2  0  0  0  0  0  0
  194.9110  173.7610  143.1270 C   0  0  0  0  0  0  0  0  0  0  0  0
  191.2070  176.4190  145.2720 C   0  0  0  0  0  0  0  0  0  0  0  0
  187.6850  176.3890  142.8950 C   0  0  2  0  0  3  0  0  0  0  0  0
  191.2430  176.1890  143.7720 C   0  0  2  0  0  3  0  0  0  0  0  0
  191.0710  176.9050  148.0040 C   0  0  0  0  0  3  0  0  0  0  0  0
  193.4520  174.5300  141.2360 C   0  0  0  0  0  3  0  0  0  0  0  0
  189.9750  177.0730  147.2150 N   0  0  0  0  0  0  0  0  0  0  0  0
  192.6390  175.3910  141.8490 C   0  0  0  0  0  3  0  0  0  0  0  0
  195.0470  175.1570  143.7140 C   0  0  1  0  0  3  0  0  0  0  0  0
  192.2840  176.5050  147.4420 C   0  0  0  0  0  3  0  0  0  0  0  0
  193.5960  175.9120  145.4400 N   0  0  0  0  0  0  0  0  0  0  0  0
  195.5590  172.7000  143.7750 O   0  0  0  0  0  0  0  0  0  0  0  0
  194.8740  171.5660  144.2990 C   0  0  0  0  0  2  0  0  0  0  0  0
  195.9860  169.0870  146.0370 O   0  0  0  0  0  0  0  0  0  0  0  0
  196.8060  171.1850  145.7830 C   0  0  0  0  0  2  0  0  0  0  0  0
  195.3160  171.3110  145.7280 C   0  0  2  0  0  3  0  0  0  0  0  0
  197.0720  169.8610  146.3170 N   0  0  0  0  0  2  0  0  0  0  0  0
  194.8770  169.9390  146.1500 C   0  0  0  0  0  2  0  0  0  0  0  0
  1 26  1  0  0  0  0
  3 16  1  6  0  0  0
  4 23  2  0  0  0  0
  5 11  1  6  0  0  0
  5 15  1  0  0  0  0
  6  7  1  1  0  0  0
  6 19  1  0  0  0  0
  6  3  1  0  0  0  0
  7  3  1  0  0  0  0
  8 12  1  0  0  0  0
  9 27  1  1  0  0  0
 10 17  2  0  0  0  0
 11 20  1  0  0  0  0
 13 24  1  6  0  0  0
 13 20  1  0  0  0  0
 13  9  1  0  0  0  0
 14  2  1  0  0  0  0
 15 12  1  1  0  0  0
 15  4  1  0  0  0  0
 16  8  1  0  0  0  0
 17 25  1  0  0  0  0
 17 28  1  0  0  0  0
 18  4  1  0  0  0  0
 18  1  2  0  0  0  0
 19  3  1  0  0  0  0
 19  5  1  0  0  0  0
 20 18  1  0  0  0  0
 22 24  2  0  0  0  0
 22 10  1  0  0  0  0
 23 21  1  0  0  0  0
 25  9  1  0  0  0  0
 25 14  1  0  0  0  0
 26 21  2  0  0  0  0
 27  1  1  0  0  0  0
 27  2  1  0  0  0  0
 28 29  1  0  0  0  0
 29 32  1  0  0  0  0
 30 34  1  0  0  0  0
 30 33  1  0  0  0  0
 31 33  1  0  0  0  0
 32 31  1  0  0  0  0
 32 34  1  0  0  0  0
M  END
>  <MODEL>
8

>  <REMARK>
 VINA RESULT:      -8.1      2.993      5.055
  Name = 
  3 active torsions:
  status: ('A' for Active; 'I' for Inactive)
    1  A    between atoms: C_17  and  O_28
    2  A    between atoms: O_28  and  C_29
    3  A    between atoms: C_29  and  C_32
                            x       y       z     vdW  Elec       q    Type
                         _______ _______ _______ _____ _____    ______ ____

>  <TORSDO>
F 3

$$$$
=
 OpenBabel11112417433D

 34 42  0  0  1  0  0  0  0  0999 V2000
  187.9420  175.4030  140.7720 C   0  0  0  0  0  0  0  0  0  0  0  0
  189.5310  173.9030  139.4460 C   0  0  0  0  0  2  0  0  0  0  0  0
  185.8330  178.0750  146.5410 C   0  0  2  0  0  0  0  0  0  0  0  0
  186.6750  176.9120  142.1770 C   0  0  0  0  0  0  0  0  0  0  0  0
  187.3610  177.3000  144.5600 C   0  0  1  0  0  3  0  0  0  0  0  0
  187.0500  176.7520  147.2220 C   0  0  2  0  0  3  0  0  0  0  0  0
  186.0610  177.4850  147.8260 O   0  0  0  0  0  0  0  0  0  0  0  0
  184.3570  178.6640  144.6290 C   0  0  0  0  0  2  0  0  0  0  0  0
  189.1020  173.4160  141.7760 C   0  0  2  0  0  3  0  0  0  0  0  0
  191.8350  172.8620  143.2890 C   0  0  0  0  0  3  0  0  0  0  0  0
  188.3790  176.1530  144.4050 C   0  0  0  0  0  2  0  0  0  0  0  0
  185.4490  178.6350  143.5590 C   0  0  0  0  0  2  0  0  0  0  0  0
  189.2940  174.2600  143.0380 C   0  0  1  0  0  3  0  0  0  0  0  0
  190.3240  172.6570  139.8140 C   0  0  0  0  0  2  0  0  0  0  0  0
  186.1940  177.2930  143.5520 C   0  0  1  0  0  3  0  0  0  0  0  0
  184.8870  179.0920  145.9990 C   0  0  0  0  0  2  0  0  0  0  0  0
  191.6400  172.8750  141.9570 C   0  0  0  0  0  0  0  0  0  0  0  0
  187.5660  175.8380  142.0550 C   0  0  0  0  0  0  0  0  0  0  0  0
  186.8370  177.3620  145.9530 C   0  0  2  0  0  3  0  0  0  0  0  0
  188.0540  175.1310  143.3060 C   0  0  2  0  0  3  0  0  0  0  0  0
  186.5910  177.1540  139.8110 C   0  0  0  0  0  3  0  0  0  0  0  0
  190.7740  172.7500  144.3080 C   0  0  0  0  0  3  0  0  0  0  0  0
  186.2070  177.5370  141.0600 N   0  0  0  0  0  0  0  0  0  0  0  0
  189.5970  173.3690  144.2010 C   0  0  0  0  0  3  0  0  0  0  0  0
  190.2890  172.5450  141.3420 C   0  0  1  0  0  3  0  0  0  0  0  0
  187.4640  176.0790  139.6440 C   0  0  0  0  0  3  0  0  0  0  0  0
  188.8030  174.2650  140.6440 N   0  0  0  0  0  0  0  0  0  0  0  0
  192.7260  173.1030  141.0990 O   0  0  0  0  0  0  0  0  0  0  0  0
  193.9340  173.7330  141.5140 C   0  0  0  0  0  2  0  0  0  0  0  0
  195.4760  176.3820  142.5190 O   0  0  0  0  0  0  0  0  0  0  0  0
  194.9300  175.7080  140.4240 C   0  0  0  0  0  2  0  0  0  0  0  0
  193.8260  175.2340  141.3150 C   0  0  2  0  0  3  0  0  0  0  0  0
  195.6790  176.6780  141.2040 N   0  0  0  0  0  2  0  0  0  0  0  0
  194.1500  175.9340  142.6030 C   0  0  0  0  0  2  0  0  0  0  0  0
  1 18  1  0  0  0  0
  2 14  1  0  0  0  0
  2 27  1  0  0  0  0
  3 16  1  6  0  0  0
  3  6  1  0  0  0  0
  3  7  1  0  0  0  0
  4 15  1  0  0  0  0
  5 11  1  1  0  0  0
  5 19  1  0  0  0  0
  6  7  1  1  0  0  0
  8 16  1  0  0  0  0
  9 27  1  6  0  0  0
  9 13  1  0  0  0  0
 10 22  1  0  0  0  0
 12  8  1  0  0  0  0
 13 20  1  0  0  0  0
 13 24  1  1  0  0  0
 14 25  1  0  0  0  0
 15 12  1  6  0  0  0
 15  5  1  0  0  0  0
 17 10  2  0  0  0  0
 18  4  2  0  0  0  0
 18 20  1  0  0  0  0
 19  3  1  0  0  0  0
 19  6  1  0  0  0  0
 20 11  1  0  0  0  0
 21 23  2  0  0  0  0
 23  4  1  0  0  0  0
 24 22  2  0  0  0  0
 25  9  1  0  0  0  0
 25 17  1  0  0  0  0
 26 21  1  0  0  0  0
 26  1  2  0  0  0  0
 27  1  1  0  0  0  0
 28 29  1  0  0  0  0
 28 17  1  0  0  0  0
 30 34  1  0  0  0  0
 31 33  1  0  0  0  0
 31 32  1  0  0  0  0
 32 29  1  0  0  0  0
 32 34  1  0  0  0  0
 33 30  1  0  0  0  0
M  END
>  <MODEL>
9

>  <REMARK>
 VINA RESULT:      -7.9      1.896      2.764
  Name = 
  3 active torsions:
  status: ('A' for Active; 'I' for Inactive)
    1  A    between atoms: C_17  and  O_28
    2  A    between atoms: O_28  and  C_29
    3  A    between atoms: C_29  and  C_32
                            x       y       z     vdW  Elec       q    Type
                         _______ _______ _______ _____ _____    ______ ____

>  <TORSDO>
F 3

$$$$
