=
 OpenBabel11112417513D

 34 41  0  0  1  0  0  0  0  0999 V2000
  189.8580  176.6800  144.8100 C   0  0  0  0  0  0  0  0  0  0  0  0
  192.1060  175.8770  143.9470 C   0  0  0  0  0  2  0  0  0  0  0  0
  184.4810  179.0830  143.9400 C   0  0  2  0  0  3  0  0  0  0  0  0
  187.6160  176.9820  145.7260 C   0  0  0  0  0  0  0  0  0  0  0  0
  185.5660  176.6780  144.2020 C   0  0  1  0  0  3  0  0  0  0  0  0
  186.5560  178.8620  143.5720 O   0  0  0  0  0  0  0  0  0  0  0  0
  185.7330  179.9290  143.9770 C   0  0  0  0  0  2  0  0  0  0  0  0
  184.8840  178.7710  146.4670 C   0  0  0  0  0  2  0  0  0  0  0  0
  190.2110  175.8390  142.4430 C   0  0  2  0  0  3  0  0  0  0  0  0
  189.8430  172.9530  140.9600 C   0  0  0  0  0  2  0  0  0  0  0  0
  186.4320  175.7040  143.4030 C   0  0  0  0  0  2  0  0  0  0  0  0
  185.2260  177.3170  146.7100 C   0  0  0  0  0  2  0  0  0  0  0  0
  188.7940  175.2360  142.5460 C   0  0  1  0  0  3  0  0  0  0  0  0
  192.5530  175.2010  142.6610 C   0  0  0  0  0  2  0  0  0  0  0  0
  186.1310  176.7340  145.6260 C   0  0  2  0  0  3  0  0  0  0  0  0
  183.8690  178.8830  145.3350 C   0  0  0  0  0  2  0  0  0  0  0  0
  190.9400  173.3970  141.9450 C   0  0  1  0  0  3  0  0  0  0  0  0
  188.4590  176.6010  144.6560 C   0  0  0  0  0  0  0  0  0  0  0  0
  185.4380  178.0210  143.4400 C   0  0  2  0  0  3  0  0  0  0  0  0
  187.8810  176.2090  143.3050 C   0  0  2  0  0  3  0  0  0  0  0  0
  189.5670  177.5030  147.0740 C   0  0  0  0  0  3  0  0  0  0  0  0
  189.1290  174.1040  140.2470 C   0  0  0  0  0  2  0  0  0  0  0  0
  188.1830  177.4170  146.9320 C   0  0  0  0  0  3  0  0  0  0  0  0
  188.2040  174.9070  141.1660 C   0  0  0  0  0  2  0  0  0  0  0  0
  191.2860  174.9020  141.8680 C   0  0  1  0  0  3  0  0  0  0  0  0
  190.4010  177.1300  146.0210 C   0  0  0  0  0  3  0  0  0  0  0  0
  190.7160  176.2370  143.7470 N   0  0  0  0  0  0  0  0  0  0  0  0
  190.5890  173.0200  143.2470 O   0  0  0  0  0  0  0  0  0  0  0  0
  190.8280  171.6460  143.3120 C   0  0  0  0  0  2  0  0  0  0  0  0
  193.8470  171.6760  145.1730 C   0  0  0  0  0  3  0  0  0  0  0  0
  192.7700  170.2360  143.9930 N   0  0  0  0  0  0  0  0  0  0  0  0
  192.1060  171.4010  144.0340 C   0  0  0  0  0  0  0  0  0  0  0  0
  193.8640  170.4100  144.7130 N   0  0  0  0  0  2  0  0  0  0  0  0
  192.7460  172.3360  144.7600 N   0  0  0  0  0  0  0  0  0  0  0  0
  1 26  1  0  0  0  0
  3  7  1  1  0  0  0
  3 16  1  0  0  0  0
  4 23  2  0  0  0  0
  5 11  1  6  0  0  0
  5 15  1  0  0  0  0
  6  7  1  0  0  0  0
  8 12  1  0  0  0  0
  9 13  1  0  0  0  0
  9 27  1  1  0  0  0
 10 17  1  0  0  0  0
 13 24  1  6  0  0  0
 13 20  1  0  0  0  0
 14  2  1  0  0  0  0
 15  4  1  0  0  0  0
 15 12  1  1  0  0  0
 16  8  1  0  0  0  0
 17 28  1  1  0  0  0
 18  1  2  0  0  0  0
 18  4  1  0  0  0  0
 19  6  1  1  0  0  0
 19  3  1  0  0  0  0
 19  5  1  0  0  0  0
 20 11  1  1  0  0  0
 20 18  1  0  0  0  0
 22 10  1  0  0  0  0
 22 24  1  0  0  0  0
 23 21  1  0  0  0  0
 25 17  1  0  0  0  0
 25  9  1  0  0  0  0
 25 14  1  1  0  0  0
 26 21  2  0  0  0  0
 27  2  1  0  0  0  0
 27  1  1  0  0  0  0
 28 29  1  0  0  0  0
 29 32  1  0  0  0  0
 31 32  2  0  0  0  0
 31 33  1  0  0  0  0
 32 34  1  0  0  0  0
 33 30  1  0  0  0  0
 34 30  2  0  0  0  0
M  END
>  <MODEL>
1

>  <REMARK>
 VINA RESULT:      -9.0      0.000      0.000
  Name = 
  3 active torsions:
  status: ('A' for Active; 'I' for Inactive)
    1  A    between atoms: C_17  and  O_28
    2  A    between atoms: O_28  and  C_29
    3  A    between atoms: C_29  and  C_32
                            x       y       z     vdW  Elec       q    Type
                         _______ _______ _______ _____ _____    ______ ____

>  <TORSDO>
F 3

$$$$
=
 OpenBabel11112417513D

 34 41  0  0  1  0  0  0  0  0999 V2000
  189.9320  173.9190  143.7170 C   0  0  0  0  0  0  0  0  0  0  0  0
  191.8300  172.2540  143.9780 C   0  0  0  0  0  2  0  0  0  0  0  0
  186.2760  178.0660  145.9260 C   0  0  2  0  0  3  0  0  0  0  0  0
  188.4190  175.7590  143.1850 C   0  0  0  0  0  0  0  0  0  0  0  0
  188.5360  177.9390  144.5460 C   0  0  1  0  0  3  0  0  0  0  0  0
  187.4190  176.2840  146.0170 O   0  0  0  0  0  0  0  0  0  0  0  0
  186.0560  176.5940  146.1860 C   0  0  0  0  0  2  0  0  0  0  0  0
  185.5860  177.5130  143.5050 C   0  0  0  0  0  2  0  0  0  0  0  0
  191.7820  174.1900  145.4310 C   0  0  2  0  0  3  0  0  0  0  0  0
  194.6310  175.7850  145.4910 C   0  0  0  0  0  2  0  0  0  0  0  0
  190.0110  177.6010  144.7670 C   0  0  0  0  0  2  0  0  0  0  0  0
  186.7930  177.7140  142.6160 C   0  0  0  0  0  2  0  0  0  0  0  0
  191.6790  175.7060  145.1640 C   0  0  1  0  0  3  0  0  0  0  0  0
  193.1120  172.2490  144.7940 C   0  0  0  0  0  2  0  0  0  0  0  0
  188.0890  177.2300  143.2620 C   0  0  2  0  0  3  0  0  0  0  0  0
  185.5930  178.5390  144.6330 C   0  0  0  0  0  2  0  0  0  0  0  0
  194.2660  174.4930  144.7370 C   0  0  1  0  0  3  0  0  0  0  0  0
  189.5210  175.2530  143.9130 C   0  0  0  0  0  0  0  0  0  0  0  0
  187.7270  177.6440  145.8340 C   0  0  2  0  0  3  0  0  0  0  0  0
  190.2040  176.0910  144.9820 C   0  0  2  0  0  3  0  0  0  0  0  0
  188.1640  173.6110  142.0840 C   0  0  0  0  0  3  0  0  0  0  0  0
  193.7300  176.0940  146.6890 C   0  0  0  0  0  2  0  0  0  0  0  0
  187.7600  174.9320  142.2650 C   0  0  0  0  0  3  0  0  0  0  0  0
  192.3190  176.5350  146.2890 C   0  0  0  0  0  2  0  0  0  0  0  0
  193.2100  173.6200  145.4540 C   0  0  1  0  0  3  0  0  0  0  0  0
  189.2490  173.1080  142.8010 C   0  0  0  0  0  3  0  0  0  0  0  0
  191.0860  173.4220  144.4110 N   0  0  0  0  0  0  0  0  0  0  0  0
  193.8690  174.8030  143.4300 O   0  0  0  0  0  0  0  0  0  0  0  0
  194.5750  175.9600  143.0930 C   0  0  0  0  0  2  0  0  0  0  0  0
  195.6890  175.0880  139.8410 C   0  0  0  0  0  3  0  0  0  0  0  0
  196.4090  176.3290  141.4430 N   0  0  0  0  0  0  0  0  0  0  0  0
  195.2360  175.7690  141.7740 C   0  0  0  0  0  0  0  0  0  0  0  0
  196.6910  175.9020  140.2250 N   0  0  0  0  0  2  0  0  0  0  0  0
  194.7480  174.9780  140.8000 N   0  0  0  0  0  0  0  0  0  0  0  0
  1 18  1  0  0  0  0
  1 27  1  0  0  0  0
  2 27  1  0  0  0  0
  2 14  1  0  0  0  0
  3 16  1  6  0  0  0
  3  7  1  0  0  0  0
  4 15  1  0  0  0  0
  4 18  2  0  0  0  0
  5 11  1  1  0  0  0
  5 19  1  0  0  0  0
  6  7  1  0  0  0  0
  8 16  1  0  0  0  0
  9 27  1  6  0  0  0
  9 25  1  0  0  0  0
 10 22  1  0  0  0  0
 12  8  1  0  0  0  0
 13  9  1  0  0  0  0
 13 24  1  1  0  0  0
 15 12  1  1  0  0  0
 15  5  1  0  0  0  0
 17 28  1  6  0  0  0
 17 25  1  0  0  0  0
 17 10  1  0  0  0  0
 18 20  1  0  0  0  0
 19  3  1  0  0  0  0
 19  6  1  6  0  0  0
 20 11  1  6  0  0  0
 20 13  1  0  0  0  0
 21 23  2  0  0  0  0
 21 26  1  0  0  0  0
 23  4  1  0  0  0  0
 24 22  1  0  0  0  0
 25 14  1  6  0  0  0
 26  1  2  0  0  0  0
 29 28  1  0  0  0  0
 30 33  1  0  0  0  0
 30 34  2  0  0  0  0
 31 32  2  0  0  0  0
 32 29  1  0  0  0  0
 33 31  1  0  0  0  0
 34 32  1  0  0  0  0
M  END
>  <MODEL>
2

>  <REMARK>
 VINA RESULT:      -8.7      2.681      4.793
  Name = 
  3 active torsions:
  status: ('A' for Active; 'I' for Inactive)
    1  A    between atoms: C_17  and  O_28
    2  A    between atoms: O_28  and  C_29
    3  A    between atoms: C_29  and  C_32
                            x       y       z     vdW  Elec       q    Type
                         _______ _______ _______ _____ _____    ______ ____

>  <TORSDO>
F 3

$$$$
=
 OpenBabel11112417513D

 34 41  0  0  1  0  0  0  0  0999 V2000
  191.6590  173.0120  143.4480 C   0  0  0  0  0  0  0  0  0  0  0  0
  189.2570  173.0940  142.6320 C   0  0  0  0  0  2  0  0  0  0  0  0
  197.2550  175.0460  143.4380 C   0  0  2  0  0  3  0  0  0  0  0  0
  193.7800  173.0760  144.6540 C   0  0  0  0  0  0  0  0  0  0  0  0
  195.0480  175.3030  144.8850 C   0  0  1  0  0  3  0  0  0  0  0  0
  195.3950  174.5690  142.5420 O   0  0  0  0  0  0  0  0  0  0  0  0
  196.7270  174.1680  142.3270 C   0  0  0  0  0  2  0  0  0  0  0  0
  197.1170  172.9170  144.8860 C   0  0  0  0  0  2  0  0  0  0  0  0
  190.5540  175.1370  142.6150 C   0  0  2  0  0  3  0  0  0  0  0  0
  188.9970  177.6230  144.0530 C   0  0  0  0  0  2  0  0  0  0  0  0
  193.6770  175.9750  144.7970 C   0  0  0  0  0  2  0  0  0  0  0  0
  196.0490  173.1340  145.9360 C   0  0  0  0  0  2  0  0  0  0  0  0
  191.3740  175.8750  143.6950 C   0  0  1  0  0  3  0  0  0  0  0  0
  188.3260  174.2260  142.2340 C   0  0  0  0  0  2  0  0  0  0  0  0
  194.8280  173.8730  145.3920 C   0  0  2  0  0  3  0  0  0  0  0  0
  197.8400  174.2290  144.6010 C   0  0  0  0  0  2  0  0  0  0  0  0
  188.5030  176.1830  143.8180 C   0  0  1  0  0  3  0  0  0  0  0  0
  192.7260  173.7520  143.9980 C   0  0  0  0  0  0  0  0  0  0  0  0
  195.8050  175.4670  143.5420 C   0  0  2  0  0  3  0  0  0  0  0  0
  192.7760  175.2560  143.7790 C   0  0  2  0  0  3  0  0  0  0  0  0
  192.6910  170.9530  144.2110 C   0  0  0  0  0  3  0  0  0  0  0  0
  190.1270  178.0650  143.1180 C   0  0  0  0  0  2  0  0  0  0  0  0
  193.7430  171.6800  144.7660 C   0  0  0  0  0  3  0  0  0  0  0  0
  191.4640  177.3840  143.4200 C   0  0  0  0  0  2  0  0  0  0  0  0
  189.0670  175.5230  142.5390 C   0  0  1  0  0  3  0  0  0  0  0  0
  191.6510  171.6150  143.5610 C   0  0  0  0  0  3  0  0  0  0  0  0
  190.5600  173.7000  142.8330 N   0  0  0  0  0  0  0  0  0  0  0  0
  188.7620  175.4020  144.9510 O   0  0  0  0  0  0  0  0  0  0  0  0
  188.5480  176.2490  146.0410 C   0  0  0  0  0  2  0  0  0  0  0  0
  191.3400  176.7090  148.1790 C   0  0  0  0  0  3  0  0  0  0  0  0
  190.2940  175.0280  147.3390 N   0  0  0  0  0  0  0  0  0  0  0  0
  189.7180  176.1780  146.9580 C   0  0  0  0  0  0  0  0  0  0  0  0
  191.3130  175.3640  148.1100 N   0  0  0  0  0  0  0  0  0  0  0  0
  190.3440  177.2590  147.4580 N   0  0  0  0  0  2  0  0  0  0  0  0
  1 26  2  0  0  0  0
  1 18  1  0  0  0  0
  2 27  1  0  0  0  0
  3  7  1  6  0  0  0
  3 19  1  0  0  0  0
  3 16  1  0  0  0  0
  4 23  1  0  0  0  0
  4 15  1  0  0  0  0
  5 11  1  6  0  0  0
  5 15  1  0  0  0  0
  7  6  1  0  0  0  0
  8 12  1  0  0  0  0
  9 27  1  1  0  0  0
  9 13  1  0  0  0  0
 13 24  1  6  0  0  0
 13 20  1  0  0  0  0
 14  2  1  0  0  0  0
 15 12  1  6  0  0  0
 16  8  1  0  0  0  0
 17 10  1  0  0  0  0
 17 28  1  1  0  0  0
 18  4  2  0  0  0  0
 19  6  1  6  0  0  0
 19  5  1  0  0  0  0
 20 18  1  0  0  0  0
 20 11  1  1  0  0  0
 21 23  2  0  0  0  0
 22 24  1  0  0  0  0
 22 10  1  0  0  0  0
 25 14  1  1  0  0  0
 25  9  1  0  0  0  0
 25 17  1  0  0  0  0
 26 21  1  0  0  0  0
 27  1  1  0  0  0  0
 28 29  1  0  0  0  0
 29 32  1  0  0  0  0
 31 33  1  0  0  0  0
 32 31  2  0  0  0  0
 32 34  1  0  0  0  0
 33 30  2  0  0  0  0
 34 30  1  0  0  0  0
M  END
>  <MODEL>
3

>  <REMARK>
 VINA RESULT:      -7.8      2.735      7.686
  Name = 
  3 active torsions:
  status: ('A' for Active; 'I' for Inactive)
    1  A    between atoms: C_17  and  O_28
    2  A    between atoms: O_28  and  C_29
    3  A    between atoms: C_29  and  C_32
                            x       y       z     vdW  Elec       q    Type
                         _______ _______ _______ _____ _____    ______ ____

>  <TORSDO>
F 3

$$$$
=
 OpenBabel11112417513D

 34 41  0  0  1  0  0  0  0  0999 V2000
  194.1870  175.1550  145.1420 C   0  0  0  0  0  0  0  0  0  0  0  0
  196.5210  174.4980  144.3920 C   0  0  0  0  0  2  0  0  0  0  0  0
  188.3910  175.9870  144.0650 C   0  0  2  0  0  3  0  0  0  0  0  0
  191.9680  175.3850  146.1320 C   0  0  0  0  0  0  0  0  0  0  0  0
  189.9760  174.1280  145.0990 C   0  0  1  0  0  3  0  0  0  0  0  0
  190.4500  176.0180  143.5650 O   0  0  0  0  0  0  0  0  0  0  0  0
  189.4320  176.9900  143.6250 C   0  0  0  0  0  2  0  0  0  0  0  0
  188.9460  176.7900  146.4510 C   0  0  0  0  0  2  0  0  0  0  0  0
  194.6230  173.5170  143.2550 C   0  0  2  0  0  3  0  0  0  0  0  0
  194.8270  170.2640  143.0480 C   0  0  0  0  0  2  0  0  0  0  0  0
  191.0000  173.0920  144.6370 C   0  0  0  0  0  2  0  0  0  0  0  0
  189.6010  175.6450  147.1910 C   0  0  0  0  0  2  0  0  0  0  0  0
  193.3740  172.7580  143.7500 C   0  0  1  0  0  3  0  0  0  0  0  0
  197.0540  173.4580  143.4200 C   0  0  0  0  0  2  0  0  0  0  0  0
  190.5680  174.8520  146.3140 C   0  0  2  0  0  3  0  0  0  0  0  0
  187.8890  176.2540  145.4930 C   0  0  0  0  0  2  0  0  0  0  0  0
  195.8400  171.2560  143.6490 C   0  0  1  0  0  3  0  0  0  0  0  0
  192.8330  174.7680  145.1990 C   0  0  0  0  0  0  0  0  0  0  0  0
  189.5340  175.0070  143.9010 C   0  0  2  0  0  3  0  0  0  0  0  0
  192.3020  173.7700  144.1810 C   0  0  2  0  0  3  0  0  0  0  0  0
  193.8110  176.7470  146.9340 C   0  0  0  0  0  3  0  0  0  0  0  0
  193.8570  170.8830  142.0390 C   0  0  0  0  0  2  0  0  0  0  0  0
  192.4730  176.3610  147.0020 C   0  0  0  0  0  3  0  0  0  0  0  0
  192.8170  171.8030  142.6830 C   0  0  0  0  0  2  0  0  0  0  0  0
  195.8520  172.6410  142.9600 C   0  0  1  0  0  3  0  0  0  0  0  0
  194.6660  176.1420  146.0130 C   0  0  0  0  0  3  0  0  0  0  0  0
  195.0790  174.4880  144.2360 N   0  0  0  0  0  0  0  0  0  0  0  0
  195.6270  171.3760  145.0270 O   0  0  0  0  0  0  0  0  0  0  0  0
  196.6650  170.6580  145.6260 C   0  0  0  0  0  2  0  0  0  0  0  0
  194.7460  168.4880  147.6730 C   0  0  0  0  0  3  0  0  0  0  0  0
  196.8350  168.9380  147.4250 N   0  0  0  0  0  0  0  0  0  0  0  0
  196.0940  169.6590  146.5690 C   0  0  0  0  0  0  0  0  0  0  0  0
  195.9850  168.2000  148.1160 N   0  0  0  0  0  0  0  0  0  0  0  0
  194.7770  169.4130  146.6920 N   0  0  0  0  0  2  0  0  0  0  0  0
  1 18  2  0  0  0  0
  1 26  1  0  0  0  0
  3  7  1  1  0  0  0
  3 16  1  0  0  0  0
  4 15  1  0  0  0  0
  4 23  2  0  0  0  0
  5 11  1  6  0  0  0
  5 15  1  0  0  0  0
  6  7  1  0  0  0  0
  8 12  1  0  0  0  0
  9 13  1  0  0  0  0
  9 27  1  1  0  0  0
 10 17  1  0  0  0  0
 13 24  1  6  0  0  0
 13 20  1  0  0  0  0
 14  2  1  0  0  0  0
 15 12  1  6  0  0  0
 16  8  1  0  0  0  0
 17 28  1  1  0  0  0
 18  4  1  0  0  0  0
 19  6  1  1  0  0  0
 19  3  1  0  0  0  0
 19  5  1  0  0  0  0
 20 11  1  1  0  0  0
 20 18  1  0  0  0  0
 21 23  1  0  0  0  0
 22 24  1  0  0  0  0
 22 10  1  0  0  0  0
 25  9  1  0  0  0  0
 25 14  1  1  0  0  0
 25 17  1  0  0  0  0
 26 21  2  0  0  0  0
 27  2  1  0  0  0  0
 27  1  1  0  0  0  0
 28 29  1  0  0  0  0
 29 32  1  0  0  0  0
 30 33  2  0  0  0  0
 31 33  1  0  0  0  0
 32 34  1  0  0  0  0
 32 31  2  0  0  0  0
 34 30  1  0  0  0  0
M  END
>  <MODEL>
4

>  <REMARK>
 VINA RESULT:      -7.6      2.895      5.026
  Name = 
  3 active torsions:
  status: ('A' for Active; 'I' for Inactive)
    1  A    between atoms: C_17  and  O_28
    2  A    between atoms: O_28  and  C_29
    3  A    between atoms: C_29  and  C_32
                            x       y       z     vdW  Elec       q    Type
                         _______ _______ _______ _____ _____    ______ ____

>  <TORSDO>
F 3

$$$$
=
 OpenBabel11112417513D

 34 41  0  0  1  0  0  0  0  0999 V2000
  191.0220  173.0500  144.0060 C   0  0  0  0  0  0  0  0  0  0  0  0
  192.8830  171.3280  144.1320 C   0  0  0  0  0  2  0  0  0  0  0  0
  187.8910  177.5430  146.3430 C   0  0  2  0  0  3  0  0  0  0  0  0
  189.5050  174.9040  143.5390 C   0  0  0  0  0  0  0  0  0  0  0  0
  189.9040  177.1880  144.6540 C   0  0  1  0  0  3  0  0  0  0  0  0
  188.9760  175.7240  146.4270 O   0  0  0  0  0  0  0  0  0  0  0  0
  187.6670  176.1110  146.7720 C   0  0  0  0  0  2  0  0  0  0  0  0
  186.8140  176.8100  144.1180 C   0  0  0  0  0  2  0  0  0  0  0  0
  193.1240  173.3850  145.3850 C   0  0  2  0  0  3  0  0  0  0  0  0
  195.9980  174.8450  144.8600 C   0  0  0  0  0  2  0  0  0  0  0  0
  191.3830  176.8030  144.6780 C   0  0  0  0  0  2  0  0  0  0  0  0
  187.8750  176.8760  143.0410 C   0  0  0  0  0  2  0  0  0  0  0  0
  193.0300  174.8750  144.9950 C   0  0  1  0  0  3  0  0  0  0  0  0
  194.2750  171.3360  144.7400 C   0  0  0  0  0  2  0  0  0  0  0  0
  189.2390  176.3900  143.5260 C   0  0  2  0  0  3  0  0  0  0  0  0
  187.0310  177.9300  145.1290 C   0  0  0  0  0  2  0  0  0  0  0  0
  195.4790  173.5100  144.2960 C   0  0  1  0  0  3  0  0  0  0  0  0
  190.6900  174.4140  144.1350 C   0  0  0  0  0  0  0  0  0  0  0  0
  189.2950  177.0460  146.0710 C   0  0  2  0  0  3  0  0  0  0  0  0
  191.5580  175.3110  145.0040 C   0  0  2  0  0  3  0  0  0  0  0  0
  189.0120  172.6810  142.6980 C   0  0  0  0  0  3  0  0  0  0  0  0
  195.3050  175.3010  146.1460 C   0  0  0  0  0  2  0  0  0  0  0  0
  188.6840  174.0310  142.8120 C   0  0  0  0  0  3  0  0  0  0  0  0
  193.8640  175.7700  145.9250 C   0  0  0  0  0  2  0  0  0  0  0  0
  194.5190  172.7540  145.2440 C   0  0  1  0  0  3  0  0  0  0  0  0
  190.1780  172.1940  143.2860 C   0  0  0  0  0  3  0  0  0  0  0  0
  192.2540  172.5630  144.5600 N   0  0  0  0  0  0  0  0  0  0  0  0
  194.8930  173.7210  143.0410 O   0  0  0  0  0  0  0  0  0  0  0  0
  195.9610  173.8590  142.1530 C   0  0  0  0  0  2  0  0  0  0  0  0
  195.3140  174.8450  138.8070 C   0  0  0  0  0  3  0  0  0  0  0  0
  194.2770  174.9720  140.6870 N   0  0  0  0  0  0  0  0  0  0  0  0
  195.4520  174.3440  140.8410 C   0  0  0  0  0  0  0  0  0  0  0  0
  194.1900  175.2840  139.4060 N   0  0  0  0  0  2  0  0  0  0  0  0
  196.1400  174.2460  139.6890 N   0  0  0  0  0  0  0  0  0  0  0  0
  1 18  1  0  0  0  0
  1 27  1  0  0  0  0
  2 27  1  0  0  0  0
  2 14  1  0  0  0  0
  3 16  1  6  0  0  0
  3  7  1  0  0  0  0
  4 18  2  0  0  0  0
  5 11  1  1  0  0  0
  5 19  1  0  0  0  0
  6  7  1  0  0  0  0
  8 16  1  0  0  0  0
  9 27  1  6  0  0  0
 10 22  1  0  0  0  0
 12  8  1  0  0  0  0
 13 20  1  0  0  0  0
 13  9  1  0  0  0  0
 13 24  1  1  0  0  0
 15 12  1  1  0  0  0
 15  4  1  0  0  0  0
 15  5  1  0  0  0  0
 17 28  1  6  0  0  0
 17 10  1  0  0  0  0
 17 25  1  0  0  0  0
 18 20  1  0  0  0  0
 19  3  1  0  0  0  0
 19  6  1  6  0  0  0
 20 11  1  6  0  0  0
 21 23  2  0  0  0  0
 21 26  1  0  0  0  0
 23  4  1  0  0  0  0
 24 22  1  0  0  0  0
 25 14  1  6  0  0  0
 25  9  1  0  0  0  0
 26  1  2  0  0  0  0
 29 28  1  0  0  0  0
 30 33  1  0  0  0  0
 30 34  2  0  0  0  0
 31 32  2  0  0  0  0
 32 29  1  0  0  0  0
 33 31  1  0  0  0  0
 34 32  1  0  0  0  0
M  END
>  <MODEL>
5

>  <REMARK>
 VINA RESULT:      -7.6      2.792      5.330
  Name = 
  3 active torsions:
  status: ('A' for Active; 'I' for Inactive)
    1  A    between atoms: C_17  and  O_28
    2  A    between atoms: O_28  and  C_29
    3  A    between atoms: C_29  and  C_32
                            x       y       z     vdW  Elec       q    Type
                         _______ _______ _______ _____ _____    ______ ____

>  <TORSDO>
F 3

$$$$
=
 OpenBabel11112417513D

 34 41  0  0  1  0  0  0  0  0999 V2000
  189.1810  174.9320  141.7070 C   0  0  0  0  0  0  0  0  0  0  0  0
  188.1200  177.2340  141.8460 C   0  0  0  0  0  2  0  0  0  0  0  0
  193.7100  171.1960  142.6910 C   0  0  2  0  0  3  0  0  0  0  0  0
  189.8590  172.5950  141.8910 C   0  0  0  0  0  0  0  0  0  0  0  0
  191.4040  171.8650  143.8140 C   0  0  1  0  0  3  0  0  0  0  0  0
  192.8540  173.0720  142.2060 O   0  0  0  0  0  0  0  0  0  0  0  0
  193.7330  172.1880  141.5520 C   0  0  0  0  0  2  0  0  0  0  0  0
  191.8900  169.9960  141.3150 C   0  0  0  0  0  2  0  0  0  0  0  0
  189.7730  176.6210  143.5040 C   0  0  2  0  0  3  0  0  0  0  0  0
  188.7510  177.1670  146.5580 C   0  0  0  0  0  2  0  0  0  0  0  0
  190.7930  173.0210  144.6080 C   0  0  0  0  0  2  0  0  0  0  0  0
  190.5850  170.0990  142.0750 C   0  0  0  0  0  2  0  0  0  0  0  0
  189.9130  175.4150  144.4580 C   0  0  1  0  0  3  0  0  0  0  0  0
  188.1770  178.3510  142.8750 C   0  0  0  0  0  2  0  0  0  0  0  0
  190.3920  171.4630  142.7350 C   0  0  2  0  0  3  0  0  0  0  0  0
  193.0520  169.8650  142.2930 C   0  0  0  0  0  2  0  0  0  0  0  0
  188.0250  177.4610  145.2320 C   0  0  1  0  0  3  0  0  0  0  0  0
  189.8250  173.9050  142.4240 C   0  0  0  0  0  0  0  0  0  0  0  0
  192.8290  172.2420  143.3400 C   0  0  2  0  0  3  0  0  0  0  0  0
  190.5670  174.2470  143.7070 C   0  0  2  0  0  3  0  0  0  0  0  0
  188.6080  173.3540  139.9540 C   0  0  0  0  0  3  0  0  0  0  0  0
  190.2720  177.0440  146.4330 C   0  0  0  0  0  2  0  0  0  0  0  0
  189.2340  172.3320  140.6650 C   0  0  0  0  0  3  0  0  0  0  0  0
  190.7200  175.7670  145.7180 C   0  0  0  0  0  2  0  0  0  0  0  0
  188.9700  177.8090  144.0590 C   0  0  1  0  0  3  0  0  0  0  0  0
  188.5750  174.6470  140.4750 C   0  0  0  0  0  3  0  0  0  0  0  0
  189.0950  176.2490  142.2740 N   0  0  0  0  0  0  0  0  0  0  0  0
  187.1810  176.3920  144.9060 O   0  0  0  0  0  0  0  0  0  0  0  0
  185.9780  176.6570  145.5640 C   0  0  0  0  0  2  0  0  0  0  0  0
  184.1650  178.4290  143.0830 C   0  0  0  0  0  3  0  0  0  0  0  0
  184.5710  178.6810  145.1800 N   0  0  0  0  0  0  0  0  0  0  0  0
  185.1430  177.5570  144.7230 C   0  0  0  0  0  0  0  0  0  0  0  0
  183.9530  179.2260  144.1480 N   0  0  0  0  0  0  0  0  0  0  0  0
  184.9190  177.3600  143.4110 N   0  0  0  0  0  2  0  0  0  0  0  0
  1 27  1  0  0  0  0
  1 18  1  0  0  0  0
  2 27  1  0  0  0  0
  2 14  1  0  0  0  0
  3  7  1  6  0  0  0
  3 19  1  0  0  0  0
  4 18  2  0  0  0  0
  4 15  1  0  0  0  0
  5 11  1  6  0  0  0
  7  6  1  0  0  0  0
  8 12  1  0  0  0  0
  8 16  1  0  0  0  0
  9 27  1  6  0  0  0
  9 25  1  0  0  0  0
  9 13  1  0  0  0  0
 13 24  1  1  0  0  0
 15 12  1  6  0  0  0
 15  5  1  0  0  0  0
 16  3  1  0  0  0  0
 17 28  1  6  0  0  0
 17 10  1  0  0  0  0
 18 20  1  0  0  0  0
 19  6  1  6  0  0  0
 19  5  1  0  0  0  0
 20 13  1  0  0  0  0
 20 11  1  1  0  0  0
 21 26  1  0  0  0  0
 21 23  2  0  0  0  0
 22 10  1  0  0  0  0
 23  4  1  0  0  0  0
 24 22  1  0  0  0  0
 25 14  1  6  0  0  0
 25 17  1  0  0  0  0
 26  1  2  0  0  0  0
 28 29  1  0  0  0  0
 30 34  1  0  0  0  0
 30 33  2  0  0  0  0
 32 31  2  0  0  0  0
 32 29  1  0  0  0  0
 33 31  1  0  0  0  0
 34 32  1  0  0  0  0
M  END
>  <MODEL>
6

>  <REMARK>
 VINA RESULT:      -7.5      2.611      8.084
  Name = 
  3 active torsions:
  status: ('A' for Active; 'I' for Inactive)
    1  A    between atoms: C_17  and  O_28
    2  A    between atoms: O_28  and  C_29
    3  A    between atoms: C_29  and  C_32
                            x       y       z     vdW  Elec       q    Type
                         _______ _______ _______ _____ _____    ______ ____

>  <TORSDO>
F 3

$$$$
=
 OpenBabel11112417513D

 34 41  0  0  1  0  0  0  0  0999 V2000
  192.9710  174.9680  143.3630 C   0  0  0  0  0  0  0  0  0  0  0  0
  193.6380  176.3930  145.3550 C   0  0  0  0  0  2  0  0  0  0  0  0
  190.8310  169.9290  141.0230 C   0  0  2  0  0  3  0  0  0  0  0  0
  191.9790  173.9270  141.3910 C   0  0  0  0  0  0  0  0  0  0  0  0
  189.9630  172.3520  141.6610 C   0  0  1  0  0  3  0  0  0  0  0  0
  191.9340  171.0620  142.4340 O   0  0  0  0  0  0  0  0  0  0  0  0
  192.2510  170.0280  141.5320 C   0  0  0  0  0  2  0  0  0  0  0  0
  191.6380  171.4810  139.1300 C   0  0  0  0  0  2  0  0  0  0  0  0
  191.9130  174.7210  145.6550 C   0  0  2  0  0  3  0  0  0  0  0  0
  189.2330  175.9250  147.0810 C   0  0  0  0  0  2  0  0  0  0  0  0
  189.6210  173.1690  142.9070 C   0  0  0  0  0  2  0  0  0  0  0  0
  190.9320  172.8110  139.2810 C   0  0  0  0  0  2  0  0  0  0  0  0
  190.5950  174.4210  144.9110 C   0  0  1  0  0  3  0  0  0  0  0  0
  193.0790  176.5550  146.7590 C   0  0  0  0  0  2  0  0  0  0  0  0
  190.8000  173.2460  140.7390 C   0  0  2  0  0  3  0  0  0  0  0  0
  190.7090  170.3480  139.5500 C   0  0  0  0  0  2  0  0  0  0  0  0
  190.5570  176.6420  146.7580 C   0  0  1  0  0  3  0  0  0  0  0  0
  191.9500  174.1910  142.7800 C   0  0  0  0  0  0  0  0  0  0  0  0
  190.5780  170.9900  142.0730 C   0  0  2  0  0  3  0  0  0  0  0  0
  190.8940  173.5600  143.6750 C   0  0  2  0  0  3  0  0  0  0  0  0
  194.0260  175.2150  141.1920 C   0  0  0  0  0  3  0  0  0  0  0  0
  189.3440  174.4010  147.1730 C   0  0  0  0  0  2  0  0  0  0  0  0
  193.0130  174.4560  140.6080 C   0  0  0  0  0  3  0  0  0  0  0  0
  189.5660  173.7270  145.8170 C   0  0  0  0  0  2  0  0  0  0  0  0
  191.8010  175.7260  146.8140 C   0  0  1  0  0  3  0  0  0  0  0  0
  194.0020  175.4760  142.5610 C   0  0  0  0  0  3  0  0  0  0  0  0
  192.9110  175.2870  144.7620 N   0  0  0  0  0  0  0  0  0  0  0  0
  190.4560  177.2890  145.5210 O   0  0  0  0  0  0  0  0  0  0  0  0
  189.1130  177.6520  145.4010 C   0  0  0  0  0  2  0  0  0  0  0  0
  188.9200  178.0520  141.8820 C   0  0  0  0  0  3  0  0  0  0  0  0
  187.5160  177.9490  143.5070 N   0  0  0  0  0  0  0  0  0  0  0  0
  188.7700  177.8080  143.9610 C   0  0  0  0  0  0  0  0  0  0  0  0
  187.6120  178.0990  142.1980 N   0  0  0  0  0  2  0  0  0  0  0  0
  189.6860  177.8710  142.9760 N   0  0  0  0  0  0  0  0  0  0  0  0
  1 27  1  0  0  0  0
  2 14  1  0  0  0  0
  3 16  1  6  0  0  0
  3  7  1  0  0  0  0
  3 19  1  0  0  0  0
  4 18  2  0  0  0  0
  5 19  1  0  0  0  0
  5 11  1  1  0  0  0
  7  6  1  0  0  0  0
  8 12  1  0  0  0  0
  8 16  1  0  0  0  0
  9 27  1  6  0  0  0
  9 25  1  0  0  0  0
 10 22  1  0  0  0  0
 13  9  1  0  0  0  0
 13 24  1  1  0  0  0
 15 12  1  6  0  0  0
 15  4  1  0  0  0  0
 15  5  1  0  0  0  0
 17 28  1  6  0  0  0
 17 25  1  0  0  0  0
 17 10  1  0  0  0  0
 18  1  1  0  0  0  0
 18 20  1  0  0  0  0
 19  6  1  6  0  0  0
 20 11  1  6  0  0  0
 20 13  1  0  0  0  0
 21 26  1  0  0  0  0
 23 21  2  0  0  0  0
 23  4  1  0  0  0  0
 24 22  1  0  0  0  0
 25 14  1  6  0  0  0
 26  1  2  0  0  0  0
 27  2  1  0  0  0  0
 29 28  1  0  0  0  0
 30 33  1  0  0  0  0
 30 34  2  0  0  0  0
 31 32  2  0  0  0  0
 32 29  1  0  0  0  0
 33 31  1  0  0  0  0
 34 32  1  0  0  0  0
M  END
>  <MODEL>
7

>  <REMARK>
 VINA RESULT:      -7.5      2.971      7.481
  Name = 
  3 active torsions:
  status: ('A' for Active; 'I' for Inactive)
    1  A    between atoms: C_17  and  O_28
    2  A    between atoms: O_28  and  C_29
    3  A    between atoms: C_29  and  C_32
                            x       y       z     vdW  Elec       q    Type
                         _______ _______ _______ _____ _____    ______ ____

>  <TORSDO>
F 3

$$$$
=
 OpenBabel11112417513D

 34 41  0  0  1  0  0  0  0  0999 V2000
  190.5530  176.6140  145.6070 C   0  0  0  0  0  0  0  0  0  0  0  0
  192.8670  176.4090  146.6280 C   0  0  0  0  0  2  0  0  0  0  0  0
  186.9420  177.9720  141.0710 C   0  0  2  0  0  3  0  0  0  0  0  0
  188.3250  176.3280  144.6520 C   0  0  0  0  0  0  0  0  0  0  0  0
  188.0700  175.8240  142.1420 C   0  0  1  0  0  3  0  0  0  0  0  0
  188.6560  178.2290  142.2900 O   0  0  0  0  0  0  0  0  0  0  0  0
  187.5610  179.0410  141.9410 C   0  0  0  0  0  2  0  0  0  0  0  0
  185.5320  177.4070  143.1530 C   0  0  0  0  0  2  0  0  0  0  0  0
  192.6400  176.1930  144.2280 C   0  0  2  0  0  3  0  0  0  0  0  0
  194.1130  173.5200  143.0640 C   0  0  0  0  0  2  0  0  0  0  0  0
  189.4460  175.1640  142.2390 C   0  0  0  0  0  2  0  0  0  0  0  0
  185.9420  176.0340  143.6390 C   0  0  0  0  0  2  0  0  0  0  0  0
  191.7530  175.3060  143.3290 C   0  0  1  0  0  3  0  0  0  0  0  0
  194.2260  176.0200  146.0710 C   0  0  0  0  0  2  0  0  0  0  0  0
  187.4480  175.7990  143.5430 C   0  0  2  0  0  3  0  0  0  0  0  0
  185.6040  177.4640  141.6320 C   0  0  0  0  0  2  0  0  0  0  0  0
  194.0650  174.0400  144.5130 C   0  0  1  0  0  3  0  0  0  0  0  0
  189.7310  176.2750  144.5130 C   0  0  0  0  0  0  0  0  0  0  0  0
  188.1920  177.2040  141.4480 C   0  0  2  0  0  3  0  0  0  0  0  0
  190.3740  175.9610  143.1700 C   0  0  2  0  0  3  0  0  0  0  0  0
  188.5830  177.0460  146.9560 C   0  0  0  0  0  3  0  0  0  0  0  0
  193.8510  174.5890  142.0000 C   0  0  0  0  0  2  0  0  0  0  0  0
  187.7650  176.7000  145.8810 C   0  0  0  0  0  3  0  0  0  0  0  0
  192.3930  175.0550  141.9550 C   0  0  0  0  0  2  0  0  0  0  0  0
  193.9920  175.5800  144.6290 C   0  0  1  0  0  3  0  0  0  0  0  0
  189.9700  176.9960  146.8220 C   0  0  0  0  0  3  0  0  0  0  0  0
  191.9790  176.5030  145.4850 N   0  0  0  0  0  0  0  0  0  0  0  0
  193.0110  173.4270  145.2010 O   0  0  0  0  0  0  0  0  0  0  0  0
  192.8910  172.1540  144.6390 C   0  0  0  0  0  2  0  0  0  0  0  0
  189.8940  171.5410  142.8440 C   0  0  0  0  0  3  0  0  0  0  0  0
  190.4080  172.3550  144.7680 N   0  0  0  0  0  0  0  0  0  0  0  0
  191.5130  171.9770  144.1070 C   0  0  0  0  0  0  0  0  0  0  0  0
  189.3900  172.0780  143.9730 N   0  0  0  0  0  0  0  0  0  0  0  0
  191.2390  171.4640  142.8930 N   0  0  0  0  0  2  0  0  0  0  0  0
  1 26  1  0  0  0  0
  3 19  1  0  0  0  0
  3 16  1  1  0  0  0
  3  7  1  0  0  0  0
  4 23  2  0  0  0  0
  5 11  1  1  0  0  0
  5 15  1  0  0  0  0
  7  6  1  0  0  0  0
  8 12  1  0  0  0  0
  9 25  1  0  0  0  0
  9 27  1  1  0  0  0
 10 17  1  0  0  0  0
 13 24  1  6  0  0  0
 13  9  1  0  0  0  0
 14  2  1  0  0  0  0
 15 12  1  6  0  0  0
 15  4  1  0  0  0  0
 16  8  1  0  0  0  0
 17 25  1  0  0  0  0
 17 28  1  6  0  0  0
 18  4  1  0  0  0  0
 18  1  2  0  0  0  0
 19  5  1  0  0  0  0
 19  6  1  1  0  0  0
 20 11  1  1  0  0  0
 20 13  1  0  0  0  0
 20 18  1  0  0  0  0
 22 10  1  0  0  0  0
 23 21  1  0  0  0  0
 24 22  1  0  0  0  0
 25 14  1  1  0  0  0
 26 21  2  0  0  0  0
 27  1  1  0  0  0  0
 27  2  1  0  0  0  0
 29 28  1  0  0  0  0
 30 34  1  0  0  0  0
 30 33  2  0  0  0  0
 32 29  1  0  0  0  0
 32 31  2  0  0  0  0
 33 31  1  0  0  0  0
 34 32  1  0  0  0  0
M  END
>  <MODEL>
8

>  <REMARK>
 VINA RESULT:      -7.4      1.841      3.226
  Name = 
  3 active torsions:
  status: ('A' for Active; 'I' for Inactive)
    1  A    between atoms: C_17  and  O_28
    2  A    between atoms: O_28  and  C_29
    3  A    between atoms: C_29  and  C_32
                            x       y       z     vdW  Elec       q    Type
                         _______ _______ _______ _____ _____    ______ ____

>  <TORSDO>
F 3

$$$$
=
 OpenBabel11112417513D

 34 41  0  0  1  0  0  0  0  0999 V2000
  189.5770  176.0960  145.6890 C   0  0  0  0  0  0  0  0  0  0  0  0
  187.0530  176.2770  145.4940 C   0  0  0  0  0  2  0  0  0  0  0  0
  194.7380  173.4120  144.4210 C   0  0  2  0  0  3  0  0  0  0  0  0
  192.0050  176.3320  145.6210 C   0  0  0  0  0  0  0  0  0  0  0  0
  193.3110  175.4810  143.5750 C   0  0  1  0  0  3  0  0  0  0  0  0
  192.6640  173.4560  144.8510 O   0  0  0  0  0  0  0  0  0  0  0  0
  193.7860  172.8540  145.4530 C   0  0  0  0  0  2  0  0  0  0  0  0
  195.1460  175.2910  146.1380 C   0  0  0  0  0  2  0  0  0  0  0  0
  188.2810  175.2420  143.6830 C   0  0  2  0  0  3  0  0  0  0  0  0
  187.4990  176.4850  140.7650 C   0  0  0  0  0  2  0  0  0  0  0  0
  192.0390  175.7610  142.7740 C   0  0  0  0  0  2  0  0  0  0  0  0
  194.5990  176.5790  145.5620 C   0  0  0  0  0  2  0  0  0  0  0  0
  189.4850  175.6960  142.8300 C   0  0  1  0  0  3  0  0  0  0  0  0
  186.0680  175.9950  144.3720 C   0  0  0  0  0  2  0  0  0  0  0  0
  193.2810  176.3790  144.8160 C   0  0  2  0  0  3  0  0  0  0  0  0
  195.7230  174.4270  145.0240 C   0  0  0  0  0  2  0  0  0  0  0  0
  186.9180  176.8330  142.1480 C   0  0  1  0  0  3  0  0  0  0  0  0
  190.7920  175.9840  144.9830 C   0  0  0  0  0  0  0  0  0  0  0  0
  193.4650  173.9570  143.8100 C   0  0  2  0  0  3  0  0  0  0  0  0
  190.7860  175.3880  143.5840 C   0  0  2  0  0  3  0  0  0  0  0  0
  190.7790  176.8990  147.6380 C   0  0  0  0  0  3  0  0  0  0  0  0
  188.1650  175.1080  140.6870 C   0  0  0  0  0  2  0  0  0  0  0  0
  191.9830  176.8010  146.9420 C   0  0  0  0  0  3  0  0  0  0  0  0
  189.4930  175.0330  141.4440 C   0  0  0  0  0  2  0  0  0  0  0  0
  186.9000  175.6490  143.1420 C   0  0  1  0  0  3  0  0  0  0  0  0
  189.5810  176.5550  147.0130 C   0  0  0  0  0  3  0  0  0  0  0  0
  188.3400  175.7990  145.0240 N   0  0  0  0  0  0  0  0  0  0  0  0
  187.5940  177.9370  142.6820 O   0  0  0  0  0  0  0  0  0  0  0  0
  186.7880  179.0400  142.3940 C   0  0  0  0  0  2  0  0  0  0  0  0
  184.7070  179.4160  145.2420 C   0  0  0  0  0  3  0  0  0  0  0  0
  184.4260  178.8720  143.1800 N   0  0  0  0  0  0  0  0  0  0  0  0
  185.7160  179.1500  143.4210 C   0  0  0  0  0  0  0  0  0  0  0  0
  183.7920  179.0430  144.3260 N   0  0  0  0  0  2  0  0  0  0  0  0
  185.9400  179.4920  144.7030 N   0  0  0  0  0  0  0  0  0  0  0  0
  1 26  1  0  0  0  0
  3 16  1  1  0  0  0
  3  7  1  0  0  0  0
  4 23  2  0  0  0  0
  5 11  1  1  0  0  0
  5 19  1  0  0  0  0
  5 15  1  0  0  0  0
  6  7  1  0  0  0  0
  9 27  1  1  0  0  0
 10 17  1  0  0  0  0
 12  8  1  0  0  0  0
 13 24  1  6  0  0  0
 13 20  1  0  0  0  0
 13  9  1  0  0  0  0
 14  2  1  0  0  0  0
 15 12  1  1  0  0  0
 15  4  1  0  0  0  0
 16  8  1  0  0  0  0
 17 28  1  1  0  0  0
 17 25  1  0  0  0  0
 18  4  1  0  0  0  0
 18  1  2  0  0  0  0
 19  3  1  0  0  0  0
 19  6  1  1  0  0  0
 20 11  1  6  0  0  0
 20 18  1  0  0  0  0
 22 10  1  0  0  0  0
 22 24  1  0  0  0  0
 23 21  1  0  0  0  0
 25  9  1  0  0  0  0
 25 14  1  1  0  0  0
 26 21  2  0  0  0  0
 27  2  1  0  0  0  0
 27  1  1  0  0  0  0
 29 28  1  0  0  0  0
 29 32  1  0  0  0  0
 31 32  2  0  0  0  0
 31 33  1  0  0  0  0
 32 34  1  0  0  0  0
 33 30  1  0  0  0  0
 34 30  2  0  0  0  0
M  END
>  <MODEL>
9

>  <REMARK>
 VINA RESULT:      -7.4      2.628      7.475
  Name = 
  3 active torsions:
  status: ('A' for Active; 'I' for Inactive)
    1  A    between atoms: C_17  and  O_28
    2  A    between atoms: O_28  and  C_29
    3  A    between atoms: C_29  and  C_32
                            x       y       z     vdW  Elec       q    Type
                         _______ _______ _______ _____ _____    ______ ____

>  <TORSDO>
F 3

$$$$
