=
 OpenBabel11112417373D

 28 31  0  0  1  0  0  0  0  0999 V2000
  187.7760  177.6540  144.4020 C   0  0  0  0  0  0  0  0  0  0  0  0
  190.1370  177.7220  147.4970 O   0  0  0  0  0  0  0  0  0  0  0  0
  185.6400  177.1400  146.1360 C   0  0  0  0  0  3  0  0  0  0  0  0
  188.8440  177.8940  143.5340 O   0  0  0  0  0  0  0  0  0  0  0  0
  190.2890  175.2840  147.8290 O   0  0  0  0  0  0  0  0  0  0  0  0
  190.7270  176.4430  146.9760 S   0  0  0  0  0  0  0  0  0  0  0  0
  193.1530  176.2680  145.9200 C   0  0  0  0  0  0  0  0  0  0  0  0
  190.2510  176.2110  145.3320 N   0  0  1  0  0  0  0  0  0  0  0  0
  186.7500  176.9810  141.4310 O   0  0  0  0  0  1  0  0  0  0  0  0
  189.0370  174.6690  143.9530 C   0  0  2  0  0  3  0  0  0  0  0  0
  192.5390  175.8660  144.5920 C   0  0  0  0  0  2  0  0  0  0  0  0
  192.4470  176.5490  146.9690 N   0  0  0  0  0  0  0  0  0  0  0  0
  188.1420  177.0660  141.3540 C   0  0  2  0  0  3  0  0  0  0  0  0
  187.8200  176.5390  145.2570 C   0  0  0  0  0  0  0  0  0  0  0  0
  194.5030  176.3890  145.9890 F   0  0  0  0  0  0  0  0  0  0  0  0
  188.8060  175.7370  141.7340 C   0  0  0  0  0  2  0  0  0  0  0  0
  186.7470  176.2870  146.1190 C   0  0  0  0  0  3  0  0  0  0  0  0
  186.6590  178.5000  144.4130 C   0  0  0  0  0  3  0  0  0  0  0  0
  185.5950  178.2450  145.2820 C   0  0  0  0  0  3  0  0  0  0  0  0
  188.6580  178.2510  142.1720 C   0  0  0  0  0  2  0  0  0  0  0  0
  190.5280  174.6220  143.5910 C   0  0  1  0  0  3  0  0  0  0  0  0
  188.1260  175.0930  142.8670 N   0  0  0  0  0  0  0  0  0  0  0  0
  191.1760  175.2280  144.8130 C   0  0  2  0  0  3  0  0  0  0  0  0
  188.9580  175.5510  145.2180 C   0  0  2  0  0  3  0  0  0  0  0  0
  188.2160  173.6870  141.1980 C   0  0  0  0  0  1  0  0  0  0  0  0
  187.5360  173.9710  142.3850 O   0  0  0  0  0  0  0  0  0  0  0  0
  190.9930  173.1860  143.4220 C   0  0  0  0  0  2  0  0  0  0  0  0
  190.1970  172.2620  144.3230 C   0  0  0  0  0  1  0  0  0  0  0  0
  1 18  2  0  0  0  0
  1 14  1  0  0  0  0
  4  1  1  0  0  0  0
  6  2  2  0  0  0  0
  6  5  2  0  0  0  0
  7 15  1  0  0  0  0
  7 12  2  0  0  0  0
  8  6  1  1  0  0  0
 10 22  1  6  0  0  0
 10 24  1  0  0  0  0
 11  7  1  0  0  0  0
 12  6  1  0  0  0  0
 13  9  1  1  0  0  0
 13 16  1  0  0  0  0
 13 20  1  0  0  0  0
 14 17  2  0  0  0  0
 16 22  1  0  0  0  0
 17  3  1  0  0  0  0
 18 19  1  0  0  0  0
 19  3  2  0  0  0  0
 20  4  1  0  0  0  0
 21 27  1  1  0  0  0
 21 10  1  0  0  0  0
 21 23  1  0  0  0  0
 23 11  1  6  0  0  0
 23  8  1  0  0  0  0
 24 14  1  6  0  0  0
 24  8  1  0  0  0  0
 25 26  1  0  0  0  0
 26 22  1  0  0  0  0
 27 28  1  0  0  0  0
M  END
>  <MODEL>
1

>  <REMARK>
 VINA RESULT:      -7.6      0.000      0.000
  Name = 
  2 active torsions:
  status: ('A' for Active; 'I' for Inactive)
    1  A    between atoms: C_5  and  C_24
    2  A    between atoms: O_17  and  N_25
                            x       y       z     vdW  Elec       q    Type
                         _______ _______ _______ _____ _____    ______ ____

>  <TORSDO>
F 2

$$$$
=
 OpenBabel11112417373D

 28 31  0  0  1  0  0  0  0  0999 V2000
  189.4180  176.2780  144.7830 C   0  0  0  0  0  0  0  0  0  0  0  0
  193.0650  176.6380  146.0960 O   0  0  0  0  0  0  0  0  0  0  0  0
  188.7490  175.0410  147.2040 C   0  0  0  0  0  3  0  0  0  0  0  0
  189.7550  176.8790  143.5690 O   0  0  0  0  0  0  0  0  0  0  0  0
  193.7660  174.3040  145.7200 O   0  0  0  0  0  0  0  0  0  0  0  0
  193.4540  175.6210  145.0620 S   0  0  0  0  0  0  0  0  0  0  0  0
  194.8520  176.2000  142.8840 C   0  0  0  0  0  0  0  0  0  0  0  0
  192.1780  175.4450  143.9110 N   0  0  1  0  0  0  0  0  0  0  0  0
  187.0180  175.6740  142.7320 O   0  0  0  0  0  1  0  0  0  0  0  0
  190.6640  173.7920  143.0590 C   0  0  2  0  0  3  0  0  0  0  0  0
  193.6690  175.7930  142.0250 C   0  0  0  0  0  2  0  0  0  0  0  0
  194.8260  176.1750  144.1790 N   0  0  0  0  0  0  0  0  0  0  0  0
  188.0880  176.1290  141.9580 C   0  0  2  0  0  3  0  0  0  0  0  0
  190.1140  175.1300  145.2010 C   0  0  0  0  0  0  0  0  0  0  0  0
  195.9650  176.6630  142.2600 F   0  0  0  0  0  0  0  0  0  0  0  0
  189.0530  174.9890  141.6110 C   0  0  0  0  0  2  0  0  0  0  0  0
  189.7720  174.5160  146.4110 C   0  0  0  0  0  3  0  0  0  0  0  0
  188.3840  176.7950  145.5760 C   0  0  0  0  0  3  0  0  0  0  0  0
  188.0530  176.1790  146.7860 C   0  0  0  0  0  3  0  0  0  0  0  0
  188.7790  177.3160  142.6340 C   0  0  0  0  0  2  0  0  0  0  0  0
  191.6740  174.1770  141.9700 C   0  0  1  0  0  3  0  0  0  0  0  0
  189.2450  174.0740  142.7460 N   0  0  0  0  0  0  0  0  0  0  0  0
  192.7920  174.8000  142.7720 C   0  0  2  0  0  3  0  0  0  0  0  0
  191.1720  174.4850  144.3420 C   0  0  2  0  0  3  0  0  0  0  0  0
  189.1640  171.9690  143.3260 C   0  0  0  0  0  1  0  0  0  0  0  0
  188.6740  172.8930  142.3990 O   0  0  0  0  0  0  0  0  0  0  0  0
  192.1860  172.9390  141.2530 C   0  0  0  0  0  2  0  0  0  0  0  0
  191.4390  172.7350  139.9490 C   0  0  0  0  0  1  0  0  0  0  0  0
  1 14  2  0  0  0  0
  1 18  1  0  0  0  0
  4  1  1  0  0  0  0
  6  5  2  0  0  0  0
  6  2  2  0  0  0  0
  7 12  2  0  0  0  0
  8 24  1  0  0  0  0
  8  6  1  1  0  0  0
 10 22  1  6  0  0  0
 10 24  1  0  0  0  0
 11  7  1  0  0  0  0
 12  6  1  0  0  0  0
 13 20  1  0  0  0  0
 13  9  1  1  0  0  0
 14 17  1  0  0  0  0
 15  7  1  0  0  0  0
 16 13  1  0  0  0  0
 16 22  1  0  0  0  0
 17  3  2  0  0  0  0
 18 19  2  0  0  0  0
 19  3  1  0  0  0  0
 20  4  1  0  0  0  0
 21 27  1  1  0  0  0
 21 23  1  0  0  0  0
 21 10  1  0  0  0  0
 23 11  1  6  0  0  0
 23  8  1  0  0  0  0
 24 14  1  6  0  0  0
 26 22  1  0  0  0  0
 26 25  1  0  0  0  0
 28 27  1  0  0  0  0
M  END
>  <MODEL>
2

>  <REMARK>
 VINA RESULT:      -7.1      2.300      2.848
  Name = 
  2 active torsions:
  status: ('A' for Active; 'I' for Inactive)
    1  A    between atoms: C_5  and  C_24
    2  A    between atoms: O_17  and  N_25
                            x       y       z     vdW  Elec       q    Type
                         _______ _______ _______ _____ _____    ______ ____

>  <TORSDO>
F 2

$$$$
=
 OpenBabel11112417373D

 28 31  0  0  1  0  0  0  0  0999 V2000
  190.9960  176.8250  144.9920 C   0  0  0  0  0  0  0  0  0  0  0  0
  194.7790  177.5300  145.5830 O   0  0  0  0  0  0  0  0  0  0  0  0
  190.7810  176.1270  147.6940 C   0  0  0  0  0  3  0  0  0  0  0  0
  191.1060  177.1570  143.6410 O   0  0  0  0  0  0  0  0  0  0  0  0
  195.5370  175.1840  145.5950 O   0  0  0  0  0  0  0  0  0  0  0  0
  195.0550  176.3220  144.7360 S   0  0  0  0  0  0  0  0  0  0  0  0
  196.0620  176.4440  142.2850 C   0  0  0  0  0  0  0  0  0  0  0  0
  193.6270  175.8780  143.8730 N   0  0  1  0  0  0  0  0  0  0  0  0
  188.3410  175.7480  143.5360 O   0  0  0  0  0  1  0  0  0  0  0  0
  192.0890  174.0510  143.6470 C   0  0  2  0  0  3  0  0  0  0  0  0
  194.7840  175.8390  141.7370 C   0  0  0  0  0  2  0  0  0  0  0  0
  196.2410  176.6980  143.5430 N   0  0  0  0  0  0  0  0  0  0  0  0
  189.2510  176.0460  142.5190 C   0  0  2  0  0  3  0  0  0  0  0  0
  191.8100  175.8080  145.5220 C   0  0  0  0  0  0  0  0  0  0  0  0
  197.0370  176.7830  141.4050 F   0  0  0  0  0  0  0  0  0  0  0  0
  190.2100  174.8760  142.2650 C   0  0  0  0  0  2  0  0  0  0  0  0
  191.6940  175.4630  146.8720 C   0  0  0  0  0  3  0  0  0  0  0  0
  190.0720  177.4810  145.8180 C   0  0  0  0  0  3  0  0  0  0  0  0
  189.9680  177.1350  147.1680 C   0  0  0  0  0  3  0  0  0  0  0  0
  189.9730  177.3630  142.8080 C   0  0  0  0  0  2  0  0  0  0  0  0
  192.8950  174.2110  142.3500 C   0  0  1  0  0  3  0  0  0  0  0  0
  190.6250  174.2310  143.5190 N   0  0  0  0  0  0  0  0  0  0  0  0
  194.0890  175.0130  142.8090 C   0  0  2  0  0  3  0  0  0  0  0  0
  192.7540  175.0140  144.6550 C   0  0  2  0  0  3  0  0  0  0  0  0
  189.8210  172.7170  144.8730 C   0  0  0  0  0  1  0  0  0  0  0  0
  190.0720  172.9930  143.5260 O   0  0  0  0  0  0  0  0  0  0  0  0
  193.3540  172.8570  141.8350 C   0  0  0  0  0  2  0  0  0  0  0  0
  193.3990  171.8480  142.9650 C   0  0  0  0  0  1  0  0  0  0  0  0
  1 14  2  0  0  0  0
  1 18  1  0  0  0  0
  4  1  1  0  0  0  0
  6  2  2  0  0  0  0
  6  5  2  0  0  0  0
  7 12  2  0  0  0  0
  8 24  1  0  0  0  0
  8  6  1  1  0  0  0
 10 22  1  6  0  0  0
 10 24  1  0  0  0  0
 11  7  1  0  0  0  0
 12  6  1  0  0  0  0
 13 20  1  0  0  0  0
 13  9  1  1  0  0  0
 14 17  1  0  0  0  0
 15  7  1  0  0  0  0
 16 13  1  0  0  0  0
 16 22  1  0  0  0  0
 17  3  2  0  0  0  0
 18 19  2  0  0  0  0
 19  3  1  0  0  0  0
 20  4  1  0  0  0  0
 21 27  1  1  0  0  0
 21 23  1  0  0  0  0
 21 10  1  0  0  0  0
 22 26  1  0  0  0  0
 23 11  1  6  0  0  0
 23  8  1  0  0  0  0
 24 14  1  6  0  0  0
 26 25  1  0  0  0  0
 27 28  1  0  0  0  0
M  END
>  <MODEL>
3

>  <REMARK>
 VINA RESULT:      -7.0      3.110      3.909
  Name = 
  2 active torsions:
  status: ('A' for Active; 'I' for Inactive)
    1  A    between atoms: C_5  and  C_24
    2  A    between atoms: O_17  and  N_25
                            x       y       z     vdW  Elec       q    Type
                         _______ _______ _______ _____ _____    ______ ____

>  <TORSDO>
F 2

$$$$
=
 OpenBabel11112417373D

 28 31  0  0  1  0  0  0  0  0999 V2000
  191.9310  174.2780  143.8670 C   0  0  0  0  0  0  0  0  0  0  0  0
  189.4350  174.0210  140.8900 O   0  0  0  0  0  0  0  0  0  0  0  0
  191.6250  171.5240  144.2630 C   0  0  0  0  0  3  0  0  0  0  0  0
  192.0710  175.6540  143.6800 O   0  0  0  0  0  0  0  0  0  0  0  0
  187.3660  173.8970  142.2260 O   0  0  0  0  0  0  0  0  0  0  0  0
  188.4680  174.7970  141.7370 S   0  0  0  0  0  0  0  0  0  0  0  0
  187.7940  177.3180  141.2630 C   0  0  0  0  0  0  0  0  0  0  0  0
  189.3060  175.5180  143.0640 N   0  0  1  0  0  0  0  0  0  0  0  0
  193.3270  175.4520  146.5130 O   0  0  0  0  0  1  0  0  0  0  0  0
  189.3480  175.4970  145.4620 C   0  0  2  0  0  3  0  0  0  0  0  0
  188.4100  177.7250  142.5880 C   0  0  0  0  0  2  0  0  0  0  0  0
  187.8010  176.0990  140.8250 N   0  0  0  0  0  0  0  0  0  0  0  0
  192.8220  176.5530  145.8170 C   0  0  2  0  0  3  0  0  0  0  0  0
  190.6510  173.7380  144.0880 C   0  0  0  0  0  0  0  0  0  0  0  0
  187.2620  178.2910  140.4800 F   0  0  0  0  0  0  0  0  0  0  0  0
  191.3430  176.7920  146.1450 C   0  0  0  0  0  2  0  0  0  0  0  0
  190.5070  172.3610  144.2880 C   0  0  0  0  0  3  0  0  0  0  0  0
  193.0520  173.4350  143.8540 C   0  0  0  0  0  3  0  0  0  0  0  0
  192.8970  172.0600  144.0480 C   0  0  0  0  0  3  0  0  0  0  0  0
  193.0890  176.4140  144.3170 C   0  0  0  0  0  2  0  0  0  0  0  0
  188.8400  176.8580  144.9660 C   0  0  1  0  0  3  0  0  0  0  0  0
  190.5990  175.5290  146.2540 N   0  0  0  0  0  0  0  0  0  0  0  0
  188.4150  176.5480  143.5510 C   0  0  2  0  0  3  0  0  0  0  0  0
  189.4280  174.6130  144.1980 C   0  0  2  0  0  3  0  0  0  0  0  0
  189.1370  174.5410  147.5420 C   0  0  0  0  0  1  0  0  0  0  0  0
  190.2460  175.3910  147.5560 O   0  0  0  0  0  0  0  0  0  0  0  0
  187.6360  177.3070  145.7770 C   0  0  0  0  0  2  0  0  0  0  0  0
  186.3990  176.5360  145.3590 C   0  0  0  0  0  1  0  0  0  0  0  0
  1 14  1  0  0  0  0
  2  6  2  0  0  0  0
  3 17  1  0  0  0  0
  4  1  1  0  0  0  0
  4 20  1  0  0  0  0
  6  5  2  0  0  0  0
  7 11  1  0  0  0  0
  8  6  1  6  0  0  0
  8 23  1  0  0  0  0
  8 24  1  0  0  0  0
 10 22  1  6  0  0  0
 12  7  2  0  0  0  0
 12  6  1  0  0  0  0
 13 16  1  0  0  0  0
 13  9  1  1  0  0  0
 14 17  2  0  0  0  0
 15  7  1  0  0  0  0
 16 22  1  0  0  0  0
 18  1  2  0  0  0  0
 18 19  1  0  0  0  0
 19  3  2  0  0  0  0
 20 13  1  0  0  0  0
 21 10  1  0  0  0  0
 21 27  1  1  0  0  0
 22 26  1  0  0  0  0
 23 11  1  6  0  0  0
 23 21  1  0  0  0  0
 24 14  1  6  0  0  0
 24 10  1  0  0  0  0
 25 26  1  0  0  0  0
 28 27  1  0  0  0  0
M  END
>  <MODEL>
4

>  <REMARK>
 VINA RESULT:      -7.0      2.644      6.112
  Name = 
  2 active torsions:
  status: ('A' for Active; 'I' for Inactive)
    1  A    between atoms: C_5  and  C_24
    2  A    between atoms: O_17  and  N_25
                            x       y       z     vdW  Elec       q    Type
                         _______ _______ _______ _____ _____    ______ ____

>  <TORSDO>
F 2

$$$$
=
 OpenBabel11112417373D

 28 31  0  0  1  0  0  0  0  0999 V2000
  188.7090  175.7900  145.1910 C   0  0  0  0  0  0  0  0  0  0  0  0
  187.7290  173.6360  142.0990 O   0  0  0  0  0  0  0  0  0  0  0  0
  187.8430  178.0550  143.7940 C   0  0  0  0  0  3  0  0  0  0  0  0
  189.1570  174.6630  145.8830 O   0  0  0  0  0  0  0  0  0  0  0  0
  189.6840  174.1870  140.7020 O   0  0  0  0  0  0  0  0  0  0  0  0
  189.1990  173.4070  141.8930 S   0  0  0  0  0  0  0  0  0  0  0  0
  190.4000  171.0840  142.3380 C   0  0  0  0  0  0  0  0  0  0  0  0
  190.0640  173.8590  143.3180 N   0  0  1  0  0  0  0  0  0  0  0  0
  190.4490  176.8380  147.6820 O   0  0  0  0  0  1  0  0  0  0  0  0
  191.7510  175.3970  144.0530 C   0  0  2  0  0  3  0  0  0  0  0  0
  191.2280  171.7300  143.4330 C   0  0  0  0  0  2  0  0  0  0  0  0
  189.5040  171.7270  141.6580 N   0  0  0  0  0  0  0  0  0  0  0  0
  190.7310  175.4760  147.5550 C   0  0  2  0  0  3  0  0  0  0  0  0
  189.2650  176.0960  143.9370 C   0  0  0  0  0  0  0  0  0  0  0  0
  190.5720  169.7590  142.1050 F   0  0  0  0  0  0  0  0  0  0  0  0
  191.8350  175.2270  146.5200 C   0  0  0  0  0  2  0  0  0  0  0  0
  188.8290  177.2320  143.2460 C   0  0  0  0  0  3  0  0  0  0  0  0
  187.7280  176.6250  145.7430 C   0  0  0  0  0  3  0  0  0  0  0  0
  187.2930  177.7540  145.0430 C   0  0  0  0  0  3  0  0  0  0  0  0
  189.4540  174.6830  147.2720 C   0  0  0  0  0  2  0  0  0  0  0  0
  192.3010  173.9650  144.1010 C   0  0  1  0  0  3  0  0  0  0  0  0
  191.6950  176.1070  145.3510 N   0  0  0  0  0  0  0  0  0  0  0  0
  191.3570  173.2250  143.1840 C   0  0  2  0  0  3  0  0  0  0  0  0
  190.3850  175.2790  143.3430 C   0  0  2  0  0  3  0  0  0  0  0  0
  193.6540  176.3970  146.2710 C   0  0  0  0  0  1  0  0  0  0  0  0
  192.7430  176.9670  145.3770 O   0  0  0  0  0  0  0  0  0  0  0  0
  193.7100  173.9140  143.5360 C   0  0  0  0  0  2  0  0  0  0  0  0
  193.9480  175.0830  142.6000 C   0  0  0  0  0  1  0  0  0  0  0  0
  1 18  1  0  0  0  0
  1  4  1  0  0  0  0
  3 19  1  0  0  0  0
  4 20  1  0  0  0  0
  5  6  2  0  0  0  0
  6  2  2  0  0  0  0
  7 11  1  0  0  0  0
  8  6  1  6  0  0  0
  8 24  1  0  0  0  0
 10 21  1  0  0  0  0
 10 22  1  1  0  0  0
 12  6  1  0  0  0  0
 12  7  2  0  0  0  0
 13  9  1  6  0  0  0
 14  1  2  0  0  0  0
 15  7  1  0  0  0  0
 16 13  1  0  0  0  0
 17  3  2  0  0  0  0
 17 14  1  0  0  0  0
 19 18  2  0  0  0  0
 20 13  1  0  0  0  0
 21 27  1  6  0  0  0
 22 26  1  0  0  0  0
 22 16  1  0  0  0  0
 23  8  1  0  0  0  0
 23 11  1  1  0  0  0
 23 21  1  0  0  0  0
 24 14  1  1  0  0  0
 24 10  1  0  0  0  0
 26 25  1  0  0  0  0
 28 27  1  0  0  0  0
M  END
>  <MODEL>
5

>  <REMARK>
 VINA RESULT:      -6.9      2.721      5.241
  Name = 
  2 active torsions:
  status: ('A' for Active; 'I' for Inactive)
    1  A    between atoms: C_5  and  C_24
    2  A    between atoms: O_17  and  N_25
                            x       y       z     vdW  Elec       q    Type
                         _______ _______ _______ _____ _____    ______ ____

>  <TORSDO>
F 2

$$$$
=
 OpenBabel11112417373D

 28 31  0  0  1  0  0  0  0  0999 V2000
  191.2160  175.5820  145.0860 C   0  0  0  0  0  0  0  0  0  0  0  0
  191.1920  171.7940  144.1890 O   0  0  0  0  0  0  0  0  0  0  0  0
  190.0640  174.9290  147.5520 C   0  0  0  0  0  3  0  0  0  0  0  0
  191.7750  175.9110  143.8500 O   0  0  0  0  0  0  0  0  0  0  0  0
  188.7960  171.6190  143.6330 O   0  0  0  0  0  0  0  0  0  0  0  0
  190.1370  172.1220  143.1720 S   0  0  0  0  0  0  0  0  0  0  0  0
  190.5590  172.0940  140.5540 C   0  0  0  0  0  0  0  0  0  0  0  0
  190.0940  173.8290  142.9090 N   0  0  1  0  0  0  0  0  0  0  0  0
  190.8650  178.7540  144.7030 O   0  0  0  0  0  1  0  0  0  0  0  0
  188.6080  175.7000  143.1150 C   0  0  2  0  0  3  0  0  0  0  0  0
  190.2770  173.5830  140.5000 C   0  0  0  0  0  2  0  0  0  0  0  0
  190.5400  171.4110  141.6550 N   0  0  0  0  0  0  0  0  0  0  0  0
  191.2020  178.2440  143.4470 C   0  0  2  0  0  3  0  0  0  0  0  0
  190.0020  174.8740  145.1280 C   0  0  0  0  0  0  0  0  0  0  0  0
  190.9010  171.4650  139.4010 F   0  0  0  0  0  0  0  0  0  0  0  0
  189.9650  177.7280  142.7020 C   0  0  0  0  0  2  0  0  0  0  0  0
  189.4310  174.5540  146.3640 C   0  0  0  0  0  3  0  0  0  0  0  0
  191.8420  175.9670  146.2810 C   0  0  0  0  0  3  0  0  0  0  0  0
  191.2680  175.6370  147.5110 C   0  0  0  0  0  3  0  0  0  0  0  0
  192.3100  177.1970  143.5690 C   0  0  0  0  0  2  0  0  0  0  0  0
  188.8810  175.4180  141.6310 C   0  0  1  0  0  3  0  0  0  0  0  0
  189.0370  177.0300  143.6040 N   0  0  0  0  0  0  0  0  0  0  0  0
  189.3840  173.9950  141.6600 C   0  0  2  0  0  3  0  0  0  0  0  0
  189.2470  174.5160  143.8730 C   0  0  2  0  0  3  0  0  0  0  0  0
  187.4990  177.6660  145.0190 C   0  0  0  0  0  1  0  0  0  0  0  0
  187.9230  177.7970  143.6930 O   0  0  0  0  0  0  0  0  0  0  0  0
  187.5940  175.4910  140.8270 C   0  0  0  0  0  2  0  0  0  0  0  0
  187.2640  176.9300  140.4850 C   0  0  0  0  0  1  0  0  0  0  0  0
  1 14  2  0  0  0  0
  1 18  1  0  0  0  0
  4  1  1  0  0  0  0
  6  5  2  0  0  0  0
  6  2  2  0  0  0  0
  7 12  2  0  0  0  0
  8  6  1  1  0  0  0
  8 24  1  0  0  0  0
 10 22  1  1  0  0  0
 10 24  1  0  0  0  0
 11  7  1  0  0  0  0
 12  6  1  0  0  0  0
 13 20  1  0  0  0  0
 13  9  1  1  0  0  0
 14 17  1  0  0  0  0
 15  7  1  0  0  0  0
 16 13  1  0  0  0  0
 16 22  1  0  0  0  0
 17  3  2  0  0  0  0
 18 19  2  0  0  0  0
 19  3  1  0  0  0  0
 20  4  1  0  0  0  0
 21 27  1  6  0  0  0
 21 23  1  0  0  0  0
 21 10  1  0  0  0  0
 22 26  1  0  0  0  0
 23 11  1  6  0  0  0
 23  8  1  0  0  0  0
 24 14  1  1  0  0  0
 26 25  1  0  0  0  0
 28 27  1  0  0  0  0
M  END
>  <MODEL>
6

>  <REMARK>
 VINA RESULT:      -6.6      2.986      5.054
  Name = 
  2 active torsions:
  status: ('A' for Active; 'I' for Inactive)
    1  A    between atoms: C_5  and  C_24
    2  A    between atoms: O_17  and  N_25
                            x       y       z     vdW  Elec       q    Type
                         _______ _______ _______ _____ _____    ______ ____

>  <TORSDO>
F 2

$$$$
=
 OpenBabel11112417373D

 28 31  0  0  1  0  0  0  0  0999 V2000
  191.2400  174.5640  144.7330 C   0  0  0  0  0  0  0  0  0  0  0  0
  189.3230  177.9510  144.6570 O   0  0  0  0  0  0  0  0  0  0  0  0
  193.6360  176.0020  144.5960 C   0  0  0  0  0  3  0  0  0  0  0  0
  190.0440  173.8440  144.7840 O   0  0  0  0  0  0  0  0  0  0  0  0
  189.5510  178.3860  142.2410 O   0  0  0  0  0  0  0  0  0  0  0  0
  188.8500  177.5620  143.2860 S   0  0  0  0  0  0  0  0  0  0  0  0
  186.3520  176.8590  142.7380 C   0  0  0  0  0  0  0  0  0  0  0  0
  189.1310  175.8770  143.0300 N   0  0  1  0  0  0  0  0  0  0  0  0
  191.9460  171.5050  144.0420 O   0  0  0  0  0  1  0  0  0  0  0  0
  190.3510  174.3990  141.5890 C   0  0  2  0  0  3  0  0  0  0  0  0
  186.8340  175.4740  142.3500 C   0  0  0  0  0  2  0  0  0  0  0  0
  187.1450  177.7890  143.1660 N   0  0  0  0  0  0  0  0  0  0  0  0
  190.5580  171.6180  143.9400 C   0  0  2  0  0  3  0  0  0  0  0  0
  191.4630  175.4560  143.6690 C   0  0  0  0  0  0  0  0  0  0  0  0
  185.0190  177.1100  142.6850 F   0  0  0  0  0  0  0  0  0  0  0  0
  190.1380  172.1330  142.5580 C   0  0  0  0  0  2  0  0  0  0  0  0
  192.6650  176.1690  143.6060 C   0  0  0  0  0  3  0  0  0  0  0  0
  192.2230  174.3910  145.7180 C   0  0  0  0  0  3  0  0  0  0  0  0
  193.4170  175.1130  145.6500 C   0  0  0  0  0  3  0  0  0  0  0  0
  189.9970  172.4570  145.0890 C   0  0  0  0  0  2  0  0  0  0  0  0
  188.8460  174.2490  141.3280 C   0  0  1  0  0  3  0  0  0  0  0  0
  191.0440  173.1830  142.0700 N   0  0  0  0  0  0  0  0  0  0  0  0
  188.2890  175.5260  141.9080 C   0  0  2  0  0  3  0  0  0  0  0  0
  190.4750  175.6090  142.5400 C   0  0  2  0  0  3  0  0  0  0  0  0
  192.9960  173.2120  141.0910 C   0  0  0  0  0  1  0  0  0  0  0  0
  191.7130  172.6640  141.0110 O   0  0  0  0  0  0  0  0  0  0  0  0
  188.5640  174.1960  139.8360 C   0  0  0  0  0  2  0  0  0  0  0  0
  188.2570  172.7760  139.4040 C   0  0  0  0  0  1  0  0  0  0  0  0
  1  4  1  0  0  0  0
  1 18  1  0  0  0  0
  3 19  1  0  0  0  0
  4 20  1  0  0  0  0
  5  6  2  0  0  0  0
  6  2  2  0  0  0  0
  7 12  2  0  0  0  0
  8  6  1  6  0  0  0
 10 22  1  1  0  0  0
 10 24  1  0  0  0  0
 11  7  1  0  0  0  0
 12  6  1  0  0  0  0
 13  9  1  6  0  0  0
 13 20  1  0  0  0  0
 14  1  2  0  0  0  0
 15  7  1  0  0  0  0
 16 13  1  0  0  0  0
 17 14  1  0  0  0  0
 17  3  2  0  0  0  0
 19 18  2  0  0  0  0
 21 27  1  6  0  0  0
 21 10  1  0  0  0  0
 21 23  1  0  0  0  0
 22 16  1  0  0  0  0
 23 11  1  1  0  0  0
 23  8  1  0  0  0  0
 24  8  1  0  0  0  0
 24 14  1  1  0  0  0
 26 25  1  0  0  0  0
 26 22  1  0  0  0  0
 28 27  1  0  0  0  0
M  END
>  <MODEL>
7

>  <REMARK>
 VINA RESULT:      -6.6      3.176      5.716
  Name = 
  2 active torsions:
  status: ('A' for Active; 'I' for Inactive)
    1  A    between atoms: C_5  and  C_24
    2  A    between atoms: O_17  and  N_25
                            x       y       z     vdW  Elec       q    Type
                         _______ _______ _______ _____ _____    ______ ____

>  <TORSDO>
F 2

$$$$
=
 OpenBabel11112417373D

 28 31  0  0  1  0  0  0  0  0999 V2000
  191.3230  173.6020  144.3920 C   0  0  0  0  0  0  0  0  0  0  0  0
  190.7810  176.8440  146.4790 O   0  0  0  0  0  0  0  0  0  0  0  0
  193.9460  174.4460  143.9010 C   0  0  0  0  0  3  0  0  0  0  0  0
  190.0100  173.1880  144.6230 O   0  0  0  0  0  0  0  0  0  0  0  0
  190.5000  178.3930  144.5820 O   0  0  0  0  0  0  0  0  0  0  0  0
  189.8560  177.2970  145.3860 S   0  0  0  0  0  0  0  0  0  0  0  0
  187.2210  177.4380  145.6550 C   0  0  0  0  0  0  0  0  0  0  0  0
  189.4450  175.9560  144.3780 N   0  0  1  0  0  0  0  0  0  0  0  0
  190.6930  171.2460  142.2980 O   0  0  0  0  0  1  0  0  0  0  0  0
  189.6360  175.2200  142.1030 C   0  0  2  0  0  3  0  0  0  0  0  0
  187.0620  176.3800  144.5790 C   0  0  0  0  0  2  0  0  0  0  0  0
  188.3750  177.8610  146.0650 N   0  0  0  0  0  0  0  0  0  0  0  0
  189.4600  171.6470  142.8180 C   0  0  2  0  0  3  0  0  0  0  0  0
  191.5580  174.8520  143.7930 C   0  0  0  0  0  0  0  0  0  0  0  0
  186.1000  177.9190  146.2490 F   0  0  0  0  0  0  0  0  0  0  0  0
  188.9000  172.8580  142.0620 C   0  0  0  0  0  2  0  0  0  0  0  0
  192.8710  175.2660  143.5480 C   0  0  0  0  0  3  0  0  0  0  0  0
  192.4050  172.7780  144.7340 C   0  0  0  0  0  3  0  0  0  0  0  0
  193.7140  173.2020  144.4920 C   0  0  0  0  0  3  0  0  0  0  0  0
  189.5580  171.8730  144.3280 C   0  0  0  0  0  2  0  0  0  0  0  0
  188.1640  175.4990  142.4340 C   0  0  1  0  0  3  0  0  0  0  0  0
  189.9550  173.8240  141.7240 N   0  0  0  0  0  0  0  0  0  0  0  0
  188.2690  176.3830  143.6530 C   0  0  2  0  0  3  0  0  0  0  0  0
  190.4270  175.7340  143.3260 C   0  0  2  0  0  3  0  0  0  0  0  0
  191.4710  173.7460  140.1530 C   0  0  0  0  0  1  0  0  0  0  0  0
  190.0920  173.8020  140.3760 O   0  0  0  0  0  0  0  0  0  0  0  0
  187.4970  176.2630  141.3020 C   0  0  0  0  0  2  0  0  0  0  0  0
  187.8840  177.7280  141.3520 C   0  0  0  0  0  1  0  0  0  0  0  0
  1  4  1  0  0  0  0
  1 18  1  0  0  0  0
  3 19  1  0  0  0  0
  5  6  2  0  0  0  0
  6 12  1  0  0  0  0
  6  2  2  0  0  0  0
  7 12  2  0  0  0  0
  7 15  1  0  0  0  0
  8  6  1  1  0  0  0
 10 22  1  1  0  0  0
 10 21  1  0  0  0  0
 10 24  1  0  0  0  0
 11  7  1  0  0  0  0
 13  9  1  6  0  0  0
 13 20  1  0  0  0  0
 14  1  2  0  0  0  0
 16 13  1  0  0  0  0
 17 14  1  0  0  0  0
 17  3  2  0  0  0  0
 19 18  2  0  0  0  0
 20  4  1  0  0  0  0
 21 27  1  6  0  0  0
 21 23  1  0  0  0  0
 22 16  1  0  0  0  0
 23  8  1  0  0  0  0
 23 11  1  1  0  0  0
 24 14  1  1  0  0  0
 24  8  1  0  0  0  0
 25 26  1  0  0  0  0
 26 22  1  0  0  0  0
 27 28  1  0  0  0  0
M  END
>  <MODEL>
8

>  <REMARK>
 VINA RESULT:      -6.5      2.572      5.374
  Name = 
  2 active torsions:
  status: ('A' for Active; 'I' for Inactive)
    1  A    between atoms: C_5  and  C_24
    2  A    between atoms: O_17  and  N_25
                            x       y       z     vdW  Elec       q    Type
                         _______ _______ _______ _____ _____    ______ ____

>  <TORSDO>
F 2

$$$$
=
 OpenBabel11112417373D

 28 31  0  0  1  0  0  0  0  0999 V2000
  194.5060  175.9080  143.8630 C   0  0  0  0  0  0  0  0  0  0  0  0
  191.6190  178.5140  143.6720 O   0  0  0  0  0  0  0  0  0  0  0  0
  195.0190  176.3890  141.1540 C   0  0  0  0  0  3  0  0  0  0  0  0
  194.2400  175.6550  145.2100 O   0  0  0  0  0  0  0  0  0  0  0  0
  189.9680  177.0690  142.5470 O   0  0  0  0  0  0  0  0  0  0  0  0
  190.6730  177.3600  143.8430 S   0  0  0  0  0  0  0  0  0  0  0  0
  189.2800  176.9190  146.0570 C   0  0  0  0  0  0  0  0  0  0  0  0
  191.5420  175.9730  144.3940 N   0  0  1  0  0  0  0  0  0  0  0  0
  196.0470  173.1960  144.6380 O   0  0  0  0  0  1  0  0  0  0  0  0
  192.0690  173.7300  143.7280 C   0  0  2  0  0  3  0  0  0  0  0  0
  190.0210  175.6100  146.2540 C   0  0  0  0  0  2  0  0  0  0  0  0
  189.5180  177.7240  145.0710 N   0  0  0  0  0  0  0  0  0  0  0  0
  195.1420  173.4400  145.6730 C   0  0  2  0  0  3  0  0  0  0  0  0
  193.4840  175.7330  142.9130 C   0  0  0  0  0  0  0  0  0  0  0  0
  188.3660  177.2830  146.9910 F   0  0  0  0  0  0  0  0  0  0  0  0
  193.7490  172.8910  145.3390 C   0  0  0  0  0  2  0  0  0  0  0  0
  193.7490  175.9730  141.5610 C   0  0  0  0  0  3  0  0  0  0  0  0
  195.7820  176.3150  143.4490 C   0  0  0  0  0  3  0  0  0  0  0  0
  196.0360  176.5590  142.0970 C   0  0  0  0  0  3  0  0  0  0  0  0
  195.1290  174.9240  146.0430 C   0  0  0  0  0  2  0  0  0  0  0  0
  191.1320  173.7010  144.9450 C   0  0  1  0  0  3  0  0  0  0  0  0
  193.4000  173.1130  143.9290 N   0  0  0  0  0  0  0  0  0  0  0  0
  190.5280  175.0840  144.9200 C   0  0  2  0  0  3  0  0  0  0  0  0
  192.1220  175.2120  143.2980 C   0  0  2  0  0  3  0  0  0  0  0  0
  193.8350  172.1110  142.0370 C   0  0  0  0  0  1  0  0  0  0  0  0
  193.3650  171.8950  143.3360 O   0  0  0  0  0  0  0  0  0  0  0  0
  190.0410  172.6610  144.7550 C   0  0  0  0  0  2  0  0  0  0  0  0
  189.7080  172.5050  143.2840 C   0  0  0  0  0  1  0  0  0  0  0  0
  1  4  1  0  0  0  0
  2  6  2  0  0  0  0
  3 17  2  0  0  0  0
  3 19  1  0  0  0  0
  4 20  1  0  0  0  0
  5  6  2  0  0  0  0
  6 12  1  0  0  0  0
  7 11  1  0  0  0  0
  7 15  1  0  0  0  0
  8  6  1  6  0  0  0
  8 23  1  0  0  0  0
 10 22  1  1  0  0  0
 10 21  1  0  0  0  0
 12  7  2  0  0  0  0
 13  9  1  6  0  0  0
 13 20  1  0  0  0  0
 14  1  2  0  0  0  0
 16 13  1  0  0  0  0
 17 14  1  0  0  0  0
 18  1  1  0  0  0  0
 19 18  2  0  0  0  0
 21 27  1  6  0  0  0
 22 16  1  0  0  0  0
 23 21  1  0  0  0  0
 23 11  1  1  0  0  0
 24 14  1  1  0  0  0
 24 10  1  0  0  0  0
 24  8  1  0  0  0  0
 25 26  1  0  0  0  0
 26 22  1  0  0  0  0
 28 27  1  0  0  0  0
M  END
>  <MODEL>
9

>  <REMARK>
 VINA RESULT:      -6.5      3.373      6.272
  Name = 
  2 active torsions:
  status: ('A' for Active; 'I' for Inactive)
    1  A    between atoms: C_5  and  C_24
    2  A    between atoms: O_17  and  N_25
                            x       y       z     vdW  Elec       q    Type
                         _______ _______ _______ _____ _____    ______ ____

>  <TORSDO>
F 2

$$$$
