=
 OpenBabel11112416493D

 31 36  0  0  1  0  0  0  0  0999 V2000
  186.1190  178.0170  144.4840 C   0  0  0  0  0  0  0  0  0  0  0  0
  189.8410  177.4360  144.0090 C   0  0  2  0  0  3  0  0  0  0  0  0
  190.3560  176.9970  145.4010 C   0  0  1  0  0  3  0  0  0  0  0  0
  189.8510  175.4320  147.1490 C   0  0  0  0  0  0  0  0  0  0  0  0
  188.3500  177.3160  143.8370 C   0  0  0  0  0  0  0  0  0  0  0  0
  185.5660  177.0430  143.6490 C   0  0  0  0  0  3  0  0  0  0  0  0
  189.4530  176.1390  146.1410 N   0  0  0  0  0  0  0  0  0  0  0  0
  190.1090  175.3980  142.5490 C   0  0  2  0  0  3  0  0  0  0  0  0
  185.2310  178.9060  145.2780 C   0  0  0  0  0  1  0  0  0  0  0  0
  192.5310  177.1250  144.4700 O   0  0  0  0  0  0  0  0  0  0  0  0
  188.6830  174.4460  148.0080 Cl  0  0  0  0  0  0  0  0  0  0  0  0
  188.6470  175.4880  142.0980 C   0  0  0  0  0  2  0  0  0  0  0  0
  190.6440  176.8160  142.8400 C   0  0  2  0  0  3  0  0  0  0  0  0
  187.5050  178.1520  144.5790 C   0  0  0  0  0  3  0  0  0  0  0  0
  191.3200  175.3080  147.5230 C   0  0  0  0  0  2  0  0  0  0  0  0
  187.7910  176.3290  142.9990 C   0  0  0  0  0  0  0  0  0  0  0  0
  186.4010  176.2080  142.9030 C   0  0  0  0  0  3  0  0  0  0  0  0
  192.1730  176.8190  143.1360 C   0  0  0  0  0  2  0  0  0  0  0  0
  191.7180  176.3380  145.2920 C   0  0  1  0  0  3  0  0  0  0  0  0
  192.2550  176.2120  146.7040 C   0  0  0  0  0  2  0  0  0  0  0  0
  190.0380  173.5980  141.0520 C   0  0  0  0  0  2  0  0  0  0  0  0
  191.1500  173.3410  141.9540 C   0  0  2  0  0  3  0  0  0  0  0  0
  190.8780  174.7200  141.5060 N   0  0  2  0  0  0  0  0  0  0  0  0
  193.0320  170.1260  142.3950 C   0  0  1  0  0  3  0  0  0  0  0  0
  191.9280  171.4180  140.6570 O   0  0  0  0  0  0  0  0  0  0  0  0
  193.9940  173.8990  142.8090 O   0  0  0  0  0  0  0  0  0  0  0  0
  192.7700  169.0160  143.3900 C   0  0  0  0  0  1  0  0  0  0  0  0
  191.7120  170.5530  141.7540 C   0  0  0  0  0  2  0  0  0  0  0  0
  193.9060  172.6480  141.9470 S   0  0  2  0  0  0  0  0  0  0  0  0
  192.2800  172.7020  141.1330 C   0  0  2  0  0  3  0  0  0  0  0  0
  193.6650  171.3050  143.1200 C   0  0  0  0  0  2  0  0  0  0  0  0
  1 14  1  0  0  0  0
  1  9  1  0  0  0  0
  2  5  1  6  0  0  0
  2  3  1  0  0  0  0
  3  7  1  6  0  0  0
  4 15  1  0  0  0  0
  4 11  1  0  0  0  0
  5 14  2  0  0  0  0
  6  1  2  0  0  0  0
  7  4  2  0  0  0  0
  8 12  1  6  0  0  0
  8 13  1  0  0  0  0
 10 19  1  0  0  0  0
 12 16  1  0  0  0  0
 13 18  1  1  0  0  0
 13  2  1  0  0  0  0
 16  5  1  0  0  0  0
 17 16  2  0  0  0  0
 17  6  1  0  0  0  0
 18 10  1  0  0  0  0
 19  3  1  0  0  0  0
 19 20  1  1  0  0  0
 20 15  1  0  0  0  0
 22 21  1  6  0  0  0
 23 21  1  6  0  0  0
 23 22  1  0  0  0  0
 23  8  1  0  0  0  0
 24 31  1  0  0  0  0
 24 27  1  1  0  0  0
 25 28  1  0  0  0  0
 28 24  1  0  0  0  0
 29 26  2  1  0  0  0
 29 31  1  0  0  0  0
 30 25  1  1  0  0  0
 30 29  1  0  0  0  0
 30 22  1  0  0  0  0
M  END
>  <MODEL>
1

>  <REMARK>
 VINA RESULT:      -7.7      0.000      0.000
  Name = 
  2 active torsions:
  status: ('A' for Active; 'I' for Inactive)
    1  A    between atoms: C_5  and  C_30
    2  A    between atoms: C_10  and  N_16
                            x       y       z     vdW  Elec       q    Type
                         _______ _______ _______ _____ _____    ______ ____

>  <TORSDO>
F 2

$$$$
=
 OpenBabel11112416493D

 31 36  0  0  1  0  0  0  0  0999 V2000
  196.7570  170.8660  145.2730 C   0  0  0  0  0  0  0  0  0  0  0  0
  195.9570  174.5750  145.1290 C   0  0  2  0  0  3  0  0  0  0  0  0
  196.2930  174.9990  143.6790 C   0  0  1  0  0  3  0  0  0  0  0  0
  195.8640  174.3330  141.4130 C   0  0  0  0  0  0  0  0  0  0  0  0
  195.7880  173.0900  145.3150 C   0  0  0  0  0  0  0  0  0  0  0  0
  195.5000  170.3100  145.5220 C   0  0  0  0  0  3  0  0  0  0  0  0
  195.9550  174.0200  142.6650 N   0  0  0  0  0  0  0  0  0  0  0  0
  193.4540  174.8180  145.3100 C   0  0  2  0  0  3  0  0  0  0  0  0
  197.9410  169.9830  145.1120 C   0  0  0  0  0  1  0  0  0  0  0  0
  195.8880  177.2210  144.3930 O   0  0  0  0  0  0  0  0  0  0  0  0
  195.4830  173.0780  140.2500 Cl  0  0  0  0  0  0  0  0  0  0  0  0
  193.3200  173.3860  145.8400 C   0  0  0  0  0  2  0  0  0  0  0  0
  194.8100  175.4040  145.7540 C   0  0  2  0  0  3  0  0  0  0  0  0
  196.9000  172.2500  145.1680 C   0  0  0  0  0  3  0  0  0  0  0  0
  195.9290  175.7730  140.9310 C   0  0  0  0  0  2  0  0  0  0  0  0
  194.5190  172.5270  145.5600 C   0  0  0  0  0  0  0  0  0  0  0  0
  194.3860  171.1400  145.6740 C   0  0  0  0  0  3  0  0  0  0  0  0
  194.9420  176.9150  145.4010 C   0  0  0  0  0  2  0  0  0  0  0  0
  195.6510  176.3310  143.3410 C   0  0  1  0  0  3  0  0  0  0  0  0
  196.2650  176.7910  142.0340 C   0  0  0  0  0  2  0  0  0  0  0  0
  191.1920  174.6660  145.8970 C   0  0  0  0  0  2  0  0  0  0  0  0
  191.2660  175.5850  144.7720 C   0  0  2  0  0  3  0  0  0  0  0  0
  192.3230  175.6040  145.8000 N   0  0  2  0  0  0  0  0  0  0  0  0
  188.3640  176.7740  142.7130 C   0  0  1  0  0  3  0  0  0  0  0  0
  188.9110  176.2060  145.0120 O   0  0  0  0  0  0  0  0  0  0  0  0
  191.8520  178.3110  143.6080 O   0  0  0  0  0  0  0  0  0  0  0  0
  187.8020  176.1650  141.4460 C   0  0  0  0  0  1  0  0  0  0  0  0
  188.6080  175.6700  143.7400 C   0  0  0  0  0  2  0  0  0  0  0  0
  190.3710  178.1400  143.9090 S   0  0  2  0  0  0  0  0  0  0  0  0
  190.2360  176.7000  145.0110 C   0  0  2  0  0  3  0  0  0  0  0  0
  189.6710  177.4830  142.3880 C   0  0  0  0  0  2  0  0  0  0  0  0
  1  6  1  0  0  0  0
  2  5  1  6  0  0  0
  2 13  1  0  0  0  0
  3  7  1  6  0  0  0
  3  2  1  0  0  0  0
  4  7  2  0  0  0  0
  5 16  2  0  0  0  0
  6 17  2  0  0  0  0
  8 13  1  0  0  0  0
  8 23  1  0  0  0  0
  8 12  1  1  0  0  0
  9  1  1  0  0  0  0
 10 18  1  0  0  0  0
 11  4  1  0  0  0  0
 13 18  1  6  0  0  0
 14  1  2  0  0  0  0
 14  5  1  0  0  0  0
 15  4  1  0  0  0  0
 15 20  1  0  0  0  0
 16 17  1  0  0  0  0
 16 12  1  0  0  0  0
 19 20  1  6  0  0  0
 19  3  1  0  0  0  0
 19 10  1  0  0  0  0
 22 30  1  0  0  0  0
 22 23  1  0  0  0  0
 22 21  1  1  0  0  0
 23 21  1  1  0  0  0
 24 27  1  6  0  0  0
 24 28  1  0  0  0  0
 28 25  1  0  0  0  0
 29 26  2  6  0  0  0
 29 30  1  0  0  0  0
 30 25  1  6  0  0  0
 31 24  1  0  0  0  0
 31 29  1  0  0  0  0
M  END
>  <MODEL>
2

>  <REMARK>
 VINA RESULT:      -7.2      3.848      7.898
  Name = 
  2 active torsions:
  status: ('A' for Active; 'I' for Inactive)
    1  A    between atoms: C_5  and  C_30
    2  A    between atoms: C_10  and  N_16
                            x       y       z     vdW  Elec       q    Type
                         _______ _______ _______ _____ _____    ______ ____

>  <TORSDO>
F 2

$$$$
=
 OpenBabel11112416493D

 31 36  0  0  1  0  0  0  0  0999 V2000
  187.3630  177.5760  142.8920 C   0  0  0  0  0  0  0  0  0  0  0  0
  191.0240  177.0700  143.7610 C   0  0  2  0  0  3  0  0  0  0  0  0
  191.0490  176.9030  145.3000 C   0  0  1  0  0  3  0  0  0  0  0  0
  189.9700  175.6510  147.0410 C   0  0  0  0  0  0  0  0  0  0  0  0
  189.6680  176.8620  143.1400 C   0  0  0  0  0  0  0  0  0  0  0  0
  187.0930  176.4490  142.1120 C   0  0  0  0  0  3  0  0  0  0  0  0
  189.9370  176.1530  145.8490 N   0  0  0  0  0  0  0  0  0  0  0  0
  191.7130  174.8190  142.8570 C   0  0  2  0  0  3  0  0  0  0  0  0
  186.2820  178.5540  143.1820 C   0  0  0  0  0  1  0  0  0  0  0  0
  193.4100  176.9520  145.1170 O   0  0  0  0  0  0  0  0  0  0  0  0
  188.5670  174.7860  147.6370 Cl  0  0  0  0  0  0  0  0  0  0  0  0
  190.4800  174.7700  141.9490 C   0  0  0  0  0  2  0  0  0  0  0  0
  192.1510  176.2860  143.0470 C   0  0  2  0  0  3  0  0  0  0  0  0
  188.6440  177.7810  143.4050 C   0  0  0  0  0  3  0  0  0  0  0  0
  191.2340  175.6530  147.8860 C   0  0  0  0  0  2  0  0  0  0  0  0
  189.3940  175.7210  142.3570 C   0  0  0  0  0  0  0  0  0  0  0  0
  188.1100  175.5290  141.8390 C   0  0  0  0  0  3  0  0  0  0  0  0
  193.5010  176.4020  143.8160 C   0  0  0  0  0  2  0  0  0  0  0  0
  192.3580  176.2900  145.7580 C   0  0  1  0  0  3  0  0  0  0  0  0
  192.4030  176.4360  147.2660 C   0  0  0  0  0  2  0  0  0  0  0  0
  192.1600  172.6790  142.0160 C   0  0  0  0  0  2  0  0  0  0  0  0
  193.0380  172.8640  143.1610 C   0  0  2  0  0  3  0  0  0  0  0  0
  192.7660  173.9990  142.2600 N   0  0  2  0  0  0  0  0  0  0  0  0
  194.9970  170.2010  144.9330 C   0  0  1  0  0  3  0  0  0  0  0  0
  194.2610  170.7980  142.6950 O   0  0  0  0  0  0  0  0  0  0  0  0
  195.5270  174.0440  144.4020 O   0  0  0  0  0  0  0  0  0  0  0  0
  194.5840  169.3750  146.1330 C   0  0  0  0  0  1  0  0  0  0  0  0
  193.8490  170.2390  143.9260 C   0  0  0  0  0  2  0  0  0  0  0  0
  195.7540  172.6080  143.9540 S   0  0  2  0  0  0  0  0  0  0  0  0
  194.3830  172.2000  142.8310 C   0  0  2  0  0  3  0  0  0  0  0  0
  195.3360  171.6120  145.3920 C   0  0  0  0  0  2  0  0  0  0  0  0
  1  9  1  0  0  0  0
  1 14  1  0  0  0  0
  2  5  1  6  0  0  0
  2  3  1  0  0  0  0
  3 19  1  0  0  0  0
  3  7  1  6  0  0  0
  4 11  1  0  0  0  0
  4 15  1  0  0  0  0
  5 14  2  0  0  0  0
  6  1  2  0  0  0  0
  7  4  2  0  0  0  0
  8 12  1  6  0  0  0
  8 13  1  0  0  0  0
 10 19  1  0  0  0  0
 12 16  1  0  0  0  0
 13  2  1  0  0  0  0
 13 18  1  1  0  0  0
 16  5  1  0  0  0  0
 17  6  1  0  0  0  0
 17 16  2  0  0  0  0
 18 10  1  0  0  0  0
 19 20  1  1  0  0  0
 20 15  1  0  0  0  0
 22 21  1  6  0  0  0
 23 21  1  6  0  0  0
 23  8  1  0  0  0  0
 23 22  1  0  0  0  0
 24 31  1  0  0  0  0
 24 27  1  1  0  0  0
 25 28  1  0  0  0  0
 28 24  1  0  0  0  0
 29 26  2  1  0  0  0
 29 31  1  0  0  0  0
 30 25  1  1  0  0  0
 30 22  1  0  0  0  0
 30 29  1  0  0  0  0
M  END
>  <MODEL>
3

>  <REMARK>
 VINA RESULT:      -7.2      1.582      2.047
  Name = 
  2 active torsions:
  status: ('A' for Active; 'I' for Inactive)
    1  A    between atoms: C_5  and  C_30
    2  A    between atoms: C_10  and  N_16
                            x       y       z     vdW  Elec       q    Type
                         _______ _______ _______ _____ _____    ______ ____

>  <TORSDO>
F 2

$$$$
=
 OpenBabel11112416493D

 31 36  0  0  1  0  0  0  0  0999 V2000
  186.9530  177.8280  147.2870 C   0  0  0  0  0  0  0  0  0  0  0  0
  188.8420  174.9450  145.6930 C   0  0  2  0  0  3  0  0  0  0  0  0
  188.5230  175.0470  144.1820 C   0  0  1  0  0  3  0  0  0  0  0  0
  188.5190  176.6550  142.4000 C   0  0  0  0  0  0  0  0  0  0  0  0
  188.5600  176.2040  146.4700 C   0  0  0  0  0  0  0  0  0  0  0  0
  187.9940  178.6080  147.7950 C   0  0  0  0  0  3  0  0  0  0  0  0
  188.4500  176.4000  143.6660 N   0  0  0  0  0  0  0  0  0  0  0  0
  191.3030  175.4610  145.8710 C   0  0  2  0  0  3  0  0  0  0  0  0
  185.5450  178.2750  147.4450 C   0  0  0  0  0  1  0  0  0  0  0  0
  189.6570  172.9800  143.9560 O   0  0  0  0  0  0  0  0  0  0  0  0
  188.3880  178.3180  141.8610 Cl  0  0  0  0  0  0  0  0  0  0  0  0
  191.0360  176.5270  146.9400 C   0  0  0  0  0  2  0  0  0  0  0  0
  190.2400  174.3480  145.9810 C   0  0  2  0  0  3  0  0  0  0  0  0
  187.2350  176.6310  146.6260 C   0  0  0  0  0  3  0  0  0  0  0  0
  188.8590  175.5850  141.3750 C   0  0  0  0  0  2  0  0  0  0  0  0
  189.6110  176.9960  146.9780 C   0  0  0  0  0  0  0  0  0  0  0  0
  189.3190  178.1880  147.6480 C   0  0  0  0  0  3  0  0  0  0  0  0
  190.5500  173.1450  145.0410 C   0  0  0  0  0  2  0  0  0  0  0  0
  189.5110  174.2380  143.3630 C   0  0  1  0  0  3  0  0  0  0  0  0
  188.9540  174.1650  141.9560 C   0  0  0  0  0  2  0  0  0  0  0  0
  193.5070  176.1310  146.2980 C   0  0  0  0  0  2  0  0  0  0  0  0
  193.5120  175.5070  144.9840 C   0  0  2  0  0  3  0  0  0  0  0  0
  192.6610  174.9500  146.0520 N   0  0  2  0  0  0  0  0  0  0  0  0
  196.2290  175.6300  142.4010 C   0  0  1  0  0  3  0  0  0  0  0  0
  195.9520  175.5670  144.8150 O   0  0  0  0  0  0  0  0  0  0  0  0
  193.4690  173.0020  143.2960 O   0  0  0  0  0  0  0  0  0  0  0  0
  196.3890  176.6050  141.2540 C   0  0  0  0  0  1  0  0  0  0  0  0
  195.8830  176.4000  143.6750 C   0  0  0  0  0  2  0  0  0  0  0  0
  194.8830  173.5370  143.4640 S   0  0  2  0  0  0  0  0  0  0  0  0
  194.8220  174.7180  144.8460 C   0  0  2  0  0  3  0  0  0  0  0  0
  195.1180  174.6460  142.0670 C   0  0  0  0  0  2  0  0  0  0  0  0
  1  9  1  0  0  0  0
  1  6  1  0  0  0  0
  2 13  1  0  0  0  0
  2  5  1  6  0  0  0
  3  7  1  6  0  0  0
  3  2  1  0  0  0  0
  4  7  2  0  0  0  0
  5 14  1  0  0  0  0
  5 16  2  0  0  0  0
  8 13  1  0  0  0  0
  8 23  1  0  0  0  0
  8 12  1  1  0  0  0
 10 18  1  0  0  0  0
 11  4  1  0  0  0  0
 12 16  1  0  0  0  0
 13 18  1  6  0  0  0
 14  1  2  0  0  0  0
 15 20  1  0  0  0  0
 15  4  1  0  0  0  0
 16 17  1  0  0  0  0
 17  6  2  0  0  0  0
 19 20  1  6  0  0  0
 19 10  1  0  0  0  0
 19  3  1  0  0  0  0
 22 23  1  0  0  0  0
 22 21  1  1  0  0  0
 23 21  1  1  0  0  0
 24 27  1  6  0  0  0
 24 28  1  0  0  0  0
 28 25  1  0  0  0  0
 29 26  2  6  0  0  0
 29 30  1  0  0  0  0
 30 25  1  6  0  0  0
 30 22  1  0  0  0  0
 31 24  1  0  0  0  0
 31 29  1  0  0  0  0
M  END
>  <MODEL>
4

>  <REMARK>
 VINA RESULT:      -7.1      2.973      4.975
  Name = 
  2 active torsions:
  status: ('A' for Active; 'I' for Inactive)
    1  A    between atoms: C_5  and  C_30
    2  A    between atoms: C_10  and  N_16
                            x       y       z     vdW  Elec       q    Type
                         _______ _______ _______ _____ _____    ______ ____

>  <TORSDO>
F 2

$$$$
=
 OpenBabel11112416493D

 31 36  0  0  1  0  0  0  0  0999 V2000
  187.2310  177.2910  141.4500 C   0  0  0  0  0  0  0  0  0  0  0  0
  188.8170  174.4160  143.3580 C   0  0  2  0  0  3  0  0  0  0  0  0
  189.0990  173.3350  142.2870 C   0  0  1  0  0  3  0  0  0  0  0  0
  190.1220  173.0940  140.1290 C   0  0  0  0  0  0  0  0  0  0  0  0
  188.5860  175.7950  142.7970 C   0  0  0  0  0  0  0  0  0  0  0  0
  188.1750  178.3070  141.6240 C   0  0  0  0  0  3  0  0  0  0  0  0
  189.5430  173.8480  141.0060 N   0  0  0  0  0  0  0  0  0  0  0  0
  191.0960  175.1780  144.1210 C   0  0  2  0  0  3  0  0  0  0  0  0
  186.0120  177.5410  140.6380 C   0  0  0  0  0  1  0  0  0  0  0  0
  189.7060  171.9220  144.0890 O   0  0  0  0  0  0  0  0  0  0  0  0
  190.5960  173.7900  138.5920 Cl  0  0  0  0  0  0  0  0  0  0  0  0
  190.7260  176.6450  143.8690 C   0  0  0  0  0  2  0  0  0  0  0  0
  189.8320  174.3930  144.5260 C   0  0  2  0  0  3  0  0  0  0  0  0
  187.4370  176.0400  142.0330 C   0  0  0  0  0  3  0  0  0  0  0  0
  190.5410  171.6650  140.4380 C   0  0  0  0  0  2  0  0  0  0  0  0
  189.5400  176.8190  142.9670 C   0  0  0  0  0  0  0  0  0  0  0  0
  189.3210  178.0730  142.3880 C   0  0  0  0  0  3  0  0  0  0  0  0
  190.1610  172.9360  144.9660 C   0  0  0  0  0  2  0  0  0  0  0  0
  190.0900  172.3080  142.8000 C   0  0  1  0  0  3  0  0  0  0  0  0
  190.0760  171.1580  141.8140 C   0  0  0  0  0  2  0  0  0  0  0  0
  193.0000  176.2940  144.9050 C   0  0  0  0  0  2  0  0  0  0  0  0
  193.4400  174.9730  144.4850 C   0  0  2  0  0  3  0  0  0  0  0  0
  192.1330  175.1290  145.1500 N   0  0  2  0  0  0  0  0  0  0  0  0
  196.9670  173.8120  143.9550 C   0  0  1  0  0  3  0  0  0  0  0  0
  195.6870  175.2910  145.3980 O   0  0  0  0  0  0  0  0  0  0  0  0
  193.6580  172.0060  145.0130 O   0  0  0  0  0  0  0  0  0  0  0  0
  197.7730  173.8170  142.6730 C   0  0  0  0  0  1  0  0  0  0  0  0
  196.2620  175.1580  144.1140 C   0  0  0  0  0  2  0  0  0  0  0  0
  194.9400  172.7350  145.3880 S   0  0  2  0  0  0  0  0  0  0  0  0
  194.5160  174.5020  145.4740 C   0  0  2  0  0  3  0  0  0  0  0  0
  195.9420  172.6890  143.8950 C   0  0  0  0  0  2  0  0  0  0  0  0
  1  6  2  0  0  0  0
  1 14  1  0  0  0  0
  2  5  1  6  0  0  0
  2 13  1  0  0  0  0
  3  7  1  6  0  0  0
  3 19  1  0  0  0  0
  3  2  1  0  0  0  0
  4 15  1  0  0  0  0
  4  7  2  0  0  0  0
  5 16  1  0  0  0  0
  6 17  1  0  0  0  0
  8 12  1  1  0  0  0
  8 13  1  0  0  0  0
  8 23  1  0  0  0  0
  9  1  1  0  0  0  0
 10 18  1  0  0  0  0
 11  4  1  0  0  0  0
 13 18  1  6  0  0  0
 14  5  2  0  0  0  0
 15 20  1  0  0  0  0
 16 12  1  0  0  0  0
 17 16  2  0  0  0  0
 19 20  1  6  0  0  0
 19 10  1  0  0  0  0
 22 21  1  1  0  0  0
 22 23  1  0  0  0  0
 22 30  1  0  0  0  0
 23 21  1  6  0  0  0
 24 27  1  6  0  0  0
 24 28  1  0  0  0  0
 28 25  1  0  0  0  0
 29 26  2  6  0  0  0
 29 30  1  0  0  0  0
 30 25  1  6  0  0  0
 31 24  1  0  0  0  0
 31 29  1  0  0  0  0
M  END
>  <MODEL>
5

>  <REMARK>
 VINA RESULT:      -6.9      3.110      5.113
  Name = 
  2 active torsions:
  status: ('A' for Active; 'I' for Inactive)
    1  A    between atoms: C_5  and  C_30
    2  A    between atoms: C_10  and  N_16
                            x       y       z     vdW  Elec       q    Type
                         _______ _______ _______ _____ _____    ______ ____

>  <TORSDO>
F 2

$$$$
=
 OpenBabel11112416493D

 31 36  0  0  1  0  0  0  0  0999 V2000
  188.3150  176.6840  145.2860 C   0  0  0  0  0  0  0  0  0  0  0  0
  190.9520  173.9630  145.0380 C   0  0  2  0  0  3  0  0  0  0  0  0
  190.4910  173.0670  143.8640 C   0  0  1  0  0  3  0  0  0  0  0  0
  189.7720  173.2400  141.5800 C   0  0  0  0  0  0  0  0  0  0  0  0
  190.3140  175.3270  145.0620 C   0  0  0  0  0  0  0  0  0  0  0  0
  189.0550  177.8310  144.9880 C   0  0  0  0  0  3  0  0  0  0  0  0
  189.9040  173.7820  142.7470 N   0  0  0  0  0  0  0  0  0  0  0  0
  193.0820  175.0440  144.2290 C   0  0  2  0  0  3  0  0  0  0  0  0
  186.8580  176.7910  145.5580 C   0  0  0  0  0  1  0  0  0  0  0  0
  192.2540  171.6100  144.4790 O   0  0  0  0  0  0  0  0  0  0  0  0
  189.0200  174.1660  140.2950 Cl  0  0  0  0  0  0  0  0  0  0  0  0
  192.5490  176.4370  144.5850 C   0  0  0  0  0  2  0  0  0  0  0  0
  192.4900  174.0050  145.2040 C   0  0  2  0  0  3  0  0  0  0  0  0
  188.9410  175.4370  145.3210 C   0  0  0  0  0  3  0  0  0  0  0  0
  190.3770  171.8870  141.2410 C   0  0  0  0  0  2  0  0  0  0  0  0
  191.0590  176.4850  144.7560 C   0  0  0  0  0  0  0  0  0  0  0  0
  190.4260  177.7310  144.7330 C   0  0  0  0  0  3  0  0  0  0  0  0
  193.1210  172.5930  145.0130 C   0  0  0  0  0  2  0  0  0  0  0  0
  191.6270  172.1900  143.3720 C   0  0  1  0  0  3  0  0  0  0  0  0
  191.0130  171.1650  142.4400 C   0  0  0  0  0  2  0  0  0  0  0  0
  194.9300  176.4160  143.7970 C   0  0  0  0  0  2  0  0  0  0  0  0
  195.0450  175.2750  142.9020 C   0  0  2  0  0  3  0  0  0  0  0  0
  194.5430  175.0770  144.2750 N   0  0  2  0  0  0  0  0  0  0  0  0
  197.3020  174.8830  139.9320 C   0  0  1  0  0  3  0  0  0  0  0  0
  197.2770  175.9150  142.1330 O   0  0  0  0  0  0  0  0  0  0  0  0
  195.7540  172.3660  142.5010 O   0  0  0  0  0  0  0  0  0  0  0  0
  197.0020  175.1870  138.4800 C   0  0  0  0  0  1  0  0  0  0  0  0
  196.8160  176.0410  140.8030 C   0  0  0  0  0  2  0  0  0  0  0  0
  196.8930  173.2810  142.0750 S   0  0  2  0  0  0  0  0  0  0  0  0
  196.5340  174.9120  142.7960 C   0  0  2  0  0  3  0  0  0  0  0  0
  196.5920  173.5970  140.3300 C   0  0  0  0  0  2  0  0  0  0  0  0
  1 14  1  0  0  0  0
  1  9  1  0  0  0  0
  2  5  1  6  0  0  0
  2 13  1  0  0  0  0
  3  7  1  6  0  0  0
  3  2  1  0  0  0  0
  4  7  2  0  0  0  0
  5 14  2  0  0  0  0
  6  1  2  0  0  0  0
  8 23  1  0  0  0  0
  8 12  1  1  0  0  0
  8 13  1  0  0  0  0
 10 18  1  0  0  0  0
 11  4  1  0  0  0  0
 12 16  1  0  0  0  0
 13 18  1  6  0  0  0
 15  4  1  0  0  0  0
 15 20  1  0  0  0  0
 16  5  1  0  0  0  0
 17 16  2  0  0  0  0
 17  6  1  0  0  0  0
 19 20  1  6  0  0  0
 19  3  1  0  0  0  0
 19 10  1  0  0  0  0
 22 21  1  1  0  0  0
 22 23  1  0  0  0  0
 23 21  1  1  0  0  0
 24 27  1  6  0  0  0
 24 31  1  0  0  0  0
 24 28  1  0  0  0  0
 28 25  1  0  0  0  0
 29 26  2  1  0  0  0
 29 30  1  0  0  0  0
 30 25  1  6  0  0  0
 30 22  1  0  0  0  0
 31 29  1  0  0  0  0
M  END
>  <MODEL>
6

>  <REMARK>
 VINA RESULT:      -6.8      3.277      5.170
  Name = 
  2 active torsions:
  status: ('A' for Active; 'I' for Inactive)
    1  A    between atoms: C_5  and  C_30
    2  A    between atoms: C_10  and  N_16
                            x       y       z     vdW  Elec       q    Type
                         _______ _______ _______ _____ _____    ______ ____

>  <TORSDO>
F 2

$$$$
=
 OpenBabel11112416493D

 31 36  0  0  1  0  0  0  0  0999 V2000
  194.6890  176.2850  144.4730 C   0  0  0  0  0  0  0  0  0  0  0  0
  191.0330  177.2320  144.0750 C   0  0  2  0  0  3  0  0  0  0  0  0
  190.5110  176.3310  142.9300 C   0  0  1  0  0  3  0  0  0  0  0  0
  190.4800  174.0260  142.2600 C   0  0  0  0  0  0  0  0  0  0  0  0
  192.3190  176.7550  144.6980 C   0  0  0  0  0  0  0  0  0  0  0  0
  194.7110  175.7590  145.7670 C   0  0  0  0  0  3  0  0  0  0  0  0
  191.0420  174.9820  142.9270 N   0  0  0  0  0  0  0  0  0  0  0  0
  189.8150  176.4320  146.1330 C   0  0  2  0  0  3  0  0  0  0  0  0
  195.9330  176.3120  143.6610 C   0  0  0  0  0  1  0  0  0  0  0  0
  188.5090  177.5920  143.0530 O   0  0  0  0  0  0  0  0  0  0  0  0
  191.2090  172.4320  142.2850 Cl  0  0  0  0  0  0  0  0  0  0  0  0
  191.1370  176.2750  146.8940 C   0  0  0  0  0  2  0  0  0  0  0  0
  189.9440  177.5850  145.1160 C   0  0  2  0  0  3  0  0  0  0  0  0
  193.4980  176.7800  143.9400 C   0  0  0  0  0  3  0  0  0  0  0  0
  189.1320  174.1970  141.5780 C   0  0  0  0  0  2  0  0  0  0  0  0
  192.3420  176.2180  146.0010 C   0  0  0  0  0  0  0  0  0  0  0  0
  193.5420  175.7350  146.5310 C   0  0  0  0  0  3  0  0  0  0  0  0
  188.5860  177.9160  144.4280 C   0  0  0  0  0  2  0  0  0  0  0  0
  188.9950  176.2860  142.9230 C   0  0  1  0  0  3  0  0  0  0  0  0
  188.5840  175.6330  141.6190 C   0  0  0  0  0  2  0  0  0  0  0  0
  188.1910  175.3350  147.4150 C   0  0  0  0  0  2  0  0  0  0  0  0
  187.4740  176.2110  146.5030 C   0  0  2  0  0  3  0  0  0  0  0  0
  188.7440  176.6640  147.1010 N   0  0  2  0  0  0  0  0  0  0  0  0
  184.8490  178.6880  145.4800 C   0  0  1  0  0  3  0  0  0  0  0  0
  185.0500  176.5320  146.5850 O   0  0  0  0  0  0  0  0  0  0  0  0
  187.8570  178.8180  147.9830 O   0  0  0  0  0  0  0  0  0  0  0  0
  184.6180  179.3000  144.1150 C   0  0  0  0  0  1  0  0  0  0  0  0
  185.0620  177.1830  145.3300 C   0  0  0  0  0  2  0  0  0  0  0  0
  186.3860  178.5460  147.7020 S   0  0  2  0  0  0  0  0  0  0  0  0
  186.2670  176.7860  147.2590 C   0  0  2  0  0  3  0  0  0  0  0  0
  186.0750  179.3290  146.1130 C   0  0  0  0  0  2  0  0  0  0  0  0
  1  6  1  0  0  0  0
  2  5  1  1  0  0  0
  2 13  1  0  0  0  0
  3  7  1  1  0  0  0
  3  2  1  0  0  0  0
  4 11  1  0  0  0  0
  4  7  2  0  0  0  0
  5 16  2  0  0  0  0
  6 17  2  0  0  0  0
  8 12  1  1  0  0  0
  8 23  1  0  0  0  0
  9  1  1  0  0  0  0
 10 18  1  0  0  0  0
 13 18  1  6  0  0  0
 13  8  1  0  0  0  0
 14  1  2  0  0  0  0
 14  5  1  0  0  0  0
 15 20  1  0  0  0  0
 15  4  1  0  0  0  0
 16 17  1  0  0  0  0
 16 12  1  0  0  0  0
 19 20  1  6  0  0  0
 19  3  1  0  0  0  0
 19 10  1  0  0  0  0
 22 23  1  0  0  0  0
 22 30  1  0  0  0  0
 22 21  1  1  0  0  0
 23 21  1  1  0  0  0
 24 27  1  6  0  0  0
 24 31  1  0  0  0  0
 28 24  1  0  0  0  0
 28 25  1  0  0  0  0
 29 26  2  6  0  0  0
 30 25  1  6  0  0  0
 30 29  1  0  0  0  0
 31 29  1  0  0  0  0
M  END
>  <MODEL>
7

>  <REMARK>
 VINA RESULT:      -6.6      3.637      7.630
  Name = 
  2 active torsions:
  status: ('A' for Active; 'I' for Inactive)
    1  A    between atoms: C_5  and  C_30
    2  A    between atoms: C_10  and  N_16
                            x       y       z     vdW  Elec       q    Type
                         _______ _______ _______ _____ _____    ______ ____

>  <TORSDO>
F 2

$$$$
=
 OpenBabel11112416493D

 31 36  0  0  1  0  0  0  0  0999 V2000
  186.4420  177.6300  142.5850 C   0  0  0  0  0  0  0  0  0  0  0  0
  189.1030  175.8910  144.6620 C   0  0  2  0  0  3  0  0  0  0  0  0
  188.9430  174.3870  144.3340 C   0  0  1  0  0  3  0  0  0  0  0  0
  188.7780  172.9140  142.4460 C   0  0  0  0  0  0  0  0  0  0  0  0
  188.4570  176.8130  143.6600 C   0  0  0  0  0  0  0  0  0  0  0  0
  187.2150  178.4130  141.7240 C   0  0  0  0  0  3  0  0  0  0  0  0
  188.6250  174.0960  142.9500 N   0  0  0  0  0  0  0  0  0  0  0  0
  191.3470  176.5260  143.7040 C   0  0  2  0  0  3  0  0  0  0  0  0
  184.9610  177.6420  142.4700 C   0  0  0  0  0  1  0  0  0  0  0  0
  190.5340  173.9990  146.0470 O   0  0  0  0  0  0  0  0  0  0  0  0
  188.3360  172.6430  140.7710 Cl  0  0  0  0  0  0  0  0  0  0  0  0
  190.7260  177.7020  142.9410 C   0  0  0  0  0  2  0  0  0  0  0  0
  190.5580  176.2870  145.0080 C   0  0  2  0  0  3  0  0  0  0  0  0
  187.0610  176.8320  143.5480 C   0  0  0  0  0  3  0  0  0  0  0  0
  189.4650  171.7910  143.2060 C   0  0  0  0  0  2  0  0  0  0  0  0
  189.2370  177.5990  142.7870 C   0  0  0  0  0  0  0  0  0  0  0  0
  188.6080  178.4030  141.8320 C   0  0  0  0  0  3  0  0  0  0  0  0
  191.2370  175.2210  145.9180 C   0  0  0  0  0  2  0  0  0  0  0  0
  190.1750  173.6070  144.7530 C   0  0  1  0  0  3  0  0  0  0  0  0
  189.8120  172.1380  144.6630 C   0  0  0  0  0  2  0  0  0  0  0  0
  193.3910  176.9180  142.6300 C   0  0  0  0  0  2  0  0  0  0  0  0
  193.5680  175.7140  143.4260 C   0  0  2  0  0  3  0  0  0  0  0  0
  192.7560  176.8260  143.9560 N   0  0  2  0  0  0  0  0  0  0  0  0
  196.6340  173.7310  142.5680 C   0  0  1  0  0  3  0  0  0  0  0  0
  195.9590  176.0230  143.0120 O   0  0  0  0  0  0  0  0  0  0  0  0
  194.2160  173.7720  145.6480 O   0  0  0  0  0  0  0  0  0  0  0  0
  196.8310  172.7560  141.4270 C   0  0  0  0  0  1  0  0  0  0  0  0
  195.9560  174.9950  142.0430 C   0  0  0  0  0  2  0  0  0  0  0  0
  195.4770  174.2680  144.9550 S   0  0  2  0  0  0  0  0  0  0  0  0
  194.9910  175.7400  144.0030 C   0  0  2  0  0  3  0  0  0  0  0  0
  195.7680  173.0790  143.6370 C   0  0  0  0  0  2  0  0  0  0  0  0
  1 14  1  0  0  0  0
  2  5  1  6  0  0  0
  2 13  1  0  0  0  0
  3  7  1  6  0  0  0
  3  2  1  0  0  0  0
  3 19  1  0  0  0  0
  4  7  2  0  0  0  0
  4 15  1  0  0  0  0
  6 17  1  0  0  0  0
  6  1  2  0  0  0  0
  8 12  1  1  0  0  0
  8 23  1  0  0  0  0
  8 13  1  0  0  0  0
  9  1  1  0  0  0  0
 11  4  1  0  0  0  0
 13 18  1  6  0  0  0
 14  5  2  0  0  0  0
 15 20  1  0  0  0  0
 16 12  1  0  0  0  0
 16  5  1  0  0  0  0
 17 16  2  0  0  0  0
 18 10  1  0  0  0  0
 19 20  1  1  0  0  0
 19 10  1  0  0  0  0
 22 21  1  6  0  0  0
 22 23  1  0  0  0  0
 22 30  1  0  0  0  0
 23 21  1  6  0  0  0
 24 27  1  6  0  0  0
 24 31  1  0  0  0  0
 28 24  1  0  0  0  0
 28 25  1  0  0  0  0
 29 26  2  1  0  0  0
 30 25  1  6  0  0  0
 30 29  1  0  0  0  0
 31 29  1  0  0  0  0
M  END
>  <MODEL>
8

>  <REMARK>
 VINA RESULT:      -6.4      2.947      4.094
  Name = 
  2 active torsions:
  status: ('A' for Active; 'I' for Inactive)
    1  A    between atoms: C_5  and  C_30
    2  A    between atoms: C_10  and  N_16
                            x       y       z     vdW  Elec       q    Type
                         _______ _______ _______ _____ _____    ______ ____

>  <TORSDO>
F 2

$$$$
=
 OpenBabel11112416493D

 31 36  0  0  1  0  0  0  0  0999 V2000
  191.6080  175.3430  146.7300 C   0  0  0  0  0  0  0  0  0  0  0  0
  194.7550  175.9640  144.6980 C   0  0  2  0  0  3  0  0  0  0  0  0
  195.7410  174.8560  145.1410 C   0  0  1  0  0  3  0  0  0  0  0  0
  195.8310  172.4760  145.4410 C   0  0  0  0  0  0  0  0  0  0  0  0
  193.3160  175.6830  145.0400 C   0  0  0  0  0  0  0  0  0  0  0  0
  190.6780  175.0370  145.7340 C   0  0  0  0  0  3  0  0  0  0  0  0
  195.1320  173.5630  145.3860 N   0  0  0  0  0  0  0  0  0  0  0  0
  194.2220  175.4300  142.2930 C   0  0  2  0  0  3  0  0  0  0  0  0
  191.2010  175.3210  148.1590 C   0  0  0  0  0  1  0  0  0  0  0  0
  197.3620  175.9820  143.8320 O   0  0  0  0  0  0  0  0  0  0  0  0
  195.0170  170.9600  145.7750 Cl  0  0  0  0  0  0  0  0  0  0  0  0
  192.7170  175.4880  142.5790 C   0  0  0  0  0  2  0  0  0  0  0  0
  194.9600  176.4080  143.2300 C   0  0  2  0  0  3  0  0  0  0  0  0
  192.9220  175.6630  146.3850 C   0  0  0  0  0  3  0  0  0  0  0  0
  197.3070  172.4430  145.0790 C   0  0  0  0  0  2  0  0  0  0  0  0
  192.3770  175.3680  144.0360 C   0  0  0  0  0  0  0  0  0  0  0  0
  191.0610  175.0590  144.3900 C   0  0  0  0  0  3  0  0  0  0  0  0
  196.4720  176.5310  142.8780 C   0  0  0  0  0  2  0  0  0  0  0  0
  196.8760  174.7090  144.1460 C   0  0  1  0  0  3  0  0  0  0  0  0
  197.9180  173.8260  144.8010 C   0  0  0  0  0  2  0  0  0  0  0  0
  193.5920  174.8070  140.1240 C   0  0  0  0  0  2  0  0  0  0  0  0
  195.0210  174.5560  140.2270 C   0  0  2  0  0  3  0  0  0  0  0  0
  194.4410  175.7430  140.8810 N   0  0  2  0  0  0  0  0  0  0  0  0
  197.1340  172.5570  137.8590 C   0  0  1  0  0  3  0  0  0  0  0  0
  195.2250  174.0610  137.8400 O   0  0  0  0  0  0  0  0  0  0  0  0
  197.8660  175.5730  140.2460 O   0  0  0  0  0  0  0  0  0  0  0  0
  197.4800  171.0850  137.9240 C   0  0  0  0  0  1  0  0  0  0  0  0
  195.6400  172.7390  138.1180 C   0  0  0  0  0  2  0  0  0  0  0  0
  197.4720  175.0420  138.8760 S   0  0  2  0  0  0  0  0  0  0  0  0
  195.6580  174.9180  138.8770 C   0  0  2  0  0  3  0  0  0  0  0  0
  197.9410  173.3060  138.9090 C   0  0  0  0  0  2  0  0  0  0  0  0
  1  9  1  0  0  0  0
  2  5  1  6  0  0  0
  2  3  1  0  0  0  0
  3  7  1  6  0  0  0
  4 11  1  0  0  0  0
  5 14  2  0  0  0  0
  6  1  2  0  0  0  0
  7  4  2  0  0  0  0
  8 12  1  1  0  0  0
  8 13  1  0  0  0  0
 10 19  1  0  0  0  0
 12 16  1  0  0  0  0
 13 18  1  6  0  0  0
 13  2  1  0  0  0  0
 14  1  1  0  0  0  0
 15  4  1  0  0  0  0
 16 17  2  0  0  0  0
 16  5  1  0  0  0  0
 17  6  1  0  0  0  0
 18 10  1  0  0  0  0
 19 20  1  1  0  0  0
 19  3  1  0  0  0  0
 20 15  1  0  0  0  0
 22 21  1  6  0  0  0
 22 23  1  0  0  0  0
 23 21  1  6  0  0  0
 23  8  1  0  0  0  0
 24 27  1  1  0  0  0
 24 28  1  0  0  0  0
 24 31  1  0  0  0  0
 25 28  1  0  0  0  0
 29 30  1  0  0  0  0
 29 31  1  0  0  0  0
 29 26  2  1  0  0  0
 30 25  1  6  0  0  0
 30 22  1  0  0  0  0
M  END
>  <MODEL>
9

>  <REMARK>
 VINA RESULT:      -6.3      4.189      5.661
  Name = 
  2 active torsions:
  status: ('A' for Active; 'I' for Inactive)
    1  A    between atoms: C_5  and  C_30
    2  A    between atoms: C_10  and  N_16
                            x       y       z     vdW  Elec       q    Type
                         _______ _______ _______ _____ _____    ______ ____

>  <TORSDO>
F 2

$$$$
