=
 OpenBabel11112417283D

 37 42  0  0  1  0  0  0  0  0999 V2000
  190.2380  174.3330  141.3300 C   0  0  1  0  0  3  0  0  0  0  0  0
  189.5550  177.4970  142.3540 C   0  0  0  0  0  2  0  0  0  0  0  0
  192.0170  172.4600  141.3160 C   0  0  2  0  0  3  0  0  0  0  0  0
  190.2380  175.0700  142.5970 N   0  0  2  0  0  0  0  0  0  0  0  0
  191.7040  173.9520  141.0920 C   0  0  2  0  0  3  0  0  0  0  0  0
  189.1460  176.0690  142.7400 C   0  0  2  0  0  3  0  0  0  0  0  0
  191.1220  171.5760  140.4430 C   0  0  0  0  0  2  0  0  0  0  0  0
  192.4610  174.8040  142.0780 C   0  0  0  0  0  2  0  0  0  0  0  0
  187.9180  173.4800  141.1890 N   0  0  0  0  0  2  0  0  0  0  0  0
  189.6850  172.0910  140.3090 C   0  0  0  0  0  2  0  0  0  0  0  0
  190.0790  177.7200  144.7400 O   0  0  0  0  0  0  0  0  0  0  0  0
  190.2820  178.2830  143.4660 C   0  0  1  0  0  3  0  0  0  0  0  0
  189.3070  173.0990  141.3940 C   0  0  1  0  0  3  0  0  0  0  0  0
  191.4860  175.7330  142.6390 N   0  0  2  0  0  0  0  0  0  0  0  0
  187.7730  175.6830  142.1630 C   0  0  1  0  0  3  0  0  0  0  0  0
  191.3960  177.6230  144.2350 C   0  0  2  0  0  3  0  0  0  0  0  0
  191.7350  176.1360  144.0330 C   0  0  2  0  0  3  0  0  0  0  0  0
  187.4560  174.2110  142.3560 C   0  0  0  0  0  2  0  0  0  0  0  0
  185.8530  177.3670  141.7910 C   0  0  0  0  0  2  0  0  0  0  0  0
  186.6740  176.5290  142.7440 C   0  0  0  0  0  0  0  0  0  0  0  0
  186.5340  176.6380  144.0820 C   0  0  0  0  0  3  0  0  0  0  0  0
  185.9140  178.0060  145.9060 F   0  0  0  0  0  0  0  0  0  0  0  0
  184.9880  178.5910  143.7920 C   0  0  0  0  0  2  0  0  0  0  0  0
  185.4550  177.4730  144.7170 C   0  0  1  0  0  3  0  0  0  0  0  0
  184.6170  177.9860  142.4440 C   0  0  0  0  0  2  0  0  0  0  0  0
  193.1760  175.8930  144.5130 C   0  0  0  0  0  2  0  0  0  0  0  0
  193.3200  175.9510  146.0370 C   0  0  1  0  0  3  0  0  0  0  0  0
  191.4560  175.6950  147.6790 C   0  0  0  0  0  1  0  0  0  0  0  0
  192.3960  174.9640  146.7400 C   0  0  0  0  0  2  0  0  0  0  0  0
  194.7720  175.7400  146.4520 C   0  0  0  0  0  2  0  0  0  0  0  0
  195.5580  175.0200  145.3680 C   0  0  0  0  0  2  0  0  0  0  0  0
  196.4540  173.9570  145.9730 C   0  0  0  0  0  1  0  0  0  0  0  0
  191.8550  172.0790  142.7230 N   0  0  0  0  0  2  0  0  0  0  0  0
  193.0620  171.4240  143.2350 C   0  0  0  0  0  0  0  0  0  0  0  0
  192.8200  169.9410  143.4660 C   0  0  0  0  0  1  0  0  0  0  0  0
  194.1260  171.5950  142.3460 O   0  0  0  0  0  1  0  0  0  0  0  0
  193.4310  172.0550  144.5600 C   0  0  0  0  0  1  0  0  0  0  0  0
  1 13  1  0  0  0  0
  1  4  1  0  0  0  0
  2  6  1  0  0  0  0
  2 12  1  0  0  0  0
  3 33  1  0  0  0  0
  4 14  1  0  0  0  0
  4  6  1  0  0  0  0
  5  3  1  0  0  0  0
  5  1  1  0  0  0  0
  5  8  1  0  0  0  0
  7  3  1  0  0  0  0
  8 14  1  0  0  0  0
  9 13  1  0  0  0  0
  9 18  1  0  0  0  0
 10  7  1  0  0  0  0
 10 13  1  0  0  0  0
 12 16  1  0  0  0  0
 12 11  1  0  0  0  0
 14 17  1  0  0  0  0
 15 18  1  0  0  0  0
 15  6  1  0  0  0  0
 15 20  1  0  0  0  0
 16 11  1  0  0  0  0
 17 16  1  0  0  0  0
 17 26  1  0  0  0  0
 19 25  1  0  0  0  0
 19 20  1  0  0  0  0
 20 21  2  0  0  0  0
 21 24  1  0  0  0  0
 23 24  1  0  0  0  0
 24 22  1  0  0  0  0
 25 23  1  0  0  0  0
 26 27  1  0  0  0  0
 27 30  1  0  0  0  0
 27 29  1  0  0  0  0
 29 28  1  0  0  0  0
 31 32  1  0  0  0  0
 31 30  1  0  0  0  0
 33 34  1  0  0  0  0
 34 35  1  0  0  0  0
 34 37  1  0  0  0  0
 36 34  1  0  0  0  0
M  END
>  <MODEL>
1

>  <REMARK>
 VINA RESULT:      -7.1      0.000      0.000
  Name = 
  8 active torsions:
  status: ('A' for Active; 'I' for Inactive)
    1  A    between atoms: C_1  and  C_4
    2  A    between atoms: C_1  and  C_27
    3  A    between atoms: C_2  and  N_22
    4  A    between atoms: C_4  and  C_12
    5  A    between atoms: C_4  and  C_37
    6  A    between atoms: C_6  and  N_22
    7  A    between atoms: C_8  and  C_12
    8  A    between atoms: C_23  and  C_30
                            x       y       z     vdW  Elec       q    Type
                         _______ _______ _______ _____ _____    ______ ____

>  <TORSDO>
F 8

$$$$
=
 OpenBabel11112417283D

 37 42  0  0  1  0  0  0  0  0999 V2000
  190.3370  174.2970  141.2660 C   0  0  1  0  0  3  0  0  0  0  0  0
  189.6270  177.4360  142.3460 C   0  0  0  0  0  2  0  0  0  0  0  0
  192.1530  172.4620  141.1650 C   0  0  2  0  0  3  0  0  0  0  0  0
  190.3700  175.0230  142.5390 N   0  0  2  0  0  0  0  0  0  0  0  0
  191.8000  173.9490  140.9680 C   0  0  2  0  0  3  0  0  0  0  0  0
  189.2630  175.9970  142.7330 C   0  0  2  0  0  3  0  0  0  0  0  0
  191.2440  171.5670  140.3200 C   0  0  0  0  0  2  0  0  0  0  0  0
  192.5770  174.8090  141.9320 C   0  0  0  0  0  2  0  0  0  0  0  0
  188.0310  173.3960  141.2070 N   0  0  0  0  0  2  0  0  0  0  0  0
  189.7920  172.0530  140.2460 C   0  0  0  0  0  2  0  0  0  0  0  0
  190.2390  177.6490  144.7120 O   0  0  0  0  0  0  0  0  0  0  0  0
  190.3800  178.2280  143.4370 C   0  0  1  0  0  3  0  0  0  0  0  0
  189.4340  173.0430  141.3540 C   0  0  1  0  0  3  0  0  0  0  0  0
  191.6040  175.7120  142.5400 N   0  0  2  0  0  0  0  0  0  0  0  0
  187.8780  175.5870  142.2060 C   0  0  1  0  0  3  0  0  0  0  0  0
  191.5360  177.5850  144.1560 C   0  0  2  0  0  3  0  0  0  0  0  0
  191.8990  176.1070  143.9270 C   0  0  2  0  0  3  0  0  0  0  0  0
  187.5990  174.1060  142.3970 C   0  0  0  0  0  2  0  0  0  0  0  0
  185.9270  177.2530  141.9270 C   0  0  0  0  0  2  0  0  0  0  0  0
  186.7850  176.4040  142.8370 C   0  0  0  0  0  0  0  0  0  0  0  0
  186.6800  176.4790  144.1800 C   0  0  0  0  0  3  0  0  0  0  0  0
  186.0930  177.7950  146.0530 F   0  0  0  0  0  0  0  0  0  0  0  0
  185.1020  178.4170  143.9790 C   0  0  0  0  0  2  0  0  0  0  0  0
  185.6080  177.2850  144.8650 C   0  0  1  0  0  3  0  0  0  0  0  0
  184.7020  177.8390  142.6280 C   0  0  0  0  0  2  0  0  0  0  0  0
  193.3620  175.8910  144.3490 C   0  0  0  0  0  2  0  0  0  0  0  0
  193.5050  175.3900  145.7890 C   0  0  1  0  0  3  0  0  0  0  0  0
  194.7250  177.5550  146.0310 C   0  0  0  0  0  1  0  0  0  0  0  0
  193.9000  176.5050  146.7490 C   0  0  0  0  0  2  0  0  0  0  0  0
  192.2300  174.6910  146.2490 C   0  0  0  0  0  2  0  0  0  0  0  0
  191.6330  175.3780  147.4680 C   0  0  0  0  0  2  0  0  0  0  0  0
  190.1190  175.2990  147.4380 C   0  0  0  0  0  1  0  0  0  0  0  0
  192.0530  172.0660  142.5740 N   0  0  0  0  0  2  0  0  0  0  0  0
  193.2470  171.3320  143.0020 C   0  0  0  0  0  0  0  0  0  0  0  0
  192.9440  169.8510  143.1720 C   0  0  0  0  0  1  0  0  0  0  0  0
  194.2810  171.4980  142.0770 O   0  0  0  0  0  1  0  0  0  0  0  0
  193.6990  171.8780  144.3380 C   0  0  0  0  0  1  0  0  0  0  0  0
  1 13  1  0  0  0  0
  1  4  1  0  0  0  0
  2  6  1  0  0  0  0
  2 12  1  0  0  0  0
  3 33  1  0  0  0  0
  4 14  1  0  0  0  0
  4  6  1  0  0  0  0
  5  3  1  0  0  0  0
  5  1  1  0  0  0  0
  5  8  1  0  0  0  0
  7  3  1  0  0  0  0
  8 14  1  0  0  0  0
  9 13  1  0  0  0  0
  9 18  1  0  0  0  0
 10  7  1  0  0  0  0
 10 13  1  0  0  0  0
 12 16  1  0  0  0  0
 12 11  1  0  0  0  0
 14 17  1  0  0  0  0
 15 18  1  0  0  0  0
 15  6  1  0  0  0  0
 15 20  1  0  0  0  0
 16 11  1  0  0  0  0
 17 16  1  0  0  0  0
 17 26  1  0  0  0  0
 19 25  1  0  0  0  0
 19 20  1  0  0  0  0
 20 21  2  0  0  0  0
 21 24  1  0  0  0  0
 23 24  1  0  0  0  0
 24 22  1  0  0  0  0
 25 23  1  0  0  0  0
 26 27  1  0  0  0  0
 27 30  1  0  0  0  0
 27 29  1  0  0  0  0
 28 29  1  0  0  0  0
 30 31  1  0  0  0  0
 32 31  1  0  0  0  0
 33 34  1  0  0  0  0
 34 35  1  0  0  0  0
 34 37  1  0  0  0  0
 36 34  1  0  0  0  0
M  END
>  <MODEL>
2

>  <REMARK>
 VINA RESULT:      -7.0      0.720      1.603
  Name = 
  8 active torsions:
  status: ('A' for Active; 'I' for Inactive)
    1  A    between atoms: C_1  and  C_4
    2  A    between atoms: C_1  and  C_27
    3  A    between atoms: C_2  and  N_22
    4  A    between atoms: C_4  and  C_12
    5  A    between atoms: C_4  and  C_37
    6  A    between atoms: C_6  and  N_22
    7  A    between atoms: C_8  and  C_12
    8  A    between atoms: C_23  and  C_30
                            x       y       z     vdW  Elec       q    Type
                         _______ _______ _______ _____ _____    ______ ____

>  <TORSDO>
F 8

$$$$
=
 OpenBabel11112417283D

 37 42  0  0  1  0  0  0  0  0999 V2000
  191.5540  175.1110  145.0720 C   0  0  1  0  0  3  0  0  0  0  0  0
  188.5650  174.3950  143.6300 C   0  0  0  0  0  2  0  0  0  0  0  0
  194.1190  174.9650  144.7920 C   0  0  2  0  0  3  0  0  0  0  0  0
  190.8860  175.3950  143.7970 N   0  0  2  0  0  0  0  0  0  0  0  0
  192.7610  174.2410  144.7030 C   0  0  2  0  0  3  0  0  0  0  0  0
  189.4230  175.6390  143.9000 C   0  0  2  0  0  3  0  0  0  0  0  0
  194.3340  175.5530  146.1900 C   0  0  0  0  0  2  0  0  0  0  0  0
  192.4790  173.8200  143.2830 C   0  0  0  0  0  2  0  0  0  0  0  0
  190.8320  176.9980  146.5030 N   0  0  0  0  0  2  0  0  0  0  0  0
  193.0630  176.1320  146.8200 C   0  0  0  0  0  2  0  0  0  0  0  0
  188.5480  175.2180  141.3190 O   0  0  0  0  0  0  0  0  0  0  0  0
  188.3090  174.0980  142.1360 C   0  0  1  0  0  3  0  0  0  0  0  0
  191.9620  176.4160  145.7970 C   0  0  1  0  0  3  0  0  0  0  0  0
  191.1150  174.2520  142.9980 N   0  0  2  0  0  0  0  0  0  0  0  0
  188.9340  176.4250  145.1270 C   0  0  1  0  0  3  0  0  0  0  0  0
  189.4570  174.1470  141.1630 C   0  0  2  0  0  3  0  0  0  0  0  0
  190.8550  174.6220  141.5980 C   0  0  2  0  0  3  0  0  0  0  0  0
  189.8960  177.5300  145.5290 C   0  0  0  0  0  2  0  0  0  0  0  0
  187.3600  177.9160  143.7270 C   0  0  0  0  0  2  0  0  0  0  0  0
  187.5590  176.9920  144.9070 C   0  0  0  0  0  0  0  0  0  0  0  0
  186.5850  176.7910  145.8190 C   0  0  0  0  0  3  0  0  0  0  0  0
  184.6600  177.6490  146.8860 F   0  0  0  0  0  0  0  0  0  0  0  0
  185.1750  178.5670  144.7510 C   0  0  0  0  0  2  0  0  0  0  0  0
  185.1930  177.3380  145.6510 C   0  0  1  0  0  3  0  0  0  0  0  0
  185.8900  178.2310  143.4490 C   0  0  0  0  0  2  0  0  0  0  0  0
  191.8890  174.0790  140.5970 C   0  0  0  0  0  2  0  0  0  0  0  0
  191.3240  172.9930  139.6770 C   0  0  1  0  0  3  0  0  0  0  0  0
  190.2370  173.7500  137.5600 C   0  0  0  0  0  1  0  0  0  0  0  0
  191.5400  173.3190  138.2040 C   0  0  0  0  0  2  0  0  0  0  0  0
  191.9030  171.6280  140.0310 C   0  0  0  0  0  2  0  0  0  0  0  0
  190.8170  170.6740  140.5020 C   0  0  0  0  0  2  0  0  0  0  0  0
  190.6280  170.7770  142.0030 C   0  0  0  0  0  1  0  0  0  0  0  0
  194.2280  176.0320  143.7920 N   0  0  0  0  0  2  0  0  0  0  0  0
  195.4480  175.8840  142.9940 C   0  0  0  0  0  0  0  0  0  0  0  0
  196.5530  176.7910  143.5130 C   0  0  0  0  0  1  0  0  0  0  0  0
  195.8830  174.5560  143.0060 O   0  0  0  0  0  1  0  0  0  0  0  0
  195.1430  176.2800  141.5660 C   0  0  0  0  0  1  0  0  0  0  0  0
  1 13  1  0  0  0  0
  2  6  1  0  0  0  0
  3  7  1  0  0  0  0
  4  6  1  0  0  0  0
  4  1  1  0  0  0  0
  5  3  1  0  0  0  0
  5  1  1  0  0  0  0
  6 15  1  0  0  0  0
  7 10  1  0  0  0  0
  8  5  1  0  0  0  0
 11 12  1  0  0  0  0
 12  2  1  0  0  0  0
 13  9  1  0  0  0  0
 13 10  1  0  0  0  0
 14  8  1  0  0  0  0
 14  4  1  0  0  0  0
 15 18  1  0  0  0  0
 16 11  1  0  0  0  0
 16 17  1  0  0  0  0
 16 12  1  0  0  0  0
 17 14  1  0  0  0  0
 18  9  1  0  0  0  0
 19 20  1  0  0  0  0
 20 15  1  0  0  0  0
 20 21  2  0  0  0  0
 23 24  1  0  0  0  0
 24 21  1  0  0  0  0
 24 22  1  0  0  0  0
 25 19  1  0  0  0  0
 25 23  1  0  0  0  0
 26 17  1  0  0  0  0
 27 30  1  0  0  0  0
 27 26  1  0  0  0  0
 28 29  1  0  0  0  0
 29 27  1  0  0  0  0
 30 31  1  0  0  0  0
 31 32  1  0  0  0  0
 33  3  1  0  0  0  0
 34 36  1  0  0  0  0
 34 35  1  0  0  0  0
 34 33  1  0  0  0  0
 37 34  1  0  0  0  0
M  END
>  <MODEL>
3

>  <REMARK>
 VINA RESULT:      -6.9      2.040      5.269
  Name = 
  8 active torsions:
  status: ('A' for Active; 'I' for Inactive)
    1  A    between atoms: C_1  and  C_4
    2  A    between atoms: C_1  and  C_27
    3  A    between atoms: C_2  and  N_22
    4  A    between atoms: C_4  and  C_12
    5  A    between atoms: C_4  and  C_37
    6  A    between atoms: C_6  and  N_22
    7  A    between atoms: C_8  and  C_12
    8  A    between atoms: C_23  and  C_30
                            x       y       z     vdW  Elec       q    Type
                         _______ _______ _______ _____ _____    ______ ____

>  <TORSDO>
F 8

$$$$
=
 OpenBabel11112417283D

 37 42  0  0  1  0  0  0  0  0999 V2000
  189.9010  175.3590  142.2500 C   0  0  1  0  0  3  0  0  0  0  0  0
  189.6890  177.6390  144.7560 C   0  0  0  0  0  2  0  0  0  0  0  0
  191.2420  173.3490  141.3370 C   0  0  2  0  0  3  0  0  0  0  0  0
  189.8180  175.3350  143.7140 N   0  0  2  0  0  0  0  0  0  0  0  0
  191.2790  174.7750  141.9200 C   0  0  2  0  0  3  0  0  0  0  0  0
  188.9400  176.3780  144.3080 C   0  0  2  0  0  3  0  0  0  0  0  0
  190.3620  173.2920  140.0850 C   0  0  0  0  0  2  0  0  0  0  0  0
  192.0000  174.7860  143.2440 C   0  0  0  0  0  2  0  0  0  0  0  0
  187.5210  175.3410  141.5650 N   0  0  0  0  0  2  0  0  0  0  0  0
  189.1050  174.1650  140.1730 C   0  0  0  0  0  2  0  0  0  0  0  0
  189.8060  176.4940  146.9230 O   0  0  0  0  0  0  0  0  0  0  0  0
  190.3450  177.5410  146.1510 C   0  0  1  0  0  3  0  0  0  0  0  0
  188.7450  174.5560  141.6060 C   0  0  1  0  0  3  0  0  0  0  0  0
  191.1440  175.5310  144.1620 N   0  0  2  0  0  0  0  0  0  0  0  0
  187.6450  176.7110  143.5470 C   0  0  1  0  0  3  0  0  0  0  0  0
  191.1460  176.3170  146.5090 C   0  0  2  0  0  3  0  0  0  0  0  0
  191.2120  175.1010  145.5680 C   0  0  2  0  0  3  0  0  0  0  0  0
  187.0110  175.4830  142.9170 C   0  0  0  0  0  2  0  0  0  0  0  0
  186.2270  178.8080  144.0450 C   0  0  0  0  0  2  0  0  0  0  0  0
  186.6510  177.4100  144.4320 C   0  0  0  0  0  0  0  0  0  0  0  0
  186.2720  176.8550  145.6020 C   0  0  0  0  0  3  0  0  0  0  0  0
  185.5960  177.2090  147.8380 F   0  0  0  0  0  0  0  0  0  0  0  0
  185.2510  179.0230  146.3370 C   0  0  0  0  0  2  0  0  0  0  0  0
  185.2840  177.5120  146.5280 C   0  0  1  0  0  3  0  0  0  0  0  0
  185.0400  179.3240  144.8580 C   0  0  0  0  0  2  0  0  0  0  0  0
  192.4640  174.2790  145.9180 C   0  0  0  0  0  2  0  0  0  0  0  0
  193.7680  174.9510  145.4770 C   0  0  1  0  0  3  0  0  0  0  0  0
  194.5550  177.2890  145.8680 C   0  0  0  0  0  1  0  0  0  0  0  0
  194.2830  175.9430  146.5130 C   0  0  0  0  0  2  0  0  0  0  0  0
  194.8270  173.9080  145.1380 C   0  0  0  0  0  2  0  0  0  0  0  0
  196.0710  174.0850  145.9950 C   0  0  0  0  0  2  0  0  0  0  0  0
  196.8160  172.7720  146.1350 C   0  0  0  0  0  1  0  0  0  0  0  0
  190.7550  172.3760  142.3200 N   0  0  0  0  0  2  0  0  0  0  0  0
  191.6730  171.2400  142.4370 C   0  0  0  0  0  0  0  0  0  0  0  0
  191.0020  169.9490  141.9940 C   0  0  0  0  0  1  0  0  0  0  0  0
  192.8230  171.4590  141.6750 O   0  0  0  0  0  1  0  0  0  0  0  0
  192.0750  171.0890  143.8880 C   0  0  0  0  0  1  0  0  0  0  0  0
  1  4  1  0  0  0  0
  2 12  1  0  0  0  0
  3  5  1  0  0  0  0
  3 33  1  0  0  0  0
  4 14  1  0  0  0  0
  4  6  1  0  0  0  0
  5  1  1  0  0  0  0
  5  8  1  0  0  0  0
  6  2  1  0  0  0  0
  7 10  1  0  0  0  0
  7  3  1  0  0  0  0
  8 14  1  0  0  0  0
  9 13  1  0  0  0  0
  9 18  1  0  0  0  0
 10 13  1  0  0  0  0
 12 16  1  0  0  0  0
 12 11  1  0  0  0  0
 13  1  1  0  0  0  0
 14 17  1  0  0  0  0
 15  6  1  0  0  0  0
 15 20  1  0  0  0  0
 16 11  1  0  0  0  0
 17 26  1  0  0  0  0
 17 16  1  0  0  0  0
 18 15  1  0  0  0  0
 19 20  1  0  0  0  0
 19 25  1  0  0  0  0
 20 21  2  0  0  0  0
 21 24  1  0  0  0  0
 23 24  1  0  0  0  0
 24 22  1  0  0  0  0
 25 23  1  0  0  0  0
 27 26  1  0  0  0  0
 27 29  1  0  0  0  0
 28 29  1  0  0  0  0
 30 27  1  0  0  0  0
 30 31  1  0  0  0  0
 31 32  1  0  0  0  0
 33 34  1  0  0  0  0
 34 37  1  0  0  0  0
 35 34  1  0  0  0  0
 36 34  1  0  0  0  0
M  END
>  <MODEL>
4

>  <REMARK>
 VINA RESULT:      -6.8      1.516      2.005
  Name = 
  8 active torsions:
  status: ('A' for Active; 'I' for Inactive)
    1  A    between atoms: C_1  and  C_4
    2  A    between atoms: C_1  and  C_27
    3  A    between atoms: C_2  and  N_22
    4  A    between atoms: C_4  and  C_12
    5  A    between atoms: C_4  and  C_37
    6  A    between atoms: C_6  and  N_22
    7  A    between atoms: C_8  and  C_12
    8  A    between atoms: C_23  and  C_30
                            x       y       z     vdW  Elec       q    Type
                         _______ _______ _______ _____ _____    ______ ____

>  <TORSDO>
F 8

$$$$
=
 OpenBabel11112417283D

 37 42  0  0  1  0  0  0  0  0999 V2000
  191.4960  175.1360  144.9400 C   0  0  1  0  0  3  0  0  0  0  0  0
  188.5230  174.4560  143.4490 C   0  0  0  0  0  2  0  0  0  0  0  0
  194.0570  174.8440  144.7670 C   0  0  2  0  0  3  0  0  0  0  0  0
  190.8850  175.3520  143.6250 N   0  0  2  0  0  0  0  0  0  0  0  0
  192.6680  174.1830  144.6820 C   0  0  2  0  0  3  0  0  0  0  0  0
  189.4330  175.6740  143.6550 C   0  0  2  0  0  3  0  0  0  0  0  0
  194.2570  175.5270  146.1220 C   0  0  0  0  0  2  0  0  0  0  0  0
  192.4120  173.6670  143.2890 C   0  0  0  0  0  2  0  0  0  0  0  0
  190.8240  177.1610  146.1980 N   0  0  0  0  0  2  0  0  0  0  0  0
  192.9970  176.2150  146.6600 C   0  0  0  0  0  2  0  0  0  0  0  0
  188.6240  175.0980  141.0830 O   0  0  0  0  0  0  0  0  0  0  0  0
  188.3010  174.0570  141.9740 C   0  0  1  0  0  3  0  0  0  0  0  0
  191.9470  176.4710  145.5790 C   0  0  1  0  0  3  0  0  0  0  0  0
  191.0810  174.1410  142.9230 N   0  0  2  0  0  0  0  0  0  0  0  0
  188.9460  176.5760  144.8010 C   0  0  1  0  0  3  0  0  0  0  0  0
  189.4810  173.9750  141.0420 C   0  0  2  0  0  3  0  0  0  0  0  0
  190.8860  174.4150  141.4900 C   0  0  2  0  0  3  0  0  0  0  0  0
  189.9490  177.6610  145.1530 C   0  0  0  0  0  2  0  0  0  0  0  0
  186.4380  176.8050  145.3620 C   0  0  0  0  0  2  0  0  0  0  0  0
  187.6090  177.1900  144.4880 C   0  0  0  0  0  0  0  0  0  0  0  0
  187.4470  177.9390  143.3780 C   0  0  0  0  0  3  0  0  0  0  0  0
  185.9990  178.6230  141.6410 F   0  0  0  0  0  0  0  0  0  0  0  0
  184.9550  177.8220  143.6250 C   0  0  0  0  0  2  0  0  0  0  0  0
  186.1320  178.5740  143.0150 C   0  0  1  0  0  3  0  0  0  0  0  0
  185.1980  177.6670  145.1210 C   0  0  0  0  0  2  0  0  0  0  0  0
  191.9230  173.7470  140.5720 C   0  0  0  0  0  2  0  0  0  0  0  0
  191.2990  173.0820  139.3420 C   0  0  1  0  0  3  0  0  0  0  0  0
  192.7620  172.9090  137.3250 C   0  0  0  0  0  1  0  0  0  0  0  0
  191.7300  173.7550  138.0440 C   0  0  0  0  0  2  0  0  0  0  0  0
  191.6070  171.5890  139.3170 C   0  0  0  0  0  2  0  0  0  0  0  0
  190.3360  170.7650  139.1780 C   0  0  0  0  0  2  0  0  0  0  0  0
  190.5980  169.5080  138.3710 C   0  0  0  0  0  1  0  0  0  0  0  0
  194.2530  175.8250  143.6930 N   0  0  0  0  0  2  0  0  0  0  0  0
  195.5810  175.6850  143.0880 C   0  0  0  0  0  0  0  0  0  0  0  0
  195.5090  175.8340  141.5760 C   0  0  0  0  0  1  0  0  0  0  0  0
  196.4620  176.6330  143.6140 O   0  0  0  0  0  1  0  0  0  0  0  0
  196.1130  174.3030  143.4010 C   0  0  0  0  0  1  0  0  0  0  0  0
  1 13  1  0  0  0  0
  2  6  1  0  0  0  0
  3  7  1  0  0  0  0
  4  6  1  0  0  0  0
  4  1  1  0  0  0  0
  5  3  1  0  0  0  0
  5  1  1  0  0  0  0
  6 15  1  0  0  0  0
  7 10  1  0  0  0  0
  8  5  1  0  0  0  0
 11 12  1  0  0  0  0
 12  2  1  0  0  0  0
 13  9  1  0  0  0  0
 13 10  1  0  0  0  0
 14  8  1  0  0  0  0
 14  4  1  0  0  0  0
 15 18  1  0  0  0  0
 16 11  1  0  0  0  0
 16 17  1  0  0  0  0
 16 12  1  0  0  0  0
 17 14  1  0  0  0  0
 18  9  1  0  0  0  0
 20 15  1  0  0  0  0
 20 19  1  0  0  0  0
 21 20  2  0  0  0  0
 22 24  1  0  0  0  0
 23 25  1  0  0  0  0
 24 21  1  0  0  0  0
 24 23  1  0  0  0  0
 25 19  1  0  0  0  0
 26 17  1  0  0  0  0
 27 26  1  0  0  0  0
 28 29  1  0  0  0  0
 29 27  1  0  0  0  0
 30 27  1  0  0  0  0
 31 30  1  0  0  0  0
 32 31  1  0  0  0  0
 33  3  1  0  0  0  0
 34 37  1  0  0  0  0
 34 36  1  0  0  0  0
 34 33  1  0  0  0  0
 35 34  1  0  0  0  0
M  END
>  <MODEL>
5

>  <REMARK>
 VINA RESULT:      -6.4      2.309      5.536
  Name = 
  8 active torsions:
  status: ('A' for Active; 'I' for Inactive)
    1  A    between atoms: C_1  and  C_4
    2  A    between atoms: C_1  and  C_27
    3  A    between atoms: C_2  and  N_22
    4  A    between atoms: C_4  and  C_12
    5  A    between atoms: C_4  and  C_37
    6  A    between atoms: C_6  and  N_22
    7  A    between atoms: C_8  and  C_12
    8  A    between atoms: C_23  and  C_30
                            x       y       z     vdW  Elec       q    Type
                         _______ _______ _______ _____ _____    ______ ____

>  <TORSDO>
F 8

$$$$
=
 OpenBabel11112417283D

 37 42  0  0  1  0  0  0  0  0999 V2000
  190.8340  173.9350  142.4800 C   0  0  1  0  0  3  0  0  0  0  0  0
  193.3480  174.3250  144.7270 C   0  0  0  0  0  2  0  0  0  0  0  0
  188.3630  174.4880  141.9630 C   0  0  2  0  0  3  0  0  0  0  0  0
  191.5110  175.0540  143.1430 N   0  0  2  0  0  0  0  0  0  0  0  0
  189.3910  173.9830  142.9950 C   0  0  2  0  0  3  0  0  0  0  0  0
  192.9740  174.8690  143.3420 C   0  0  2  0  0  3  0  0  0  0  0  0
  188.4110  173.6440  140.6860 C   0  0  0  0  0  2  0  0  0  0  0  0
  189.4610  174.9220  144.1730 C   0  0  0  0  0  2  0  0  0  0  0  0
  192.2050  173.5880  140.4470 N   0  0  0  0  0  2  0  0  0  0  0  0
  189.8250  173.2160  140.2800 C   0  0  0  0  0  2  0  0  0  0  0  0
  193.5590  176.6960  145.3220 O   0  0  0  0  0  0  0  0  0  0  0  0
  193.4340  175.3930  145.8390 C   0  0  1  0  0  3  0  0  0  0  0  0
  190.9190  174.0570  140.9390 C   0  0  1  0  0  3  0  0  0  0  0  0
  190.8800  175.1750  144.4010 N   0  0  2  0  0  0  0  0  0  0  0  0
  193.7440  174.1630  142.2140 C   0  0  1  0  0  3  0  0  0  0  0  0
  192.3360  176.4150  145.9720 C   0  0  2  0  0  3  0  0  0  0  0  0
  191.1990  176.5070  144.9390 C   0  0  2  0  0  3  0  0  0  0  0  0
  193.2300  174.5400  140.8350 C   0  0  0  0  0  2  0  0  0  0  0  0
  196.1410  173.2430  142.4800 C   0  0  0  0  0  2  0  0  0  0  0  0
  195.2220  174.4300  142.3050 C   0  0  0  0  0  0  0  0  0  0  0  0
  195.6810  175.6970  142.3730 C   0  0  0  0  0  3  0  0  0  0  0  0
  197.3260  177.1670  143.2210 F   0  0  0  0  0  0  0  0  0  0  0  0
  197.9410  174.8710  143.0770 C   0  0  0  0  0  2  0  0  0  0  0  0
  197.1480  176.0210  142.4700 C   0  0  1  0  0  3  0  0  0  0  0  0
  197.6190  173.5960  142.3100 C   0  0  0  0  0  2  0  0  0  0  0  0
  190.0070  177.2300  145.5870 C   0  0  0  0  0  2  0  0  0  0  0  0
  189.8050  176.8600  147.0590 C   0  0  1  0  0  3  0  0  0  0  0  0
  191.0450  177.9030  148.9600 C   0  0  0  0  0  1  0  0  0  0  0  0
  189.9040  178.0730  147.9760 C   0  0  0  0  0  2  0  0  0  0  0  0
  188.4850  176.1230  147.2580 C   0  0  0  0  0  2  0  0  0  0  0  0
  187.3920  176.7020  146.3740 C   0  0  0  0  0  2  0  0  0  0  0  0
  186.3690  177.4490  147.2070 C   0  0  0  0  0  1  0  0  0  0  0  0
  188.5860  175.8970  141.6250 N   0  0  0  0  0  2  0  0  0  0  0  0
  187.3850  176.6970  141.8790 C   0  0  0  0  0  0  0  0  0  0  0  0
  186.7560  177.1660  140.5760 C   0  0  0  0  0  1  0  0  0  0  0  0
  186.4530  175.9600  142.6140 O   0  0  0  0  0  1  0  0  0  0  0  0
  187.7770  177.9190  142.6810 C   0  0  0  0  0  1  0  0  0  0  0  0
  1  5  1  0  0  0  0
  1  4  1  0  0  0  0
  2 12  1  0  0  0  0
  3  5  1  0  0  0  0
  4  6  1  0  0  0  0
  4 14  1  0  0  0  0
  5  8  1  0  0  0  0
  6  2  1  0  0  0  0
  7  3  1  0  0  0  0
  8 14  1  0  0  0  0
  9 18  1  0  0  0  0
  9 13  1  0  0  0  0
 10  7  1  0  0  0  0
 10 13  1  0  0  0  0
 11 12  1  0  0  0  0
 11 16  1  0  0  0  0
 12 16  1  0  0  0  0
 13  1  1  0  0  0  0
 14 17  1  0  0  0  0
 15 20  1  0  0  0  0
 15  6  1  0  0  0  0
 17 26  1  0  0  0  0
 17 16  1  0  0  0  0
 18 15  1  0  0  0  0
 20 21  2  0  0  0  0
 20 19  1  0  0  0  0
 21 24  1  0  0  0  0
 24 23  1  0  0  0  0
 24 22  1  0  0  0  0
 25 19  1  0  0  0  0
 25 23  1  0  0  0  0
 26 27  1  0  0  0  0
 27 30  1  0  0  0  0
 27 29  1  0  0  0  0
 29 28  1  0  0  0  0
 31 32  1  0  0  0  0
 31 30  1  0  0  0  0
 33 34  1  0  0  0  0
 33  3  1  0  0  0  0
 34 36  1  0  0  0  0
 34 37  1  0  0  0  0
 35 34  1  0  0  0  0
M  END
>  <MODEL>
6

>  <REMARK>
 VINA RESULT:      -6.3      2.998      6.975
  Name = 
  8 active torsions:
  status: ('A' for Active; 'I' for Inactive)
    1  A    between atoms: C_1  and  C_4
    2  A    between atoms: C_1  and  C_27
    3  A    between atoms: C_2  and  N_22
    4  A    between atoms: C_4  and  C_12
    5  A    between atoms: C_4  and  C_37
    6  A    between atoms: C_6  and  N_22
    7  A    between atoms: C_8  and  C_12
    8  A    between atoms: C_23  and  C_30
                            x       y       z     vdW  Elec       q    Type
                         _______ _______ _______ _____ _____    ______ ____

>  <TORSDO>
F 8

$$$$
=
 OpenBabel11112417283D

 37 42  0  0  1  0  0  0  0  0999 V2000
  192.8940  174.1930  145.2120 C   0  0  1  0  0  3  0  0  0  0  0  0
  189.7020  173.0980  144.8460 C   0  0  0  0  0  2  0  0  0  0  0  0
  195.3150  173.9610  144.3400 C   0  0  2  0  0  3  0  0  0  0  0  0
  191.9160  174.0940  144.1240 N   0  0  2  0  0  0  0  0  0  0  0  0
  194.0320  173.2480  144.8090 C   0  0  2  0  0  3  0  0  0  0  0  0
  190.5080  174.3630  144.5230 C   0  0  2  0  0  3  0  0  0  0  0  0
  195.8240  174.9310  145.4100 C   0  0  0  0  0  2  0  0  0  0  0  0
  193.4420  172.4320  143.6880 C   0  0  0  0  0  2  0  0  0  0  0  0
  192.4120  176.4180  146.1840 N   0  0  0  0  0  2  0  0  0  0  0  0
  194.7090  175.6740  146.1530 C   0  0  0  0  0  2  0  0  0  0  0  0
  189.0600  173.2100  142.4800 O   0  0  0  0  0  0  0  0  0  0  0  0
  189.1090  172.3780  143.6140 C   0  0  1  0  0  3  0  0  0  0  0  0
  193.3740  175.6510  145.4080 C   0  0  1  0  0  3  0  0  0  0  0  0
  192.0220  172.7660  143.6510 N   0  0  2  0  0  0  0  0  0  0  0  0
  190.2810  175.4750  145.5600 C   0  0  1  0  0  3  0  0  0  0  0  0
  189.9760  172.1360  142.4080 C   0  0  2  0  0  3  0  0  0  0  0  0
  191.4000  172.7120  142.3180 C   0  0  2  0  0  3  0  0  0  0  0  0
  191.2300  176.6460  145.3720 C   0  0  0  0  0  2  0  0  0  0  0  0
  188.3040  176.4820  144.2410 C   0  0  0  0  0  2  0  0  0  0  0  0
  188.8570  175.9580  145.5470 C   0  0  0  0  0  0  0  0  0  0  0  0
  188.1590  176.0500  146.6970 C   0  0  0  0  0  3  0  0  0  0  0  0
  186.5030  177.2050  147.9250 F   0  0  0  0  0  0  0  0  0  0  0  0
  186.4020  177.4280  145.5570 C   0  0  0  0  0  2  0  0  0  0  0  0
  186.7330  176.5300  146.7430 C   0  0  1  0  0  3  0  0  0  0  0  0
  186.7930  176.7070  144.2740 C   0  0  0  0  0  2  0  0  0  0  0  0
  192.1940  171.8970  141.2830 C   0  0  0  0  0  2  0  0  0  0  0  0
  191.3880  171.5810  140.0190 C   0  0  1  0  0  3  0  0  0  0  0  0
  190.1260  173.4140  138.8860 C   0  0  0  0  0  1  0  0  0  0  0  0
  191.4620  172.7050  138.9930 C   0  0  0  0  0  2  0  0  0  0  0  0
  191.8270  170.2520  139.4150 C   0  0  0  0  0  2  0  0  0  0  0  0
  191.3790  170.1290  137.9660 C   0  0  0  0  0  2  0  0  0  0  0  0
  190.0740  169.3640  137.8720 C   0  0  0  0  0  1  0  0  0  0  0  0
  195.1000  174.6900  143.0850 N   0  0  0  0  0  2  0  0  0  0  0  0
  196.1230  174.3460  142.0940 C   0  0  0  0  0  0  0  0  0  0  0  0
  197.0790  175.5080  141.8710 C   0  0  0  0  0  1  0  0  0  0  0  0
  196.8390  173.2170  142.5000 O   0  0  0  0  0  1  0  0  0  0  0  0
  195.4400  174.0390  140.7790 C   0  0  0  0  0  1  0  0  0  0  0  0
  1 13  1  0  0  0  0
  3  5  1  0  0  0  0
  3  7  1  0  0  0  0
  4  6  1  0  0  0  0
  4  1  1  0  0  0  0
  5  1  1  0  0  0  0
  6  2  1  0  0  0  0
  6 15  1  0  0  0  0
  7 10  1  0  0  0  0
  8  5  1  0  0  0  0
 11 12  1  0  0  0  0
 12  2  1  0  0  0  0
 13 10  1  0  0  0  0
 13  9  1  0  0  0  0
 14  8  1  0  0  0  0
 14  4  1  0  0  0  0
 16 11  1  0  0  0  0
 16 12  1  0  0  0  0
 17 16  1  0  0  0  0
 17 14  1  0  0  0  0
 18 15  1  0  0  0  0
 18  9  1  0  0  0  0
 19 25  1  0  0  0  0
 19 20  1  0  0  0  0
 20 15  1  0  0  0  0
 20 21  2  0  0  0  0
 21 24  1  0  0  0  0
 23 24  1  0  0  0  0
 24 22  1  0  0  0  0
 25 23  1  0  0  0  0
 26 17  1  0  0  0  0
 27 26  1  0  0  0  0
 28 29  1  0  0  0  0
 29 27  1  0  0  0  0
 30 27  1  0  0  0  0
 31 30  1  0  0  0  0
 32 31  1  0  0  0  0
 33  3  1  0  0  0  0
 34 36  1  0  0  0  0
 34 33  1  0  0  0  0
 35 34  1  0  0  0  0
 37 34  1  0  0  0  0
M  END
>  <MODEL>
7

>  <REMARK>
 VINA RESULT:      -6.2      2.424      5.787
  Name = 
  8 active torsions:
  status: ('A' for Active; 'I' for Inactive)
    1  A    between atoms: C_1  and  C_4
    2  A    between atoms: C_1  and  C_27
    3  A    between atoms: C_2  and  N_22
    4  A    between atoms: C_4  and  C_12
    5  A    between atoms: C_4  and  C_37
    6  A    between atoms: C_6  and  N_22
    7  A    between atoms: C_8  and  C_12
    8  A    between atoms: C_23  and  C_30
                            x       y       z     vdW  Elec       q    Type
                         _______ _______ _______ _____ _____    ______ ____

>  <TORSDO>
F 8

$$$$
=
 OpenBabel11112417283D

 37 42  0  0  1  0  0  0  0  0999 V2000
  192.1700  174.9170  144.9820 C   0  0  1  0  0  3  0  0  0  0  0  0
  189.1570  174.1570  143.6150 C   0  0  0  0  0  2  0  0  0  0  0  0
  194.6750  174.2880  145.0470 C   0  0  2  0  0  3  0  0  0  0  0  0
  191.6120  174.7790  143.6330 N   0  0  2  0  0  0  0  0  0  0  0  0
  193.2130  173.8010  145.0960 C   0  0  2  0  0  3  0  0  0  0  0  0
  190.2130  175.2620  143.4830 C   0  0  2  0  0  3  0  0  0  0  0  0
  194.9400  175.3340  146.1330 C   0  0  0  0  0  2  0  0  0  0  0  0
  192.9140  172.9070  143.9190 C   0  0  0  0  0  2  0  0  0  0  0  0
  191.7450  177.2990  145.5110 N   0  0  0  0  0  2  0  0  0  0  0  0
  193.7710  176.2980  146.3620 C   0  0  0  0  0  2  0  0  0  0  0  0
  189.3740  174.0060  141.1760 O   0  0  0  0  0  0  0  0  0  0  0  0
  188.9080  173.3430  142.3270 C   0  0  1  0  0  3  0  0  0  0  0  0
  192.7780  176.3240  145.1990 C   0  0  1  0  0  3  0  0  0  0  0  0
  191.6610  173.3950  143.3530 N   0  0  2  0  0  0  0  0  0  0  0  0
  189.8280  176.5290  144.2650 C   0  0  1  0  0  3  0  0  0  0  0  0
  190.0810  172.8350  141.5310 C   0  0  2  0  0  3  0  0  0  0  0  0
  191.5240  173.2250  141.8970 C   0  0  2  0  0  3  0  0  0  0  0  0
  190.9570  177.5440  144.3170 C   0  0  0  0  0  2  0  0  0  0  0  0
  188.5330  177.4130  142.2150 C   0  0  0  0  0  2  0  0  0  0  0  0
  188.5860  177.1650  143.7050 C   0  0  0  0  0  0  0  0  0  0  0  0
  187.6250  177.6260  144.5320 C   0  0  0  0  0  3  0  0  0  0  0  0
  185.9480  179.2460  144.9160 F   0  0  0  0  0  0  0  0  0  0  0  0
  186.5590  178.8850  142.6440 C   0  0  0  0  0  2  0  0  0  0  0  0
  186.3650  178.2750  144.0270 C   0  0  1  0  0  3  0  0  0  0  0  0
  187.1460  177.8250  141.7210 C   0  0  0  0  0  2  0  0  0  0  0  0
  192.4810  172.1850  141.2890 C   0  0  0  0  0  2  0  0  0  0  0  0
  193.1100  172.6450  139.9710 C   0  0  1  0  0  3  0  0  0  0  0  0
  191.9370  170.6050  139.1340 C   0  0  0  0  0  1  0  0  0  0  0  0
  192.4650  171.9770  138.7620 C   0  0  0  0  0  2  0  0  0  0  0  0
  193.0670  174.1640  139.8500 C   0  0  0  0  0  2  0  0  0  0  0  0
  193.4580  174.6180  138.4520 C   0  0  0  0  0  2  0  0  0  0  0  0
  194.9540  174.8480  138.3630 C   0  0  0  0  0  1  0  0  0  0  0  0
  195.0110  174.8510  143.7350 N   0  0  0  0  0  2  0  0  0  0  0  0
  196.3120  174.3620  143.2690 C   0  0  0  0  0  0  0  0  0  0  0  0
  197.3500  175.4730  143.2850 C   0  0  0  0  0  1  0  0  0  0  0  0
  196.7470  173.2970  144.0610 O   0  0  0  0  0  1  0  0  0  0  0  0
  196.1640  173.8750  141.8430 C   0  0  0  0  0  1  0  0  0  0  0  0
  1  5  1  0  0  0  0
  1 13  1  0  0  0  0
  3  5  1  0  0  0  0
  3  7  1  0  0  0  0
  4  1  1  0  0  0  0
  6  2  1  0  0  0  0
  6  4  1  0  0  0  0
  6 15  1  0  0  0  0
  7 10  1  0  0  0  0
  8  5  1  0  0  0  0
 11 16  1  0  0  0  0
 11 12  1  0  0  0  0
 12  2  1  0  0  0  0
 13  9  1  0  0  0  0
 13 10  1  0  0  0  0
 14  4  1  0  0  0  0
 14  8  1  0  0  0  0
 15 18  1  0  0  0  0
 16 17  1  0  0  0  0
 16 12  1  0  0  0  0
 17 14  1  0  0  0  0
 18  9  1  0  0  0  0
 19 20  1  0  0  0  0
 20 15  1  0  0  0  0
 20 21  2  0  0  0  0
 23 24  1  0  0  0  0
 24 21  1  0  0  0  0
 24 22  1  0  0  0  0
 25 19  1  0  0  0  0
 25 23  1  0  0  0  0
 26 17  1  0  0  0  0
 27 26  1  0  0  0  0
 29 28  1  0  0  0  0
 29 27  1  0  0  0  0
 30 27  1  0  0  0  0
 31 30  1  0  0  0  0
 32 31  1  0  0  0  0
 33  3  1  0  0  0  0
 34 35  1  0  0  0  0
 34 33  1  0  0  0  0
 34 36  1  0  0  0  0
 37 34  1  0  0  0  0
M  END
>  <MODEL>
8

>  <REMARK>
 VINA RESULT:      -6.2      2.200      5.201
  Name = 
  8 active torsions:
  status: ('A' for Active; 'I' for Inactive)
    1  A    between atoms: C_1  and  C_4
    2  A    between atoms: C_1  and  C_27
    3  A    between atoms: C_2  and  N_22
    4  A    between atoms: C_4  and  C_12
    5  A    between atoms: C_4  and  C_37
    6  A    between atoms: C_6  and  N_22
    7  A    between atoms: C_8  and  C_12
    8  A    between atoms: C_23  and  C_30
                            x       y       z     vdW  Elec       q    Type
                         _______ _______ _______ _____ _____    ______ ____

>  <TORSDO>
F 8

$$$$
=
 OpenBabel11112417283D

 37 42  0  0  1  0  0  0  0  0999 V2000
  190.2100  174.4110  141.2060 C   0  0  1  0  0  3  0  0  0  0  0  0
  190.7840  177.1680  143.1020 C   0  0  0  0  0  2  0  0  0  0  0  0
  191.2760  172.2800  140.2070 C   0  0  2  0  0  3  0  0  0  0  0  0
  190.7280  174.6980  142.5470 N   0  0  2  0  0  0  0  0  0  0  0  0
  191.3920  173.7980  140.4460 C   0  0  2  0  0  3  0  0  0  0  0  0
  190.0570  175.8250  143.2490 C   0  0  2  0  0  3  0  0  0  0  0  0
  189.9770  171.9400  139.4700 C   0  0  0  0  0  2  0  0  0  0  0  0
  192.5800  174.1060  141.3220 C   0  0  0  0  0  2  0  0  0  0  0  0
  187.7730  174.1990  141.5910 N   0  0  0  0  0  2  0  0  0  0  0  0
  188.7770  172.7860  139.9100 C   0  0  0  0  0  2  0  0  0  0  0  0
  191.8860  176.5130  145.1930 O   0  0  0  0  0  0  0  0  0  0  0  0
  191.9530  177.3820  144.0880 C   0  0  1  0  0  3  0  0  0  0  0  0
  188.9860  173.4660  141.2630 C   0  0  1  0  0  3  0  0  0  0  0  0
  192.0930  175.0110  142.3580 N   0  0  2  0  0  0  0  0  0  0  0  0
  188.5380  175.9620  143.0490 C   0  0  1  0  0  3  0  0  0  0  0  0
  192.9560  176.2800  144.3000 C   0  0  2  0  0  3  0  0  0  0  0  0
  192.7670  174.8930  143.6600 C   0  0  2  0  0  3  0  0  0  0  0  0
  187.8390  174.6150  142.9800 C   0  0  0  0  0  2  0  0  0  0  0  0
  188.1720  176.4280  145.5610 C   0  0  0  0  0  2  0  0  0  0  0  0
  187.9160  176.8130  144.1210 C   0  0  0  0  0  0  0  0  0  0  0  0
  187.0470  177.7910  143.7950 C   0  0  0  0  0  3  0  0  0  0  0  0
  185.1250  179.0210  144.4070 F   0  0  0  0  0  0  0  0  0  0  0  0
  186.3200  177.9860  146.1860 C   0  0  0  0  0  2  0  0  0  0  0  0
  186.3920  178.6700  144.8270 C   0  0  1  0  0  3  0  0  0  0  0  0
  187.7110  177.4900  146.5590 C   0  0  0  0  0  2  0  0  0  0  0  0
  194.1340  174.1900  143.6030 C   0  0  0  0  0  2  0  0  0  0  0  0
  194.9070  174.2680  144.9230 C   0  0  1  0  0  3  0  0  0  0  0  0
  196.6030  172.6430  145.7710 C   0  0  0  0  0  1  0  0  0  0  0  0
  195.1250  172.8930  145.5440 C   0  0  0  0  0  2  0  0  0  0  0  0
  196.2290  175.0050  144.7350 C   0  0  0  0  0  2  0  0  0  0  0  0
  196.4620  175.3570  143.2740 C   0  0  0  0  0  2  0  0  0  0  0  0
  196.9330  176.7910  143.1380 C   0  0  0  0  0  1  0  0  0  0  0  0
  191.3330  171.5300  141.4660 N   0  0  0  0  0  2  0  0  0  0  0  0
  192.3620  170.4880  141.4110 C   0  0  0  0  0  0  0  0  0  0  0  0
  191.7340  169.1030  141.3650 C   0  0  0  0  0  1  0  0  0  0  0  0
  193.1860  170.6690  140.2970 O   0  0  0  0  0  1  0  0  0  0  0  0
  193.2120  170.5800  142.6600 C   0  0  0  0  0  1  0  0  0  0  0  0
  1 13  1  0  0  0  0
  1  4  1  0  0  0  0
  2  6  1  0  0  0  0
  2 12  1  0  0  0  0
  3  5  1  0  0  0  0
  3 33  1  0  0  0  0
  4  6  1  0  0  0  0
  5  1  1  0  0  0  0
  5  8  1  0  0  0  0
  7 10  1  0  0  0  0
  7  3  1  0  0  0  0
  8 14  1  0  0  0  0
  9 18  1  0  0  0  0
 10 13  1  0  0  0  0
 12 16  1  0  0  0  0
 12 11  1  0  0  0  0
 13  9  1  0  0  0  0
 14  4  1  0  0  0  0
 14 17  1  0  0  0  0
 15  6  1  0  0  0  0
 15 20  1  0  0  0  0
 16 11  1  0  0  0  0
 17 16  1  0  0  0  0
 18 15  1  0  0  0  0
 19 25  1  0  0  0  0
 20 19  1  0  0  0  0
 21 20  2  0  0  0  0
 21 24  1  0  0  0  0
 22 24  1  0  0  0  0
 23 25  1  0  0  0  0
 24 23  1  0  0  0  0
 26 17  1  0  0  0  0
 26 27  1  0  0  0  0
 27 29  1  0  0  0  0
 29 28  1  0  0  0  0
 30 27  1  0  0  0  0
 31 30  1  0  0  0  0
 32 31  1  0  0  0  0
 34 33  1  0  0  0  0
 34 37  1  0  0  0  0
 35 34  1  0  0  0  0
 36 34  1  0  0  0  0
M  END
>  <MODEL>
9

>  <REMARK>
 VINA RESULT:      -6.0      1.604      2.402
  Name = 
  8 active torsions:
  status: ('A' for Active; 'I' for Inactive)
    1  A    between atoms: C_1  and  C_4
    2  A    between atoms: C_1  and  C_27
    3  A    between atoms: C_2  and  N_22
    4  A    between atoms: C_4  and  C_12
    5  A    between atoms: C_4  and  C_37
    6  A    between atoms: C_6  and  N_22
    7  A    between atoms: C_8  and  C_12
    8  A    between atoms: C_23  and  C_30
                            x       y       z     vdW  Elec       q    Type
                         _______ _______ _______ _____ _____    ______ ____

>  <TORSDO>
F 8

$$$$
