=
 OpenBabel11112416153D

 30 36  0  0  1  0  0  0  0  0999 V2000
  186.7820  176.6170  144.4350 C   0  0  1  0  0  3  0  0  0  0  0  0
  185.2860  177.9650  145.9860 C   0  0  0  0  0  0  0  0  0  0  0  0
  189.6760  175.9840  147.4690 N   0  0  0  0  0  2  0  0  0  0  0  0
  187.8080  175.4600  144.3120 C   0  0  1  0  0  3  0  0  0  0  0  0
  185.7710  176.4730  143.4720 O   0  0  0  0  0  0  0  0  0  0  0  0
  187.9750  175.9620  140.6510 O   0  0  0  0  0  1  0  0  0  0  0  0
  190.6440  175.4750  142.8000 C   0  0  1  0  0  3  0  0  0  0  0  0
  187.8000  176.3240  141.9910 C   0  0  1  0  0  3  0  0  0  0  0  0
  191.2150  175.4690  144.2230 C   0  0  2  0  0  3  0  0  0  0  0  0
  190.6860  175.3730  146.6780 C   0  0  0  0  0  0  0  0  0  0  0  0
  186.3310  176.7690  142.1960 C   0  0  2  0  0  3  0  0  0  0  0  0
  188.1150  175.1910  142.8780 N   0  0  1  0  0  0  0  0  0  0  0  0
  185.5490  179.0810  146.9070 C   0  0  0  0  0  3  0  0  0  0  0  0
  192.4340  174.5750  144.1670 C   0  0  0  0  0  2  0  0  0  0  0  0
  191.7800  175.0450  141.8850 C   0  0  0  0  0  2  0  0  0  0  0  0
  184.2160  177.9560  145.3240 O   0  0  0  0  0  0  0  0  0  0  0  0
  188.4810  175.8760  146.6570 C   0  0  2  0  0  3  0  0  0  0  0  0
  186.6390  179.0930  147.6710 C   0  0  0  0  0  3  0  0  0  0  0  0
  186.2530  176.8090  145.8740 C   0  0  2  0  0  3  0  0  0  0  0  0
  188.9740  175.8640  145.2210 C   0  0  1  0  0  3  0  0  0  0  0  0
  191.8370  175.1310  147.1270 O   0  0  0  0  0  0  0  0  0  0  0  0
  190.2290  175.0170  145.2960 C   0  0  1  0  0  3  0  0  0  0  0  0
  192.9790  174.7560  142.7700 C   0  0  0  0  0  2  0  0  0  0  0  0
  189.5210  173.1350  143.0480 C   0  0  0  0  0  1  0  0  0  0  0  0
  187.6210  177.9980  147.6170 C   0  0  0  0  0  3  0  0  0  0  0  0
  187.4470  176.9440  146.8110 C   0  0  0  0  0  0  0  0  0  0  0  0
  189.4140  174.5750  142.5550 C   0  0  2  0  0  3  0  0  0  0  0  0
  186.0800  178.2040  141.7070 C   0  0  2  0  0  3  0  0  0  0  0  0
  184.7320  178.3700  141.1160 C   0  0  0  0  0  2  0  0  0  0  0  0
  185.8810  178.2330  140.3130 O   0  0  0  0  0  0  0  0  0  0  0  0
  1  5  1  6  0  0  0
  1 19  1  0  0  0  0
  2 13  1  0  0  0  0
  4  1  1  0  0  0  0
  4 20  1  0  0  0  0
  6  8  1  0  0  0  0
  7  9  1  0  0  0  0
  8 11  1  0  0  0  0
  8 12  1  0  0  0  0
  9 22  1  0  0  0  0
 10 21  2  0  0  0  0
 10  3  1  0  0  0  0
 11  5  1  0  0  0  0
 12  4  1  0  0  0  0
 13 18  2  0  0  0  0
 14  9  1  0  0  0  0
 15 23  1  0  0  0  0
 15  7  1  0  0  0  0
 16  2  2  0  0  0  0
 17 26  1  0  0  0  0
 17  3  1  0  0  0  0
 19  2  1  0  0  0  0
 19 26  1  0  0  0  0
 20 22  1  0  0  0  0
 20 17  1  0  0  0  0
 22 10  1  0  0  0  0
 23 14  1  0  0  0  0
 25 18  1  0  0  0  0
 26 25  2  0  0  0  0
 27  7  1  0  0  0  0
 27 12  1  0  0  0  0
 27 24  1  0  0  0  0
 28 11  1  0  0  0  0
 29 28  1  0  0  0  0
 30 29  1  0  0  0  0
 30 28  1  0  0  0  0
M  END
>  <MODEL>
1

>  <REMARK>
 VINA RESULT:      -8.3      0.000      0.000
  Name = 
  1 active torsions:
  status: ('A' for Active; 'I' for Inactive)
    1  A    between atoms: C_11  and  C_28
                            x       y       z     vdW  Elec       q    Type
                         _______ _______ _______ _____ _____    ______ ____

>  <TORSDO>
F 1

$$$$
=
 OpenBabel11112416153D

 30 36  0  0  1  0  0  0  0  0999 V2000
  187.4140  177.4480  144.5020 C   0  0  1  0  0  3  0  0  0  0  0  0
  185.5240  179.0530  143.9410 C   0  0  0  0  0  0  0  0  0  0  0  0
  187.6290  176.0120  140.5180 N   0  0  0  0  0  2  0  0  0  0  0  0
  188.6900  176.7280  143.9960 C   0  0  1  0  0  3  0  0  0  0  0  0
  187.6630  178.0650  145.7380 O   0  0  0  0  0  0  0  0  0  0  0  0
  189.1740  175.1870  147.3230 O   0  0  0  0  0  1  0  0  0  0  0  0
  189.4460  173.6150  144.2530 C   0  0  1  0  0  3  0  0  0  0  0  0
  188.4590  175.7340  146.2520 C   0  0  1  0  0  3  0  0  0  0  0  0
  189.1630  173.5930  142.7460 C   0  0  2  0  0  3  0  0  0  0  0  0
  188.5530  174.9520  140.7220 C   0  0  0  0  0  0  0  0  0  0  0  0
  187.7830  177.0440  146.7240 C   0  0  2  0  0  3  0  0  0  0  0  0
  189.3570  176.0080  145.1180 N   0  0  1  0  0  0  0  0  0  0  0  0
  184.2550  178.8880  143.2170 C   0  0  0  0  0  3  0  0  0  0  0  0
  190.1970  172.6610  142.1520 C   0  0  0  0  0  2  0  0  0  0  0  0
  190.2450  172.3560  144.5530 C   0  0  0  0  0  2  0  0  0  0  0  0
  185.5580  179.7980  144.9540 O   0  0  0  0  0  0  0  0  0  0  0  0
  187.7800  176.8410  141.6970 C   0  0  2  0  0  3  0  0  0  0  0  0
  184.1930  178.1590  142.1040 C   0  0  0  0  0  3  0  0  0  0  0  0
  186.7890  178.3900  143.4480 C   0  0  2  0  0  3  0  0  0  0  0  0
  188.2270  175.8940  142.7960 C   0  0  1  0  0  3  0  0  0  0  0  0
  188.8240  174.1140  139.8220 O   0  0  0  0  0  0  0  0  0  0  0  0
  189.1870  174.9650  142.0790 C   0  0  1  0  0  3  0  0  0  0  0  0
  190.4570  171.6380  143.2330 C   0  0  0  0  0  2  0  0  0  0  0  0
  191.4700  175.2420  144.0310 C   0  0  0  0  0  1  0  0  0  0  0  0
  185.3870  177.4890  141.5650 C   0  0  0  0  0  3  0  0  0  0  0  0
  186.5790  177.6000  142.1620 C   0  0  0  0  0  0  0  0  0  0  0  0
  190.2050  174.8480  144.7860 C   0  0  2  0  0  3  0  0  0  0  0  0
  186.5010  176.7840  147.5320 C   0  0  2  0  0  3  0  0  0  0  0  0
  185.2850  176.8170  146.6850 C   0  0  0  0  0  2  0  0  0  0  0  0
  185.6500  177.9060  147.5000 O   0  0  0  0  0  0  0  0  0  0  0  0
  1  5  1  1  0  0  0
  2 16  2  0  0  0  0
  3 10  1  0  0  0  0
  3 17  1  0  0  0  0
  4  1  1  0  0  0  0
  4 12  1  0  0  0  0
  5 11  1  0  0  0  0
  7 15  1  0  0  0  0
  7 27  1  0  0  0  0
  8 11  1  0  0  0  0
  8  6  1  0  0  0  0
  9  7  1  0  0  0  0
 10 22  1  0  0  0  0
 11 28  1  0  0  0  0
 12  8  1  0  0  0  0
 13  2  1  0  0  0  0
 14  9  1  0  0  0  0
 14 23  1  0  0  0  0
 17 26  1  0  0  0  0
 17 20  1  0  0  0  0
 18 13  2  0  0  0  0
 19  2  1  0  0  0  0
 19  1  1  0  0  0  0
 20  4  1  0  0  0  0
 21 10  2  0  0  0  0
 22  9  1  0  0  0  0
 22 20  1  0  0  0  0
 23 15  1  0  0  0  0
 24 27  1  0  0  0  0
 25 18  1  0  0  0  0
 25 26  2  0  0  0  0
 26 19  1  0  0  0  0
 27 12  1  0  0  0  0
 29 30  1  0  0  0  0
 29 28  1  0  0  0  0
 30 28  1  0  0  0  0
M  END
>  <MODEL>
2

>  <REMARK>
 VINA RESULT:      -8.1      1.887      4.643
  Name = 
  1 active torsions:
  status: ('A' for Active; 'I' for Inactive)
    1  A    between atoms: C_11  and  C_28
                            x       y       z     vdW  Elec       q    Type
                         _______ _______ _______ _____ _____    ______ ____

>  <TORSDO>
F 1

$$$$
=
 OpenBabel11112416153D

 30 36  0  0  1  0  0  0  0  0999 V2000
  191.6090  174.6170  142.6440 C   0  0  1  0  0  3  0  0  0  0  0  0
  193.7760  173.4490  143.2750 C   0  0  0  0  0  0  0  0  0  0  0  0
  191.3560  176.5840  146.3920 N   0  0  0  0  0  2  0  0  0  0  0  0
  190.7270  175.8820  142.8080 C   0  0  1  0  0  3  0  0  0  0  0  0
  191.7530  174.3000  141.2840 O   0  0  0  0  0  0  0  0  0  0  0  0
  188.2390  174.4880  140.4540 O   0  0  0  0  0  1  0  0  0  0  0  0
  187.5880  176.0410  143.4770 C   0  0  1  0  0  3  0  0  0  0  0  0
  189.2460  174.4600  141.4240 C   0  0  1  0  0  3  0  0  0  0  0  0
  188.0740  176.5310  144.8460 C   0  0  2  0  0  3  0  0  0  0  0  0
  190.0640  177.1570  146.2470 C   0  0  0  0  0  0  0  0  0  0  0  0
  190.5060  173.8000  140.8130 C   0  0  2  0  0  3  0  0  0  0  0  0
  189.5610  175.8240  141.8820 N   0  0  1  0  0  0  0  0  0  0  0  0
  194.1920  172.6880  144.4630 C   0  0  0  0  0  3  0  0  0  0  0  0
  187.0930  177.6050  145.2630 C   0  0  0  0  0  2  0  0  0  0  0  0
  186.1220  176.4350  143.3800 C   0  0  0  0  0  2  0  0  0  0  0  0
  194.1630  173.0710  142.1390 O   0  0  0  0  0  0  0  0  0  0  0  0
  191.7390  176.2350  145.0390 C   0  0  2  0  0  3  0  0  0  0  0  0
  193.8560  173.0930  145.6860 C   0  0  0  0  0  3  0  0  0  0  0  0
  192.9470  174.7050  143.4120 C   0  0  2  0  0  3  0  0  0  0  0  0
  190.4340  175.9710  144.3100 C   0  0  1  0  0  3  0  0  0  0  0  0
  189.4730  177.7320  147.1980 O   0  0  0  0  0  0  0  0  0  0  0  0
  189.5120  177.0410  144.8590 C   0  0  1  0  0  3  0  0  0  0  0  0
  185.7760  177.1790  144.6570 C   0  0  0  0  0  2  0  0  0  0  0  0
  188.5630  178.0910  142.1950 C   0  0  0  0  0  1  0  0  0  0  0  0
  193.0540  174.3090  145.8930 C   0  0  0  0  0  3  0  0  0  0  0  0
  192.6460  175.0600  144.8620 C   0  0  0  0  0  0  0  0  0  0  0  0
  188.3500  176.5810  142.2480 C   0  0  2  0  0  3  0  0  0  0  0  0
  190.4060  172.2660  140.7790 C   0  0  2  0  0  3  0  0  0  0  0  0
  191.1220  171.6800  139.6220 C   0  0  0  0  0  2  0  0  0  0  0  0
  189.7220  171.8320  139.6260 O   0  0  0  0  0  0  0  0  0  0  0  0
  1  5  1  6  0  0  0
  1  4  1  0  0  0  0
  1 19  1  0  0  0  0
  2 19  1  0  0  0  0
  2 13  1  0  0  0  0
  4 20  1  0  0  0  0
  6  8  1  0  0  0  0
  7  9  1  0  0  0  0
  8 12  1  0  0  0  0
  9 22  1  0  0  0  0
  9 14  1  0  0  0  0
 10  3  1  0  0  0  0
 10 21  2  0  0  0  0
 11  5  1  0  0  0  0
 11  8  1  0  0  0  0
 12 27  1  0  0  0  0
 12  4  1  0  0  0  0
 13 18  2  0  0  0  0
 15  7  1  0  0  0  0
 15 23  1  0  0  0  0
 16  2  2  0  0  0  0
 17  3  1  0  0  0  0
 18 25  1  0  0  0  0
 19 26  1  0  0  0  0
 20 22  1  0  0  0  0
 20 17  1  0  0  0  0
 22 10  1  0  0  0  0
 23 14  1  0  0  0  0
 24 27  1  0  0  0  0
 26 17  1  0  0  0  0
 26 25  2  0  0  0  0
 27  7  1  0  0  0  0
 28 11  1  0  0  0  0
 29 30  1  0  0  0  0
 29 28  1  0  0  0  0
 30 28  1  0  0  0  0
M  END
>  <MODEL>
3

>  <REMARK>
 VINA RESULT:      -7.9      2.345      6.160
  Name = 
  1 active torsions:
  status: ('A' for Active; 'I' for Inactive)
    1  A    between atoms: C_11  and  C_28
                            x       y       z     vdW  Elec       q    Type
                         _______ _______ _______ _____ _____    ______ ____

>  <TORSDO>
F 1

$$$$
=
 OpenBabel11112416153D

 30 36  0  0  1  0  0  0  0  0999 V2000
  186.8730  176.4540  143.8430 C   0  0  1  0  0  3  0  0  0  0  0  0
  185.0670  178.0190  144.7100 C   0  0  0  0  0  0  0  0  0  0  0  0
  188.7920  176.2720  147.6200 N   0  0  0  0  0  2  0  0  0  0  0  0
  187.8430  175.2900  144.1750 C   0  0  1  0  0  3  0  0  0  0  0  0
  186.1610  176.1700  142.6680 O   0  0  0  0  0  0  0  0  0  0  0  0
  189.0310  175.2430  140.6730 O   0  0  0  0  0  1  0  0  0  0  0  0
  190.9830  175.0760  143.5260 C   0  0  1  0  0  3  0  0  0  0  0  0
  188.5100  175.8000  141.8460 C   0  0  1  0  0  3  0  0  0  0  0  0
  191.1400  175.2800  145.0370 C   0  0  2  0  0  3  0  0  0  0  0  0
  189.9540  175.5490  147.2360 C   0  0  0  0  0  0  0  0  0  0  0  0
  187.0610  176.2730  141.5700 C   0  0  2  0  0  3  0  0  0  0  0  0
  188.5200  174.8110  142.9370 N   0  0  1  0  0  0  0  0  0  0  0  0
  185.1140  179.2580  145.5000 C   0  0  0  0  0  3  0  0  0  0  0  0
  192.2890  174.3850  145.4500 C   0  0  0  0  0  2  0  0  0  0  0  0
  192.3070  174.5140  143.0330 C   0  0  0  0  0  2  0  0  0  0  0  0
  184.2210  177.9140  143.7840 O   0  0  0  0  0  0  0  0  0  0  0  0
  187.8630  176.0480  146.5310 C   0  0  2  0  0  3  0  0  0  0  0  0
  185.9520  179.3820  146.5270 C   0  0  0  0  0  3  0  0  0  0  0  0
  185.9780  176.8570  145.0360 C   0  0  2  0  0  3  0  0  0  0  0  0
  188.7300  175.8220  145.3060 C   0  0  1  0  0  3  0  0  0  0  0  0
  190.9260  175.3750  148.0170 O   0  0  0  0  0  0  0  0  0  0  0  0
  189.8790  174.9930  145.8470 C   0  0  1  0  0  3  0  0  0  0  0  0
  193.2030  174.3560  144.2480 C   0  0  0  0  0  2  0  0  0  0  0  0
  189.7360  172.8010  143.7810 C   0  0  0  0  0  1  0  0  0  0  0  0
  186.8630  178.2900  146.9040 C   0  0  0  0  0  3  0  0  0  0  0  0
  186.8730  177.1280  146.2390 C   0  0  0  0  0  0  0  0  0  0  0  0
  189.8310  174.1510  143.0780 C   0  0  2  0  0  3  0  0  0  0  0  0
  187.0160  177.6210  140.8320 C   0  0  2  0  0  3  0  0  0  0  0  0
  185.6680  177.9260  140.2980 C   0  0  0  0  0  2  0  0  0  0  0  0
  186.6980  177.4390  139.4720 O   0  0  0  0  0  0  0  0  0  0  0  0
  1  5  1  6  0  0  0
  1  4  1  0  0  0  0
  1 19  1  0  0  0  0
  2 19  1  0  0  0  0
  2 13  1  0  0  0  0
  4 20  1  0  0  0  0
  6  8  1  0  0  0  0
  7  9  1  0  0  0  0
  8 12  1  0  0  0  0
  9 14  1  0  0  0  0
  9 22  1  0  0  0  0
 10  3  1  0  0  0  0
 10 21  2  0  0  0  0
 11  8  1  0  0  0  0
 11  5  1  0  0  0  0
 12 27  1  0  0  0  0
 12  4  1  0  0  0  0
 13 18  2  0  0  0  0
 15  7  1  0  0  0  0
 15 23  1  0  0  0  0
 16  2  2  0  0  0  0
 17  3  1  0  0  0  0
 18 25  1  0  0  0  0
 19 26  1  0  0  0  0
 20 22  1  0  0  0  0
 20 17  1  0  0  0  0
 22 10  1  0  0  0  0
 23 14  1  0  0  0  0
 26 17  1  0  0  0  0
 26 25  2  0  0  0  0
 27  7  1  0  0  0  0
 27 24  1  0  0  0  0
 28 11  1  0  0  0  0
 29 28  1  0  0  0  0
 30 29  1  0  0  0  0
 30 28  1  0  0  0  0
M  END
>  <MODEL>
4

>  <REMARK>
 VINA RESULT:      -7.9      0.992      1.078
  Name = 
  1 active torsions:
  status: ('A' for Active; 'I' for Inactive)
    1  A    between atoms: C_11  and  C_28
                            x       y       z     vdW  Elec       q    Type
                         _______ _______ _______ _____ _____    ______ ____

>  <TORSDO>
F 1

$$$$
=
 OpenBabel11112416153D

 30 36  0  0  1  0  0  0  0  0999 V2000
  188.8310  175.9700  143.1640 C   0  0  1  0  0  3  0  0  0  0  0  0
  190.5760  174.2320  143.7930 C   0  0  0  0  0  0  0  0  0  0  0  0
  187.8030  176.6780  147.2170 N   0  0  0  0  0  2  0  0  0  0  0  0
  188.1050  177.2780  143.5730 C   0  0  1  0  0  3  0  0  0  0  0  0
  189.3040  176.0700  141.8470 O   0  0  0  0  0  0  0  0  0  0  0  0
  186.2080  177.2490  140.3970 O   0  0  0  0  0  1  0  0  0  0  0  0
  184.9490  177.8830  143.5570 C   0  0  1  0  0  3  0  0  0  0  0  0
  186.8970  176.7060  141.4880 C   0  0  1  0  0  3  0  0  0  0  0  0
  185.0950  177.8080  145.0820 C   0  0  2  0  0  3  0  0  0  0  0  0
  186.6830  177.5280  147.0090 C   0  0  0  0  0  0  0  0  0  0  0  0
  188.1830  176.0180  140.9700 C   0  0  2  0  0  3  0  0  0  0  0  0
  187.2420  177.7600  142.4570 N   0  0  1  0  0  0  0  0  0  0  0  0
  190.5480  173.0680  144.6920 C   0  0  0  0  0  3  0  0  0  0  0  0
  184.1800  178.8810  145.6310 C   0  0  0  0  0  2  0  0  0  0  0  0
  183.6280  178.5890  143.2930 C   0  0  0  0  0  2  0  0  0  0  0  0
  191.2110  174.1530  142.7090 O   0  0  0  0  0  0  0  0  0  0  0  0
  188.4980  176.6950  145.9460 C   0  0  2  0  0  3  0  0  0  0  0  0
  189.9420  173.1340  145.8760 C   0  0  0  0  0  3  0  0  0  0  0  0
  189.9050  175.5290  144.1840 C   0  0  2  0  0  3  0  0  0  0  0  0
  187.4220  176.9540  144.9060 C   0  0  1  0  0  3  0  0  0  0  0  0
  185.9300  177.8890  147.9510 O   0  0  0  0  0  0  0  0  0  0  0  0
  186.5260  177.9710  145.5870 C   0  0  1  0  0  3  0  0  0  0  0  0
  183.0390  178.9540  144.6430 C   0  0  0  0  0  2  0  0  0  0  0  0
  186.4890  179.9740  143.3320 C   0  0  0  0  0  1  0  0  0  0  0  0
  189.2730  174.3660  146.3220 C   0  0  0  0  0  3  0  0  0  0  0  0
  189.2630  175.4690  145.5640 C   0  0  0  0  0  0  0  0  0  0  0  0
  186.0820  178.6050  142.7980 C   0  0  2  0  0  3  0  0  0  0  0  0
  187.9050  174.6300  140.3720 C   0  0  2  0  0  3  0  0  0  0  0  0
  189.0380  174.1270  139.5610 C   0  0  0  0  0  2  0  0  0  0  0  0
  187.8900  174.6810  138.9650 O   0  0  0  0  0  0  0  0  0  0  0  0
  1  5  1  6  0  0  0
  1  4  1  0  0  0  0
  1 19  1  0  0  0  0
  2 19  1  0  0  0  0
  2 13  1  0  0  0  0
  4 20  1  0  0  0  0
  6  8  1  0  0  0  0
  7  9  1  0  0  0  0
  8 12  1  0  0  0  0
  9 22  1  0  0  0  0
  9 14  1  0  0  0  0
 10  3  1  0  0  0  0
 10 21  2  0  0  0  0
 11  8  1  0  0  0  0
 11  5  1  0  0  0  0
 12 27  1  0  0  0  0
 12  4  1  0  0  0  0
 13 18  2  0  0  0  0
 15  7  1  0  0  0  0
 15 23  1  0  0  0  0
 16  2  2  0  0  0  0
 17  3  1  0  0  0  0
 18 25  1  0  0  0  0
 19 26  1  0  0  0  0
 20 22  1  0  0  0  0
 20 17  1  0  0  0  0
 22 10  1  0  0  0  0
 23 14  1  0  0  0  0
 26 17  1  0  0  0  0
 26 25  2  0  0  0  0
 27 24  1  0  0  0  0
 27  7  1  0  0  0  0
 28 11  1  0  0  0  0
 29 28  1  0  0  0  0
 30 29  1  0  0  0  0
 30 28  1  0  0  0  0
M  END
>  <MODEL>
5

>  <REMARK>
 VINA RESULT:      -7.2      1.985      5.616
  Name = 
  1 active torsions:
  status: ('A' for Active; 'I' for Inactive)
    1  A    between atoms: C_11  and  C_28
                            x       y       z     vdW  Elec       q    Type
                         _______ _______ _______ _____ _____    ______ ____

>  <TORSDO>
F 1

$$$$
=
 OpenBabel11112416153D

 30 36  0  0  1  0  0  0  0  0999 V2000
  189.8110  175.2900  145.0430 C   0  0  1  0  0  3  0  0  0  0  0  0
  191.8280  173.9920  144.2030 C   0  0  0  0  0  0  0  0  0  0  0  0
  188.1580  175.6060  141.1510 N   0  0  0  0  0  2  0  0  0  0  0  0
  188.3030  175.5980  144.8540 C   0  0  1  0  0  3  0  0  0  0  0  0
  190.0750  174.9680  146.3840 O   0  0  0  0  0  0  0  0  0  0  0  0
  188.3530  177.8040  147.8220 O   0  0  0  0  0  1  0  0  0  0  0  0
  186.8590  178.4690  144.7720 C   0  0  1  0  0  3  0  0  0  0  0  0
  188.8680  177.1540  146.6960 C   0  0  1  0  0  3  0  0  0  0  0  0
  186.7090  178.1650  143.2770 C   0  0  2  0  0  3  0  0  0  0  0  0
  187.0800  176.4850  141.4460 C   0  0  0  0  0  0  0  0  0  0  0  0
  189.9640  176.1610  147.1530 C   0  0  2  0  0  3  0  0  0  0  0  0
  187.8000  176.4340  145.9810 N   0  0  1  0  0  0  0  0  0  0  0  0
  192.7660  174.2120  143.0910 C   0  0  0  0  0  3  0  0  0  0  0  0
  185.3460  178.6990  142.8900 C   0  0  0  0  0  2  0  0  0  0  0  0
  185.8720  179.5830  145.0810 C   0  0  0  0  0  2  0  0  0  0  0  0
  192.2650  173.5340  145.2910 O   0  0  0  0  0  0  0  0  0  0  0  0
  188.5530  175.0880  142.4450 C   0  0  2  0  0  3  0  0  0  0  0  0
  192.3310  174.6350  141.9060 C   0  0  0  0  0  3  0  0  0  0  0  0
  190.3490  174.2520  144.0330 C   0  0  2  0  0  3  0  0  0  0  0  0
  188.1900  176.1770  143.4390 C   0  0  1  0  0  3  0  0  0  0  0  0
  186.3670  177.0000  140.5450 O   0  0  0  0  0  0  0  0  0  0  0  0
  186.8630  176.6910  142.9140 C   0  0  1  0  0  3  0  0  0  0  0  0
  185.1310  179.8920  143.7930 C   0  0  0  0  0  2  0  0  0  0  0  0
  185.3480  176.4780  145.5130 C   0  0  0  0  0  1  0  0  0  0  0  0
  190.9040  174.9030  141.6680 C   0  0  0  0  0  3  0  0  0  0  0  0
  189.9900  174.7180  142.6270 C   0  0  0  0  0  0  0  0  0  0  0  0
  186.6220  177.2870  145.7360 C   0  0  2  0  0  3  0  0  0  0  0  0
  191.3030  176.8590  147.4430 C   0  0  2  0  0  3  0  0  0  0  0  0
  192.0530  176.2050  148.5410 C   0  0  0  0  0  2  0  0  0  0  0  0
  191.3220  177.3900  148.7480 O   0  0  0  0  0  0  0  0  0  0  0  0
  1  5  1  1  0  0  0
  2 16  2  0  0  0  0
  3 10  1  0  0  0  0
  3 17  1  0  0  0  0
  4  1  1  0  0  0  0
  4 12  1  0  0  0  0
  5 11  1  0  0  0  0
  7 15  1  0  0  0  0
  7 27  1  0  0  0  0
  8 11  1  0  0  0  0
  8  6  1  0  0  0  0
  9  7  1  0  0  0  0
 10 22  1  0  0  0  0
 11 28  1  0  0  0  0
 12  8  1  0  0  0  0
 13  2  1  0  0  0  0
 14  9  1  0  0  0  0
 14 23  1  0  0  0  0
 17 26  1  0  0  0  0
 17 20  1  0  0  0  0
 18 13  2  0  0  0  0
 19  2  1  0  0  0  0
 19  1  1  0  0  0  0
 20  4  1  0  0  0  0
 21 10  2  0  0  0  0
 22  9  1  0  0  0  0
 22 20  1  0  0  0  0
 23 15  1  0  0  0  0
 24 27  1  0  0  0  0
 25 18  1  0  0  0  0
 25 26  2  0  0  0  0
 26 19  1  0  0  0  0
 27 12  1  0  0  0  0
 28 29  1  0  0  0  0
 28 30  1  0  0  0  0
 29 30  1  0  0  0  0
M  END
>  <MODEL>
6

>  <REMARK>
 VINA RESULT:      -7.1      1.757      6.884
  Name = 
  1 active torsions:
  status: ('A' for Active; 'I' for Inactive)
    1  A    between atoms: C_11  and  C_28
                            x       y       z     vdW  Elec       q    Type
                         _______ _______ _______ _____ _____    ______ ____

>  <TORSDO>
F 1

$$$$
=
 OpenBabel11112416153D

 30 36  0  0  1  0  0  0  0  0999 V2000
  190.2440  174.3080  143.2790 C   0  0  1  0  0  3  0  0  0  0  0  0
  188.0620  175.5930  143.0690 C   0  0  0  0  0  0  0  0  0  0  0  0
  191.6230  176.7910  146.4270 N   0  0  0  0  0  2  0  0  0  0  0  0
  191.3710  173.8200  144.2270 C   0  0  1  0  0  3  0  0  0  0  0  0
  189.7710  173.2400  142.5000 O   0  0  0  0  0  0  0  0  0  0  0  0
  193.0140  172.0660  141.4160 O   0  0  0  0  0  1  0  0  0  0  0  0
  194.5500  174.0390  143.8080 C   0  0  1  0  0  3  0  0  0  0  0  0
  192.2370  173.0470  142.0390 C   0  0  1  0  0  3  0  0  0  0  0  0
  194.4540  175.1030  144.9090 C   0  0  2  0  0  3  0  0  0  0  0  0
  192.9470  176.2860  146.5350 C   0  0  0  0  0  0  0  0  0  0  0  0
  190.7750  172.9100  141.5460 C   0  0  2  0  0  3  0  0  0  0  0  0
  192.2930  172.9000  143.5030 N   0  0  1  0  0  0  0  0  0  0  0  0
  187.7520  177.0280  142.9770 C   0  0  0  0  0  3  0  0  0  0  0  0
  195.6900  174.9160  145.7620 C   0  0  0  0  0  2  0  0  0  0  0  0
  196.0140  173.6370  143.7330 C   0  0  0  0  0  2  0  0  0  0  0  0
  187.3880  174.7770  142.3880 O   0  0  0  0  0  0  0  0  0  0  0  0
  190.9160  175.7680  145.6850 C   0  0  2  0  0  3  0  0  0  0  0  0
  188.3990  177.9160  143.7300 C   0  0  0  0  0  3  0  0  0  0  0  0
  189.1310  175.0900  144.0110 C   0  0  2  0  0  3  0  0  0  0  0  0
  191.9700  175.0990  144.8220 C   0  0  1  0  0  3  0  0  0  0  0  0
  193.8170  176.8310  147.2630 O   0  0  0  0  0  0  0  0  0  0  0  0
  193.1760  175.0370  145.7400 C   0  0  1  0  0  3  0  0  0  0  0  0
  196.7480  174.4260  144.8020 C   0  0  0  0  0  2  0  0  0  0  0  0
  193.7570  172.1020  145.3610 C   0  0  0  0  0  1  0  0  0  0  0  0
  189.4490  177.4960  144.6720 C   0  0  0  0  0  3  0  0  0  0  0  0
  189.7800  176.2070  144.8180 C   0  0  0  0  0  0  0  0  0  0  0  0
  193.6770  172.7810  143.9980 C   0  0  2  0  0  3  0  0  0  0  0  0
  190.5650  173.5320  140.1570 C   0  0  2  0  0  3  0  0  0  0  0  0
  189.4690  172.8760  139.4050 C   0  0  0  0  0  2  0  0  0  0  0  0
  190.8220  172.5920  139.1400 O   0  0  0  0  0  0  0  0  0  0  0  0
  1  5  1  1  0  0  0
  1 19  1  0  0  0  0
  1  4  1  0  0  0  0
  2 19  1  0  0  0  0
  3 10  1  0  0  0  0
  4 20  1  0  0  0  0
  6  8  1  0  0  0  0
  7 27  1  0  0  0  0
  7  9  1  0  0  0  0
  8 12  1  0  0  0  0
  9 22  1  0  0  0  0
  9 14  1  0  0  0  0
 10 21  2  0  0  0  0
 11  8  1  0  0  0  0
 11  5  1  0  0  0  0
 12 27  1  0  0  0  0
 12  4  1  0  0  0  0
 13  2  1  0  0  0  0
 13 18  2  0  0  0  0
 15  7  1  0  0  0  0
 15 23  1  0  0  0  0
 16  2  2  0  0  0  0
 17  3  1  0  0  0  0
 18 25  1  0  0  0  0
 19 26  1  0  0  0  0
 20 17  1  0  0  0  0
 20 22  1  0  0  0  0
 22 10  1  0  0  0  0
 23 14  1  0  0  0  0
 25 26  2  0  0  0  0
 26 17  1  0  0  0  0
 27 24  1  0  0  0  0
 28 11  1  0  0  0  0
 29 28  1  0  0  0  0
 30 29  1  0  0  0  0
 30 28  1  0  0  0  0
M  END
>  <MODEL>
7

>  <REMARK>
 VINA RESULT:      -6.9      2.823      4.679
  Name = 
  1 active torsions:
  status: ('A' for Active; 'I' for Inactive)
    1  A    between atoms: C_11  and  C_28
                            x       y       z     vdW  Elec       q    Type
                         _______ _______ _______ _____ _____    ______ ____

>  <TORSDO>
F 1

$$$$
=
 OpenBabel11112416153D

 30 36  0  0  1  0  0  0  0  0999 V2000
  190.6790  175.0950  145.2330 C   0  0  1  0  0  3  0  0  0  0  0  0
  191.9410  176.1510  147.1700 C   0  0  0  0  0  0  0  0  0  0  0  0
  194.1920  173.3040  143.6740 N   0  0  0  0  0  2  0  0  0  0  0  0
  190.5810  173.8950  144.2560 C   0  0  1  0  0  3  0  0  0  0  0  0
  189.4290  175.3450  145.8200 O   0  0  0  0  0  0  0  0  0  0  0  0
  187.5320  175.3420  142.7420 O   0  0  0  0  0  1  0  0  0  0  0  0
  190.2240  173.9590  141.0630 C   0  0  1  0  0  3  0  0  0  0  0  0
  188.7710  175.3480  143.3920 C   0  0  1  0  0  3  0  0  0  0  0  0
  191.6860  173.4970  141.0570 C   0  0  2  0  0  3  0  0  0  0  0  0
  193.6570  172.8080  142.4540 C   0  0  0  0  0  0  0  0  0  0  0  0
  188.5770  175.9020  144.8240 C   0  0  2  0  0  3  0  0  0  0  0  0
  189.3320  173.9870  143.4480 N   0  0  1  0  0  0  0  0  0  0  0  0
  193.1840  176.9340  147.2450 C   0  0  0  0  0  3  0  0  0  0  0  0
  191.7920  172.5040  139.9190 C   0  0  0  0  0  2  0  0  0  0  0  0
  189.6760  173.6530  139.6780 C   0  0  0  0  0  2  0  0  0  0  0  0
  190.9790  176.4570  147.9210 O   0  0  0  0  0  0  0  0  0  0  0  0
  193.0240  173.5730  144.4870 C   0  0  2  0  0  3  0  0  0  0  0  0
  194.2460  176.6010  146.5130 C   0  0  0  0  0  3  0  0  0  0  0  0
  191.8330  174.9560  146.2520 C   0  0  2  0  0  3  0  0  0  0  0  0
  191.9140  173.8870  143.5000 C   0  0  1  0  0  3  0  0  0  0  0  0
  194.3840  172.3100  141.5550 O   0  0  0  0  0  0  0  0  0  0  0  0
  192.1640  172.9000  142.3770 C   0  0  1  0  0  3  0  0  0  0  0  0
  190.7920  172.9860  138.8950 C   0  0  0  0  0  2  0  0  0  0  0  0
  189.3580  171.8010  142.2410 C   0  0  0  0  0  1  0  0  0  0  0  0
  194.2120  175.4470  145.6010 C   0  0  0  0  0  3  0  0  0  0  0  0
  193.1200  174.6810  145.4850 C   0  0  0  0  0  0  0  0  0  0  0  0
  189.3110  173.3220  142.1320 C   0  0  2  0  0  3  0  0  0  0  0  0
  188.4830  177.4360  144.8510 C   0  0  2  0  0  3  0  0  0  0  0  0
  187.2610  177.9140  145.5380 C   0  0  0  0  0  2  0  0  0  0  0  0
  187.3560  177.8840  144.1340 O   0  0  0  0  0  0  0  0  0  0  0  0
  1  5  1  1  0  0  0
  1 19  1  0  0  0  0
  2 13  1  0  0  0  0
  2 16  2  0  0  0  0
  3 17  1  0  0  0  0
  4  1  1  0  0  0  0
  6  8  1  0  0  0  0
  7 27  1  0  0  0  0
  8 12  1  0  0  0  0
  8 11  1  0  0  0  0
  9  7  1  0  0  0  0
  9 22  1  0  0  0  0
 10  3  1  0  0  0  0
 11 28  1  0  0  0  0
 11  5  1  0  0  0  0
 12  4  1  0  0  0  0
 14  9  1  0  0  0  0
 15  7  1  0  0  0  0
 17 26  1  0  0  0  0
 18 13  2  0  0  0  0
 19  2  1  0  0  0  0
 20  4  1  0  0  0  0
 20 17  1  0  0  0  0
 21 10  2  0  0  0  0
 22 10  1  0  0  0  0
 22 20  1  0  0  0  0
 23 15  1  0  0  0  0
 23 14  1  0  0  0  0
 25 18  1  0  0  0  0
 26 25  2  0  0  0  0
 26 19  1  0  0  0  0
 27 24  1  0  0  0  0
 27 12  1  0  0  0  0
 28 29  1  0  0  0  0
 30 28  1  0  0  0  0
 30 29  1  0  0  0  0
M  END
>  <MODEL>
8

>  <REMARK>
 VINA RESULT:      -6.8      2.640      5.023
  Name = 
  1 active torsions:
  status: ('A' for Active; 'I' for Inactive)
    1  A    between atoms: C_11  and  C_28
                            x       y       z     vdW  Elec       q    Type
                         _______ _______ _______ _____ _____    ______ ____

>  <TORSDO>
F 1

$$$$
=
 OpenBabel11112416153D

 30 36  0  0  1  0  0  0  0  0999 V2000
  193.1150  174.6010  141.6500 C   0  0  1  0  0  3  0  0  0  0  0  0
  195.3010  174.2700  140.3960 C   0  0  0  0  0  0  0  0  0  0  0  0
  195.0530  176.5010  144.9080 N   0  0  0  0  0  2  0  0  0  0  0  0
  192.3100  175.4930  142.6300 C   0  0  1  0  0  3  0  0  0  0  0  0
  192.3400  174.3030  140.5190 O   0  0  0  0  0  0  0  0  0  0  0  0
  189.3890  173.2460  142.3210 O   0  0  0  0  0  1  0  0  0  0  0  0
  190.6660  174.5930  145.2410 C   0  0  1  0  0  3  0  0  0  0  0  0
  190.7420  173.6000  142.3300 C   0  0  1  0  0  3  0  0  0  0  0  0
  191.8170  175.2710  145.9950 C   0  0  2  0  0  3  0  0  0  0  0  0
  193.9460  176.5910  145.7940 C   0  0  0  0  0  0  0  0  0  0  0  0
  191.3200  173.3890  140.9100 C   0  0  2  0  0  3  0  0  0  0  0  0
  190.9050  175.0050  142.7400 N   0  0  1  0  0  0  0  0  0  0  0  0
  196.6130  173.7410  140.7980 C   0  0  0  0  0  3  0  0  0  0  0  0
  191.1750  175.9590  147.1810 C   0  0  0  0  0  2  0  0  0  0  0  0
  189.5270  174.4580  146.2390 C   0  0  0  0  0  2  0  0  0  0  0  0
  194.8590  174.0050  139.2480 O   0  0  0  0  0  0  0  0  0  0  0  0
  194.4490  176.2540  143.6140 C   0  0  2  0  0  3  0  0  0  0  0  0
  197.1420  174.0520  141.9800 C   0  0  0  0  0  3  0  0  0  0  0  0
  194.5120  175.1700  141.3190 C   0  0  2  0  0  3  0  0  0  0  0  0
  193.1470  175.5320  143.9130 C   0  0  1  0  0  3  0  0  0  0  0  0
  194.0700  176.9640  146.9900 O   0  0  0  0  0  0  0  0  0  0  0  0
  192.6380  176.2420  145.1520 C   0  0  1  0  0  3  0  0  0  0  0  0
  189.9960  175.0850  147.5390 C   0  0  0  0  0  2  0  0  0  0  0  0
  189.8600  176.8040  144.1200 C   0  0  0  0  0  1  0  0  0  0  0  0
  196.4320  174.9270  142.9260 C   0  0  0  0  0  3  0  0  0  0  0  0
  195.2380  175.4540  142.6280 C   0  0  0  0  0  0  0  0  0  0  0  0
  190.1620  175.3160  143.9750 C   0  0  2  0  0  3  0  0  0  0  0  0
  191.6410  171.9130  140.6220 C   0  0  2  0  0  3  0  0  0  0  0  0
  191.3350  171.5320  139.2240 C   0  0  0  0  0  2  0  0  0  0  0  0
  190.4740  171.2000  140.2860 O   0  0  0  0  0  0  0  0  0  0  0  0
  1  5  1  6  0  0  0
  1  4  1  0  0  0  0
  2 13  1  0  0  0  0
  2 19  1  0  0  0  0
  3 10  1  0  0  0  0
  4 12  1  0  0  0  0
  4 20  1  0  0  0  0
  5 11  1  0  0  0  0
  6  8  1  0  0  0  0
  7  9  1  0  0  0  0
  7 15  1  0  0  0  0
  8 12  1  0  0  0  0
  9 14  1  0  0  0  0
 10 21  2  0  0  0  0
 11  8  1  0  0  0  0
 12 27  1  0  0  0  0
 13 18  2  0  0  0  0
 14 23  1  0  0  0  0
 15 23  1  0  0  0  0
 16  2  2  0  0  0  0
 17 20  1  0  0  0  0
 17  3  1  0  0  0  0
 18 25  1  0  0  0  0
 19  1  1  0  0  0  0
 19 26  1  0  0  0  0
 20 22  1  0  0  0  0
 22 10  1  0  0  0  0
 22  9  1  0  0  0  0
 26 25  2  0  0  0  0
 26 17  1  0  0  0  0
 27 24  1  0  0  0  0
 27  7  1  0  0  0  0
 28 11  1  0  0  0  0
 29 30  1  0  0  0  0
 29 28  1  0  0  0  0
 30 28  1  0  0  0  0
M  END
>  <MODEL>
9

>  <REMARK>
 VINA RESULT:      -6.8      3.748      7.339
  Name = 
  1 active torsions:
  status: ('A' for Active; 'I' for Inactive)
    1  A    between atoms: C_11  and  C_28
                            x       y       z     vdW  Elec       q    Type
                         _______ _______ _______ _____ _____    ______ ____

>  <TORSDO>
F 1

$$$$
