=
 OpenBabel11112417003D

 31 35  0  0  1  0  0  0  0  0999 V2000
  194.6960  175.9530  144.7710 C   0  0  0  0  0  0  0  0  0  0  0  0
  191.2540  176.6480  143.3120 C   0  0  2  0  0  3  0  0  0  0  0  0
  190.5050  175.3960  142.9000 C   0  0  0  0  0  0  0  0  0  0  0  0
  190.4790  173.0340  142.3310 C   0  0  0  0  0  0  0  0  0  0  0  0
  192.3600  176.3770  144.2920 C   0  0  0  0  0  0  0  0  0  0  0  0
  194.3980  175.8530  146.1340 C   0  0  0  0  0  3  0  0  0  0  0  0
  191.1750  174.1730  142.7430 C   0  0  0  0  0  3  0  0  0  0  0  0
  189.9080  177.5470  145.3790 C   0  0  1  0  0  3  0  0  0  0  0  0
  195.9700  175.7950  144.3430 F   0  0  0  0  0  0  0  0  0  0  0  0
  188.4430  176.6880  142.7030 O   0  0  0  0  0  0  0  0  0  0  0  0
  191.1950  171.7410  142.1820 C   0  0  0  0  0  1  0  0  0  0  0  0
  190.6490  176.4160  146.1140 C   0  0  0  0  0  2  0  0  0  0  0  0
  190.3010  177.7240  143.8780 C   0  0  2  0  0  3  0  0  0  0  0  0
  193.6770  176.2120  143.8490 C   0  0  0  0  0  3  0  0  0  0  0  0
  189.1100  173.1110  142.0600 C   0  0  0  0  0  3  0  0  0  0  0  0
  192.0650  176.2870  145.6600 C   0  0  0  0  0  0  0  0  0  0  0  0
  193.0820  176.0160  146.5790 C   0  0  0  0  0  3  0  0  0  0  0  0
  189.1200  177.9240  142.9230 C   0  0  0  0  0  2  0  0  0  0  0  0
  189.1310  175.4740  142.5910 C   0  0  0  0  0  0  0  0  0  0  0  0
  188.4390  174.3280  142.1870 C   0  0  0  0  0  3  0  0  0  0  0  0
  188.4240  178.2080  147.7440 O   0  0  0  0  0  0  0  0  0  0  0  0
  187.7910  177.7070  146.7760 C   0  0  0  0  0  0  0  0  0  0  0  0
  188.4700  177.3840  145.5600 N   0  0  0  0  0  2  0  0  0  0  0  0
  184.7890  178.2200  144.5140 C   0  0  1  0  0  3  0  0  0  0  0  0
  185.8270  176.4090  145.9040 C   0  0  0  0  0  2  0  0  0  0  0  0
  185.9560  179.6940  147.7390 O   0  0  0  0  0  1  0  0  0  0  0  0
  184.6810  178.7900  143.1160 C   0  0  0  0  0  1  0  0  0  0  0  0
  185.7080  177.0020  144.4990 C   0  0  0  0  0  2  0  0  0  0  0  0
  185.4570  178.7200  146.8730 C   0  0  2  0  0  3  0  0  0  0  0  0
  186.3200  177.4470  146.9170 C   0  0  2  0  0  3  0  0  0  0  0  0
  185.3420  179.2840  145.4580 C   0  0  0  0  0  2  0  0  0  0  0  0
  1  6  1  0  0  0  0
  2  3  1  1  0  0  0
  2 13  1  0  0  0  0
  2  5  1  0  0  0  0
  4  7  2  0  0  0  0
  5 16  2  0  0  0  0
  6 17  2  0  0  0  0
  7  3  1  0  0  0  0
  8 23  1  6  0  0  0
  8 12  1  0  0  0  0
  9  1  1  0  0  0  0
 10 18  1  0  0  0  0
 11  4  1  0  0  0  0
 13 18  1  6  0  0  0
 13  8  1  0  0  0  0
 14  5  1  0  0  0  0
 14  1  2  0  0  0  0
 15 20  2  0  0  0  0
 15  4  1  0  0  0  0
 16 12  1  0  0  0  0
 16 17  1  0  0  0  0
 19 10  1  0  0  0  0
 19  3  2  0  0  0  0
 20 19  1  0  0  0  0
 22 21  2  0  0  0  0
 23 22  1  0  0  0  0
 24 27  1  6  0  0  0
 24 31  1  0  0  0  0
 25 30  1  0  0  0  0
 28 24  1  0  0  0  0
 28 25  1  0  0  0  0
 29 30  1  0  0  0  0
 29 26  1  1  0  0  0
 30 22  1  6  0  0  0
 31 29  1  0  0  0  0
M  END
>  <MODEL>
1

>  <REMARK>
 VINA RESULT:      -9.1      0.000      0.000
  Name = 
  2 active torsions:
  status: ('A' for Active; 'I' for Inactive)
    1  A    between atoms: C_5  and  C_30
    2  A    between atoms: C_10  and  N_16
                            x       y       z     vdW  Elec       q    Type
                         _______ _______ _______ _____ _____    ______ ____

>  <TORSDO>
F 2

$$$$
=
 OpenBabel11112417003D

 31 35  0  0  1  0  0  0  0  0999 V2000
  185.9640  178.1160  140.5740 C   0  0  0  0  0  0  0  0  0  0  0  0
  188.6070  178.2300  143.3050 C   0  0  2  0  0  3  0  0  0  0  0  0
  188.1450  177.6400  144.6230 C   0  0  0  0  0  0  0  0  0  0  0  0
  186.3660  176.9130  146.1100 C   0  0  0  0  0  0  0  0  0  0  0  0
  187.7850  177.7730  142.1350 C   0  0  0  0  0  0  0  0  0  0  0  0
  186.2550  176.8910  139.9660 C   0  0  0  0  0  3  0  0  0  0  0  0
  186.7810  177.4270  144.8800 C   0  0  0  0  0  3  0  0  0  0  0  0
  190.4170  176.5340  142.4450 C   0  0  1  0  0  3  0  0  0  0  0  0
  184.9410  178.8760  140.1150 F   0  0  0  0  0  0  0  0  0  0  0  0
  190.4490  177.6120  145.4260 O   0  0  0  0  0  0  0  0  0  0  0  0
  184.9220  176.6780  146.3660 C   0  0  0  0  0  1  0  0  0  0  0  0
  189.1810  175.7010  142.0630 C   0  0  0  0  0  2  0  0  0  0  0  0
  190.1020  177.9420  143.0440 C   0  0  2  0  0  3  0  0  0  0  0  0
  186.7270  178.5570  141.6610 C   0  0  0  0  0  3  0  0  0  0  0  0
  187.3080  176.6210  147.1000 C   0  0  0  0  0  3  0  0  0  0  0  0
  188.0810  176.5510  141.5160 C   0  0  0  0  0  0  0  0  0  0  0  0
  187.3110  176.1050  140.4390 C   0  0  0  0  0  3  0  0  0  0  0  0
  190.9250  178.3150  144.2800 C   0  0  0  0  0  2  0  0  0  0  0  0
  189.0870  177.3750  145.6390 C   0  0  0  0  0  0  0  0  0  0  0  0
  188.6640  176.8540  146.8650 C   0  0  0  0  0  3  0  0  0  0  0  0
  193.2140  176.0460  142.0330 O   0  0  0  0  0  0  0  0  0  0  0  0
  192.6690  175.5150  143.0370 C   0  0  0  0  0  0  0  0  0  0  0  0
  191.2850  175.7450  143.3120 N   0  0  0  0  0  2  0  0  0  0  0  0
  192.6730  174.8230  146.7670 C   0  0  1  0  0  3  0  0  0  0  0  0
  192.6290  173.5540  144.6050 C   0  0  0  0  0  2  0  0  0  0  0  0
  195.0360  176.4390  144.3720 O   0  0  0  0  0  1  0  0  0  0  0  0
  191.8180  175.3810  147.8850 C   0  0  0  0  0  1  0  0  0  0  0  0
  191.7820  174.1280  145.7420 C   0  0  0  0  0  2  0  0  0  0  0  0
  194.3170  175.4050  144.9750 C   0  0  2  0  0  3  0  0  0  0  0  0
  193.4860  174.6340  143.9360 C   0  0  2  0  0  3  0  0  0  0  0  0
  193.4510  175.9560  146.1060 C   0  0  0  0  0  2  0  0  0  0  0  0
  1 14  1  0  0  0  0
  2  5  1  6  0  0  0
  2  3  1  0  0  0  0
  3  7  2  0  0  0  0
  3 19  1  0  0  0  0
  4 11  1  0  0  0  0
  4 15  2  0  0  0  0
  6 17  1  0  0  0  0
  6  1  2  0  0  0  0
  7  4  1  0  0  0  0
  8 13  1  0  0  0  0
  8 23  1  1  0  0  0
  9  1  1  0  0  0  0
 10 19  1  0  0  0  0
 12  8  1  0  0  0  0
 13  2  1  0  0  0  0
 13 18  1  1  0  0  0
 14  5  2  0  0  0  0
 16 12  1  0  0  0  0
 16  5  1  0  0  0  0
 17 16  2  0  0  0  0
 18 10  1  0  0  0  0
 19 20  2  0  0  0  0
 20 15  1  0  0  0  0
 21 22  2  0  0  0  0
 22 23  1  0  0  0  0
 24 27  1  1  0  0  0
 25 28  1  0  0  0  0
 28 24  1  0  0  0  0
 29 26  1  6  0  0  0
 29 31  1  0  0  0  0
 30 22  1  1  0  0  0
 30 25  1  0  0  0  0
 30 29  1  0  0  0  0
 31 24  1  0  0  0  0
M  END
>  <MODEL>
2

>  <REMARK>
 VINA RESULT:      -8.6      3.237      7.153
  Name = 
  2 active torsions:
  status: ('A' for Active; 'I' for Inactive)
    1  A    between atoms: C_5  and  C_30
    2  A    between atoms: C_10  and  N_16
                            x       y       z     vdW  Elec       q    Type
                         _______ _______ _______ _____ _____    ______ ____

>  <TORSDO>
F 2

$$$$
=
 OpenBabel11112417003D

 31 35  0  0  1  0  0  0  0  0999 V2000
  187.0630  177.1640  140.1950 C   0  0  0  0  0  0  0  0  0  0  0  0
  189.1820  177.7510  143.2980 C   0  0  2  0  0  3  0  0  0  0  0  0
  188.4270  177.5440  144.5960 C   0  0  0  0  0  0  0  0  0  0  0  0
  186.3400  177.3490  145.8250 C   0  0  0  0  0  0  0  0  0  0  0  0
  188.5260  177.0810  142.1230 C   0  0  0  0  0  0  0  0  0  0  0  0
  187.3030  175.8070  139.9540 C   0  0  0  0  0  3  0  0  0  0  0  0
  187.0230  177.5070  144.6180 C   0  0  0  0  0  3  0  0  0  0  0  0
  190.8910  175.7600  143.2290 C   0  0  1  0  0  3  0  0  0  0  0  0
  186.2370  177.8610  139.3790 F   0  0  0  0  0  0  0  0  0  0  0  0
  190.5340  177.5400  145.8270 O   0  0  0  0  0  0  0  0  0  0  0  0
  184.8550  177.2960  145.8350 C   0  0  0  0  0  1  0  0  0  0  0  0
  189.6490  174.9560  142.8090 C   0  0  0  0  0  2  0  0  0  0  0  0
  190.6520  177.2930  143.4130 C   0  0  2  0  0  3  0  0  0  0  0  0
  187.6720  177.8010  141.2810 C   0  0  0  0  0  3  0  0  0  0  0  0
  187.0510  177.2400  147.0230 C   0  0  0  0  0  3  0  0  0  0  0  0
  188.7740  175.7240  141.8740 C   0  0  0  0  0  0  0  0  0  0  0  0
  188.1560  175.0860  140.7960 C   0  0  0  0  0  3  0  0  0  0  0  0
  191.2860  177.8970  144.6690 C   0  0  0  0  0  2  0  0  0  0  0  0
  189.1370  177.4690  145.8130 C   0  0  0  0  0  0  0  0  0  0  0  0
  188.4450  177.3030  147.0160 C   0  0  0  0  0  3  0  0  0  0  0  0
  193.5650  174.7360  143.4200 O   0  0  0  0  0  0  0  0  0  0  0  0
  192.8230  174.6300  144.4330 C   0  0  0  0  0  0  0  0  0  0  0  0
  191.4910  175.1480  144.4090 N   0  0  0  0  0  2  0  0  0  0  0  0
  196.2770  173.5550  145.5770 C   0  0  1  0  0  3  0  0  0  0  0  0
  194.3120  174.8510  146.4430 C   0  0  0  0  0  2  0  0  0  0  0  0
  193.1400  171.7820  144.6040 O   0  0  0  0  0  1  0  0  0  0  0  0
  197.6290  173.6710  144.9070 C   0  0  0  0  0  1  0  0  0  0  0  0
  195.6800  174.9460  145.7630 C   0  0  0  0  0  2  0  0  0  0  0  0
  193.9840  172.5730  145.3840 C   0  0  2  0  0  3  0  0  0  0  0  0
  193.3520  173.9480  145.6610 C   0  0  2  0  0  3  0  0  0  0  0  0
  195.3540  172.6960  144.7190 C   0  0  0  0  0  2  0  0  0  0  0  0
  1 14  1  0  0  0  0
  2  5  1  6  0  0  0
  2 13  1  0  0  0  0
  2  3  1  0  0  0  0
  3  7  2  0  0  0  0
  3 19  1  0  0  0  0
  4 11  1  0  0  0  0
  4 15  2  0  0  0  0
  6  1  2  0  0  0  0
  6 17  1  0  0  0  0
  7  4  1  0  0  0  0
  8 13  1  0  0  0  0
  8 23  1  1  0  0  0
  9  1  1  0  0  0  0
 12  8  1  0  0  0  0
 13 18  1  1  0  0  0
 14  5  2  0  0  0  0
 16  5  1  0  0  0  0
 16 12  1  0  0  0  0
 17 16  2  0  0  0  0
 18 10  1  0  0  0  0
 19 10  1  0  0  0  0
 19 20  2  0  0  0  0
 20 15  1  0  0  0  0
 21 22  2  0  0  0  0
 23 22  1  0  0  0  0
 24 27  1  6  0  0  0
 24 28  1  0  0  0  0
 28 25  1  0  0  0  0
 29 26  1  6  0  0  0
 29 30  1  0  0  0  0
 30 22  1  6  0  0  0
 30 25  1  0  0  0  0
 31 29  1  0  0  0  0
 31 24  1  0  0  0  0
M  END
>  <MODEL>
3

>  <REMARK>
 VINA RESULT:      -8.2      3.256      7.727
  Name = 
  2 active torsions:
  status: ('A' for Active; 'I' for Inactive)
    1  A    between atoms: C_5  and  C_30
    2  A    between atoms: C_10  and  N_16
                            x       y       z     vdW  Elec       q    Type
                         _______ _______ _______ _____ _____    ______ ____

>  <TORSDO>
F 2

$$$$
=
 OpenBabel11112417003D

 31 35  0  0  1  0  0  0  0  0999 V2000
  192.4940  170.5690  142.8780 C   0  0  0  0  0  0  0  0  0  0  0  0
  191.1120  173.1740  145.2770 C   0  0  2  0  0  3  0  0  0  0  0  0
  192.1150  174.2470  145.6530 C   0  0  0  0  0  0  0  0  0  0  0  0
  194.4050  175.0460  145.8030 C   0  0  0  0  0  0  0  0  0  0  0  0
  191.4720  172.4490  144.0120 C   0  0  0  0  0  0  0  0  0  0  0  0
  192.1480  171.1260  141.6420 C   0  0  0  0  0  3  0  0  0  0  0  0
  193.4880  174.0640  145.4220 C   0  0  0  0  0  3  0  0  0  0  0  0
  189.3390  174.4420  143.8130 C   0  0  1  0  0  3  0  0  0  0  0  0
  193.1570  169.3890  142.9270 F   0  0  0  0  0  0  0  0  0  0  0  0
  190.3200  175.6050  146.5950 O   0  0  0  0  0  0  0  0  0  0  0  0
  195.8540  174.8490  145.5400 C   0  0  0  0  0  1  0  0  0  0  0  0
  190.4270  174.3240  142.7320 C   0  0  0  0  0  2  0  0  0  0  0  0
  189.6800  173.7440  145.1690 C   0  0  2  0  0  3  0  0  0  0  0  0
  192.1580  171.2300  144.0630 C   0  0  0  0  0  3  0  0  0  0  0  0
  193.9610  176.2130  146.4290 C   0  0  0  0  0  3  0  0  0  0  0  0
  191.1160  173.0000  142.7740 C   0  0  0  0  0  0  0  0  0  0  0  0
  191.4630  172.3440  141.5890 C   0  0  0  0  0  3  0  0  0  0  0  0
  189.3550  174.5690  146.4170 C   0  0  0  0  0  2  0  0  0  0  0  0
  191.6770  175.4120  146.3170 C   0  0  0  0  0  0  0  0  0  0  0  0
  192.6010  176.3940  146.6880 C   0  0  0  0  0  3  0  0  0  0  0  0
  186.8800  175.6630  142.9800 O   0  0  0  0  0  0  0  0  0  0  0  0
  187.7440  176.4000  143.5250 C   0  0  0  0  0  0  0  0  0  0  0  0
  188.9780  175.8440  143.9880 N   0  0  0  0  0  2  0  0  0  0  0  0
  184.7620  178.6170  142.7630 C   0  0  1  0  0  3  0  0  0  0  0  0
  186.3260  178.1320  144.6620 C   0  0  0  0  0  2  0  0  0  0  0  0
  188.2270  178.2870  141.4160 O   0  0  0  0  0  1  0  0  0  0  0  0
  183.4060  178.2950  142.1720 C   0  0  0  0  0  1  0  0  0  0  0  0
  184.9610  177.8170  144.0470 C   0  0  0  0  0  2  0  0  0  0  0  0
  187.2270  178.5940  142.3400 C   0  0  2  0  0  3  0  0  0  0  0  0
  187.4680  177.8670  143.6740 C   0  0  2  0  0  3  0  0  0  0  0  0
  185.8530  178.2740  141.7540 C   0  0  0  0  0  2  0  0  0  0  0  0
  1  9  1  0  0  0  0
  1 14  1  0  0  0  0
  2  5  1  6  0  0  0
  2  3  1  0  0  0  0
  3 19  1  0  0  0  0
  4 15  2  0  0  0  0
  5 14  2  0  0  0  0
  6  1  2  0  0  0  0
  7  3  2  0  0  0  0
  7  4  1  0  0  0  0
  8 23  1  1  0  0  0
  8 13  1  0  0  0  0
 11  4  1  0  0  0  0
 12 16  1  0  0  0  0
 12  8  1  0  0  0  0
 13  2  1  0  0  0  0
 13 18  1  1  0  0  0
 15 20  1  0  0  0  0
 16  5  1  0  0  0  0
 17  6  1  0  0  0  0
 17 16  2  0  0  0  0
 18 10  1  0  0  0  0
 19 10  1  0  0  0  0
 19 20  2  0  0  0  0
 21 22  2  0  0  0  0
 22 23  1  0  0  0  0
 24 27  1  6  0  0  0
 24 28  1  0  0  0  0
 28 25  1  0  0  0  0
 29 26  1  6  0  0  0
 29 30  1  0  0  0  0
 30 22  1  6  0  0  0
 30 25  1  0  0  0  0
 31 29  1  0  0  0  0
 31 24  1  0  0  0  0
M  END
>  <MODEL>
4

>  <REMARK>
 VINA RESULT:      -8.2      2.496      4.811
  Name = 
  2 active torsions:
  status: ('A' for Active; 'I' for Inactive)
    1  A    between atoms: C_5  and  C_30
    2  A    between atoms: C_10  and  N_16
                            x       y       z     vdW  Elec       q    Type
                         _______ _______ _______ _____ _____    ______ ____

>  <TORSDO>
F 2

$$$$
=
 OpenBabel11112417003D

 31 35  0  0  1  0  0  0  0  0999 V2000
  185.3350  178.1650  147.5280 C   0  0  0  0  0  0  0  0  0  0  0  0
  187.6520  175.8150  145.6400 C   0  0  2  0  0  3  0  0  0  0  0  0
  187.8220  176.1750  144.1770 C   0  0  0  0  0  0  0  0  0  0  0  0
  187.0780  177.3500  142.1850 C   0  0  0  0  0  0  0  0  0  0  0  0
  187.1520  176.9600  146.4740 C   0  0  0  0  0  0  0  0  0  0  0  0
  186.2440  179.1110  148.0130 C   0  0  0  0  0  3  0  0  0  0  0  0
  186.9290  177.0520  143.5410 C   0  0  0  0  0  3  0  0  0  0  0  0
  189.9990  176.3230  146.7010 C   0  0  1  0  0  3  0  0  0  0  0  0
  184.0150  178.2910  147.8020 F   0  0  0  0  0  0  0  0  0  0  0  0
  189.7250  174.6560  144.0180 O   0  0  0  0  0  0  0  0  0  0  0  0
  186.1360  178.2910  141.5250 C   0  0  0  0  0  1  0  0  0  0  0  0
  189.5090  177.7790  146.6210 C   0  0  0  0  0  2  0  0  0  0  0  0
  188.9570  175.2520  146.2450 C   0  0  2  0  0  3  0  0  0  0  0  0
  185.7880  177.0900  146.7560 C   0  0  0  0  0  3  0  0  0  0  0  0
  188.1120  176.7660  141.4490 C   0  0  0  0  0  3  0  0  0  0  0  0
  188.0620  177.9030  146.9710 C   0  0  0  0  0  0  0  0  0  0  0  0
  187.6070  178.9830  147.7310 C   0  0  0  0  0  3  0  0  0  0  0  0
  189.5170  174.1540  145.3370 C   0  0  0  0  0  2  0  0  0  0  0  0
  188.8430  175.5620  143.4210 C   0  0  0  0  0  0  0  0  0  0  0  0
  188.9900  175.8720  142.0650 C   0  0  0  0  0  3  0  0  0  0  0  0
  192.3170  174.9160  147.6380 O   0  0  0  0  0  0  0  0  0  0  0  0
  192.3980  175.5040  146.5270 C   0  0  0  0  0  0  0  0  0  0  0  0
  191.2680  176.1970  145.9930 N   0  0  0  0  0  2  0  0  0  0  0  0
  193.3240  175.1110  142.8690 C   0  0  1  0  0  3  0  0  0  0  0  0
  193.8100  176.6450  144.7920 C   0  0  0  0  0  2  0  0  0  0  0  0
  193.7990  173.0640  145.9540 O   0  0  0  0  0  1  0  0  0  0  0  0
  192.4630  174.9120  141.6390 C   0  0  0  0  0  1  0  0  0  0  0  0
  192.9480  176.4240  143.5470 C   0  0  0  0  0  2  0  0  0  0  0  0
  193.9800  174.1340  145.0760 C   0  0  2  0  0  3  0  0  0  0  0  0
  193.6970  175.4750  145.7740 C   0  0  2  0  0  3  0  0  0  0  0  0
  193.1180  173.9440  143.8300 C   0  0  0  0  0  2  0  0  0  0  0  0
  1  9  1  0  0  0  0
  1  6  1  0  0  0  0
  2  3  1  6  0  0  0
  2 13  1  0  0  0  0
  2  5  1  0  0  0  0
  4  7  2  0  0  0  0
  5 14  1  0  0  0  0
  5 16  2  0  0  0  0
  7  3  1  0  0  0  0
  8 23  1  6  0  0  0
 10 18  1  0  0  0  0
 11  4  1  0  0  0  0
 12  8  1  0  0  0  0
 12 16  1  0  0  0  0
 13 18  1  6  0  0  0
 13  8  1  0  0  0  0
 14  1  2  0  0  0  0
 15 20  2  0  0  0  0
 15  4  1  0  0  0  0
 16 17  1  0  0  0  0
 17  6  2  0  0  0  0
 19 10  1  0  0  0  0
 19  3  2  0  0  0  0
 20 19  1  0  0  0  0
 22 21  2  0  0  0  0
 23 22  1  0  0  0  0
 24 27  1  6  0  0  0
 24 28  1  0  0  0  0
 24 31  1  0  0  0  0
 25 30  1  0  0  0  0
 28 25  1  0  0  0  0
 29 30  1  0  0  0  0
 29 26  1  1  0  0  0
 30 22  1  6  0  0  0
 31 29  1  0  0  0  0
M  END
>  <MODEL>
5

>  <REMARK>
 VINA RESULT:      -8.0      3.307      6.784
  Name = 
  2 active torsions:
  status: ('A' for Active; 'I' for Inactive)
    1  A    between atoms: C_5  and  C_30
    2  A    between atoms: C_10  and  N_16
                            x       y       z     vdW  Elec       q    Type
                         _______ _______ _______ _____ _____    ______ ____

>  <TORSDO>
F 2

$$$$
=
 OpenBabel11112417003D

 31 35  0  0  1  0  0  0  0  0999 V2000
  193.3110  170.3990  142.1760 C   0  0  0  0  0  0  0  0  0  0  0  0
  191.6030  172.7120  144.6630 C   0  0  2  0  0  3  0  0  0  0  0  0
  192.5200  173.7780  145.2300 C   0  0  0  0  0  0  0  0  0  0  0  0
  194.7500  174.6390  145.6700 C   0  0  0  0  0  0  0  0  0  0  0  0
  192.1090  172.1240  143.3760 C   0  0  0  0  0  0  0  0  0  0  0  0
  193.0560  171.0600  140.9700 C   0  0  0  0  0  3  0  0  0  0  0  0
  193.9150  173.6660  145.1150 C   0  0  0  0  0  3  0  0  0  0  0  0
  189.9190  174.0520  143.1600 C   0  0  1  0  0  3  0  0  0  0  0  0
  194.0190  169.2440  142.1790 F   0  0  0  0  0  0  0  0  0  0  0  0
  190.5890  174.9770  146.1170 O   0  0  0  0  0  0  0  0  0  0  0  0
  196.2240  174.5180  145.5290 C   0  0  0  0  0  1  0  0  0  0  0  0
  191.1050  174.0760  142.1810 C   0  0  0  0  0  2  0  0  0  0  0  0
  190.1640  173.2400  144.4720 C   0  0  2  0  0  3  0  0  0  0  0  0
  192.8410  170.9320  143.3800 C   0  0  0  0  0  3  0  0  0  0  0  0
  194.2000  175.7240  146.3560 C   0  0  0  0  0  3  0  0  0  0  0  0
  191.8440  172.7790  142.1660 C   0  0  0  0  0  0  0  0  0  0  0  0
  192.3260  172.2520  140.9640 C   0  0  0  0  0  3  0  0  0  0  0  0
  189.6910  173.9300  145.7540 C   0  0  0  0  0  2  0  0  0  0  0  0
  191.9730  174.8580  145.9540 C   0  0  0  0  0  0  0  0  0  0  0  0
  192.8150  175.8320  146.5000 C   0  0  0  0  0  3  0  0  0  0  0  0
  187.3940  175.1890  142.4090 O   0  0  0  0  0  0  0  0  0  0  0  0
  188.2180  175.9340  143.0020 C   0  0  0  0  0  0  0  0  0  0  0  0
  189.4820  175.4180  143.4280 N   0  0  0  0  0  2  0  0  0  0  0  0
  185.8420  177.6960  145.3770 C   0  0  1  0  0  3  0  0  0  0  0  0
  188.2440  177.8150  144.6670 C   0  0  0  0  0  2  0  0  0  0  0  0
  186.0290  177.2360  141.6780 O   0  0  0  0  0  1  0  0  0  0  0  0
  184.8930  177.1510  146.4230 C   0  0  0  0  0  1  0  0  0  0  0  0
  187.2680  177.2700  145.7110 C   0  0  0  0  0  2  0  0  0  0  0  0
  186.3950  177.7110  142.9380 C   0  0  2  0  0  3  0  0  0  0  0  0
  187.8630  177.3720  143.2500 C   0  0  2  0  0  3  0  0  0  0  0  0
  185.4440  177.1690  144.0020 C   0  0  0  0  0  2  0  0  0  0  0  0
  1  9  1  0  0  0  0
  1 14  1  0  0  0  0
  2  5  1  6  0  0  0
  2  3  1  0  0  0  0
  3 19  1  0  0  0  0
  4 15  2  0  0  0  0
  5 14  2  0  0  0  0
  6  1  2  0  0  0  0
  7  3  2  0  0  0  0
  7  4  1  0  0  0  0
  8 23  1  1  0  0  0
  8 13  1  0  0  0  0
 11  4  1  0  0  0  0
 12  8  1  0  0  0  0
 13  2  1  0  0  0  0
 13 18  1  1  0  0  0
 15 20  1  0  0  0  0
 16 12  1  0  0  0  0
 16  5  1  0  0  0  0
 17  6  1  0  0  0  0
 17 16  2  0  0  0  0
 18 10  1  0  0  0  0
 19 10  1  0  0  0  0
 19 20  2  0  0  0  0
 21 22  2  0  0  0  0
 22 23  1  0  0  0  0
 24 28  1  0  0  0  0
 24 27  1  1  0  0  0
 25 28  1  0  0  0  0
 29 26  1  6  0  0  0
 29 30  1  0  0  0  0
 29 31  1  0  0  0  0
 30 22  1  1  0  0  0
 30 25  1  0  0  0  0
 31 24  1  0  0  0  0
M  END
>  <MODEL>
6

>  <REMARK>
 VINA RESULT:      -7.9      2.500      4.986
  Name = 
  2 active torsions:
  status: ('A' for Active; 'I' for Inactive)
    1  A    between atoms: C_5  and  C_30
    2  A    between atoms: C_10  and  N_16
                            x       y       z     vdW  Elec       q    Type
                         _______ _______ _______ _____ _____    ______ ____

>  <TORSDO>
F 2

$$$$
=
 OpenBabel11112417003D

 31 35  0  0  1  0  0  0  0  0999 V2000
  185.0910  179.2920  143.7540 C   0  0  0  0  0  0  0  0  0  0  0  0
  188.5260  177.6710  143.9250 C   0  0  2  0  0  3  0  0  0  0  0  0
  188.6730  176.6770  145.0610 C   0  0  0  0  0  0  0  0  0  0  0  0
  187.9230  175.7590  147.1820 C   0  0  0  0  0  0  0  0  0  0  0  0
  187.0940  177.9440  143.5630 C   0  0  0  0  0  0  0  0  0  0  0  0
  184.4210  178.4200  142.8890 C   0  0  0  0  0  3  0  0  0  0  0  0
  187.7580  176.6570  146.1260 C   0  0  0  0  0  3  0  0  0  0  0  0
  188.5840  176.1840  141.7630 C   0  0  1  0  0  3  0  0  0  0  0  0
  184.4450  180.3660  144.2660 F   0  0  0  0  0  0  0  0  0  0  0  0
  190.7350  175.8350  144.0660 O   0  0  0  0  0  0  0  0  0  0  0  0
  186.9400  175.7360  148.2960 C   0  0  0  0  0  1  0  0  0  0  0  0
  187.1340  175.8710  142.1680 C   0  0  0  0  0  2  0  0  0  0  0  0
  189.3110  177.2260  142.6720 C   0  0  2  0  0  3  0  0  0  0  0  0
  186.4260  179.0530  144.0940 C   0  0  0  0  0  3  0  0  0  0  0  0
  189.0100  174.8810  147.1910 C   0  0  0  0  0  3  0  0  0  0  0  0
  186.4250  177.0770  142.6880 C   0  0  0  0  0  0  0  0  0  0  0  0
  185.0870  177.3100  142.3590 C   0  0  0  0  0  3  0  0  0  0  0  0
  190.7430  176.8500  143.0640 C   0  0  0  0  0  2  0  0  0  0  0  0
  189.7870  175.8130  145.0930 C   0  0  0  0  0  0  0  0  0  0  0  0
  189.9410  174.9100  146.1500 C   0  0  0  0  0  3  0  0  0  0  0  0
  188.5350  174.4050  139.5120 O   0  0  0  0  0  0  0  0  0  0  0  0
  189.2450  174.0800  140.5000 C   0  0  0  0  0  0  0  0  0  0  0  0
  189.3340  174.9390  141.6390 N   0  0  0  0  0  2  0  0  0  0  0  0
  191.7320  172.4060  142.8240 C   0  0  1  0  0  3  0  0  0  0  0  0
  189.5900  171.8670  141.6370 C   0  0  0  0  0  2  0  0  0  0  0  0
  191.8750  173.8280  139.3760 O   0  0  0  0  0  1  0  0  0  0  0  0
  192.3310  172.8610  144.1380 C   0  0  0  0  0  1  0  0  0  0  0  0
  190.2140  172.3300  142.9550 C   0  0  0  0  0  2  0  0  0  0  0  0
  191.5180  172.9370  140.3900 C   0  0  2  0  0  3  0  0  0  0  0  0
  189.9910  172.7770  140.4700 C   0  0  2  0  0  3  0  0  0  0  0  0
  192.1180  173.3860  141.7210 C   0  0  0  0  0  2  0  0  0  0  0  0
  1 14  1  0  0  0  0
  1  9  1  0  0  0  0
  2  5  1  6  0  0  0
  2  3  1  0  0  0  0
  3 19  2  0  0  0  0
  3  7  1  0  0  0  0
  4 15  1  0  0  0  0
  4 11  1  0  0  0  0
  5 14  2  0  0  0  0
  6  1  2  0  0  0  0
  7  4  2  0  0  0  0
  8 23  1  1  0  0  0
  8 12  1  0  0  0  0
  8 13  1  0  0  0  0
 10 19  1  0  0  0  0
 12 16  1  0  0  0  0
 13 18  1  1  0  0  0
 13  2  1  0  0  0  0
 16  5  1  0  0  0  0
 17 16  2  0  0  0  0
 17  6  1  0  0  0  0
 18 10  1  0  0  0  0
 19 20  1  0  0  0  0
 20 15  2  0  0  0  0
 21 22  2  0  0  0  0
 22 23  1  0  0  0  0
 24 28  1  0  0  0  0
 24 27  1  1  0  0  0
 25 28  1  0  0  0  0
 29 26  1  6  0  0  0
 29 30  1  0  0  0  0
 29 31  1  0  0  0  0
 30 22  1  1  0  0  0
 30 25  1  0  0  0  0
 31 24  1  0  0  0  0
M  END
>  <MODEL>
7

>  <REMARK>
 VINA RESULT:      -7.9      3.456      7.450
  Name = 
  2 active torsions:
  status: ('A' for Active; 'I' for Inactive)
    1  A    between atoms: C_5  and  C_30
    2  A    between atoms: C_10  and  N_16
                            x       y       z     vdW  Elec       q    Type
                         _______ _______ _______ _____ _____    ______ ____

>  <TORSDO>
F 2

$$$$
=
 OpenBabel11112417003D

 31 35  0  0  1  0  0  0  0  0999 V2000
  186.1060  177.8820  147.7690 C   0  0  0  0  0  0  0  0  0  0  0  0
  187.9250  175.5990  145.3330 C   0  0  2  0  0  3  0  0  0  0  0  0
  187.8340  176.0550  143.8900 C   0  0  0  0  0  0  0  0  0  0  0  0
  186.7810  177.3870  142.1520 C   0  0  0  0  0  0  0  0  0  0  0  0
  187.6400  176.6980  146.3160 C   0  0  0  0  0  0  0  0  0  0  0  0
  187.1300  178.7650  148.1310 C   0  0  0  0  0  3  0  0  0  0  0  0
  186.8750  177.0000  143.4900 C   0  0  0  0  0  3  0  0  0  0  0  0
  190.4490  175.9600  145.9580 C   0  0  1  0  0  3  0  0  0  0  0  0
  184.8670  178.0290  148.2960 F   0  0  0  0  0  0  0  0  0  0  0  0
  189.6060  174.4930  143.2780 O   0  0  0  0  0  0  0  0  0  0  0  0
  185.7730  178.3990  141.7420 C   0  0  0  0  0  1  0  0  0  0  0  0
  190.0160  177.4330  146.0640 C   0  0  0  0  0  2  0  0  0  0  0  0
  189.2950  174.9560  145.6430 C   0  0  2  0  0  3  0  0  0  0  0  0
  186.3600  176.8510  146.8600 C   0  0  0  0  0  3  0  0  0  0  0  0
  187.6320  176.8240  141.1980 C   0  0  0  0  0  3  0  0  0  0  0  0
  188.6670  177.5760  146.6890 C   0  0  0  0  0  0  0  0  0  0  0  0
  188.4100  178.6150  147.5880 C   0  0  0  0  0  3  0  0  0  0  0  0
  189.6270  173.9070  144.5780 C   0  0  0  0  0  2  0  0  0  0  0  0
  188.6670  175.4650  142.9160 C   0  0  0  0  0  0  0  0  0  0  0  0
  188.5710  175.8630  141.5800 C   0  0  0  0  0  3  0  0  0  0  0  0
  192.8800  174.5000  146.3880 O   0  0  0  0  0  0  0  0  0  0  0  0
  192.7560  175.1230  145.3010 C   0  0  0  0  0  0  0  0  0  0  0  0
  191.5560  175.8450  145.0160 N   0  0  0  0  0  2  0  0  0  0  0  0
  196.0950  173.3280  145.1350 C   0  0  1  0  0  3  0  0  0  0  0  0
  194.0780  173.7170  143.6950 C   0  0  0  0  0  2  0  0  0  0  0  0
  195.0160  176.8830  145.5040 O   0  0  0  0  0  1  0  0  0  0  0  0
  196.7540  172.3610  146.0950 C   0  0  0  0  0  1  0  0  0  0  0  0
  194.7600  172.7540  144.6700 C   0  0  0  0  0  2  0  0  0  0  0  0
  195.2100  175.6530  144.8720 C   0  0  2  0  0  3  0  0  0  0  0  0
  193.8860  175.1060  144.3120 C   0  0  2  0  0  3  0  0  0  0  0  0
  195.8770  174.6690  145.8310 C   0  0  0  0  0  2  0  0  0  0  0  0
  1  6  1  0  0  0  0
  1  9  1  0  0  0  0
  2  3  1  6  0  0  0
  2 13  1  0  0  0  0
  2  5  1  0  0  0  0
  4  7  2  0  0  0  0
  5 16  2  0  0  0  0
  5 14  1  0  0  0  0
  7  3  1  0  0  0  0
  8 23  1  6  0  0  0
  8 12  1  0  0  0  0
 10 18  1  0  0  0  0
 11  4  1  0  0  0  0
 12 16  1  0  0  0  0
 13 18  1  6  0  0  0
 13  8  1  0  0  0  0
 14  1  2  0  0  0  0
 15 20  2  0  0  0  0
 15  4  1  0  0  0  0
 16 17  1  0  0  0  0
 17  6  2  0  0  0  0
 19 10  1  0  0  0  0
 19  3  2  0  0  0  0
 20 19  1  0  0  0  0
 22 21  2  0  0  0  0
 23 22  1  0  0  0  0
 24 31  1  0  0  0  0
 24 27  1  1  0  0  0
 25 30  1  0  0  0  0
 25 28  1  0  0  0  0
 28 24  1  0  0  0  0
 29 26  1  1  0  0  0
 29 31  1  0  0  0  0
 30 29  1  0  0  0  0
 30 22  1  1  0  0  0
M  END
>  <MODEL>
8

>  <REMARK>
 VINA RESULT:      -7.9      3.367      7.327
  Name = 
  2 active torsions:
  status: ('A' for Active; 'I' for Inactive)
    1  A    between atoms: C_5  and  C_30
    2  A    between atoms: C_10  and  N_16
                            x       y       z     vdW  Elec       q    Type
                         _______ _______ _______ _____ _____    ______ ____

>  <TORSDO>
F 2

$$$$
=
 OpenBabel11112417003D

 31 35  0  0  1  0  0  0  0  0999 V2000
  188.1430  176.1960  146.8870 C   0  0  0  0  0  0  0  0  0  0  0  0
  191.0240  174.0840  145.5870 C   0  0  2  0  0  3  0  0  0  0  0  0
  190.7500  173.4450  144.2400 C   0  0  0  0  0  0  0  0  0  0  0  0
  189.2000  172.7390  142.5070 C   0  0  0  0  0  0  0  0  0  0  0  0
  190.1330  175.2580  145.8750 C   0  0  0  0  0  0  0  0  0  0  0  0
  188.4780  177.4560  146.3800 C   0  0  0  0  0  3  0  0  0  0  0  0
  189.4420  173.3590  143.7350 C   0  0  0  0  0  3  0  0  0  0  0  0
  192.8820  175.8690  145.0810 C   0  0  1  0  0  3  0  0  0  0  0  0
  187.0160  176.0400  147.6220 F   0  0  0  0  0  0  0  0  0  0  0  0
  193.1160  172.8930  144.0120 O   0  0  0  0  0  0  0  0  0  0  0  0
  187.8140  172.6660  141.9760 C   0  0  0  0  0  1  0  0  0  0  0  0
  191.6930  176.6720  144.5280 C   0  0  0  0  0  2  0  0  0  0  0  0
  192.5050  174.4990  145.7310 C   0  0  2  0  0  3  0  0  0  0  0  0
  188.9680  175.0960  146.6330 C   0  0  0  0  0  3  0  0  0  0  0  0
  190.2570  172.1870  141.7800 C   0  0  0  0  0  3  0  0  0  0  0  0
  190.4730  176.5230  145.3770 C   0  0  0  0  0  0  0  0  0  0  0  0
  189.6410  177.6190  145.6210 C   0  0  0  0  0  3  0  0  0  0  0  0
  193.4120  173.3290  145.3380 C   0  0  0  0  0  2  0  0  0  0  0  0
  191.8080  172.8560  143.5170 C   0  0  0  0  0  0  0  0  0  0  0  0
  191.5580  172.2440  142.2850 C   0  0  0  0  0  3  0  0  0  0  0  0
  195.4140  177.2160  145.0140 O   0  0  0  0  0  0  0  0  0  0  0  0
  195.1320  176.4510  144.0540 C   0  0  0  0  0  0  0  0  0  0  0  0
  193.8980  175.7290  144.0450 N   0  0  0  0  0  2  0  0  0  0  0  0
  195.5750  173.9330  141.2510 C   0  0  1  0  0  3  0  0  0  0  0  0
  195.4030  176.4150  141.5580 C   0  0  0  0  0  2  0  0  0  0  0  0
  197.5490  174.9160  144.2630 O   0  0  0  0  0  1  0  0  0  0  0  0
  194.8010  172.6780  140.9080 C   0  0  0  0  0  1  0  0  0  0  0  0
  194.6380  175.1350  141.2160 C   0  0  0  0  0  2  0  0  0  0  0  0
  196.9770  175.0490  142.9970 C   0  0  2  0  0  3  0  0  0  0  0  0
  196.1030  176.3120  142.9170 C   0  0  2  0  0  3  0  0  0  0  0  0
  196.1940  173.7880  142.6380 C   0  0  0  0  0  2  0  0  0  0  0  0
  1  9  1  0  0  0  0
  2  3  1  6  0  0  0
  2 13  1  0  0  0  0
  2  5  1  0  0  0  0
  4  7  2  0  0  0  0
  5 14  2  0  0  0  0
  6  1  2  0  0  0  0
  7  3  1  0  0  0  0
  8 23  1  6  0  0  0
  8 13  1  0  0  0  0
 10 18  1  0  0  0  0
 11  4  1  0  0  0  0
 12  8  1  0  0  0  0
 12 16  1  0  0  0  0
 13 18  1  6  0  0  0
 14  1  1  0  0  0  0
 15 20  2  0  0  0  0
 15  4  1  0  0  0  0
 16 17  2  0  0  0  0
 16  5  1  0  0  0  0
 17  6  1  0  0  0  0
 19 10  1  0  0  0  0
 19  3  2  0  0  0  0
 20 19  1  0  0  0  0
 22 21  2  0  0  0  0
 23 22  1  0  0  0  0
 24 27  1  1  0  0  0
 24 31  1  0  0  0  0
 25 30  1  0  0  0  0
 28 24  1  0  0  0  0
 28 25  1  0  0  0  0
 29 26  1  1  0  0  0
 30 29  1  0  0  0  0
 30 22  1  1  0  0  0
 31 29  1  0  0  0  0
M  END
>  <MODEL>
9

>  <REMARK>
 VINA RESULT:      -7.8      3.853      7.334
  Name = 
  2 active torsions:
  status: ('A' for Active; 'I' for Inactive)
    1  A    between atoms: C_5  and  C_30
    2  A    between atoms: C_10  and  N_16
                            x       y       z     vdW  Elec       q    Type
                         _______ _______ _______ _____ _____    ______ ____

>  <TORSDO>
F 2

$$$$
