=
 OpenBabel11112417573D

 34 40  0  0  1  0  0  0  0  0999 V2000
  188.1900  175.6060  141.5210 C   0  0  0  0  0  0  0  0  0  0  0  0
  186.5530  176.8470  139.9600 N   0  0  0  0  0  0  0  0  0  0  0  0
  192.2090  176.3310  145.6240 C   0  0  0  0  0  2  0  0  0  0  0  0
  189.6000  174.5500  143.1930 C   0  0  0  0  0  0  0  0  0  0  0  0
  189.3290  175.1650  145.5260 C   0  0  0  0  0  0  0  0  0  0  0  0
  190.4010  176.4200  147.3820 C   0  0  0  0  0  2  0  0  0  0  0  0
  191.9040  176.4180  147.1160 C   0  0  0  0  0  2  0  0  0  0  0  0
  192.1590  173.8050  145.7910 C   0  0  0  0  0  2  0  0  0  0  0  0
  186.5540  177.2810  142.1460 C   0  0  0  0  0  0  0  0  0  0  0  0
  184.1410  178.9130  143.4980 C   0  0  0  0  0  2  0  0  0  0  0  0
  188.3410  176.0330  145.1690 N   0  0  0  0  0  0  0  0  0  0  0  0
  191.0300  173.3500  144.8670 C   0  0  0  0  0  2  0  0  0  0  0  0
  186.8870  177.1280  143.5430 N   0  0  0  0  0  0  0  0  0  0  0  0
  185.5030  177.7770  140.0990 N   0  0  0  0  0  0  0  0  0  0  0  0
  189.9900  174.3960  144.5350 C   0  0  0  0  0  0  0  0  0  0  0  0
  192.9210  175.0260  145.2790 C   0  0  0  0  0  2  0  0  0  0  0  0
  184.2000  178.0530  142.2240 C   0  0  2  0  0  3  0  0  0  0  0  0
  188.5810  175.4600  142.8640 C   0  0  0  0  0  0  0  0  0  0  0  0
  189.7270  175.1110  146.9690 C   0  0  0  0  0  2  0  0  0  0  0  0
  187.9480  176.2030  143.8800 C   0  0  0  0  0  0  0  0  0  0  0  0
  189.8240  173.9540  140.8950 C   0  0  0  0  0  3  0  0  0  0  0  0
  185.4490  179.0000  144.2880 C   0  0  0  0  0  2  0  0  0  0  0  0
  190.1900  173.8240  142.2000 N   0  0  0  0  0  0  0  0  0  0  0  0
  186.0070  177.6200  144.6060 C   0  0  0  0  0  2  0  0  0  0  0  0
  185.5540  178.1930  141.5200 C   0  0  1  0  0  3  0  0  0  0  0  0
  188.8150  174.8490  140.5290 C   0  0  0  0  0  3  0  0  0  0  0  0
  187.1270  176.5730  141.2150 C   0  0  0  0  0  0  0  0  0  0  0  0
  183.0460  178.4510  141.3150 C   0  0  0  0  0  2  0  0  0  0  0  0
  181.8010  178.4630  142.0660 N   0  0  0  0  0  2  0  0  0  0  0  0
  178.6770  179.0280  142.0750 O   0  0  0  0  0  0  0  0  0  0  0  0
  180.3640  179.6750  140.5530 C   0  0  0  0  0  2  0  0  0  0  0  0
  180.7180  178.3250  141.1070 C   0  0  2  0  0  3  0  0  0  0  0  0
  178.9390  179.8940  141.0040 C   0  0  0  0  0  2  0  0  0  0  0  0
  179.4620  177.8930  141.8280 C   0  0  0  0  0  2  0  0  0  0  0  0
  1 18  1  0  0  0  0
  2 14  2  0  0  0  0
  2 27  1  0  0  0  0
  3  7  1  0  0  0  0
  4 15  1  0  0  0  0
  5 19  1  0  0  0  0
  7  6  1  0  0  0  0
  9 13  1  0  0  0  0
 10 22  1  0  0  0  0
 11  5  1  0  0  0  0
 12  8  1  0  0  0  0
 13 20  1  0  0  0  0
 13 24  1  0  0  0  0
 15 12  1  0  0  0  0
 15  5  2  0  0  0  0
 16  3  1  0  0  0  0
 16  8  1  0  0  0  0
 17 28  1  6  0  0  0
 17 10  1  0  0  0  0
 18  4  2  0  0  0  0
 18 20  1  0  0  0  0
 19  6  1  0  0  0  0
 20 11  2  0  0  0  0
 21 23  2  0  0  0  0
 22 24  1  0  0  0  0
 23  4  1  0  0  0  0
 25 14  1  6  0  0  0
 25  9  1  0  0  0  0
 25 17  1  0  0  0  0
 26 21  1  0  0  0  0
 26  1  2  0  0  0  0
 27  1  1  0  0  0  0
 27  9  2  0  0  0  0
 28 29  1  0  0  0  0
 31 33  1  0  0  0  0
 31 32  1  0  0  0  0
 32 34  1  0  0  0  0
 32 29  1  1  0  0  0
 33 30  1  0  0  0  0
 34 30  1  0  0  0  0
M  END
>  <MODEL>
1

>  <REMARK>
 VINA RESULT:      -9.0      0.000      0.000
  Name = 
  3 active torsions:
  status: ('A' for Active; 'I' for Inactive)
    1  A    between atoms: C_17  and  C_28
    2  A    between atoms: C_28  and  N_29
    3  A    between atoms: N_29  and  C_32
                            x       y       z     vdW  Elec       q    Type
                         _______ _______ _______ _____ _____    ______ ____

>  <TORSDO>
F 3

$$$$
=
 OpenBabel11112417573D

 34 40  0  0  1  0  0  0  0  0999 V2000
  187.1580  176.4570  140.7330 C   0  0  0  0  0  0  0  0  0  0  0  0
  187.8780  174.8450  138.8510 N   0  0  0  0  0  0  0  0  0  0  0  0
  185.1110  176.7250  146.1410 C   0  0  0  0  0  2  0  0  0  0  0  0
  186.6700  177.8620  142.6530 C   0  0  0  0  0  0  0  0  0  0  0  0
  187.8040  177.4250  144.7550 C   0  0  0  0  0  0  0  0  0  0  0  0
  187.4590  176.5200  147.0420 C   0  0  0  0  0  2  0  0  0  0  0  0
  185.9860  176.7270  147.3900 C   0  0  0  0  0  2  0  0  0  0  0  0
  185.4850  179.2190  145.9100 C   0  0  0  0  0  2  0  0  0  0  0  0
  188.7240  174.6160  140.9010 C   0  0  0  0  0  0  0  0  0  0  0  0
  191.2960  172.7630  141.4170 C   0  0  0  0  0  2  0  0  0  0  0  0
  188.4650  176.3880  144.1680 N   0  0  0  0  0  0  0  0  0  0  0  0
  186.1790  179.4120  144.5620 C   0  0  0  0  0  2  0  0  0  0  0  0
  189.0070  174.9420  142.2790 N   0  0  0  0  0  0  0  0  0  0  0  0
  188.7910  173.7830  138.7000 N   0  0  0  0  0  0  0  0  0  0  0  0
  186.8790  178.1940  144.0040 C   0  0  0  0  0  0  0  0  0  0  0  0
  184.4590  178.0870  145.9200 C   0  0  0  0  0  2  0  0  0  0  0  0
  190.8110  173.5030  140.1590 C   0  0  2  0  0  3  0  0  0  0  0  0
  187.3660  176.7810  142.0850 C   0  0  0  0  0  0  0  0  0  0  0  0
  188.0370  177.6690  146.2150 C   0  0  0  0  0  2  0  0  0  0  0  0
  188.2780  176.0450  142.8670 C   0  0  0  0  0  0  0  0  0  0  0  0
  185.5910  178.2760  140.5680 C   0  0  0  0  0  3  0  0  0  0  0  0
  190.4220  172.9480  142.6600 C   0  0  0  0  0  2  0  0  0  0  0  0
  185.8050  178.5770  141.8780 N   0  0  0  0  0  0  0  0  0  0  0  0
  190.1880  174.4190  142.9690 C   0  0  0  0  0  2  0  0  0  0  0  0
  189.2820  173.5090  140.0700 C   0  0  1  0  0  3  0  0  0  0  0  0
  186.2640  177.2080  139.9690 C   0  0  0  0  0  3  0  0  0  0  0  0
  187.8970  175.3150  140.1770 C   0  0  0  0  0  0  0  0  0  0  0  0
  191.4460  172.8540  138.9370 C   0  0  0  0  0  2  0  0  0  0  0  0
  192.1360  171.6340  139.3240 N   0  0  0  0  0  2  0  0  0  0  0  0
  190.2860  169.0890  138.8920 O   0  0  0  0  0  0  0  0  0  0  0  0
  190.6550  170.9850  137.5320 C   0  0  0  0  0  2  0  0  0  0  0  0
  191.9310  170.6680  138.2570 C   0  0  2  0  0  3  0  0  0  0  0  0
  189.7820  169.7780  137.7800 C   0  0  0  0  0  2  0  0  0  0  0  0
  191.6720  169.3060  138.8580 C   0  0  0  0  0  2  0  0  0  0  0  0
  1 18  1  0  0  0  0
  2 27  1  0  0  0  0
  3  7  1  0  0  0  0
  4 15  1  0  0  0  0
  5 19  1  0  0  0  0
  6  7  1  0  0  0  0
  8 16  1  0  0  0  0
  9 13  1  0  0  0  0
 10 22  1  0  0  0  0
 11  5  1  0  0  0  0
 12  8  1  0  0  0  0
 13 20  1  0  0  0  0
 13 24  1  0  0  0  0
 14  2  2  0  0  0  0
 15 12  1  0  0  0  0
 15  5  2  0  0  0  0
 16  3  1  0  0  0  0
 17 28  1  6  0  0  0
 17 10  1  0  0  0  0
 18  4  2  0  0  0  0
 18 20  1  0  0  0  0
 19  6  1  0  0  0  0
 20 11  2  0  0  0  0
 21 23  2  0  0  0  0
 22 24  1  0  0  0  0
 23  4  1  0  0  0  0
 25 14  1  6  0  0  0
 25 17  1  0  0  0  0
 25  9  1  0  0  0  0
 26 21  1  0  0  0  0
 26  1  2  0  0  0  0
 27  1  1  0  0  0  0
 27  9  2  0  0  0  0
 28 29  1  0  0  0  0
 31 33  1  0  0  0  0
 31 32  1  0  0  0  0
 32 34  1  0  0  0  0
 32 29  1  1  0  0  0
 33 30  1  0  0  0  0
 34 30  1  0  0  0  0
M  END
>  <MODEL>
2

>  <REMARK>
 VINA RESULT:      -8.6      3.958      8.020
  Name = 
  3 active torsions:
  status: ('A' for Active; 'I' for Inactive)
    1  A    between atoms: C_17  and  C_28
    2  A    between atoms: C_28  and  N_29
    3  A    between atoms: N_29  and  C_32
                            x       y       z     vdW  Elec       q    Type
                         _______ _______ _______ _____ _____    ______ ____

>  <TORSDO>
F 3

$$$$
=
 OpenBabel11112417573D

 34 40  0  0  1  0  0  0  0  0999 V2000
  187.5540  176.1000  140.8680 C   0  0  0  0  0  0  0  0  0  0  0  0
  188.3920  174.3390  139.1790 N   0  0  0  0  0  0  0  0  0  0  0  0
  185.0240  176.8110  146.0270 C   0  0  0  0  0  2  0  0  0  0  0  0
  186.9360  177.6520  142.6310 C   0  0  0  0  0  0  0  0  0  0  0  0
  187.8560  177.3390  144.8570 C   0  0  0  0  0  0  0  0  0  0  0  0
  187.2710  176.6100  147.1580 C   0  0  0  0  0  2  0  0  0  0  0  0
  185.7800  176.8800  147.3490 C   0  0  0  0  0  2  0  0  0  0  0  0
  185.5000  179.2710  145.6590 C   0  0  0  0  0  2  0  0  0  0  0  0
  189.0360  174.2360  141.3110 C   0  0  0  0  0  0  0  0  0  0  0  0
  191.4880  172.3580  142.1950 C   0  0  0  0  0  2  0  0  0  0  0  0
  188.5340  176.2460  144.4080 N   0  0  0  0  0  0  0  0  0  0  0  0
  186.3210  179.3480  144.3730 C   0  0  0  0  0  2  0  0  0  0  0  0
  189.2020  174.6530  142.6830 N   0  0  0  0  0  0  0  0  0  0  0  0
  189.2800  173.2450  139.1890 N   0  0  0  0  0  0  0  0  0  0  0  0
  187.0300  178.0750  143.9690 C   0  0  0  0  0  0  0  0  0  0  0  0
  184.4410  178.1700  145.6500 C   0  0  0  0  0  2  0  0  0  0  0  0
  191.1460  173.0190  140.8490 C   0  0  2  0  0  3  0  0  0  0  0  0
  187.6470  176.5160  142.2080 C   0  0  0  0  0  0  0  0  0  0  0  0
  187.9600  177.6810  146.3110 C   0  0  0  0  0  2  0  0  0  0  0  0
  188.4580  175.8140  143.1220 C   0  0  0  0  0  0  0  0  0  0  0  0
  186.0700  177.9430  140.4290 C   0  0  0  0  0  3  0  0  0  0  0  0
  190.5090  172.6550  143.3350 C   0  0  0  0  0  2  0  0  0  0  0  0
  186.1710  178.3320  141.7300 N   0  0  0  0  0  0  0  0  0  0  0  0
  190.2960  174.1510  143.5170 C   0  0  0  0  0  2  0  0  0  0  0  0
  189.6330  173.0580  140.6150 C   0  0  1  0  0  3  0  0  0  0  0  0
  186.7600  176.8170  139.9720 C   0  0  0  0  0  3  0  0  0  0  0  0
  188.3040  174.9030  140.4650 C   0  0  0  0  0  0  0  0  0  0  0  0
  191.8700  172.2670  139.7410 C   0  0  0  0  0  2  0  0  0  0  0  0
  193.1910  172.8390  139.5320 N   0  0  0  0  0  2  0  0  0  0  0  0
  195.0460  175.1970  138.4950 O   0  0  0  0  0  0  0  0  0  0  0  0
  192.9440  174.4310  137.7350 C   0  0  0  0  0  2  0  0  0  0  0  0
  193.0060  174.2470  139.2240 C   0  0  2  0  0  3  0  0  0  0  0  0
  194.1480  175.2880  137.4220 C   0  0  0  0  0  2  0  0  0  0  0  0
  194.2420  175.0150  139.6300 C   0  0  0  0  0  2  0  0  0  0  0  0
  1 18  1  0  0  0  0
  2 14  2  0  0  0  0
  2 27  1  0  0  0  0
  3  7  1  0  0  0  0
  4 15  1  0  0  0  0
  5 19  1  0  0  0  0
  6  7  1  0  0  0  0
  9 13  1  0  0  0  0
 10 22  1  0  0  0  0
 11  5  1  0  0  0  0
 12  8  1  0  0  0  0
 13 20  1  0  0  0  0
 13 24  1  0  0  0  0
 15 12  1  0  0  0  0
 15  5  2  0  0  0  0
 16  8  1  0  0  0  0
 16  3  1  0  0  0  0
 17 28  1  6  0  0  0
 17 10  1  0  0  0  0
 18  4  2  0  0  0  0
 18 20  1  0  0  0  0
 19  6  1  0  0  0  0
 20 11  2  0  0  0  0
 21 23  2  0  0  0  0
 22 24  1  0  0  0  0
 23  4  1  0  0  0  0
 25 14  1  6  0  0  0
 25 17  1  0  0  0  0
 25  9  1  0  0  0  0
 26 21  1  0  0  0  0
 26  1  2  0  0  0  0
 27  1  1  0  0  0  0
 27  9  2  0  0  0  0
 29 28  1  0  0  0  0
 30 34  1  0  0  0  0
 31 32  1  0  0  0  0
 32 29  1  6  0  0  0
 32 34  1  0  0  0  0
 33 31  1  0  0  0  0
 33 30  1  0  0  0  0
M  END
>  <MODEL>
3

>  <REMARK>
 VINA RESULT:      -8.4      4.195      8.208
  Name = 
  3 active torsions:
  status: ('A' for Active; 'I' for Inactive)
    1  A    between atoms: C_17  and  C_28
    2  A    between atoms: C_28  and  N_29
    3  A    between atoms: N_29  and  C_32
                            x       y       z     vdW  Elec       q    Type
                         _______ _______ _______ _____ _____    ______ ____

>  <TORSDO>
F 3

$$$$
=
 OpenBabel11112417573D

 34 40  0  0  1  0  0  0  0  0999 V2000
  190.7990  176.8170  146.1320 C   0  0  0  0  0  0  0  0  0  0  0  0
  193.3530  176.4960  146.3130 N   0  0  0  0  0  0  0  0  0  0  0  0
  186.5840  179.0870  142.8760 C   0  0  0  0  0  2  0  0  0  0  0  0
  188.4090  176.9860  145.7300 C   0  0  0  0  0  0  0  0  0  0  0  0
  187.5090  176.2120  143.6120 C   0  0  0  0  0  0  0  0  0  0  0  0
  186.5500  176.9980  141.4600 C   0  0  0  0  0  2  0  0  0  0  0  0
  185.8990  178.3530  141.7270 C   0  0  0  0  0  2  0  0  0  0  0  0
  185.0250  177.9330  144.5040 C   0  0  0  0  0  2  0  0  0  0  0  0
  192.2870  175.9250  144.4400 C   0  0  0  0  0  0  0  0  0  0  0  0
  193.7320  174.1120  142.2180 C   0  0  0  0  0  2  0  0  0  0  0  0
  188.7670  175.8660  143.2190 N   0  0  0  0  0  0  0  0  0  0  0  0
  185.9230  177.1120  145.4280 C   0  0  0  0  0  2  0  0  0  0  0  0
  191.1750  175.6610  143.5570 N   0  0  0  0  0  0  0  0  0  0  0  0
  194.3810  175.9530  145.5170 N   0  0  0  0  0  0  0  0  0  0  0  0
  187.2990  176.7880  144.8900 C   0  0  0  0  0  0  0  0  0  0  0  0
  185.6410  179.2590  144.0630 C   0  0  0  0  0  2  0  0  0  0  0  0
  193.9630  174.2420  143.7330 C   0  0  2  0  0  3  0  0  0  0  0  0
  189.6920  176.6220  145.2860 C   0  0  0  0  0  0  0  0  0  0  0  0
  186.3920  176.0270  142.6310 C   0  0  0  0  0  2  0  0  0  0  0  0
  189.8570  176.0500  144.0090 C   0  0  0  0  0  0  0  0  0  0  0  0
  189.3240  177.7160  147.8070 C   0  0  0  0  0  3  0  0  0  0  0  0
  192.6010  174.9760  141.6540 C   0  0  0  0  0  2  0  0  0  0  0  0
  188.2630  177.5210  146.9760 N   0  0  0  0  0  0  0  0  0  0  0  0
  191.2980  174.7600  142.4090 C   0  0  0  0  0  2  0  0  0  0  0  0
  193.7410  175.6800  144.2090 C   0  0  1  0  0  3  0  0  0  0  0  0
  190.6150  177.3680  147.4000 C   0  0  0  0  0  3  0  0  0  0  0  0
  192.1250  176.4320  145.6290 C   0  0  0  0  0  0  0  0  0  0  0  0
  195.3670  173.7500  144.0540 C   0  0  0  0  0  2  0  0  0  0  0  0
  196.0160  173.2690  142.8450 N   0  0  0  0  0  2  0  0  0  0  0  0
  197.0390  176.0520  141.7080 O   0  0  0  0  0  0  0  0  0  0  0  0
  197.3860  175.0110  143.8010 C   0  0  0  0  0  2  0  0  0  0  0  0
  197.3000  173.9430  142.7490 C   0  0  2  0  0  3  0  0  0  0  0  0
  197.4950  176.2950  143.0120 C   0  0  0  0  0  2  0  0  0  0  0  0
  197.3670  174.7130  141.4500 C   0  0  0  0  0  2  0  0  0  0  0  0
  1 26  1  0  0  0  0
  3 16  1  0  0  0  0
  4 23  2  0  0  0  0
  5 15  2  0  0  0  0
  6  7  1  0  0  0  0
  6 19  1  0  0  0  0
  7  3  1  0  0  0  0
  8 12  1  0  0  0  0
  9 27  2  0  0  0  0
 10 17  1  0  0  0  0
 11  5  1  0  0  0  0
 11 20  2  0  0  0  0
 13 20  1  0  0  0  0
 13  9  1  0  0  0  0
 14  2  2  0  0  0  0
 15 12  1  0  0  0  0
 15  4  1  0  0  0  0
 16  8  1  0  0  0  0
 17 28  1  6  0  0  0
 17 25  1  0  0  0  0
 18  4  1  0  0  0  0
 18  1  2  0  0  0  0
 19  5  1  0  0  0  0
 20 18  1  0  0  0  0
 22 10  1  0  0  0  0
 22 24  1  0  0  0  0
 23 21  1  0  0  0  0
 24 13  1  0  0  0  0
 25  9  1  1  0  0  0
 25 14  1  0  0  0  0
 26 21  2  0  0  0  0
 27  1  1  0  0  0  0
 27  2  1  0  0  0  0
 29 28  1  0  0  0  0
 30 33  1  0  0  0  0
 32 29  1  6  0  0  0
 32 31  1  0  0  0  0
 33 31  1  0  0  0  0
 34 30  1  0  0  0  0
 34 32  1  0  0  0  0
M  END
>  <MODEL>
4

>  <REMARK>
 VINA RESULT:      -8.3      4.474     10.022
  Name = 
  3 active torsions:
  status: ('A' for Active; 'I' for Inactive)
    1  A    between atoms: C_17  and  C_28
    2  A    between atoms: C_28  and  N_29
    3  A    between atoms: N_29  and  C_32
                            x       y       z     vdW  Elec       q    Type
                         _______ _______ _______ _____ _____    ______ ____

>  <TORSDO>
F 3

$$$$
=
 OpenBabel11112417573D

 34 40  0  0  1  0  0  0  0  0999 V2000
  191.0370  176.7130  146.0840 C   0  0  0  0  0  0  0  0  0  0  0  0
  193.5940  176.4640  146.3120 N   0  0  0  0  0  0  0  0  0  0  0  0
  186.8230  178.9160  142.7800 C   0  0  0  0  0  2  0  0  0  0  0  0
  188.6520  176.8210  145.6360 C   0  0  0  0  0  0  0  0  0  0  0  0
  187.8170  176.0560  143.4880 C   0  0  0  0  0  0  0  0  0  0  0  0
  186.8780  176.8510  141.3300 C   0  0  0  0  0  2  0  0  0  0  0  0
  186.1830  178.1820  141.6060 C   0  0  0  0  0  2  0  0  0  0  0  0
  185.2660  177.6900  144.3570 C   0  0  0  0  0  2  0  0  0  0  0  0
  192.5840  175.8940  144.4090 C   0  0  0  0  0  0  0  0  0  0  0  0
  194.1250  174.1600  142.1870 C   0  0  0  0  0  2  0  0  0  0  0  0
  189.0920  175.7540  143.1150 N   0  0  0  0  0  0  0  0  0  0  0  0
  186.1690  176.8800  145.2860 C   0  0  0  0  0  2  0  0  0  0  0  0
  191.4980  175.6120  143.4990 N   0  0  0  0  0  0  0  0  0  0  0  0
  194.6530  175.9640  145.5280 N   0  0  0  0  0  0  0  0  0  0  0  0
  187.5640  176.6050  144.7710 C   0  0  0  0  0  0  0  0  0  0  0  0
  185.8520  179.0410  143.9510 C   0  0  0  0  0  2  0  0  0  0  0  0
  194.3220  174.2710  143.7080 C   0  0  2  0  0  3  0  0  0  0  0  0
  189.9530  176.5010  145.2130 C   0  0  0  0  0  0  0  0  0  0  0  0
  186.7260  175.8560  142.4820 C   0  0  0  0  0  2  0  0  0  0  0  0
  190.1600  175.9560  143.9300 C   0  0  0  0  0  0  0  0  0  0  0  0
  189.5030  177.5420  147.7430 C   0  0  0  0  0  3  0  0  0  0  0  0
  192.9810  175.0010  141.6140 C   0  0  0  0  0  2  0  0  0  0  0  0
  188.4650  177.3300  146.8880 N   0  0  0  0  0  0  0  0  0  0  0  0
  191.6690  174.7350  142.3390 C   0  0  0  0  0  2  0  0  0  0  0  0
  194.0480  175.6950  144.2040 C   0  0  1  0  0  3  0  0  0  0  0  0
  190.8120  177.2380  147.3570 C   0  0  0  0  0  3  0  0  0  0  0  0
  192.3830  176.3760  145.6020 C   0  0  0  0  0  0  0  0  0  0  0  0
  195.7330  173.8150  144.0500 C   0  0  0  0  0  2  0  0  0  0  0  0
  195.7750  172.3650  144.1580 N   0  0  0  0  0  2  0  0  0  0  0  0
  195.2770  169.6950  145.8020 O   0  0  0  0  0  0  0  0  0  0  0  0
  196.8160  171.4560  146.1360 C   0  0  0  0  0  2  0  0  0  0  0  0
  195.5570  172.0310  145.5560 C   0  0  2  0  0  3  0  0  0  0  0  0
  196.4340  170.0430  146.5130 C   0  0  0  0  0  2  0  0  0  0  0  0
  194.5660  170.8940  145.6510 C   0  0  0  0  0  2  0  0  0  0  0  0
  1 26  1  0  0  0  0
  3 16  1  0  0  0  0
  4 23  2  0  0  0  0
  5 15  2  0  0  0  0
  6  7  1  0  0  0  0
  6 19  1  0  0  0  0
  7  3  1  0  0  0  0
  8 12  1  0  0  0  0
  9 27  2  0  0  0  0
 10 17  1  0  0  0  0
 11  5  1  0  0  0  0
 11 20  2  0  0  0  0
 13 20  1  0  0  0  0
 13  9  1  0  0  0  0
 14  2  2  0  0  0  0
 15 12  1  0  0  0  0
 15  4  1  0  0  0  0
 16  8  1  0  0  0  0
 17 28  1  6  0  0  0
 17 25  1  0  0  0  0
 18  4  1  0  0  0  0
 18  1  2  0  0  0  0
 19  5  1  0  0  0  0
 20 18  1  0  0  0  0
 22 10  1  0  0  0  0
 22 24  1  0  0  0  0
 23 21  1  0  0  0  0
 24 13  1  0  0  0  0
 25  9  1  1  0  0  0
 25 14  1  0  0  0  0
 26 21  2  0  0  0  0
 27  1  1  0  0  0  0
 27  2  1  0  0  0  0
 28 29  1  0  0  0  0
 30 33  1  0  0  0  0
 31 33  1  0  0  0  0
 32 29  1  6  0  0  0
 32 34  1  0  0  0  0
 32 31  1  0  0  0  0
 34 30  1  0  0  0  0
M  END
>  <MODEL>
5

>  <REMARK>
 VINA RESULT:      -8.2      4.645     10.206
  Name = 
  3 active torsions:
  status: ('A' for Active; 'I' for Inactive)
    1  A    between atoms: C_17  and  C_28
    2  A    between atoms: C_28  and  N_29
    3  A    between atoms: N_29  and  C_32
                            x       y       z     vdW  Elec       q    Type
                         _______ _______ _______ _____ _____    ______ ____

>  <TORSDO>
F 3

$$$$
=
 OpenBabel11112417573D

 34 40  0  0  1  0  0  0  0  0999 V2000
  192.2240  176.3460  145.7010 C   0  0  0  0  0  0  0  0  0  0  0  0
  189.8160  176.2220  146.6180 N   0  0  0  0  0  0  0  0  0  0  0  0
  196.3490  173.3520  142.9550 C   0  0  0  0  0  2  0  0  0  0  0  0
  194.3870  176.4090  144.5980 C   0  0  0  0  0  0  0  0  0  0  0  0
  194.5390  175.7810  142.2570 C   0  0  0  0  0  0  0  0  0  0  0  0
  195.3350  173.9880  140.7340 C   0  0  0  0  0  2  0  0  0  0  0  0
  196.4900  173.2810  141.4380 C   0  0  0  0  0  2  0  0  0  0  0  0
  197.6060  175.5500  142.9390 C   0  0  0  0  0  2  0  0  0  0  0  0
  190.2380  175.6330  144.5100 C   0  0  0  0  0  0  0  0  0  0  0  0
  187.8460  175.2670  142.3980 C   0  0  0  0  0  2  0  0  0  0  0  0
  193.1970  175.5470  142.2470 N   0  0  0  0  0  0  0  0  0  0  0  0
  196.6390  176.5870  143.5080 C   0  0  0  0  0  2  0  0  0  0  0  0
  190.9920  175.4660  143.2900 N   0  0  0  0  0  0  0  0  0  0  0  0
  188.5360  175.9160  146.1120 N   0  0  0  0  0  0  0  0  0  0  0  0
  195.1730  176.2210  143.4470 C   0  0  0  0  0  0  0  0  0  0  0  0
  197.4780  174.1690  143.5780 C   0  0  0  0  0  2  0  0  0  0  0  0
  187.9500  176.1070  143.6820 C   0  0  2  0  0  3  0  0  0  0  0  0
  193.0060  176.1500  144.5490 C   0  0  0  0  0  0  0  0  0  0  0  0
  195.3110  175.4930  141.0060 C   0  0  0  0  0  2  0  0  0  0  0  0
  192.4160  175.7170  143.3450 C   0  0  0  0  0  0  0  0  0  0  0  0
  194.1980  177.0400  146.8890 C   0  0  0  0  0  3  0  0  0  0  0  0
  189.1040  174.4750  142.0330 C   0  0  0  0  0  2  0  0  0  0  0  0
  194.9410  176.8460  145.7650 N   0  0  0  0  0  0  0  0  0  0  0  0
  190.3360  175.3670  141.9840 C   0  0  0  0  0  2  0  0  0  0  0  0
  188.7850  175.3930  144.7500 C   0  0  1  0  0  3  0  0  0  0  0  0
  192.8230  176.7920  146.8790 C   0  0  0  0  0  3  0  0  0  0  0  0
  190.7860  176.0570  145.6130 C   0  0  0  0  0  0  0  0  0  0  0  0
  186.5440  176.4150  144.1770 C   0  0  0  0  0  2  0  0  0  0  0  0
  186.1330  177.7330  143.7190 N   0  0  0  0  0  2  0  0  0  0  0  0
  183.6940  179.0400  145.2760 O   0  0  0  0  0  0  0  0  0  0  0  0
  185.5040  177.7330  146.0490 C   0  0  0  0  0  2  0  0  0  0  0  0
  185.9820  178.5700  144.8970 C   0  0  2  0  0  3  0  0  0  0  0  0
  184.1490  178.3090  146.3830 C   0  0  0  0  0  2  0  0  0  0  0  0
  184.8540  179.5500  144.6750 C   0  0  0  0  0  2  0  0  0  0  0  0
  1 26  1  0  0  0  0
  3 16  1  0  0  0  0
  4 23  2  0  0  0  0
  5 15  2  0  0  0  0
  6 19  1  0  0  0  0
  6  7  1  0  0  0  0
  7  3  1  0  0  0  0
  8 12  1  0  0  0  0
  8 16  1  0  0  0  0
  9 27  2  0  0  0  0
 10 17  1  0  0  0  0
 11  5  1  0  0  0  0
 11 20  2  0  0  0  0
 13 20  1  0  0  0  0
 13  9  1  0  0  0  0
 14  2  2  0  0  0  0
 15 12  1  0  0  0  0
 15  4  1  0  0  0  0
 17 28  1  1  0  0  0
 17 25  1  0  0  0  0
 18  4  1  0  0  0  0
 18  1  2  0  0  0  0
 19  5  1  0  0  0  0
 20 18  1  0  0  0  0
 22 10  1  0  0  0  0
 23 21  1  0  0  0  0
 24 22  1  0  0  0  0
 24 13  1  0  0  0  0
 25  9  1  6  0  0  0
 25 14  1  0  0  0  0
 26 21  2  0  0  0  0
 27  1  1  0  0  0  0
 27  2  1  0  0  0  0
 29 28  1  0  0  0  0
 30 33  1  0  0  0  0
 31 33  1  0  0  0  0
 32 29  1  6  0  0  0
 32 31  1  0  0  0  0
 34 32  1  0  0  0  0
 34 30  1  0  0  0  0
M  END
>  <MODEL>
6

>  <REMARK>
 VINA RESULT:      -8.1      3.154      6.259
  Name = 
  3 active torsions:
  status: ('A' for Active; 'I' for Inactive)
    1  A    between atoms: C_17  and  C_28
    2  A    between atoms: C_28  and  N_29
    3  A    between atoms: N_29  and  C_32
                            x       y       z     vdW  Elec       q    Type
                         _______ _______ _______ _____ _____    ______ ____

>  <TORSDO>
F 3

$$$$
=
 OpenBabel11112417573D

 34 40  0  0  1  0  0  0  0  0999 V2000
  190.0290  173.6100  142.5890 C   0  0  0  0  0  0  0  0  0  0  0  0
  187.7380  174.7510  142.2650 N   0  0  0  0  0  0  0  0  0  0  0  0
  195.7250  174.5680  142.9800 C   0  0  0  0  0  2  0  0  0  0  0  0
  192.2130  172.6860  143.1120 C   0  0  0  0  0  0  0  0  0  0  0  0
  193.4950  173.6430  144.9390 C   0  0  0  0  0  0  0  0  0  0  0  0
  195.4760  175.0530  145.4440 C   0  0  0  0  0  2  0  0  0  0  0  0
  196.4520  174.8890  144.2810 C   0  0  0  0  0  2  0  0  0  0  0  0
  195.8640  172.1030  143.5440 C   0  0  0  0  0  2  0  0  0  0  0  0
  189.1370  175.4860  143.8360 C   0  0  0  0  0  0  0  0  0  0  0  0
  188.1210  177.4870  146.1340 C   0  0  0  0  0  2  0  0  0  0  0  0
  192.4860  174.5310  145.1630 N   0  0  0  0  0  0  0  0  0  0  0  0
  194.4190  171.6180  143.6460 C   0  0  0  0  0  2  0  0  0  0  0  0
  190.2970  175.5040  144.6970 N   0  0  0  0  0  0  0  0  0  0  0  0
  187.0000  175.7750  142.8930 N   0  0  0  0  0  0  0  0  0  0  0  0
  193.3820  172.6900  143.8950 C   0  0  0  0  0  0  0  0  0  0  0  0
  196.0820  173.1730  142.4760 C   0  0  0  0  0  2  0  0  0  0  0  0
  187.3680  176.4550  145.2780 C   0  0  2  0  0  3  0  0  0  0  0  0
  191.1980  173.6220  143.3710 C   0  0  0  0  0  0  0  0  0  0  0  0
  194.7310  173.7600  145.7760 C   0  0  0  0  0  2  0  0  0  0  0  0
  191.3490  174.5500  144.4200 C   0  0  0  0  0  0  0  0  0  0  0  0
  190.9180  171.7560  141.3390 C   0  0  0  0  0  3  0  0  0  0  0  0
  189.6280  177.5750  145.8760 C   0  0  0  0  0  2  0  0  0  0  0  0
  192.0440  171.7810  142.1060 N   0  0  0  0  0  0  0  0  0  0  0  0
  190.2970  176.2120  145.9790 C   0  0  0  0  0  2  0  0  0  0  0  0
  187.9440  176.3810  143.8600 C   0  0  1  0  0  3  0  0  0  0  0  0
  189.8880  172.6720  141.5660 C   0  0  0  0  0  3  0  0  0  0  0  0
  188.9930  174.6090  142.8840 C   0  0  0  0  0  0  0  0  0  0  0  0
  185.8900  176.8150  145.2700 C   0  0  0  0  0  2  0  0  0  0  0  0
  185.7010  178.1550  145.8030 N   0  0  0  0  0  2  0  0  0  0  0  0
  186.0020  179.5120  142.9490 O   0  0  0  0  0  0  0  0  0  0  0  0
  184.4300  177.9470  143.7620 C   0  0  0  0  0  2  0  0  0  0  0  0
  184.8160  178.8590  144.8900 C   0  0  2  0  0  3  0  0  0  0  0  0
  185.0070  178.6150  142.5360 C   0  0  0  0  0  2  0  0  0  0  0  0
  185.5830  179.9690  144.2070 C   0  0  0  0  0  2  0  0  0  0  0  0
  1 27  1  0  0  0  0
  1 18  1  0  0  0  0
  2 27  1  0  0  0  0
  2 14  2  0  0  0  0
  3  7  1  0  0  0  0
  4 18  2  0  0  0  0
  4 15  1  0  0  0  0
  5 11  1  0  0  0  0
  5 19  1  0  0  0  0
  6 19  1  0  0  0  0
  7  6  1  0  0  0  0
  8 12  1  0  0  0  0
  9 25  1  0  0  0  0
  9 13  1  0  0  0  0
 12 15  1  0  0  0  0
 13 24  1  0  0  0  0
 15  5  2  0  0  0  0
 16  3  1  0  0  0  0
 16  8  1  0  0  0  0
 17 28  1  6  0  0  0
 17 10  1  0  0  0  0
 18 20  1  0  0  0  0
 20 13  1  0  0  0  0
 20 11  2  0  0  0  0
 21 26  1  0  0  0  0
 21 23  2  0  0  0  0
 22 24  1  0  0  0  0
 22 10  1  0  0  0  0
 23  4  1  0  0  0  0
 25 14  1  6  0  0  0
 25 17  1  0  0  0  0
 26  1  2  0  0  0  0
 27  9  2  0  0  0  0
 28 29  1  0  0  0  0
 30 34  1  0  0  0  0
 31 32  1  0  0  0  0
 32 29  1  1  0  0  0
 33 30  1  0  0  0  0
 33 31  1  0  0  0  0
 34 32  1  0  0  0  0
M  END
>  <MODEL>
7

>  <REMARK>
 VINA RESULT:      -8.0      2.952      4.602
  Name = 
  3 active torsions:
  status: ('A' for Active; 'I' for Inactive)
    1  A    between atoms: C_17  and  C_28
    2  A    between atoms: C_28  and  N_29
    3  A    between atoms: N_29  and  C_32
                            x       y       z     vdW  Elec       q    Type
                         _______ _______ _______ _____ _____    ______ ____

>  <TORSDO>
F 3

$$$$
=
 OpenBabel11112417573D

 34 40  0  0  1  0  0  0  0  0999 V2000
  190.5380  172.8620  143.1480 C   0  0  0  0  0  0  0  0  0  0  0  0
  188.2260  173.6130  142.2850 N   0  0  0  0  0  0  0  0  0  0  0  0
  196.1900  174.1150  143.0950 C   0  0  0  0  0  2  0  0  0  0  0  0
  192.7320  172.3920  144.0790 C   0  0  0  0  0  0  0  0  0  0  0  0
  193.9310  174.1630  145.2300 C   0  0  0  0  0  0  0  0  0  0  0  0
  195.8550  175.7190  145.0140 C   0  0  0  0  0  2  0  0  0  0  0  0
  196.8690  175.0530  144.0870 C   0  0  0  0  0  2  0  0  0  0  0  0
  196.3840  172.2370  144.7820 C   0  0  0  0  0  2  0  0  0  0  0  0
  189.5570  175.0700  143.3220 C   0  0  0  0  0  0  0  0  0  0  0  0
  188.4160  177.8900  144.3540 C   0  0  0  0  0  2  0  0  0  0  0  0
  192.8910  175.0080  144.9850 N   0  0  0  0  0  0  0  0  0  0  0  0
  194.9510  171.8040  145.0880 C   0  0  0  0  0  2  0  0  0  0  0  0
  190.6890  175.5470  144.0800 N   0  0  0  0  0  0  0  0  0  0  0  0
  187.4410  174.7830  142.3310 N   0  0  0  0  0  0  0  0  0  0  0  0
  193.8770  172.8210  144.7750 C   0  0  0  0  0  0  0  0  0  0  0  0
  196.6020  172.6650  143.3320 C   0  0  0  0  0  2  0  0  0  0  0  0
  187.7190  176.5440  144.0940 C   0  0  2  0  0  3  0  0  0  0  0  0
  191.6830  173.2960  143.8410 C   0  0  0  0  0  0  0  0  0  0  0  0
  195.1380  174.7180  145.9210 C   0  0  0  0  0  2  0  0  0  0  0  0
  191.7770  174.6210  144.3110 C   0  0  0  0  0  0  0  0  0  0  0  0
  191.5180  170.6720  142.9610 C   0  0  0  0  0  3  0  0  0  0  0  0
  189.9260  177.9020  144.1030 C   0  0  0  0  0  2  0  0  0  0  0  0
  192.6190  171.1080  143.6340 N   0  0  0  0  0  0  0  0  0  0  0  0
  190.6310  176.7860  144.8600 C   0  0  0  0  0  2  0  0  0  0  0  0
  188.3370  175.8170  142.8960 C   0  0  1  0  0  3  0  0  0  0  0  0
  190.4550  171.5420  142.7050 C   0  0  0  0  0  3  0  0  0  0  0  0
  189.4660  173.8380  142.9110 C   0  0  0  0  0  0  0  0  0  0  0  0
  186.2310  176.7960  143.8960 C   0  0  0  0  0  2  0  0  0  0  0  0
  185.9020  178.1590  144.2810 N   0  0  0  0  0  2  0  0  0  0  0  0
  185.9960  177.0670  147.2610 O   0  0  0  0  0  0  0  0  0  0  0  0
  185.2800  179.1450  146.3950 C   0  0  0  0  0  2  0  0  0  0  0  0
  184.9630  178.0780  145.3880 C   0  0  2  0  0  3  0  0  0  0  0  0
  185.6610  178.3750  147.6380 C   0  0  0  0  0  2  0  0  0  0  0  0
  185.1920  176.7910  146.1450 C   0  0  0  0  0  2  0  0  0  0  0  0
  1 18  1  0  0  0  0
  2 14  2  0  0  0  0
  2 27  1  0  0  0  0
  3 16  1  0  0  0  0
  3  7  1  0  0  0  0
  4 15  1  0  0  0  0
  5 19  1  0  0  0  0
  6 19  1  0  0  0  0
  7  6  1  0  0  0  0
  8 12  1  0  0  0  0
  9 13  1  0  0  0  0
 11  5  1  0  0  0  0
 13 20  1  0  0  0  0
 13 24  1  0  0  0  0
 15 12  1  0  0  0  0
 15  5  2  0  0  0  0
 16  8  1  0  0  0  0
 17 28  1  6  0  0  0
 17 10  1  0  0  0  0
 18  4  2  0  0  0  0
 18 20  1  0  0  0  0
 20 11  2  0  0  0  0
 21 23  2  0  0  0  0
 22 10  1  0  0  0  0
 22 24  1  0  0  0  0
 23  4  1  0  0  0  0
 25 14  1  1  0  0  0
 25  9  1  0  0  0  0
 25 17  1  0  0  0  0
 26 21  1  0  0  0  0
 26  1  2  0  0  0  0
 27  1  1  0  0  0  0
 27  9  2  0  0  0  0
 28 29  1  0  0  0  0
 30 33  1  0  0  0  0
 31 33  1  0  0  0  0
 32 29  1  6  0  0  0
 32 34  1  0  0  0  0
 32 31  1  0  0  0  0
 34 30  1  0  0  0  0
M  END
>  <MODEL>
8

>  <REMARK>
 VINA RESULT:      -8.0      3.587      5.187
  Name = 
  3 active torsions:
  status: ('A' for Active; 'I' for Inactive)
    1  A    between atoms: C_17  and  C_28
    2  A    between atoms: C_28  and  N_29
    3  A    between atoms: N_29  and  C_32
                            x       y       z     vdW  Elec       q    Type
                         _______ _______ _______ _____ _____    ______ ____

>  <TORSDO>
F 3

$$$$
=
 OpenBabel11112417573D

 34 40  0  0  1  0  0  0  0  0999 V2000
  189.9250  177.0310  146.5620 C   0  0  0  0  0  0  0  0  0  0  0  0
  187.4040  177.5430  146.7570 N   0  0  0  0  0  0  0  0  0  0  0  0
  193.7810  173.1030  144.7670 C   0  0  0  0  0  2  0  0  0  0  0  0
  192.2600  176.5320  146.1160 C   0  0  0  0  0  0  0  0  0  0  0  0
  192.9340  175.9520  143.8560 C   0  0  0  0  0  0  0  0  0  0  0  0
  193.6640  174.0520  142.4320 C   0  0  0  0  0  2  0  0  0  0  0  0
  194.3410  173.0370  143.3510 C   0  0  0  0  0  2  0  0  0  0  0  0
  195.4990  174.8740  145.3340 C   0  0  0  0  0  2  0  0  0  0  0  0
  188.2680  176.9200  144.7980 C   0  0  0  0  0  0  0  0  0  0  0  0
  186.5960  177.2780  142.0790 C   0  0  0  0  0  2  0  0  0  0  0  0
  191.6410  176.0920  143.4490 N   0  0  0  0  0  0  0  0  0  0  0  0
  194.7020  176.1190  145.7190 C   0  0  0  0  0  2  0  0  0  0  0  0
  189.2810  176.5880  143.8240 N   0  0  0  0  0  0  0  0  0  0  0  0
  186.2980  177.6120  145.8860 N   0  0  0  0  0  0  0  0  0  0  0  0
  193.2770  176.1680  145.2150 C   0  0  0  0  0  0  0  0  0  0  0  0
  194.8430  173.5630  145.7620 C   0  0  0  0  0  2  0  0  0  0  0  0
  186.5240  178.0220  143.4230 C   0  0  2  0  0  3  0  0  0  0  0  0
  190.9380  176.6610  145.6580 C   0  0  0  0  0  0  0  0  0  0  0  0
  193.9420  175.4980  142.8450 C   0  0  0  0  0  2  0  0  0  0  0  0
  190.6400  176.4390  144.2990 C   0  0  0  0  0  0  0  0  0  0  0  0
  191.5680  177.1280  148.3180 C   0  0  0  0  0  3  0  0  0  0  0  0
  187.6630  176.1830  141.9950 C   0  0  0  0  0  2  0  0  0  0  0  0
  192.5360  176.7700  147.4300 N   0  0  0  0  0  0  0  0  0  0  0  0
  189.0380  176.7070  142.3850 C   0  0  0  0  0  2  0  0  0  0  0  0
  186.7970  177.0780  144.5980 C   0  0  1  0  0  3  0  0  0  0  0  0
  190.2410  177.2650  147.9000 C   0  0  0  0  0  3  0  0  0  0  0  0
  188.5540  177.1480  146.0480 C   0  0  0  0  0  0  0  0  0  0  0  0
  185.1610  178.6890  143.5370 C   0  0  0  0  0  2  0  0  0  0  0  0
  184.1580  177.8930  142.8470 N   0  0  0  0  0  2  0  0  0  0  0  0
  182.5340  177.5410  140.1410 O   0  0  0  0  0  0  0  0  0  0  0  0
  181.9810  178.6630  142.1450 C   0  0  0  0  0  2  0  0  0  0  0  0
  183.4620  178.7810  141.9300 C   0  0  2  0  0  3  0  0  0  0  0  0
  181.4620  178.1200  140.8350 C   0  0  0  0  0  2  0  0  0  0  0  0
  183.6580  178.2920  140.5140 C   0  0  0  0  0  2  0  0  0  0  0  0
  1 26  1  0  0  0  0
  3 16  1  0  0  0  0
  4 23  2  0  0  0  0
  5 15  2  0  0  0  0
  6 19  1  0  0  0  0
  6  7  1  0  0  0  0
  7  3  1  0  0  0  0
  8 12  1  0  0  0  0
  8 16  1  0  0  0  0
  9 27  2  0  0  0  0
 10 17  1  0  0  0  0
 11  5  1  0  0  0  0
 11 20  2  0  0  0  0
 13 20  1  0  0  0  0
 13  9  1  0  0  0  0
 14  2  2  0  0  0  0
 15 12  1  0  0  0  0
 15  4  1  0  0  0  0
 17 28  1  1  0  0  0
 17 25  1  0  0  0  0
 18  4  1  0  0  0  0
 18  1  2  0  0  0  0
 19  5  1  0  0  0  0
 20 18  1  0  0  0  0
 22 10  1  0  0  0  0
 22 24  1  0  0  0  0
 23 21  1  0  0  0  0
 24 13  1  0  0  0  0
 25  9  1  1  0  0  0
 25 14  1  0  0  0  0
 26 21  2  0  0  0  0
 27  1  1  0  0  0  0
 27  2  1  0  0  0  0
 29 28  1  0  0  0  0
 30 34  1  0  0  0  0
 30 33  1  0  0  0  0
 32 31  1  0  0  0  0
 32 29  1  1  0  0  0
 33 31  1  0  0  0  0
 34 32  1  0  0  0  0
M  END
>  <MODEL>
9

>  <REMARK>
 VINA RESULT:      -8.0      2.126      4.592
  Name = 
  3 active torsions:
  status: ('A' for Active; 'I' for Inactive)
    1  A    between atoms: C_17  and  C_28
    2  A    between atoms: C_28  and  N_29
    3  A    between atoms: N_29  and  C_32
                            x       y       z     vdW  Elec       q    Type
                         _______ _______ _______ _____ _____    ______ ____

>  <TORSDO>
F 3

$$$$
