=
 OpenBabel11112416123D

 30 35  0  0  1  0  0  0  0  0999 V2000
  186.6040  177.6830  143.8040 C   0  0  0  0  0  0  0  0  0  0  0  0
  184.7780  178.7140  145.1820 C   0  0  0  0  0  0  0  0  0  0  0  0
  188.3890  175.8620  147.2230 C   0  0  0  0  0  2  0  0  0  0  0  0
  187.7600  176.8660  143.7540 C   0  0  0  0  0  0  0  0  0  0  0  0
  186.1710  178.3750  142.5400 C   0  0  0  0  0  2  0  0  0  0  0  0
  187.7180  176.1160  140.1310 O   0  0  0  0  0  0  0  0  0  0  0  0
  190.6530  177.0170  143.2350 C   0  0  1  0  0  3  0  0  0  0  0  0
  187.4480  176.6530  141.2400 C   0  0  0  0  0  0  0  0  0  0  0  0
  190.7560  176.3410  144.6020 C   0  0  2  0  0  3  0  0  0  0  0  0
  189.5510  175.1870  146.4690 C   0  0  1  0  0  3  0  0  0  0  0  0
  186.3130  177.5210  141.3610 N   0  0  0  0  0  0  0  0  0  0  0  0
  188.2700  176.3050  142.4470 C   0  0  1  0  0  3  0  0  0  0  0  0
  184.1780  178.8870  146.4330 C   0  0  0  0  0  3  0  0  0  0  0  0
  191.9220  175.3830  144.5050 C   0  0  0  0  0  2  0  0  0  0  0  0
  192.0940  177.0930  142.7540 C   0  0  0  0  0  2  0  0  0  0  0  0
  184.1830  179.3330  144.0890 O   0  0  0  0  0  1  0  0  0  0  0  0
  187.6450  176.5550  146.1390 C   0  0  0  0  0  0  0  0  0  0  0  0
  184.7120  178.2870  147.5710 C   0  0  0  0  0  3  0  0  0  0  0  0
  185.9500  177.9210  145.0540 C   0  0  0  0  0  0  0  0  0  0  0  0
  188.2880  176.3840  144.9520 C   0  0  0  0  0  0  0  0  0  0  0  0
  189.3390  173.6860  146.4450 C   0  0  0  0  0  1  0  0  0  0  0  0
  189.5300  175.7110  145.1010 N   0  0  0  0  0  0  0  0  0  0  0  0
  192.8870  176.0530  143.5420 C   0  0  0  0  0  2  0  0  0  0  0  0
  190.2360  174.8750  141.8780 C   0  0  0  0  0  1  0  0  0  0  0  0
  185.8590  177.5050  147.4710 C   0  0  0  0  0  3  0  0  0  0  0  0
  186.4800  177.3170  146.2330 C   0  0  0  0  0  0  0  0  0  0  0  0
  189.7810  176.2970  142.1860 C   0  0  2  0  0  3  0  0  0  0  0  0
  185.4040  177.6720  140.2240 C   0  0  0  0  0  2  0  0  0  0  0  0
  183.2420  178.0800  140.3980 C   0  0  0  0  0  1  0  0  0  0  0  0
  184.4870  178.7050  140.4380 O   0  0  0  0  0  0  0  0  0  0  0  0
  1 19  1  0  0  0  0
  2 13  1  0  0  0  0
  4  1  2  0  0  0  0
  4 20  1  0  0  0  0
  5  1  1  0  0  0  0
  6  8  2  0  0  0  0
  7 15  1  6  0  0  0
  7  9  1  0  0  0  0
  8 11  1  0  0  0  0
  9 14  1  6  0  0  0
  9 22  1  0  0  0  0
 10 21  1  6  0  0  0
 10  3  1  0  0  0  0
 11  5  1  0  0  0  0
 12  8  1  6  0  0  0
 12  4  1  0  0  0  0
 13 18  2  0  0  0  0
 15 23  1  0  0  0  0
 16  2  1  0  0  0  0
 17 26  1  0  0  0  0
 17  3  1  0  0  0  0
 19  2  2  0  0  0  0
 19 26  1  0  0  0  0
 20 22  1  0  0  0  0
 20 17  2  0  0  0  0
 22 10  1  0  0  0  0
 23 14  1  0  0  0  0
 25 18  1  0  0  0  0
 26 25  2  0  0  0  0
 27 24  1  1  0  0  0
 27 12  1  0  0  0  0
 27  7  1  0  0  0  0
 28 30  1  0  0  0  0
 28 11  1  0  0  0  0
 29 30  1  0  0  0  0
M  END
>  <MODEL>
1

>  <REMARK>
 VINA RESULT:      -8.9      0.000      0.000
  Name = 
  2 active torsions:
  status: ('A' for Active; 'I' for Inactive)
    1  A    between atoms: N_11  and  C_28
    2  A    between atoms: C_28  and  O_30
                            x       y       z     vdW  Elec       q    Type
                         _______ _______ _______ _____ _____    ______ ____

>  <TORSDO>
F 2

$$$$
=
 OpenBabel11112416123D

 30 35  0  0  1  0  0  0  0  0999 V2000
  187.7510  176.6690  145.7440 C   0  0  0  0  0  0  0  0  0  0  0  0
  185.9320  177.7620  147.0840 C   0  0  0  0  0  0  0  0  0  0  0  0
  185.6750  177.3190  142.0750 C   0  0  0  0  0  2  0  0  0  0  0  0
  188.2480  176.2890  144.4750 C   0  0  0  0  0  0  0  0  0  0  0  0
  188.5250  176.2480  146.9630 C   0  0  0  0  0  2  0  0  0  0  0  0
  191.8010  175.8500  145.4110 O   0  0  0  0  0  0  0  0  0  0  0  0
  188.8390  173.8950  142.8680 C   0  0  1  0  0  3  0  0  0  0  0  0
  190.5530  176.0090  145.5090 C   0  0  0  0  0  0  0  0  0  0  0  0
  187.9440  174.5800  141.8360 C   0  0  2  0  0  3  0  0  0  0  0  0
  186.7320  176.6660  141.1640 C   0  0  1  0  0  3  0  0  0  0  0  0
  189.9710  176.3610  146.7710 N   0  0  0  0  0  0  0  0  0  0  0  0
  189.6990  175.9140  144.2780 C   0  0  1  0  0  3  0  0  0  0  0  0
  184.7020  178.4270  147.1080 C   0  0  0  0  0  3  0  0  0  0  0  0
  188.5480  174.2660  140.4870 C   0  0  0  0  0  2  0  0  0  0  0  0
  189.3310  172.6450  142.1540 C   0  0  0  0  0  2  0  0  0  0  0  0
  186.5760  177.5510  148.2960 O   0  0  0  0  0  1  0  0  0  0  0  0
  186.2680  177.1760  143.4300 C   0  0  0  0  0  0  0  0  0  0  0  0
  184.0030  178.6840  145.9310 C   0  0  0  0  0  3  0  0  0  0  0  0
  186.4880  177.3350  145.8480 C   0  0  0  0  0  0  0  0  0  0  0  0
  187.4430  176.4940  143.3540 C   0  0  0  0  0  0  0  0  0  0  0  0
  187.4250  177.7350  140.3410 C   0  0  0  0  0  1  0  0  0  0  0  0
  187.7050  176.0110  142.0430 N   0  0  0  0  0  0  0  0  0  0  0  0
  189.1620  172.8870  140.6550 C   0  0  0  0  0  2  0  0  0  0  0  0
  190.9930  175.1670  142.2790 C   0  0  0  0  0  1  0  0  0  0  0  0
  184.5290  178.2760  144.7080 C   0  0  0  0  0  3  0  0  0  0  0  0
  185.7560  177.6080  144.6540 C   0  0  0  0  0  0  0  0  0  0  0  0
  190.0390  174.7200  143.3790 C   0  0  2  0  0  3  0  0  0  0  0  0
  190.8480  176.6590  147.9050 C   0  0  0  0  0  2  0  0  0  0  0  0
  191.4450  178.0370  149.5230 C   0  0  0  0  0  1  0  0  0  0  0  0
  190.6030  177.9360  148.4160 O   0  0  0  0  0  0  0  0  0  0  0  0
  1 19  1  0  0  0  0
  1  5  1  0  0  0  0
  2 13  1  0  0  0  0
  2 16  1  0  0  0  0
  3 17  1  0  0  0  0
  4  1  2  0  0  0  0
  6  8  2  0  0  0  0
  7 15  1  6  0  0  0
  7 27  1  0  0  0  0
  8 11  1  0  0  0  0
  9 14  1  6  0  0  0
  9 22  1  0  0  0  0
  9  7  1  0  0  0  0
 10 21  1  1  0  0  0
 10 22  1  0  0  0  0
 10  3  1  0  0  0  0
 11  5  1  0  0  0  0
 11 28  1  0  0  0  0
 12  4  1  1  0  0  0
 12  8  1  0  0  0  0
 14 23  1  0  0  0  0
 17 26  1  0  0  0  0
 18 13  2  0  0  0  0
 19  2  2  0  0  0  0
 20 17  2  0  0  0  0
 20  4  1  0  0  0  0
 22 20  1  0  0  0  0
 23 15  1  0  0  0  0
 25 18  1  0  0  0  0
 26 25  2  0  0  0  0
 26 19  1  0  0  0  0
 27 24  1  6  0  0  0
 27 12  1  0  0  0  0
 28 30  1  0  0  0  0
 30 29  1  0  0  0  0
M  END
>  <MODEL>
2

>  <REMARK>
 VINA RESULT:      -8.6      2.610      5.276
  Name = 
  2 active torsions:
  status: ('A' for Active; 'I' for Inactive)
    1  A    between atoms: N_11  and  C_28
    2  A    between atoms: C_28  and  O_30
                            x       y       z     vdW  Elec       q    Type
                         _______ _______ _______ _____ _____    ______ ____

>  <TORSDO>
F 2

$$$$
=
 OpenBabel11112416123D

 30 35  0  0  1  0  0  0  0  0999 V2000
  187.3230  176.8460  142.6880 C   0  0  0  0  0  0  0  0  0  0  0  0
  185.1470  178.0850  142.8550 C   0  0  0  0  0  0  0  0  0  0  0  0
  187.7830  176.7380  146.9270 C   0  0  0  0  0  2  0  0  0  0  0  0
  188.4120  176.2310  143.3520 C   0  0  0  0  0  0  0  0  0  0  0  0
  187.3660  176.9330  141.1870 C   0  0  0  0  0  2  0  0  0  0  0  0
  189.6210  174.1390  140.5500 O   0  0  0  0  0  0  0  0  0  0  0  0
  191.3070  176.5430  143.7810 C   0  0  1  0  0  3  0  0  0  0  0  0
  188.9900  175.0230  141.1910 C   0  0  0  0  0  0  0  0  0  0  0  0
  190.9200  176.4680  145.2570 C   0  0  2  0  0  3  0  0  0  0  0  0
  189.1240  175.9810  146.9340 C   0  0  1  0  0  3  0  0  0  0  0  0
  187.8970  175.7160  140.5740 N   0  0  0  0  0  0  0  0  0  0  0  0
  189.3370  175.2800  142.6290 C   0  0  1  0  0  3  0  0  0  0  0  0
  184.1520  178.6490  143.6600 C   0  0  0  0  0  3  0  0  0  0  0  0
  192.0330  175.7070  145.9410 C   0  0  0  0  0  2  0  0  0  0  0  0
  192.8270  176.6130  143.8040 C   0  0  0  0  0  2  0  0  0  0  0  0
  184.9770  178.1500  141.4780 O   0  0  0  0  0  1  0  0  0  0  0  0
  187.4720  176.8550  145.4790 C   0  0  0  0  0  0  0  0  0  0  0  0
  184.2490  178.6110  145.0490 C   0  0  0  0  0  3  0  0  0  0  0  0
  186.2790  177.4630  143.4480 C   0  0  0  0  0  0  0  0  0  0  0  0
  188.4840  176.3230  144.7420 C   0  0  0  0  0  0  0  0  0  0  0  0
  188.9130  174.5730  147.4570 C   0  0  0  0  0  1  0  0  0  0  0  0
  189.5880  175.9270  145.5450 N   0  0  0  0  0  0  0  0  0  0  0  0
  193.2820  176.0710  145.1570 C   0  0  0  0  0  2  0  0  0  0  0  0
  191.3580  174.0080  143.3610 C   0  0  0  0  0  1  0  0  0  0  0  0
  185.3480  178.0070  145.6530 C   0  0  0  0  0  3  0  0  0  0  0  0
  186.3580  177.4360  144.8720 C   0  0  0  0  0  0  0  0  0  0  0  0
  190.8440  175.3660  142.8970 C   0  0  2  0  0  3  0  0  0  0  0  0
  187.4410  175.2960  139.2480 C   0  0  0  0  0  2  0  0  0  0  0  0
  186.7500  175.9240  137.2480 C   0  0  0  0  0  1  0  0  0  0  0  0
  186.7910  176.3360  138.5790 O   0  0  0  0  0  0  0  0  0  0  0  0
  1  4  2  0  0  0  0
  1 19  1  0  0  0  0
  2 19  2  0  0  0  0
  2 13  1  0  0  0  0
  3 10  1  0  0  0  0
  4 20  1  0  0  0  0
  5  1  1  0  0  0  0
  6  8  2  0  0  0  0
  7 15  1  1  0  0  0
  7  9  1  0  0  0  0
  9 22  1  0  0  0  0
  9 14  1  1  0  0  0
 10 21  1  6  0  0  0
 11  5  1  0  0  0  0
 11  8  1  0  0  0  0
 12  8  1  6  0  0  0
 12 27  1  0  0  0  0
 12  4  1  0  0  0  0
 13 18  2  0  0  0  0
 15 23  1  0  0  0  0
 16  2  1  0  0  0  0
 17  3  1  0  0  0  0
 18 25  1  0  0  0  0
 19 26  1  0  0  0  0
 20 17  2  0  0  0  0
 20 22  1  0  0  0  0
 22 10  1  0  0  0  0
 23 14  1  0  0  0  0
 26 17  1  0  0  0  0
 26 25  2  0  0  0  0
 27 24  1  1  0  0  0
 27  7  1  0  0  0  0
 28 11  1  0  0  0  0
 29 30  1  0  0  0  0
 30 28  1  0  0  0  0
M  END
>  <MODEL>
3

>  <REMARK>
 VINA RESULT:      -8.5      1.481      2.160
  Name = 
  2 active torsions:
  status: ('A' for Active; 'I' for Inactive)
    1  A    between atoms: N_11  and  C_28
    2  A    between atoms: C_28  and  O_30
                            x       y       z     vdW  Elec       q    Type
                         _______ _______ _______ _____ _____    ______ ____

>  <TORSDO>
F 2

$$$$
=
 OpenBabel11112416123D

 30 35  0  0  1  0  0  0  0  0999 V2000
  188.6840  176.0980  142.9600 C   0  0  0  0  0  0  0  0  0  0  0  0
  186.5400  177.4040  142.9350 C   0  0  0  0  0  0  0  0  0  0  0  0
  189.6320  177.4030  146.9090 C   0  0  0  0  0  2  0  0  0  0  0  0
  189.8430  175.7010  143.6690 C   0  0  0  0  0  0  0  0  0  0  0  0
  188.5520  175.6740  141.5230 C   0  0  0  0  0  2  0  0  0  0  0  0
  190.7200  172.7430  141.6260 O   0  0  0  0  0  0  0  0  0  0  0  0
  192.7680  176.0260  143.6480 C   0  0  1  0  0  3  0  0  0  0  0  0
  190.1670  173.8150  141.9950 C   0  0  0  0  0  0  0  0  0  0  0  0
  192.5540  176.4660  145.0960 C   0  0  2  0  0  3  0  0  0  0  0  0
  190.9650  176.6410  147.0240 C   0  0  1  0  0  3  0  0  0  0  0  0
  189.0090  174.3020  141.3040 N   0  0  0  0  0  0  0  0  0  0  0  0
  190.6780  174.5270  143.2150 C   0  0  1  0  0  3  0  0  0  0  0  0
  185.6460  178.2440  143.6050 C   0  0  0  0  0  3  0  0  0  0  0  0
  193.7390  175.9370  145.8710 C   0  0  0  0  0  2  0  0  0  0  0  0
  194.2800  176.0410  143.4800 C   0  0  0  0  0  2  0  0  0  0  0  0
  186.2130  177.0090  141.6440 O   0  0  0  0  0  1  0  0  0  0  0  0
  189.1550  177.0390  145.5500 C   0  0  0  0  0  0  0  0  0  0  0  0
  185.9030  178.6710  144.9060 C   0  0  0  0  0  3  0  0  0  0  0  0
  187.7340  176.9740  143.5760 C   0  0  0  0  0  0  0  0  0  0  0  0
  190.0750  176.2510  144.9300 C   0  0  0  0  0  0  0  0  0  0  0  0
  190.8170  175.5000  148.0130 C   0  0  0  0  0  1  0  0  0  0  0  0
  191.2650  176.1060  145.6930 N   0  0  0  0  0  0  0  0  0  0  0  0
  194.8890  175.9680  144.8790 C   0  0  0  0  0  2  0  0  0  0  0  0
  192.7710  173.4980  144.1070 C   0  0  0  0  0  1  0  0  0  0  0  0
  187.0650  178.2630  145.5550 C   0  0  0  0  0  3  0  0  0  0  0  0
  187.9780  177.4240  144.9070 C   0  0  0  0  0  0  0  0  0  0  0  0
  192.2060  174.6400  143.2710 C   0  0  2  0  0  3  0  0  0  0  0  0
  188.4030  173.4780  140.2560 C   0  0  0  0  0  2  0  0  0  0  0  0
  189.3000  173.7910  138.2630 C   0  0  0  0  0  1  0  0  0  0  0  0
  188.2400  174.2010  139.0710 O   0  0  0  0  0  0  0  0  0  0  0  0
  1 19  2  0  0  0  0
  1  4  1  0  0  0  0
  2 19  1  0  0  0  0
  2 13  2  0  0  0  0
  3 10  1  0  0  0  0
  4 20  2  0  0  0  0
  5  1  1  0  0  0  0
  6  8  2  0  0  0  0
  7 15  1  1  0  0  0
  7  9  1  0  0  0  0
  9 22  1  0  0  0  0
  9 14  1  1  0  0  0
 10 21  1  1  0  0  0
 11  5  1  0  0  0  0
 11  8  1  0  0  0  0
 12  8  1  6  0  0  0
 12 27  1  0  0  0  0
 12  4  1  0  0  0  0
 13 18  1  0  0  0  0
 15 23  1  0  0  0  0
 16  2  1  0  0  0  0
 17  3  1  0  0  0  0
 18 25  2  0  0  0  0
 19 26  1  0  0  0  0
 20 17  1  0  0  0  0
 20 22  1  0  0  0  0
 22 10  1  0  0  0  0
 23 14  1  0  0  0  0
 26 17  2  0  0  0  0
 26 25  1  0  0  0  0
 27  7  1  0  0  0  0
 27 24  1  1  0  0  0
 28 11  1  0  0  0  0
 29 30  1  0  0  0  0
 30 28  1  0  0  0  0
M  END
>  <MODEL>
4

>  <REMARK>
 VINA RESULT:      -8.2      2.096      3.425
  Name = 
  2 active torsions:
  status: ('A' for Active; 'I' for Inactive)
    1  A    between atoms: N_11  and  C_28
    2  A    between atoms: C_28  and  O_30
                            x       y       z     vdW  Elec       q    Type
                         _______ _______ _______ _____ _____    ______ ____

>  <TORSDO>
F 2

$$$$
=
 OpenBabel11112416123D

 30 35  0  0  1  0  0  0  0  0999 V2000
  188.0810  175.3180  142.7920 C   0  0  0  0  0  0  0  0  0  0  0  0
  189.4590  173.3390  142.0950 C   0  0  0  0  0  0  0  0  0  0  0  0
  189.8200  175.3720  146.6870 C   0  0  0  0  0  2  0  0  0  0  0  0
  187.7550  176.2650  143.7930 C   0  0  0  0  0  0  0  0  0  0  0  0
  187.2850  175.3320  141.5160 C   0  0  0  0  0  2  0  0  0  0  0  0
  186.1680  178.8020  141.6170 O   0  0  0  0  0  0  0  0  0  0  0  0
  185.5440  177.0530  145.5680 C   0  0  1  0  0  3  0  0  0  0  0  0
  186.6700  177.7130  142.0070 C   0  0  0  0  0  0  0  0  0  0  0  0
  186.5990  176.8990  146.6630 C   0  0  2  0  0  3  0  0  0  0  0  0
  189.0220  176.5800  147.2120 C   0  0  1  0  0  3  0  0  0  0  0  0
  186.9950  176.6900  141.0560 N   0  0  0  0  0  0  0  0  0  0  0  0
  187.0030  177.5330  143.4600 C   0  0  1  0  0  3  0  0  0  0  0  0
  190.4440  172.3990  142.4110 C   0  0  0  0  0  3  0  0  0  0  0  0
  186.3160  177.9890  147.6710 C   0  0  0  0  0  2  0  0  0  0  0  0
  184.3180  177.5650  146.3100 C   0  0  0  0  0  2  0  0  0  0  0  0
  188.8990  173.2860  140.8250 O   0  0  0  0  0  1  0  0  0  0  0  0
  189.3200  175.2210  145.2960 C   0  0  0  0  0  0  0  0  0  0  0  0
  191.0580  172.3980  143.6620 C   0  0  0  0  0  3  0  0  0  0  0  0
  189.0660  174.3120  143.0530 C   0  0  0  0  0  0  0  0  0  0  0  0
  188.3430  176.1350  145.0510 C   0  0  0  0  0  0  0  0  0  0  0  0
  189.9460  177.7730  147.3670 C   0  0  0  0  0  1  0  0  0  0  0  0
  187.9940  176.8780  146.2110 N   0  0  0  0  0  0  0  0  0  0  0  0
  184.8080  178.1670  147.6260 C   0  0  0  0  0  2  0  0  0  0  0  0
  186.1990  179.4360  144.8620 C   0  0  0  0  0  1  0  0  0  0  0  0
  190.6900  173.3420  144.6170 C   0  0  0  0  0  3  0  0  0  0  0  0
  189.7070  174.2930  144.3280 C   0  0  0  0  0  0  0  0  0  0  0  0
  185.9010  178.0110  144.4120 C   0  0  2  0  0  3  0  0  0  0  0  0
  186.8610  176.9740  139.6260 C   0  0  0  0  0  2  0  0  0  0  0  0
  186.6540  176.1380  137.5940 C   0  0  0  0  0  1  0  0  0  0  0  0
  187.1860  175.8570  138.8520 O   0  0  0  0  0  0  0  0  0  0  0  0
  1 19  2  0  0  0  0
  1  4  1  0  0  0  0
  2 13  2  0  0  0  0
  2 19  1  0  0  0  0
  3 10  1  0  0  0  0
  4 20  2  0  0  0  0
  5  1  1  0  0  0  0
  6  8  2  0  0  0  0
  7 15  1  1  0  0  0
  7  9  1  0  0  0  0
  9 14  1  1  0  0  0
 10 21  1  6  0  0  0
 11  5  1  0  0  0  0
 11  8  1  0  0  0  0
 12  8  1  6  0  0  0
 12  4  1  0  0  0  0
 12 27  1  0  0  0  0
 13 18  1  0  0  0  0
 15 23  1  0  0  0  0
 16  2  1  0  0  0  0
 17  3  1  0  0  0  0
 18 25  2  0  0  0  0
 19 26  1  0  0  0  0
 20 17  1  0  0  0  0
 20 22  1  0  0  0  0
 22  9  1  0  0  0  0
 22 10  1  0  0  0  0
 23 14  1  0  0  0  0
 26 25  1  0  0  0  0
 26 17  2  0  0  0  0
 27 24  1  1  0  0  0
 27  7  1  0  0  0  0
 28 11  1  0  0  0  0
 29 30  1  0  0  0  0
 30 28  1  0  0  0  0
M  END
>  <MODEL>
5

>  <REMARK>
 VINA RESULT:      -8.1      1.926      5.368
  Name = 
  2 active torsions:
  status: ('A' for Active; 'I' for Inactive)
    1  A    between atoms: N_11  and  C_28
    2  A    between atoms: C_28  and  O_30
                            x       y       z     vdW  Elec       q    Type
                         _______ _______ _______ _____ _____    ______ ____

>  <TORSDO>
F 2

$$$$
=
 OpenBabel11112416123D

 30 35  0  0  1  0  0  0  0  0999 V2000
  188.0100  175.8880  142.0040 C   0  0  0  0  0  0  0  0  0  0  0  0
  186.5040  177.0280  140.3510 C   0  0  0  0  0  0  0  0  0  0  0  0
  186.4910  178.2080  145.2440 C   0  0  0  0  0  2  0  0  0  0  0  0
  188.4360  175.7480  143.3470 C   0  0  0  0  0  0  0  0  0  0  0  0
  188.7360  175.1040  140.9450 C   0  0  0  0  0  2  0  0  0  0  0  0
  190.0200  172.4170  143.0500 O   0  0  0  0  0  0  0  0  0  0  0  0
  190.7750  176.2130  145.0710 C   0  0  1  0  0  3  0  0  0  0  0  0
  189.4890  173.5170  142.7330 C   0  0  0  0  0  0  0  0  0  0  0  0
  189.7750  176.9960  145.9200 C   0  0  2  0  0  3  0  0  0  0  0  0
  187.3730  177.5740  146.3360 C   0  0  1  0  0  3  0  0  0  0  0  0
  189.0640  173.7480  141.3840 N   0  0  0  0  0  0  0  0  0  0  0  0
  189.2270  174.5430  143.7980 C   0  0  1  0  0  3  0  0  0  0  0  0
  185.4940  177.9620  140.1010 C   0  0  0  0  0  3  0  0  0  0  0  0
  190.1650  176.7470  147.3580 C   0  0  0  0  0  2  0  0  0  0  0  0
  192.0620  176.2640  145.8800 C   0  0  0  0  0  2  0  0  0  0  0  0
  186.9900  176.2990  139.2720 O   0  0  0  0  0  1  0  0  0  0  0  0
  186.9070  177.4840  144.0160 C   0  0  0  0  0  0  0  0  0  0  0  0
  184.9500  178.7210  141.1350 C   0  0  0  0  0  3  0  0  0  0  0  0
  186.9950  176.8410  141.6710 C   0  0  0  0  0  0  0  0  0  0  0  0
  187.9120  176.6140  144.3070 C   0  0  0  0  0  0  0  0  0  0  0  0
  186.5170  176.7180  147.2490 C   0  0  0  0  0  1  0  0  0  0  0  0
  188.3590  176.7320  145.6500 N   0  0  0  0  0  0  0  0  0  0  0  0
  191.6750  176.5850  147.3220 C   0  0  0  0  0  2  0  0  0  0  0  0
  190.1960  173.8900  146.0050 C   0  0  0  0  0  1  0  0  0  0  0  0
  185.4140  178.5550  142.4370 C   0  0  0  0  0  3  0  0  0  0  0  0
  186.4240  177.6290  142.7140 C   0  0  0  0  0  0  0  0  0  0  0  0
  190.4010  174.7480  144.7620 C   0  0  2  0  0  3  0  0  0  0  0  0
  189.1330  172.6520  140.4150 C   0  0  0  0  0  2  0  0  0  0  0  0
  188.6540  172.6920  138.2610 C   0  0  0  0  0  1  0  0  0  0  0  0
  188.0590  172.6940  139.5210 O   0  0  0  0  0  0  0  0  0  0  0  0
  1  4  1  0  0  0  0
  2 19  1  0  0  0  0
  3 10  1  0  0  0  0
  4 12  1  0  0  0  0
  4 20  2  0  0  0  0
  5 11  1  0  0  0  0
  5  1  1  0  0  0  0
  7 15  1  1  0  0  0
  7  9  1  0  0  0  0
  8  6  2  0  0  0  0
  9 14  1  1  0  0  0
 10 21  1  1  0  0  0
 11  8  1  0  0  0  0
 12  8  1  6  0  0  0
 12 27  1  0  0  0  0
 13  2  2  0  0  0  0
 13 18  1  0  0  0  0
 15 23  1  0  0  0  0
 16  2  1  0  0  0  0
 17 20  1  0  0  0  0
 17  3  1  0  0  0  0
 18 25  2  0  0  0  0
 19  1  2  0  0  0  0
 19 26  1  0  0  0  0
 20 22  1  0  0  0  0
 22  9  1  0  0  0  0
 22 10  1  0  0  0  0
 23 14  1  0  0  0  0
 25 26  1  0  0  0  0
 26 17  2  0  0  0  0
 27  7  1  0  0  0  0
 27 24  1  1  0  0  0
 28 11  1  0  0  0  0
 29 30  1  0  0  0  0
 30 28  1  0  0  0  0
M  END
>  <MODEL>
6

>  <REMARK>
 VINA RESULT:      -8.1      2.163      4.414
  Name = 
  2 active torsions:
  status: ('A' for Active; 'I' for Inactive)
    1  A    between atoms: N_11  and  C_28
    2  A    between atoms: C_28  and  O_30
                            x       y       z     vdW  Elec       q    Type
                         _______ _______ _______ _____ _____    ______ ____

>  <TORSDO>
F 2

$$$$
=
 OpenBabel11112416123D

 30 35  0  0  1  0  0  0  0  0999 V2000
  189.3200  174.8740  141.6590 C   0  0  0  0  0  0  0  0  0  0  0  0
  189.4710  173.5430  139.5360 C   0  0  0  0  0  0  0  0  0  0  0  0
  193.2940  173.8280  142.8000 C   0  0  0  0  0  2  0  0  0  0  0  0
  189.9500  175.3290  142.8420 C   0  0  0  0  0  0  0  0  0  0  0  0
  187.8670  175.2070  141.4570 C   0  0  0  0  0  2  0  0  0  0  0  0
  187.6920  178.1650  143.5830 O   0  0  0  0  0  0  0  0  0  0  0  0
  189.8170  175.0390  145.7680 C   0  0  1  0  0  3  0  0  0  0  0  0
  188.1500  177.1110  143.0630 C   0  0  0  0  0  0  0  0  0  0  0  0
  191.2970  174.6870  145.6250 C   0  0  2  0  0  3  0  0  0  0  0  0
  193.3020  174.6120  144.1260 C   0  0  1  0  0  3  0  0  0  0  0  0
  187.5430  176.5680  141.8830 N   0  0  0  0  0  0  0  0  0  0  0  0
  189.3870  176.4830  143.6390 C   0  0  1  0  0  3  0  0  0  0  0  0
  190.2320  172.7360  138.6850 C   0  0  0  0  0  3  0  0  0  0  0  0
  191.9840  175.2770  146.8350 C   0  0  0  0  0  2  0  0  0  0  0  0
  189.5820  175.0320  147.2710 C   0  0  0  0  0  2  0  0  0  0  0  0
  188.1750  173.8530  139.1460 O   0  0  0  0  0  1  0  0  0  0  0  0
  191.9380  174.1020  142.2580 C   0  0  0  0  0  0  0  0  0  0  0  0
  191.5430  172.3930  139.0060 C   0  0  0  0  0  3  0  0  0  0  0  0
  190.0300  174.0260  140.7500 C   0  0  0  0  0  0  0  0  0  0  0  0
  191.2300  174.8610  143.1390 C   0  0  0  0  0  0  0  0  0  0  0  0
  194.2250  175.8100  144.0040 C   0  0  0  0  0  1  0  0  0  0  0  0
  191.9290  175.0680  144.3590 N   0  0  0  0  0  0  0  0  0  0  0  0
  190.9450  175.1990  147.9400 C   0  0  0  0  0  2  0  0  0  0  0  0
  190.1190  177.5910  145.7530 C   0  0  0  0  0  1  0  0  0  0  0  0
  192.1120  172.8550  140.1890 C   0  0  0  0  0  3  0  0  0  0  0  0
  191.3750  173.6630  141.0600 C   0  0  0  0  0  0  0  0  0  0  0  0
  189.3810  176.3920  145.1690 C   0  0  2  0  0  3  0  0  0  0  0  0
  186.4750  177.3180  141.2190 C   0  0  0  0  0  2  0  0  0  0  0  0
  184.4770  178.2440  141.3640 C   0  0  0  0  0  1  0  0  0  0  0  0
  185.2920  177.2850  141.9630 O   0  0  0  0  0  0  0  0  0  0  0  0
  1  4  1  0  0  0  0
  2 19  1  0  0  0  0
  3 10  1  0  0  0  0
  4 20  2  0  0  0  0
  5  1  1  0  0  0  0
  5 11  1  0  0  0  0
  7 15  1  1  0  0  0
  8  6  2  0  0  0  0
  8 12  1  0  0  0  0
  9  7  1  0  0  0  0
  9 14  1  1  0  0  0
 10 21  1  6  0  0  0
 10 22  1  0  0  0  0
 11  8  1  0  0  0  0
 12  4  1  6  0  0  0
 12 27  1  0  0  0  0
 13 18  1  0  0  0  0
 13  2  2  0  0  0  0
 14 23  1  0  0  0  0
 15 23  1  0  0  0  0
 16  2  1  0  0  0  0
 17  3  1  0  0  0  0
 17 20  1  0  0  0  0
 18 25  2  0  0  0  0
 19 26  1  0  0  0  0
 19  1  2  0  0  0  0
 20 22  1  0  0  0  0
 22  9  1  0  0  0  0
 25 26  1  0  0  0  0
 26 17  2  0  0  0  0
 27 24  1  1  0  0  0
 27  7  1  0  0  0  0
 28 11  1  0  0  0  0
 28 30  1  0  0  0  0
 29 30  1  0  0  0  0
M  END
>  <MODEL>
7

>  <REMARK>
 VINA RESULT:      -7.3      2.469      5.817
  Name = 
  2 active torsions:
  status: ('A' for Active; 'I' for Inactive)
    1  A    between atoms: N_11  and  C_28
    2  A    between atoms: C_28  and  O_30
                            x       y       z     vdW  Elec       q    Type
                         _______ _______ _______ _____ _____    ______ ____

>  <TORSDO>
F 2

$$$$
=
 OpenBabel11112416123D

 30 35  0  0  1  0  0  0  0  0999 V2000
  190.3460  172.8340  143.0930 C   0  0  0  0  0  0  0  0  0  0  0  0
  191.5850  170.6580  142.9210 C   0  0  0  0  0  0  0  0  0  0  0  0
  193.0580  174.3430  146.0200 C   0  0  0  0  0  2  0  0  0  0  0  0
  190.2510  174.1230  143.6710 C   0  0  0  0  0  0  0  0  0  0  0  0
  189.2380  172.3830  142.1820 C   0  0  0  0  0  2  0  0  0  0  0  0
  188.0150  175.6630  141.1580 O   0  0  0  0  0  0  0  0  0  0  0  0
  188.5590  175.7010  145.4900 C   0  0  1  0  0  3  0  0  0  0  0  0
  188.6570  174.7930  141.8080 C   0  0  0  0  0  0  0  0  0  0  0  0
  189.8750  175.9340  146.2310 C   0  0  2  0  0  3  0  0  0  0  0  0
  192.3690  175.7090  146.2010 C   0  0  1  0  0  3  0  0  0  0  0  0
  188.7680  173.4550  141.3050 N   0  0  0  0  0  0  0  0  0  0  0  0
  189.3750  175.1940  143.0650 C   0  0  1  0  0  3  0  0  0  0  0  0
  192.6650  169.8640  143.3190 C   0  0  0  0  0  3  0  0  0  0  0  0
  189.8170  177.3530  146.7470 C   0  0  0  0  0  2  0  0  0  0  0  0
  187.5520  176.5460  146.2560 C   0  0  0  0  0  2  0  0  0  0  0  0
  190.7100  170.1330  141.9790 O   0  0  0  0  0  1  0  0  0  0  0  0
  192.2120  173.6760  144.9960 C   0  0  0  0  0  0  0  0  0  0  0  0
  193.5900  170.3290  144.2520 C   0  0  0  0  0  3  0  0  0  0  0  0
  191.4140  171.9580  143.4690 C   0  0  0  0  0  0  0  0  0  0  0  0
  191.1600  174.4750  144.6700 C   0  0  0  0  0  0  0  0  0  0  0  0
  193.2400  176.8010  145.6090 C   0  0  0  0  0  1  0  0  0  0  0  0
  191.0970  175.6430  145.4760 N   0  0  0  0  0  0  0  0  0  0  0  0
  188.3440  177.5950  147.0330 C   0  0  0  0  0  2  0  0  0  0  0  0
  188.8810  177.5480  143.7320 C   0  0  0  0  0  1  0  0  0  0  0  0
  193.4440  171.5990  144.8020 C   0  0  0  0  0  3  0  0  0  0  0  0
  192.3720  172.4140  144.4230 C   0  0  0  0  0  0  0  0  0  0  0  0
  188.5450  176.0850  143.9950 C   0  0  2  0  0  3  0  0  0  0  0  0
  188.2420  173.1470  139.9740 C   0  0  0  0  0  2  0  0  0  0  0  0
  188.3730  174.0100  137.9460 C   0  0  0  0  0  1  0  0  0  0  0  0
  189.1570  173.4860  138.9740 O   0  0  0  0  0  0  0  0  0  0  0  0
  1 19  2  0  0  0  0
  1  4  1  0  0  0  0
  2 13  2  0  0  0  0
  2 19  1  0  0  0  0
  3 10  1  0  0  0  0
  4 20  2  0  0  0  0
  5  1  1  0  0  0  0
  6  8  2  0  0  0  0
  7  9  1  0  0  0  0
  7 15  1  1  0  0  0
  9 14  1  6  0  0  0
 10 21  1  6  0  0  0
 11  8  1  0  0  0  0
 11  5  1  0  0  0  0
 12  8  1  6  0  0  0
 12  4  1  0  0  0  0
 12 27  1  0  0  0  0
 13 18  1  0  0  0  0
 14 23  1  0  0  0  0
 15 23  1  0  0  0  0
 16  2  1  0  0  0  0
 17  3  1  0  0  0  0
 18 25  2  0  0  0  0
 19 26  1  0  0  0  0
 20 17  1  0  0  0  0
 20 22  1  0  0  0  0
 22 10  1  0  0  0  0
 22  9  1  0  0  0  0
 26 25  1  0  0  0  0
 26 17  2  0  0  0  0
 27 24  1  1  0  0  0
 27  7  1  0  0  0  0
 28 11  1  0  0  0  0
 29 30  1  0  0  0  0
 30 28  1  0  0  0  0
M  END
>  <MODEL>
8

>  <REMARK>
 VINA RESULT:      -7.3      3.064      6.506
  Name = 
  2 active torsions:
  status: ('A' for Active; 'I' for Inactive)
    1  A    between atoms: N_11  and  C_28
    2  A    between atoms: C_28  and  O_30
                            x       y       z     vdW  Elec       q    Type
                         _______ _______ _______ _____ _____    ______ ____

>  <TORSDO>
F 2

$$$$
=
 OpenBabel11112416123D

 30 35  0  0  1  0  0  0  0  0999 V2000
  190.4970  173.3140  142.7350 C   0  0  0  0  0  0  0  0  0  0  0  0
  192.2880  171.8490  143.7060 C   0  0  0  0  0  0  0  0  0  0  0  0
  191.5900  176.5960  145.2300 C   0  0  0  0  0  2  0  0  0  0  0  0
  189.8620  174.5800  142.7030 C   0  0  0  0  0  0  0  0  0  0  0  0
  189.9120  172.2080  141.9000 C   0  0  0  0  0  2  0  0  0  0  0  0
  188.2050  174.2540  139.4110 O   0  0  0  0  0  0  0  0  0  0  0  0
  187.3050  175.8790  143.3630 C   0  0  1  0  0  3  0  0  0  0  0  0
  188.8240  173.9540  140.4680 C   0  0  0  0  0  0  0  0  0  0  0  0
  188.1930  176.8220  144.1730 C   0  0  2  0  0  3  0  0  0  0  0  0
  190.5230  177.5740  144.7020 C   0  0  1  0  0  3  0  0  0  0  0  0
  189.4630  172.6760  140.5900 N   0  0  0  0  0  0  0  0  0  0  0  0
  188.9600  174.9780  141.5590 C   0  0  1  0  0  3  0  0  0  0  0  0
  193.3630  171.7020  144.5880 C   0  0  0  0  0  3  0  0  0  0  0  0
  187.5750  178.1950  144.0390 C   0  0  0  0  0  2  0  0  0  0  0  0
  185.9110  176.4700  143.5120 C   0  0  0  0  0  2  0  0  0  0  0  0
  191.9450  170.7570  142.9190 O   0  0  0  0  0  1  0  0  0  0  0  0
  191.3410  175.3670  144.4330 C   0  0  0  0  0  0  0  0  0  0  0  0
  193.7710  172.7570  145.4020 C   0  0  0  0  0  3  0  0  0  0  0  0
  191.5910  173.0850  143.6290 C   0  0  0  0  0  0  0  0  0  0  0  0
  190.2670  175.5520  143.6180 C   0  0  0  0  0  0  0  0  0  0  0  0
  191.1900  178.6650  143.8870 C   0  0  0  0  0  1  0  0  0  0  0  0
  189.6220  176.7980  143.8460 N   0  0  0  0  0  0  0  0  0  0  0  0
  186.0830  177.9310  143.9210 C   0  0  0  0  0  2  0  0  0  0  0  0
  187.6340  177.0420  141.0940 C   0  0  0  0  0  1  0  0  0  0  0  0
  193.1040  173.9780  145.3430 C   0  0  0  0  0  3  0  0  0  0  0  0
  192.0250  174.1520  144.4710 C   0  0  0  0  0  0  0  0  0  0  0  0
  187.6600  175.7290  141.8680 C   0  0  2  0  0  3  0  0  0  0  0  0
  189.4990  171.7820  139.4310 C   0  0  0  0  0  2  0  0  0  0  0  0
  191.3220  172.1700  138.2490 C   0  0  0  0  0  1  0  0  0  0  0  0
  190.7900  171.3000  139.2000 O   0  0  0  0  0  0  0  0  0  0  0  0
  1 19  1  0  0  0  0
  2 13  1  0  0  0  0
  4  1  2  0  0  0  0
  4 20  1  0  0  0  0
  5  1  1  0  0  0  0
  6  8  2  0  0  0  0
  7 15  1  6  0  0  0
  7  9  1  0  0  0  0
  8 11  1  0  0  0  0
  9 14  1  6  0  0  0
 10 21  1  6  0  0  0
 10  3  1  0  0  0  0
 11  5  1  0  0  0  0
 12  8  1  1  0  0  0
 12 27  1  0  0  0  0
 12  4  1  0  0  0  0
 13 18  2  0  0  0  0
 15 23  1  0  0  0  0
 16  2  1  0  0  0  0
 17 26  1  0  0  0  0
 17  3  1  0  0  0  0
 19  2  2  0  0  0  0
 19 26  1  0  0  0  0
 20 22  1  0  0  0  0
 20 17  2  0  0  0  0
 22  9  1  0  0  0  0
 22 10  1  0  0  0  0
 23 14  1  0  0  0  0
 25 18  1  0  0  0  0
 26 25  2  0  0  0  0
 27 24  1  1  0  0  0
 27  7  1  0  0  0  0
 28 11  1  0  0  0  0
 29 30  1  0  0  0  0
 30 28  1  0  0  0  0
M  END
>  <MODEL>
9

>  <REMARK>
 VINA RESULT:      -7.1      2.900      6.608
  Name = 
  2 active torsions:
  status: ('A' for Active; 'I' for Inactive)
    1  A    between atoms: N_11  and  C_28
    2  A    between atoms: C_28  and  O_30
                            x       y       z     vdW  Elec       q    Type
                         _______ _______ _______ _____ _____    ______ ____

>  <TORSDO>
F 2

$$$$
