=
 OpenBabel11112417543D

 34 40  0  0  1  0  0  0  0  0999 V2000
  190.0130  175.1960  142.7920 C   0  0  0  0  0  0  0  0  0  0  0  0
  192.2280  174.2040  142.1620 C   0  0  0  0  0  3  0  0  0  0  0  0
  184.0120  177.9280  146.4600 N   0  0  0  0  0  2  0  0  0  0  0  0
  188.0180  176.3120  143.6070 C   0  0  0  0  0  0  0  0  0  0  0  0
  187.8910  177.4060  145.8100 C   0  0  0  0  0  0  0  0  0  0  0  0
  186.1280  177.4890  147.5900 C   0  0  0  0  0  2  0  0  0  0  0  0
  184.8630  178.3330  147.5720 C   0  0  0  0  0  2  0  0  0  0  0  0
  185.4400  178.8130  144.6270 C   0  0  0  0  0  2  0  0  0  0  0  0
  191.9370  175.1710  144.2910 C   0  0  0  0  0  0  0  0  0  0  0  0
  194.5090  175.8950  146.0790 C   0  0  0  0  0  2  0  0  0  0  0  0
  189.2540  177.0180  146.0260 N   0  0  0  0  0  2  0  0  0  0  0  0
  185.8190  177.3580  144.3780 C   0  0  0  0  0  2  0  0  0  0  0  0
  191.3310  175.8890  145.2640 C   0  0  0  0  0  0  0  0  0  0  0  0
  193.3870  174.0960  142.8130 C   0  0  0  0  0  3  0  0  0  0  0  0
  187.2770  177.0800  144.6400 C   0  0  0  0  0  0  0  0  0  0  0  0
  184.1120  178.9100  145.3800 C   0  0  0  0  0  2  0  0  0  0  0  0
  194.3540  175.7090  144.5610 C   0  0  2  0  0  3  0  0  0  0  0  0
  189.2870  175.9400  143.8290 C   0  0  0  0  0  0  0  0  0  0  0  0
  187.2380  178.2370  146.8740 C   0  0  0  0  0  2  0  0  0  0  0  0
  189.9550  176.2860  145.0540 N   0  0  0  0  0  0  0  0  0  0  0  0
  187.9910  175.3220  141.4030 C   0  0  0  0  0  3  0  0  0  0  0  0
  193.2570  175.5820  146.9030 C   0  0  0  0  0  2  0  0  0  0  0  0
  187.3820  175.9740  142.3540 N   0  0  0  0  0  0  0  0  0  0  0  0
  192.0700  176.4290  146.4650 C   0  0  0  0  0  2  0  0  0  0  0  0
  193.3260  174.6170  144.2350 C   0  0  1  0  0  3  0  0  0  0  0  0
  189.3530  174.8990  141.5620 N   0  0  0  0  0  2  0  0  0  0  0  0
  191.2740  174.8480  143.0440 C   0  0  0  0  0  0  0  0  0  0  0  0
  195.7010  175.4050  143.9800 C   0  0  0  0  0  3  0  0  0  0  0  0
  196.1830  176.1300  143.0360 N   0  0  0  0  0  0  0  0  0  0  0  0
  197.6550  173.5370  141.9660 O   0  0  0  0  0  0  0  0  0  0  0  0
  197.3650  175.6670  140.9870 C   0  0  0  0  0  2  0  0  0  0  0  0
  197.4780  175.8420  142.4760 C   0  0  2  0  0  3  0  0  0  0  0  0
  197.7700  174.2320  140.7540 C   0  0  0  0  0  2  0  0  0  0  0  0
  197.9410  174.4860  142.9580 C   0  0  0  0  0  2  0  0  0  0  0  0
  1 27  2  0  0  0  0
  1 18  1  0  0  0  0
  2 14  2  0  0  0  0
  2 27  1  0  0  0  0
  3  7  1  0  0  0  0
  4 18  2  0  0  0  0
  4 15  1  0  0  0  0
  5 11  1  0  0  0  0
  5 19  1  0  0  0  0
  7  6  1  0  0  0  0
  8 16  1  0  0  0  0
  9 13  2  0  0  0  0
 10 22  1  0  0  0  0
 12  8  1  0  0  0  0
 12 15  1  0  0  0  0
 13 24  1  0  0  0  0
 15  5  2  0  0  0  0
 16  3  1  0  0  0  0
 17 28  1  1  0  0  0
 17 10  1  0  0  0  0
 18 20  1  0  0  0  0
 19  6  1  0  0  0  0
 20 13  1  0  0  0  0
 20 11  1  0  0  0  0
 21 26  1  0  0  0  0
 21 23  2  0  0  0  0
 23  4  1  0  0  0  0
 24 22  1  0  0  0  0
 25 14  1  6  0  0  0
 25  9  1  0  0  0  0
 25 17  1  0  0  0  0
 26  1  1  0  0  0  0
 27  9  1  0  0  0  0
 29 28  2  0  0  0  0
 30 34  1  0  0  0  0
 31 32  1  0  0  0  0
 32 34  1  0  0  0  0
 32 29  1  1  0  0  0
 33 31  1  0  0  0  0
 33 30  1  0  0  0  0
M  END
>  <MODEL>
1

>  <REMARK>
 VINA RESULT:      -9.0      0.000      0.000
  Name = 
  2 active torsions:
  status: ('A' for Active; 'I' for Inactive)
    1  A    between atoms: C_17  and  C_28
    2  A    between atoms: N_29  and  C_32
                            x       y       z     vdW  Elec       q    Type
                         _______ _______ _______ _____ _____    ______ ____

>  <TORSDO>
F 2

$$$$
=
 OpenBabel11112417543D

 34 40  0  0  1  0  0  0  0  0999 V2000
  191.0340  175.8780  146.0770 C   0  0  0  0  0  0  0  0  0  0  0  0
  193.1970  174.6150  146.1620 C   0  0  0  0  0  3  0  0  0  0  0  0
  184.6370  179.2750  143.9610 N   0  0  0  0  0  2  0  0  0  0  0  0
  188.8450  176.8910  145.8090 C   0  0  0  0  0  0  0  0  0  0  0  0
  187.3430  176.3730  143.9270 C   0  0  0  0  0  0  0  0  0  0  0  0
  185.8590  177.7760  142.4740 C   0  0  0  0  0  2  0  0  0  0  0  0
  184.4980  178.3420  142.8500 C   0  0  0  0  0  2  0  0  0  0  0  0
  185.1800  177.6000  145.7170 C   0  0  0  0  0  2  0  0  0  0  0  0
  191.7260  174.3030  144.3480 C   0  0  0  0  0  0  0  0  0  0  0  0
  192.1020  171.7700  142.4050 C   0  0  0  0  0  2  0  0  0  0  0  0
  188.3430  175.4680  143.4410 N   0  0  0  0  0  2  0  0  0  0  0  0
  186.6100  178.1110  145.5970 C   0  0  0  0  0  2  0  0  0  0  0  0
  190.5750  174.3960  143.6450 C   0  0  0  0  0  0  0  0  0  0  0  0
  193.7530  173.7190  145.3440 C   0  0  0  0  0  3  0  0  0  0  0  0
  187.5640  177.0650  145.0770 C   0  0  0  0  0  0  0  0  0  0  0  0
  184.1830  178.6390  145.1980 C   0  0  0  0  0  2  0  0  0  0  0  0
  192.5530  172.0060  143.8560 C   0  0  2  0  0  3  0  0  0  0  0  0
  189.7800  176.0550  145.3350 C   0  0  2  0  0  3  0  0  0  0  0  0
  186.0520  176.4390  143.1660 C   0  0  0  0  0  2  0  0  0  0  0  0
  189.5590  175.3060  144.1270 N   0  0  0  0  0  0  0  0  0  0  0  0
  190.1800  177.4770  147.7360 C   0  0  0  0  0  3  0  0  0  0  0  0
  191.4570  172.9790  141.7200 C   0  0  0  0  0  2  0  0  0  0  0  0
  189.0840  177.6080  147.0400 N   0  0  0  0  0  0  0  0  0  0  0  0
  190.2430  173.4790  142.4910 C   0  0  0  0  0  2  0  0  0  0  0  0
  192.9430  173.4720  144.0880 C   0  0  1  0  0  3  0  0  0  0  0  0
  191.2220  176.5930  147.2980 N   0  0  0  0  0  0  0  0  0  0  0  0
  191.9380  175.0350  145.5800 C   0  0  0  0  0  0  0  0  0  0  0  0
  193.6800  171.0680  144.1610 C   0  0  0  0  0  3  0  0  0  0  0  0
  193.4510  169.9300  144.7100 N   0  0  0  0  0  0  0  0  0  0  0  0
  196.0100  169.9990  146.5740 O   0  0  0  0  0  0  0  0  0  0  0  0
  194.3080  168.3780  146.3430 C   0  0  0  0  0  2  0  0  0  0  0  0
  194.5310  169.0250  145.0040 C   0  0  2  0  0  3  0  0  0  0  0  0
  195.4700  168.8570  147.1800 C   0  0  0  0  0  2  0  0  0  0  0  0
  195.8060  169.8140  145.1990 C   0  0  0  0  0  2  0  0  0  0  0  0
  1 26  1  0  0  0  0
  3 16  1  0  0  0  0
  4 23  2  0  0  0  0
  5 15  2  0  0  0  0
  6  7  1  0  0  0  0
  6 19  1  0  0  0  0
  7  3  1  0  0  0  0
  9 27  1  0  0  0  0
 10 17  1  0  0  0  0
 11  5  1  0  0  0  0
 11 20  1  0  0  0  0
 12  8  1  0  0  0  0
 13 20  1  0  0  0  0
 13  9  2  0  0  0  0
 14  2  2  0  0  0  0
 15 12  1  0  0  0  0
 15  4  1  0  0  0  0
 16  8  1  0  0  0  0
 17 25  1  0  0  0  0
 17 28  1  6  0  0  0
 18  4  1  1  0  0  0
 18  1  1  0  0  0  0
 19  5  1  0  0  0  0
 20 18  1  0  0  0  0
 22 10  1  0  0  0  0
 22 24  1  0  0  0  0
 23 21  1  0  0  0  0
 24 13  1  0  0  0  0
 25  9  1  0  0  0  0
 25 14  1  1  0  0  0
 26 21  2  0  0  0  0
 27  1  2  0  0  0  0
 27  2  1  0  0  0  0
 28 29  2  0  0  0  0
 30 33  1  0  0  0  0
 31 33  1  0  0  0  0
 32 29  1  1  0  0  0
 32 34  1  0  0  0  0
 32 31  1  0  0  0  0
 34 30  1  0  0  0  0
M  END
>  <MODEL>
2

>  <REMARK>
 VINA RESULT:      -8.7      3.071      4.727
  Name = 
  2 active torsions:
  status: ('A' for Active; 'I' for Inactive)
    1  A    between atoms: C_17  and  C_28
    2  A    between atoms: N_29  and  C_32
                            x       y       z     vdW  Elec       q    Type
                         _______ _______ _______ _____ _____    ______ ____

>  <TORSDO>
F 2

$$$$
=
 OpenBabel11112417543D

 34 40  0  0  1  0  0  0  0  0999 V2000
  189.9630  173.8670  143.4020 C   0  0  0  0  0  0  0  0  0  0  0  0
  192.0650  172.6510  144.0220 C   0  0  0  0  0  3  0  0  0  0  0  0
  183.8510  178.2900  143.2690 N   0  0  0  0  0  2  0  0  0  0  0  0
  188.0520  175.2840  142.9220 C   0  0  0  0  0  0  0  0  0  0  0  0
  187.6380  177.4210  144.0750 C   0  0  0  0  0  0  0  0  0  0  0  0
  185.5730  178.5140  144.9820 C   0  0  0  0  0  2  0  0  0  0  0  0
  184.4980  179.2290  144.1760 C   0  0  0  0  0  2  0  0  0  0  0  0
  185.7670  177.9780  141.7140 C   0  0  0  0  0  2  0  0  0  0  0  0
  191.4880  174.6430  145.1390 C   0  0  0  0  0  0  0  0  0  0  0  0
  193.6990  176.1910  146.8860 C   0  0  0  0  0  2  0  0  0  0  0  0
  188.8390  177.1940  144.8240 N   0  0  0  0  0  2  0  0  0  0  0  0
  185.9440  176.6250  142.3890 C   0  0  0  0  0  2  0  0  0  0  0  0
  190.8140  175.7920  145.3750 C   0  0  0  0  0  0  0  0  0  0  0  0
  193.0230  172.9010  144.9160 C   0  0  0  0  0  3  0  0  0  0  0  0
  187.2450  176.5120  143.1420 C   0  0  0  0  0  0  0  0  0  0  0  0
  184.3430  178.5040  141.9070 C   0  0  0  0  0  2  0  0  0  0  0  0
  193.8460  175.1940  145.7250 C   0  0  2  0  0  3  0  0  0  0  0  0
  189.1640  175.0750  143.6410 C   0  0  0  0  0  0  0  0  0  0  0  0
  186.9190  178.7160  144.3110 C   0  0  0  0  0  2  0  0  0  0  0  0
  189.6010  176.0310  144.6230 N   0  0  0  0  0  0  0  0  0  0  0  0
  188.3360  173.2360  141.6710 C   0  0  0  0  0  3  0  0  0  0  0  0
  192.2650  176.4130  147.3750 C   0  0  0  0  0  2  0  0  0  0  0  0
  187.6540  174.3200  141.9230 N   0  0  0  0  0  0  0  0  0  0  0  0
  191.3570  176.8950  146.2520 C   0  0  0  0  0  2  0  0  0  0  0  0
  192.7450  174.1250  145.7640 C   0  0  1  0  0  3  0  0  0  0  0  0
  189.5420  172.9480  142.3930 N   0  0  0  0  0  2  0  0  0  0  0  0
  191.0640  173.6940  144.1310 C   0  0  0  0  0  0  0  0  0  0  0  0
  195.2170  174.5930  145.7850 C   0  0  0  0  0  3  0  0  0  0  0  0
  196.0360  174.7410  144.8080 N   0  0  0  0  0  0  0  0  0  0  0  0
  197.2210  171.8040  144.8220 O   0  0  0  0  0  0  0  0  0  0  0  0
  197.7610  173.6840  143.4980 C   0  0  0  0  0  2  0  0  0  0  0  0
  197.3560  174.1670  144.8630 C   0  0  2  0  0  3  0  0  0  0  0  0
  197.9140  172.1910  143.6670 C   0  0  0  0  0  2  0  0  0  0  0  0
  197.3170  172.9020  145.6900 C   0  0  0  0  0  2  0  0  0  0  0  0
  1 18  1  0  0  0  0
  1 27  2  0  0  0  0
  2 27  1  0  0  0  0
  2 14  2  0  0  0  0
  3  7  1  0  0  0  0
  4 15  1  0  0  0  0
  4 18  2  0  0  0  0
  5 19  1  0  0  0  0
  5 11  1  0  0  0  0
  7  6  1  0  0  0  0
  8 16  1  0  0  0  0
  8 12  1  0  0  0  0
  9 13  2  0  0  0  0
  9 25  1  0  0  0  0
 10 22  1  0  0  0  0
 12 15  1  0  0  0  0
 13 24  1  0  0  0  0
 15  5  2  0  0  0  0
 16  3  1  0  0  0  0
 17 25  1  0  0  0  0
 17 28  1  1  0  0  0
 17 10  1  0  0  0  0
 18 20  1  0  0  0  0
 19  6  1  0  0  0  0
 20 11  1  0  0  0  0
 20 13  1  0  0  0  0
 21 23  2  0  0  0  0
 21 26  1  0  0  0  0
 23  4  1  0  0  0  0
 24 22  1  0  0  0  0
 25 14  1  6  0  0  0
 26  1  1  0  0  0  0
 27  9  1  0  0  0  0
 29 28  2  0  0  0  0
 30 34  1  0  0  0  0
 31 33  1  0  0  0  0
 31 32  1  0  0  0  0
 32 29  1  6  0  0  0
 32 34  1  0  0  0  0
 33 30  1  0  0  0  0
M  END
>  <MODEL>
3

>  <REMARK>
 VINA RESULT:      -8.5      1.885      2.272
  Name = 
  2 active torsions:
  status: ('A' for Active; 'I' for Inactive)
    1  A    between atoms: C_17  and  C_28
    2  A    between atoms: N_29  and  C_32
                            x       y       z     vdW  Elec       q    Type
                         _______ _______ _______ _____ _____    ______ ____

>  <TORSDO>
F 2

$$$$
=
 OpenBabel11112417543D

 34 40  0  0  1  0  0  0  0  0999 V2000
  193.0210  175.9460  143.0810 C   0  0  0  0  0  0  0  0  0  0  0  0
  191.5660  177.9850  143.1820 C   0  0  0  0  0  3  0  0  0  0  0  0
  196.6670  169.4960  144.5110 N   0  0  0  0  0  2  0  0  0  0  0  0
  194.2010  173.8250  143.1030 C   0  0  0  0  0  0  0  0  0  0  0  0
  193.5300  171.9260  144.5210 C   0  0  0  0  0  0  0  0  0  0  0  0
  194.8130  170.2680  145.8950 C   0  0  0  0  0  2  0  0  0  0  0  0
  195.5780  169.0600  145.3750 C   0  0  0  0  0  2  0  0  0  0  0  0
  195.2700  170.2820  142.6090 C   0  0  0  0  0  2  0  0  0  0  0  0
  191.1070  176.1450  144.5800 C   0  0  0  0  0  0  0  0  0  0  0  0
  188.2520  175.9240  146.0400 C   0  0  0  0  0  2  0  0  0  0  0  0
  192.4530  172.7350  145.0110 N   0  0  0  0  0  2  0  0  0  0  0  0
  195.5970  171.6860  143.1010 C   0  0  0  0  0  2  0  0  0  0  0  0
  191.2000  174.8790  145.0480 C   0  0  0  0  0  0  0  0  0  0  0  0
  190.4890  178.2910  143.9060 C   0  0  0  0  0  3  0  0  0  0  0  0
  194.3820  172.4330  143.5890 C   0  0  0  0  0  0  0  0  0  0  0  0
  196.3050  169.2720  143.1110 C   0  0  0  0  0  2  0  0  0  0  0  0
  188.6840  176.6870  144.7770 C   0  0  2  0  0  3  0  0  0  0  0  0
  193.2000  174.5780  143.5820 C   0  0  0  0  0  0  0  0  0  0  0  0
  193.6020  170.5110  145.0130 C   0  0  0  0  0  2  0  0  0  0  0  0
  192.2820  174.0540  144.5580 N   0  0  0  0  0  0  0  0  0  0  0  0
  194.9630  175.5760  141.6220 C   0  0  0  0  0  3  0  0  0  0  0  0
  189.3860  175.2330  146.8030 C   0  0  0  0  0  2  0  0  0  0  0  0
  195.0890  174.3690  142.1020 N   0  0  0  0  0  0  0  0  0  0  0  0
  190.1390  174.2480  145.9180 C   0  0  0  0  0  2  0  0  0  0  0  0
  190.1180  177.2170  144.9100 C   0  0  1  0  0  3  0  0  0  0  0  0
  193.9110  176.4370  142.0790 N   0  0  0  0  0  2  0  0  0  0  0  0
  192.0130  176.6630  143.5750 C   0  0  0  0  0  0  0  0  0  0  0  0
  187.6980  177.7860  144.5260 C   0  0  0  0  0  3  0  0  0  0  0  0
  187.1450  177.9140  143.3740 N   0  0  0  0  0  0  0  0  0  0  0  0
  183.9890  178.1110  143.1840 O   0  0  0  0  0  0  0  0  0  0  0  0
  185.5470  179.3850  144.4190 C   0  0  0  0  0  2  0  0  0  0  0  0
  186.1950  178.9680  143.1280 C   0  0  2  0  0  3  0  0  0  0  0  0
  184.0900  179.0410  144.2270 C   0  0  0  0  0  2  0  0  0  0  0  0
  185.0440  178.4240  142.3140 C   0  0  0  0  0  2  0  0  0  0  0  0
  1 27  2  0  0  0  0
  1 18  1  0  0  0  0
  2 27  1  0  0  0  0
  2 14  2  0  0  0  0
  3  7  1  0  0  0  0
  4 18  2  0  0  0  0
  4 15  1  0  0  0  0
  5 11  1  0  0  0  0
  5 19  1  0  0  0  0
  7  6  1  0  0  0  0
  8 12  1  0  0  0  0
  8 16  1  0  0  0  0
  9 25  1  0  0  0  0
  9 13  2  0  0  0  0
 10 22  1  0  0  0  0
 12 15  1  0  0  0  0
 13 24  1  0  0  0  0
 15  5  2  0  0  0  0
 16  3  1  0  0  0  0
 17 28  1  1  0  0  0
 17 25  1  0  0  0  0
 17 10  1  0  0  0  0
 18 20  1  0  0  0  0
 19  6  1  0  0  0  0
 20 11  1  0  0  0  0
 20 13  1  0  0  0  0
 21 26  1  0  0  0  0
 21 23  2  0  0  0  0
 23  4  1  0  0  0  0
 24 22  1  0  0  0  0
 25 14  1  6  0  0  0
 26  1  1  0  0  0  0
 27  9  1  0  0  0  0
 29 28  2  0  0  0  0
 30 33  1  0  0  0  0
 32 29  1  1  0  0  0
 32 31  1  0  0  0  0
 33 31  1  0  0  0  0
 34 32  1  0  0  0  0
 34 30  1  0  0  0  0
M  END
>  <MODEL>
4

>  <REMARK>
 VINA RESULT:      -8.4      3.874      9.143
  Name = 
  2 active torsions:
  status: ('A' for Active; 'I' for Inactive)
    1  A    between atoms: C_17  and  C_28
    2  A    between atoms: N_29  and  C_32
                            x       y       z     vdW  Elec       q    Type
                         _______ _______ _______ _____ _____    ______ ____

>  <TORSDO>
F 2

$$$$
=
 OpenBabel11112417543D

 34 40  0  0  1  0  0  0  0  0999 V2000
  192.5660  176.3250  145.1340 C   0  0  0  0  0  0  0  0  0  0  0  0
  190.5140  176.7800  146.4990 C   0  0  0  0  0  3  0  0  0  0  0  0
  197.5750  173.7560  140.1090 N   0  0  0  0  0  2  0  0  0  0  0  0
  194.3740  175.8880  143.5750 C   0  0  0  0  0  0  0  0  0  0  0  0
  194.0080  175.0290  141.2960 C   0  0  0  0  0  0  0  0  0  0  0  0
  195.1850  173.3160  139.8930 C   0  0  0  0  0  2  0  0  0  0  0  0
  196.5020  173.5010  139.1550 C   0  0  0  0  0  2  0  0  0  0  0  0
  196.8570  176.0370  140.7910 C   0  0  0  0  0  2  0  0  0  0  0  0
  190.3080  175.8410  144.3480 C   0  0  0  0  0  0  0  0  0  0  0  0
  187.4510  175.8380  142.8750 C   0  0  0  0  0  2  0  0  0  0  0  0
  192.6020  175.0340  141.5720 N   0  0  0  0  0  2  0  0  0  0  0  0
  196.3790  175.3750  142.0770 C   0  0  0  0  0  2  0  0  0  0  0  0
  190.7000  175.4500  143.1140 C   0  0  0  0  0  0  0  0  0  0  0  0
  189.2130  176.6030  146.2620 C   0  0  0  0  0  3  0  0  0  0  0  0
  194.8830  175.4480  142.2510 C   0  0  0  0  0  0  0  0  0  0  0  0
  197.9170  175.1790  140.0960 C   0  0  0  0  0  2  0  0  0  0  0  0
  188.0070  176.7270  143.9990 C   0  0  2  0  0  3  0  0  0  0  0  0
  193.0570  175.8710  143.8270 C   0  0  2  0  0  3  0  0  0  0  0  0
  194.4340  174.6350  139.9120 C   0  0  0  0  0  2  0  0  0  0  0  0
  192.1180  175.4430  142.8250 N   0  0  0  0  0  0  0  0  0  0  0  0
  194.8990  176.7690  145.7630 C   0  0  0  0  0  3  0  0  0  0  0  0
  188.3630  174.6840  142.4470 C   0  0  0  0  0  2  0  0  0  0  0  0
  195.2910  176.3500  144.5910 N   0  0  0  0  0  0  0  0  0  0  0  0
  189.7260  175.1870  141.9900 C   0  0  0  0  0  2  0  0  0  0  0  0
  188.9330  175.9340  144.9310 C   0  0  1  0  0  3  0  0  0  0  0  0
  193.5050  176.7900  146.1030 N   0  0  0  0  0  0  0  0  0  0  0  0
  191.2510  176.2990  145.3480 C   0  0  0  0  0  0  0  0  0  0  0  0
  186.8540  177.3360  144.7360 C   0  0  0  0  0  3  0  0  0  0  0  0
  186.6910  178.6100  144.7530 N   0  0  0  0  0  0  0  0  0  0  0  0
  184.2950  177.5160  146.5130 O   0  0  0  0  0  0  0  0  0  0  0  0
  185.8710  179.2250  146.9350 C   0  0  0  0  0  2  0  0  0  0  0  0
  185.5830  179.2000  145.4590 C   0  0  2  0  0  3  0  0  0  0  0  0
  184.8110  178.3310  147.5310 C   0  0  0  0  0  2  0  0  0  0  0  0
  184.3790  178.2920  145.3480 C   0  0  0  0  0  2  0  0  0  0  0  0
  1 27  2  0  0  0  0
  1 26  1  0  0  0  0
  4 23  2  0  0  0  0
  5 11  1  0  0  0  0
  5 15  2  0  0  0  0
  6 19  1  0  0  0  0
  7  6  1  0  0  0  0
  7  3  1  0  0  0  0
  8 12  1  0  0  0  0
  9 25  1  0  0  0  0
  9 27  1  0  0  0  0
 10 17  1  0  0  0  0
 11 20  1  0  0  0  0
 12 15  1  0  0  0  0
 13  9  2  0  0  0  0
 14  2  2  0  0  0  0
 15  4  1  0  0  0  0
 16  3  1  0  0  0  0
 16  8  1  0  0  0  0
 17 28  1  1  0  0  0
 17 25  1  0  0  0  0
 18  4  1  6  0  0  0
 18  1  1  0  0  0  0
 19  5  1  0  0  0  0
 20 13  1  0  0  0  0
 20 18  1  0  0  0  0
 21 26  2  0  0  0  0
 22 10  1  0  0  0  0
 23 21  1  0  0  0  0
 24 22  1  0  0  0  0
 24 13  1  0  0  0  0
 25 14  1  1  0  0  0
 27  2  1  0  0  0  0
 28 29  2  0  0  0  0
 30 33  1  0  0  0  0
 31 33  1  0  0  0  0
 32 29  1  6  0  0  0
 32 31  1  0  0  0  0
 34 32  1  0  0  0  0
 34 30  1  0  0  0  0
M  END
>  <MODEL>
5

>  <REMARK>
 VINA RESULT:      -8.4      3.135      9.577
  Name = 
  2 active torsions:
  status: ('A' for Active; 'I' for Inactive)
    1  A    between atoms: C_17  and  C_28
    2  A    between atoms: N_29  and  C_32
                            x       y       z     vdW  Elec       q    Type
                         _______ _______ _______ _____ _____    ______ ____

>  <TORSDO>
F 2

$$$$
=
 OpenBabel11112417543D

 34 40  0  0  1  0  0  0  0  0999 V2000
  190.4220  173.7750  141.1960 C   0  0  0  0  0  0  0  0  0  0  0  0
  188.1300  174.3790  142.0140 C   0  0  0  0  0  3  0  0  0  0  0  0
  197.6650  173.8010  139.0820 N   0  0  0  0  0  2  0  0  0  0  0  0
  192.7440  173.3570  140.6270 C   0  0  0  0  0  0  0  0  0  0  0  0
  194.5970  174.7850  141.3980 C   0  0  0  0  0  0  0  0  0  0  0  0
  196.6630  175.6690  140.2880 C   0  0  0  0  0  2  0  0  0  0  0  0
  197.9410  174.8930  140.0060 C   0  0  0  0  0  2  0  0  0  0  0  0
  196.3490  172.3860  140.6480 C   0  0  0  0  0  2  0  0  0  0  0  0
  189.9730  175.7350  142.5770 C   0  0  0  0  0  0  0  0  0  0  0  0
  189.7070  177.8810  144.9550 C   0  0  0  0  0  2  0  0  0  0  0  0
  193.6280  175.5900  142.0820 N   0  0  0  0  0  2  0  0  0  0  0  0
  195.1300  172.8580  139.8650 C   0  0  0  0  0  2  0  0  0  0  0  0
  191.2730  176.0850  142.7000 C   0  0  0  0  0  0  0  0  0  0  0  0
  187.6760  175.3790  142.7700 C   0  0  0  0  0  3  0  0  0  0  0  0
  194.1890  173.6930  140.6950 C   0  0  0  0  0  0  0  0  0  0  0  0
  197.6250  172.5350  139.8160 C   0  0  0  0  0  2  0  0  0  0  0  0
  188.9140  176.5970  144.6600 C   0  0  2  0  0  3  0  0  0  0  0  0
  191.8450  174.1280  141.2560 C   0  0  0  0  0  0  0  0  0  0  0  0
  196.0400  175.1540  141.5730 C   0  0  0  0  0  2  0  0  0  0  0  0
  192.2590  175.2780  142.0140 N   0  0  0  0  0  0  0  0  0  0  0  0
  191.0470  171.8350  139.8230 C   0  0  0  0  0  3  0  0  0  0  0  0
  190.7300  178.2740  143.8850 C   0  0  0  0  0  2  0  0  0  0  0  0
  192.3000  172.1920  139.8970 N   0  0  0  0  0  0  0  0  0  0  0  0
  191.7450  177.1650  143.6450 C   0  0  0  0  0  2  0  0  0  0  0  0
  188.7500  176.3780  143.1490 C   0  0  1  0  0  3  0  0  0  0  0  0
  190.0290  172.6050  140.4790 N   0  0  0  0  0  2  0  0  0  0  0  0
  189.5580  174.5600  141.8380 C   0  0  0  0  0  0  0  0  0  0  0  0
  187.5950  176.6820  145.3640 C   0  0  0  0  0  3  0  0  0  0  0  0
  187.5440  176.8580  146.6340 N   0  0  0  0  0  0  0  0  0  0  0  0
  185.3300  179.0890  147.0200 O   0  0  0  0  0  0  0  0  0  0  0  0
  185.1550  176.8400  146.3220 C   0  0  0  0  0  2  0  0  0  0  0  0
  186.2780  176.9410  147.3150 C   0  0  2  0  0  3  0  0  0  0  0  0
  184.4530  178.1720  146.4240 C   0  0  0  0  0  2  0  0  0  0  0  0
  186.1130  178.3260  147.8970 C   0  0  0  0  0  2  0  0  0  0  0  0
  1 18  1  0  0  0  0
  1 27  2  0  0  0  0
  2 14  2  0  0  0  0
  3 16  1  0  0  0  0
  3  7  1  0  0  0  0
  4 15  1  0  0  0  0
  4 18  2  0  0  0  0
  5 19  1  0  0  0  0
  5 11  1  0  0  0  0
  6 19  1  0  0  0  0
  7  6  1  0  0  0  0
  9 13  2  0  0  0  0
  9 25  1  0  0  0  0
 12  8  1  0  0  0  0
 12 15  1  0  0  0  0
 13 24  1  0  0  0  0
 15  5  2  0  0  0  0
 16  8  1  0  0  0  0
 17 10  1  0  0  0  0
 17 28  1  1  0  0  0
 18 20  1  0  0  0  0
 20 11  1  0  0  0  0
 20 13  1  0  0  0  0
 21 23  2  0  0  0  0
 21 26  1  0  0  0  0
 22 10  1  0  0  0  0
 23  4  1  0  0  0  0
 24 22  1  0  0  0  0
 25 14  1  1  0  0  0
 25 17  1  0  0  0  0
 26  1  1  0  0  0  0
 27  2  1  0  0  0  0
 27  9  1  0  0  0  0
 28 29  2  0  0  0  0
 30 34  1  0  0  0  0
 31 33  1  0  0  0  0
 31 32  1  0  0  0  0
 32 29  1  6  0  0  0
 32 34  1  0  0  0  0
 33 30  1  0  0  0  0
M  END
>  <MODEL>
6

>  <REMARK>
 VINA RESULT:      -8.2      3.332      9.325
  Name = 
  2 active torsions:
  status: ('A' for Active; 'I' for Inactive)
    1  A    between atoms: C_17  and  C_28
    2  A    between atoms: N_29  and  C_32
                            x       y       z     vdW  Elec       q    Type
                         _______ _______ _______ _____ _____    ______ ____

>  <TORSDO>
F 2

$$$$
=
 OpenBabel11112417543D

 34 40  0  0  1  0  0  0  0  0999 V2000
  191.7230  176.3980  146.1480 C   0  0  0  0  0  0  0  0  0  0  0  0
  194.0520  175.4740  146.2360 C   0  0  0  0  0  3  0  0  0  0  0  0
  185.0880  179.2890  144.0140 N   0  0  0  0  0  2  0  0  0  0  0  0
  189.4320  177.1270  145.8200 C   0  0  0  0  0  0  0  0  0  0  0  0
  188.2430  176.9060  143.6740 C   0  0  0  0  0  0  0  0  0  0  0  0
  186.6950  178.4130  142.4020 C   0  0  0  0  0  2  0  0  0  0  0  0
  185.2260  178.6650  142.7040 C   0  0  0  0  0  2  0  0  0  0  0  0
  185.7290  177.3100  145.3780 C   0  0  0  0  0  2  0  0  0  0  0  0
  192.8500  175.4380  144.2100 C   0  0  0  0  0  0  0  0  0  0  0  0
  193.8550  173.5720  141.7920 C   0  0  0  0  0  2  0  0  0  0  0  0
  189.4280  176.3080  143.1340 N   0  0  0  0  0  2  0  0  0  0  0  0
  187.0540  178.0310  145.5890 C   0  0  0  0  0  2  0  0  0  0  0  0
  191.7780  175.5450  143.3920 C   0  0  0  0  0  0  0  0  0  0  0  0
  194.8340  174.9080  145.3160 C   0  0  0  0  0  3  0  0  0  0  0  0
  188.2220  177.3010  144.9760 C   0  0  0  0  0  0  0  0  0  0  0  0
  184.6260  178.2970  144.9860 C   0  0  0  0  0  2  0  0  0  0  0  0
  194.1060  173.4860  143.3060 C   0  0  2  0  0  3  0  0  0  0  0  0
  190.5400  176.5820  145.2980 C   0  0  2  0  0  3  0  0  0  0  0  0
  187.0450  176.9840  142.7750 C   0  0  0  0  0  2  0  0  0  0  0  0
  190.5760  176.1470  143.9280 N   0  0  0  0  0  0  0  0  0  0  0  0
  190.4410  177.3770  148.0010 C   0  0  0  0  0  3  0  0  0  0  0  0
  193.0840  174.8130  141.3310 C   0  0  0  0  0  2  0  0  0  0  0  0
  189.4160  177.5280  147.2080 N   0  0  0  0  0  0  0  0  0  0  0  0
  191.7300  174.9200  142.0180 C   0  0  0  0  0  2  0  0  0  0  0  0
  194.2120  174.8820  143.9350 C   0  0  1  0  0  3  0  0  0  0  0  0
  191.6590  176.7930  147.5180 N   0  0  0  0  0  0  0  0  0  0  0  0
  192.8050  175.8490  145.5980 C   0  0  0  0  0  0  0  0  0  0  0  0
  195.3410  172.6700  143.5360 C   0  0  0  0  0  3  0  0  0  0  0  0
  195.2630  171.3970  143.6820 N   0  0  0  0  0  0  0  0  0  0  0  0
  197.1910  170.8550  146.1360 O   0  0  0  0  0  0  0  0  0  0  0  0
  196.0990  169.3620  144.6680 C   0  0  0  0  0  2  0  0  0  0  0  0
  196.4470  170.6080  143.9020 C   0  0  2  0  0  3  0  0  0  0  0  0
  196.8540  169.5050  145.9670 C   0  0  0  0  0  2  0  0  0  0  0  0
  197.3760  171.3500  144.8370 C   0  0  0  0  0  2  0  0  0  0  0  0
  1 26  1  0  0  0  0
  3 16  1  0  0  0  0
  4 23  2  0  0  0  0
  5 15  2  0  0  0  0
  6  7  1  0  0  0  0
  6 19  1  0  0  0  0
  7  3  1  0  0  0  0
  8 12  1  0  0  0  0
  9 27  1  0  0  0  0
 10 17  1  0  0  0  0
 11  5  1  0  0  0  0
 11 20  1  0  0  0  0
 13 20  1  0  0  0  0
 13  9  2  0  0  0  0
 14  2  2  0  0  0  0
 15 12  1  0  0  0  0
 15  4  1  0  0  0  0
 16  8  1  0  0  0  0
 17 28  1  6  0  0  0
 17 25  1  0  0  0  0
 18  4  1  1  0  0  0
 18  1  1  0  0  0  0
 19  5  1  0  0  0  0
 20 18  1  0  0  0  0
 22 10  1  0  0  0  0
 22 24  1  0  0  0  0
 23 21  1  0  0  0  0
 24 13  1  0  0  0  0
 25  9  1  0  0  0  0
 25 14  1  1  0  0  0
 26 21  2  0  0  0  0
 27  1  2  0  0  0  0
 27  2  1  0  0  0  0
 28 29  2  0  0  0  0
 31 33  1  0  0  0  0
 32 29  1  1  0  0  0
 32 31  1  0  0  0  0
 32 34  1  0  0  0  0
 33 30  1  0  0  0  0
 34 30  1  0  0  0  0
M  END
>  <MODEL>
7

>  <REMARK>
 VINA RESULT:      -8.1      2.518      4.184
  Name = 
  2 active torsions:
  status: ('A' for Active; 'I' for Inactive)
    1  A    between atoms: C_17  and  C_28
    2  A    between atoms: N_29  and  C_32
                            x       y       z     vdW  Elec       q    Type
                         _______ _______ _______ _____ _____    ______ ____

>  <TORSDO>
F 2

$$$$
=
 OpenBabel11112417543D

 34 40  0  0  1  0  0  0  0  0999 V2000
  190.6720  173.0560  142.7480 C   0  0  0  0  0  0  0  0  0  0  0  0
  188.6770  174.5730  142.7390 C   0  0  0  0  0  3  0  0  0  0  0  0
  197.4350  169.8870  143.8260 N   0  0  0  0  0  2  0  0  0  0  0  0
  192.6320  171.6560  143.0430 C   0  0  0  0  0  0  0  0  0  0  0  0
  194.2090  171.9250  144.9160 C   0  0  0  0  0  0  0  0  0  0  0  0
  196.7090  171.8460  145.0860 C   0  0  0  0  0  2  0  0  0  0  0  0
  197.5770  170.5960  145.0910 C   0  0  0  0  0  2  0  0  0  0  0  0
  195.1030  169.0920  144.1670 C   0  0  0  0  0  2  0  0  0  0  0  0
  190.3250  174.8100  144.4060 C   0  0  0  0  0  0  0  0  0  0  0  0
  189.6840  176.5200  147.0530 C   0  0  0  0  0  2  0  0  0  0  0  0
  193.3920  173.0050  145.3860 N   0  0  0  0  0  2  0  0  0  0  0  0
  194.7120  170.1770  143.1730 C   0  0  0  0  0  2  0  0  0  0  0  0
  191.4090  174.4820  145.1450 C   0  0  0  0  0  0  0  0  0  0  0  0
  188.2970  175.5700  143.5400 C   0  0  0  0  0  3  0  0  0  0  0  0
  193.8530  171.2530  143.7880 C   0  0  0  0  0  0  0  0  0  0  0  0
  196.5790  168.7150  144.0120 C   0  0  0  0  0  2  0  0  0  0  0  0
  188.7510  175.8140  146.0550 C   0  0  2  0  0  3  0  0  0  0  0  0
  191.8860  172.6790  143.4830 C   0  0  0  0  0  0  0  0  0  0  0  0
  195.3860  171.5390  145.7630 C   0  0  0  0  0  2  0  0  0  0  0  0
  192.2400  173.3920  144.6800 N   0  0  0  0  0  0  0  0  0  0  0  0
  191.1620  171.2350  141.1730 C   0  0  0  0  0  3  0  0  0  0  0  0
  191.1690  176.5040  146.6760 C   0  0  0  0  0  2  0  0  0  0  0  0
  192.2360  170.9400  141.8530 N   0  0  0  0  0  0  0  0  0  0  0  0
  191.6890  175.0840  146.5020 C   0  0  0  0  0  2  0  0  0  0  0  0
  189.3070  175.8830  144.6260 C   0  0  1  0  0  3  0  0  0  0  0  0
  190.3070  172.3100  141.5870 N   0  0  0  0  0  2  0  0  0  0  0  0
  189.9510  174.0730  143.2160 C   0  0  0  0  0  0  0  0  0  0  0  0
  187.3900  176.4300  146.1610 C   0  0  0  0  0  3  0  0  0  0  0  0
  186.9920  176.9450  147.2680 N   0  0  0  0  0  0  0  0  0  0  0  0
  185.5210  179.4160  145.9400 O   0  0  0  0  0  0  0  0  0  0  0  0
  184.8520  177.1630  146.1800 C   0  0  0  0  0  2  0  0  0  0  0  0
  185.6850  177.5390  147.3740 C   0  0  2  0  0  3  0  0  0  0  0  0
  184.5780  178.4790  145.4940 C   0  0  0  0  0  2  0  0  0  0  0  0
  185.8080  179.0420  147.2610 C   0  0  0  0  0  2  0  0  0  0  0  0
  1 27  2  0  0  0  0
  1 18  1  0  0  0  0
  2 27  1  0  0  0  0
  2 14  2  0  0  0  0
  3 16  1  0  0  0  0
  3  7  1  0  0  0  0
  4 18  2  0  0  0  0
  4 15  1  0  0  0  0
  5 11  1  0  0  0  0
  5 19  1  0  0  0  0
  6  7  1  0  0  0  0
  6 19  1  0  0  0  0
  9 25  1  0  0  0  0
  9 13  2  0  0  0  0
 12 15  1  0  0  0  0
 12  8  1  0  0  0  0
 13 24  1  0  0  0  0
 15  5  2  0  0  0  0
 16  8  1  0  0  0  0
 17 28  1  6  0  0  0
 17 10  1  0  0  0  0
 18 20  1  0  0  0  0
 20 13  1  0  0  0  0
 20 11  1  0  0  0  0
 21 26  1  0  0  0  0
 21 23  2  0  0  0  0
 22 10  1  0  0  0  0
 23  4  1  0  0  0  0
 24 22  1  0  0  0  0
 25 14  1  6  0  0  0
 25 17  1  0  0  0  0
 26  1  1  0  0  0  0
 27  9  1  0  0  0  0
 28 29  2  0  0  0  0
 30 34  1  0  0  0  0
 31 32  1  0  0  0  0
 32 29  1  6  0  0  0
 33 30  1  0  0  0  0
 33 31  1  0  0  0  0
 34 32  1  0  0  0  0
M  END
>  <MODEL>
8

>  <REMARK>
 VINA RESULT:      -8.1      3.897      9.282
  Name = 
  2 active torsions:
  status: ('A' for Active; 'I' for Inactive)
    1  A    between atoms: C_17  and  C_28
    2  A    between atoms: N_29  and  C_32
                            x       y       z     vdW  Elec       q    Type
                         _______ _______ _______ _____ _____    ______ ____

>  <TORSDO>
F 2

$$$$
=
 OpenBabel11112417543D

 34 40  0  0  1  0  0  0  0  0999 V2000
  192.4490  175.9650  145.3410 C   0  0  0  0  0  0  0  0  0  0  0  0
  190.5030  177.5390  145.1960 C   0  0  0  0  0  3  0  0  0  0  0  0
  196.9860  169.9360  145.2970 N   0  0  0  0  0  2  0  0  0  0  0  0
  194.2270  174.3160  145.2350 C   0  0  0  0  0  0  0  0  0  0  0  0
  194.0580  172.2370  143.9260 C   0  0  0  0  0  0  0  0  0  0  0  0
  194.7300  169.8630  144.3730 C   0  0  0  0  0  2  0  0  0  0  0  0
  196.1380  169.2920  144.3010 C   0  0  0  0  0  2  0  0  0  0  0  0
  197.1070  172.1720  144.2140 C   0  0  0  0  0  2  0  0  0  0  0  0
  190.4170  175.4590  144.0910 C   0  0  0  0  0  0  0  0  0  0  0  0
  188.1930  174.9470  141.8270 C   0  0  0  0  0  2  0  0  0  0  0  0
  192.7460  172.6530  143.5250 N   0  0  0  0  0  2  0  0  0  0  0  0
  196.1360  172.6200  145.2980 C   0  0  0  0  0  2  0  0  0  0  0  0
  190.8800  174.2910  143.5910 C   0  0  0  0  0  0  0  0  0  0  0  0
  189.3270  177.4640  144.5720 C   0  0  0  0  0  3  0  0  0  0  0  0
  194.7940  173.0330  144.7480 C   0  0  0  0  0  0  0  0  0  0  0  0
  197.8610  170.9100  144.6420 C   0  0  0  0  0  2  0  0  0  0  0  0
  188.7960  176.2510  142.3730 C   0  0  2  0  0  3  0  0  0  0  0  0
  192.9920  174.6860  144.8670 C   0  0  2  0  0  3  0  0  0  0  0  0
  194.5820  170.9610  143.3360 C   0  0  0  0  0  2  0  0  0  0  0  0
  192.2030  173.8630  143.9900 N   0  0  0  0  0  0  0  0  0  0  0  0
  194.5660  176.3250  146.5340 C   0  0  0  0  0  3  0  0  0  0  0  0
  188.6400  173.6720  142.5480 C   0  0  0  0  0  2  0  0  0  0  0  0
  195.0050  175.1770  146.0950 N   0  0  0  0  0  0  0  0  0  0  0  0
  190.1540  173.5120  142.5200 C   0  0  0  0  0  2  0  0  0  0  0  0
  189.1020  176.1390  143.8730 C   0  0  1  0  0  3  0  0  0  0  0  0
  193.2590  176.7940  146.1750 N   0  0  0  0  0  0  0  0  0  0  0  0
  191.2210  176.3030  144.9510 C   0  0  0  0  0  0  0  0  0  0  0  0
  187.8510  177.3740  142.0730 C   0  0  0  0  0  3  0  0  0  0  0  0
  186.7190  177.4510  142.6750 N   0  0  0  0  0  0  0  0  0  0  0  0
  183.8290  178.2850  143.6650 O   0  0  0  0  0  0  0  0  0  0  0  0
  185.8300  179.5290  143.5130 C   0  0  0  0  0  2  0  0  0  0  0  0
  185.8080  178.5290  142.3900 C   0  0  2  0  0  3  0  0  0  0  0  0
  184.4290  179.4830  144.0730 C   0  0  0  0  0  2  0  0  0  0  0  0
  184.3900  178.0040  142.4110 C   0  0  0  0  0  2  0  0  0  0  0  0
  1 26  1  0  0  0  0
  4 23  2  0  0  0  0
  5 15  2  0  0  0  0
  7  6  1  0  0  0  0
  7  3  1  0  0  0  0
  8 16  1  0  0  0  0
  8 12  1  0  0  0  0
  9 27  1  0  0  0  0
 10 17  1  0  0  0  0
 10 22  1  0  0  0  0
 11  5  1  0  0  0  0
 11 20  1  0  0  0  0
 13 20  1  0  0  0  0
 13  9  2  0  0  0  0
 14  2  2  0  0  0  0
 15  4  1  0  0  0  0
 15 12  1  0  0  0  0
 16  3  1  0  0  0  0
 17 28  1  1  0  0  0
 17 25  1  0  0  0  0
 18  4  1  6  0  0  0
 18  1  1  0  0  0  0
 19  5  1  0  0  0  0
 19  6  1  0  0  0  0
 20 18  1  0  0  0  0
 23 21  1  0  0  0  0
 24 22  1  0  0  0  0
 24 13  1  0  0  0  0
 25  9  1  0  0  0  0
 25 14  1  6  0  0  0
 26 21  2  0  0  0  0
 27  2  1  0  0  0  0
 27  1  2  0  0  0  0
 28 29  2  0  0  0  0
 30 33  1  0  0  0  0
 31 33  1  0  0  0  0
 32 34  1  0  0  0  0
 32 29  1  1  0  0  0
 32 31  1  0  0  0  0
 34 30  1  0  0  0  0
M  END
>  <MODEL>
9

>  <REMARK>
 VINA RESULT:      -8.0      3.719      9.502
  Name = 
  2 active torsions:
  status: ('A' for Active; 'I' for Inactive)
    1  A    between atoms: C_17  and  C_28
    2  A    between atoms: N_29  and  C_32
                            x       y       z     vdW  Elec       q    Type
                         _______ _______ _______ _____ _____    ______ ____

>  <TORSDO>
F 2

$$$$
