=
 OpenBabel11112417113D

 37 42  0  0  1  0  0  0  0  0999 V2000
  189.6910  172.5650  138.8710 C   0  0  0  0  0  0  0  0  0  0  0  0
  187.8350  175.8380  140.6260 C   0  0  0  0  0  0  0  0  0  0  0  0
  186.2250  174.4910  142.7340 F   0  0  0  0  0  0  0  0  0  0  0  0
  188.0990  174.5510  138.6370 C   0  0  0  0  0  0  0  0  0  0  0  0
  188.2080  175.6820  142.0690 C   0  0  1  0  0  3  0  0  0  0  0  0
  188.3890  174.8190  139.9570 C   0  0  0  0  0  0  0  0  0  0  0  0
  186.9610  175.6410  142.9660 C   0  0  1  0  0  3  0  0  0  0  0  0
  187.2450  175.3930  137.9830 N   0  0  0  0  0  0  0  0  0  0  0  0
  189.0950  173.9730  140.8130 N   0  0  0  0  0  0  0  0  0  0  0  0
  191.0270  173.2270  138.5790 C   0  0  0  0  0  1  0  0  0  0  0  0
  186.1730  177.7530  140.7500 C   0  0  0  0  0  2  0  0  0  0  0  0
  186.6720  176.4630  138.6270 C   0  0  0  0  0  3  0  0  0  0  0  0
  189.4160  172.6110  140.3930 C   0  0  0  0  0  2  0  0  0  0  0  0
  186.9470  176.7110  139.9890 C   0  0  0  0  0  0  0  0  0  0  0  0
  188.9800  174.4050  142.1530 N   0  0  1  0  0  0  0  0  0  0  0  0
  188.5810  173.2570  138.0360 C   0  0  0  0  0  2  0  0  0  0  0  0
  186.0480  176.8740  142.8130 C   0  0  2  0  0  3  0  0  0  0  0  0
  189.7790  171.1160  138.4440 C   0  0  0  0  0  1  0  0  0  0  0  0
  186.6500  177.9020  142.0640 O   0  0  0  0  0  0  0  0  0  0  0  0
  190.5950  176.0030  143.3090 C   0  0  0  0  0  2  0  0  0  0  0  0
  191.9670  176.0480  143.9760 C   0  0  2  0  0  3  0  0  0  0  0  0
  190.8550  174.3480  145.6350 C   0  0  2  0  0  3  0  0  0  0  0  0
  192.0230  175.3000  145.3190 C   0  0  0  0  0  2  0  0  0  0  0  0
  190.7270  173.1830  144.7300 N   0  0  0  0  0  0  0  0  0  0  0  0
  189.5100  172.6010  144.8680 O   0  0  0  0  0  1  0  0  0  0  0  0
  190.9950  173.4000  143.3000 C   0  0  0  0  0  2  0  0  0  0  0  0
  189.5500  175.0800  145.9410 C   0  0  0  0  0  1  0  0  0  0  0  0
  190.3430  174.6360  142.6540 C   0  0  1  0  0  3  0  0  0  0  0  0
  191.3620  178.3940  143.7340 N   0  0  0  0  0  1  0  0  0  0  0  0
  192.4010  177.4870  144.1900 C   0  0  0  0  0  2  0  0  0  0  0  0
  184.7490  178.4730  144.2650 C   0  0  0  0  0  3  0  0  0  0  0  0
  185.6200  177.3800  144.1520 C   0  0  0  0  0  0  0  0  0  0  0  0
  186.1180  176.7670  145.3080 C   0  0  0  0  0  3  0  0  0  0  0  0
  186.2230  176.6410  147.6860 F   0  0  0  0  0  0  0  0  0  0  0  0
  184.8690  178.3250  146.6790 C   0  0  0  0  0  3  0  0  0  0  0  0
  185.7420  177.2380  146.5690 C   0  0  0  0  0  0  0  0  0  0  0  0
  184.3740  178.9430  145.5270 C   0  0  0  0  0  3  0  0  0  0  0  0
  1 13  1  0  0  0  0
  4  6  1  0  0  0  0
  5  2  1  6  0  0  0
  5 15  1  0  0  0  0
  5  7  1  0  0  0  0
  6  2  2  0  0  0  0
  6  9  1  0  0  0  0
  7  3  1  6  0  0  0
  8 12  1  0  0  0  0
  8  4  2  0  0  0  0
 10  1  1  0  0  0  0
 11 19  1  0  0  0  0
 12 14  2  0  0  0  0
 13  9  1  0  0  0  0
 14  2  1  0  0  0  0
 14 11  1  0  0  0  0
 15  9  1  6  0  0  0
 15 28  1  0  0  0  0
 16  4  1  0  0  0  0
 16  1  1  0  0  0  0
 17  7  1  0  0  0  0
 17 32  1  1  0  0  0
 18  1  1  0  0  0  0
 19 17  1  0  0  0  0
 20 21  1  0  0  0  0
 21 30  1  1  0  0  0
 21 23  1  0  0  0  0
 22 27  1  6  0  0  0
 23 22  1  0  0  0  0
 24 25  1  0  0  0  0
 24 22  1  0  0  0  0
 26 24  1  0  0  0  0
 28 26  1  1  0  0  0
 28 20  1  0  0  0  0
 29 30  1  0  0  0  0
 31 37  1  0  0  0  0
 32 31  2  0  0  0  0
 32 33  1  0  0  0  0
 33 36  2  0  0  0  0
 36 35  1  0  0  0  0
 36 34  1  0  0  0  0
 37 35  2  0  0  0  0
M  END
>  <MODEL>
1

>  <REMARK>
 VINA RESULT:      -8.8      0.000      0.000
  Name = 
  3 active torsions:
  status: ('A' for Active; 'I' for Inactive)
    1  A    between atoms: C_4  and  C_37
    2  A    between atoms: N_21  and  C_27
    3  A    between atoms: C_23  and  C_30
                            x       y       z     vdW  Elec       q    Type
                         _______ _______ _______ _____ _____    ______ ____

>  <TORSDO>
F 3

$$$$
=
 OpenBabel11112417113D

 37 42  0  0  1  0  0  0  0  0999 V2000
  195.8280  175.9760  142.3210 C   0  0  0  0  0  0  0  0  0  0  0  0
  192.6120  175.8740  144.9440 C   0  0  0  0  0  0  0  0  0  0  0  0
  190.7400  177.7500  143.5910 F   0  0  0  0  0  0  0  0  0  0  0  0
  194.9130  176.4290  144.6630 C   0  0  0  0  0  0  0  0  0  0  0  0
  191.4740  175.5020  144.0420 C   0  0  1  0  0  3  0  0  0  0  0  0
  193.7170  175.9370  144.1900 C   0  0  0  0  0  0  0  0  0  0  0  0
  190.3390  176.5350  144.1210 C   0  0  1  0  0  3  0  0  0  0  0  0
  194.9730  176.8250  145.9700 N   0  0  0  0  0  0  0  0  0  0  0  0
  193.4350  175.6550  142.8530 N   0  0  0  0  0  0  0  0  0  0  0  0
  196.2310  174.5150  142.4430 C   0  0  0  0  0  1  0  0  0  0  0  0
  191.3800  176.3930  147.1030 C   0  0  0  0  0  2  0  0  0  0  0  0
  193.8680  176.7570  146.7830 C   0  0  0  0  0  3  0  0  0  0  0  0
  194.3710  176.0650  141.8080 C   0  0  0  0  0  2  0  0  0  0  0  0
  192.6360  176.2830  146.2820 C   0  0  0  0  0  0  0  0  0  0  0  0
  192.0520  175.4360  142.6650 N   0  0  1  0  0  0  0  0  0  0  0  0
  196.0310  176.6820  143.6870 C   0  0  0  0  0  2  0  0  0  0  0  0
  189.7980  176.7520  145.5490 C   0  0  2  0  0  3  0  0  0  0  0  0
  196.7350  176.6310  141.3020 C   0  0  0  0  0  1  0  0  0  0  0  0
  190.2820  175.7950  146.4610 O   0  0  0  0  0  0  0  0  0  0  0  0
  191.8310  172.9320  143.0910 C   0  0  0  0  0  2  0  0  0  0  0  0
  191.4610  171.6250  142.3950 C   0  0  2  0  0  3  0  0  0  0  0  0
  189.1430  172.8170  142.1020 C   0  0  2  0  0  3  0  0  0  0  0  0
  189.9670  171.5180  142.0410 C   0  0  0  0  0  2  0  0  0  0  0  0
  189.5340  173.8610  141.1280 N   0  0  0  0  0  0  0  0  0  0  0  0
  188.9980  175.0590  141.4680 O   0  0  0  0  0  1  0  0  0  0  0  0
  190.9700  174.0370  140.8610 C   0  0  0  0  0  2  0  0  0  0  0  0
  188.9100  173.3130  143.5280 C   0  0  0  0  0  1  0  0  0  0  0  0
  191.9000  174.0930  142.0870 C   0  0  1  0  0  3  0  0  0  0  0  0
  192.8270  170.8490  144.2550 N   0  0  0  0  0  1  0  0  0  0  0  0
  191.8520  170.4400  143.2590 C   0  0  0  0  0  2  0  0  0  0  0  0
  187.5840  176.8660  146.7470 C   0  0  0  0  0  3  0  0  0  0  0  0
  188.3050  176.7700  145.5480 C   0  0  0  0  0  0  0  0  0  0  0  0
  187.6190  176.6620  144.3330 C   0  0  0  0  0  3  0  0  0  0  0  0
  185.5590  176.5590  143.1360 F   0  0  0  0  0  0  0  0  0  0  0  0
  185.5040  176.7610  145.5110 C   0  0  0  0  0  3  0  0  0  0  0  0
  186.2200  176.6590  144.3150 C   0  0  0  0  0  0  0  0  0  0  0  0
  186.1860  176.8630  146.7270 C   0  0  0  0  0  3  0  0  0  0  0  0
  1 10  1  0  0  0  0
  1 16  1  0  0  0  0
  2 14  1  0  0  0  0
  4  8  2  0  0  0  0
  5  7  1  0  0  0  0
  5  2  1  1  0  0  0
  6  4  1  0  0  0  0
  6  2  2  0  0  0  0
  7  3  1  1  0  0  0
  7 17  1  0  0  0  0
  8 12  1  0  0  0  0
  9  6  1  0  0  0  0
 13  1  1  0  0  0  0
 13  9  1  0  0  0  0
 14 12  2  0  0  0  0
 14 11  1  0  0  0  0
 15  9  1  1  0  0  0
 15  5  1  0  0  0  0
 16  4  1  0  0  0  0
 17 32  1  6  0  0  0
 17 19  1  0  0  0  0
 18  1  1  0  0  0  0
 19 11  1  0  0  0  0
 21 20  1  0  0  0  0
 21 30  1  1  0  0  0
 22 27  1  1  0  0  0
 23 22  1  0  0  0  0
 23 21  1  0  0  0  0
 24 25  1  0  0  0  0
 24 22  1  0  0  0  0
 26 24  1  0  0  0  0
 28 26  1  1  0  0  0
 28 15  1  0  0  0  0
 28 20  1  0  0  0  0
 30 29  1  0  0  0  0
 32 31  2  0  0  0  0
 33 32  1  0  0  0  0
 34 36  1  0  0  0  0
 35 37  2  0  0  0  0
 36 33  2  0  0  0  0
 36 35  1  0  0  0  0
 37 31  1  0  0  0  0
M  END
>  <MODEL>
2

>  <REMARK>
 VINA RESULT:      -8.6      2.788      6.056
  Name = 
  3 active torsions:
  status: ('A' for Active; 'I' for Inactive)
    1  A    between atoms: C_4  and  C_37
    2  A    between atoms: N_21  and  C_27
    3  A    between atoms: C_23  and  C_30
                            x       y       z     vdW  Elec       q    Type
                         _______ _______ _______ _____ _____    ______ ____

>  <TORSDO>
F 3

$$$$
=
 OpenBabel11112417113D

 37 42  0  0  1  0  0  0  0  0999 V2000
  195.8160  174.8860  139.2600 C   0  0  0  0  0  0  0  0  0  0  0  0
  194.1350  175.2420  143.0390 C   0  0  0  0  0  0  0  0  0  0  0  0
  191.7030  176.8380  142.4100 F   0  0  0  0  0  0  0  0  0  0  0  0
  196.0110  175.7480  141.6580 C   0  0  0  0  0  0  0  0  0  0  0  0
  192.7490  174.7110  142.8250 C   0  0  1  0  0  3  0  0  0  0  0  0
  194.7760  175.1740  141.8660 C   0  0  0  0  0  0  0  0  0  0  0  0
  191.6870  175.7370  143.2490 C   0  0  1  0  0  3  0  0  0  0  0  0
  196.6150  176.3710  142.7130 N   0  0  0  0  0  0  0  0  0  0  0  0
  193.9510  174.6570  140.8660 N   0  0  0  0  0  0  0  0  0  0  0  0
  196.3540  173.4730  139.4140 C   0  0  0  0  0  1  0  0  0  0  0  0
  193.9590  176.1350  145.4100 C   0  0  0  0  0  2  0  0  0  0  0  0
  196.0010  176.4450  143.9400 C   0  0  0  0  0  3  0  0  0  0  0  0
  194.2820  174.8770  139.4600 C   0  0  0  0  0  2  0  0  0  0  0  0
  194.7200  175.8850  144.1360 C   0  0  0  0  0  0  0  0  0  0  0  0
  192.6550  174.4020  141.3660 N   0  0  1  0  0  0  0  0  0  0  0  0
  196.5480  175.8260  140.2540 C   0  0  0  0  0  2  0  0  0  0  0  0
  191.8260  176.2030  144.7120 C   0  0  2  0  0  3  0  0  0  0  0  0
  196.1130  175.3530  137.8520 C   0  0  0  0  0  1  0  0  0  0  0  0
  192.7450  175.4260  145.4420 O   0  0  0  0  0  0  0  0  0  0  0  0
  192.5500  172.0550  142.3570 C   0  0  0  0  0  2  0  0  0  0  0  0
  192.0300  170.6500  142.0620 C   0  0  2  0  0  3  0  0  0  0  0  0
  189.7050  171.8630  142.0690 C   0  0  2  0  0  3  0  0  0  0  0  0
  190.4960  170.5420  142.0960 C   0  0  0  0  0  2  0  0  0  0  0  0
  189.8490  172.6620  140.8300 N   0  0  0  0  0  0  0  0  0  0  0  0
  189.4050  173.9280  141.0210 O   0  0  0  0  0  1  0  0  0  0  0  0
  191.1800  172.7090  140.2050 C   0  0  0  0  0  2  0  0  0  0  0  0
  189.8150  172.6560  143.3700 C   0  0  0  0  0  1  0  0  0  0  0  0
  192.3740  172.9760  141.1400 C   0  0  1  0  0  3  0  0  0  0  0  0
  192.8090  170.2840  144.3400 N   0  0  0  0  0  1  0  0  0  0  0  0
  192.6190  169.6550  143.0440 C   0  0  0  0  0  2  0  0  0  0  0  0
  189.5550  177.2190  145.1150 C   0  0  0  0  0  3  0  0  0  0  0  0
  190.4940  176.2140  145.3880 C   0  0  0  0  0  0  0  0  0  0  0  0
  190.1920  175.2200  146.3260 C   0  0  0  0  0  3  0  0  0  0  0  0
  188.6670  174.2590  147.8860 F   0  0  0  0  0  0  0  0  0  0  0  0
  188.0210  176.2250  146.7020 C   0  0  0  0  0  3  0  0  0  0  0  0
  188.9570  175.2250  146.9810 C   0  0  0  0  0  0  0  0  0  0  0  0
  188.3200  177.2230  145.7700 C   0  0  0  0  0  3  0  0  0  0  0  0
  1 10  1  0  0  0  0
  1 13  1  0  0  0  0
  1 16  1  0  0  0  0
  2 14  1  0  0  0  0
  4  6  1  0  0  0  0
  4  8  2  0  0  0  0
  5  2  1  6  0  0  0
  5  7  1  0  0  0  0
  6  2  2  0  0  0  0
  7  3  1  6  0  0  0
  7 17  1  0  0  0  0
  8 12  1  0  0  0  0
  9  6  1  0  0  0  0
 11 19  1  0  0  0  0
 12 14  2  0  0  0  0
 13  9  1  0  0  0  0
 14 11  1  0  0  0  0
 15  9  1  6  0  0  0
 15  5  1  0  0  0  0
 16  4  1  0  0  0  0
 17 32  1  1  0  0  0
 17 19  1  0  0  0  0
 18  1  1  0  0  0  0
 21 23  1  0  0  0  0
 21 20  1  0  0  0  0
 21 30  1  1  0  0  0
 22 23  1  0  0  0  0
 22 27  1  1  0  0  0
 24 25  1  0  0  0  0
 24 22  1  0  0  0  0
 26 24  1  0  0  0  0
 28 26  1  1  0  0  0
 28 15  1  0  0  0  0
 28 20  1  0  0  0  0
 30 29  1  0  0  0  0
 31 32  2  0  0  0  0
 31 37  1  0  0  0  0
 32 33  1  0  0  0  0
 33 36  2  0  0  0  0
 35 36  1  0  0  0  0
 36 34  1  0  0  0  0
 37 35  2  0  0  0  0
M  END
>  <MODEL>
3

>  <REMARK>
 VINA RESULT:      -8.0      3.500      6.227
  Name = 
  3 active torsions:
  status: ('A' for Active; 'I' for Inactive)
    1  A    between atoms: C_4  and  C_37
    2  A    between atoms: N_21  and  C_27
    3  A    between atoms: C_23  and  C_30
                            x       y       z     vdW  Elec       q    Type
                         _______ _______ _______ _____ _____    ______ ____

>  <TORSDO>
F 3

$$$$
=
 OpenBabel11112417113D

 37 42  0  0  1  0  0  0  0  0999 V2000
  193.3890  169.6080  143.2350 C   0  0  0  0  0  0  0  0  0  0  0  0
  191.0400  172.8650  142.1820 C   0  0  0  0  0  0  0  0  0  0  0  0
  189.2770  173.0650  144.5700 F   0  0  0  0  0  0  0  0  0  0  0  0
  191.6820  170.6350  141.6350 C   0  0  0  0  0  0  0  0  0  0  0  0
  191.2240  173.7840  143.3520 C   0  0  1  0  0  3  0  0  0  0  0  0
  191.7650  171.7640  142.4200 C   0  0  0  0  0  0  0  0  0  0  0  0
  189.8740  174.1650  143.9780 C   0  0  1  0  0  3  0  0  0  0  0  0
  190.8570  170.6690  140.5460 N   0  0  0  0  0  0  0  0  0  0  0  0
  192.4160  171.8420  143.6510 N   0  0  0  0  0  0  0  0  0  0  0  0
  194.6920  170.0960  142.6230 C   0  0  0  0  0  1  0  0  0  0  0  0
  189.2200  174.0720  140.8870 C   0  0  0  0  0  2  0  0  0  0  0  0
  190.1120  171.7860  140.2540 C   0  0  0  0  0  3  0  0  0  0  0  0
  192.9060  170.6260  144.2960 C   0  0  0  0  0  2  0  0  0  0  0  0
  190.1760  172.9270  141.0830 C   0  0  0  0  0  0  0  0  0  0  0  0
  192.0820  173.0390  144.3220 N   0  0  1  0  0  0  0  0  0  0  0  0
  192.3490  169.3710  142.1080 C   0  0  0  0  0  2  0  0  0  0  0  0
  188.8890  174.8100  142.9820 C   0  0  2  0  0  3  0  0  0  0  0  0
  193.6580  168.2880  143.9250 C   0  0  0  0  0  1  0  0  0  0  0  0
  189.4980  175.1400  141.7570 O   0  0  0  0  0  0  0  0  0  0  0  0
  193.7460  174.8030  143.5330 C   0  0  0  0  0  2  0  0  0  0  0  0
  194.9400  175.6250  144.0110 C   0  0  2  0  0  3  0  0  0  0  0  0
  193.1890  176.5690  145.7200 C   0  0  2  0  0  3  0  0  0  0  0  0
  194.5730  176.6930  145.0560 C   0  0  0  0  0  2  0  0  0  0  0  0
  192.9920  175.3600  146.5520 N   0  0  0  0  0  0  0  0  0  0  0  0
  191.6770  175.1670  146.8140 O   0  0  0  0  0  1  0  0  0  0  0  0
  193.5740  174.1000  146.0650 C   0  0  0  0  0  2  0  0  0  0  0  0
  192.0370  176.9020  144.7750 C   0  0  0  0  0  1  0  0  0  0  0  0
  193.3390  173.7570  144.5820 C   0  0  1  0  0  3  0  0  0  0  0  0
  196.8890  176.8710  143.2500 N   0  0  0  0  0  1  0  0  0  0  0  0
  195.6210  176.2970  142.8330 C   0  0  0  0  0  2  0  0  0  0  0  0
  188.2390  176.2070  144.9770 C   0  0  0  0  0  3  0  0  0  0  0  0
  188.2400  176.0120  143.5880 C   0  0  0  0  0  0  0  0  0  0  0  0
  187.6050  176.9410  142.7570 C   0  0  0  0  0  3  0  0  0  0  0  0
  186.3660  178.9620  142.5000 F   0  0  0  0  0  0  0  0  0  0  0  0
  186.9820  178.2570  144.6930 C   0  0  0  0  0  3  0  0  0  0  0  0
  186.9780  178.0620  143.3080 C   0  0  0  0  0  0  0  0  0  0  0  0
  187.6120  177.3290  145.5270 C   0  0  0  0  0  3  0  0  0  0  0  0
  1 18  1  0  0  0  0
  1 13  1  0  0  0  0
  2  6  1  0  0  0  0
  4 16  1  0  0  0  0
  4  6  2  0  0  0  0
  5  2  1  6  0  0  0
  5  7  1  0  0  0  0
  5 15  1  0  0  0  0
  6  9  1  0  0  0  0
  7  3  1  6  0  0  0
  8  4  1  0  0  0  0
  9 13  1  0  0  0  0
 10  1  1  0  0  0  0
 11 14  1  0  0  0  0
 11 19  1  0  0  0  0
 12  8  2  0  0  0  0
 12 14  1  0  0  0  0
 14  2  2  0  0  0  0
 15  9  1  6  0  0  0
 15 28  1  0  0  0  0
 16  1  1  0  0  0  0
 17 32  1  1  0  0  0
 17  7  1  0  0  0  0
 19 17  1  0  0  0  0
 20 21  1  0  0  0  0
 21 30  1  6  0  0  0
 21 23  1  0  0  0  0
 22 27  1  6  0  0  0
 22 24  1  0  0  0  0
 23 22  1  0  0  0  0
 24 25  1  0  0  0  0
 26 24  1  0  0  0  0
 28 20  1  6  0  0  0
 28 26  1  0  0  0  0
 30 29  1  0  0  0  0
 31 37  1  0  0  0  0
 32 31  2  0  0  0  0
 33 36  2  0  0  0  0
 33 32  1  0  0  0  0
 34 36  1  0  0  0  0
 35 37  2  0  0  0  0
 36 35  1  0  0  0  0
M  END
>  <MODEL>
4

>  <REMARK>
 VINA RESULT:      -7.9      2.998      4.616
  Name = 
  3 active torsions:
  status: ('A' for Active; 'I' for Inactive)
    1  A    between atoms: C_4  and  C_37
    2  A    between atoms: N_21  and  C_27
    3  A    between atoms: C_23  and  C_30
                            x       y       z     vdW  Elec       q    Type
                         _______ _______ _______ _____ _____    ______ ____

>  <TORSDO>
F 3

$$$$
=
 OpenBabel11112417113D

 37 42  0  0  1  0  0  0  0  0999 V2000
  192.0040  170.2070  139.8080 C   0  0  0  0  0  0  0  0  0  0  0  0
  189.9490  173.6480  140.8880 C   0  0  0  0  0  0  0  0  0  0  0  0
  189.0490  172.9140  143.6270 F   0  0  0  0  0  0  0  0  0  0  0  0
  190.0590  171.8080  139.3770 C   0  0  0  0  0  0  0  0  0  0  0  0
  190.6140  174.0280  142.1770 C   0  0  1  0  0  3  0  0  0  0  0  0
  190.5420  172.5330  140.4440 C   0  0  0  0  0  0  0  0  0  0  0  0
  189.5910  174.1500  143.3170 C   0  0  1  0  0  3  0  0  0  0  0  0
  188.9550  172.2810  138.7260 N   0  0  0  0  0  0  0  0  0  0  0  0
  191.5430  172.1080  141.3190 N   0  0  0  0  0  0  0  0  0  0  0  0
  193.1150  170.8780  139.0170 C   0  0  0  0  0  1  0  0  0  0  0  0
  188.0170  175.2960  140.8260 C   0  0  0  0  0  2  0  0  0  0  0  0
  188.3290  173.4330  139.1360 C   0  0  0  0  0  3  0  0  0  0  0  0
  192.0230  170.7290  141.2650 C   0  0  0  0  0  2  0  0  0  0  0  0
  188.8090  174.1520  140.2520 C   0  0  0  0  0  0  0  0  0  0  0  0
  191.6090  172.9480  142.4530 N   0  0  1  0  0  0  0  0  0  0  0  0
  190.6470  170.4500  139.0970 C   0  0  0  0  0  2  0  0  0  0  0  0
  188.4540  175.1500  143.0250 C   0  0  2  0  0  3  0  0  0  0  0  0
  192.2750  168.7180  139.8290 C   0  0  0  0  0  1  0  0  0  0  0  0
  188.7020  175.9290  141.8780 O   0  0  0  0  0  0  0  0  0  0  0  0
  193.1900  174.8580  141.8600 C   0  0  0  0  0  2  0  0  0  0  0  0
  194.5800  175.4050  142.1730 C   0  0  2  0  0  3  0  0  0  0  0  0
  193.5980  175.6120  144.5960 C   0  0  2  0  0  3  0  0  0  0  0  0
  194.7120  175.9720  143.5970 C   0  0  0  0  0  2  0  0  0  0  0  0
  193.4900  174.1730  144.9320 N   0  0  0  0  0  0  0  0  0  0  0  0
  192.3050  173.9090  145.5340 O   0  0  0  0  0  1  0  0  0  0  0  0
  193.7020  173.2050  143.8450 C   0  0  0  0  0  2  0  0  0  0  0  0
  192.2720  176.3090  144.2940 C   0  0  0  0  0  1  0  0  0  0  0  0
  192.9760  173.4850  142.5170 C   0  0  1  0  0  3  0  0  0  0  0  0
  196.3410  176.8820  141.3670 N   0  0  0  0  0  1  0  0  0  0  0  0
  194.9580  176.4830  141.1730 C   0  0  0  0  0  2  0  0  0  0  0  0
  188.7660  175.7200  145.4600 C   0  0  0  0  0  3  0  0  0  0  0  0
  188.2050  176.0240  144.2100 C   0  0  0  0  0  0  0  0  0  0  0  0
  187.3790  177.1450  144.0750 C   0  0  0  0  0  3  0  0  0  0  0  0
  186.3240  179.0510  145.0440 F   0  0  0  0  0  0  0  0  0  0  0  0
  187.6870  177.6620  146.4220 C   0  0  0  0  0  3  0  0  0  0  0  0
  187.1220  177.9640  145.1790 C   0  0  0  0  0  0  0  0  0  0  0  0
  188.5080  176.5400  146.5620 C   0  0  0  0  0  3  0  0  0  0  0  0
  1 18  1  0  0  0  0
  1 13  1  0  0  0  0
  4  6  2  0  0  0  0
  5  2  1  6  0  0  0
  5 15  1  0  0  0  0
  5  7  1  0  0  0  0
  6  2  1  0  0  0  0
  6  9  1  0  0  0  0
  7  3  1  6  0  0  0
  8 12  2  0  0  0  0
  8  4  1  0  0  0  0
 10  1  1  0  0  0  0
 11 19  1  0  0  0  0
 12 14  1  0  0  0  0
 13  9  1  0  0  0  0
 14 11  1  0  0  0  0
 14  2  2  0  0  0  0
 15  9  1  6  0  0  0
 15 28  1  0  0  0  0
 16  4  1  0  0  0  0
 16  1  1  0  0  0  0
 17  7  1  0  0  0  0
 17 32  1  1  0  0  0
 19 17  1  0  0  0  0
 20 21  1  0  0  0  0
 21 30  1  6  0  0  0
 21 23  1  0  0  0  0
 22 27  1  6  0  0  0
 22 24  1  0  0  0  0
 23 22  1  0  0  0  0
 24 25  1  0  0  0  0
 26 24  1  0  0  0  0
 28 20  1  1  0  0  0
 28 26  1  0  0  0  0
 30 29  1  0  0  0  0
 31 37  1  0  0  0  0
 32 31  2  0  0  0  0
 33 32  1  0  0  0  0
 33 36  2  0  0  0  0
 34 36  1  0  0  0  0
 35 37  2  0  0  0  0
 36 35  1  0  0  0  0
M  END
>  <MODEL>
5

>  <REMARK>
 VINA RESULT:      -7.8      2.524      3.388
  Name = 
  3 active torsions:
  status: ('A' for Active; 'I' for Inactive)
    1  A    between atoms: C_4  and  C_37
    2  A    between atoms: N_21  and  C_27
    3  A    between atoms: C_23  and  C_30
                            x       y       z     vdW  Elec       q    Type
                         _______ _______ _______ _____ _____    ______ ____

>  <TORSDO>
F 3

$$$$
=
 OpenBabel11112417113D

 37 42  0  0  1  0  0  0  0  0999 V2000
  187.4110  176.6720  142.4640 C   0  0  0  0  0  0  0  0  0  0  0  0
  191.4000  175.9300  143.3420 C   0  0  0  0  0  0  0  0  0  0  0  0
  191.1240  173.8000  145.4000 F   0  0  0  0  0  0  0  0  0  0  0  0
  189.6400  177.5370  143.3660 C   0  0  0  0  0  0  0  0  0  0  0  0
  191.5090  174.4520  143.1150 C   0  0  1  0  0  3  0  0  0  0  0  0
  190.1350  176.2830  143.0840 C   0  0  0  0  0  0  0  0  0  0  0  0
  192.0420  173.7350  144.3650 C   0  0  1  0  0  3  0  0  0  0  0  0
  190.4980  178.4640  143.8880 N   0  0  0  0  0  0  0  0  0  0  0  0
  189.3650  175.1790  142.7160 N   0  0  0  0  0  0  0  0  0  0  0  0
  187.5790  176.9300  140.9760 C   0  0  0  0  0  1  0  0  0  0  0  0
  193.6720  176.4430  144.3520 C   0  0  0  0  0  2  0  0  0  0  0  0
  191.8100  178.1490  144.1470 C   0  0  0  0  0  3  0  0  0  0  0  0
  187.9080  175.2450  142.7970 C   0  0  0  0  0  2  0  0  0  0  0  0
  192.3010  176.8510  143.8880 C   0  0  0  0  0  0  0  0  0  0  0  0
  190.1300  173.9920  142.7710 N   0  0  1  0  0  0  0  0  0  0  0  0
  188.1560  177.7730  143.2640 C   0  0  0  0  0  2  0  0  0  0  0  0
  193.4030  174.2700  144.8540 C   0  0  2  0  0  3  0  0  0  0  0  0
  185.9360  176.7550  142.7930 C   0  0  0  0  0  1  0  0  0  0  0  0
  194.0030  175.1440  143.9280 O   0  0  0  0  0  0  0  0  0  0  0  0
  191.2200  173.7900  140.4750 C   0  0  0  0  0  2  0  0  0  0  0  0
  191.1940  172.9430  139.2060 C   0  0  2  0  0  3  0  0  0  0  0  0
  191.9260  171.0380  140.8520 C   0  0  2  0  0  3  0  0  0  0  0  0
  191.7530  171.5230  139.4010 C   0  0  0  0  0  2  0  0  0  0  0  0
  190.6710  170.8970  141.6260 N   0  0  0  0  0  0  0  0  0  0  0  0
  190.9350  170.7950  142.9520 O   0  0  0  0  0  1  0  0  0  0  0  0
  189.6300  171.9160  141.4210 C   0  0  0  0  0  2  0  0  0  0  0  0
  193.0680  171.7360  141.5870 C   0  0  0  0  0  1  0  0  0  0  0  0
  190.0880  173.3850  141.4320 C   0  0  1  0  0  3  0  0  0  0  0  0
  193.1780  174.2340  138.6340 N   0  0  0  0  0  1  0  0  0  0  0  0
  191.9690  173.6330  138.0980 C   0  0  0  0  0  2  0  0  0  0  0  0
  195.6890  173.3660  145.4080 C   0  0  0  0  0  3  0  0  0  0  0  0
  194.3230  173.1410  145.1840 C   0  0  0  0  0  0  0  0  0  0  0  0
  193.8160  171.8380  145.2440 C   0  0  0  0  0  3  0  0  0  0  0  0
  194.1720  169.5070  145.5950 F   0  0  0  0  0  0  0  0  0  0  0  0
  196.0270  170.9950  145.7630 C   0  0  0  0  0  3  0  0  0  0  0  0
  194.6670  170.7670  145.5340 C   0  0  0  0  0  0  0  0  0  0  0  0
  196.5380  172.2940  145.6980 C   0  0  0  0  0  3  0  0  0  0  0  0
  1 18  1  0  0  0  0
  1 13  1  0  0  0  0
  1 16  1  0  0  0  0
  2 14  1  0  0  0  0
  4  8  2  0  0  0  0
  5  2  1  1  0  0  0
  5  7  1  0  0  0  0
  6  2  2  0  0  0  0
  6  4  1  0  0  0  0
  7 17  1  0  0  0  0
  7  3  1  1  0  0  0
  8 12  1  0  0  0  0
  9 13  1  0  0  0  0
  9  6  1  0  0  0  0
 10  1  1  0  0  0  0
 14 12  2  0  0  0  0
 14 11  1  0  0  0  0
 15  9  1  6  0  0  0
 15  5  1  0  0  0  0
 16  4  1  0  0  0  0
 17 32  1  6  0  0  0
 19 11  1  0  0  0  0
 19 17  1  0  0  0  0
 21 30  1  6  0  0  0
 21 23  1  0  0  0  0
 21 20  1  0  0  0  0
 22 27  1  1  0  0  0
 22 24  1  0  0  0  0
 23 22  1  0  0  0  0
 24 25  1  0  0  0  0
 26 28  1  0  0  0  0
 26 24  1  0  0  0  0
 28 20  1  1  0  0  0
 28 15  1  0  0  0  0
 30 29  1  0  0  0  0
 31 37  1  0  0  0  0
 32 33  1  0  0  0  0
 32 31  2  0  0  0  0
 33 36  2  0  0  0  0
 36 34  1  0  0  0  0
 36 35  1  0  0  0  0
 37 35  2  0  0  0  0
M  END
>  <MODEL>
6

>  <REMARK>
 VINA RESULT:      -7.4      3.247      7.261
  Name = 
  3 active torsions:
  status: ('A' for Active; 'I' for Inactive)
    1  A    between atoms: C_4  and  C_37
    2  A    between atoms: N_21  and  C_27
    3  A    between atoms: C_23  and  C_30
                            x       y       z     vdW  Elec       q    Type
                         _______ _______ _______ _____ _____    ______ ____

>  <TORSDO>
F 3

$$$$
=
 OpenBabel11112417113D

 37 42  0  0  1  0  0  0  0  0999 V2000
  195.0840  175.6290  144.1670 C   0  0  0  0  0  0  0  0  0  0  0  0
  191.1220  176.1340  145.3000 C   0  0  0  0  0  0  0  0  0  0  0  0
  190.3380  178.4120  143.5530 F   0  0  0  0  0  0  0  0  0  0  0  0
  193.3990  176.1910  146.0040 C   0  0  0  0  0  0  0  0  0  0  0  0
  190.4000  176.0460  143.9890 C   0  0  1  0  0  3  0  0  0  0  0  0
  192.4290  175.9830  145.0490 C   0  0  0  0  0  0  0  0  0  0  0  0
  189.5410  177.2950  143.7400 C   0  0  1  0  0  3  0  0  0  0  0  0
  192.9960  176.5210  147.2670 N   0  0  0  0  0  0  0  0  0  0  0  0
  192.6670  175.8120  143.6840 N   0  0  0  0  0  0  0  0  0  0  0  0
  195.1280  174.1130  144.2660 C   0  0  0  0  0  1  0  0  0  0  0  0
  189.2400  176.8350  146.8530 C   0  0  0  0  0  2  0  0  0  0  0  0
  191.6640  176.6650  147.5720 C   0  0  0  0  0  3  0  0  0  0  0  0
  194.0030  176.0460  143.1420 C   0  0  0  0  0  2  0  0  0  0  0  0
  190.6770  176.4840  146.5790 C   0  0  0  0  0  0  0  0  0  0  0  0
  191.4640  175.9020  142.9490 N   0  0  1  0  0  0  0  0  0  0  0  0
  194.8420  176.2290  145.5770 C   0  0  0  0  0  2  0  0  0  0  0  0
  188.5180  177.5760  144.8600 C   0  0  2  0  0  3  0  0  0  0  0  0
  196.4300  176.1070  143.6670 C   0  0  0  0  0  1  0  0  0  0  0  0
  188.4060  176.5080  145.7690 O   0  0  0  0  0  0  0  0  0  0  0  0
  191.9210  173.3950  142.8660 C   0  0  0  0  0  2  0  0  0  0  0  0
  191.5220  172.1270  142.1150 C   0  0  2  0  0  3  0  0  0  0  0  0
  189.1480  172.6980  143.0710 C   0  0  2  0  0  3  0  0  0  0  0  0
  190.0780  171.6760  142.3910 C   0  0  0  0  0  2  0  0  0  0  0  0
  188.8590  173.9150  142.2780 N   0  0  0  0  0  0  0  0  0  0  0  0
  188.3250  174.8830  143.0620 O   0  0  0  0  0  1  0  0  0  0  0  0
  189.9600  174.4890  141.4900 C   0  0  0  0  0  2  0  0  0  0  0  0
  189.4970  172.9460  144.5370 C   0  0  0  0  0  1  0  0  0  0  0  0
  191.3150  174.6430  142.2040 C   0  0  1  0  0  3  0  0  0  0  0  0
  192.4770  170.7640  143.8920 N   0  0  0  0  0  1  0  0  0  0  0  0
  192.4710  170.9930  142.4580 C   0  0  0  0  0  2  0  0  0  0  0  0
  187.0300  178.1210  142.9000 C   0  0  0  0  0  3  0  0  0  0  0  0
  187.1840  177.9140  144.2790 C   0  0  0  0  0  0  0  0  0  0  0  0
  186.0810  178.0520  145.1280 C   0  0  0  0  0  3  0  0  0  0  0  0
  183.7610  178.5130  145.4290 F   0  0  0  0  0  0  0  0  0  0  0  0
  184.6760  178.5850  143.2290 C   0  0  0  0  0  3  0  0  0  0  0  0
  184.8280  178.3850  144.6040 C   0  0  0  0  0  0  0  0  0  0  0  0
  185.7770  178.4540  142.3770 C   0  0  0  0  0  3  0  0  0  0  0  0
  1 10  1  0  0  0  0
  1 16  1  0  0  0  0
  2 14  1  0  0  0  0
  4  8  2  0  0  0  0
  5  2  1  1  0  0  0
  6  2  2  0  0  0  0
  6  4  1  0  0  0  0
  7  3  1  1  0  0  0
  7  5  1  0  0  0  0
  7 17  1  0  0  0  0
  8 12  1  0  0  0  0
  9  6  1  0  0  0  0
 13  9  1  0  0  0  0
 13  1  1  0  0  0  0
 14 11  1  0  0  0  0
 14 12  2  0  0  0  0
 15  9  1  1  0  0  0
 15  5  1  0  0  0  0
 16  4  1  0  0  0  0
 17 32  1  6  0  0  0
 17 19  1  0  0  0  0
 18  1  1  0  0  0  0
 19 11  1  0  0  0  0
 21 23  1  0  0  0  0
 21 30  1  1  0  0  0
 21 20  1  0  0  0  0
 22 27  1  1  0  0  0
 23 22  1  0  0  0  0
 24 25  1  0  0  0  0
 24 22  1  0  0  0  0
 26 24  1  0  0  0  0
 28 26  1  1  0  0  0
 28 20  1  0  0  0  0
 28 15  1  0  0  0  0
 30 29  1  0  0  0  0
 31 32  1  0  0  0  0
 32 33  2  0  0  0  0
 35 36  2  0  0  0  0
 36 33  1  0  0  0  0
 36 34  1  0  0  0  0
 37 31  2  0  0  0  0
 37 35  1  0  0  0  0
M  END
>  <MODEL>
7

>  <REMARK>
 VINA RESULT:      -7.4      2.667      5.752
  Name = 
  3 active torsions:
  status: ('A' for Active; 'I' for Inactive)
    1  A    between atoms: C_4  and  C_37
    2  A    between atoms: N_21  and  C_27
    3  A    between atoms: C_23  and  C_30
                            x       y       z     vdW  Elec       q    Type
                         _______ _______ _______ _____ _____    ______ ____

>  <TORSDO>
F 3

$$$$
=
 OpenBabel11112417113D

 37 42  0  0  1  0  0  0  0  0999 V2000
  189.7430  175.6890  145.7810 C   0  0  0  0  0  0  0  0  0  0  0  0
  191.7610  174.3940  142.3910 C   0  0  0  0  0  0  0  0  0  0  0  0
  193.4600  176.7700  141.8220 F   0  0  0  0  0  0  0  0  0  0  0  0
  189.6410  174.9240  143.3440 C   0  0  0  0  0  0  0  0  0  0  0  0
  193.1960  174.5780  142.7830 C   0  0  1  0  0  3  0  0  0  0  0  0
  191.0100  174.7880  143.4270 C   0  0  0  0  0  0  0  0  0  0  0  0
  193.9380  175.4710  141.7760 C   0  0  1  0  0  3  0  0  0  0  0  0
  189.0330  174.5970  142.1650 N   0  0  0  0  0  0  0  0  0  0  0  0
  191.8000  175.2380  144.4860 N   0  0  0  0  0  0  0  0  0  0  0  0
  189.6980  174.3550  146.5070 C   0  0  0  0  0  1  0  0  0  0  0  0
  191.9930  173.7910  139.9360 C   0  0  0  0  0  2  0  0  0  0  0  0
  189.7660  174.1680  141.0850 C   0  0  0  0  0  3  0  0  0  0  0  0
  191.2170  176.0850  145.5240 C   0  0  0  0  0  2  0  0  0  0  0  0
  191.1710  174.0640  141.1660 C   0  0  0  0  0  0  0  0  0  0  0  0
  193.1700  175.1990  144.1420 N   0  0  1  0  0  0  0  0  0  0  0  0
  188.9080  175.5930  144.4770 C   0  0  0  0  0  2  0  0  0  0  0  0
  193.8760  174.9520  140.3250 C   0  0  2  0  0  3  0  0  0  0  0  0
  189.1150  176.7350  146.6760 C   0  0  0  0  0  1  0  0  0  0  0  0
  193.3580  173.6460  140.2400 O   0  0  0  0  0  0  0  0  0  0  0  0
  193.9450  172.8540  144.7740 C   0  0  0  0  0  2  0  0  0  0  0  0
  194.8410  172.1120  145.7630 C   0  0  2  0  0  3  0  0  0  0  0  0
  196.7250  173.5350  144.6210 C   0  0  2  0  0  3  0  0  0  0  0  0
  196.3420  172.3570  145.5360 C   0  0  0  0  0  2  0  0  0  0  0  0
  196.3500  174.8750  145.1260 N   0  0  0  0  0  0  0  0  0  0  0  0
  196.4170  175.7970  144.1340 O   0  0  0  0  0  1  0  0  0  0  0  0
  195.0550  175.0040  145.8130 C   0  0  0  0  0  2  0  0  0  0  0  0
  196.4040  173.2810  143.1490 C   0  0  0  0  0  1  0  0  0  0  0  0
  193.8420  174.3450  145.1320 C   0  0  1  0  0  3  0  0  0  0  0  0
  193.6780  170.3200  144.5940 N   0  0  0  0  0  1  0  0  0  0  0  0
  194.5660  170.6210  145.7040 C   0  0  0  0  0  2  0  0  0  0  0  0
  196.3140  175.5880  140.3600 C   0  0  0  0  0  3  0  0  0  0  0  0
  195.2220  175.0270  139.6820 C   0  0  0  0  0  0  0  0  0  0  0  0
  195.3860  174.5530  138.3760 C   0  0  0  0  0  3  0  0  0  0  0  0
  196.7910  174.1690  136.4880 F   0  0  0  0  0  0  0  0  0  0  0  0
  197.7230  175.1860  138.4320 C   0  0  0  0  0  3  0  0  0  0  0  0
  196.6350  174.6310  137.7520 C   0  0  0  0  0  0  0  0  0  0  0  0
  197.5620  175.6660  139.7350 C   0  0  0  0  0  3  0  0  0  0  0  0
  1 10  1  0  0  0  0
  1 18  1  0  0  0  0
  2  6  1  0  0  0  0
  4  6  2  0  0  0  0
  4 16  1  0  0  0  0
  5  2  1  6  0  0  0
  5 15  1  0  0  0  0
  6  9  1  0  0  0  0
  7  3  1  6  0  0  0
  7  5  1  0  0  0  0
  8  4  1  0  0  0  0
  9 13  1  0  0  0  0
 11 19  1  0  0  0  0
 11 14  1  0  0  0  0
 12 14  1  0  0  0  0
 12  8  2  0  0  0  0
 13  1  1  0  0  0  0
 14  2  2  0  0  0  0
 15  9  1  1  0  0  0
 15 28  1  0  0  0  0
 16  1  1  0  0  0  0
 17 32  1  1  0  0  0
 17  7  1  0  0  0  0
 19 17  1  0  0  0  0
 20 21  1  0  0  0  0
 21 30  1  6  0  0  0
 22 27  1  6  0  0  0
 22 24  1  0  0  0  0
 22 23  1  0  0  0  0
 23 21  1  0  0  0  0
 24 26  1  0  0  0  0
 25 24  1  0  0  0  0
 28 20  1  6  0  0  0
 28 26  1  0  0  0  0
 29 30  1  0  0  0  0
 32 31  2  0  0  0  0
 33 32  1  0  0  0  0
 34 36  1  0  0  0  0
 35 37  2  0  0  0  0
 36 33  2  0  0  0  0
 36 35  1  0  0  0  0
 37 31  1  0  0  0  0
M  END
>  <MODEL>
8

>  <REMARK>
 VINA RESULT:      -7.3      4.591      8.330
  Name = 
  3 active torsions:
  status: ('A' for Active; 'I' for Inactive)
    1  A    between atoms: C_4  and  C_37
    2  A    between atoms: N_21  and  C_27
    3  A    between atoms: C_23  and  C_30
                            x       y       z     vdW  Elec       q    Type
                         _______ _______ _______ _____ _____    ______ ____

>  <TORSDO>
F 3

$$$$
=
 OpenBabel11112417113D

 37 42  0  0  1  0  0  0  0  0999 V2000
  187.8230  176.2140  142.9390 C   0  0  0  0  0  0  0  0  0  0  0  0
  191.5960  175.2560  144.3830 C   0  0  0  0  0  0  0  0  0  0  0  0
  191.2220  172.3760  145.0280 F   0  0  0  0  0  0  0  0  0  0  0  0
  189.6410  176.5830  144.6980 C   0  0  0  0  0  0  0  0  0  0  0  0
  191.9830  174.0920  143.5210 C   0  0  1  0  0  3  0  0  0  0  0  0
  190.3760  175.6510  143.9980 C   0  0  0  0  0  0  0  0  0  0  0  0
  192.3400  172.8640  144.3720 C   0  0  1  0  0  3  0  0  0  0  0  0
  190.2090  177.1520  145.8020 N   0  0  0  0  0  0  0  0  0  0  0  0
  189.8870  174.8550  142.9610 N   0  0  0  0  0  0  0  0  0  0  0  0
  188.2650  177.1850  141.8560 C   0  0  0  0  0  1  0  0  0  0  0  0
  193.4870  175.2660  146.0770 C   0  0  0  0  0  2  0  0  0  0  0  0
  191.4670  176.7900  146.2190 C   0  0  0  0  0  3  0  0  0  0  0  0
  188.4550  174.8270  142.6750 C   0  0  0  0  0  2  0  0  0  0  0  0
  192.2010  175.8090  145.5160 C   0  0  0  0  0  0  0  0  0  0  0  0
  190.8000  173.8230  142.6490 N   0  0  1  0  0  0  0  0  0  0  0  0
  188.1950  176.7920  144.3300 C   0  0  0  0  0  2  0  0  0  0  0  0
  193.4620  173.1250  145.3970 C   0  0  2  0  0  3  0  0  0  0  0  0
  186.3180  176.0770  142.8640 C   0  0  0  0  0  1  0  0  0  0  0  0
  194.1020  174.3620  145.1930 O   0  0  0  0  0  0  0  0  0  0  0  0
  192.6200  174.2530  140.9160 C   0  0  0  0  0  2  0  0  0  0  0  0
  192.8950  174.1650  139.4170 C   0  0  2  0  0  3  0  0  0  0  0  0
  192.4530  171.6110  139.8170 C   0  0  2  0  0  3  0  0  0  0  0  0
  192.9810  172.7220  138.8910 C   0  0  0  0  0  2  0  0  0  0  0  0
  191.0010  171.6630  140.1030 N   0  0  0  0  0  0  0  0  0  0  0  0
  190.6920  170.8760  141.1620 O   0  0  0  0  0  1  0  0  0  0  0  0
  190.3950  172.9890  140.2980 C   0  0  0  0  0  2  0  0  0  0  0  0
  193.3460  171.3670  141.0320 C   0  0  0  0  0  1  0  0  0  0  0  0
  191.1430  173.9630  141.2260 C   0  0  1  0  0  3  0  0  0  0  0  0
  194.6760  175.6070  140.2410 N   0  0  0  0  0  1  0  0  0  0  0  0
  194.1800  174.8960  139.0750 C   0  0  0  0  0  2  0  0  0  0  0  0
  195.7890  172.2280  145.7620 C   0  0  0  0  0  3  0  0  0  0  0  0
  194.4560  172.0100  145.3830 C   0  0  0  0  0  0  0  0  0  0  0  0
  194.0540  170.7380  144.9610 C   0  0  0  0  0  3  0  0  0  0  0  0
  194.5820  168.4560  144.5200 F   0  0  0  0  0  0  0  0  0  0  0  0
  196.3020  169.9050  145.3090 C   0  0  0  0  0  3  0  0  0  0  0  0
  194.9750  169.6870  144.9250 C   0  0  0  0  0  0  0  0  0  0  0  0
  196.7090  171.1760  145.7250 C   0  0  0  0  0  3  0  0  0  0  0  0
  1 16  1  0  0  0  0
  2 14  1  0  0  0  0
  4  8  2  0  0  0  0
  5  7  1  0  0  0  0
  5  2  1  1  0  0  0
  6  2  2  0  0  0  0
  6  4  1  0  0  0  0
  7  3  1  1  0  0  0
  7 17  1  0  0  0  0
  8 12  1  0  0  0  0
  9  6  1  0  0  0  0
 10  1  1  0  0  0  0
 13  1  1  0  0  0  0
 13  9  1  0  0  0  0
 14 11  1  0  0  0  0
 14 12  2  0  0  0  0
 15  9  1  1  0  0  0
 15  5  1  0  0  0  0
 16  4  1  0  0  0  0
 17 32  1  6  0  0  0
 18  1  1  0  0  0  0
 19 17  1  0  0  0  0
 19 11  1  0  0  0  0
 20 28  1  0  0  0  0
 21 30  1  1  0  0  0
 21 20  1  0  0  0  0
 22 24  1  0  0  0  0
 22 27  1  1  0  0  0
 23 21  1  0  0  0  0
 23 22  1  0  0  0  0
 24 26  1  0  0  0  0
 24 25  1  0  0  0  0
 28 26  1  6  0  0  0
 28 15  1  0  0  0  0
 30 29  1  0  0  0  0
 32 31  2  0  0  0  0
 33 32  1  0  0  0  0
 34 36  1  0  0  0  0
 35 37  2  0  0  0  0
 36 33  2  0  0  0  0
 36 35  1  0  0  0  0
 37 31  1  0  0  0  0
M  END
>  <MODEL>
9

>  <REMARK>
 VINA RESULT:      -7.1      3.689      7.745
  Name = 
  3 active torsions:
  status: ('A' for Active; 'I' for Inactive)
    1  A    between atoms: C_4  and  C_37
    2  A    between atoms: N_21  and  C_27
    3  A    between atoms: C_23  and  C_30
                            x       y       z     vdW  Elec       q    Type
                         _______ _______ _______ _____ _____    ______ ____

>  <TORSDO>
F 3

$$$$
