=
 OpenBabel11112417513D

 34 41  0  0  1  0  0  0  0  0999 V2000
  189.9630  174.8290  142.4210 C   0  0  0  0  0  0  0  0  0  0  0  0
  192.4610  174.4990  142.3880 C   0  0  0  0  0  2  0  0  0  0  0  0
  185.6980  179.1770  144.7000 C   0  0  2  0  0  3  0  0  0  0  0  0
  187.7850  175.8310  142.4750 C   0  0  0  0  0  0  0  0  0  0  0  0
  187.2740  177.6500  144.1370 C   0  0  1  0  0  3  0  0  0  0  0  0
  184.5460  177.8330  143.1840 C   0  0  0  0  0  2  0  0  0  0  0  0
  191.3720  174.5980  144.4970 C   0  0  2  0  0  3  0  0  0  0  0  0
  192.8120  176.1100  146.8400 C   0  0  0  0  0  2  0  0  0  0  0  0
  188.6330  177.3480  144.8020 C   0  0  0  0  0  2  0  0  0  0  0  0
  185.5560  177.0220  142.3780 C   0  0  0  0  0  2  0  0  0  0  0  0
  190.6360  175.8410  145.0530 C   0  0  1  0  0  3  0  0  0  0  0  0
  193.4690  174.7930  143.3270 O   0  0  0  0  0  0  0  0  0  0  0  0
  186.7010  176.5180  143.2620 C   0  0  1  0  0  3  0  0  0  0  0  0
  185.0710  179.1170  143.4240 O   0  0  0  0  0  0  0  0  0  0  0  0
  193.5910  175.4900  145.6920 C   0  0  1  0  0  0  0  0  0  0  0  0
  188.9850  175.5300  143.1240 C   0  0  0  0  0  0  0  0  0  0  0  0
  186.3270  177.9820  145.1150 O   0  0  0  0  0  0  0  0  0  0  0  0
  189.1750  175.9290  144.5650 C   0  0  2  0  0  3  0  0  0  0  0  0
  188.5830  174.7970  140.5030 C   0  0  0  0  0  3  0  0  0  0  0  0
  191.7470  175.2750  147.1770 O   0  0  0  0  0  0  0  0  0  0  0  0
  187.6040  175.4520  141.1810 N   0  0  0  0  0  0  0  0  0  0  0  0
  190.6080  175.8490  146.5930 C   0  0  0  0  0  2  0  0  0  0  0  0
  192.9040  174.6070  144.6110 C   0  0  1  0  0  3  0  0  0  0  0  0
  189.7550  174.4920  141.1210 N   0  0  0  0  0  0  0  0  0  0  0  0
  191.1900  174.5000  143.0730 N   0  0  0  0  0  0  0  0  0  0  0  0
  194.5520  176.3750  145.1680 O   0  0  0  0  0  0  0  0  0  0  0  0
  195.0440  175.3290  145.9790 C   0  0  2  0  0  3  0  0  0  0  0  0
  197.9410  174.1330  144.1240 N   0  0  0  0  0  2  0  0  0  0  0  0
  196.5930  173.3910  145.9700 C   0  0  0  0  0  2  0  0  0  0  0  0
  195.7530  174.2940  145.1160 C   0  0  2  0  0  3  0  0  0  0  0  0
  197.7700  173.0520  145.0880 C   0  0  0  0  0  2  0  0  0  0  0  0
  196.7450  174.9660  144.1950 C   0  0  0  0  0  2  0  0  0  0  0  0
  184.3250  178.6330  146.5920 O   0  0  0  0  0  1  0  0  0  0  0  0
  184.7350  179.6810  145.7660 C   0  0  0  0  0  2  0  0  0  0  0  0
  1 25  1  0  0  0  0
  1 16  1  0  0  0  0
  2 25  1  0  0  0  0
  2 12  1  0  0  0  0
  3 17  1  0  0  0  0
  3 34  1  1  0  0  0
  4 16  2  0  0  0  0
  4 13  1  0  0  0  0
  5  9  1  1  0  0  0
  5 17  1  0  0  0  0
  6 14  1  0  0  0  0
  7 25  1  6  0  0  0
  7 23  1  0  0  0  0
  7 11  1  0  0  0  0
  8 20  1  0  0  0  0
 10  6  1  0  0  0  0
 11 22  1  1  0  0  0
 13 10  1  6  0  0  0
 13  5  1  0  0  0  0
 14  3  1  0  0  0  0
 15 27  1  0  0  0  0
 15  8  1  1  0  0  0
 16 18  1  0  0  0  0
 18  9  1  6  0  0  0
 18 11  1  0  0  0  0
 19 24  1  0  0  0  0
 19 21  2  0  0  0  0
 21  4  1  0  0  0  0
 22 20  1  0  0  0  0
 23 12  1  6  0  0  0
 23 15  1  0  0  0  0
 24  1  2  0  0  0  0
 26 15  1  0  0  0  0
 27 26  1  6  0  0  0
 28 32  1  0  0  0  0
 28 31  1  0  0  0  0
 30 32  1  6  0  0  0
 30 29  1  0  0  0  0
 30 27  1  0  0  0  0
 31 29  1  0  0  0  0
 34 33  1  0  0  0  0
M  END
>  <MODEL>
1

>  <REMARK>
 VINA RESULT:      -8.4      0.000      0.000
  Name = 
  2 active torsions:
  status: ('A' for Active; 'I' for Inactive)
    1  A    between atoms: C_3  and  C_7
    2  A    between atoms: C_29  and  C_32
                            x       y       z     vdW  Elec       q    Type
                         _______ _______ _______ _____ _____    ______ ____

>  <TORSDO>
F 2

$$$$
=
 OpenBabel11112417513D

 34 41  0  0  1  0  0  0  0  0999 V2000
  189.7900  175.0550  142.7040 C   0  0  0  0  0  0  0  0  0  0  0  0
  192.2110  174.7400  142.0820 C   0  0  0  0  0  2  0  0  0  0  0  0
  186.2370  179.0460  146.4090 C   0  0  2  0  0  3  0  0  0  0  0  0
  187.7020  176.0340  143.3640 C   0  0  0  0  0  0  0  0  0  0  0  0
  187.6120  177.6140  145.3210 C   0  0  1  0  0  3  0  0  0  0  0  0
  184.7480  177.9130  145.0200 C   0  0  0  0  0  2  0  0  0  0  0  0
  191.6090  174.5530  144.3720 C   0  0  2  0  0  3  0  0  0  0  0  0
  193.5630  175.7430  146.5210 C   0  0  0  0  0  2  0  0  0  0  0  0
  189.0750  177.2300  145.6270 C   0  0  0  0  0  2  0  0  0  0  0  0
  185.5370  177.2200  143.9130 C   0  0  0  0  0  2  0  0  0  0  0  0
  191.0450  175.7080  145.2340 C   0  0  1  0  0  3  0  0  0  0  0  0
  193.4060  174.9090  142.8070 O   0  0  0  0  0  0  0  0  0  0  0  0
  186.8330  176.6060  144.4510 C   0  0  1  0  0  3  0  0  0  0  0  0
  185.3460  179.1550  145.3050 O   0  0  0  0  0  0  0  0  0  0  0  0
  194.0570  175.2840  145.1590 C   0  0  1  0  0  0  0  0  0  0  0  0
  189.0060  175.6530  143.6890 C   0  0  0  0  0  0  0  0  0  0  0  0
  186.9100  177.8080  146.5170 O   0  0  0  0  0  0  0  0  0  0  0  0
  189.5150  175.8570  145.0930 C   0  0  2  0  0  3  0  0  0  0  0  0
  188.0250  175.2740  141.1460 C   0  0  0  0  0  3  0  0  0  0  0  0
  192.5750  174.8680  146.9700 O   0  0  0  0  0  0  0  0  0  0  0  0
  187.2340  175.8310  142.1020 N   0  0  0  0  0  0  0  0  0  0  0  0
  191.3520  175.5110  146.7300 C   0  0  0  0  0  2  0  0  0  0  0  0
  193.1290  174.5520  144.1480 C   0  0  1  0  0  3  0  0  0  0  0  0
  189.2950  174.8930  141.4480 N   0  0  0  0  0  0  0  0  0  0  0  0
  191.1190  174.6460  143.0220 N   0  0  0  0  0  0  0  0  0  0  0  0
  194.9040  176.2350  144.5570 O   0  0  0  0  0  0  0  0  0  0  0  0
  195.5340  175.0920  145.0980 C   0  0  2  0  0  3  0  0  0  0  0  0
  197.9370  174.1500  142.5290 N   0  0  0  0  0  2  0  0  0  0  0  0
  196.9780  173.1650  144.4990 C   0  0  0  0  0  2  0  0  0  0  0  0
  196.0100  174.1830  143.9720 C   0  0  2  0  0  3  0  0  0  0  0  0
  197.9330  172.9460  143.3510 C   0  0  0  0  0  2  0  0  0  0  0  0
  196.8120  174.9710  142.9620 C   0  0  0  0  0  2  0  0  0  0  0  0
  186.3200  180.2880  148.4620 O   0  0  0  0  0  1  0  0  0  0  0  0
  185.5420  179.4000  147.7170 C   0  0  0  0  0  2  0  0  0  0  0  0
  1 25  1  0  0  0  0
  1 16  1  0  0  0  0
  2 12  1  0  0  0  0
  2 25  1  0  0  0  0
  3 17  1  0  0  0  0
  3 34  1  1  0  0  0
  4 16  2  0  0  0  0
  4 13  1  0  0  0  0
  5  9  1  1  0  0  0
  5 17  1  0  0  0  0
  6 14  1  0  0  0  0
  7 25  1  6  0  0  0
  7 11  1  0  0  0  0
  8 20  1  0  0  0  0
 10  6  1  0  0  0  0
 11 22  1  1  0  0  0
 13 10  1  6  0  0  0
 13  5  1  0  0  0  0
 14  3  1  0  0  0  0
 15  8  1  1  0  0  0
 16 18  1  0  0  0  0
 18 11  1  0  0  0  0
 18  9  1  6  0  0  0
 19 24  1  0  0  0  0
 19 21  2  0  0  0  0
 21  4  1  0  0  0  0
 22 20  1  0  0  0  0
 23 12  1  6  0  0  0
 23  7  1  0  0  0  0
 23 15  1  0  0  0  0
 24  1  2  0  0  0  0
 26 15  1  0  0  0  0
 27 26  1  6  0  0  0
 27 15  1  0  0  0  0
 28 32  1  0  0  0  0
 28 31  1  0  0  0  0
 30 32  1  6  0  0  0
 30 29  1  0  0  0  0
 30 27  1  0  0  0  0
 31 29  1  0  0  0  0
 34 33  1  0  0  0  0
M  END
>  <MODEL>
2

>  <REMARK>
 VINA RESULT:      -8.0      1.206      1.265
  Name = 
  2 active torsions:
  status: ('A' for Active; 'I' for Inactive)
    1  A    between atoms: C_3  and  C_7
    2  A    between atoms: C_29  and  C_32
                            x       y       z     vdW  Elec       q    Type
                         _______ _______ _______ _____ _____    ______ ____

>  <TORSDO>
F 2

$$$$
=
 OpenBabel11112417513D

 34 41  0  0  1  0  0  0  0  0999 V2000
  189.8320  175.6730  144.8360 C   0  0  0  0  0  0  0  0  0  0  0  0
  191.1100  173.5030  144.9150 C   0  0  0  0  0  2  0  0  0  0  0  0
  184.1140  177.8300  142.6150 C   0  0  2  0  0  3  0  0  0  0  0  0
  188.0590  177.2870  144.7680 C   0  0  0  0  0  0  0  0  0  0  0  0
  186.1460  176.9920  143.1600 C   0  0  1  0  0  3  0  0  0  0  0  0
  184.9380  179.4660  144.0550 C   0  0  0  0  0  2  0  0  0  0  0  0
  190.5450  174.3930  142.7870 C   0  0  2  0  0  3  0  0  0  0  0  0
  189.6590  172.3980  140.5330 C   0  0  0  0  0  2  0  0  0  0  0  0
  186.9380  175.8350  142.5160 C   0  0  0  0  0  2  0  0  0  0  0  0
  186.0970  178.8800  144.8560 C   0  0  0  0  0  2  0  0  0  0  0  0
  189.1010  174.5680  142.2580 C   0  0  1  0  0  3  0  0  0  0  0  0
  191.2100  172.4280  144.0110 O   0  0  0  0  0  0  0  0  0  0  0  0
  186.9870  177.9900  143.9810 C   0  0  1  0  0  3  0  0  0  0  0  0
  183.9550  178.4750  143.8730 O   0  0  0  0  0  0  0  0  0  0  0  0
  190.5600  171.9620  141.6760 C   0  0  1  0  0  0  0  0  0  0  0  0
  188.7890  176.2760  144.1370 C   0  0  0  0  0  0  0  0  0  0  0  0
  185.4490  177.7010  142.1720 O   0  0  0  0  0  0  0  0  0  0  0  0
  188.4610  175.8960  142.7150 C   0  0  2  0  0  3  0  0  0  0  0  0
  189.3690  177.0230  146.7200 C   0  0  0  0  0  3  0  0  0  0  0  0
  190.0040  173.6910  140.1420 O   0  0  0  0  0  0  0  0  0  0  0  0
  188.3680  177.6460  146.0440 N   0  0  0  0  0  0  0  0  0  0  0  0
  189.0460  174.5370  140.7190 C   0  0  0  0  0  2  0  0  0  0  0  0
  191.1310  172.9750  142.7090 C   0  0  1  0  0  3  0  0  0  0  0  0
  190.0920  176.0410  146.1190 N   0  0  0  0  0  0  0  0  0  0  0  0
  190.5970  174.6490  144.2020 N   0  0  0  0  0  0  0  0  0  0  0  0
  190.1320  170.7510  142.2530 O   0  0  0  0  0  0  0  0  0  0  0  0
  191.2670  170.6750  141.4160 C   0  0  2  0  0  3  0  0  0  0  0  0
  193.7940  168.5230  142.9140 N   0  0  0  0  0  2  0  0  0  0  0  0
  193.7300  170.3710  141.3800 C   0  0  0  0  0  2  0  0  0  0  0  0
  192.5170  170.4560  142.2590 C   0  0  2  0  0  3  0  0  0  0  0  0
  194.6310  169.3970  142.1000 C   0  0  0  0  0  2  0  0  0  0  0  0
  192.4600  169.1110  142.9460 C   0  0  0  0  0  2  0  0  0  0  0  0
  183.9540  178.5970  140.3460 O   0  0  0  0  0  1  0  0  0  0  0  0
  183.2500  178.4830  141.5450 C   0  0  0  0  0  2  0  0  0  0  0  0
  1 24  1  0  0  0  0
  3 34  1  6  0  0  0
  3 14  1  0  0  0  0
  4 21  2  0  0  0  0
  5  9  1  6  0  0  0
  5 13  1  0  0  0  0
  6 10  1  0  0  0  0
  7 25  1  1  0  0  0
 11 22  1  6  0  0  0
 11 18  1  0  0  0  0
 11  7  1  0  0  0  0
 12  2  1  0  0  0  0
 13  4  1  0  0  0  0
 13 10  1  1  0  0  0
 14  6  1  0  0  0  0
 15  8  1  6  0  0  0
 15 26  1  0  0  0  0
 15 23  1  0  0  0  0
 16  4  1  0  0  0  0
 16  1  2  0  0  0  0
 17  3  1  0  0  0  0
 17  5  1  0  0  0  0
 18  9  1  1  0  0  0
 18 16  1  0  0  0  0
 20  8  1  0  0  0  0
 20 22  1  0  0  0  0
 21 19  1  0  0  0  0
 23  7  1  0  0  0  0
 23 12  1  1  0  0  0
 24 19  2  0  0  0  0
 25  1  1  0  0  0  0
 25  2  1  0  0  0  0
 27 15  1  0  0  0  0
 27 26  1  1  0  0  0
 27 30  1  0  0  0  0
 28 32  1  0  0  0  0
 29 31  1  0  0  0  0
 30 29  1  6  0  0  0
 30 32  1  0  0  0  0
 31 28  1  0  0  0  0
 33 34  1  0  0  0  0
M  END
>  <MODEL>
3

>  <REMARK>
 VINA RESULT:      -8.0      3.164      4.841
  Name = 
  2 active torsions:
  status: ('A' for Active; 'I' for Inactive)
    1  A    between atoms: C_3  and  C_7
    2  A    between atoms: C_29  and  C_32
                            x       y       z     vdW  Elec       q    Type
                         _______ _______ _______ _____ _____    ______ ____

>  <TORSDO>
F 2

$$$$
=
 OpenBabel11112417513D

 34 41  0  0  1  0  0  0  0  0999 V2000
  189.0920  176.4010  146.4340 C   0  0  0  0  0  0  0  0  0  0  0  0
  191.0610  174.8790  146.8260 C   0  0  0  0  0  2  0  0  0  0  0  0
  184.9930  177.8420  141.5950 C   0  0  2  0  0  3  0  0  0  0  0  0
  187.0450  177.3300  145.5990 C   0  0  0  0  0  0  0  0  0  0  0  0
  186.6050  177.3910  143.1220 C   0  0  1  0  0  3  0  0  0  0  0  0
  184.0600  178.7050  143.5490 C   0  0  0  0  0  2  0  0  0  0  0  0
  191.2400  176.5250  145.1230 C   0  0  2  0  0  3  0  0  0  0  0  0
  192.7050  175.7500  142.4580 C   0  0  0  0  0  2  0  0  0  0  0  0
  188.0660  176.9460  142.9070 C   0  0  0  0  0  2  0  0  0  0  0  0
  184.7960  178.1160  144.7490 C   0  0  0  0  0  2  0  0  0  0  0  0
  190.3760  176.5650  143.8400 C   0  0  1  0  0  3  0  0  0  0  0  0
  192.1130  174.4540  145.9910 O   0  0  0  0  0  0  0  0  0  0  0  0
  186.3040  178.0310  144.4930 C   0  0  1  0  0  3  0  0  0  0  0  0
  183.9450  177.7200  142.5490 O   0  0  0  0  0  0  0  0  0  0  0  0
  193.0150  175.0520  143.7720 C   0  0  1  0  0  0  0  0  0  0  0  0
  188.3810  176.9840  145.3870 C   0  0  0  0  0  0  0  0  0  0  0  0
  186.2280  178.2910  142.1160 O   0  0  0  0  0  0  0  0  0  0  0  0
  189.0280  177.2840  144.0580 C   0  0  2  0  0  3  0  0  0  0  0  0
  187.1680  176.4800  147.8040 C   0  0  0  0  0  3  0  0  0  0  0  0
  192.4890  177.1070  142.6980 O   0  0  0  0  0  0  0  0  0  0  0  0
  186.4660  177.0780  146.8050 N   0  0  0  0  0  0  0  0  0  0  0  0
  191.0980  177.2830  142.6840 C   0  0  0  0  0  2  0  0  0  0  0  0
  192.4110  175.5310  145.1230 C   0  0  1  0  0  3  0  0  0  0  0  0
  188.4710  176.1420  147.6150 N   0  0  0  0  0  0  0  0  0  0  0  0
  190.4630  176.0540  146.2390 N   0  0  0  0  0  0  0  0  0  0  0  0
  193.0400  173.6510  143.6320 O   0  0  0  0  0  0  0  0  0  0  0  0
  194.2950  174.2880  143.7500 C   0  0  2  0  0  3  0  0  0  0  0  0
  196.3670  172.3250  146.0120 N   0  0  0  0  0  2  0  0  0  0  0  0
  196.2680  174.5930  145.2240 C   0  0  0  0  0  2  0  0  0  0  0  0
  194.8900  174.0070  145.1230 C   0  0  2  0  0  3  0  0  0  0  0  0
  197.0050  173.6320  146.1250 C   0  0  0  0  0  2  0  0  0  0  0  0
  195.1030  172.5220  145.3120 C   0  0  0  0  0  2  0  0  0  0  0  0
  183.2010  178.5360  140.1570 O   0  0  0  0  0  1  0  0  0  0  0  0
  184.5650  178.6950  140.4090 C   0  0  0  0  0  2  0  0  0  0  0  0
  1 24  1  0  0  0  0
  3 34  1  6  0  0  0
  3 17  1  0  0  0  0
  3 14  1  0  0  0  0
  4 21  2  0  0  0  0
  5  9  1  1  0  0  0
  5 13  1  0  0  0  0
  6 10  1  0  0  0  0
  7 25  1  1  0  0  0
  8 20  1  0  0  0  0
 11 22  1  6  0  0  0
 11 18  1  0  0  0  0
 11  7  1  0  0  0  0
 12  2  1  0  0  0  0
 13 10  1  1  0  0  0
 13  4  1  0  0  0  0
 14  6  1  0  0  0  0
 15  8  1  6  0  0  0
 15 23  1  0  0  0  0
 16  4  1  0  0  0  0
 16  1  2  0  0  0  0
 17  5  1  0  0  0  0
 18  9  1  6  0  0  0
 18 16  1  0  0  0  0
 21 19  1  0  0  0  0
 22 20  1  0  0  0  0
 23  7  1  0  0  0  0
 23 12  1  6  0  0  0
 24 19  2  0  0  0  0
 25  1  1  0  0  0  0
 25  2  1  0  0  0  0
 26 15  1  0  0  0  0
 27 26  1  1  0  0  0
 27 15  1  0  0  0  0
 27 30  1  0  0  0  0
 28 31  1  0  0  0  0
 29 31  1  0  0  0  0
 30 29  1  6  0  0  0
 30 32  1  0  0  0  0
 32 28  1  0  0  0  0
 33 34  1  0  0  0  0
M  END
>  <MODEL>
4

>  <REMARK>
 VINA RESULT:      -8.0      2.309      3.665
  Name = 
  2 active torsions:
  status: ('A' for Active; 'I' for Inactive)
    1  A    between atoms: C_3  and  C_7
    2  A    between atoms: C_29  and  C_32
                            x       y       z     vdW  Elec       q    Type
                         _______ _______ _______ _____ _____    ______ ____

>  <TORSDO>
F 2

$$$$
=
 OpenBabel11112417513D

 34 41  0  0  1  0  0  0  0  0999 V2000
  192.4420  175.9620  145.4620 C   0  0  0  0  0  0  0  0  0  0  0  0
  190.4460  177.3810  146.0510 C   0  0  0  0  0  2  0  0  0  0  0  0
  195.6750  174.1600  140.1150 C   0  0  2  0  0  3  0  0  0  0  0  0
  194.3750  175.0740  144.3550 C   0  0  0  0  0  0  0  0  0  0  0  0
  194.3440  174.7020  141.8660 C   0  0  1  0  0  3  0  0  0  0  0  0
  197.0390  173.6430  141.9330 C   0  0  0  0  0  2  0  0  0  0  0  0
  190.1080  175.5080  144.6310 C   0  0  2  0  0  3  0  0  0  0  0  0
  188.1000  175.8030  142.2380 C   0  0  0  0  0  2  0  0  0  0  0  0
  192.8330  175.0100  141.8950 C   0  0  0  0  0  2  0  0  0  0  0  0
  196.4880  174.3390  143.1760 C   0  0  0  0  0  2  0  0  0  0  0  0
  190.7140  175.3510  143.2160 C   0  0  1  0  0  3  0  0  0  0  0  0
  189.2200  177.6110  145.3970 O   0  0  0  0  0  0  0  0  0  0  0  0
  194.9580  174.2800  143.2170 C   0  0  1  0  0  3  0  0  0  0  0  0
  196.8680  174.4860  140.8190 O   0  0  0  0  0  0  0  0  0  0  0  0
  187.9770  176.6510  143.4930 C   0  0  1  0  0  0  0  0  0  0  0  0
  192.9960  175.2920  144.3730 C   0  0  0  0  0  0  0  0  0  0  0  0
  194.6100  173.7010  140.9230 O   0  0  0  0  0  0  0  0  0  0  0  0
  192.1420  174.7670  143.2470 C   0  0  2  0  0  3  0  0  0  0  0  0
  194.5890  176.2080  146.4200 C   0  0  0  0  0  3  0  0  0  0  0  0
  188.4860  174.5110  142.5930 O   0  0  0  0  0  0  0  0  0  0  0  0
  195.1440  175.5290  145.3820 N   0  0  0  0  0  0  0  0  0  0  0  0
  189.8600  174.4320  142.3230 C   0  0  0  0  0  2  0  0  0  0  0  0
  188.8680  176.4070  144.7450 C   0  0  1  0  0  3  0  0  0  0  0  0
  193.2470  176.4240  146.4550 N   0  0  0  0  0  0  0  0  0  0  0  0
  191.0330  176.1810  145.5040 N   0  0  0  0  0  0  0  0  0  0  0  0
  187.7920  178.0150  143.1920 O   0  0  0  0  0  0  0  0  0  0  0  0
  186.6490  177.3130  143.6340 C   0  0  2  0  0  3  0  0  0  0  0  0
  184.5270  179.0380  146.0400 N   0  0  0  0  0  2  0  0  0  0  0  0
  185.2940  176.7940  145.6470 C   0  0  0  0  0  2  0  0  0  0  0  0
  186.2990  177.7380  145.0540 C   0  0  2  0  0  3  0  0  0  0  0  0
  184.4620  177.6730  146.5500 C   0  0  0  0  0  2  0  0  0  0  0  0
  185.5930  179.0750  145.0450 C   0  0  0  0  0  2  0  0  0  0  0  0
  197.1420  173.5140  138.3280 O   0  0  0  0  0  1  0  0  0  0  0  0
  195.9520  173.1850  138.9800 C   0  0  0  0  0  2  0  0  0  0  0  0
  1 25  1  0  0  0  0
  1 24  1  0  0  0  0
  3 34  1  6  0  0  0
  3 14  1  0  0  0  0
  3 17  1  0  0  0  0
  4 16  1  0  0  0  0
  4 21  2  0  0  0  0
  5  9  1  1  0  0  0
  5 13  1  0  0  0  0
  6 10  1  0  0  0  0
  7 23  1  0  0  0  0
  7 25  1  1  0  0  0
  8 20  1  0  0  0  0
 11 22  1  6  0  0  0
 11 18  1  0  0  0  0
 11  7  1  0  0  0  0
 12  2  1  0  0  0  0
 13 10  1  6  0  0  0
 13  4  1  0  0  0  0
 14  6  1  0  0  0  0
 15  8  1  6  0  0  0
 15 27  1  0  0  0  0
 15 23  1  0  0  0  0
 16  1  2  0  0  0  0
 17  5  1  0  0  0  0
 18  9  1  6  0  0  0
 18 16  1  0  0  0  0
 19 24  2  0  0  0  0
 21 19  1  0  0  0  0
 22 20  1  0  0  0  0
 23 12  1  6  0  0  0
 25  2  1  0  0  0  0
 26 15  1  0  0  0  0
 27 26  1  6  0  0  0
 27 30  1  0  0  0  0
 28 31  1  0  0  0  0
 29 31  1  0  0  0  0
 30 32  1  6  0  0  0
 30 29  1  0  0  0  0
 32 28  1  0  0  0  0
 33 34  1  0  0  0  0
M  END
>  <MODEL>
5

>  <REMARK>
 VINA RESULT:      -7.7      2.847      9.067
  Name = 
  2 active torsions:
  status: ('A' for Active; 'I' for Inactive)
    1  A    between atoms: C_3  and  C_7
    2  A    between atoms: C_29  and  C_32
                            x       y       z     vdW  Elec       q    Type
                         _______ _______ _______ _____ _____    ______ ____

>  <TORSDO>
F 2

$$$$
=
 OpenBabel11112417513D

 34 41  0  0  1  0  0  0  0  0999 V2000
  193.1640  176.3270  143.3130 C   0  0  0  0  0  0  0  0  0  0  0  0
  190.9350  177.3630  142.7630 C   0  0  0  0  0  2  0  0  0  0  0  0
  195.4340  170.6470  145.5210 C   0  0  2  0  0  3  0  0  0  0  0  0
  194.9320  174.7430  143.6600 C   0  0  0  0  0  0  0  0  0  0  0  0
  194.4960  172.6280  144.9520 C   0  0  1  0  0  3  0  0  0  0  0  0
  197.2580  171.8110  144.6570 C   0  0  0  0  0  2  0  0  0  0  0  0
  191.3150  176.6430  144.9940 C   0  0  2  0  0  3  0  0  0  0  0  0
  188.9450  175.2800  146.5360 C   0  0  0  0  0  2  0  0  0  0  0  0
  193.1160  173.2060  145.3260 C   0  0  0  0  0  2  0  0  0  0  0  0
  196.7460  172.9890  143.8330 C   0  0  0  0  0  2  0  0  0  0  0  0
  191.5420  175.1730  145.4210 C   0  0  1  0  0  3  0  0  0  0  0  0
  189.6600  177.2360  143.3470 O   0  0  0  0  0  0  0  0  0  0  0  0
  195.5480  173.6650  144.5090 C   0  0  1  0  0  3  0  0  0  0  0  0
  196.3970  170.7120  144.4760 O   0  0  0  0  0  0  0  0  0  0  0  0
  188.7000  176.2610  145.4020 C   0  0  1  0  0  0  0  0  0  0  0  0
  193.7030  175.2770  144.0550 C   0  0  0  0  0  0  0  0  0  0  0  0
  195.0140  171.8970  146.0290 O   0  0  0  0  0  0  0  0  0  0  0  0
  193.0170  174.7400  145.2860 C   0  0  2  0  0  3  0  0  0  0  0  0
  195.0050  176.2450  141.8330 C   0  0  0  0  0  3  0  0  0  0  0  0
  190.0350  175.7120  147.2910 O   0  0  0  0  0  0  0  0  0  0  0  0
  195.5620  175.2420  142.5620 N   0  0  0  0  0  0  0  0  0  0  0  0
  191.1230  174.9280  146.8820 C   0  0  0  0  0  2  0  0  0  0  0  0
  189.8580  177.0590  144.7360 C   0  0  1  0  0  3  0  0  0  0  0  0
  193.8120  176.7790  142.2070 N   0  0  0  0  0  0  0  0  0  0  0  0
  191.9170  176.8940  143.7120 N   0  0  0  0  0  0  0  0  0  0  0  0
  187.7490  175.7780  144.4830 O   0  0  0  0  0  0  0  0  0  0  0  0
  187.3070  176.7890  145.3650 C   0  0  2  0  0  3  0  0  0  0  0  0
  185.5010  178.9780  143.0830 N   0  0  0  0  0  2  0  0  0  0  0  0
  186.2440  179.0310  145.3670 C   0  0  0  0  0  2  0  0  0  0  0  0
  187.1440  178.1000  144.6090 C   0  0  2  0  0  3  0  0  0  0  0  0
  185.5270  179.8020  144.2860 C   0  0  0  0  0  2  0  0  0  0  0  0
  186.4220  177.8680  143.3010 C   0  0  0  0  0  2  0  0  0  0  0  0
  194.8110  169.1160  147.2630 O   0  0  0  0  0  1  0  0  0  0  0  0
  195.9010  169.7340  146.6470 C   0  0  0  0  0  2  0  0  0  0  0  0
  1 25  1  0  0  0  0
  1 16  1  0  0  0  0
  2 12  1  0  0  0  0
  2 25  1  0  0  0  0
  3 17  1  0  0  0  0
  3 34  1  1  0  0  0
  4 16  2  0  0  0  0
  4 13  1  0  0  0  0
  5  9  1  1  0  0  0
  5 17  1  0  0  0  0
  7 25  1  6  0  0  0
  7 11  1  0  0  0  0
  8 20  1  0  0  0  0
 10  6  1  0  0  0  0
 11 22  1  1  0  0  0
 13 10  1  6  0  0  0
 13  5  1  0  0  0  0
 14  6  1  0  0  0  0
 14  3  1  0  0  0  0
 15  8  1  1  0  0  0
 16 18  1  0  0  0  0
 18  9  1  6  0  0  0
 18 11  1  0  0  0  0
 19 24  1  0  0  0  0
 19 21  2  0  0  0  0
 21  4  1  0  0  0  0
 22 20  1  0  0  0  0
 23 12  1  6  0  0  0
 23  7  1  0  0  0  0
 23 15  1  0  0  0  0
 24  1  2  0  0  0  0
 26 15  1  0  0  0  0
 27 26  1  6  0  0  0
 27 15  1  0  0  0  0
 28 32  1  0  0  0  0
 28 31  1  0  0  0  0
 30 32  1  6  0  0  0
 30 27  1  0  0  0  0
 30 29  1  0  0  0  0
 31 29  1  0  0  0  0
 34 33  1  0  0  0  0
M  END
>  <MODEL>
6

>  <REMARK>
 VINA RESULT:      -7.6      2.677      8.789
  Name = 
  2 active torsions:
  status: ('A' for Active; 'I' for Inactive)
    1  A    between atoms: C_3  and  C_7
    2  A    between atoms: C_29  and  C_32
                            x       y       z     vdW  Elec       q    Type
                         _______ _______ _______ _____ _____    ______ ____

>  <TORSDO>
F 2

$$$$
=
 OpenBabel11112417513D

 34 41  0  0  1  0  0  0  0  0999 V2000
  190.4240  174.4260  142.0730 C   0  0  0  0  0  0  0  0  0  0  0  0
  188.0720  175.1660  142.5900 C   0  0  0  0  0  2  0  0  0  0  0  0
  195.5200  171.9560  145.2700 C   0  0  2  0  0  3  0  0  0  0  0  0
  192.5350  173.2890  142.1380 C   0  0  0  0  0  0  0  0  0  0  0  0
  193.7450  172.9990  144.3250 C   0  0  1  0  0  3  0  0  0  0  0  0
  195.9400  171.6550  142.9970 C   0  0  0  0  0  2  0  0  0  0  0  0
  189.8620  176.2780  143.6860 C   0  0  2  0  0  3  0  0  0  0  0  0
  189.4920  177.0750  146.6990 C   0  0  0  0  0  2  0  0  0  0  0  0
  192.7080  173.9460  144.9620 C   0  0  0  0  0  2  0  0  0  0  0  0
  194.6510  171.9050  142.2200 C   0  0  0  0  0  2  0  0  0  0  0  0
  190.8360  175.6110  144.6870 C   0  0  1  0  0  3  0  0  0  0  0  0
  187.5020  175.7980  143.7120 O   0  0  0  0  0  0  0  0  0  0  0  0
  193.8770  173.0980  142.7920 C   0  0  1  0  0  3  0  0  0  0  0  0
  195.6310  171.0120  144.2110 O   0  0  0  0  0  0  0  0  0  0  0  0
  188.3050  176.9120  145.7630 C   0  0  1  0  0  0  0  0  0  0  0  0
  191.6390  174.1910  142.7160 C   0  0  0  0  0  0  0  0  0  0  0  0
  195.0060  173.2180  144.8970 O   0  0  0  0  0  0  0  0  0  0  0  0
  192.0190  174.9120  143.9840 C   0  0  2  0  0  3  0  0  0  0  0  0
  190.9990  172.8730  140.3870 C   0  0  0  0  0  3  0  0  0  0  0  0
  190.5450  177.6700  146.0050 O   0  0  0  0  0  0  0  0  0  0  0  0
  192.2020  172.6530  140.9810 N   0  0  0  0  0  0  0  0  0  0  0  0
  191.4270  176.6300  145.6790 C   0  0  0  0  0  2  0  0  0  0  0  0
  188.4840  176.6710  144.2370 C   0  0  1  0  0  3  0  0  0  0  0  0
  190.1180  173.7520  140.9340 N   0  0  0  0  0  0  0  0  0  0  0  0
  189.5030  175.3550  142.6420 N   0  0  0  0  0  0  0  0  0  0  0  0
  187.2820  176.1330  146.3400 O   0  0  0  0  0  0  0  0  0  0  0  0
  187.0500  177.5250  146.2850 C   0  0  2  0  0  3  0  0  0  0  0  0
  183.8140  178.8330  145.2470 N   0  0  0  0  0  2  0  0  0  0  0  0
  186.1290  179.2580  144.7660 C   0  0  0  0  0  2  0  0  0  0  0  0
  186.0050  177.8340  145.2220 C   0  0  2  0  0  3  0  0  0  0  0  0
  184.7100  179.6620  144.4490 C   0  0  0  0  0  2  0  0  0  0  0  0
  184.6150  177.7520  145.8110 C   0  0  0  0  0  2  0  0  0  0  0  0
  197.0750  173.4470  146.3290 O   0  0  0  0  0  1  0  0  0  0  0  0
  196.8400  172.1080  146.0140 C   0  0  0  0  0  2  0  0  0  0  0  0
  1 25  1  0  0  0  0
  1 16  1  0  0  0  0
  2 25  1  0  0  0  0
  2 12  1  0  0  0  0
  3 34  1  6  0  0  0
  4 16  2  0  0  0  0
  4 13  1  0  0  0  0
  5 17  1  0  0  0  0
  5  9  1  1  0  0  0
  6 14  1  0  0  0  0
  7 25  1  6  0  0  0
  7 23  1  0  0  0  0
  7 11  1  0  0  0  0
 10  6  1  0  0  0  0
 11 22  1  1  0  0  0
 13 10  1  6  0  0  0
 13  5  1  0  0  0  0
 14  3  1  0  0  0  0
 15 27  1  0  0  0  0
 15 26  1  0  0  0  0
 15  8  1  1  0  0  0
 16 18  1  0  0  0  0
 17  3  1  0  0  0  0
 18 11  1  0  0  0  0
 18  9  1  1  0  0  0
 19 24  1  0  0  0  0
 19 21  2  0  0  0  0
 20  8  1  0  0  0  0
 21  4  1  0  0  0  0
 22 20  1  0  0  0  0
 23 12  1  1  0  0  0
 23 15  1  0  0  0  0
 24  1  2  0  0  0  0
 27 26  1  1  0  0  0
 28 32  1  0  0  0  0
 30 29  1  1  0  0  0
 30 32  1  0  0  0  0
 30 27  1  0  0  0  0
 31 29  1  0  0  0  0
 31 28  1  0  0  0  0
 34 33  1  0  0  0  0
M  END
>  <MODEL>
7

>  <REMARK>
 VINA RESULT:      -7.6      2.378      8.492
  Name = 
  2 active torsions:
  status: ('A' for Active; 'I' for Inactive)
    1  A    between atoms: C_3  and  C_7
    2  A    between atoms: C_29  and  C_32
                            x       y       z     vdW  Elec       q    Type
                         _______ _______ _______ _____ _____    ______ ____

>  <TORSDO>
F 2

$$$$
=
 OpenBabel11112417513D

 34 41  0  0  1  0  0  0  0  0999 V2000
  192.5690  175.8270  145.5010 C   0  0  0  0  0  0  0  0  0  0  0  0
  190.7280  177.2960  144.6060 C   0  0  0  0  0  2  0  0  0  0  0  0
  196.2740  170.9130  143.4000 C   0  0  2  0  0  3  0  0  0  0  0  0
  194.5000  174.4130  145.6590 C   0  0  0  0  0  0  0  0  0  0  0  0
  194.7880  172.4890  144.0630 C   0  0  1  0  0  3  0  0  0  0  0  0
  197.2650  171.7180  145.3510 C   0  0  0  0  0  2  0  0  0  0  0  0
  190.3440  174.9540  144.7040 C   0  0  2  0  0  3  0  0  0  0  0  0
  188.7770  173.6080  142.3410 C   0  0  0  0  0  2  0  0  0  0  0  0
  193.3480  172.7500  143.5740 C   0  0  0  0  0  2  0  0  0  0  0  0
  196.6390  173.0650  145.7010 C   0  0  0  0  0  2  0  0  0  0  0  0
  191.1260  173.8970  143.8890 C   0  0  1  0  0  3  0  0  0  0  0  0
  189.6580  177.0460  143.7250 O   0  0  0  0  0  0  0  0  0  0  0  0
  195.1270  173.0610  145.4540 C   0  0  1  0  0  3  0  0  0  0  0  0
  197.3830  171.6140  143.9520 O   0  0  0  0  0  0  0  0  0  0  0  0
  188.5910  175.0760  142.6900 C   0  0  1  0  0  0  0  0  0  0  0  0
  193.1780  174.5990  145.2470 C   0  0  0  0  0  0  0  0  0  0  0  0
  195.0470  171.1120  144.0710 O   0  0  0  0  0  0  0  0  0  0  0  0
  192.4360  173.4670  144.5830 C   0  0  2  0  0  3  0  0  0  0  0  0
  194.5610  176.6280  146.4870 C   0  0  0  0  0  3  0  0  0  0  0  0
  188.9200  172.8710  143.5160 O   0  0  0  0  0  0  0  0  0  0  0  0
  195.1630  175.4280  146.2770 N   0  0  0  0  0  0  0  0  0  0  0  0
  190.2930  172.6230  143.6520 C   0  0  0  0  0  2  0  0  0  0  0  0
  189.2410  175.7130  143.9510 C   0  0  1  0  0  3  0  0  0  0  0  0
  193.2740  176.8240  146.0980 N   0  0  0  0  0  0  0  0  0  0  0  0
  191.2140  176.0290  145.1000 N   0  0  0  0  0  0  0  0  0  0  0  0
  188.6480  175.9000  141.5500 O   0  0  0  0  0  0  0  0  0  0  0  0
  187.3640  175.6760  142.0930 C   0  0  2  0  0  3  0  0  0  0  0  0
  185.2940  178.6690  142.2300 N   0  0  0  0  0  2  0  0  0  0  0  0
  185.5850  176.6610  143.5160 C   0  0  0  0  0  2  0  0  0  0  0  0
  186.8690  176.9360  142.7900 C   0  0  2  0  0  3  0  0  0  0  0  0
  184.8270  177.9620  143.4170 C   0  0  0  0  0  2  0  0  0  0  0  0
  186.5020  177.9910  141.7720 C   0  0  0  0  0  2  0  0  0  0  0  0
  195.8860  168.6880  144.2130 O   0  0  0  0  0  1  0  0  0  0  0  0
  196.5770  169.4290  143.2520 C   0  0  0  0  0  2  0  0  0  0  0  0
  1 24  1  0  0  0  0
  2 25  1  0  0  0  0
  3 34  1  1  0  0  0
  3 14  1  0  0  0  0
  3 17  1  0  0  0  0
  4 21  2  0  0  0  0
  5  9  1  1  0  0  0
  5 17  1  0  0  0  0
  5 13  1  0  0  0  0
  6 10  1  0  0  0  0
  7 25  1  6  0  0  0
  8 20  1  0  0  0  0
 11 22  1  1  0  0  0
 11 18  1  0  0  0  0
 11  7  1  0  0  0  0
 12  2  1  0  0  0  0
 13  4  1  0  0  0  0
 13 10  1  6  0  0  0
 14  6  1  0  0  0  0
 15  8  1  6  0  0  0
 15 23  1  0  0  0  0
 16  1  2  0  0  0  0
 16  4  1  0  0  0  0
 18  9  1  6  0  0  0
 18 16  1  0  0  0  0
 20 22  1  0  0  0  0
 21 19  1  0  0  0  0
 23 12  1  6  0  0  0
 23  7  1  0  0  0  0
 24 19  2  0  0  0  0
 25  1  1  0  0  0  0
 26 15  1  0  0  0  0
 27 26  1  6  0  0  0
 27 15  1  0  0  0  0
 27 30  1  0  0  0  0
 28 31  1  0  0  0  0
 30 32  1  6  0  0  0
 30 29  1  0  0  0  0
 31 29  1  0  0  0  0
 32 28  1  0  0  0  0
 34 33  1  0  0  0  0
M  END
>  <MODEL>
8

>  <REMARK>
 VINA RESULT:      -7.5      2.819      9.275
  Name = 
  2 active torsions:
  status: ('A' for Active; 'I' for Inactive)
    1  A    between atoms: C_3  and  C_7
    2  A    between atoms: C_29  and  C_32
                            x       y       z     vdW  Elec       q    Type
                         _______ _______ _______ _____ _____    ______ ____

>  <TORSDO>
F 2

$$$$
=
 OpenBabel11112417513D

 34 41  0  0  1  0  0  0  0  0999 V2000
  190.3980  172.7140  142.0350 C   0  0  0  0  0  0  0  0  0  0  0  0
  188.0610  173.6540  142.0560 C   0  0  0  0  0  2  0  0  0  0  0  0
  195.7220  172.9290  145.7640 C   0  0  2  0  0  3  0  0  0  0  0  0
  192.5370  171.8740  142.7240 C   0  0  0  0  0  0  0  0  0  0  0  0
  193.8720  173.1020  144.4670 C   0  0  1  0  0  3  0  0  0  0  0  0
  196.0230  171.1740  144.2600 C   0  0  0  0  0  2  0  0  0  0  0  0
  189.8810  175.1790  142.0190 C   0  0  2  0  0  3  0  0  0  0  0  0
  189.6570  177.7970  143.7360 C   0  0  0  0  0  2  0  0  0  0  0  0
  192.8490  174.2510  144.3630 C   0  0  0  0  0  2  0  0  0  0  0  0
  194.6870  170.8630  143.5910 C   0  0  0  0  0  2  0  0  0  0  0  0
  190.9240  175.3370  143.1510 C   0  0  1  0  0  3  0  0  0  0  0  0
  187.5380  174.8850  142.4950 O   0  0  0  0  0  0  0  0  0  0  0  0
  193.9170  172.1460  143.2590 C   0  0  1  0  0  3  0  0  0  0  0  0
  195.7970  171.5170  145.6060 O   0  0  0  0  0  0  0  0  0  0  0  0
  188.4250  177.0710  143.2210 C   0  0  1  0  0  0  0  0  0  0  0  0
  191.6520  172.9470  142.5980 C   0  0  0  0  0  0  0  0  0  0  0  0
  195.1560  173.6250  144.6710 O   0  0  0  0  0  0  0  0  0  0  0  0
  192.0830  174.3250  143.0320 C   0  0  2  0  0  3  0  0  0  0  0  0
  190.9170  170.4210  141.7950 C   0  0  0  0  0  3  0  0  0  0  0  0
  190.6560  177.7530  142.7630 O   0  0  0  0  0  0  0  0  0  0  0  0
  192.1560  170.6340  142.3130 N   0  0  0  0  0  0  0  0  0  0  0  0
  191.5440  176.7470  143.1680 C   0  0  0  0  0  2  0  0  0  0  0  0
  188.5250  175.8660  142.2430 C   0  0  1  0  0  3  0  0  0  0  0  0
  190.0460  171.4550  141.6610 N   0  0  0  0  0  0  0  0  0  0  0  0
  189.4870  173.8020  141.8860 N   0  0  0  0  0  0  0  0  0  0  0  0
  187.4550  176.8990  144.2280 O   0  0  0  0  0  0  0  0  0  0  0  0
  187.1860  177.9000  143.2670 C   0  0  2  0  0  3  0  0  0  0  0  0
  183.8130  178.1440  141.9180 N   0  0  0  0  0  2  0  0  0  0  0  0
  186.0630  178.2670  141.0850 C   0  0  0  0  0  2  0  0  0  0  0  0
  186.0760  177.4360  142.3340 C   0  0  2  0  0  3  0  0  0  0  0  0
  184.6040  178.3280  140.7060 C   0  0  0  0  0  2  0  0  0  0  0  0
  184.7230  177.6830  142.9600 C   0  0  0  0  0  2  0  0  0  0  0  0
  197.6490  174.1650  145.0420 O   0  0  0  0  0  1  0  0  0  0  0  0
  197.0760  173.5160  146.1370 C   0  0  0  0  0  2  0  0  0  0  0  0
  1 16  1  0  0  0  0
  2 12  1  0  0  0  0
  3 34  1  6  0  0  0
  4 13  1  0  0  0  0
  5  9  1  6  0  0  0
  5 17  1  0  0  0  0
  6 14  1  0  0  0  0
  7 25  1  1  0  0  0
  7 23  1  0  0  0  0
  7 11  1  0  0  0  0
 10  6  1  0  0  0  0
 11 22  1  6  0  0  0
 13 10  1  1  0  0  0
 13  5  1  0  0  0  0
 14  3  1  0  0  0  0
 15 27  1  0  0  0  0
 15  8  1  1  0  0  0
 15 26  1  0  0  0  0
 16  4  2  0  0  0  0
 16 18  1  0  0  0  0
 17  3  1  0  0  0  0
 18 11  1  0  0  0  0
 18  9  1  1  0  0  0
 19 21  2  0  0  0  0
 20 22  1  0  0  0  0
 20  8  1  0  0  0  0
 21  4  1  0  0  0  0
 23 12  1  1  0  0  0
 23 15  1  0  0  0  0
 24 19  1  0  0  0  0
 24  1  2  0  0  0  0
 25  1  1  0  0  0  0
 25  2  1  0  0  0  0
 27 26  1  1  0  0  0
 28 32  1  0  0  0  0
 30 29  1  6  0  0  0
 30 32  1  0  0  0  0
 30 27  1  0  0  0  0
 31 29  1  0  0  0  0
 31 28  1  0  0  0  0
 33 34  1  0  0  0  0
M  END
>  <MODEL>
9

>  <REMARK>
 VINA RESULT:      -7.4      2.583      8.761
  Name = 
  2 active torsions:
  status: ('A' for Active; 'I' for Inactive)
    1  A    between atoms: C_3  and  C_7
    2  A    between atoms: C_29  and  C_32
                            x       y       z     vdW  Elec       q    Type
                         _______ _______ _______ _____ _____    ______ ____

>  <TORSDO>
F 2

$$$$
