=
 OpenBabel11112416333D

 32 38  0  0  1  0  0  0  0  0999 V2000
  192.3260  175.0170  144.1430 C   0  0  1  0  0  3  0  0  0  0  0  0
  187.4770  177.0680  143.5600 C   0  0  0  0  0  0  0  0  0  0  0  0
  186.1950  178.3020  148.1140 C   0  0  0  0  0  3  0  0  0  0  0  0
  184.9310  178.6810  147.6650 C   0  0  0  0  0  3  0  0  0  0  0  0
  185.8280  177.3740  141.6980 C   0  0  0  0  0  0  0  0  0  0  0  0
  184.5480  177.7720  141.3260 C   0  0  0  0  0  0  0  0  0  0  0  0
  189.9080  176.5020  143.1240 C   0  0  1  0  0  3  0  0  0  0  0  0
  189.1760  176.8660  145.4610 C   0  0  0  0  0  2  0  0  0  0  0  0
  182.5250  178.5270  141.4950 C   0  0  0  0  0  0  0  0  0  0  0  0
  191.3780  175.7160  145.1170 C   0  0  2  0  0  3  0  0  0  0  0  0
  187.1350  177.8080  147.2100 C   0  0  0  0  0  3  0  0  0  0  0  0
  187.7850  177.1790  144.9430 C   0  0  0  0  0  0  0  0  0  0  0  0
  186.8300  177.6840  145.8430 C   0  0  0  0  0  0  0  0  0  0  0  0
  185.2250  177.9630  144.0200 C   0  0  0  0  0  0  0  0  0  0  0  0
  182.7690  178.2340  140.1980 N   0  0  0  0  0  0  0  0  0  0  0  0
  191.6820  174.6770  142.7820 C   0  0  0  0  0  2  0  0  0  0  0  0
  189.9620  175.9420  144.5460 C   0  0  2  0  0  3  0  0  0  0  0  0
  184.0120  177.7710  140.0920 N   0  0  0  0  0  0  0  0  0  0  0  0
  190.8450  175.7930  142.1420 C   0  0  0  0  0  2  0  0  0  0  0  0
  192.4710  176.5100  144.4110 C   0  0  1  0  0  3  0  0  0  0  0  0
  184.6120  178.5650  146.3120 C   0  0  0  0  0  3  0  0  0  0  0  0
  185.5480  178.0690  145.3860 C   0  0  2  0  0  3  0  0  0  0  0  0
  183.9400  178.3530  143.5760 C   0  0  0  0  0  3  0  0  0  0  0  0
  188.4760  176.4160  142.6270 C   0  0  0  0  0  2  0  0  0  0  0  0
  186.6980  176.9220  140.7110 O   0  0  0  0  0  1  0  0  0  0  0  0
  181.2390  179.0740  142.0070 C   0  0  0  0  0  1  0  0  0  0  0  0
  186.1940  177.4580  143.0820 C   0  0  0  0  0  0  0  0  0  0  0  0
  183.6490  178.2390  142.2290 C   0  0  0  0  0  0  0  0  0  0  0  0
  193.6220  176.7370  145.3740 C   0  0  0  0  0  2  0  0  0  0  0  0
  194.7510  175.7620  145.0910 C   0  0  1  0  0  3  0  0  0  0  0  0
  195.8130  176.4220  144.2330 C   0  0  0  0  0  1  0  0  0  0  0  0
  195.3220  175.3570  146.2970 O   0  0  0  0  0  1  0  0  0  0  0  0
  1 16  1  6  0  0  0
  1 20  1  0  0  0  0
  1 10  1  0  0  0  0
  2 12  1  0  0  0  0
  4  3  1  0  0  0  0
  5 27  1  0  0  0  0
  6  5  2  0  0  0  0
  6 28  1  0  0  0  0
  7 19  1  6  0  0  0
  7 17  1  0  0  0  0
  9 26  1  0  0  0  0
  9 28  2  0  0  0  0
 11  3  2  0  0  0  0
 12  8  1  0  0  0  0
 12 13  2  0  0  0  0
 13 11  1  0  0  0  0
 14 22  1  0  0  0  0
 15  9  1  0  0  0  0
 17 10  1  0  0  0  0
 17  8  1  0  0  0  0
 18 15  2  0  0  0  0
 18  6  1  0  0  0  0
 19 16  1  0  0  0  0
 20 10  1  0  0  0  0
 20 29  1  0  0  0  0
 21  4  2  0  0  0  0
 22 13  1  0  0  0  0
 22 21  1  0  0  0  0
 23 14  2  0  0  0  0
 24  7  1  0  0  0  0
 24  2  1  0  0  0  0
 25  5  1  0  0  0  0
 27  2  2  0  0  0  0
 27 14  1  0  0  0  0
 28 23  1  0  0  0  0
 30 29  1  0  0  0  0
 30 32  1  0  0  0  0
 31 30  1  0  0  0  0
M  END
>  <MODEL>
1

>  <REMARK>
 VINA RESULT:      -9.4      0.000      0.000
  Name = 
  2 active torsions:
  status: ('A' for Active; 'I' for Inactive)
    1  A    between atoms: C_20  and  C_29
    2  A    between atoms: C_29  and  C_30
                            x       y       z     vdW  Elec       q    Type
                         _______ _______ _______ _____ _____    ______ ____

>  <TORSDO>
F 2

$$$$
=
 OpenBabel11112416333D

 32 38  0  0  1  0  0  0  0  0999 V2000
  185.0160  177.5500  146.8990 C   0  0  1  0  0  3  0  0  0  0  0  0
  189.7420  176.0240  145.0540 C   0  0  0  0  0  0  0  0  0  0  0  0
  188.7000  174.0850  140.6880 C   0  0  0  0  0  3  0  0  0  0  0  0
  190.0340  173.7130  140.5260 C   0  0  0  0  0  3  0  0  0  0  0  0
  192.1020  175.9540  145.8940 C   0  0  0  0  0  0  0  0  0  0  0  0
  193.4120  175.5510  145.6600 C   0  0  0  0  0  0  0  0  0  0  0  0
  187.9460  177.3940  146.2030 C   0  0  1  0  0  3  0  0  0  0  0  0
  187.3630  176.1770  144.1260 C   0  0  0  0  0  2  0  0  0  0  0  0
  195.1210  174.6760  144.6560 C   0  0  0  0  0  0  0  0  0  0  0  0
  185.4650  176.9860  145.5510 C   0  0  2  0  0  3  0  0  0  0  0  0
  188.3000  174.7470  141.8480 C   0  0  0  0  0  3  0  0  0  0  0  0
  188.8040  175.7110  144.0340 C   0  0  0  0  0  0  0  0  0  0  0  0
  189.2220  175.0480  142.8660 C   0  0  0  0  0  0  0  0  0  0  0  0
  191.5170  174.9720  143.7040 C   0  0  0  0  0  0  0  0  0  0  0  0
  195.5310  175.1890  145.8390 N   0  0  0  0  0  0  0  0  0  0  0  0
  186.1060  177.4920  147.9920 C   0  0  0  0  0  2  0  0  0  0  0  0
  186.9180  176.4690  145.5490 C   0  0  2  0  0  3  0  0  0  0  0  0
  194.4830  175.7270  146.4560 N   0  0  0  0  0  2  0  0  0  0  0  0
  187.5070  177.9480  147.5610 C   0  0  0  0  0  2  0  0  0  0  0  0
  185.3360  178.4920  145.7460 C   0  0  1  0  0  3  0  0  0  0  0  0
  190.9620  174.0040  141.5250 C   0  0  0  0  0  3  0  0  0  0  0  0
  190.5750  174.6720  142.7020 C   0  0  0  0  0  0  0  0  0  0  0  0
  192.8670  174.5900  143.5270 C   0  0  0  0  0  3  0  0  0  0  0  0
  189.2520  176.6340  146.3510 C   0  0  0  0  0  2  0  0  0  0  0  0
  191.8150  176.6330  147.0730 O   0  0  0  0  0  1  0  0  0  0  0  0
  196.0140  173.9930  143.6810 C   0  0  0  0  0  1  0  0  0  0  0  0
  191.1090  175.6590  144.9010 C   0  0  0  0  0  0  0  0  0  0  0  0
  193.7730  174.8990  144.5250 C   0  0  0  0  0  0  0  0  0  0  0  0
  184.0410  178.9670  145.1130 C   0  0  0  0  0  2  0  0  0  0  0  0
  184.2570  179.2970  143.6470 C   0  0  1  0  0  3  0  0  0  0  0  0
  185.7350  179.4790  143.3610 C   0  0  0  0  0  1  0  0  0  0  0  0
  183.7630  178.2550  142.8640 O   0  0  0  0  0  1  0  0  0  0  0  0
  1 16  1  1  0  0  0
  2 24  1  0  0  0  0
  3 11  1  0  0  0  0
  4  3  2  0  0  0  0
  4 21  1  0  0  0  0
  5 25  1  0  0  0  0
  6  5  1  0  0  0  0
  6 18  1  0  0  0  0
  7 24  1  1  0  0  0
  7 19  1  0  0  0  0
  8 17  1  0  0  0  0
  9 15  2  0  0  0  0
 10 20  1  0  0  0  0
 10  1  1  0  0  0  0
 11 13  2  0  0  0  0
 12  8  1  0  0  0  0
 12  2  2  0  0  0  0
 13 12  1  0  0  0  0
 14 27  1  0  0  0  0
 15 18  1  0  0  0  0
 17 10  1  0  0  0  0
 17  7  1  0  0  0  0
 19 16  1  0  0  0  0
 20  1  1  0  0  0  0
 21 22  2  0  0  0  0
 22 13  1  0  0  0  0
 22 14  1  0  0  0  0
 23 14  2  0  0  0  0
 23 28  1  0  0  0  0
 26  9  1  0  0  0  0
 27  2  1  0  0  0  0
 27  5  2  0  0  0  0
 28  9  1  0  0  0  0
 28  6  2  0  0  0  0
 29 20  1  0  0  0  0
 30 29  1  0  0  0  0
 31 30  1  0  0  0  0
 32 30  1  0  0  0  0
M  END
>  <MODEL>
2

>  <REMARK>
 VINA RESULT:      -9.4      3.711      8.830
  Name = 
  2 active torsions:
  status: ('A' for Active; 'I' for Inactive)
    1  A    between atoms: C_20  and  C_29
    2  A    between atoms: C_29  and  C_30
                            x       y       z     vdW  Elec       q    Type
                         _______ _______ _______ _____ _____    ______ ____

>  <TORSDO>
F 2

$$$$
=
 OpenBabel11112416333D

 32 38  0  0  1  0  0  0  0  0999 V2000
  185.3160  179.2560  143.4180 C   0  0  1  0  0  3  0  0  0  0  0  0
  189.0580  175.5140  143.1740 C   0  0  0  0  0  0  0  0  0  0  0  0
  191.5900  176.1480  147.3080 C   0  0  0  0  0  3  0  0  0  0  0  0
  192.4920  175.1600  146.9170 C   0  0  0  0  0  3  0  0  0  0  0  0
  189.8170  173.7850  141.5260 C   0  0  0  0  0  0  0  0  0  0  0  0
  190.7570  172.8120  141.2050 C   0  0  0  0  0  0  0  0  0  0  0  0
  186.8190  176.6810  142.9620 C   0  0  1  0  0  3  0  0  0  0  0  0
  188.2450  177.1950  144.9210 C   0  0  0  0  0  2  0  0  0  0  0  0
  192.4880  171.5220  141.3820 C   0  0  0  0  0  0  0  0  0  0  0  0
  186.3740  178.7880  144.4170 C   0  0  2  0  0  3  0  0  0  0  0  0
  190.5200  176.4800  146.4780 C   0  0  0  0  0  3  0  0  0  0  0  0
  189.2510  176.1800  144.4140 C   0  0  0  0  0  0  0  0  0  0  0  0
  190.3320  175.8320  145.2440 C   0  0  0  0  0  0  0  0  0  0  0  0
  191.0700  174.1600  143.6200 C   0  0  0  0  0  0  0  0  0  0  0  0
  191.8640  171.2480  140.2130 N   0  0  0  0  0  0  0  0  0  0  0  0
  185.4850  178.6570  142.0050 C   0  0  0  0  0  2  0  0  0  0  0  0
  187.4040  177.8090  143.8140 C   0  0  2  0  0  3  0  0  0  0  0  0
  190.7990  172.0390  140.1030 N   0  0  0  0  0  0  0  0  0  0  0  0
  185.7700  177.1490  141.9500 C   0  0  0  0  0  2  0  0  0  0  0  0
  184.9550  178.2370  144.4910 C   0  0  1  0  0  3  0  0  0  0  0  0
  192.3200  174.5060  145.6970 C   0  0  0  0  0  3  0  0  0  0  0  0
  191.2450  174.8290  144.8470 C   0  0  2  0  0  3  0  0  0  0  0  0
  191.9910  173.1580  143.2360 C   0  0  0  0  0  3  0  0  0  0  0  0
  187.9580  175.9820  142.2430 C   0  0  0  0  0  2  0  0  0  0  0  0
  188.7710  174.0190  140.6390 O   0  0  0  0  0  1  0  0  0  0  0  0
  193.7190  170.8360  141.8580 C   0  0  0  0  0  1  0  0  0  0  0  0
  189.9640  174.4960  142.7620 C   0  0  0  0  0  0  0  0  0  0  0  0
  191.7950  172.5160  142.0270 C   0  0  0  0  0  0  0  0  0  0  0  0
  184.2080  178.9330  145.6130 C   0  0  0  0  0  2  0  0  0  0  0  0
  184.4640  178.2330  146.9360 C   0  0  1  0  0  3  0  0  0  0  0  0
  184.9570  176.8190  146.6950 C   0  0  0  0  0  1  0  0  0  0  0  0
  185.4300  178.9400  147.6510 O   0  0  0  0  0  1  0  0  0  0  0  0
  1 16  1  6  0  0  0
  1 10  1  0  0  0  0
  1 20  1  0  0  0  0
  2 12  1  0  0  0  0
  4  3  1  0  0  0  0
  5 27  1  0  0  0  0
  6  5  2  0  0  0  0
  6 28  1  0  0  0  0
  7 19  1  6  0  0  0
  7 17  1  0  0  0  0
  9 26  1  0  0  0  0
  9 28  2  0  0  0  0
 10 20  1  0  0  0  0
 11  3  2  0  0  0  0
 12  8  1  0  0  0  0
 12 13  2  0  0  0  0
 13 11  1  0  0  0  0
 14 22  1  0  0  0  0
 15  9  1  0  0  0  0
 17 10  1  0  0  0  0
 17  8  1  0  0  0  0
 18 15  2  0  0  0  0
 18  6  1  0  0  0  0
 19 16  1  0  0  0  0
 20 29  1  0  0  0  0
 21  4  2  0  0  0  0
 22 13  1  0  0  0  0
 22 21  1  0  0  0  0
 23 14  2  0  0  0  0
 24  7  1  0  0  0  0
 24  2  1  0  0  0  0
 25  5  1  0  0  0  0
 27  2  2  0  0  0  0
 27 14  1  0  0  0  0
 28 23  1  0  0  0  0
 29 30  1  0  0  0  0
 30 32  1  0  0  0  0
 31 30  1  0  0  0  0
M  END
>  <MODEL>
3

>  <REMARK>
 VINA RESULT:      -9.3      3.410      7.755
  Name = 
  2 active torsions:
  status: ('A' for Active; 'I' for Inactive)
    1  A    between atoms: C_20  and  C_29
    2  A    between atoms: C_29  and  C_30
                            x       y       z     vdW  Elec       q    Type
                         _______ _______ _______ _____ _____    ______ ____

>  <TORSDO>
F 2

$$$$
=
 OpenBabel11112416333D

 32 38  0  0  1  0  0  0  0  0999 V2000
  186.2660  178.5600  143.3450 C   0  0  1  0  0  3  0  0  0  0  0  0
  189.7660  174.6020  143.7250 C   0  0  0  0  0  0  0  0  0  0  0  0
  193.2620  176.4300  146.6130 C   0  0  0  0  0  3  0  0  0  0  0  0
  194.0210  175.2740  146.4400 C   0  0  0  0  0  3  0  0  0  0  0  0
  190.0610  172.3150  142.7430 C   0  0  0  0  0  0  0  0  0  0  0  0
  190.8750  171.1940  142.6190 C   0  0  0  0  0  0  0  0  0  0  0  0
  187.5650  175.8490  143.5900 C   0  0  1  0  0  3  0  0  0  0  0  0
  189.4430  176.8870  144.8250 C   0  0  0  0  0  2  0  0  0  0  0  0
  192.5740  169.8760  142.8840 C   0  0  0  0  0  0  0  0  0  0  0  0
  187.5320  178.3790  144.1820 C   0  0  2  0  0  3  0  0  0  0  0  0
  192.0230  176.5490  145.9830 C   0  0  0  0  0  3  0  0  0  0  0  0
  190.2740  175.6520  144.5350 C   0  0  0  0  0  0  0  0  0  0  0  0
  191.5220  175.5170  145.1700 C   0  0  0  0  0  0  0  0  0  0  0  0
  191.8040  173.2940  144.1930 C   0  0  0  0  0  0  0  0  0  0  0  0
  191.6730  169.2630  142.0840 N   0  0  0  0  0  0  0  0  0  0  0  0
  186.0670  177.4670  142.2730 C   0  0  0  0  0  2  0  0  0  0  0  0
  188.3620  177.1390  143.7870 C   0  0  2  0  0  3  0  0  0  0  0  0
  190.6280  170.0700  141.9200 N   0  0  0  0  0  0  0  0  0  0  0  0
  186.3040  176.0240  142.7390 C   0  0  0  0  0  2  0  0  0  0  0  0
  186.1680  178.0540  144.7790 C   0  0  1  0  0  3  0  0  0  0  0  0
  193.5390  174.2400  145.6380 C   0  0  0  0  0  3  0  0  0  0  0  0
  192.2910  174.3430  144.9950 C   0  0  2  0  0  3  0  0  0  0  0  0
  192.5830  172.1250  144.0270 C   0  0  0  0  0  3  0  0  0  0  0  0
  188.4760  174.8120  142.9590 C   0  0  0  0  0  2  0  0  0  0  0  0
  188.8300  172.3190  142.0940 O   0  0  0  0  0  1  0  0  0  0  0  0
  193.8740  169.2830  143.2980 C   0  0  0  0  0  1  0  0  0  0  0  0
  190.5240  173.4100  143.5440 C   0  0  0  0  0  0  0  0  0  0  0  0
  192.0810  171.1080  143.2360 C   0  0  0  0  0  0  0  0  0  0  0  0
  185.7370  179.1930  145.6840 C   0  0  0  0  0  2  0  0  0  0  0  0
  185.4840  178.6860  147.0930 C   0  0  1  0  0  3  0  0  0  0  0  0
  185.7910  177.2030  147.1800 C   0  0  0  0  0  1  0  0  0  0  0  0
  186.3030  179.3780  147.9840 O   0  0  0  0  0  1  0  0  0  0  0  0
  1 16  1  6  0  0  0
  1 10  1  0  0  0  0
  1 20  1  0  0  0  0
  2 12  1  0  0  0  0
  4  3  1  0  0  0  0
  5 27  1  0  0  0  0
  6  5  2  0  0  0  0
  6 28  1  0  0  0  0
  7 19  1  6  0  0  0
  7 17  1  0  0  0  0
  9 28  2  0  0  0  0
  9 26  1  0  0  0  0
 10 20  1  0  0  0  0
 11  3  2  0  0  0  0
 12  8  1  0  0  0  0
 12 13  2  0  0  0  0
 13 11  1  0  0  0  0
 14 22  1  0  0  0  0
 15  9  1  0  0  0  0
 16 19  1  0  0  0  0
 17 10  1  0  0  0  0
 17  8  1  0  0  0  0
 18 15  2  0  0  0  0
 18  6  1  0  0  0  0
 20 29  1  0  0  0  0
 21  4  2  0  0  0  0
 22 13  1  0  0  0  0
 22 21  1  0  0  0  0
 23 14  2  0  0  0  0
 24  7  1  0  0  0  0
 24  2  1  0  0  0  0
 25  5  1  0  0  0  0
 27  2  2  0  0  0  0
 27 14  1  0  0  0  0
 28 23  1  0  0  0  0
 29 30  1  0  0  0  0
 30 31  1  0  0  0  0
 30 32  1  0  0  0  0
M  END
>  <MODEL>
4

>  <REMARK>
 VINA RESULT:      -8.8      3.817      8.195
  Name = 
  2 active torsions:
  status: ('A' for Active; 'I' for Inactive)
    1  A    between atoms: C_20  and  C_29
    2  A    between atoms: C_29  and  C_30
                            x       y       z     vdW  Elec       q    Type
                         _______ _______ _______ _____ _____    ______ ____

>  <TORSDO>
F 2

$$$$
=
 OpenBabel11112416333D

 32 38  0  0  1  0  0  0  0  0999 V2000
  189.9730  172.2350  139.2400 C   0  0  1  0  0  3  0  0  0  0  0  0
  188.5850  175.4270  143.2330 C   0  0  0  0  0  0  0  0  0  0  0  0
  192.2410  174.9160  146.4390 C   0  0  0  0  0  3  0  0  0  0  0  0
  191.5710  175.7350  147.3460 C   0  0  0  0  0  3  0  0  0  0  0  0
  186.6210  176.8640  143.8340 C   0  0  0  0  0  0  0  0  0  0  0  0
  186.0150  177.6710  144.7900 C   0  0  0  0  0  0  0  0  0  0  0  0
  188.9310  174.5370  140.8860 C   0  0  1  0  0  3  0  0  0  0  0  0
  190.6490  174.0550  142.6030 C   0  0  0  0  0  2  0  0  0  0  0  0
  185.7120  178.7440  146.6480 C   0  0  0  0  0  0  0  0  0  0  0  0
  190.6970  172.6670  140.5150 C   0  0  2  0  0  3  0  0  0  0  0  0
  191.6660  174.6360  145.1990 C   0  0  0  0  0  3  0  0  0  0  0  0
  189.8440  174.8750  143.5930 C   0  0  0  0  0  0  0  0  0  0  0  0
  190.4150  175.1700  144.8440 C   0  0  0  0  0  0  0  0  0  0  0  0
  188.4850  176.5550  145.4240 C   0  0  0  0  0  0  0  0  0  0  0  0
  184.6500  178.9700  145.8410 N   0  0  0  0  0  0  0  0  0  0  0  0
  188.4880  172.6560  139.1930 C   0  0  0  0  0  2  0  0  0  0  0  0
  189.7990  173.4390  141.5040 C   0  0  2  0  0  3  0  0  0  0  0  0
  184.8350  178.3130  144.6990 N   0  0  0  0  0  0  0  0  0  0  0  0
  188.1910  174.1010  139.6180 C   0  0  0  0  0  2  0  0  0  0  0  0
  190.9550  173.3980  139.2030 C   0  0  1  0  0  3  0  0  0  0  0  0
  190.3290  176.2740  147.0100 C   0  0  0  0  0  3  0  0  0  0  0  0
  189.7350  176.0020  145.7630 C   0  0  0  0  0  0  0  0  0  0  0  0
  187.8180  177.3870  146.3520 C   0  0  0  0  0  3  0  0  0  0  0  0
  187.9350  175.0070  141.9310 C   0  0  0  0  0  2  0  0  0  0  0  0
  185.9740  176.6730  142.6170 O   0  0  0  0  0  1  0  0  0  0  0  0
  185.8670  179.3150  148.0130 C   0  0  0  0  0  1  0  0  0  0  0  0
  187.8910  176.2740  144.1430 C   0  0  0  0  0  0  0  0  0  0  0  0
  186.5920  177.9190  145.9940 C   0  0  2  0  0  3  0  0  0  0  0  0
  192.2730  172.9230  138.6190 C   0  0  0  0  0  2  0  0  0  0  0  0
  192.7450  173.8720  137.5310 C   0  0  1  0  0  3  0  0  0  0  0  0
  191.5570  174.4270  136.7670 C   0  0  0  0  0  1  0  0  0  0  0  0
  193.4480  174.9260  138.1130 O   0  0  0  0  0  1  0  0  0  0  0  0
  1 16  1  1  0  0  0
  1 10  1  0  0  0  0
  2 12  2  0  0  0  0
  2 27  1  0  0  0  0
  3  4  1  0  0  0  0
  5 27  2  0  0  0  0
  5  6  1  0  0  0  0
  6 28  1  0  0  0  0
  7 19  1  6  0  0  0
  7 17  1  0  0  0  0
  7 24  1  0  0  0  0
  8 12  1  0  0  0  0
  9 26  1  0  0  0  0
 10 17  1  0  0  0  0
 11  3  2  0  0  0  0
 12 13  1  0  0  0  0
 13 11  1  0  0  0  0
 13 22  2  0  0  0  0
 14 22  1  0  0  0  0
 14 23  2  0  0  0  0
 15  9  2  0  0  0  0
 16 19  1  0  0  0  0
 17  8  1  0  0  0  0
 18  6  2  0  0  0  0
 18 15  1  0  0  0  0
 20  1  1  0  0  0  0
 20 10  1  0  0  0  0
 21  4  2  0  0  0  0
 22 21  1  0  0  0  0
 24  2  1  0  0  0  0
 25  5  1  0  0  0  0
 27 14  1  0  0  0  0
 28 23  1  0  0  0  0
 28  9  1  0  0  0  0
 29 20  1  0  0  0  0
 30 32  1  0  0  0  0
 30 29  1  0  0  0  0
 31 30  1  0  0  0  0
M  END
>  <MODEL>
5

>  <REMARK>
 VINA RESULT:      -8.6      3.195      5.447
  Name = 
  2 active torsions:
  status: ('A' for Active; 'I' for Inactive)
    1  A    between atoms: C_20  and  C_29
    2  A    between atoms: C_29  and  C_30
                            x       y       z     vdW  Elec       q    Type
                         _______ _______ _______ _____ _____    ______ ____

>  <TORSDO>
F 2

$$$$
=
 OpenBabel11112416333D

 32 38  0  0  1  0  0  0  0  0999 V2000
  185.8070  179.0000  144.0200 C   0  0  1  0  0  3  0  0  0  0  0  0
  189.0670  174.9710  142.9260 C   0  0  0  0  0  0  0  0  0  0  0  0
  192.3360  175.1170  146.5590 C   0  0  0  0  0  3  0  0  0  0  0  0
  193.0550  174.0810  145.9650 C   0  0  0  0  0  3  0  0  0  0  0  0
  189.3530  173.2920  141.0880 C   0  0  0  0  0  0  0  0  0  0  0  0
  190.1240  172.2640  140.5570 C   0  0  0  0  0  0  0  0  0  0  0  0
  186.9500  176.3400  143.1790 C   0  0  1  0  0  3  0  0  0  0  0  0
  188.7410  176.6020  144.8690 C   0  0  0  0  0  2  0  0  0  0  0  0
  191.7260  170.8190  140.3560 C   0  0  0  0  0  0  0  0  0  0  0  0
  186.9740  178.3790  144.7880 C   0  0  2  0  0  3  0  0  0  0  0  0
  191.1730  175.5930  145.9530 C   0  0  0  0  0  3  0  0  0  0  0  0
  189.5390  175.5370  144.1410 C   0  0  0  0  0  0  0  0  0  0  0  0
  190.7100  175.0440  144.7450 C   0  0  0  0  0  0  0  0  0  0  0  0
  190.9860  173.4220  142.9360 C   0  0  0  0  0  0  0  0  0  0  0  0
  190.8830  170.6760  139.3080 N   0  0  0  0  0  0  0  0  0  0  0  0
  185.6660  178.4800  142.5740 C   0  0  0  0  0  2  0  0  0  0  0  0
  187.7820  177.3560  143.9640 C   0  0  2  0  0  3  0  0  0  0  0  0
  189.8970  171.5620  139.4300 N   0  0  0  0  0  0  0  0  0  0  0  0
  185.7890  176.9610  142.3960 C   0  0  0  0  0  2  0  0  0  0  0  0
  185.5430  177.9500  145.0920 C   0  0  1  0  0  3  0  0  0  0  0  0
  192.6090  173.5240  144.7670 C   0  0  0  0  0  3  0  0  0  0  0  0
  191.4380  173.9930  144.1410 C   0  0  2  0  0  3  0  0  0  0  0  0
  191.7230  172.3700  142.3450 C   0  0  0  0  0  3  0  0  0  0  0  0
  187.8710  175.5910  142.2330 C   0  0  0  0  0  2  0  0  0  0  0  0
  188.1960  173.6720  140.4170 O   0  0  0  0  0  1  0  0  0  0  0  0
  192.9500  170.0000  140.5690 C   0  0  0  0  0  1  0  0  0  0  0  0
  189.7840  173.9070  142.3100 C   0  0  0  0  0  0  0  0  0  0  0  0
  191.2570  171.8260  141.1620 C   0  0  0  0  0  0  0  0  0  0  0  0
  185.0760  178.6350  146.3620 C   0  0  0  0  0  2  0  0  0  0  0  0
  186.1660  178.5960  147.4180 C   0  0  1  0  0  3  0  0  0  0  0  0
  186.2730  179.9410  148.1130 C   0  0  0  0  0  1  0  0  0  0  0  0
  185.8590  177.6170  148.3610 O   0  0  0  0  0  1  0  0  0  0  0  0
  1 16  1  6  0  0  0
  1 10  1  0  0  0  0
  1 20  1  0  0  0  0
  2 12  1  0  0  0  0
  4  3  1  0  0  0  0
  5 27  1  0  0  0  0
  6  5  2  0  0  0  0
  6 28  1  0  0  0  0
  7 24  1  6  0  0  0
  7 17  1  0  0  0  0
  9 26  1  0  0  0  0
  9 28  2  0  0  0  0
 10 20  1  0  0  0  0
 11  3  2  0  0  0  0
 12 13  2  0  0  0  0
 12  8  1  0  0  0  0
 13 11  1  0  0  0  0
 14 22  1  0  0  0  0
 15 18  2  0  0  0  0
 15  9  1  0  0  0  0
 17 10  1  0  0  0  0
 17  8  1  0  0  0  0
 18  6  1  0  0  0  0
 19 16  1  0  0  0  0
 19  7  1  0  0  0  0
 20 29  1  0  0  0  0
 21  4  2  0  0  0  0
 22 13  1  0  0  0  0
 22 21  1  0  0  0  0
 23 14  2  0  0  0  0
 24  2  1  0  0  0  0
 25  5  1  0  0  0  0
 27  2  2  0  0  0  0
 27 14  1  0  0  0  0
 28 23  1  0  0  0  0
 29 30  1  0  0  0  0
 30 31  1  0  0  0  0
 30 32  1  0  0  0  0
M  END
>  <MODEL>
6

>  <REMARK>
 VINA RESULT:      -8.6      3.400      7.717
  Name = 
  2 active torsions:
  status: ('A' for Active; 'I' for Inactive)
    1  A    between atoms: C_20  and  C_29
    2  A    between atoms: C_29  and  C_30
                            x       y       z     vdW  Elec       q    Type
                         _______ _______ _______ _____ _____    ______ ____

>  <TORSDO>
F 2

$$$$
=
 OpenBabel11112416333D

 32 38  0  0  1  0  0  0  0  0999 V2000
  192.0200  170.1200  142.8020 C   0  0  1  0  0  3  0  0  0  0  0  0
  189.4940  174.6900  143.6910 C   0  0  0  0  0  0  0  0  0  0  0  0
  191.3200  176.2010  147.9670 C   0  0  0  0  0  3  0  0  0  0  0  0
  190.4420  177.2830  147.9690 C   0  0  0  0  0  3  0  0  0  0  0  0
  187.6720  176.0200  142.5980 C   0  0  0  0  0  0  0  0  0  0  0  0
  186.8290  177.1230  142.6710 C   0  0  0  0  0  0  0  0  0  0  0  0
  190.6900  172.8080  142.4880 C   0  0  1  0  0  3  0  0  0  0  0  0
  191.4260  173.4120  144.7740 C   0  0  0  0  0  2  0  0  0  0  0  0
  185.9040  178.9280  143.4330 C   0  0  0  0  0  0  0  0  0  0  0  0
  192.1790  171.1940  143.8770 C   0  0  2  0  0  3  0  0  0  0  0  0
  191.3000  175.2920  146.9090 C   0  0  0  0  0  3  0  0  0  0  0  0
  190.3920  174.5210  144.7790 C   0  0  0  0  0  0  0  0  0  0  0  0
  190.4050  175.4480  145.8370 C   0  0  0  0  0  0  0  0  0  0  0  0
  188.6160  176.7280  144.7680 C   0  0  0  0  0  0  0  0  0  0  0  0
  185.3310  178.6170  142.2480 N   0  0  0  0  0  0  0  0  0  0  0  0
  190.7690  170.3050  141.9160 C   0  0  0  0  0  2  0  0  0  0  0  0
  191.0550  172.2520  143.8650 C   0  0  2  0  0  3  0  0  0  0  0  0
  185.8980  177.5090  141.7780 N   0  0  0  0  0  0  0  0  0  0  0  0
  190.5140  171.7320  141.4120 C   0  0  0  0  0  2  0  0  0  0  0  0
  193.0690  171.2130  142.6400 C   0  0  1  0  0  3  0  0  0  0  0  0
  189.5480  177.4540  146.9130 C   0  0  0  0  0  3  0  0  0  0  0  0
  189.5150  176.5470  145.8370 C   0  0  2  0  0  3  0  0  0  0  0  0
  187.7330  177.8310  144.7810 C   0  0  0  0  0  3  0  0  0  0  0  0
  189.4150  173.6210  142.6200 C   0  0  0  0  0  2  0  0  0  0  0  0
  187.5900  175.1920  141.4840 O   0  0  0  0  0  1  0  0  0  0  0  0
  185.5340  180.1070  144.2630 C   0  0  0  0  0  1  0  0  0  0  0  0
  188.5960  175.7950  143.6720 C   0  0  0  0  0  0  0  0  0  0  0  0
  186.8610  177.9870  143.7180 C   0  0  0  0  0  0  0  0  0  0  0  0
  194.4330  170.6550  143.0000 C   0  0  0  0  0  2  0  0  0  0  0  0
  195.4610  171.7710  143.0740 C   0  0  1  0  0  3  0  0  0  0  0  0
  194.9490  173.0040  142.3540 C   0  0  0  0  0  1  0  0  0  0  0  0
  195.7010  172.0870  144.4100 O   0  0  0  0  0  1  0  0  0  0  0  0
  1 16  1  6  0  0  0
  1 10  1  0  0  0  0
  2 12  1  0  0  0  0
  3  4  1  0  0  0  0
  5  6  2  0  0  0  0
  5 27  1  0  0  0  0
  6 28  1  0  0  0  0
  7 19  1  6  0  0  0
  7 24  1  0  0  0  0
  7 17  1  0  0  0  0
  8 12  1  0  0  0  0
  9 28  2  0  0  0  0
  9 26  1  0  0  0  0
 11  3  2  0  0  0  0
 12 13  2  0  0  0  0
 13 11  1  0  0  0  0
 14 23  2  0  0  0  0
 14 22  1  0  0  0  0
 15  9  1  0  0  0  0
 17 10  1  0  0  0  0
 17  8  1  0  0  0  0
 18 15  2  0  0  0  0
 18  6  1  0  0  0  0
 19 16  1  0  0  0  0
 20  1  1  0  0  0  0
 20 29  1  0  0  0  0
 20 10  1  0  0  0  0
 21  4  2  0  0  0  0
 22 13  1  0  0  0  0
 22 21  1  0  0  0  0
 24  2  1  0  0  0  0
 25  5  1  0  0  0  0
 27  2  2  0  0  0  0
 27 14  1  0  0  0  0
 28 23  1  0  0  0  0
 29 30  1  0  0  0  0
 30 32  1  0  0  0  0
 31 30  1  0  0  0  0
M  END
>  <MODEL>
7

>  <REMARK>
 VINA RESULT:      -8.3      2.706      4.209
  Name = 
  2 active torsions:
  status: ('A' for Active; 'I' for Inactive)
    1  A    between atoms: C_20  and  C_29
    2  A    between atoms: C_29  and  C_30
                            x       y       z     vdW  Elec       q    Type
                         _______ _______ _______ _____ _____    ______ ____

>  <TORSDO>
F 2

$$$$
=
 OpenBabel11112416333D

 32 38  0  0  1  0  0  0  0  0999 V2000
  186.5490  177.8790  144.2340 C   0  0  1  0  0  3  0  0  0  0  0  0
  190.9230  175.1680  142.9770 C   0  0  0  0  0  0  0  0  0  0  0  0
  194.0400  176.2800  146.5770 C   0  0  0  0  0  3  0  0  0  0  0  0
  195.0450  175.5530  145.9420 C   0  0  0  0  0  3  0  0  0  0  0  0
  191.7040  173.7240  141.0830 C   0  0  0  0  0  0  0  0  0  0  0  0
  192.7570  173.0180  140.5120 C   0  0  0  0  0  0  0  0  0  0  0  0
  188.4800  175.7610  143.2960 C   0  0  1  0  0  3  0  0  0  0  0  0
  190.1220  176.5500  144.9740 C   0  0  0  0  0  2  0  0  0  0  0  0
  194.7380  172.1830  140.2470 C   0  0  0  0  0  0  0  0  0  0  0  0
  187.8710  177.6540  144.9690 C   0  0  2  0  0  3  0  0  0  0  0  0
  192.7730  176.3650  145.9990 C   0  0  0  0  0  3  0  0  0  0  0  0
  191.2090  175.8260  144.2040 C   0  0  0  0  0  0  0  0  0  0  0  0
  192.4890  175.7270  144.7790 C   0  0  0  0  0  0  0  0  0  0  0  0
  193.2420  174.3320  142.9170 C   0  0  0  0  0  0  0  0  0  0  0  0
  193.9660  171.8000  139.2050 N   0  0  0  0  0  0  0  0  0  0  0  0
  186.5560  177.3800  142.7730 C   0  0  0  0  0  2  0  0  0  0  0  0
  188.9510  176.9730  144.1030 C   0  0  2  0  0  3  0  0  0  0  0  0
  192.7490  172.3110  139.3660 N   0  0  0  0  0  0  0  0  0  0  0  0
  187.1650  175.9890  142.5460 C   0  0  0  0  0  2  0  0  0  0  0  0
  186.6650  176.7720  145.2740 C   0  0  1  0  0  3  0  0  0  0  0  0
  194.7810  174.9120  144.7320 C   0  0  0  0  0  3  0  0  0  0  0  0
  193.5080  174.9870  144.1340 C   0  0  2  0  0  3  0  0  0  0  0  0
  194.2710  173.5960  142.2850 C   0  0  0  0  0  3  0  0  0  0  0  0
  189.5760  175.3810  142.3170 C   0  0  0  0  0  2  0  0  0  0  0  0
  190.4720  173.7220  140.4370 O   0  0  0  0  0  1  0  0  0  0  0  0
  196.1670  171.8040  140.4210 C   0  0  0  0  0  1  0  0  0  0  0  0
  191.9360  174.4130  142.3190 C   0  0  0  0  0  0  0  0  0  0  0  0
  193.9830  172.9600  141.0900 C   0  0  0  0  0  0  0  0  0  0  0  0
  186.0260  177.2340  146.5710 C   0  0  0  0  0  2  0  0  0  0  0  0
  185.4360  178.6230  146.4070 C   0  0  1  0  0  3  0  0  0  0  0  0
  183.9220  178.5470  146.3450 C   0  0  0  0  0  1  0  0  0  0  0  0
  185.8120  179.4130  147.4920 O   0  0  0  0  0  1  0  0  0  0  0  0
  1 16  1  6  0  0  0
  1 10  1  0  0  0  0
  1 20  1  0  0  0  0
  2 12  1  0  0  0  0
  4  3  1  0  0  0  0
  5 27  1  0  0  0  0
  6  5  2  0  0  0  0
  6 28  1  0  0  0  0
  7 24  1  6  0  0  0
  7 17  1  0  0  0  0
  9 26  1  0  0  0  0
  9 28  2  0  0  0  0
 10 20  1  0  0  0  0
 11  3  2  0  0  0  0
 12 13  2  0  0  0  0
 12  8  1  0  0  0  0
 13 11  1  0  0  0  0
 14 22  1  0  0  0  0
 15 18  2  0  0  0  0
 15  9  1  0  0  0  0
 17 10  1  0  0  0  0
 17  8  1  0  0  0  0
 18  6  1  0  0  0  0
 19 16  1  0  0  0  0
 19  7  1  0  0  0  0
 20 29  1  0  0  0  0
 21  4  2  0  0  0  0
 22 21  1  0  0  0  0
 22 13  1  0  0  0  0
 23 14  2  0  0  0  0
 24  2  1  0  0  0  0
 25  5  1  0  0  0  0
 27 14  1  0  0  0  0
 27  2  2  0  0  0  0
 28 23  1  0  0  0  0
 30 29  1  0  0  0  0
 30 32  1  0  0  0  0
 31 30  1  0  0  0  0
M  END
>  <MODEL>
8

>  <REMARK>
 VINA RESULT:      -8.2      3.675      8.546
  Name = 
  2 active torsions:
  status: ('A' for Active; 'I' for Inactive)
    1  A    between atoms: C_20  and  C_29
    2  A    between atoms: C_29  and  C_30
                            x       y       z     vdW  Elec       q    Type
                         _______ _______ _______ _____ _____    ______ ____

>  <TORSDO>
F 2

$$$$
=
 OpenBabel11112416333D

 32 38  0  0  1  0  0  0  0  0999 V2000
  187.0410  176.7590  146.0530 C   0  0  1  0  0  3  0  0  0  0  0  0
  191.5640  175.7770  143.4750 C   0  0  0  0  0  0  0  0  0  0  0  0
  190.1590  172.9960  139.7070 C   0  0  0  0  0  3  0  0  0  0  0  0
  191.4890  172.8340  139.3200 C   0  0  0  0  0  3  0  0  0  0  0  0
  194.0030  176.2480  143.8080 C   0  0  0  0  0  0  0  0  0  0  0  0
  195.3030  176.0410  143.3600 C   0  0  0  0  0  0  0  0  0  0  0  0
  189.7690  176.9920  144.7880 C   0  0  1  0  0  3  0  0  0  0  0  0
  189.0750  175.3680  143.0510 C   0  0  0  0  0  2  0  0  0  0  0  0
  196.9420  175.3170  142.1430 C   0  0  0  0  0  0  0  0  0  0  0  0
  187.3420  176.0660  144.7240 C   0  0  2  0  0  3  0  0  0  0  0  0
  189.8510  173.7630  140.8300 C   0  0  0  0  0  3  0  0  0  0  0  0
  190.5390  175.1450  142.7210 C   0  0  0  0  0  0  0  0  0  0  0  0
  190.8630  174.3790  141.5870 C   0  0  0  0  0  0  0  0  0  0  0  0
  193.2400  174.8340  141.9320 C   0  0  0  0  0  0  0  0  0  0  0  0
  197.4480  176.0800  143.1390 N   0  0  0  0  0  0  0  0  0  0  0  0
  188.2990  177.0690  146.8930 C   0  0  0  0  0  2  0  0  0  0  0  0
  188.8450  175.8100  144.4860 C   0  0  2  0  0  3  0  0  0  0  0  0
  196.4430  176.5260  143.8870 N   0  0  0  0  0  2  0  0  0  0  0  0
  189.4800  177.6790  146.1260 C   0  0  0  0  0  2  0  0  0  0  0  0
  186.9530  177.5390  144.7470 C   0  0  1  0  0  3  0  0  0  0  0  0
  192.5050  173.4400  140.0580 C   0  0  0  0  0  3  0  0  0  0  0  0
  192.2120  174.2170  141.1950 C   0  0  0  0  0  0  0  0  0  0  0  0
  194.5850  174.6640  141.5280 C   0  0  0  0  0  3  0  0  0  0  0  0
  191.2040  176.5000  144.7570 C   0  0  0  0  0  2  0  0  0  0  0  0
  193.8030  177.0540  144.9240 O   0  0  0  0  0  1  0  0  0  0  0  0
  197.7620  174.6440  141.0990 C   0  0  0  0  0  1  0  0  0  0  0  0
  192.9260  175.6300  143.0900 C   0  0  0  0  0  0  0  0  0  0  0  0
  195.5760  175.2820  142.2680 C   0  0  0  0  0  0  0  0  0  0  0  0
  185.4970  177.6770  144.3420 C   0  0  0  0  0  2  0  0  0  0  0  0
  185.3040  178.8990  143.4620 C   0  0  1  0  0  3  0  0  0  0  0  0
  185.5430  180.1650  144.2630 C   0  0  0  0  0  1  0  0  0  0  0  0
  186.2070  178.8500  142.4010 O   0  0  0  0  0  1  0  0  0  0  0  0
  1 16  1  1  0  0  0
  2 24  1  0  0  0  0
  3 11  1  0  0  0  0
  4  3  2  0  0  0  0
  4 21  1  0  0  0  0
  5 25  1  0  0  0  0
  6  5  1  0  0  0  0
  6 18  1  0  0  0  0
  7 24  1  1  0  0  0
  7 19  1  0  0  0  0
  8 17  1  0  0  0  0
  9 28  1  0  0  0  0
  9 15  2  0  0  0  0
 10 20  1  0  0  0  0
 10  1  1  0  0  0  0
 11 13  2  0  0  0  0
 12  8  1  0  0  0  0
 12  2  2  0  0  0  0
 13 12  1  0  0  0  0
 14 27  1  0  0  0  0
 15 18  1  0  0  0  0
 17 10  1  0  0  0  0
 17  7  1  0  0  0  0
 19 16  1  0  0  0  0
 20  1  1  0  0  0  0
 21 22  2  0  0  0  0
 22 13  1  0  0  0  0
 22 14  1  0  0  0  0
 23 14  2  0  0  0  0
 23 28  1  0  0  0  0
 26  9  1  0  0  0  0
 27  2  1  0  0  0  0
 27  5  2  0  0  0  0
 28  6  2  0  0  0  0
 29 20  1  0  0  0  0
 30 31  1  0  0  0  0
 30 29  1  0  0  0  0
 32 30  1  0  0  0  0
M  END
>  <MODEL>
9

>  <REMARK>
 VINA RESULT:      -8.1      3.936      9.282
  Name = 
  2 active torsions:
  status: ('A' for Active; 'I' for Inactive)
    1  A    between atoms: C_20  and  C_29
    2  A    between atoms: C_29  and  C_30
                            x       y       z     vdW  Elec       q    Type
                         _______ _______ _______ _____ _____    ______ ____

>  <TORSDO>
F 2

$$$$
