=
 OpenBabel11112416373D

 32 37  0  0  1  0  0  0  0  0999 V2000
  192.4160  174.1460  142.6810 C   0  0  0  0  0  2  0  0  0  0  0  0
  187.6400  177.0880  143.3020 C   0  0  1  0  0  3  0  0  0  0  0  0
  186.6290  178.6250  147.9360 C   0  0  0  0  0  2  0  0  0  0  0  0
  185.1750  178.6780  147.5640 C   0  0  0  0  0  3  0  0  0  0  0  0
  185.7950  177.5580  141.5650 C   0  0  0  0  0  0  0  0  0  0  0  0
  184.4730  177.9140  141.3160 C   0  0  0  0  0  0  0  0  0  0  0  0
  189.4930  175.3160  142.9890 C   0  0  2  0  0  3  0  0  0  0  0  0
  189.3480  176.7130  145.1180 C   0  0  0  0  0  2  0  0  0  0  0  0
  182.4390  178.5550  141.8200 N   0  0  0  0  0  0  0  0  0  0  0  0
  191.5100  175.6540  144.5090 C   0  0  0  0  0  2  0  0  0  0  0  0
  187.4410  177.8020  146.9740 C   0  0  0  0  0  3  0  0  0  0  0  0
  187.8460  176.7360  144.7820 C   0  0  1  0  0  3  0  0  0  0  0  0
  187.0360  177.5900  145.7140 C   0  0  0  0  0  0  0  0  0  0  0  0
  185.2880  177.8730  143.9510 C   0  0  0  0  0  0  0  0  0  0  0  0
  182.5910  178.4560  140.4790 C   0  0  0  0  0  3  0  0  0  0  0  0
  190.9750  173.8210  142.2810 C   0  0  0  0  0  2  0  0  0  0  0  0
  190.2360  176.2760  143.9450 C   0  0  1  0  0  3  0  0  0  0  0  0
  183.8470  178.0610  140.1300 N   0  0  0  0  0  0  0  0  0  0  0  0
  190.2950  174.9790  141.8920 O   0  0  0  0  0  0  0  0  0  0  0  0
  192.5630  175.4820  143.4160 C   0  0  1  0  0  3  0  0  0  0  0  0
  184.7720  178.4170  146.3210 C   0  0  0  0  0  3  0  0  0  0  0  0
  185.7100  177.9850  145.3210 N   0  0  0  0  0  0  0  0  0  0  0  0
  184.0050  178.2230  143.6210 N   0  0  0  0  0  0  0  0  0  0  0  0
  188.1690  175.9050  142.4750 C   0  0  0  0  0  2  0  0  0  0  0  0
  186.7190  177.3500  140.4080 C   0  0  0  0  0  1  0  0  0  0  0  0
  181.2500  178.9770  142.5400 C   0  0  0  0  0  1  0  0  0  0  0  0
  186.2100  177.4680  142.9290 C   0  0  0  0  0  0  0  0  0  0  0  0
  183.6260  178.2110  142.3230 C   0  0  0  0  0  0  0  0  0  0  0  0
  193.8970  175.5640  143.9920 N   0  0  0  0  0  2  0  0  0  0  0  0
  195.0230  176.0510  143.2590 C   0  0  0  0  0  0  0  0  0  0  0  0
  194.9030  176.4100  142.0570 O   0  0  0  0  0  0  0  0  0  0  0  0
  196.3510  176.1280  143.9200 C   0  0  0  0  0  1  0  0  0  0  0  0
  1 20  1  0  0  0  0
  2 24  1  6  0  0  0
  2 12  1  0  0  0  0
  4  3  1  0  0  0  0
  5 27  1  0  0  0  0
  6  5  2  0  0  0  0
  6 28  1  0  0  0  0
  7 24  1  6  0  0  0
  7 17  1  0  0  0  0
  9 28  1  0  0  0  0
  9 26  1  0  0  0  0
 11  3  1  0  0  0  0
 12  8  1  1  0  0  0
 12 13  1  0  0  0  0
 13 11  2  0  0  0  0
 14 22  1  0  0  0  0
 15  9  1  0  0  0  0
 16  1  1  0  0  0  0
 17 10  1  1  0  0  0
 17  8  1  0  0  0  0
 18 15  2  0  0  0  0
 18  6  1  0  0  0  0
 19 16  1  0  0  0  0
 19  7  1  0  0  0  0
 20 29  1  1  0  0  0
 20 10  1  0  0  0  0
 21  4  2  0  0  0  0
 22 13  1  0  0  0  0
 22 21  1  0  0  0  0
 23 14  1  0  0  0  0
 25  5  1  0  0  0  0
 27  2  1  0  0  0  0
 27 14  2  0  0  0  0
 28 23  2  0  0  0  0
 30 32  1  0  0  0  0
 30 29  1  0  0  0  0
 31 30  2  0  0  0  0
M  END
>  <MODEL>
1

>  <REMARK>
 VINA RESULT:      -9.5      0.000      0.000
  Name = 
  1 active torsions:
  status: ('A' for Active; 'I' for Inactive)
    1  A    between atoms: C_20  and  N_29
                            x       y       z     vdW  Elec       q    Type
                         _______ _______ _______ _____ _____    ______ ____

>  <TORSDO>
F 1

$$$$
=
 OpenBabel11112416373D

 32 37  0  0  1  0  0  0  0  0999 V2000
  189.6630  172.4090  138.2920 C   0  0  0  0  0  2  0  0  0  0  0  0
  188.5710  175.5280  142.8680 C   0  0  1  0  0  3  0  0  0  0  0  0
  191.8060  175.0560  146.6330 C   0  0  0  0  0  2  0  0  0  0  0  0
  190.7220  175.4990  147.5740 C   0  0  0  0  0  3  0  0  0  0  0  0
  186.5120  176.9930  143.3700 C   0  0  0  0  0  0  0  0  0  0  0  0
  185.7230  177.6310  144.3220 C   0  0  0  0  0  0  0  0  0  0  0  0
  188.6700  173.7890  140.9600 C   0  0  2  0  0  3  0  0  0  0  0  0
  190.6470  174.1340  142.5350 C   0  0  0  0  0  2  0  0  0  0  0  0
  185.1520  178.3120  146.3260 N   0  0  0  0  0  0  0  0  0  0  0  0
  191.0370  173.1060  140.3080 C   0  0  0  0  0  2  0  0  0  0  0  0
  191.2670  174.6090  145.3020 C   0  0  0  0  0  3  0  0  0  0  0  0
  189.5450  174.5430  143.5300 C   0  0  1  0  0  3  0  0  0  0  0  0
  190.0790  175.0300  144.8470 C   0  0  0  0  0  0  0  0  0  0  0  0
  187.9760  176.3250  145.2300 C   0  0  0  0  0  0  0  0  0  0  0  0
  184.2850  178.7780  145.3960 C   0  0  0  0  0  3  0  0  0  0  0  0
  188.4030  172.5270  139.1510 C   0  0  0  0  0  2  0  0  0  0  0  0
  190.1770  174.1080  141.0740 C   0  0  1  0  0  3  0  0  0  0  0  0
  184.6120  178.3740  144.1370 N   0  0  0  0  0  0  0  0  0  0  0  0
  188.2470  173.8330  139.6260 O   0  0  0  0  0  0  0  0  0  0  0  0
  190.8350  173.2540  138.8020 C   0  0  1  0  0  3  0  0  0  0  0  0
  189.5250  175.8690  147.1200 C   0  0  0  0  0  3  0  0  0  0  0  0
  189.2050  175.7650  145.7220 N   0  0  0  0  0  0  0  0  0  0  0  0
  187.1520  176.9870  146.1010 N   0  0  0  0  0  0  0  0  0  0  0  0
  187.8000  174.7480  141.7900 C   0  0  0  0  0  2  0  0  0  0  0  0
  186.1760  177.1580  141.9230 C   0  0  0  0  0  1  0  0  0  0  0  0
  185.1290  178.5680  147.7550 C   0  0  0  0  0  1  0  0  0  0  0  0
  187.6450  176.2570  143.8350 C   0  0  0  0  0  0  0  0  0  0  0  0
  186.0410  177.5970  145.6330 C   0  0  0  0  0  0  0  0  0  0  0  0
  192.0470  172.8620  138.0970 N   0  0  0  0  0  2  0  0  0  0  0  0
  192.6560  173.6840  137.0980 C   0  0  0  0  0  0  0  0  0  0  0  0
  192.1420  174.7860  136.7700 O   0  0  0  0  0  0  0  0  0  0  0  0
  193.9050  173.2290  136.4360 C   0  0  0  0  0  1  0  0  0  0  0  0
  1 20  1  0  0  0  0
  1 16  1  0  0  0  0
  2 24  1  6  0  0  0
  2 12  1  0  0  0  0
  2 27  1  0  0  0  0
  3  4  1  0  0  0  0
  5 27  2  0  0  0  0
  5  6  1  0  0  0  0
  6 28  2  0  0  0  0
  7 17  1  0  0  0  0
  7 24  1  1  0  0  0
  9 26  1  0  0  0  0
 11  3  1  0  0  0  0
 12  8  1  6  0  0  0
 12 13  1  0  0  0  0
 13 11  2  0  0  0  0
 13 22  1  0  0  0  0
 14 22  1  0  0  0  0
 14 23  2  0  0  0  0
 15  9  1  0  0  0  0
 16 19  1  0  0  0  0
 17 10  1  6  0  0  0
 17  8  1  0  0  0  0
 18  6  1  0  0  0  0
 18 15  2  0  0  0  0
 19  7  1  0  0  0  0
 20 29  1  6  0  0  0
 20 10  1  0  0  0  0
 21  4  2  0  0  0  0
 22 21  1  0  0  0  0
 25  5  1  0  0  0  0
 27 14  1  0  0  0  0
 28 23  1  0  0  0  0
 28  9  1  0  0  0  0
 30 29  1  0  0  0  0
 31 30  2  0  0  0  0
 32 30  1  0  0  0  0
M  END
>  <MODEL>
2

>  <REMARK>
 VINA RESULT:      -8.5      2.938      4.744
  Name = 
  1 active torsions:
  status: ('A' for Active; 'I' for Inactive)
    1  A    between atoms: C_20  and  N_29
                            x       y       z     vdW  Elec       q    Type
                         _______ _______ _______ _____ _____    ______ ____

>  <TORSDO>
F 1

$$$$
=
 OpenBabel11112416373D

 32 37  0  0  1  0  0  0  0  0999 V2000
  195.2960  175.2910  146.1370 C   0  0  0  0  0  2  0  0  0  0  0  0
  190.0660  175.5290  144.0310 C   0  0  1  0  0  3  0  0  0  0  0  0
  189.3980  173.2830  139.6300 C   0  0  0  0  0  2  0  0  0  0  0  0
  188.2240  174.1870  139.3860 C   0  0  0  0  0  3  0  0  0  0  0  0
  188.0250  176.8290  144.9190 C   0  0  0  0  0  0  0  0  0  0  0  0
  186.7780  177.3880  144.6570 C   0  0  0  0  0  0  0  0  0  0  0  0
  192.4880  175.9340  144.8310 C   0  0  2  0  0  3  0  0  0  0  0  0
  191.9640  174.2060  143.0290 C   0  0  0  0  0  2  0  0  0  0  0  0
  185.0030  177.8620  143.4620 N   0  0  0  0  0  0  0  0  0  0  0  0
  194.0800  174.0120  144.3150 C   0  0  0  0  0  2  0  0  0  0  0  0
  190.3000  173.7910  140.7210 C   0  0  0  0  0  3  0  0  0  0  0  0
  190.7840  175.1480  142.7290 C   0  0  1  0  0  3  0  0  0  0  0  0
  189.8550  174.6260  141.6700 C   0  0  0  0  0  0  0  0  0  0  0  0
  188.0000  176.0210  142.5960 C   0  0  0  0  0  0  0  0  0  0  0  0
  184.8700  178.3320  144.7250 C   0  0  0  0  0  3  0  0  0  0  0  0
  194.3720  176.4810  145.8750 C   0  0  0  0  0  2  0  0  0  0  0  0
  192.6220  174.4590  144.3920 C   0  0  1  0  0  3  0  0  0  0  0  0
  185.9570  178.0520  145.4960 N   0  0  0  0  0  0  0  0  0  0  0  0
  193.0370  176.1320  146.1040 O   0  0  0  0  0  0  0  0  0  0  0  0
  194.7040  173.9450  145.7070 C   0  0  1  0  0  3  0  0  0  0  0  0
  187.8170  175.0530  140.3130 C   0  0  0  0  0  3  0  0  0  0  0  0
  188.5480  175.2120  141.5420 N   0  0  0  0  0  0  0  0  0  0  0  0
  186.7670  176.5920  142.4220 N   0  0  0  0  0  0  0  0  0  0  0  0
  191.0280  176.4160  144.8380 C   0  0  0  0  0  2  0  0  0  0  0  0
  188.5640  176.8830  146.3120 C   0  0  0  0  0  1  0  0  0  0  0  0
  184.0330  177.9520  142.3850 C   0  0  0  0  0  1  0  0  0  0  0  0
  188.6980  176.1750  143.8400 C   0  0  0  0  0  0  0  0  0  0  0  0
  186.2020  177.2780  143.4410 C   0  0  0  0  0  0  0  0  0  0  0  0
  195.7490  172.9330  145.7360 N   0  0  0  0  0  2  0  0  0  0  0  0
  195.4650  171.5320  145.7600 C   0  0  0  0  0  0  0  0  0  0  0  0
  194.2750  171.1180  145.7810 O   0  0  0  0  0  0  0  0  0  0  0  0
  196.5840  170.5560  145.7660 C   0  0  0  0  0  1  0  0  0  0  0  0
  2 24  1  6  0  0  0
  3 11  1  0  0  0  0
  4  3  1  0  0  0  0
  4 21  2  0  0  0  0
  5 25  1  0  0  0  0
  6  5  1  0  0  0  0
  6 18  1  0  0  0  0
  7 24  1  1  0  0  0
  7 19  1  0  0  0  0
  9 15  1  0  0  0  0
 10 17  1  0  0  0  0
 10 20  1  0  0  0  0
 11 13  2  0  0  0  0
 12  8  1  1  0  0  0
 12  2  1  0  0  0  0
 13 12  1  0  0  0  0
 14 27  1  0  0  0  0
 15 18  2  0  0  0  0
 16 19  1  0  0  0  0
 16  1  1  0  0  0  0
 17  8  1  6  0  0  0
 17  7  1  0  0  0  0
 20 29  1  6  0  0  0
 20  1  1  0  0  0  0
 21 22  1  0  0  0  0
 22 13  1  0  0  0  0
 22 14  1  0  0  0  0
 23 14  2  0  0  0  0
 23 28  1  0  0  0  0
 26  9  1  0  0  0  0
 27  2  1  0  0  0  0
 27  5  2  0  0  0  0
 28  9  1  0  0  0  0
 28  6  2  0  0  0  0
 29 30  1  0  0  0  0
 30 32  1  0  0  0  0
 30 31  2  0  0  0  0
M  END
>  <MODEL>
3

>  <REMARK>
 VINA RESULT:      -8.2      2.821      5.213
  Name = 
  1 active torsions:
  status: ('A' for Active; 'I' for Inactive)
    1  A    between atoms: C_20  and  N_29
                            x       y       z     vdW  Elec       q    Type
                         _______ _______ _______ _____ _____    ______ ____

>  <TORSDO>
F 1

$$$$
=
 OpenBabel11112416373D

 32 37  0  0  1  0  0  0  0  0999 V2000
  185.3500  177.9420  144.9700 C   0  0  0  0  0  2  0  0  0  0  0  0
  190.1780  175.6520  143.1550 C   0  0  1  0  0  3  0  0  0  0  0  0
  189.7060  171.7950  140.0310 C   0  0  0  0  0  2  0  0  0  0  0  0
  191.0680  171.3270  140.4580 C   0  0  0  0  0  3  0  0  0  0  0  0
  192.5920  176.1780  143.8900 C   0  0  0  0  0  0  0  0  0  0  0  0
  193.9170  175.7620  143.9700 C   0  0  0  0  0  0  0  0  0  0  0  0
  188.0800  176.4330  144.4430 C   0  0  2  0  0  3  0  0  0  0  0  0
  187.8810  175.0140  142.3330 C   0  0  0  0  0  2  0  0  0  0  0  0
  195.6270  174.4330  143.6300 N   0  0  0  0  0  0  0  0  0  0  0  0
  185.9410  176.3850  143.0570 C   0  0  0  0  0  2  0  0  0  0  0  0
  189.1100  172.7870  140.9910 C   0  0  0  0  0  3  0  0  0  0  0  0
  189.2550  174.4830  142.7830 C   0  0  1  0  0  3  0  0  0  0  0  0
  189.8760  173.5250  141.8070 C   0  0  0  0  0  0  0  0  0  0  0  0
  192.1450  174.0750  142.6960 C   0  0  0  0  0  0  0  0  0  0  0  0
  196.0180  175.5650  144.2630 C   0  0  0  0  0  3  0  0  0  0  0  0
  186.5590  177.4050  145.7380 C   0  0  0  0  0  2  0  0  0  0  0  0
  187.4660  176.3170  143.0300 C   0  0  1  0  0  3  0  0  0  0  0  0
  194.9780  176.4160  144.4880 N   0  0  0  0  0  0  0  0  0  0  0  0
  187.7430  177.6560  145.0370 O   0  0  0  0  0  0  0  0  0  0  0  0
  185.4650  177.7820  143.4510 C   0  0  1  0  0  3  0  0  0  0  0  0
  191.8060  172.0390  141.3100 C   0  0  0  0  0  3  0  0  0  0  0  0
  191.2800  173.2320  141.9170 N   0  0  0  0  0  0  0  0  0  0  0  0
  193.4700  173.7430  142.8080 N   0  0  0  0  0  0  0  0  0  0  0  0
  189.6100  176.2900  144.4340 C   0  0  0  0  0  2  0  0  0  0  0  0
  192.2320  177.5480  144.3710 C   0  0  0  0  0  1  0  0  0  0  0  0
  196.4690  173.3280  143.2080 C   0  0  0  0  0  1  0  0  0  0  0  0
  191.6520  175.2830  143.2910 C   0  0  0  0  0  0  0  0  0  0  0  0
  194.3110  174.5770  143.4590 C   0  0  0  0  0  0  0  0  0  0  0  0
  184.1720  178.0570  142.8430 N   0  0  0  0  0  2  0  0  0  0  0  0
  184.0150  178.2910  141.4410 C   0  0  0  0  0  0  0  0  0  0  0  0
  185.0130  178.2900  140.6730 O   0  0  0  0  0  0  0  0  0  0  0  0
  182.6600  178.5430  140.8880 C   0  0  0  0  0  1  0  0  0  0  0  0
  1 16  1  0  0  0  0
  2 27  1  0  0  0  0
  2 24  1  1  0  0  0
  3  4  1  0  0  0  0
  3 11  1  0  0  0  0
  4 21  2  0  0  0  0
  5  6  1  0  0  0  0
  5 25  1  0  0  0  0
  6 18  1  0  0  0  0
  7 24  1  6  0  0  0
  7 19  1  0  0  0  0
  9 15  1  0  0  0  0
 10 20  1  0  0  0  0
 11 13  2  0  0  0  0
 12  8  1  6  0  0  0
 12  2  1  0  0  0  0
 13 22  1  0  0  0  0
 13 12  1  0  0  0  0
 14 23  2  0  0  0  0
 14 27  1  0  0  0  0
 15 18  2  0  0  0  0
 17  8  1  1  0  0  0
 17 10  1  0  0  0  0
 17  7  1  0  0  0  0
 19 16  1  0  0  0  0
 20 29  1  6  0  0  0
 20  1  1  0  0  0  0
 21 22  1  0  0  0  0
 22 14  1  0  0  0  0
 23 28  1  0  0  0  0
 26  9  1  0  0  0  0
 27  5  2  0  0  0  0
 28  9  1  0  0  0  0
 28  6  2  0  0  0  0
 30 29  1  0  0  0  0
 31 30  2  0  0  0  0
 32 30  1  0  0  0  0
M  END
>  <MODEL>
4

>  <REMARK>
 VINA RESULT:      -8.1      2.211      9.189
  Name = 
  1 active torsions:
  status: ('A' for Active; 'I' for Inactive)
    1  A    between atoms: C_20  and  N_29
                            x       y       z     vdW  Elec       q    Type
                         _______ _______ _______ _____ _____    ______ ____

>  <TORSDO>
F 1

$$$$
=
 OpenBabel11112416373D

 32 37  0  0  1  0  0  0  0  0999 V2000
  186.0280  177.1660  142.3020 C   0  0  0  0  0  2  0  0  0  0  0  0
  190.6230  174.1720  143.6360 C   0  0  1  0  0  3  0  0  0  0  0  0
  193.8590  176.4170  146.6930 C   0  0  0  0  0  2  0  0  0  0  0  0
  194.9410  175.5360  146.1380 C   0  0  0  0  0  3  0  0  0  0  0  0
  191.3910  171.8940  142.7080 C   0  0  0  0  0  0  0  0  0  0  0  0
  192.4330  170.9950  142.5030 C   0  0  0  0  0  0  0  0  0  0  0  0
  188.7740  175.6160  142.5540 C   0  0  2  0  0  3  0  0  0  0  0  0
  190.0170  176.4050  144.6380 C   0  0  0  0  0  2  0  0  0  0  0  0
  194.4800  170.2260  142.6610 N   0  0  0  0  0  0  0  0  0  0  0  0
  187.7880  177.3700  144.1180 C   0  0  0  0  0  2  0  0  0  0  0  0
  192.6400  176.4580  145.8120 C   0  0  0  0  0  3  0  0  0  0  0  0
  191.1570  175.5480  144.0580 C   0  0  1  0  0  3  0  0  0  0  0  0
  192.3610  175.4690  144.9520 C   0  0  0  0  0  0  0  0  0  0  0  0
  193.0230  173.3090  143.8840 C   0  0  0  0  0  0  0  0  0  0  0  0
  193.6810  169.3360  142.0260 C   0  0  0  0  0  3  0  0  0  0  0  0
  187.0660  176.4710  141.4190 C   0  0  0  0  0  2  0  0  0  0  0  0
  188.6460  176.1120  144.0110 C   0  0  1  0  0  3  0  0  0  0  0  0
  192.3990  169.7820  141.9120 N   0  0  0  0  0  0  0  0  0  0  0  0
  187.5200  175.2930  142.0210 O   0  0  0  0  0  0  0  0  0  0  0  0
  186.3260  177.0610  143.8010 C   0  0  1  0  0  3  0  0  0  0  0  0
  194.6660  174.5870  145.2430 C   0  0  0  0  0  3  0  0  0  0  0  0
  193.3370  174.4400  144.7140 N   0  0  0  0  0  0  0  0  0  0  0  0
  193.9910  172.3680  143.6500 N   0  0  0  0  0  0  0  0  0  0  0  0
  189.6990  174.3940  142.4260 C   0  0  0  0  0  2  0  0  0  0  0  0
  190.0080  171.5050  142.2940 C   0  0  0  0  0  1  0  0  0  0  0  0
  195.8880  170.0690  142.9820 C   0  0  0  0  0  1  0  0  0  0  0  0
  191.6990  173.1260  143.3630 C   0  0  0  0  0  0  0  0  0  0  0  0
  193.6800  171.2550  142.9490 C   0  0  0  0  0  0  0  0  0  0  0  0
  185.4550  177.9740  144.5250 N   0  0  0  0  0  2  0  0  0  0  0  0
  184.9320  177.6740  145.8210 C   0  0  0  0  0  0  0  0  0  0  0  0
  185.1910  176.5760  146.3820 O   0  0  0  0  0  0  0  0  0  0  0  0
  184.0670  178.6660  146.5110 C   0  0  0  0  0  1  0  0  0  0  0  0
  1 20  1  0  0  0  0
  2 24  1  6  0  0  0
  2 12  1  0  0  0  0
  4  3  1  0  0  0  0
  5 27  1  0  0  0  0
  6  5  2  0  0  0  0
  6 28  1  0  0  0  0
  7 24  1  1  0  0  0
  7 17  1  0  0  0  0
  9 28  1  0  0  0  0
  9 26  1  0  0  0  0
 11  3  1  0  0  0  0
 12  8  1  1  0  0  0
 12 13  1  0  0  0  0
 13 11  2  0  0  0  0
 14 22  1  0  0  0  0
 15  9  1  0  0  0  0
 16 19  1  0  0  0  0
 16  1  1  0  0  0  0
 17 10  1  6  0  0  0
 17  8  1  0  0  0  0
 18 15  2  0  0  0  0
 18  6  1  0  0  0  0
 19  7  1  0  0  0  0
 20 10  1  0  0  0  0
 20 29  1  1  0  0  0
 21  4  2  0  0  0  0
 22 13  1  0  0  0  0
 22 21  1  0  0  0  0
 23 14  1  0  0  0  0
 25  5  1  0  0  0  0
 27  2  1  0  0  0  0
 27 14  2  0  0  0  0
 28 23  2  0  0  0  0
 29 30  1  0  0  0  0
 30 31  2  0  0  0  0
 30 32  1  0  0  0  0
M  END
>  <MODEL>
5

>  <REMARK>
 VINA RESULT:      -8.1      2.904      8.945
  Name = 
  1 active torsions:
  status: ('A' for Active; 'I' for Inactive)
    1  A    between atoms: C_20  and  N_29
                            x       y       z     vdW  Elec       q    Type
                         _______ _______ _______ _____ _____    ______ ____

>  <TORSDO>
F 1

$$$$
=
 OpenBabel11112416373D

 32 37  0  0  1  0  0  0  0  0999 V2000
  186.7460  177.9260  144.9680 C   0  0  0  0  0  2  0  0  0  0  0  0
  191.2520  174.6110  144.2240 C   0  0  1  0  0  3  0  0  0  0  0  0
  190.4420  170.3900  141.6960 C   0  0  0  0  0  2  0  0  0  0  0  0
  191.6400  169.7930  142.3770 C   0  0  0  0  0  3  0  0  0  0  0  0
  193.6230  174.8650  145.2010 C   0  0  0  0  0  0  0  0  0  0  0  0
  194.8330  174.2630  145.5300 C   0  0  0  0  0  0  0  0  0  0  0  0
  189.1990  175.9310  145.0680 C   0  0  2  0  0  3  0  0  0  0  0  0
  188.9840  174.2130  143.1950 C   0  0  0  0  0  2  0  0  0  0  0  0
  196.3010  172.6390  145.6430 N   0  0  0  0  0  0  0  0  0  0  0  0
  187.2560  175.9830  143.4190 C   0  0  0  0  0  2  0  0  0  0  0  0
  189.9310  171.6180  142.3980 C   0  0  0  0  0  3  0  0  0  0  0  0
  190.1800  173.5580  143.9100 C   0  0  1  0  0  3  0  0  0  0  0  0
  190.7220  172.3560  143.1900 C   0  0  0  0  0  0  0  0  0  0  0  0
  192.9390  172.6830  144.2940 C   0  0  0  0  0  0  0  0  0  0  0  0
  196.8180  173.7870  146.1420 C   0  0  0  0  0  3  0  0  0  0  0  0
  187.7440  177.3470  145.9720 C   0  0  0  0  0  2  0  0  0  0  0  0
  188.7360  175.6680  143.6180 C   0  0  1  0  0  3  0  0  0  0  0  0
  195.9300  174.8190  146.0850 N   0  0  0  0  0  0  0  0  0  0  0  0
  189.0240  177.2770  145.4140 O   0  0  0  0  0  0  0  0  0  0  0  0
  187.0000  177.4850  143.5230 C   0  0  1  0  0  3  0  0  0  0  0  0
  192.3940  170.5160  143.2050 C   0  0  0  0  0  3  0  0  0  0  0  0
  192.0280  171.8660  143.5410 N   0  0  0  0  0  0  0  0  0  0  0  0
  194.1610  172.1690  144.6410 N   0  0  0  0  0  0  0  0  0  0  0  0
  190.6690  175.5460  145.2970 C   0  0  0  0  0  2  0  0  0  0  0  0
  193.4660  176.3370  145.4100 C   0  0  0  0  0  1  0  0  0  0  0  0
  196.9720  171.3570  145.5180 C   0  0  0  0  0  1  0  0  0  0  0  0
  192.6090  174.0410  144.6210 C   0  0  0  0  0  0  0  0  0  0  0  0
  195.0610  172.9590  145.2680 C   0  0  0  0  0  0  0  0  0  0  0  0
  185.8540  177.8520  142.7040 N   0  0  0  0  0  2  0  0  0  0  0  0
  185.9320  177.9730  141.2820 C   0  0  0  0  0  0  0  0  0  0  0  0
  187.0220  177.7870  140.6790 O   0  0  0  0  0  0  0  0  0  0  0  0
  184.7150  178.3300  140.5090 C   0  0  0  0  0  1  0  0  0  0  0  0
  1 16  1  0  0  0  0
  2 27  1  0  0  0  0
  2 24  1  1  0  0  0
  3  4  1  0  0  0  0
  3 11  1  0  0  0  0
  4 21  2  0  0  0  0
  5 25  1  0  0  0  0
  5  6  1  0  0  0  0
  6 18  1  0  0  0  0
  7 24  1  6  0  0  0
  7 19  1  0  0  0  0
  9 15  1  0  0  0  0
 10 20  1  0  0  0  0
 10 17  1  0  0  0  0
 11 13  2  0  0  0  0
 12  8  1  6  0  0  0
 12  2  1  0  0  0  0
 13 22  1  0  0  0  0
 13 12  1  0  0  0  0
 14 27  1  0  0  0  0
 14 23  2  0  0  0  0
 17  8  1  1  0  0  0
 17  7  1  0  0  0  0
 18 15  2  0  0  0  0
 19 16  1  0  0  0  0
 20 29  1  6  0  0  0
 20  1  1  0  0  0  0
 21 22  1  0  0  0  0
 22 14  1  0  0  0  0
 23 28  1  0  0  0  0
 26  9  1  0  0  0  0
 27  5  2  0  0  0  0
 28  6  2  0  0  0  0
 28  9  1  0  0  0  0
 30 29  1  0  0  0  0
 31 30  2  0  0  0  0
 32 30  1  0  0  0  0
M  END
>  <MODEL>
6

>  <REMARK>
 VINA RESULT:      -8.0      2.745      9.597
  Name = 
  1 active torsions:
  status: ('A' for Active; 'I' for Inactive)
    1  A    between atoms: C_20  and  N_29
                            x       y       z     vdW  Elec       q    Type
                         _______ _______ _______ _____ _____    ______ ____

>  <TORSDO>
F 1

$$$$
=
 OpenBabel11112416373D

 32 37  0  0  1  0  0  0  0  0999 V2000
  185.1270  178.1250  140.5030 C   0  0  0  0  0  2  0  0  0  0  0  0
  188.9020  175.3700  143.6680 C   0  0  1  0  0  3  0  0  0  0  0  0
  190.0740  177.5260  148.0090 C   0  0  0  0  0  2  0  0  0  0  0  0
  191.3850  176.7930  147.9790 C   0  0  0  0  0  3  0  0  0  0  0  0
  190.2730  173.2680  143.0830 C   0  0  0  0  0  0  0  0  0  0  0  0
  191.3890  172.4780  143.3420 C   0  0  0  0  0  0  0  0  0  0  0  0
  187.6070  176.7740  141.9280 C   0  0  2  0  0  3  0  0  0  0  0  0
  187.6450  177.4330  144.3920 C   0  0  0  0  0  2  0  0  0  0  0  0
  193.2060  171.8570  144.3990 N   0  0  0  0  0  0  0  0  0  0  0  0
  185.8120  178.2720  142.9420 C   0  0  0  0  0  2  0  0  0  0  0  0
  189.4040  177.5640  146.6630 C   0  0  0  0  0  3  0  0  0  0  0  0
  189.0160  176.7320  144.3690 C   0  0  1  0  0  3  0  0  0  0  0  0
  189.6710  176.6520  145.7180 C   0  0  0  0  0  0  0  0  0  0  0  0
  190.9990  174.6740  144.9660 C   0  0  0  0  0  0  0  0  0  0  0  0
  192.9010  170.9790  143.4140 C   0  0  0  0  0  3  0  0  0  0  0  0
  186.5290  177.6080  140.1740 C   0  0  0  0  0  2  0  0  0  0  0  0
  186.7640  177.1030  143.1800 C   0  0  1  0  0  3  0  0  0  0  0  0
  191.7740  171.3350  142.7370 N   0  0  0  0  0  0  0  0  0  0  0  0
  186.7880  176.4120  140.8510 O   0  0  0  0  0  0  0  0  0  0  0  0
  184.7100  177.8870  141.9580 C   0  0  1  0  0  3  0  0  0  0  0  0
  191.6670  175.9250  147.0080 C   0  0  0  0  0  3  0  0  0  0  0  0
  190.7600  175.7320  145.9090 N   0  0  0  0  0  0  0  0  0  0  0  0
  192.0690  173.8400  145.1610 N   0  0  0  0  0  0  0  0  0  0  0  0
  188.6220  175.6460  142.1810 C   0  0  0  0  0  2  0  0  0  0  0  0
  189.2930  172.8190  142.0470 C   0  0  0  0  0  1  0  0  0  0  0  0
  194.3140  171.7760  145.3350 C   0  0  0  0  0  1  0  0  0  0  0  0
  190.0960  174.4450  143.8750 C   0  0  0  0  0  0  0  0  0  0  0  0
  192.2490  172.7850  144.3350 C   0  0  0  0  0  0  0  0  0  0  0  0
  183.5030  178.6500  142.2380 N   0  0  0  0  0  2  0  0  0  0  0  0
  182.2680  178.4150  141.5570 C   0  0  0  0  0  0  0  0  0  0  0  0
  182.1870  177.5390  140.6550 O   0  0  0  0  0  0  0  0  0  0  0  0
  181.0710  179.2180  141.9120 C   0  0  0  0  0  1  0  0  0  0  0  0
  1 20  1  0  0  0  0
  2 24  1  6  0  0  0
  2 27  1  0  0  0  0
  2 12  1  0  0  0  0
  4  3  1  0  0  0  0
  5  6  2  0  0  0  0
  5 27  1  0  0  0  0
  6 28  1  0  0  0  0
  7 24  1  1  0  0  0
  7 17  1  0  0  0  0
  9 26  1  0  0  0  0
 11  3  1  0  0  0  0
 12  8  1  1  0  0  0
 12 13  1  0  0  0  0
 13 22  1  0  0  0  0
 13 11  2  0  0  0  0
 14 23  1  0  0  0  0
 14 22  1  0  0  0  0
 15  9  1  0  0  0  0
 16  1  1  0  0  0  0
 16 19  1  0  0  0  0
 17 10  1  6  0  0  0
 17  8  1  0  0  0  0
 18  6  1  0  0  0  0
 18 15  2  0  0  0  0
 19  7  1  0  0  0  0
 20 29  1  1  0  0  0
 20 10  1  0  0  0  0
 21  4  2  0  0  0  0
 22 21  1  0  0  0  0
 25  5  1  0  0  0  0
 27 14  2  0  0  0  0
 28  9  1  0  0  0  0
 28 23  2  0  0  0  0
 30 32  1  0  0  0  0
 30 29  1  0  0  0  0
 31 30  2  0  0  0  0
M  END
>  <MODEL>
7

>  <REMARK>
 VINA RESULT:      -8.0      2.696      8.338
  Name = 
  1 active torsions:
  status: ('A' for Active; 'I' for Inactive)
    1  A    between atoms: C_20  and  N_29
                            x       y       z     vdW  Elec       q    Type
                         _______ _______ _______ _____ _____    ______ ____

>  <TORSDO>
F 1

$$$$
=
 OpenBabel11112416373D

 32 37  0  0  1  0  0  0  0  0999 V2000
  191.3070  171.9580  139.2310 C   0  0  0  0  0  2  0  0  0  0  0  0
  189.4800  175.5230  143.2070 C   0  0  1  0  0  3  0  0  0  0  0  0
  192.6120  176.3220  147.0030 C   0  0  0  0  0  2  0  0  0  0  0  0
  191.4310  176.6970  147.8530 C   0  0  0  0  0  3  0  0  0  0  0  0
  187.1620  176.6230  143.4480 C   0  0  0  0  0  0  0  0  0  0  0  0
  186.2330  177.2450  144.2760 C   0  0  0  0  0  0  0  0  0  0  0  0
  189.9760  173.5440  141.6220 C   0  0  2  0  0  3  0  0  0  0  0  0
  191.7940  174.5230  143.1200 C   0  0  0  0  0  2  0  0  0  0  0  0
  185.4740  178.1270  146.1330 N   0  0  0  0  0  0  0  0  0  0  0  0
  192.4510  173.2340  141.1010 C   0  0  0  0  0  2  0  0  0  0  0  0
  192.2150  175.5640  145.7670 C   0  0  0  0  0  3  0  0  0  0  0  0
  190.6010  174.8700  144.0290 C   0  0  1  0  0  3  0  0  0  0  0  0
  190.9850  175.6640  145.2440 C   0  0  0  0  0  0  0  0  0  0  0  0
  188.6620  176.5720  145.3970 C   0  0  0  0  0  0  0  0  0  0  0  0
  184.5660  178.2540  145.1360 C   0  0  0  0  0  3  0  0  0  0  0  0
  190.0180  171.9710  140.0540 C   0  0  0  0  0  2  0  0  0  0  0  0
  191.3890  174.1630  141.6830 C   0  0  1  0  0  3  0  0  0  0  0  0
  185.0080  177.7180  143.9650 N   0  0  0  0  0  0  0  0  0  0  0  0
  189.5990  173.2820  140.2990 O   0  0  0  0  0  0  0  0  0  0  0  0
  192.2780  173.0870  139.5910 C   0  0  1  0  0  3  0  0  0  0  0  0
  190.2020  176.7460  147.3410 C   0  0  0  0  0  3  0  0  0  0  0  0
  189.9570  176.3510  145.9800 N   0  0  0  0  0  0  0  0  0  0  0  0
  187.6960  177.1970  146.1420 N   0  0  0  0  0  0  0  0  0  0  0  0
  188.9100  174.4400  142.2750 C   0  0  0  0  0  2  0  0  0  0  0  0
  186.8520  176.4760  141.9930 C   0  0  0  0  0  1  0  0  0  0  0  0
  185.3520  178.6080  147.4980 C   0  0  0  0  0  1  0  0  0  0  0  0
  188.3990  176.2090  144.0340 C   0  0  0  0  0  0  0  0  0  0  0  0
  186.5060  177.4930  145.5740 C   0  0  0  0  0  0  0  0  0  0  0  0
  193.5650  172.8260  138.9650 N   0  0  0  0  0  2  0  0  0  0  0  0
  194.3800  173.8650  138.4170 C   0  0  0  0  0  0  0  0  0  0  0  0
  193.9920  175.0640  138.4350 O   0  0  0  0  0  0  0  0  0  0  0  0
  195.6940  173.5260  137.8140 C   0  0  0  0  0  1  0  0  0  0  0  0
  1 20  1  0  0  0  0
  1 16  1  0  0  0  0
  2 24  1  1  0  0  0
  2 12  1  0  0  0  0
  2 27  1  0  0  0  0
  3  4  1  0  0  0  0
  5 27  2  0  0  0  0
  5  6  1  0  0  0  0
  6 28  2  0  0  0  0
  7 17  1  0  0  0  0
  7 24  1  6  0  0  0
  9 26  1  0  0  0  0
 11  3  1  0  0  0  0
 12  8  1  6  0  0  0
 12 13  1  0  0  0  0
 13 11  2  0  0  0  0
 13 22  1  0  0  0  0
 14 22  1  0  0  0  0
 14 23  2  0  0  0  0
 15  9  1  0  0  0  0
 16 19  1  0  0  0  0
 17 10  1  1  0  0  0
 17  8  1  0  0  0  0
 18  6  1  0  0  0  0
 18 15  2  0  0  0  0
 19  7  1  0  0  0  0
 20 29  1  6  0  0  0
 20 10  1  0  0  0  0
 21  4  2  0  0  0  0
 22 21  1  0  0  0  0
 25  5  1  0  0  0  0
 27 14  1  0  0  0  0
 28  9  1  0  0  0  0
 28 23  1  0  0  0  0
 30 31  2  0  0  0  0
 30 29  1  0  0  0  0
 32 30  1  0  0  0  0
M  END
>  <MODEL>
8

>  <REMARK>
 VINA RESULT:      -8.0      2.599      4.436
  Name = 
  1 active torsions:
  status: ('A' for Active; 'I' for Inactive)
    1  A    between atoms: C_20  and  N_29
                            x       y       z     vdW  Elec       q    Type
                         _______ _______ _______ _____ _____    ______ ____

>  <TORSDO>
F 1

$$$$
=
 OpenBabel11112416373D

 32 37  0  0  1  0  0  0  0  0999 V2000
  185.9200  178.6210  142.5900 C   0  0  0  0  0  2  0  0  0  0  0  0
  189.4410  174.2280  142.1950 C   0  0  1  0  0  3  0  0  0  0  0  0
  193.0010  173.9850  145.6770 C   0  0  0  0  0  2  0  0  0  0  0  0
  193.8290  173.1690  144.7250 C   0  0  0  0  0  3  0  0  0  0  0  0
  189.6040  172.4510  140.3350 C   0  0  0  0  0  0  0  0  0  0  0  0
  190.3690  171.4820  139.6940 C   0  0  0  0  0  0  0  0  0  0  0  0
  188.1190  176.4350  141.9640 C   0  0  2  0  0  3  0  0  0  0  0  0
  189.4180  175.8900  144.0910 C   0  0  0  0  0  2  0  0  0  0  0  0
  192.1160  170.1990  139.3640 N   0  0  0  0  0  0  0  0  0  0  0  0
  187.5690  177.5460  144.1910 C   0  0  0  0  0  2  0  0  0  0  0  0
  191.8890  174.7250  144.9860 C   0  0  0  0  0  3  0  0  0  0  0  0
  190.3080  175.0910  143.1220 C   0  0  1  0  0  3  0  0  0  0  0  0
  191.3950  174.3150  143.8100 C   0  0  0  0  0  0  0  0  0  0  0  0
  191.4960  172.7290  141.8810 C   0  0  0  0  0  0  0  0  0  0  0  0
  191.1390  169.9180  138.4690 C   0  0  0  0  0  3  0  0  0  0  0  0
  186.7730  178.1180  141.4240 C   0  0  0  0  0  2  0  0  0  0  0  0
  188.0550  176.2750  143.4990 C   0  0  1  0  0  3  0  0  0  0  0  0
  190.0360  170.6970  138.6480 N   0  0  0  0  0  0  0  0  0  0  0  0
  186.8550  176.7220  141.4350 O   0  0  0  0  0  0  0  0  0  0  0  0
  186.0980  177.8090  143.8770 C   0  0  1  0  0  3  0  0  0  0  0  0
  193.3520  172.8070  143.5330 C   0  0  0  0  0  3  0  0  0  0  0  0
  192.0640  173.2660  143.0880 N   0  0  0  0  0  0  0  0  0  0  0  0
  192.1800  171.7560  141.2010 N   0  0  0  0  0  0  0  0  0  0  0  0
  188.6790  175.1860  141.2640 C   0  0  0  0  0  2  0  0  0  0  0  0
  188.1910  172.6660  139.8950 C   0  0  0  0  0  1  0  0  0  0  0  0
  193.4070  169.5470  139.4860 C   0  0  0  0  0  1  0  0  0  0  0  0
  190.2020  173.1510  141.4280 C   0  0  0  0  0  0  0  0  0  0  0  0
  191.6140  171.1790  140.1180 C   0  0  0  0  0  0  0  0  0  0  0  0
  185.4740  178.5220  144.9810 N   0  0  0  0  0  2  0  0  0  0  0  0
  185.0510  177.8690  146.1800 C   0  0  0  0  0  0  0  0  0  0  0  0
  185.1840  176.6230  146.3150 O   0  0  0  0  0  0  0  0  0  0  0  0
  184.4410  178.6660  147.2750 C   0  0  0  0  0  1  0  0  0  0  0  0
  1 20  1  0  0  0  0
  2 24  1  6  0  0  0
  2 12  1  0  0  0  0
  4  3  1  0  0  0  0
  5 27  1  0  0  0  0
  6 28  1  0  0  0  0
  6  5  2  0  0  0  0
  7 24  1  6  0  0  0
  7 17  1  0  0  0  0
  9 26  1  0  0  0  0
  9 28  1  0  0  0  0
 11  3  1  0  0  0  0
 12 13  1  0  0  0  0
 12  8  1  1  0  0  0
 13 11  2  0  0  0  0
 14 22  1  0  0  0  0
 15 18  2  0  0  0  0
 15  9  1  0  0  0  0
 16 19  1  0  0  0  0
 16  1  1  0  0  0  0
 17  8  1  1  0  0  0
 17 10  1  0  0  0  0
 18  6  1  0  0  0  0
 19  7  1  0  0  0  0
 20 10  1  0  0  0  0
 20 29  1  1  0  0  0
 21  4  2  0  0  0  0
 22 21  1  0  0  0  0
 22 13  1  0  0  0  0
 23 14  1  0  0  0  0
 25  5  1  0  0  0  0
 27 14  2  0  0  0  0
 27  2  1  0  0  0  0
 28 23  2  0  0  0  0
 29 30  1  0  0  0  0
 30 31  2  0  0  0  0
 30 32  1  0  0  0  0
M  END
>  <MODEL>
9

>  <REMARK>
 VINA RESULT:      -7.8      3.374      8.393
  Name = 
  1 active torsions:
  status: ('A' for Active; 'I' for Inactive)
    1  A    between atoms: C_20  and  N_29
                            x       y       z     vdW  Elec       q    Type
                         _______ _______ _______ _____ _____    ______ ____

>  <TORSDO>
F 1

$$$$
