=
 OpenBabel11112417393D

 28 32  0  0  1  0  0  0  0  0999 V2000
  190.3800  175.9280  145.0160 C   0  0  0  0  0  0  0  0  0  0  0  0
  185.4140  176.3880  145.7650 F   0  0  0  0  0  0  0  0  0  0  0  0
  188.9240  175.0180  140.5490 O   0  0  0  0  0  0  0  0  0  0  0  0
  191.1870  178.2910  143.7450 C   0  0  0  0  0  3  0  0  0  0  0  0
  187.1830  176.4160  141.4130 C   0  0  0  0  0  0  0  0  0  0  0  0
  189.9730  174.6220  145.6260 C   0  0  0  0  0  2  0  0  0  0  0  0
  186.3500  178.1440  147.0290 C   0  0  0  0  0  1  0  0  0  0  0  0
  185.8860  177.6880  145.6600 C   0  0  1  0  0  0  0  0  0  0  0  0
  184.4730  178.2910  143.7600 C   0  0  1  0  0  3  0  0  0  0  0  0
  187.0700  177.7860  144.6660 C   0  0  2  0  0  3  0  0  0  0  0  0
  190.9390  174.2050  142.6070 O   0  0  0  0  0  1  0  0  0  0  0  0
  187.3060  175.6060  143.6520 C   0  0  1  0  0  3  0  0  0  0  0  0
  185.5840  178.7150  143.0060 O   0  0  0  0  0  0  0  0  0  0  0  0
  184.7400  178.5740  145.2200 C   0  0  0  0  0  2  0  0  0  0  0  0
  190.1470  173.3470  143.3750 C   0  0  2  0  0  3  0  0  0  0  0  0
  189.4070  176.8270  144.5330 C   0  0  0  0  0  0  0  0  0  0  0  0
  188.2180  175.4260  141.5090 C   0  0  0  0  0  0  0  0  0  0  0  0
  183.2440  179.0540  143.3150 C   0  0  0  0  0  1  0  0  0  0  0  0
  188.6540  173.5200  143.0870 C   0  0  0  0  0  2  0  0  0  0  0  0
  189.8290  177.9970  143.8790 C   0  0  0  0  0  3  0  0  0  0  0  0
  191.7410  176.2380  144.8950 C   0  0  0  0  0  3  0  0  0  0  0  0
  192.1440  177.4170  144.2630 C   0  0  0  0  0  3  0  0  0  0  0  0
  190.5200  173.4130  144.8600 C   0  0  0  0  0  2  0  0  0  0  0  0
  186.4950  176.5440  142.7240 C   0  0  1  0  0  3  0  0  0  0  0  0
  188.2980  174.9100  142.8260 N   0  0  0  0  0  0  0  0  0  0  0  0
  186.6620  177.8970  143.2520 N   0  0  2  0  0  0  0  0  0  0  0  0
  186.8800  177.0480  140.3670 O   0  0  0  0  0  0  0  0  0  0  0  0
  187.9280  176.5250  144.7210 C   0  0  1  0  0  3  0  0  0  0  0  0
  1  6  1  0  0  0  0
  3 17  2  0  0  0  0
  4 20  2  0  0  0  0
  4 22  1  0  0  0  0
  5 17  1  0  0  0  0
  5 24  1  0  0  0  0
  8  2  1  0  0  0  0
  8  7  1  1  0  0  0
  9 18  1  6  0  0  0
  9 14  1  0  0  0  0
 10 28  1  0  0  0  0
 10  8  1  0  0  0  0
 11 15  1  0  0  0  0
 12 28  1  0  0  0  0
 13 26  1  0  0  0  0
 13  9  1  0  0  0  0
 14  8  1  0  0  0  0
 15 23  1  0  0  0  0
 16 28  1  0  0  0  0
 16  1  2  0  0  0  0
 17 25  1  0  0  0  0
 19 15  1  0  0  0  0
 20 16  1  0  0  0  0
 21  1  1  0  0  0  0
 22 21  2  0  0  0  0
 23  6  1  0  0  0  0
 24 26  1  0  0  0  0
 24 12  1  0  0  0  0
 25 19  1  0  0  0  0
 25 12  1  0  0  0  0
 26 10  1  0  0  0  0
 27  5  2  0  0  0  0
M  END
>  <MODEL>
1

>  <REMARK>
 VINA RESULT:      -8.6      0.000      0.000
  Name = 
  0 active torsions:
  status: ('A' for Active; 'I' for Inactive)
                            x       y       z     vdW  Elec       q    Type
                         _______ _______ _______ _____ _____    ______ ____

>  <TORSDO>
F 0

$$$$
=
 OpenBabel11112417393D

 28 32  0  0  1  0  0  0  0  0999 V2000
  189.3740  177.0210  145.1790 C   0  0  0  0  0  0  0  0  0  0  0  0
  194.2880  176.3160  144.2910 F   0  0  0  0  0  0  0  0  0  0  0  0
  189.0500  172.9120  142.7480 O   0  0  0  0  0  0  0  0  0  0  0  0
  188.7110  175.2690  147.2630 C   0  0  0  0  0  3  0  0  0  0  0  0
  191.2310  172.7930  143.7260 C   0  0  0  0  0  0  0  0  0  0  0  0
  189.6740  177.9160  144.0170 C   0  0  0  0  0  2  0  0  0  0  0  0
  194.2130  177.1020  146.5130 C   0  0  0  0  0  1  0  0  0  0  0  0
  194.0940  175.8990  145.5990 C   0  0  1  0  0  0  0  0  0  0  0  0
  194.8940  173.6200  145.2330 C   0  0  1  0  0  3  0  0  0  0  0  0
  192.6970  175.2560  145.7910 C   0  0  2  0  0  3  0  0  0  0  0  0
  187.7020  175.5550  143.1460 O   0  0  0  0  0  1  0  0  0  0  0  0
  191.6850  175.1300  143.6000 C   0  0  1  0  0  3  0  0  0  0  0  0
  193.7130  173.0670  145.7630 O   0  0  0  0  0  0  0  0  0  0  0  0
  195.1900  174.9160  145.9510 C   0  0  0  0  0  2  0  0  0  0  0  0
  188.5030  176.3450  142.3170 C   0  0  2  0  0  3  0  0  0  0  0  0
  190.3000  176.0380  145.5840 C   0  0  0  0  0  0  0  0  0  0  0  0
  190.1030  173.4710  143.1570 C   0  0  0  0  0  0  0  0  0  0  0  0
  196.0400  172.6540  145.4460 C   0  0  0  0  0  1  0  0  0  0  0  0
  189.8180  175.6560  141.9490 C   0  0  0  0  0  2  0  0  0  0  0  0
  189.9430  175.1530  146.6170 C   0  0  0  0  0  3  0  0  0  0  0  0
  188.1470  177.1430  145.8460 C   0  0  0  0  0  3  0  0  0  0  0  0
  187.8170  176.2710  146.8850 C   0  0  0  0  0  3  0  0  0  0  0  0
  188.6630  177.7640  142.8750 C   0  0  0  0  0  2  0  0  0  0  0  0
  192.3250  173.7700  143.9750 C   0  0  1  0  0  3  0  0  0  0  0  0
  190.3540  174.8610  143.0490 N   0  0  0  0  0  0  0  0  0  0  0  0
  192.6300  173.8340  145.4040 N   0  0  2  0  0  0  0  0  0  0  0  0
  191.3000  171.5550  143.9440 O   0  0  0  0  0  0  0  0  0  0  0  0
  191.6590  175.9450  144.9090 C   0  0  1  0  0  3  0  0  0  0  0  0
  1 16  2  0  0  0  0
  1 21  1  0  0  0  0
  2  8  1  0  0  0  0
  3 17  2  0  0  0  0
  5 27  2  0  0  0  0
  5 24  1  0  0  0  0
  6  1  1  0  0  0  0
  8 10  1  0  0  0  0
  8 14  1  0  0  0  0
  8  7  1  1  0  0  0
  9 18  1  1  0  0  0
  9 13  1  0  0  0  0
  9 14  1  0  0  0  0
 12 24  1  0  0  0  0
 12 28  1  0  0  0  0
 15 23  1  0  0  0  0
 15 11  1  0  0  0  0
 16 20  1  0  0  0  0
 17  5  1  0  0  0  0
 19 15  1  0  0  0  0
 19 25  1  0  0  0  0
 20  4  2  0  0  0  0
 21 22  2  0  0  0  0
 22  4  1  0  0  0  0
 23  6  1  0  0  0  0
 24 26  1  0  0  0  0
 25 17  1  0  0  0  0
 25 12  1  0  0  0  0
 26 13  1  0  0  0  0
 26 10  1  0  0  0  0
 28 16  1  0  0  0  0
 28 10  1  0  0  0  0
M  END
>  <MODEL>
2

>  <REMARK>
 VINA RESULT:      -8.4      3.069      6.658
  Name = 
  0 active torsions:
  status: ('A' for Active; 'I' for Inactive)
                            x       y       z     vdW  Elec       q    Type
                         _______ _______ _______ _____ _____    ______ ____

>  <TORSDO>
F 0

$$$$
=
 OpenBabel11112417393D

 28 32  0  0  1  0  0  0  0  0999 V2000
  190.6210  174.4800  143.8510 C   0  0  0  0  0  0  0  0  0  0  0  0
  186.2400  176.2400  145.6240 F   0  0  0  0  0  0  0  0  0  0  0  0
  188.3130  174.9080  139.6810 O   0  0  0  0  0  0  0  0  0  0  0  0
  191.9590  176.6940  142.7750 C   0  0  0  0  0  3  0  0  0  0  0  0
  187.2680  176.5680  141.0520 C   0  0  0  0  0  0  0  0  0  0  0  0
  189.9050  173.2630  144.3490 C   0  0  0  0  0  2  0  0  0  0  0  0
  187.8700  177.3660  146.9020 C   0  0  0  0  0  1  0  0  0  0  0  0
  187.0880  177.3360  145.6040 C   0  0  1  0  0  0  0  0  0  0  0  0
  185.6880  178.6800  144.1200 C   0  0  1  0  0  3  0  0  0  0  0  0
  188.0820  177.2660  144.4170 C   0  0  2  0  0  3  0  0  0  0  0  0
  190.2320  173.1590  141.1710 O   0  0  0  0  0  1  0  0  0  0  0  0
  187.4460  175.3480  143.0930 C   0  0  1  0  0  3  0  0  0  0  0  0
  186.7540  178.8910  143.2240 O   0  0  0  0  0  0  0  0  0  0  0  0
  186.2430  178.5890  145.5220 C   0  0  0  0  0  2  0  0  0  0  0  0
  189.3240  172.4440  141.9570 C   0  0  2  0  0  3  0  0  0  0  0  0
  189.9340  175.7010  143.6960 C   0  0  0  0  0  0  0  0  0  0  0  0
  187.9260  175.3160  140.8080 C   0  0  0  0  0  0  0  0  0  0  0  0
  184.7240  179.8430  144.0340 C   0  0  0  0  0  1  0  0  0  0  0  0
  187.9440  173.1030  141.9970 C   0  0  0  0  0  2  0  0  0  0  0  0
  190.6130  176.7960  143.1350 C   0  0  0  0  0  3  0  0  0  0  0  0
  191.9760  174.3900  143.5060 C   0  0  0  0  0  3  0  0  0  0  0  0
  192.6430  175.4940  142.9710 C   0  0  0  0  0  3  0  0  0  0  0  0
  189.9110  172.1140  143.3350 C   0  0  0  0  0  2  0  0  0  0  0  0
  186.8570  176.6430  142.4790 C   0  0  1  0  0  3  0  0  0  0  0  0
  188.0260  174.5600  142.0010 N   0  0  0  0  0  0  0  0  0  0  0  0
  187.5310  177.7600  143.1400 N   0  0  2  0  0  0  0  0  0  0  0  0
  187.0380  177.4480  140.1820 O   0  0  0  0  0  0  0  0  0  0  0  0
  188.4820  175.8210  144.1310 C   0  0  1  0  0  3  0  0  0  0  0  0
  1  6  1  0  0  0  0
  3 17  2  0  0  0  0
  4 22  2  0  0  0  0
  4 20  1  0  0  0  0
  5 24  1  0  0  0  0
  8  2  1  0  0  0  0
  8  7  1  1  0  0  0
  9 18  1  1  0  0  0
  9 14  1  0  0  0  0
 10  8  1  0  0  0  0
 11 15  1  0  0  0  0
 12 28  1  0  0  0  0
 13  9  1  0  0  0  0
 14  8  1  0  0  0  0
 15 19  1  0  0  0  0
 15 23  1  0  0  0  0
 16  1  1  0  0  0  0
 16 28  1  0  0  0  0
 17  5  1  0  0  0  0
 17 25  1  0  0  0  0
 19 25  1  0  0  0  0
 20 16  2  0  0  0  0
 21  1  2  0  0  0  0
 22 21  1  0  0  0  0
 23  6  1  0  0  0  0
 24 12  1  0  0  0  0
 24 26  1  0  0  0  0
 25 12  1  0  0  0  0
 26 13  1  0  0  0  0
 26 10  1  0  0  0  0
 27  5  2  0  0  0  0
 28 10  1  0  0  0  0
M  END
>  <MODEL>
3

>  <REMARK>
 VINA RESULT:      -8.3      1.294      1.480
  Name = 
  0 active torsions:
  status: ('A' for Active; 'I' for Inactive)
                            x       y       z     vdW  Elec       q    Type
                         _______ _______ _______ _____ _____    ______ ____

>  <TORSDO>
F 0

$$$$
=
 OpenBabel11112417393D

 28 32  0  0  1  0  0  0  0  0999 V2000
  190.8710  174.0620  142.8640 C   0  0  0  0  0  0  0  0  0  0  0  0
  188.0260  178.0920  143.9120 F   0  0  0  0  0  0  0  0  0  0  0  0
  193.2870  175.6340  146.6840 O   0  0  0  0  0  0  0  0  0  0  0  0
  190.1530  172.1070  144.7380 C   0  0  0  0  0  3  0  0  0  0  0  0
  191.0640  176.4250  147.0850 C   0  0  0  0  0  0  0  0  0  0  0  0
  191.3330  175.1060  141.8940 C   0  0  0  0  0  2  0  0  0  0  0  0
  186.4650  176.4230  143.3330 C   0  0  0  0  0  1  0  0  0  0  0  0
  187.3280  177.0120  144.4310 C   0  0  1  0  0  0  0  0  0  0  0  0
  187.2930  177.8460  146.7270 C   0  0  1  0  0  3  0  0  0  0  0  0
  188.2860  175.9170  144.9630 C   0  0  2  0  0  3  0  0  0  0  0  0
  193.6490  174.3990  143.9810 O   0  0  0  0  0  1  0  0  0  0  0  0
  190.5240  176.8120  144.7950 C   0  0  1  0  0  3  0  0  0  0  0  0
  187.8530  176.6530  147.2210 O   0  0  0  0  0  0  0  0  0  0  0  0
  186.4240  177.5180  145.5350 C   0  0  0  0  0  2  0  0  0  0  0  0
  193.5360  175.5450  143.1900 C   0  0  2  0  0  3  0  0  0  0  0  0
  190.0540  174.4130  143.9580 C   0  0  0  0  0  0  0  0  0  0  0  0
  192.1790  176.0570  146.2590 C   0  0  0  0  0  0  0  0  0  0  0  0
  186.4460  178.4860  147.8060 C   0  0  0  0  0  1  0  0  0  0  0  0
  192.9270  176.7230  143.9550 C   0  0  0  0  0  2  0  0  0  0  0  0
  189.7200  173.4250  144.9000 C   0  0  0  0  0  3  0  0  0  0  0  0
  191.2850  172.7340  142.6970 C   0  0  0  0  0  3  0  0  0  0  0  0
  190.9270  171.7590  143.6300 C   0  0  0  0  0  3  0  0  0  0  0  0
  192.8590  175.2400  141.8490 C   0  0  0  0  0  2  0  0  0  0  0  0
  189.9820  176.9900  146.2350 C   0  0  1  0  0  3  0  0  0  0  0  0
  191.8940  176.2980  144.8930 N   0  0  0  0  0  0  0  0  0  0  0  0
  188.7800  176.1620  146.3310 N   0  0  2  0  0  0  0  0  0  0  0  0
  191.0250  176.3230  148.3390 O   0  0  0  0  0  0  0  0  0  0  0  0
  189.5470  175.8380  144.1070 C   0  0  1  0  0  3  0  0  0  0  0  0
  1 16  1  0  0  0  0
  2  8  1  0  0  0  0
  4 20  1  0  0  0  0
  5 27  2  0  0  0  0
  6  1  1  0  0  0  0
  8  7  1  6  0  0  0
  8 10  1  0  0  0  0
  8 14  1  0  0  0  0
  9 13  1  0  0  0  0
  9 18  1  1  0  0  0
 10 26  1  0  0  0  0
 12 25  1  0  0  0  0
 12 24  1  0  0  0  0
 14  9  1  0  0  0  0
 15 19  1  0  0  0  0
 15 11  1  0  0  0  0
 16 28  1  0  0  0  0
 16 20  2  0  0  0  0
 17  3  2  0  0  0  0
 17  5  1  0  0  0  0
 19 25  1  0  0  0  0
 21  1  2  0  0  0  0
 21 22  1  0  0  0  0
 22  4  2  0  0  0  0
 23  6  1  0  0  0  0
 23 15  1  0  0  0  0
 24 26  1  0  0  0  0
 24  5  1  0  0  0  0
 25 17  1  0  0  0  0
 26 13  1  0  0  0  0
 28 12  1  0  0  0  0
 28 10  1  0  0  0  0
M  END
>  <MODEL>
4

>  <REMARK>
 VINA RESULT:      -7.9      2.847      4.768
  Name = 
  0 active torsions:
  status: ('A' for Active; 'I' for Inactive)
                            x       y       z     vdW  Elec       q    Type
                         _______ _______ _______ _____ _____    ______ ____

>  <TORSDO>
F 0

$$$$
=
 OpenBabel11112417393D

 28 32  0  0  1  0  0  0  0  0999 V2000
  191.5200  174.0030  142.8950 C   0  0  0  0  0  0  0  0  0  0  0  0
  188.8250  178.1080  141.7510 F   0  0  0  0  0  0  0  0  0  0  0  0
  192.0800  176.3630  147.0190 O   0  0  0  0  0  0  0  0  0  0  0  0
  189.8910  172.4570  144.5700 C   0  0  0  0  0  3  0  0  0  0  0  0
  189.9810  177.1790  146.2080 C   0  0  0  0  0  0  0  0  0  0  0  0
  192.4450  174.8350  142.0630 C   0  0  0  0  0  2  0  0  0  0  0  0
  187.5660  176.3280  140.8540 C   0  0  0  0  0  1  0  0  0  0  0  0
  187.8880  177.1440  142.0900 C   0  0  1  0  0  0  0  0  0  0  0  0
  186.8910  178.4270  143.9150 C   0  0  1  0  0  3  0  0  0  0  0  0
  188.4190  176.1980  143.1960 C   0  0  2  0  0  3  0  0  0  0  0  0
  193.5200  174.6110  145.0660 O   0  0  0  0  0  1  0  0  0  0  0  0
  190.5560  177.0810  143.8960 C   0  0  1  0  0  3  0  0  0  0  0  0
  187.0770  177.3700  144.8260 O   0  0  0  0  0  0  0  0  0  0  0  0
  186.6270  177.8470  142.5450 C   0  0  0  0  0  2  0  0  0  0  0  0
  193.8610  175.5700  144.1080 C   0  0  2  0  0  3  0  0  0  0  0  0
  190.3290  174.5530  143.4090 C   0  0  0  0  0  0  0  0  0  0  0  0
  191.3160  176.6710  146.0660 C   0  0  0  0  0  0  0  0  0  0  0  0
  185.7020  179.2580  144.3470 C   0  0  0  0  0  1  0  0  0  0  0  0
  193.0660  176.8670  144.2740 C   0  0  0  0  0  2  0  0  0  0  0  0
  189.5340  173.7720  144.2650 C   0  0  0  0  0  3  0  0  0  0  0  0
  191.8620  172.6760  143.1890 C   0  0  0  0  0  3  0  0  0  0  0  0
  191.0500  171.9050  144.0230 C   0  0  0  0  0  3  0  0  0  0  0  0
  193.8350  174.9860  142.6910 C   0  0  0  0  0  2  0  0  0  0  0  0
  189.4410  177.5380  144.8710 C   0  0  1  0  0  3  0  0  0  0  0  0
  191.6920  176.6230  144.7020 N   0  0  0  0  0  0  0  0  0  0  0  0
  188.2640  176.7260  144.5650 N   0  0  2  0  0  0  0  0  0  0  0  0
  189.3760  177.3340  147.3020 O   0  0  0  0  0  0  0  0  0  0  0  0
  189.9190  175.9700  143.0380 C   0  0  1  0  0  3  0  0  0  0  0  0
  1 21  2  0  0  0  0
  1 16  1  0  0  0  0
  2  8  1  0  0  0  0
  5 27  2  0  0  0  0
  6 23  1  0  0  0  0
  6  1  1  0  0  0  0
  8  7  1  6  0  0  0
  8 14  1  0  0  0  0
  8 10  1  0  0  0  0
  9 18  1  1  0  0  0
  9 13  1  0  0  0  0
 10 26  1  0  0  0  0
 12 25  1  0  0  0  0
 12 24  1  0  0  0  0
 14  9  1  0  0  0  0
 15 19  1  0  0  0  0
 15 11  1  0  0  0  0
 16 20  2  0  0  0  0
 17  5  1  0  0  0  0
 17  3  2  0  0  0  0
 19 25  1  0  0  0  0
 20  4  1  0  0  0  0
 21 22  1  0  0  0  0
 22  4  2  0  0  0  0
 23 15  1  0  0  0  0
 24  5  1  0  0  0  0
 25 17  1  0  0  0  0
 26 13  1  0  0  0  0
 26 24  1  0  0  0  0
 28 10  1  0  0  0  0
 28 16  1  0  0  0  0
 28 12  1  0  0  0  0
M  END
>  <MODEL>
5

>  <REMARK>
 VINA RESULT:      -7.9      2.627      4.542
  Name = 
  0 active torsions:
  status: ('A' for Active; 'I' for Inactive)
                            x       y       z     vdW  Elec       q    Type
                         _______ _______ _______ _____ _____    ______ ____

>  <TORSDO>
F 0

$$$$
=
 OpenBabel11112417393D

 28 32  0  0  1  0  0  0  0  0999 V2000
  190.7930  176.1010  145.2060 C   0  0  0  0  0  0  0  0  0  0  0  0
  192.7990  173.2100  141.5940 F   0  0  0  0  0  0  0  0  0  0  0  0
  186.8650  175.5110  142.5370 O   0  0  0  0  0  0  0  0  0  0  0  0
  189.3350  174.3680  146.8550 C   0  0  0  0  0  3  0  0  0  0  0  0
  188.1370  173.5370  142.0740 C   0  0  0  0  0  0  0  0  0  0  0  0
  191.5010  177.0670  144.3060 C   0  0  0  0  0  2  0  0  0  0  0  0
  193.7610  172.3910  143.5850 C   0  0  0  0  0  1  0  0  0  0  0  0
  192.5640  172.3500  142.6560 C   0  0  1  0  0  0  0  0  0  0  0  0
  191.0890  170.8510  141.4130 C   0  0  1  0  0  3  0  0  0  0  0  0
  191.2960  172.7560  143.4480 C   0  0  2  0  0  3  0  0  0  0  0  0
  188.3380  177.5240  144.1910 O   0  0  0  0  0  1  0  0  0  0  0  0
  190.2760  174.5800  142.2350 C   0  0  1  0  0  3  0  0  0  0  0  0
  190.0690  170.9760  142.3750 O   0  0  0  0  0  0  0  0  0  0  0  0
  192.4270  170.9460  142.1080 C   0  0  0  0  0  2  0  0  0  0  0  0
  189.2930  177.9330  143.2560 C   0  0  2  0  0  3  0  0  0  0  0  0
  190.5710  174.7710  144.7950 C   0  0  0  0  0  0  0  0  0  0  0  0
  187.9720  174.9250  142.3990 C   0  0  0  0  0  0  0  0  0  0  0  0
  190.9710  169.5050  140.7290 C   0  0  0  0  0  1  0  0  0  0  0  0
  189.4000  176.9660  142.0740 C   0  0  0  0  0  2  0  0  0  0  0  0
  189.8190  173.9210  145.6240 C   0  0  0  0  0  3  0  0  0  0  0  0
  190.3210  176.5370  146.4510 C   0  0  0  0  0  3  0  0  0  0  0  0
  189.5950  175.6740  147.2740 C   0  0  0  0  0  3  0  0  0  0  0  0
  190.6300  178.2690  143.9250 C   0  0  0  0  0  2  0  0  0  0  0  0
  189.5810  173.2420  141.8770 C   0  0  1  0  0  3  0  0  0  0  0  0
  189.2280  175.5760  142.4790 N   0  0  0  0  0  0  0  0  0  0  0  0
  190.0350  172.2620  142.8620 N   0  0  2  0  0  0  0  0  0  0  0  0
  187.2010  172.7080  141.9360 O   0  0  0  0  0  0  0  0  0  0  0  0
  191.1390  174.2740  143.4750 C   0  0  1  0  0  3  0  0  0  0  0  0
  1 21  1  0  0  0  0
  2  8  1  0  0  0  0
  4 22  1  0  0  0  0
  5 17  1  0  0  0  0
  6  1  1  0  0  0  0
  8 10  1  0  0  0  0
  8  7  1  1  0  0  0
  9 18  1  1  0  0  0
  9 14  1  0  0  0  0
  9 13  1  0  0  0  0
 10 28  1  0  0  0  0
 12 25  1  0  0  0  0
 12 28  1  0  0  0  0
 13 26  1  0  0  0  0
 14  8  1  0  0  0  0
 15 23  1  0  0  0  0
 15 11  1  0  0  0  0
 16  1  2  0  0  0  0
 16 20  1  0  0  0  0
 17 25  1  0  0  0  0
 17  3  2  0  0  0  0
 19 25  1  0  0  0  0
 19 15  1  0  0  0  0
 20  4  2  0  0  0  0
 21 22  2  0  0  0  0
 23  6  1  0  0  0  0
 24  5  1  0  0  0  0
 24 12  1  0  0  0  0
 24 26  1  0  0  0  0
 26 10  1  0  0  0  0
 27  5  2  0  0  0  0
 28 16  1  0  0  0  0
M  END
>  <MODEL>
6

>  <REMARK>
 VINA RESULT:      -7.2      3.216      6.213
  Name = 
  0 active torsions:
  status: ('A' for Active; 'I' for Inactive)
                            x       y       z     vdW  Elec       q    Type
                         _______ _______ _______ _____ _____    ______ ____

>  <TORSDO>
F 0

$$$$
=
 OpenBabel11112417393D

 28 32  0  0  1  0  0  0  0  0999 V2000
  194.0780  173.8880  144.8940 C   0  0  0  0  0  0  0  0  0  0  0  0
  189.8460  175.0250  147.3910 F   0  0  0  0  0  0  0  0  0  0  0  0
  190.9390  172.8570  141.4320 O   0  0  0  0  0  0  0  0  0  0  0  0
  194.5430  176.0350  143.1550 C   0  0  0  0  0  3  0  0  0  0  0  0
  189.7990  174.5210  142.7200 C   0  0  0  0  0  0  0  0  0  0  0  0
  193.8210  172.6910  145.7570 C   0  0  0  0  0  2  0  0  0  0  0  0
  191.3500  176.7330  148.0040 C   0  0  0  0  0  1  0  0  0  0  0  0
  190.3560  176.2430  146.9700 C   0  0  1  0  0  0  0  0  0  0  0  0
  188.3810  176.8850  145.6820 C   0  0  1  0  0  3  0  0  0  0  0  0
  191.0700  176.1210  145.6010 C   0  0  2  0  0  3  0  0  0  0  0  0
  193.5100  171.9430  142.6640 O   0  0  0  0  0  1  0  0  0  0  0  0
  190.7000  173.8620  144.8270 C   0  0  1  0  0  3  0  0  0  0  0  0
  189.1490  177.1100  144.5240 O   0  0  0  0  0  0  0  0  0  0  0  0
  189.2140  177.2340  146.8930 C   0  0  0  0  0  2  0  0  0  0  0  0
  193.0000  171.2480  143.7640 C   0  0  2  0  0  3  0  0  0  0  0  0
  193.0790  174.8660  144.7120 C   0  0  0  0  0  0  0  0  0  0  0  0
  190.6970  173.4170  142.5340 C   0  0  0  0  0  0  0  0  0  0  0  0
  187.1500  177.7640  145.6460 C   0  0  0  0  0  1  0  0  0  0  0  0
  191.5330  171.5880  144.0390 C   0  0  0  0  0  2  0  0  0  0  0  0
  193.3200  175.9250  143.8200 C   0  0  0  0  0  3  0  0  0  0  0  0
  195.3090  174.0150  144.2380 C   0  0  0  0  0  3  0  0  0  0  0  0
  195.5420  175.0850  143.3720 C   0  0  0  0  0  3  0  0  0  0  0  0
  193.9200  171.3710  144.9840 C   0  0  0  0  0  2  0  0  0  0  0  0
  189.6820  174.8280  144.1700 C   0  0  1  0  0  3  0  0  0  0  0  0
  191.2310  172.9900  143.7740 N   0  0  0  0  0  0  0  0  0  0  0  0
  190.1620  176.1830  144.4400 N   0  0  2  0  0  0  0  0  0  0  0  0
  189.1740  175.1110  141.8000 O   0  0  0  0  0  0  0  0  0  0  0  0
  191.7660  174.7690  145.4730 C   0  0  1  0  0  3  0  0  0  0  0  0
  1  6  1  0  0  0  0
  3 17  2  0  0  0  0
  4 22  2  0  0  0  0
  4 20  1  0  0  0  0
  5 24  1  0  0  0  0
  8  2  1  0  0  0  0
  8  7  1  1  0  0  0
  9 18  1  6  0  0  0
  9 14  1  0  0  0  0
 10  8  1  0  0  0  0
 11 15  1  0  0  0  0
 12 28  1  0  0  0  0
 13  9  1  0  0  0  0
 14  8  1  0  0  0  0
 15 19  1  0  0  0  0
 15 23  1  0  0  0  0
 16  1  1  0  0  0  0
 16 28  1  0  0  0  0
 17  5  1  0  0  0  0
 17 25  1  0  0  0  0
 20 16  2  0  0  0  0
 21  1  2  0  0  0  0
 22 21  1  0  0  0  0
 23  6  1  0  0  0  0
 24 26  1  0  0  0  0
 24 12  1  0  0  0  0
 25 19  1  0  0  0  0
 25 12  1  0  0  0  0
 26 13  1  0  0  0  0
 26 10  1  0  0  0  0
 27  5  2  0  0  0  0
 28 10  1  0  0  0  0
M  END
>  <MODEL>
7

>  <REMARK>
 VINA RESULT:      -7.2      2.777      4.141
  Name = 
  0 active torsions:
  status: ('A' for Active; 'I' for Inactive)
                            x       y       z     vdW  Elec       q    Type
                         _______ _______ _______ _____ _____    ______ ____

>  <TORSDO>
F 0

$$$$
=
 OpenBabel11112417393D

 28 32  0  0  1  0  0  0  0  0999 V2000
  187.3110  176.7100  143.3870 C   0  0  0  0  0  0  0  0  0  0  0  0
  189.3200  172.2040  144.4280 F   0  0  0  0  0  0  0  0  0  0  0  0
  189.8250  177.9580  147.2630 O   0  0  0  0  0  0  0  0  0  0  0  0
  189.3550  178.2040  142.1860 C   0  0  0  0  0  3  0  0  0  0  0  0
  191.0590  176.1020  146.3900 C   0  0  0  0  0  0  0  0  0  0  0  0
  186.2160  175.9690  144.0900 C   0  0  0  0  0  2  0  0  0  0  0  0
  189.4420  172.3570  142.0780 C   0  0  0  0  0  1  0  0  0  0  0  0
  190.0950  172.7160  143.3990 C   0  0  1  0  0  0  0  0  0  0  0  0
  192.1990  172.6380  144.6380 C   0  0  1  0  0  3  0  0  0  0  0  0
  190.2260  174.2560  143.4960 C   0  0  2  0  0  3  0  0  0  0  0  0
  187.2260  178.4360  145.8560 O   0  0  0  0  0  1  0  0  0  0  0  0
  189.1640  174.9130  145.5650 C   0  0  1  0  0  3  0  0  0  0  0  0
  192.4540  174.0000  144.3870 O   0  0  0  0  0  0  0  0  0  0  0  0
  191.4570  172.0570  143.4570 C   0  0  0  0  0  2  0  0  0  0  0  0
  186.5220  177.3090  146.2900 C   0  0  2  0  0  3  0  0  0  0  0  0
  188.6320  176.2180  143.3990 C   0  0  0  0  0  0  0  0  0  0  0  0
  189.8660  176.8560  146.6530 C   0  0  0  0  0  0  0  0  0  0  0  0
  193.5120  171.9070  144.8170 C   0  0  0  0  0  1  0  0  0  0  0  0
  187.4410  176.2430  146.8880 C   0  0  0  0  0  2  0  0  0  0  0  0
  189.6490  176.9900  142.8110 C   0  0  0  0  0  3  0  0  0  0  0  0
  187.0200  177.9190  142.7410 C   0  0  0  0  0  3  0  0  0  0  0  0
  188.0380  178.6640  142.1420 C   0  0  0  0  0  3  0  0  0  0  0  0
  185.5660  176.7910  145.2080 C   0  0  0  0  0  2  0  0  0  0  0  0
  190.6970  174.8050  145.7590 C   0  0  1  0  0  3  0  0  0  0  0  0
  188.7210  176.1610  146.1920 N   0  0  0  0  0  0  0  0  0  0  0  0
  191.2800  174.7150  144.4210 N   0  0  2  0  0  0  0  0  0  0  0  0
  192.2270  176.4660  146.6850 O   0  0  0  0  0  0  0  0  0  0  0  0
  188.9410  174.8750  144.0400 C   0  0  1  0  0  3  0  0  0  0  0  0
  1 16  1  0  0  0  0
  1  6  1  0  0  0  0
  4 20  1  0  0  0  0
  5 17  1  0  0  0  0
  5 27  2  0  0  0  0
  6 23  1  0  0  0  0
  8  7  1  6  0  0  0
  8 14  1  0  0  0  0
  8 10  1  0  0  0  0
  8  2  1  0  0  0  0
  9 18  1  6  0  0  0
 10 28  1  0  0  0  0
 10 26  1  0  0  0  0
 11 15  1  0  0  0  0
 12 24  1  0  0  0  0
 12 25  1  0  0  0  0
 13 26  1  0  0  0  0
 13  9  1  0  0  0  0
 14  9  1  0  0  0  0
 15 19  1  0  0  0  0
 16 28  1  0  0  0  0
 17  3  2  0  0  0  0
 20 16  2  0  0  0  0
 21  1  2  0  0  0  0
 22  4  2  0  0  0  0
 22 21  1  0  0  0  0
 23 15  1  0  0  0  0
 24  5  1  0  0  0  0
 25 17  1  0  0  0  0
 25 19  1  0  0  0  0
 26 24  1  0  0  0  0
 28 12  1  0  0  0  0
M  END
>  <MODEL>
8

>  <REMARK>
 VINA RESULT:      -7.1      2.727      6.272
  Name = 
  0 active torsions:
  status: ('A' for Active; 'I' for Inactive)
                            x       y       z     vdW  Elec       q    Type
                         _______ _______ _______ _____ _____    ______ ____

>  <TORSDO>
F 0

$$$$
=
 OpenBabel11112417393D

 28 32  0  0  1  0  0  0  0  0999 V2000
  189.2000  175.5570  145.3210 C   0  0  0  0  0  0  0  0  0  0  0  0
  191.2410  171.6990  142.7930 F   0  0  0  0  0  0  0  0  0  0  0  0
  193.7150  177.1370  145.1830 O   0  0  0  0  0  0  0  0  0  0  0  0
  188.9360  177.6380  143.4630 C   0  0  0  0  0  3  0  0  0  0  0  0
  193.5630  175.7600  143.2310 C   0  0  0  0  0  0  0  0  0  0  0  0
  189.3940  174.4940  146.3570 C   0  0  0  0  0  2  0  0  0  0  0  0
  189.1750  172.0620  141.7160 C   0  0  0  0  0  1  0  0  0  0  0  0
  190.6270  172.4810  141.8260 C   0  0  1  0  0  0  0  0  0  0  0  0
  192.6610  172.8830  140.5330 C   0  0  1  0  0  3  0  0  0  0  0  0
  190.6930  173.9870  142.1840 C   0  0  2  0  0  3  0  0  0  0  0  0
  191.2950  176.9980  146.9390 O   0  0  0  0  0  1  0  0  0  0  0  0
  192.0570  174.1680  144.1700 C   0  0  1  0  0  3  0  0  0  0  0  0
  192.4770  174.2770  140.5840 O   0  0  0  0  0  0  0  0  0  0  0  0
  191.3070  172.2140  140.4990 C   0  0  0  0  0  2  0  0  0  0  0  0
  191.4350  175.6920  147.4170 C   0  0  2  0  0  3  0  0  0  0  0  0
  189.8120  175.4430  144.0550 C   0  0  0  0  0  0  0  0  0  0  0  0
  193.2410  176.1390  144.5770 C   0  0  0  0  0  0  0  0  0  0  0  0
  193.4310  172.5240  139.2810 C   0  0  0  0  0  1  0  0  0  0  0  0
  192.4280  174.8730  146.5890 C   0  0  0  0  0  2  0  0  0  0  0  0
  189.6870  176.5050  143.1430 C   0  0  0  0  0  3  0  0  0  0  0  0
  188.4320  176.6870  145.6270 C   0  0  0  0  0  3  0  0  0  0  0  0
  188.2990  177.7240  144.7020 C   0  0  0  0  0  3  0  0  0  0  0  0
  190.0740  175.0190  147.6260 C   0  0  0  0  0  2  0  0  0  0  0  0
  192.9040  174.4660  142.9080 C   0  0  1  0  0  3  0  0  0  0  0  0
  192.3640  175.1970  145.1690 N   0  0  0  0  0  0  0  0  0  0  0  0
  191.9600  174.6410  141.8060 N   0  0  2  0  0  0  0  0  0  0  0  0
  194.3190  176.4040  142.4570 O   0  0  0  0  0  0  0  0  0  0  0  0
  190.5910  174.1880  143.6930 C   0  0  1  0  0  3  0  0  0  0  0  0
  1 21  1  0  0  0  0
  1  6  1  0  0  0  0
  4 22  1  0  0  0  0
  5 17  1  0  0  0  0
  6 23  1  0  0  0  0
  8  7  1  6  0  0  0
  8 10  1  0  0  0  0
  8  2  1  0  0  0  0
  9 18  1  6  0  0  0
  9 13  1  0  0  0  0
 10 28  1  0  0  0  0
 11 15  1  0  0  0  0
 12 25  1  0  0  0  0
 13 26  1  0  0  0  0
 14  9  1  0  0  0  0
 14  8  1  0  0  0  0
 15 23  1  0  0  0  0
 16  1  2  0  0  0  0
 17 25  1  0  0  0  0
 17  3  2  0  0  0  0
 19 15  1  0  0  0  0
 20  4  2  0  0  0  0
 20 16  1  0  0  0  0
 22 21  2  0  0  0  0
 24  5  1  0  0  0  0
 24 12  1  0  0  0  0
 25 19  1  0  0  0  0
 26 10  1  0  0  0  0
 26 24  1  0  0  0  0
 27  5  2  0  0  0  0
 28 16  1  0  0  0  0
 28 12  1  0  0  0  0
M  END
>  <MODEL>
9

>  <REMARK>
 VINA RESULT:      -7.0      3.579      6.405
  Name = 
  0 active torsions:
  status: ('A' for Active; 'I' for Inactive)
                            x       y       z     vdW  Elec       q    Type
                         _______ _______ _______ _____ _____    ______ ____

>  <TORSDO>
F 0

$$$$
