=
 OpenBabel11112417213D

 37 43  0  0  1  0  0  0  0  0999 V2000
  190.2740  175.2290  145.6550 C   0  0  0  0  0  2  0  0  0  0  0  0
  186.1790  178.9050  147.4700 C   0  0  0  0  0  0  0  0  0  0  0  0
  186.6710  176.9840  143.8010 C   0  0  0  0  0  0  0  0  0  0  0  0
  191.6070  174.9880  146.3870 C   0  0  1  0  0  3  0  0  0  0  0  0
  189.8910  176.8810  142.3770 C   0  0  0  0  0  2  0  0  0  0  0  0
  185.3680  178.6750  145.1180 C   0  0  0  0  0  0  0  0  0  0  0  0
  187.9660  176.4930  143.9480 C   0  0  0  0  0  0  0  0  0  0  0  0
  192.8520  176.2520  144.7700 C   0  0  1  0  0  3  0  0  0  0  0  0
  186.4040  177.6760  144.9440 C   0  0  0  0  0  0  0  0  0  0  0  0
  188.8050  175.9120  142.8350 C   0  0  1  0  0  3  0  0  0  0  0  0
  184.5040  179.2660  143.6570 S   0  0  0  0  0  0  0  0  0  0  0  0
  192.5710  176.0740  146.1940 N   0  0  0  0  0  2  0  0  0  0  0  0
  187.4640  177.5410  145.7870 C   0  0  0  0  0  0  0  0  0  0  0  0
  185.4730  177.8180  148.2600 C   0  0  0  0  0  1  0  0  0  0  0  0
  186.5120  177.5120  141.3910 C   0  0  0  0  0  2  0  0  0  0  0  0
  184.4080  177.6170  142.8480 C   0  0  0  0  0  2  0  0  0  0  0  0
  187.5760  178.3860  147.0270 C   0  0  0  0  0  2  0  0  0  0  0  0
  191.7940  177.1210  144.0690 C   0  0  1  0  0  3  0  0  0  0  0  0
  191.2340  176.3620  142.8630 C   0  0  0  0  0  2  0  0  0  0  0  0
  185.7780  176.9530  142.5980 C   0  0  2  0  0  3  0  0  0  0  0  0
  188.4390  176.8260  145.1850 N   0  0  0  0  0  0  0  0  0  0  0  0
  185.3020  179.3160  146.2930 C   0  0  0  0  0  3  0  0  0  0  0  0
  187.9690  175.3740  141.6590 C   0  0  1  0  0  3  0  0  0  0  0  0
  186.3710  180.1030  148.3760 C   0  0  0  0  0  1  0  0  0  0  0  0
  190.7330  177.7100  145.0250 C   0  0  0  0  0  2  0  0  0  0  0  0
  194.1070  176.8400  144.6150 O   0  0  0  0  0  1  0  0  0  0  0  0
  189.8010  176.6880  145.7000 C   0  0  2  0  0  3  0  0  0  0  0  0
  187.3830  176.4440  140.7130 C   0  0  0  0  0  2  0  0  0  0  0  0
  188.5940  174.2670  139.5090 C   0  0  0  0  0  3  0  0  0  0  0  0
  188.6940  174.3040  140.9050 C   0  0  0  0  0  0  0  0  0  0  0  0
  189.4450  173.3230  141.5710 C   0  0  0  0  0  3  0  0  0  0  0  0
  190.8550  171.3300  141.5250 N   0  0  0  0  0  1  0  0  0  0  0  0
  189.9960  172.2920  139.4520 C   0  0  0  0  0  3  0  0  0  0  0  0
  190.0940  172.3220  140.8460 C   0  0  0  0  0  0  0  0  0  0  0  0
  189.2450  173.2650  138.7840 C   0  0  0  0  0  3  0  0  0  0  0  0
  191.4170  176.0270  148.5290 O   0  0  0  0  0  1  0  0  0  0  0  0
  191.3630  174.7960  147.8740 C   0  0  0  0  0  2  0  0  0  0  0  0
  1 27  1  0  0  0  0
  1  4  1  0  0  0  0
  2 14  1  0  0  0  0
  2 24  1  0  0  0  0
  3  7  2  0  0  0  0
  3  9  1  0  0  0  0
  4 37  1  1  0  0  0
  5 19  1  0  0  0  0
  6 22  2  0  0  0  0
  7 21  1  0  0  0  0
  8 26  1  1  0  0  0
  8 12  1  0  0  0  0
  9  6  1  0  0  0  0
  9 13  2  0  0  0  0
 10  5  1  6  0  0  0
 10  7  1  0  0  0  0
 11  6  1  0  0  0  0
 12  4  1  0  0  0  0
 13 17  1  0  0  0  0
 16 11  1  0  0  0  0
 17  2  1  0  0  0  0
 18 19  1  6  0  0  0
 18  8  1  0  0  0  0
 18 25  1  0  0  0  0
 20 15  1  6  0  0  0
 20 16  1  0  0  0  0
 20  3  1  0  0  0  0
 21 27  1  0  0  0  0
 21 13  1  0  0  0  0
 22  2  1  0  0  0  0
 23 30  1  6  0  0  0
 23 10  1  0  0  0  0
 27 25  1  6  0  0  0
 28 15  1  0  0  0  0
 28 23  1  0  0  0  0
 29 30  1  0  0  0  0
 30 31  2  0  0  0  0
 33 34  2  0  0  0  0
 34 32  1  0  0  0  0
 34 31  1  0  0  0  0
 35 33  1  0  0  0  0
 35 29  2  0  0  0  0
 37 36  1  0  0  0  0
M  END
>  <MODEL>
1

>  <REMARK>
 VINA RESULT:      -8.6      0.000      0.000
  Name = 
  2 active torsions:
  status: ('A' for Active; 'I' for Inactive)
    1  A    between atoms: CA_4  and  C_37
    2  A    between atoms: C_23  and  C_30
                            x       y       z     vdW  Elec       q    Type
                         _______ _______ _______ _____ _____    ______ ____

>  <TORSDO>
F 2

$$$$
=
 OpenBabel11112417213D

 37 43  0  0  1  0  0  0  0  0999 V2000
  191.0620  173.9050  141.1600 C   0  0  0  0  0  2  0  0  0  0  0  0
  186.7110  177.2840  142.9550 C   0  0  0  0  0  0  0  0  0  0  0  0
  190.2050  176.0960  144.8970 C   0  0  0  0  0  0  0  0  0  0  0  0
  191.0010  173.0060  139.9110 C   0  0  1  0  0  3  0  0  0  0  0  0
  191.1990  172.7260  144.6540 C   0  0  0  0  0  2  0  0  0  0  0  0
  188.0060  177.2860  145.0910 C   0  0  0  0  0  0  0  0  0  0  0  0
  190.6450  175.0980  144.0300 C   0  0  0  0  0  0  0  0  0  0  0  0
  190.7710  171.0090  141.2250 C   0  0  1  0  0  3  0  0  0  0  0  0
  189.0280  176.5450  144.3790 C   0  0  0  0  0  0  0  0  0  0  0  0
  191.7480  174.1120  144.3320 C   0  0  1  0  0  3  0  0  0  0  0  0
  188.1480  177.4260  146.8770 S   0  0  0  0  0  0  0  0  0  0  0  0
  190.2130  171.7880  140.1210 N   0  0  0  0  0  2  0  0  0  0  0  0
  188.8030  175.9030  143.2000 C   0  0  0  0  0  0  0  0  0  0  0  0
  187.2250  178.4690  142.1570 C   0  0  0  0  0  1  0  0  0  0  0  0
  190.9110  175.2940  147.1260 C   0  0  0  0  0  2  0  0  0  0  0  0
  189.9730  177.6640  146.8770 C   0  0  0  0  0  2  0  0  0  0  0  0
  187.4690  176.0020  142.5100 C   0  0  0  0  0  2  0  0  0  0  0  0
  190.2880  171.5090  142.5970 C   0  0  1  0  0  3  0  0  0  0  0  0
  191.5010  171.8050  143.4830 C   0  0  0  0  0  2  0  0  0  0  0  0
  190.7620  176.5090  146.2260 C   0  0  2  0  0  3  0  0  0  0  0  0
  189.7820  175.0010  142.9770 N   0  0  0  0  0  0  0  0  0  0  0  0
  186.8700  177.5770  144.4420 C   0  0  0  0  0  3  0  0  0  0  0  0
  192.7360  174.6120  145.4020 C   0  0  1  0  0  3  0  0  0  0  0  0
  185.2380  177.1070  142.6490 C   0  0  0  0  0  1  0  0  0  0  0  0
  189.2400  172.6410  142.5180 C   0  0  0  0  0  2  0  0  0  0  0  0
  190.4170  169.6690  141.0720 O   0  0  0  0  0  1  0  0  0  0  0  0
  189.7390  173.9750  141.9340 C   0  0  2  0  0  3  0  0  0  0  0  0
  192.2280  174.5500  146.8590 C   0  0  0  0  0  2  0  0  0  0  0  0
  194.2710  172.6660  145.7150 C   0  0  0  0  0  3  0  0  0  0  0  0
  194.0830  173.9750  145.2570 C   0  0  0  0  0  0  0  0  0  0  0  0
  195.1640  174.6750  144.6990 C   0  0  0  0  0  3  0  0  0  0  0  0
  197.5090  174.7780  144.0260 N   0  0  0  0  0  1  0  0  0  0  0  0
  196.5970  172.7560  145.0480 C   0  0  0  0  0  3  0  0  0  0  0  0
  196.4160  174.0660  144.5940 C   0  0  0  0  0  0  0  0  0  0  0  0
  195.5240  172.0570  145.6090 C   0  0  0  0  0  3  0  0  0  0  0  0
  189.1180  173.3590  138.4860 O   0  0  0  0  0  1  0  0  0  0  0  0
  190.4260  173.7760  138.7360 C   0  0  0  0  0  2  0  0  0  0  0  0
  2 22  1  0  0  0  0
  3 20  1  0  0  0  0
  4 37  1  6  0  0  0
  4 12  1  0  0  0  0
  4  1  1  0  0  0  0
  6 11  1  0  0  0  0
  7 10  1  0  0  0  0
  7  3  2  0  0  0  0
  8 26  1  6  0  0  0
  8 18  1  0  0  0  0
  9  3  1  0  0  0  0
  9  6  1  0  0  0  0
 10  5  1  1  0  0  0
 10 23  1  0  0  0  0
 11 16  1  0  0  0  0
 12  8  1  0  0  0  0
 13  9  2  0  0  0  0
 14  2  1  0  0  0  0
 17  2  1  0  0  0  0
 17 13  1  0  0  0  0
 18 25  1  6  0  0  0
 18 19  1  0  0  0  0
 19  5  1  0  0  0  0
 20 16  1  1  0  0  0
 20 15  1  0  0  0  0
 21 13  1  0  0  0  0
 21  7  1  0  0  0  0
 22  6  2  0  0  0  0
 23 30  1  1  0  0  0
 23 28  1  0  0  0  0
 24  2  1  0  0  0  0
 27  1  1  1  0  0  0
 27 25  1  0  0  0  0
 27 21  1  0  0  0  0
 28 15  1  0  0  0  0
 30 29  2  0  0  0  0
 31 30  1  0  0  0  0
 32 34  1  0  0  0  0
 33 35  2  0  0  0  0
 34 31  2  0  0  0  0
 34 33  1  0  0  0  0
 35 29  1  0  0  0  0
 36 37  1  0  0  0  0
M  END
>  <MODEL>
2

>  <REMARK>
 VINA RESULT:      -8.2      3.182      6.421
  Name = 
  2 active torsions:
  status: ('A' for Active; 'I' for Inactive)
    1  A    between atoms: CA_4  and  C_37
    2  A    between atoms: C_23  and  C_30
                            x       y       z     vdW  Elec       q    Type
                         _______ _______ _______ _____ _____    ______ ____

>  <TORSDO>
F 2

$$$$
=
 OpenBabel11112417213D

 37 43  0  0  1  0  0  0  0  0999 V2000
  191.0780  173.9600  141.4720 C   0  0  0  0  0  2  0  0  0  0  0  0
  186.6350  177.3750  142.9470 C   0  0  0  0  0  0  0  0  0  0  0  0
  190.0230  176.2450  145.1000 C   0  0  0  0  0  0  0  0  0  0  0  0
  191.0830  173.0290  140.2450 C   0  0  1  0  0  3  0  0  0  0  0  0
  191.0310  172.8730  144.9980 C   0  0  0  0  0  2  0  0  0  0  0  0
  187.8150  177.4360  145.1470 C   0  0  0  0  0  0  0  0  0  0  0  0
  190.5090  175.2260  144.2840 C   0  0  0  0  0  0  0  0  0  0  0  0
  190.7860  171.0660  141.5970 C   0  0  1  0  0  3  0  0  0  0  0  0
  188.8740  176.6790  144.5090 C   0  0  0  0  0  0  0  0  0  0  0  0
  191.5950  174.2510  144.6690 C   0  0  1  0  0  3  0  0  0  0  0  0
  187.8630  177.6220  146.9340 S   0  0  0  0  0  0  0  0  0  0  0  0
  190.2860  171.8160  140.4450 N   0  0  0  0  0  2  0  0  0  0  0  0
  188.7120  176.0050  143.3380 C   0  0  0  0  0  0  0  0  0  0  0  0
  187.1900  178.5400  142.1460 C   0  0  0  0  0  1  0  0  0  0  0  0
  190.6110  175.5030  147.3840 C   0  0  0  0  0  2  0  0  0  0  0  0
  189.6850  177.8640  147.0230 C   0  0  0  0  0  2  0  0  0  0  0  0
  187.4170  176.0840  142.5750 C   0  0  0  0  0  2  0  0  0  0  0  0
  190.2310  171.6000  142.9280 C   0  0  1  0  0  3  0  0  0  0  0  0
  191.3950  171.9220  143.8690 C   0  0  0  0  0  2  0  0  0  0  0  0
  190.5080  176.6940  146.4450 C   0  0  2  0  0  3  0  0  0  0  0  0
  189.7030  175.1000  143.1890 N   0  0  0  0  0  0  0  0  0  0  0  0
  186.7150  177.7070  144.4320 C   0  0  0  0  0  3  0  0  0  0  0  0
  192.5250  174.7800  145.7770 C   0  0  1  0  0  3  0  0  0  0  0  0
  185.1810  177.1870  142.5680 C   0  0  0  0  0  1  0  0  0  0  0  0
  189.1880  172.7280  142.7640 C   0  0  0  0  0  2  0  0  0  0  0  0
  190.4410  169.7220  141.4600 O   0  0  0  0  0  1  0  0  0  0  0  0
  189.7160  174.0480  142.1730 C   0  0  2  0  0  3  0  0  0  0  0  0
  191.9410  174.7560  147.2060 C   0  0  0  0  0  2  0  0  0  0  0  0
  195.0090  174.9570  145.5870 C   0  0  0  0  0  3  0  0  0  0  0  0
  193.8780  174.1430  145.7190 C   0  0  0  0  0  0  0  0  0  0  0  0
  194.0300  172.7490  145.7630 C   0  0  0  0  0  3  0  0  0  0  0  0
  195.4520  170.7640  145.7310 N   0  0  0  0  0  1  0  0  0  0  0  0
  196.4290  172.9960  145.5590 C   0  0  0  0  0  3  0  0  0  0  0  0
  195.3030  172.1780  145.6850 C   0  0  0  0  0  0  0  0  0  0  0  0
  196.2820  174.3850  145.5100 C   0  0  0  0  0  3  0  0  0  0  0  0
  189.2820  173.3340  138.7080 O   0  0  0  0  0  1  0  0  0  0  0  0
  190.5710  173.7670  139.0220 C   0  0  0  0  0  2  0  0  0  0  0  0
  2 22  1  0  0  0  0
  3 20  1  0  0  0  0
  4 37  1  6  0  0  0
  4 12  1  0  0  0  0
  4  1  1  0  0  0  0
  6 11  1  0  0  0  0
  7 10  1  0  0  0  0
  7  3  2  0  0  0  0
  8 26  1  6  0  0  0
  8 18  1  0  0  0  0
  9  3  1  0  0  0  0
  9  6  1  0  0  0  0
 10  5  1  1  0  0  0
 10 23  1  0  0  0  0
 11 16  1  0  0  0  0
 12  8  1  0  0  0  0
 13  9  2  0  0  0  0
 14  2  1  0  0  0  0
 17  2  1  0  0  0  0
 17 13  1  0  0  0  0
 18 25  1  6  0  0  0
 18 19  1  0  0  0  0
 19  5  1  0  0  0  0
 20 16  1  1  0  0  0
 20 15  1  0  0  0  0
 21 13  1  0  0  0  0
 21  7  1  0  0  0  0
 22  6  2  0  0  0  0
 23 30  1  1  0  0  0
 23 28  1  0  0  0  0
 24  2  1  0  0  0  0
 27  1  1  1  0  0  0
 27 25  1  0  0  0  0
 27 21  1  0  0  0  0
 28 15  1  0  0  0  0
 29 30  1  0  0  0  0
 30 31  2  0  0  0  0
 33 34  2  0  0  0  0
 34 32  1  0  0  0  0
 34 31  1  0  0  0  0
 35 33  1  0  0  0  0
 35 29  2  0  0  0  0
 36 37  1  0  0  0  0
M  END
>  <MODEL>
3

>  <REMARK>
 VINA RESULT:      -8.2      3.113      6.287
  Name = 
  2 active torsions:
  status: ('A' for Active; 'I' for Inactive)
    1  A    between atoms: CA_4  and  C_37
    2  A    between atoms: C_23  and  C_30
                            x       y       z     vdW  Elec       q    Type
                         _______ _______ _______ _____ _____    ______ ____

>  <TORSDO>
F 2

$$$$
=
 OpenBabel11112417213D

 37 43  0  0  1  0  0  0  0  0999 V2000
  192.8050  176.0920  144.4290 C   0  0  0  0  0  2  0  0  0  0  0  0
  194.7010  170.8730  142.7710 C   0  0  0  0  0  0  0  0  0  0  0  0
  191.1170  172.8450  141.9580 C   0  0  0  0  0  0  0  0  0  0  0  0
  193.4540  176.9340  145.5420 C   0  0  1  0  0  3  0  0  0  0  0  0
  189.4770  174.5060  144.5960 C   0  0  0  0  0  2  0  0  0  0  0  0
  192.4280  170.7170  141.7450 C   0  0  0  0  0  0  0  0  0  0  0  0
  191.1990  173.8970  142.8670 C   0  0  0  0  0  0  0  0  0  0  0  0
  191.6860  176.4490  147.0930 C   0  0  1  0  0  3  0  0  0  0  0  0
  192.2360  172.0940  142.1560 C   0  0  0  0  0  0  0  0  0  0  0  0
  190.0630  174.8250  143.2240 C   0  0  1  0  0  3  0  0  0  0  0  0
  191.0020  169.8040  141.1440 S   0  0  0  0  0  0  0  0  0  0  0  0
  193.1340  176.4490  146.8870 N   0  0  0  0  0  2  0  0  0  0  0  0
  193.0080  172.7100  143.0920 C   0  0  0  0  0  0  0  0  0  0  0  0
  195.5970  171.4750  141.7030 C   0  0  0  0  0  1  0  0  0  0  0  0
  188.6990  172.3390  141.8590 C   0  0  0  0  0  2  0  0  0  0  0  0
  190.2920  171.2140  140.1990 C   0  0  0  0  0  2  0  0  0  0  0  0
  194.1890  172.0070  143.7040 C   0  0  0  0  0  2  0  0  0  0  0  0
  191.0150  175.1870  146.5230 C   0  0  1  0  0  3  0  0  0  0  0  0
  189.8950  175.6000  145.5640 C   0  0  0  0  0  2  0  0  0  0  0  0
  189.9830  172.4590  141.0560 C   0  0  2  0  0  3  0  0  0  0  0  0
  192.3800  173.8150  143.5480 N   0  0  0  0  0  0  0  0  0  0  0  0
  193.5680  170.1070  142.0980 C   0  0  0  0  0  3  0  0  0  0  0  0
  188.9800  174.9110  142.1320 C   0  0  1  0  0  3  0  0  0  0  0  0
  195.5240  169.9030  143.5920 C   0  0  0  0  0  1  0  0  0  0  0  0
  192.0100  174.1480  145.9620 C   0  0  0  0  0  2  0  0  0  0  0  0
  191.4110  176.5400  148.4570 O   0  0  0  0  0  1  0  0  0  0  0  0
  192.8040  174.5850  144.7170 C   0  0  2  0  0  3  0  0  0  0  0  0
  188.0200  173.7040  142.0490 C   0  0  0  0  0  2  0  0  0  0  0  0
  188.9410  177.4050  142.0130 C   0  0  0  0  0  3  0  0  0  0  0  0
  188.2360  176.2090  142.1870 C   0  0  0  0  0  0  0  0  0  0  0  0
  186.8560  176.2480  142.4400 C   0  0  0  0  0  3  0  0  0  0  0  0
  184.7900  177.5090  142.7620 N   0  0  0  0  0  1  0  0  0  0  0  0
  186.8970  178.6660  142.3270 C   0  0  0  0  0  3  0  0  0  0  0  0
  186.1890  177.4740  142.5080 C   0  0  0  0  0  0  0  0  0  0  0  0
  188.2730  178.6310  142.0800 C   0  0  0  0  0  3  0  0  0  0  0  0
  195.2950  176.7250  144.0350 O   0  0  0  0  0  1  0  0  0  0  0  0
  194.9620  176.9640  145.3690 C   0  0  0  0  0  2  0  0  0  0  0  0
  1  4  1  0  0  0  0
  2 24  1  0  0  0  0
  2 17  1  0  0  0  0
  3  9  1  0  0  0  0
  3  7  2  0  0  0  0
  4 37  1  6  0  0  0
  4 12  1  0  0  0  0
  5 19  1  0  0  0  0
  6 22  2  0  0  0  0
  6  9  1  0  0  0  0
  7 10  1  0  0  0  0
  7 21  1  0  0  0  0
  8 26  1  1  0  0  0
  9 13  2  0  0  0  0
 10  5  1  1  0  0  0
 11  6  1  0  0  0  0
 12  8  1  0  0  0  0
 13 21  1  0  0  0  0
 13 17  1  0  0  0  0
 14  2  1  0  0  0  0
 15 28  1  0  0  0  0
 16 11  1  0  0  0  0
 18 19  1  6  0  0  0
 18  8  1  0  0  0  0
 20 16  1  1  0  0  0
 20 15  1  0  0  0  0
 20  3  1  0  0  0  0
 21 27  1  0  0  0  0
 22  2  1  0  0  0  0
 23 30  1  1  0  0  0
 23 10  1  0  0  0  0
 25 18  1  0  0  0  0
 27  1  1  6  0  0  0
 27 25  1  0  0  0  0
 28 23  1  0  0  0  0
 29 35  2  0  0  0  0
 29 30  1  0  0  0  0
 30 31  2  0  0  0  0
 31 34  1  0  0  0  0
 33 34  2  0  0  0  0
 34 32  1  0  0  0  0
 35 33  1  0  0  0  0
 36 37  1  0  0  0  0
M  END
>  <MODEL>
4

>  <REMARK>
 VINA RESULT:      -7.6      3.239      7.162
  Name = 
  2 active torsions:
  status: ('A' for Active; 'I' for Inactive)
    1  A    between atoms: CA_4  and  C_37
    2  A    between atoms: C_23  and  C_30
                            x       y       z     vdW  Elec       q    Type
                         _______ _______ _______ _____ _____    ______ ____

>  <TORSDO>
F 2

$$$$
=
 OpenBabel11112417213D

 37 43  0  0  1  0  0  0  0  0999 V2000
  192.3060  176.3540  144.4710 C   0  0  0  0  0  2  0  0  0  0  0  0
  194.3880  172.3460  140.8410 C   0  0  0  0  0  0  0  0  0  0  0  0
  190.5470  173.9230  141.2310 C   0  0  0  0  0  0  0  0  0  0  0  0
  193.0480  176.8570  145.7230 C   0  0  1  0  0  3  0  0  0  0  0  0
  189.2190  174.3320  144.4670 C   0  0  0  0  0  2  0  0  0  0  0  0
  192.0020  172.2120  140.1140 C   0  0  0  0  0  0  0  0  0  0  0  0
  190.6790  174.6060  142.4380 C   0  0  0  0  0  0  0  0  0  0  0  0
  191.6180  175.6190  147.2020 C   0  0  1  0  0  3  0  0  0  0  0  0
  191.7500  173.3240  141.0090 C   0  0  0  0  0  0  0  0  0  0  0  0
  189.5350  175.1790  143.2400 C   0  0  1  0  0  3  0  0  0  0  0  0
  190.5890  171.3550  139.4070 S   0  0  0  0  0  0  0  0  0  0  0  0
  193.0040  175.9030  146.8350 N   0  0  0  0  0  2  0  0  0  0  0  0
  192.6050  173.6940  142.0010 C   0  0  0  0  0  0  0  0  0  0  0  0
  195.0320  173.3990  139.9570 C   0  0  0  0  0  1  0  0  0  0  0  0
  188.2060  173.1290  141.2550 C   0  0  0  0  0  2  0  0  0  0  0  0
  189.6000  172.8810  139.1220 C   0  0  0  0  0  2  0  0  0  0  0  0
  193.9330  173.0080  142.1720 C   0  0  0  0  0  2  0  0  0  0  0  0
  190.9840  174.5410  146.3070 C   0  0  1  0  0  3  0  0  0  0  0  0
  189.6860  175.0830  145.7040 C   0  0  0  0  0  2  0  0  0  0  0  0
  189.3210  173.7030  140.3970 C   0  0  2  0  0  3  0  0  0  0  0  0
  191.9590  174.4730  142.8950 N   0  0  0  0  0  0  0  0  0  0  0  0
  193.2370  171.6940  140.0830 C   0  0  0  0  0  3  0  0  0  0  0  0
  188.2820  175.4680  142.3920 C   0  0  1  0  0  3  0  0  0  0  0  0
  195.4250  171.2880  141.1540 C   0  0  0  0  0  1  0  0  0  0  0  0
  191.9670  173.9110  145.2940 C   0  0  0  0  0  2  0  0  0  0  0  0
  191.5660  175.2020  148.5320 O   0  0  0  0  0  1  0  0  0  0  0  0
  192.4970  174.8560  144.2000 C   0  0  2  0  0  3  0  0  0  0  0  0
  187.4410  174.2330  142.0010 C   0  0  0  0  0  2  0  0  0  0  0  0
  187.9530  177.3010  144.0560 C   0  0  0  0  0  3  0  0  0  0  0  0
  187.4370  176.5460  142.9970 C   0  0  0  0  0  0  0  0  0  0  0  0
  186.1320  176.7910  142.5420 C   0  0  0  0  0  3  0  0  0  0  0  0
  184.0350  178.0340  142.6740 N   0  0  0  0  0  1  0  0  0  0  0  0
  185.8780  178.5430  144.1930 C   0  0  0  0  0  3  0  0  0  0  0  0
  185.3570  177.7880  143.1380 C   0  0  0  0  0  0  0  0  0  0  0  0
  187.1760  178.2990  144.6520 C   0  0  0  0  0  3  0  0  0  0  0  0
  195.3110  176.0940  145.7560 O   0  0  0  0  0  1  0  0  0  0  0  0
  194.4960  177.1660  145.3880 C   0  0  0  0  0  2  0  0  0  0  0  0
  1  4  1  0  0  0  0
  2 24  1  0  0  0  0
  2 17  1  0  0  0  0
  3  7  2  0  0  0  0
  4 37  1  6  0  0  0
  4 12  1  0  0  0  0
  5 19  1  0  0  0  0
  6  9  1  0  0  0  0
  7 21  1  0  0  0  0
  7 10  1  0  0  0  0
  8 26  1  1  0  0  0
  9  3  1  0  0  0  0
  9 13  2  0  0  0  0
 10  5  1  1  0  0  0
 11  6  1  0  0  0  0
 12  8  1  0  0  0  0
 13 17  1  0  0  0  0
 13 21  1  0  0  0  0
 14  2  1  0  0  0  0
 15 28  1  0  0  0  0
 16 11  1  0  0  0  0
 18 25  1  6  0  0  0
 18  8  1  0  0  0  0
 19 18  1  0  0  0  0
 20 16  1  6  0  0  0
 20  3  1  0  0  0  0
 20 15  1  0  0  0  0
 21 27  1  0  0  0  0
 22  6  2  0  0  0  0
 22  2  1  0  0  0  0
 23 30  1  1  0  0  0
 23 10  1  0  0  0  0
 27  1  1  1  0  0  0
 27 25  1  0  0  0  0
 28 23  1  0  0  0  0
 29 35  1  0  0  0  0
 30 29  2  0  0  0  0
 31 30  1  0  0  0  0
 31 34  2  0  0  0  0
 32 34  1  0  0  0  0
 33 35  2  0  0  0  0
 34 33  1  0  0  0  0
 37 36  1  0  0  0  0
M  END
>  <MODEL>
5

>  <REMARK>
 VINA RESULT:      -7.6      2.918      7.067
  Name = 
  2 active torsions:
  status: ('A' for Active; 'I' for Inactive)
    1  A    between atoms: CA_4  and  C_37
    2  A    between atoms: C_23  and  C_30
                            x       y       z     vdW  Elec       q    Type
                         _______ _______ _______ _____ _____    ______ ____

>  <TORSDO>
F 2

$$$$
=
 OpenBabel11112417213D

 37 43  0  0  1  0  0  0  0  0999 V2000
  191.0180  173.7430  140.6950 C   0  0  0  0  0  2  0  0  0  0  0  0
  189.8770  175.3930  146.1310 C   0  0  0  0  0  0  0  0  0  0  0  0
  193.3440  175.7820  143.8460 C   0  0  0  0  0  0  0  0  0  0  0  0
  190.1370  172.7770  139.8810 C   0  0  1  0  0  3  0  0  0  0  0  0
  194.4170  173.0230  141.9380 C   0  0  0  0  0  2  0  0  0  0  0  0
  192.2800  176.0740  146.0990 C   0  0  0  0  0  0  0  0  0  0  0  0
  193.0320  174.9480  142.7750 C   0  0  0  0  0  0  0  0  0  0  0  0
  191.6950  170.9680  140.1340 C   0  0  1  0  0  3  0  0  0  0  0  0
  192.2820  175.7090  144.6960 C   0  0  0  0  0  0  0  0  0  0  0  0
  194.0120  174.4790  141.7270 C   0  0  1  0  0  3  0  0  0  0  0  0
  193.8580  176.4190  146.8880 S   0  0  0  0  0  0  0  0  0  0  0  0
  190.2990  171.3770  140.2840 N   0  0  0  0  0  2  0  0  0  0  0  0
  191.3270  174.9250  144.1250 C   0  0  0  0  0  0  0  0  0  0  0  0
  189.0960  176.6060  145.6600 C   0  0  0  0  0  1  0  0  0  0  0  0
  195.7870  175.5100  144.1130 C   0  0  0  0  0  2  0  0  0  0  0  0
  194.5650  177.3220  145.4490 C   0  0  0  0  0  2  0  0  0  0  0  0
  190.1390  174.4540  144.9200 C   0  0  0  0  0  2  0  0  0  0  0  0
  192.5570  171.3720  141.3420 C   0  0  1  0  0  3  0  0  0  0  0  0
  193.7620  172.1800  140.8550 C   0  0  0  0  0  2  0  0  0  0  0  0
  194.6280  176.4920  144.1490 C   0  0  2  0  0  3  0  0  0  0  0  0
  191.7770  174.4390  142.9490 N   0  0  0  0  0  0  0  0  0  0  0  0
  191.1630  175.8580  146.8060 C   0  0  0  0  0  3  0  0  0  0  0  0
  195.2320  175.4070  141.5740 C   0  0  1  0  0  3  0  0  0  0  0  0
  189.0360  174.6500  147.1480 C   0  0  0  0  0  1  0  0  0  0  0  0
  191.7550  172.0170  142.4950 C   0  0  0  0  0  2  0  0  0  0  0  0
  191.7570  169.5850  139.9670 O   0  0  0  0  0  1  0  0  0  0  0  0
  191.1160  173.3820  142.1830 C   0  0  2  0  0  3  0  0  0  0  0  0
  196.3000  175.2930  142.6820 C   0  0  0  0  0  2  0  0  0  0  0  0
  197.2280  175.3610  140.0740 C   0  0  0  0  0  3  0  0  0  0  0  0
  195.8360  175.3110  140.2080 C   0  0  0  0  0  0  0  0  0  0  0  0
  195.0330  175.2040  139.0610 C   0  0  0  0  0  3  0  0  0  0  0  0
  194.8040  175.0280  136.6370 N   0  0  0  0  0  1  0  0  0  0  0  0
  197.0130  175.1830  137.6680 C   0  0  0  0  0  3  0  0  0  0  0  0
  195.6210  175.1380  137.7960 C   0  0  0  0  0  0  0  0  0  0  0  0
  197.8160  175.2940  138.8080 C   0  0  0  0  0  3  0  0  0  0  0  0
  188.5280  174.5410  139.8250 O   0  0  0  0  0  1  0  0  0  0  0  0
  188.6740  173.1650  140.0070 C   0  0  0  0  0  2  0  0  0  0  0  0
  2 22  1  0  0  0  0
  2 24  1  0  0  0  0
  3 20  1  0  0  0  0
  3  9  1  0  0  0  0
  4 37  1  1  0  0  0
  4 12  1  0  0  0  0
  4  1  1  0  0  0  0
  6 22  2  0  0  0  0
  6 11  1  0  0  0  0
  7 21  1  0  0  0  0
  7  3  2  0  0  0  0
  8 26  1  1  0  0  0
  8 12  1  0  0  0  0
  8 18  1  0  0  0  0
  9  6  1  0  0  0  0
 10  5  1  1  0  0  0
 10  7  1  0  0  0  0
 13  9  2  0  0  0  0
 13 17  1  0  0  0  0
 14  2  1  0  0  0  0
 16 11  1  0  0  0  0
 17  2  1  0  0  0  0
 18 19  1  6  0  0  0
 18 25  1  0  0  0  0
 19  5  1  0  0  0  0
 20 15  1  1  0  0  0
 20 16  1  0  0  0  0
 21 13  1  0  0  0  0
 23 30  1  6  0  0  0
 23 10  1  0  0  0  0
 23 28  1  0  0  0  0
 27  1  1  6  0  0  0
 27 25  1  0  0  0  0
 27 21  1  0  0  0  0
 28 15  1  0  0  0  0
 29 30  1  0  0  0  0
 31 30  2  0  0  0  0
 32 34  1  0  0  0  0
 33 34  2  0  0  0  0
 33 35  1  0  0  0  0
 34 31  1  0  0  0  0
 35 29  2  0  0  0  0
 36 37  1  0  0  0  0
M  END
>  <MODEL>
6

>  <REMARK>
 VINA RESULT:      -7.5      4.417      7.249
  Name = 
  2 active torsions:
  status: ('A' for Active; 'I' for Inactive)
    1  A    between atoms: CA_4  and  C_37
    2  A    between atoms: C_23  and  C_30
                            x       y       z     vdW  Elec       q    Type
                         _______ _______ _______ _____ _____    ______ ____

>  <TORSDO>
F 2

$$$$
=
 OpenBabel11112417213D

 37 43  0  0  1  0  0  0  0  0999 V2000
  191.6160  175.2560  145.9400 C   0  0  0  0  0  2  0  0  0  0  0  0
  187.3290  176.9260  142.4160 C   0  0  0  0  0  0  0  0  0  0  0  0
  190.0400  173.7730  142.0910 C   0  0  0  0  0  0  0  0  0  0  0  0
  192.1710  176.1120  147.0930 C   0  0  1  0  0  3  0  0  0  0  0  0
  193.4250  174.3840  142.8440 C   0  0  0  0  0  2  0  0  0  0  0  0
  188.2060  175.0780  140.9820 C   0  0  0  0  0  0  0  0  0  0  0  0
  190.9380  174.1120  143.0990 C   0  0  0  0  0  0  0  0  0  0  0  0
  194.1710  176.6500  145.8760 C   0  0  1  0  0  3  0  0  0  0  0  0
  189.1080  174.7670  142.0740 C   0  0  0  0  0  0  0  0  0  0  0  0
  192.2910  173.4740  143.3050 C   0  0  1  0  0  3  0  0  0  0  0  0
  188.4790  174.2710  139.4000 S   0  0  0  0  0  0  0  0  0  0  0  0
  193.0430  177.1960  146.6320 N   0  0  0  0  0  2  0  0  0  0  0  0
  189.3840  175.6330  143.0870 C   0  0  0  0  0  0  0  0  0  0  0  0
  186.2740  176.2950  143.3070 C   0  0  0  0  0  1  0  0  0  0  0  0
  191.4600  172.7140  140.3660 C   0  0  0  0  0  2  0  0  0  0  0  0
  188.9110  172.6360  140.1240 C   0  0  0  0  0  2  0  0  0  0  0  0
  188.6830  176.9620  143.1790 C   0  0  0  0  0  2  0  0  0  0  0  0
  193.8100  176.3710  144.4080 C   0  0  1  0  0  3  0  0  0  0  0  0
  194.1450  174.9150  144.0730 C   0  0  0  0  0  2  0  0  0  0  0  0
  190.1210  172.6670  141.0820 C   0  0  2  0  0  3  0  0  0  0  0  0
  190.5140  175.2510  143.7200 N   0  0  0  0  0  0  0  0  0  0  0  0
  187.4090  176.1480  141.1080 C   0  0  0  0  0  3  0  0  0  0  0  0
  192.3960  172.0600  142.7030 C   0  0  1  0  0  3  0  0  0  0  0  0
  186.9060  178.3480  142.1120 C   0  0  0  0  0  1  0  0  0  0  0  0
  192.3870  176.8250  144.0150 C   0  0  0  0  0  2  0  0  0  0  0  0
  195.2390  177.5450  145.9270 O   0  0  0  0  0  1  0  0  0  0  0  0
  191.2320  176.0700  144.6970 C   0  0  2  0  0  3  0  0  0  0  0  0
  192.5560  171.9980  141.1690 C   0  0  0  0  0  2  0  0  0  0  0  0
  193.5320  171.3080  144.7970 C   0  0  0  0  0  3  0  0  0  0  0  0
  193.4290  171.2330  143.4030 C   0  0  0  0  0  0  0  0  0  0  0  0
  194.3120  170.4100  142.6860 C   0  0  0  0  0  3  0  0  0  0  0  0
  196.1740  168.8310  142.6320 N   0  0  0  0  0  1  0  0  0  0  0  0
  195.3770  169.7390  144.7540 C   0  0  0  0  0  3  0  0  0  0  0  0
  195.2820  169.6650  143.3610 C   0  0  0  0  0  0  0  0  0  0  0  0
  194.5020  170.5610  145.4710 C   0  0  0  0  0  3  0  0  0  0  0  0
  191.5410  177.5330  148.9060 O   0  0  0  0  0  1  0  0  0  0  0  0
  191.0330  176.7010  147.9070 C   0  0  0  0  0  2  0  0  0  0  0  0
  1  4  1  0  0  0  0
  2 17  1  0  0  0  0
  2 14  1  0  0  0  0
  3  7  2  0  0  0  0
  4 37  1  6  0  0  0
  5 19  1  0  0  0  0
  6 22  2  0  0  0  0
  6  9  1  0  0  0  0
  7 10  1  0  0  0  0
  7 21  1  0  0  0  0
  8 26  1  6  0  0  0
  8 12  1  0  0  0  0
  9  3  1  0  0  0  0
  9 13  2  0  0  0  0
 10  5  1  6  0  0  0
 11 16  1  0  0  0  0
 11  6  1  0  0  0  0
 12  4  1  0  0  0  0
 13 17  1  0  0  0  0
 13 21  1  0  0  0  0
 15 20  1  0  0  0  0
 15 28  1  0  0  0  0
 18 25  1  1  0  0  0
 18  8  1  0  0  0  0
 19 18  1  0  0  0  0
 20 16  1  6  0  0  0
 20  3  1  0  0  0  0
 21 27  1  0  0  0  0
 22  2  1  0  0  0  0
 23 10  1  0  0  0  0
 23 30  1  1  0  0  0
 24  2  1  0  0  0  0
 27 25  1  6  0  0  0
 27  1  1  0  0  0  0
 28 23  1  0  0  0  0
 29 35  1  0  0  0  0
 30 29  2  0  0  0  0
 31 34  2  0  0  0  0
 31 30  1  0  0  0  0
 32 34  1  0  0  0  0
 33 35  2  0  0  0  0
 34 33  1  0  0  0  0
 37 36  1  0  0  0  0
M  END
>  <MODEL>
7

>  <REMARK>
 VINA RESULT:      -7.5      3.101      5.188
  Name = 
  2 active torsions:
  status: ('A' for Active; 'I' for Inactive)
    1  A    between atoms: CA_4  and  C_37
    2  A    between atoms: C_23  and  C_30
                            x       y       z     vdW  Elec       q    Type
                         _______ _______ _______ _____ _____    ______ ____

>  <TORSDO>
F 2

$$$$
=
 OpenBabel11112417213D

 37 43  0  0  1  0  0  0  0  0999 V2000
  194.1460  175.4080  144.8400 C   0  0  0  0  0  2  0  0  0  0  0  0
  188.9600  177.0760  142.8640 C   0  0  0  0  0  0  0  0  0  0  0  0
  190.5840  173.2660  143.3490 C   0  0  0  0  0  0  0  0  0  0  0  0
  195.3450  176.3560  145.0290 C   0  0  1  0  0  3  0  0  0  0  0  0
  193.9100  172.7140  142.3290 C   0  0  0  0  0  2  0  0  0  0  0  0
  188.6640  174.6260  142.4790 C   0  0  0  0  0  0  0  0  0  0  0  0
  191.9170  173.5910  143.5880 C   0  0  0  0  0  0  0  0  0  0  0  0
  196.4660  175.5040  143.0840 C   0  0  1  0  0  3  0  0  0  0  0  0
  189.9450  174.4490  143.1350 C   0  0  0  0  0  0  0  0  0  0  0  0
  193.0630  172.6080  143.5930 C   0  0  1  0  0  3  0  0  0  0  0  0
  187.9420  173.2130  141.6350 S   0  0  0  0  0  0  0  0  0  0  0  0
  195.9990  176.7100  143.7670 N   0  0  0  0  0  2  0  0  0  0  0  0
  190.8380  175.4600  143.3170 C   0  0  0  0  0  0  0  0  0  0  0  0
  188.4460  177.3400  144.2680 C   0  0  0  0  0  1  0  0  0  0  0  0
  190.7110  171.1280  142.1130 C   0  0  0  0  0  2  0  0  0  0  0  0
  188.4360  171.9880  142.9160 C   0  0  0  0  0  2  0  0  0  0  0  0
  190.5000  176.8700  142.9160 C   0  0  0  0  0  2  0  0  0  0  0  0
  195.3520  174.8260  142.2680 C   0  0  1  0  0  3  0  0  0  0  0  0
  195.2370  173.3590  142.6930 C   0  0  0  0  0  2  0  0  0  0  0  0
  189.9570  171.9160  143.1700 C   0  0  2  0  0  3  0  0  0  0  0  0
  192.0590  174.9490  143.5850 N   0  0  0  0  0  0  0  0  0  0  0  0
  188.2240  175.8750  142.2810 C   0  0  0  0  0  3  0  0  0  0  0  0
  192.6210  171.1600  143.8790 C   0  0  1  0  0  3  0  0  0  0  0  0
  188.6610  178.2910  142.0120 C   0  0  0  0  0  1  0  0  0  0  0  0
  194.0220  175.6110  142.2500 C   0  0  0  0  0  2  0  0  0  0  0  0
  197.5230  175.8320  142.2350 O   0  0  0  0  0  1  0  0  0  0  0  0
  193.2960  175.7290  143.6030 C   0  0  2  0  0  3  0  0  0  0  0  0
  191.9420  170.4250  142.7030 C   0  0  0  0  0  2  0  0  0  0  0  0
  193.7120  168.9570  144.3230 C   0  0  0  0  0  3  0  0  0  0  0  0
  193.7280  170.3480  144.4760 C   0  0  0  0  0  0  0  0  0  0  0  0
  194.7610  170.9520  145.2090 C   0  0  0  0  0  3  0  0  0  0  0  0
  196.8180  170.7870  146.5160 N   0  0  0  0  0  1  0  0  0  0  0  0
  195.7530  168.7820  145.6150 C   0  0  0  0  0  3  0  0  0  0  0  0
  195.7710  170.1700  145.7750 C   0  0  0  0  0  0  0  0  0  0  0  0
  194.7230  168.1760  144.8890 C   0  0  0  0  0  3  0  0  0  0  0  0
  194.1920  177.3060  146.8920 O   0  0  0  0  0  1  0  0  0  0  0  0
  194.9070  177.6250  145.7370 C   0  0  0  0  0  2  0  0  0  0  0  0
  1  4  1  0  0  0  0
  2 17  1  0  0  0  0
  2 14  1  0  0  0  0
  3  7  2  0  0  0  0
  4 37  1  6  0  0  0
  5 19  1  0  0  0  0
  6  9  1  0  0  0  0
  7 10  1  0  0  0  0
  8 26  1  6  0  0  0
  8 12  1  0  0  0  0
  9 13  2  0  0  0  0
  9  3  1  0  0  0  0
 10  5  1  6  0  0  0
 10 23  1  0  0  0  0
 11  6  1  0  0  0  0
 11 16  1  0  0  0  0
 12  4  1  0  0  0  0
 13 21  1  0  0  0  0
 15 28  1  0  0  0  0
 16 20  1  0  0  0  0
 17 13  1  0  0  0  0
 18 25  1  1  0  0  0
 18 19  1  0  0  0  0
 18  8  1  0  0  0  0
 20 15  1  6  0  0  0
 20  3  1  0  0  0  0
 21  7  1  0  0  0  0
 21 27  1  0  0  0  0
 22  6  2  0  0  0  0
 22  2  1  0  0  0  0
 23 30  1  6  0  0  0
 24  2  1  0  0  0  0
 27 25  1  6  0  0  0
 27  1  1  0  0  0  0
 28 23  1  0  0  0  0
 29 30  2  0  0  0  0
 29 35  1  0  0  0  0
 30 31  1  0  0  0  0
 31 34  2  0  0  0  0
 33 34  1  0  0  0  0
 34 32  1  0  0  0  0
 35 33  2  0  0  0  0
 37 36  1  0  0  0  0
M  END
>  <MODEL>
8

>  <REMARK>
 VINA RESULT:      -7.5      3.919      6.115
  Name = 
  2 active torsions:
  status: ('A' for Active; 'I' for Inactive)
    1  A    between atoms: CA_4  and  C_37
    2  A    between atoms: C_23  and  C_30
                            x       y       z     vdW  Elec       q    Type
                         _______ _______ _______ _____ _____    ______ ____

>  <TORSDO>
F 2

$$$$
=
 OpenBabel11112417213D

 37 43  0  0  1  0  0  0  0  0999 V2000
  191.8220  174.4620  146.0460 C   0  0  0  0  0  2  0  0  0  0  0  0
  188.3910  174.9550  141.4020 C   0  0  0  0  0  0  0  0  0  0  0  0
  191.7130  172.5260  142.0780 C   0  0  0  0  0  0  0  0  0  0  0  0
  191.8420  175.4610  147.2170 C   0  0  1  0  0  3  0  0  0  0  0  0
  194.5470  173.9460  143.6120 C   0  0  0  0  0  2  0  0  0  0  0  0
  190.0070  173.3240  140.4200 C   0  0  0  0  0  0  0  0  0  0  0  0
  192.2080  173.1000  143.2470 C   0  0  0  0  0  0  0  0  0  0  0  0
  193.9270  176.4190  146.5080 C   0  0  1  0  0  3  0  0  0  0  0  0
  190.6260  173.2700  141.7310 C   0  0  0  0  0  0  0  0  0  0  0  0
  193.5600  172.8080  143.8510 C   0  0  1  0  0  3  0  0  0  0  0  0
  190.8690  172.5540  139.0430 S   0  0  0  0  0  0  0  0  0  0  0  0
  192.5460  176.7060  146.8950 N   0  0  0  0  0  2  0  0  0  0  0  0
  190.4200  174.2090  142.6940 C   0  0  0  0  0  0  0  0  0  0  0  0
  187.3000  174.1200  142.0490 C   0  0  0  0  0  1  0  0  0  0  0  0
  193.7440  171.7800  140.8820 C   0  0  0  0  0  2  0  0  0  0  0  0
  191.4380  171.0920  140.0040 C   0  0  0  0  0  2  0  0  0  0  0  0
  189.4460  175.3350  142.4790 C   0  0  0  0  0  2  0  0  0  0  0  0
  194.0480  176.0160  145.0280 C   0  0  1  0  0  3  0  0  0  0  0  0
  194.7730  174.6720  144.9290 C   0  0  0  0  0  2  0  0  0  0  0  0
  192.3050  171.4400  141.2330 C   0  0  2  0  0  3  0  0  0  0  0  0
  191.3910  174.1250  143.6290 N   0  0  0  0  0  0  0  0  0  0  0  0
  188.9910  174.1770  140.2370 C   0  0  0  0  0  3  0  0  0  0  0  0
  194.1330  171.4410  143.4310 C   0  0  1  0  0  3  0  0  0  0  0  0
  187.7640  176.2250  140.8670 C   0  0  0  0  0  1  0  0  0  0  0  0
  192.7200  176.1070  144.2440 C   0  0  0  0  0  2  0  0  0  0  0  0
  194.7170  177.5430  146.7450 O   0  0  0  0  0  1  0  0  0  0  0  0
  191.6190  175.1210  144.6750 C   0  0  2  0  0  3  0  0  0  0  0  0
  194.7120  171.3710  142.0020 C   0  0  0  0  0  2  0  0  0  0  0  0
  196.4630  171.1430  144.2800 C   0  0  0  0  0  3  0  0  0  0  0  0
  195.0940  170.9050  144.4460 C   0  0  0  0  0  0  0  0  0  0  0  0
  194.6500  170.1450  145.5400 C   0  0  0  0  0  3  0  0  0  0  0  0
  195.1160  168.8700  147.5690 N   0  0  0  0  0  1  0  0  0  0  0  0
  196.9350  169.8830  146.2940 C   0  0  0  0  0  3  0  0  0  0  0  0
  195.5690  169.6380  146.4610 C   0  0  0  0  0  0  0  0  0  0  0  0
  197.3820  170.6360  145.2030 C   0  0  0  0  0  3  0  0  0  0  0  0
  189.6090  174.6660  147.5110 O   0  0  0  0  0  1  0  0  0  0  0  0
  190.4250  175.7890  147.6540 C   0  0  0  0  0  2  0  0  0  0  0  0
  1  4  1  0  0  0  0
  2 14  1  0  0  0  0
  2 17  1  0  0  0  0
  3  7  2  0  0  0  0
  4 37  1  6  0  0  0
  5 19  1  0  0  0  0
  6  9  1  0  0  0  0
  7 21  1  0  0  0  0
  7 10  1  0  0  0  0
  8 26  1  6  0  0  0
  8 12  1  0  0  0  0
  9  3  1  0  0  0  0
  9 13  2  0  0  0  0
 10  5  1  6  0  0  0
 11 16  1  0  0  0  0
 11  6  1  0  0  0  0
 12  4  1  0  0  0  0
 13 21  1  0  0  0  0
 15 20  1  0  0  0  0
 15 28  1  0  0  0  0
 17 13  1  0  0  0  0
 18 25  1  1  0  0  0
 18  8  1  0  0  0  0
 19 18  1  0  0  0  0
 20 16  1  6  0  0  0
 20  3  1  0  0  0  0
 21 27  1  0  0  0  0
 22  6  2  0  0  0  0
 22  2  1  0  0  0  0
 23 10  1  0  0  0  0
 23 30  1  1  0  0  0
 24  2  1  0  0  0  0
 27 25  1  6  0  0  0
 27  1  1  0  0  0  0
 28 23  1  0  0  0  0
 29 30  2  0  0  0  0
 29 35  1  0  0  0  0
 30 31  1  0  0  0  0
 31 34  2  0  0  0  0
 33 34  1  0  0  0  0
 34 32  1  0  0  0  0
 35 33  2  0  0  0  0
 36 37  1  0  0  0  0
M  END
>  <MODEL>
9

>  <REMARK>
 VINA RESULT:      -7.4      3.973      6.843
  Name = 
  2 active torsions:
  status: ('A' for Active; 'I' for Inactive)
    1  A    between atoms: CA_4  and  C_37
    2  A    between atoms: C_23  and  C_30
                            x       y       z     vdW  Elec       q    Type
                         _______ _______ _______ _____ _____    ______ ____

>  <TORSDO>
F 2

$$$$
