=
 OpenBabel11112417193D

 37 43  0  0  1  0  0  0  0  0999 V2000
  190.0740  172.9410  142.6410 C   0  0  0  0  0  2  0  0  0  0  0  0
  194.6640  175.9070  144.3520 S   0  0  0  0  0  0  0  0  0  0  0  0
  190.5100  175.3250  145.4310 C   0  0  2  0  0  3  0  0  0  0  0  0
  190.4830  171.6880  141.8270 C   0  0  1  0  0  3  0  0  0  0  0  0
  188.1370  176.0680  142.5750 C   0  0  0  0  0  2  0  0  0  0  0  0
  192.8550  175.2650  146.2400 C   0  0  0  0  0  0  0  0  0  0  0  0
  189.7810  175.0500  144.2600 N   0  0  1  0  0  0  0  0  0  0  0  0
  189.0070  172.6260  139.9040 C   0  0  2  0  0  3  0  0  0  0  0  0
  191.9470  175.1460  145.2030 C   0  0  0  0  0  0  0  0  0  0  0  0
  188.4590  175.7820  144.0750 C   0  0  1  0  0  3  0  0  0  0  0  0
  192.1890  175.2830  147.6610 C   0  0  0  0  0  3  0  0  0  0  0  0
  190.1460  171.7240  140.3470 C   0  0  0  0  0  2  0  0  0  0  0  0
  192.2850  174.9950  143.7440 C   0  0  2  0  0  3  0  0  0  0  0  0
  195.5350  174.7650  143.8390 O   0  0  0  0  0  0  0  0  0  0  0  0
  188.5470  175.2260  146.9640 C   0  0  0  0  0  2  0  0  0  0  0  0
  190.8340  175.2830  147.8490 C   0  0  0  0  0  3  0  0  0  0  0  0
  193.2070  176.0980  143.3440 C   0  0  0  0  0  2  0  0  0  0  0  0
  189.1800  174.1600  139.8700 C   0  0  0  0  0  2  0  0  0  0  0  0
  188.1620  174.8770  141.8470 O   0  0  0  0  0  0  0  0  0  0  0  0
  190.0000  175.0340  146.7410 N   0  0  0  0  0  0  0  0  0  0  0  0
  190.8090  175.2300  143.2260 C   0  0  1  0  0  3  0  0  0  0  0  0
  194.1450  175.6190  145.9930 N   0  0  0  0  0  2  0  0  0  0  0  0
  188.2080  176.9710  145.0540 C   0  0  2  0  0  3  0  0  0  0  0  0
  195.4160  177.1660  144.4130 O   0  0  0  0  0  0  0  0  0  0  0  0
  189.3460  174.9240  141.1610 C   0  0  1  0  0  3  0  0  0  0  0  0
  187.6920  172.0950  139.7580 O   0  0  0  0  0  1  0  0  0  0  0  0
  190.4820  174.3450  142.0170 C   0  0  2  0  0  3  0  0  0  0  0  0
  188.0470  176.6030  146.5410 C   0  0  0  0  0  2  0  0  0  0  0  0
  187.0580  178.6260  143.5170 C   0  0  0  0  0  3  0  0  0  0  0  0
  187.0250  177.8210  144.6860 C   0  0  0  0  0  0  0  0  0  0  0  0
  185.9090  177.8730  145.5590 C   0  0  0  0  0  3  0  0  0  0  0  0
  183.7080  178.7090  146.1770 N   0  0  0  0  0  1  0  0  0  0  0  0
  184.8540  179.4320  144.0890 C   0  0  0  0  0  3  0  0  0  0  0  0
  184.8400  178.6780  145.2730 C   0  0  0  0  0  0  0  0  0  0  0  0
  185.9670  179.4260  143.2200 C   0  0  0  0  0  3  0  0  0  0  0  0
  191.9450  171.1750  143.3970 C   0  0  0  0  0  1  0  0  0  0  0  0
  191.8200  171.3330  142.0070 O   0  0  0  0  0  0  0  0  0  0  0  0
  2 24  2  0  0  0  0
  2 22  1  0  0  0  0
  3  9  1  6  0  0  0
  3 20  1  0  0  0  0
  4 37  1  6  0  0  0
  4  1  1  0  0  0  0
  5 10  1  0  0  0  0
  6 11  1  0  0  0  0
  7  3  1  0  0  0  0
  8 12  1  0  0  0  0
  9  6  2  0  0  0  0
 10  7  1  0  0  0  0
 10 23  1  0  0  0  0
 11 16  2  0  0  0  0
 12  4  1  0  0  0  0
 13  9  1  0  0  0  0
 14  2  2  0  0  0  0
 17 13  1  0  0  0  0
 17  2  1  0  0  0  0
 18  8  1  0  0  0  0
 18 25  1  0  0  0  0
 19  5  1  0  0  0  0
 20 15  1  0  0  0  0
 20 16  1  0  0  0  0
 21 13  1  0  0  0  0
 21  7  1  0  0  0  0
 22  6  1  0  0  0  0
 23 28  1  0  0  0  0
 25 19  1  0  0  0  0
 25 27  1  0  0  0  0
 26  8  1  0  0  0  0
 27  1  1  0  0  0  0
 27 21  1  0  0  0  0
 28 15  1  0  0  0  0
 29 30  1  0  0  0  0
 30 23  1  0  0  0  0
 30 31  2  0  0  0  0
 33 34  2  0  0  0  0
 34 31  1  0  0  0  0
 34 32  1  0  0  0  0
 35 29  2  0  0  0  0
 35 33  1  0  0  0  0
 37 36  1  0  0  0  0
M  END
>  <MODEL>
1

>  <REMARK>
 VINA RESULT:      -9.0      0.000      0.000
  Name = 
  2 active torsions:
  status: ('A' for Active; 'I' for Inactive)
    1  A    between atoms: C_4  and  O_37
    2  A    between atoms: C_23  and  C_30
                            x       y       z     vdW  Elec       q    Type
                         _______ _______ _______ _____ _____    ______ ____

>  <TORSDO>
F 2

$$$$
=
 OpenBabel11112417193D

 37 43  0  0  1  0  0  0  0  0999 V2000
  193.1070  175.9260  143.1130 C   0  0  0  0  0  2  0  0  0  0  0  0
  191.2640  170.6730  141.7690 S   0  0  0  0  0  0  0  0  0  0  0  0
  189.7630  174.7230  142.0970 C   0  0  2  0  0  3  0  0  0  0  0  0
  194.6390  176.0520  142.9210 C   0  0  1  0  0  3  0  0  0  0  0  0
  190.3440  176.2260  145.5230 C   0  0  0  0  0  2  0  0  0  0  0  0
  189.9870  172.7440  140.6160 C   0  0  0  0  0  0  0  0  0  0  0  0
  190.4880  175.3840  143.1050 N   0  0  1  0  0  0  0  0  0  0  0  0
  194.7540  176.7590  145.4190 C   0  0  2  0  0  3  0  0  0  0  0  0
  190.4610  173.5070  141.6680 C   0  0  0  0  0  0  0  0  0  0  0  0
  189.6910  176.2090  144.1060 C   0  0  1  0  0  3  0  0  0  0  0  0
  188.8740  173.4600  139.7710 C   0  0  0  0  0  3  0  0  0  0  0  0
  195.4540  176.1970  144.1930 C   0  0  0  0  0  2  0  0  0  0  0  0
  191.5960  173.1390  142.5870 C   0  0  2  0  0  3  0  0  0  0  0  0
  192.6620  170.3670  141.2420 O   0  0  0  0  0  0  0  0  0  0  0  0
  188.2790  176.6520  141.5610 C   0  0  0  0  0  2  0  0  0  0  0  0
  188.3540  174.6790  140.1060 C   0  0  0  0  0  3  0  0  0  0  0  0
  191.3360  171.7850  143.1590 C   0  0  0  0  0  2  0  0  0  0  0  0
  193.7320  175.9100  146.2060 C   0  0  0  0  0  2  0  0  0  0  0  0
  191.6640  176.6730  145.4340 O   0  0  0  0  0  0  0  0  0  0  0  0
  188.9880  175.4280  141.1170 N   0  0  0  0  0  0  0  0  0  0  0  0
  191.3200  174.2940  143.6310 C   0  0  1  0  0  3  0  0  0  0  0  0
  190.2730  171.4160  140.5400 N   0  0  0  0  0  2  0  0  0  0  0  0
  188.1470  175.9860  144.0820 C   0  0  2  0  0  3  0  0  0  0  0  0
  190.5490  169.4430  142.1310 O   0  0  0  0  0  0  0  0  0  0  0  0
  192.4170  175.5380  145.5680 C   0  0  1  0  0  3  0  0  0  0  0  0
  194.8360  178.1520  145.7110 O   0  0  0  0  0  1  0  0  0  0  0  0
  192.6220  174.8710  144.2000 C   0  0  2  0  0  3  0  0  0  0  0  0
  187.4170  176.4340  142.8010 C   0  0  0  0  0  2  0  0  0  0  0  0
  187.5710  176.0930  146.5470 C   0  0  0  0  0  3  0  0  0  0  0  0
  187.4240  176.6190  145.2380 C   0  0  0  0  0  0  0  0  0  0  0  0
  186.5310  177.6930  144.9940 C   0  0  0  0  0  3  0  0  0  0  0  0
  184.9220  179.3550  145.7500 N   0  0  0  0  0  1  0  0  0  0  0  0
  186.0110  177.7640  147.3240 C   0  0  0  0  0  3  0  0  0  0  0  0
  185.8220  178.2530  146.0220 C   0  0  0  0  0  0  0  0  0  0  0  0
  186.8660  176.6730  147.5890 C   0  0  0  0  0  3  0  0  0  0  0  0
  194.4420  175.1340  140.9250 C   0  0  0  0  0  1  0  0  0  0  0  0
  195.1740  175.0420  142.1200 O   0  0  0  0  0  0  0  0  0  0  0  0
  1 27  1  0  0  0  0
  2 24  2  0  0  0  0
  2 17  1  0  0  0  0
  3  9  1  6  0  0  0
  3  7  1  0  0  0  0
  4 37  1  1  0  0  0
  4  1  1  0  0  0  0
  4 12  1  0  0  0  0
  6  9  2  0  0  0  0
  7 21  1  0  0  0  0
  7 10  1  0  0  0  0
  8 26  1  0  0  0  0
  8 18  1  0  0  0  0
  9 13  1  0  0  0  0
 10  5  1  0  0  0  0
 11 16  2  0  0  0  0
 11  6  1  0  0  0  0
 12  8  1  0  0  0  0
 13 17  1  0  0  0  0
 13 21  1  0  0  0  0
 14  2  2  0  0  0  0
 15 28  1  0  0  0  0
 16 20  1  0  0  0  0
 19  5  1  0  0  0  0
 19 25  1  0  0  0  0
 20 15  1  0  0  0  0
 20  3  1  0  0  0  0
 21 27  1  0  0  0  0
 22  6  1  0  0  0  0
 22  2  1  0  0  0  0
 23 10  1  0  0  0  0
 23 30  1  0  0  0  0
 25 18  1  0  0  0  0
 27 25  1  0  0  0  0
 28 23  1  0  0  0  0
 29 35  1  0  0  0  0
 30 29  2  0  0  0  0
 31 30  1  0  0  0  0
 31 34  2  0  0  0  0
 32 34  1  0  0  0  0
 33 35  2  0  0  0  0
 34 33  1  0  0  0  0
 36 37  1  0  0  0  0
M  END
>  <MODEL>
2

>  <REMARK>
 VINA RESULT:      -8.7      2.258      5.568
  Name = 
  2 active torsions:
  status: ('A' for Active; 'I' for Inactive)
    1  A    between atoms: C_4  and  O_37
    2  A    between atoms: C_23  and  C_30
                            x       y       z     vdW  Elec       q    Type
                         _______ _______ _______ _____ _____    ______ ____

>  <TORSDO>
F 2

$$$$
=
 OpenBabel11112417193D

 37 43  0  0  1  0  0  0  0  0999 V2000
  191.1660  172.4250  143.6320 C   0  0  0  0  0  2  0  0  0  0  0  0
  194.6840  176.5490  145.4780 S   0  0  0  0  0  0  0  0  0  0  0  0
  190.4520  175.6420  145.3040 C   0  0  2  0  0  3  0  0  0  0  0  0
  191.8990  171.0640  143.5250 C   0  0  1  0  0  3  0  0  0  0  0  0
  189.2450  174.9580  141.7810 C   0  0  0  0  0  2  0  0  0  0  0  0
  192.3440  176.2690  146.7820 C   0  0  0  0  0  0  0  0  0  0  0  0
  190.2100  174.8670  144.1550 N   0  0  1  0  0  0  0  0  0  0  0  0
  191.1790  171.0300  141.0280 C   0  0  2  0  0  3  0  0  0  0  0  0
  191.8800  175.6530  145.6330 C   0  0  0  0  0  0  0  0  0  0  0  0
  189.0140  175.2520  143.2960 C   0  0  1  0  0  3  0  0  0  0  0  0
  191.2080  176.6440  147.7980 C   0  0  0  0  0  3  0  0  0  0  0  0
  192.1200  170.5430  142.1170 C   0  0  0  0  0  2  0  0  0  0  0  0
  192.7310  175.0840  144.5290 C   0  0  2  0  0  3  0  0  0  0  0  0
  195.7320  175.4740  145.7390 O   0  0  0  0  0  0  0  0  0  0  0  0
  188.0740  175.7190  146.0460 C   0  0  0  0  0  2  0  0  0  0  0  0
  189.8800  176.4690  147.5270 C   0  0  0  0  0  3  0  0  0  0  0  0
  193.6840  176.1330  144.0630 C   0  0  0  0  0  2  0  0  0  0  0  0
  191.2830  172.4690  140.4780 C   0  0  0  0  0  2  0  0  0  0  0  0
  189.5860  173.6160  141.6030 O   0  0  0  0  0  0  0  0  0  0  0  0
  189.5160  175.7220  146.3890 N   0  0  0  0  0  0  0  0  0  0  0  0
  191.5340  174.8690  143.5180 C   0  0  1  0  0  3  0  0  0  0  0  0
  193.6190  176.7410  146.8470 N   0  0  0  0  0  2  0  0  0  0  0  0
  188.3710  176.6360  143.6210 C   0  0  2  0  0  3  0  0  0  0  0  0
  195.3040  177.8680  145.3000 O   0  0  0  0  0  0  0  0  0  0  0  0
  190.9350  173.6370  141.3670 C   0  0  1  0  0  3  0  0  0  0  0  0
  190.0330  170.2580  140.6790 O   0  0  0  0  0  1  0  0  0  0  0  0
  191.7090  173.5880  142.6930 C   0  0  2  0  0  3  0  0  0  0  0  0
  187.6990  176.7650  145.0010 C   0  0  0  0  0  2  0  0  0  0  0  0
  187.7620  177.3330  141.2620 C   0  0  0  0  0  3  0  0  0  0  0  0
  187.3650  177.0910  142.6030 C   0  0  0  0  0  0  0  0  0  0  0  0
  186.0320  177.3560  143.0130 C   0  0  0  0  0  3  0  0  0  0  0  0
  183.7530  178.0750  142.5570 N   0  0  0  0  0  1  0  0  0  0  0  0
  185.4940  178.0070  140.7790 C   0  0  0  0  0  3  0  0  0  0  0  0
  185.1090  177.8200  142.1160 C   0  0  0  0  0  0  0  0  0  0  0  0
  186.8210  177.7860  140.3520 C   0  0  0  0  0  3  0  0  0  0  0  0
  193.3420  169.6600  144.4260 C   0  0  0  0  0  1  0  0  0  0  0  0
  193.0950  171.0300  144.2430 O   0  0  0  0  0  0  0  0  0  0  0  0
  2 14  2  0  0  0  0
  2 22  1  0  0  0  0
  3  9  1  1  0  0  0
  3 20  1  0  0  0  0
  4  1  1  0  0  0  0
  4 37  1  6  0  0  0
  5 10  1  0  0  0  0
  6 22  1  0  0  0  0
  6 11  1  0  0  0  0
  7  3  1  0  0  0  0
  8 12  1  0  0  0  0
  9  6  2  0  0  0  0
 10 23  1  0  0  0  0
 10  7  1  0  0  0  0
 12  4  1  0  0  0  0
 13  9  1  0  0  0  0
 15 20  1  0  0  0  0
 16 11  2  0  0  0  0
 17 13  1  0  0  0  0
 17  2  1  0  0  0  0
 18  8  1  0  0  0  0
 18 25  1  0  0  0  0
 19  5  1  0  0  0  0
 20 16  1  0  0  0  0
 21  7  1  0  0  0  0
 21 13  1  0  0  0  0
 23 28  1  0  0  0  0
 24  2  2  0  0  0  0
 25 19  1  0  0  0  0
 25 27  1  0  0  0  0
 26  8  1  0  0  0  0
 27 21  1  0  0  0  0
 27  1  1  0  0  0  0
 28 15  1  0  0  0  0
 29 30  1  0  0  0  0
 30 31  2  0  0  0  0
 30 23  1  0  0  0  0
 33 34  2  0  0  0  0
 34 32  1  0  0  0  0
 34 31  1  0  0  0  0
 35 33  1  0  0  0  0
 35 29  2  0  0  0  0
 37 36  1  0  0  0  0
M  END
>  <MODEL>
3

>  <REMARK>
 VINA RESULT:      -8.1      1.659      2.101
  Name = 
  2 active torsions:
  status: ('A' for Active; 'I' for Inactive)
    1  A    between atoms: C_4  and  O_37
    2  A    between atoms: C_23  and  C_30
                            x       y       z     vdW  Elec       q    Type
                         _______ _______ _______ _____ _____    ______ ____

>  <TORSDO>
F 2

$$$$
=
 OpenBabel11112417193D

 37 43  0  0  1  0  0  0  0  0999 V2000
  191.8450  172.7710  141.4280 C   0  0  0  0  0  2  0  0  0  0  0  0
  189.4190  175.4950  145.8420 S   0  0  0  0  0  0  0  0  0  0  0  0
  193.3430  174.3300  144.4250 C   0  0  2  0  0  3  0  0  0  0  0  0
  190.9300  172.7940  140.1780 C   0  0  1  0  0  3  0  0  0  0  0  0
  193.6290  170.6050  143.8060 C   0  0  0  0  0  2  0  0  0  0  0  0
  191.9310  176.2190  145.1950 C   0  0  0  0  0  0  0  0  0  0  0  0
  193.2150  173.1330  143.6960 N   0  0  1  0  0  0  0  0  0  0  0  0
  191.0620  170.1990  140.2030 C   0  0  2  0  0  3  0  0  0  0  0  0
  192.0390  174.9770  144.5950 C   0  0  0  0  0  0  0  0  0  0  0  0
  194.2300  172.0350  143.9780 C   0  0  1  0  0  3  0  0  0  0  0  0
  193.3050  176.9590  145.3640 C   0  0  0  0  0  3  0  0  0  0  0  0
  190.3310  171.4600  139.7730 C   0  0  0  0  0  2  0  0  0  0  0  0
  190.8950  174.0810  144.2030 C   0  0  2  0  0  3  0  0  0  0  0  0
  188.3200  175.9580  144.8920 O   0  0  0  0  0  0  0  0  0  0  0  0
  195.8150  174.5090  144.1600 C   0  0  0  0  0  2  0  0  0  0  0  0
  194.5040  176.3850  145.0400 C   0  0  0  0  0  3  0  0  0  0  0  0
  190.0120  173.8770  145.3890 C   0  0  0  0  0  2  0  0  0  0  0  0
  191.0340  169.7300  141.6740 C   0  0  0  0  0  2  0  0  0  0  0  0
  193.0780  170.4700  142.5310 O   0  0  0  0  0  0  0  0  0  0  0  0
  194.5000  175.1730  144.3230 N   0  0  0  0  0  0  0  0  0  0  0  0
  191.7950  172.8160  143.9010 C   0  0  1  0  0  3  0  0  0  0  0  0
  190.7790  176.5890  145.8170 N   0  0  0  0  0  2  0  0  0  0  0  0
  195.1100  172.2440  145.2500 C   0  0  2  0  0  3  0  0  0  0  0  0
  188.9590  175.5030  147.2350 O   0  0  0  0  0  0  0  0  0  0  0  0
  191.7260  170.5500  142.7340 C   0  0  1  0  0  3  0  0  0  0  0  0
  191.9870  169.5740  139.3160 O   0  0  0  0  0  1  0  0  0  0  0  0
  191.2690  172.0160  142.7030 C   0  0  2  0  0  3  0  0  0  0  0  0
  196.0850  173.4370  145.2110 C   0  0  0  0  0  2  0  0  0  0  0  0
  197.1140  170.7240  144.9410 C   0  0  0  0  0  3  0  0  0  0  0  0
  195.9160  171.0360  145.6350 C   0  0  0  0  0  0  0  0  0  0  0  0
  195.4260  170.1670  146.6440 C   0  0  0  0  0  3  0  0  0  0  0  0
  195.5990  168.1660  148.0170 N   0  0  0  0  0  1  0  0  0  0  0  0
  197.3270  168.7560  146.3250 C   0  0  0  0  0  3  0  0  0  0  0  0
  196.1150  169.0330  146.9780 C   0  0  0  0  0  0  0  0  0  0  0  0
  197.8190  169.5850  145.2930 C   0  0  0  0  0  3  0  0  0  0  0  0
  188.7880  173.1160  139.7600 C   0  0  0  0  0  1  0  0  0  0  0  0
  189.9310  173.7670  140.2510 O   0  0  0  0  0  0  0  0  0  0  0  0
  1 27  1  0  0  0  0
  2 24  2  0  0  0  0
  3  9  1  6  0  0  0
  4 37  1  1  0  0  0
  4  1  1  0  0  0  0
  5 10  1  0  0  0  0
  6 11  1  0  0  0  0
  6 22  1  0  0  0  0
  7 21  1  0  0  0  0
  7 10  1  0  0  0  0
  7  3  1  0  0  0  0
  8 18  1  0  0  0  0
  9  6  2  0  0  0  0
 10 23  1  0  0  0  0
 12  4  1  0  0  0  0
 12  8  1  0  0  0  0
 13  9  1  0  0  0  0
 13 17  1  0  0  0  0
 14  2  2  0  0  0  0
 15 20  1  0  0  0  0
 15 28  1  0  0  0  0
 16 11  2  0  0  0  0
 17  2  1  0  0  0  0
 18 25  1  0  0  0  0
 19 25  1  0  0  0  0
 19  5  1  0  0  0  0
 20  3  1  0  0  0  0
 20 16  1  0  0  0  0
 21 13  1  0  0  0  0
 22  2  1  0  0  0  0
 23 30  1  0  0  0  0
 26  8  1  0  0  0  0
 27 25  1  0  0  0  0
 27 21  1  0  0  0  0
 28 23  1  0  0  0  0
 29 35  2  0  0  0  0
 29 30  1  0  0  0  0
 30 31  2  0  0  0  0
 31 34  1  0  0  0  0
 33 34  2  0  0  0  0
 34 32  1  0  0  0  0
 35 33  1  0  0  0  0
 36 37  1  0  0  0  0
M  END
>  <MODEL>
4

>  <REMARK>
 VINA RESULT:      -7.8      3.825      7.726
  Name = 
  2 active torsions:
  status: ('A' for Active; 'I' for Inactive)
    1  A    between atoms: C_4  and  O_37
    2  A    between atoms: C_23  and  C_30
                            x       y       z     vdW  Elec       q    Type
                         _______ _______ _______ _____ _____    ______ ____

>  <TORSDO>
F 2

$$$$
=
 OpenBabel11112417193D

 37 43  0  0  1  0  0  0  0  0999 V2000
  192.4850  171.7430  143.4820 C   0  0  0  0  0  2  0  0  0  0  0  0
  196.3740  175.9290  143.1020 S   0  0  0  0  0  0  0  0  0  0  0  0
  192.4480  175.2030  144.7800 C   0  0  2  0  0  3  0  0  0  0  0  0
  193.1370  170.3490  143.3020 C   0  0  1  0  0  3  0  0  0  0  0  0
  189.9370  174.0590  142.1880 C   0  0  0  0  0  2  0  0  0  0  0  0
  194.7640  175.9550  145.2600 C   0  0  0  0  0  0  0  0  0  0  0  0
  191.7780  174.2780  143.9590 N   0  0  1  0  0  0  0  0  0  0  0  0
  191.4740  169.9780  141.3410 C   0  0  2  0  0  3  0  0  0  0  0  0
  193.8880  175.1970  144.5040 C   0  0  0  0  0  0  0  0  0  0  0  0
  190.3300  174.5850  143.6030 C   0  0  1  0  0  3  0  0  0  0  0  0
  194.1270  176.5290  146.5740 C   0  0  0  0  0  3  0  0  0  0  0  0
  192.7820  169.6150  142.0230 C   0  0  0  0  0  2  0  0  0  0  0  0
  194.2310  174.4310  143.2530 C   0  0  2  0  0  3  0  0  0  0  0  0
  197.4590  174.8570  143.0840 O   0  0  0  0  0  0  0  0  0  0  0  0
  190.5690  175.4990  146.3910 C   0  0  0  0  0  2  0  0  0  0  0  0
  192.8050  176.3770  146.8890 C   0  0  0  0  0  3  0  0  0  0  0  0
  194.8980  175.3540  142.2890 C   0  0  0  0  0  2  0  0  0  0  0  0
  191.3210  171.3120  140.5800 C   0  0  0  0  0  2  0  0  0  0  0  0
  190.2010  172.6910  142.0970 O   0  0  0  0  0  0  0  0  0  0  0  0
  192.0270  175.4870  146.1230 N   0  0  0  0  0  0  0  0  0  0  0  0
  192.7330  174.1230  142.8530 C   0  0  1  0  0  3  0  0  0  0  0  0
  195.9480  176.3720  144.7350 N   0  0  0  0  0  2  0  0  0  0  0  0
  189.8480  176.0310  143.9390 C   0  0  2  0  0  3  0  0  0  0  0  0
  196.8470  177.1760  142.4890 O   0  0  0  0  0  0  0  0  0  0  0  0
  191.3400  172.6140  141.3410 C   0  0  1  0  0  3  0  0  0  0  0  0
  190.2970  169.2160  141.6040 O   0  0  0  0  0  1  0  0  0  0  0  0
  192.5830  172.7270  142.2370 C   0  0  2  0  0  3  0  0  0  0  0  0
  189.7870  176.3940  145.4350 C   0  0  0  0  0  2  0  0  0  0  0  0
  187.3240  176.1720  144.1060 C   0  0  0  0  0  3  0  0  0  0  0  0
  188.5090  176.3750  143.3520 C   0  0  0  0  0  0  0  0  0  0  0  0
  188.4340  176.8280  142.0100 C   0  0  0  0  0  3  0  0  0  0  0  0
  187.1720  177.5680  140.0660 N   0  0  0  0  0  1  0  0  0  0  0  0
  186.0570  176.9480  142.2020 C   0  0  0  0  0  3  0  0  0  0  0  0
  187.2220  177.0990  141.4360 C   0  0  0  0  0  0  0  0  0  0  0  0
  186.1000  176.4650  143.5280 C   0  0  0  0  0  3  0  0  0  0  0  0
  194.6950  170.9270  144.7540 C   0  0  0  0  0  1  0  0  0  0  0  0
  194.5220  170.3680  143.4770 O   0  0  0  0  0  0  0  0  0  0  0  0
  2 22  1  0  0  0  0
  3  9  1  1  0  0  0
  3 20  1  0  0  0  0
  4 37  1  6  0  0  0
  4  1  1  0  0  0  0
  5 10  1  0  0  0  0
  6 11  1  0  0  0  0
  7  3  1  0  0  0  0
  8 26  1  0  0  0  0
  8 12  1  0  0  0  0
  9  6  2  0  0  0  0
 10 23  1  0  0  0  0
 10  7  1  0  0  0  0
 11 16  2  0  0  0  0
 12  4  1  0  0  0  0
 13  9  1  0  0  0  0
 14  2  2  0  0  0  0
 17  2  1  0  0  0  0
 17 13  1  0  0  0  0
 18 25  1  0  0  0  0
 18  8  1  0  0  0  0
 19  5  1  0  0  0  0
 20 15  1  0  0  0  0
 20 16  1  0  0  0  0
 21 13  1  0  0  0  0
 21  7  1  0  0  0  0
 22  6  1  0  0  0  0
 23 28  1  0  0  0  0
 24  2  2  0  0  0  0
 25 19  1  0  0  0  0
 25 27  1  0  0  0  0
 27 21  1  0  0  0  0
 27  1  1  0  0  0  0
 28 15  1  0  0  0  0
 30 23  1  0  0  0  0
 30 29  2  0  0  0  0
 31 30  1  0  0  0  0
 32 34  1  0  0  0  0
 33 35  2  0  0  0  0
 34 31  2  0  0  0  0
 34 33  1  0  0  0  0
 35 29  1  0  0  0  0
 37 36  1  0  0  0  0
M  END
>  <MODEL>
5

>  <REMARK>
 VINA RESULT:      -7.7      2.285      3.062
  Name = 
  2 active torsions:
  status: ('A' for Active; 'I' for Inactive)
    1  A    between atoms: C_4  and  O_37
    2  A    between atoms: C_23  and  C_30
                            x       y       z     vdW  Elec       q    Type
                         _______ _______ _______ _____ _____    ______ ____

>  <TORSDO>
F 2

$$$$
=
 OpenBabel11112417193D

 37 43  0  0  1  0  0  0  0  0999 V2000
  192.6660  174.5240  144.6260 C   0  0  0  0  0  2  0  0  0  0  0  0
  188.0200  177.5090  143.1100 S   0  0  0  0  0  0  0  0  0  0  0  0
  190.3580  174.1180  141.7680 C   0  0  2  0  0  3  0  0  0  0  0  0
  192.9690  174.6800  146.1380 C   0  0  1  0  0  3  0  0  0  0  0  0
  194.0070  174.9770  141.2310 C   0  0  0  0  0  2  0  0  0  0  0  0
  188.0920  174.9160  142.3880 C   0  0  0  0  0  0  0  0  0  0  0  0
  191.6990  174.3280  142.1410 N   0  0  1  0  0  0  0  0  0  0  0  0
  195.3180  175.5420  145.4370 C   0  0  2  0  0  3  0  0  0  0  0  0
  189.4660  175.0110  142.5150 C   0  0  0  0  0  0  0  0  0  0  0  0
  192.7640  174.0430  141.0910 C   0  0  1  0  0  3  0  0  0  0  0  0
  187.6150  173.6110  141.6570 C   0  0  0  0  0  3  0  0  0  0  0  0
  194.2180  175.4700  146.4830 C   0  0  0  0  0  2  0  0  0  0  0  0
  190.2150  176.0860  143.2570 C   0  0  2  0  0  3  0  0  0  0  0  0
  187.7750  177.7890  144.5880 O   0  0  0  0  0  0  0  0  0  0  0  0
  190.7620  171.9340  140.6380 C   0  0  0  0  0  2  0  0  0  0  0  0
  188.4820  172.7060  141.1100 C   0  0  0  0  0  3  0  0  0  0  0  0
  189.7650  177.4190  142.7600 C   0  0  0  0  0  2  0  0  0  0  0  0
  195.1530  176.4140  144.1740 C   0  0  0  0  0  2  0  0  0  0  0  0
  194.5300  174.8850  142.5210 O   0  0  0  0  0  0  0  0  0  0  0  0
  189.8550  172.8260  141.4000 N   0  0  0  0  0  0  0  0  0  0  0  0
  191.6390  175.6860  142.6980 C   0  0  1  0  0  3  0  0  0  0  0  0
  187.2990  175.9960  142.6240 N   0  0  0  0  0  2  0  0  0  0  0  0
  192.2370  173.8400  139.6370 C   0  0  2  0  0  3  0  0  0  0  0  0
  187.3770  178.5190  142.2610 O   0  0  0  0  0  0  0  0  0  0  0  0
  194.1260  176.0410  143.1350 C   0  0  1  0  0  3  0  0  0  0  0  0
  196.4030  174.6180  145.4790 O   0  0  0  0  0  1  0  0  0  0  0  0
  192.7340  175.8550  143.7580 C   0  0  2  0  0  3  0  0  0  0  0  0
  191.3610  172.5950  139.4010 C   0  0  0  0  0  2  0  0  0  0  0  0
  194.2390  172.7310  138.5490 C   0  0  0  0  0  3  0  0  0  0  0  0
  193.3210  173.8120  138.5970 C   0  0  0  0  0  0  0  0  0  0  0  0
  193.4690  174.9160  137.7180 C   0  0  0  0  0  3  0  0  0  0  0  0
  194.6060  176.0720  135.9030 N   0  0  0  0  0  1  0  0  0  0  0  0
  195.3530  173.8420  136.7170 C   0  0  0  0  0  3  0  0  0  0  0  0
  194.4800  174.9380  136.7960 C   0  0  0  0  0  0  0  0  0  0  0  0
  195.2500  172.7480  137.6030 C   0  0  0  0  0  3  0  0  0  0  0  0
  192.2850  176.4420  147.2750 C   0  0  0  0  0  1  0  0  0  0  0  0
  191.8790  175.1620  146.8650 O   0  0  0  0  0  0  0  0  0  0  0  0
  1  4  1  0  0  0  0
  2 14  2  0  0  0  0
  3  7  1  0  0  0  0
  3  9  1  1  0  0  0
  4 12  1  0  0  0  0
  4 37  1  1  0  0  0
  5 19  1  0  0  0  0
  6  9  2  0  0  0  0
  6 22  1  0  0  0  0
  7 21  1  0  0  0  0
  8 26  1  0  0  0  0
  8 12  1  0  0  0  0
  9 13  1  0  0  0  0
 10  5  1  0  0  0  0
 10  7  1  0  0  0  0
 11  6  1  0  0  0  0
 15 20  1  0  0  0  0
 16 20  1  0  0  0  0
 16 11  2  0  0  0  0
 17  2  1  0  0  0  0
 17 13  1  0  0  0  0
 18  8  1  0  0  0  0
 19 25  1  0  0  0  0
 20  3  1  0  0  0  0
 21 13  1  0  0  0  0
 21 27  1  0  0  0  0
 22  2  1  0  0  0  0
 23 10  1  0  0  0  0
 24  2  2  0  0  0  0
 25 27  1  0  0  0  0
 25 18  1  0  0  0  0
 27  1  1  0  0  0  0
 28 23  1  0  0  0  0
 28 15  1  0  0  0  0
 29 30  1  0  0  0  0
 30 23  1  0  0  0  0
 31 30  2  0  0  0  0
 32 34  1  0  0  0  0
 33 34  2  0  0  0  0
 33 35  1  0  0  0  0
 34 31  1  0  0  0  0
 35 29  2  0  0  0  0
 37 36  1  0  0  0  0
M  END
>  <MODEL>
6

>  <REMARK>
 VINA RESULT:      -7.7      3.572      8.019
  Name = 
  2 active torsions:
  status: ('A' for Active; 'I' for Inactive)
    1  A    between atoms: C_4  and  O_37
    2  A    between atoms: C_23  and  C_30
                            x       y       z     vdW  Elec       q    Type
                         _______ _______ _______ _____ _____    ______ ____

>  <TORSDO>
F 2

$$$$
=
 OpenBabel11112417193D

 37 43  0  0  1  0  0  0  0  0999 V2000
  190.5640  172.5470  141.7600 C   0  0  0  0  0  2  0  0  0  0  0  0
  195.2810  175.5260  143.0520 S   0  0  0  0  0  0  0  0  0  0  0  0
  191.2460  174.9230  144.5080 C   0  0  2  0  0  3  0  0  0  0  0  0
  190.9020  171.2990  140.9060 C   0  0  1  0  0  3  0  0  0  0  0  0
  188.6180  175.6660  141.8850 C   0  0  0  0  0  2  0  0  0  0  0  0
  193.6560  174.8700  145.0970 C   0  0  0  0  0  0  0  0  0  0  0  0
  190.4140  174.6490  143.4070 N   0  0  1  0  0  0  0  0  0  0  0  0
  189.2520  172.2380  139.1320 C   0  0  2  0  0  3  0  0  0  0  0  0
  192.6570  174.7510  144.1470 C   0  0  0  0  0  0  0  0  0  0  0  0
  189.0780  175.3760  143.3480 C   0  0  1  0  0  3  0  0  0  0  0  0
  193.1240  174.8790  146.5740 C   0  0  0  0  0  3  0  0  0  0  0  0
  190.4300  171.3380  139.4640 C   0  0  0  0  0  2  0  0  0  0  0  0
  192.8590  174.6070  142.6620 C   0  0  2  0  0  3  0  0  0  0  0  0
  196.1060  174.3890  142.4570 O   0  0  0  0  0  0  0  0  0  0  0  0
  189.4340  174.8100  146.2140 C   0  0  0  0  0  2  0  0  0  0  0  0
  191.7920  174.8730  146.8850 C   0  0  0  0  0  3  0  0  0  0  0  0
  193.7370  175.7140  142.1840 C   0  0  0  0  0  2  0  0  0  0  0  0
  189.4140  173.7720  139.0880 C   0  0  0  0  0  2  0  0  0  0  0  0
  188.5810  174.4780  141.1530 O   0  0  0  0  0  0  0  0  0  0  0  0
  190.8600  174.6250  145.8580 N   0  0  0  0  0  0  0  0  0  0  0  0
  191.3410  174.8370  142.2840 C   0  0  1  0  0  3  0  0  0  0  0  0
  194.9170  175.2300  144.7330 N   0  0  0  0  0  2  0  0  0  0  0  0
  188.9130  176.5610  144.3500 C   0  0  2  0  0  3  0  0  0  0  0  0
  196.0300  176.7880  143.0500 O   0  0  0  0  0  0  0  0  0  0  0  0
  189.6960  174.5320  140.3600 C   0  0  1  0  0  3  0  0  0  0  0  0
  187.9310  171.7010  139.1050 O   0  0  0  0  0  1  0  0  0  0  0  0
  190.9080  173.9550  141.1060 C   0  0  2  0  0  3  0  0  0  0  0  0
  188.8920  176.1870  145.8450 C   0  0  0  0  0  2  0  0  0  0  0  0
  187.6150  178.2070  142.9260 C   0  0  0  0  0  3  0  0  0  0  0  0
  187.6980  177.4070  144.0950 C   0  0  0  0  0  0  0  0  0  0  0  0
  186.6720  177.4610  145.0740 C   0  0  0  0  0  3  0  0  0  0  0  0
  184.5400  178.2950  145.8990 N   0  0  0  0  0  1  0  0  0  0  0  0
  185.4760  179.0120  143.7070 C   0  0  0  0  0  3  0  0  0  0  0  0
  185.5790  178.2630  144.8900 C   0  0  0  0  0  0  0  0  0  0  0  0
  186.4990  179.0040  142.7340 C   0  0  0  0  0  3  0  0  0  0  0  0
  192.6160  170.7920  139.6140 C   0  0  0  0  0  1  0  0  0  0  0  0
  192.2510  170.9480  140.9610 O   0  0  0  0  0  0  0  0  0  0  0  0
  2 22  1  0  0  0  0
  3  9  1  6  0  0  0
  3 20  1  0  0  0  0
  4 37  1  6  0  0  0
  4  1  1  0  0  0  0
  5 10  1  0  0  0  0
  6 11  1  0  0  0  0
  7  3  1  0  0  0  0
  8 12  1  0  0  0  0
  9  6  2  0  0  0  0
 10  7  1  0  0  0  0
 10 23  1  0  0  0  0
 11 16  2  0  0  0  0
 12  4  1  0  0  0  0
 13  9  1  0  0  0  0
 14  2  2  0  0  0  0
 17 13  1  0  0  0  0
 17  2  1  0  0  0  0
 18  8  1  0  0  0  0
 18 25  1  0  0  0  0
 19  5  1  0  0  0  0
 20 15  1  0  0  0  0
 20 16  1  0  0  0  0
 21 13  1  0  0  0  0
 21  7  1  0  0  0  0
 22  6  1  0  0  0  0
 23 28  1  0  0  0  0
 24  2  2  0  0  0  0
 25 27  1  0  0  0  0
 25 19  1  0  0  0  0
 26  8  1  0  0  0  0
 27  1  1  0  0  0  0
 27 21  1  0  0  0  0
 28 15  1  0  0  0  0
 29 30  1  0  0  0  0
 30 23  1  0  0  0  0
 30 31  2  0  0  0  0
 33 34  2  0  0  0  0
 34 31  1  0  0  0  0
 34 32  1  0  0  0  0
 35 29  2  0  0  0  0
 35 33  1  0  0  0  0
 36 37  1  0  0  0  0
M  END
>  <MODEL>
7

>  <REMARK>
 VINA RESULT:      -7.7      1.152      1.311
  Name = 
  2 active torsions:
  status: ('A' for Active; 'I' for Inactive)
    1  A    between atoms: C_4  and  O_37
    2  A    between atoms: C_23  and  C_30
                            x       y       z     vdW  Elec       q    Type
                         _______ _______ _______ _____ _____    ______ ____

>  <TORSDO>
F 2

$$$$
=
 OpenBabel11112417193D

 37 43  0  0  1  0  0  0  0  0999 V2000
  189.4170  174.8010  143.3680 C   0  0  0  0  0  2  0  0  0  0  0  0
  190.0400  172.6300  138.1060 S   0  0  0  0  0  0  0  0  0  0  0  0
  191.4920  172.0020  142.1380 C   0  0  2  0  0  3  0  0  0  0  0  0
  188.0700  175.5550  143.5120 C   0  0  1  0  0  3  0  0  0  0  0  0
  193.0730  175.1040  143.6250 C   0  0  0  0  0  2  0  0  0  0  0  0
  190.4110  170.9430  140.1720 C   0  0  0  0  0  0  0  0  0  0  0  0
  191.5150  173.2430  142.8010 N   0  0  1  0  0  0  0  0  0  0  0  0
  189.4670  177.6340  144.2030 C   0  0  2  0  0  3  0  0  0  0  0  0
  190.6620  172.0710  140.9320 C   0  0  0  0  0  0  0  0  0  0  0  0
  192.7600  173.5760  143.6110 C   0  0  1  0  0  3  0  0  0  0  0  0
  190.8140  169.6020  140.8810 C   0  0  0  0  0  3  0  0  0  0  0  0
  188.1700  177.0620  143.6560 C   0  0  0  0  0  2  0  0  0  0  0  0
  190.2880  173.4840  140.5700 C   0  0  2  0  0  3  0  0  0  0  0  0
  188.5980  173.0350  137.8180 O   0  0  0  0  0  0  0  0  0  0  0  0
  192.3940  170.6890  144.0550 C   0  0  0  0  0  2  0  0  0  0  0  0
  191.4470  169.5630  142.0930 C   0  0  0  0  0  3  0  0  0  0  0  0
  190.8190  173.7910  139.2100 C   0  0  0  0  0  2  0  0  0  0  0  0
  190.7460  177.6630  143.3390 C   0  0  0  0  0  2  0  0  0  0  0  0
  191.9640  175.8150  144.0860 O   0  0  0  0  0  0  0  0  0  0  0  0
  191.5450  170.7520  142.8420 N   0  0  0  0  0  0  0  0  0  0  0  0
  191.1430  174.1610  141.7160 C   0  0  1  0  0  3  0  0  0  0  0  0
  190.1180  171.0520  138.8470 N   0  0  0  0  0  2  0  0  0  0  0  0
  193.9860  172.6410  143.3720 C   0  0  2  0  0  3  0  0  0  0  0  0
  190.8150  172.4990  136.8670 O   0  0  0  0  0  0  0  0  0  0  0  0
  191.4220  176.3690  142.9580 C   0  0  1  0  0  3  0  0  0  0  0  0
  189.5910  177.9170  145.5950 O   0  0  0  0  0  1  0  0  0  0  0  0
  190.4380  175.3900  142.3020 C   0  0  2  0  0  3  0  0  0  0  0  0
  193.8200  171.1770  143.8210 C   0  0  0  0  0  2  0  0  0  0  0  0
  195.6470  172.7100  145.2840 C   0  0  0  0  0  3  0  0  0  0  0  0
  195.2600  173.1430  143.9890 C   0  0  0  0  0  0  0  0  0  0  0  0
  196.0300  174.1160  143.3010 C   0  0  0  0  0  3  0  0  0  0  0  0
  197.9410  175.6130  143.1370 N   0  0  0  0  0  1  0  0  0  0  0  0
  197.5750  174.1570  145.1220 C   0  0  0  0  0  3  0  0  0  0  0  0
  197.1670  174.6270  143.8640 C   0  0  0  0  0  0  0  0  0  0  0  0
  196.8090  173.2160  145.8440 C   0  0  0  0  0  3  0  0  0  0  0  0
  186.6900  176.4720  142.0560 C   0  0  0  0  0  1  0  0  0  0  0  0
  187.1520  175.2270  142.5130 O   0  0  0  0  0  0  0  0  0  0  0  0
  1  4  1  0  0  0  0
  2 22  1  0  0  0  0
  2 17  1  0  0  0  0
  3  9  1  1  0  0  0
  3  7  1  0  0  0  0
  3 20  1  0  0  0  0
  4 37  1  6  0  0  0
  4 12  1  0  0  0  0
  5 19  1  0  0  0  0
  6 11  1  0  0  0  0
  6  9  2  0  0  0  0
  7 10  1  0  0  0  0
  8 26  1  0  0  0  0
 10  5  1  0  0  0  0
 11 16  2  0  0  0  0
 12  8  1  0  0  0  0
 13  9  1  0  0  0  0
 13 21  1  0  0  0  0
 14  2  2  0  0  0  0
 16 20  1  0  0  0  0
 17 13  1  0  0  0  0
 18  8  1  0  0  0  0
 20 15  1  0  0  0  0
 21 27  1  0  0  0  0
 21  7  1  0  0  0  0
 22  6  1  0  0  0  0
 23 10  1  0  0  0  0
 23 28  1  0  0  0  0
 23 30  1  0  0  0  0
 24  2  2  0  0  0  0
 25 18  1  0  0  0  0
 25 19  1  0  0  0  0
 27 25  1  0  0  0  0
 27  1  1  0  0  0  0
 28 15  1  0  0  0  0
 29 35  1  0  0  0  0
 30 29  2  0  0  0  0
 31 34  2  0  0  0  0
 31 30  1  0  0  0  0
 32 34  1  0  0  0  0
 33 35  2  0  0  0  0
 34 33  1  0  0  0  0
 36 37  1  0  0  0  0
M  END
>  <MODEL>
8

>  <REMARK>
 VINA RESULT:      -7.6      3.445      7.929
  Name = 
  2 active torsions:
  status: ('A' for Active; 'I' for Inactive)
    1  A    between atoms: C_4  and  O_37
    2  A    between atoms: C_23  and  C_30
                            x       y       z     vdW  Elec       q    Type
                         _______ _______ _______ _____ _____    ______ ____

>  <TORSDO>
F 2

$$$$
=
 OpenBabel11112417193D

 37 43  0  0  1  0  0  0  0  0999 V2000
  193.7050  174.7300  140.5790 C   0  0  0  0  0  2  0  0  0  0  0  0
  191.7150  169.4670  139.5140 S   0  0  0  0  0  0  0  0  0  0  0  0
  190.2760  173.3630  140.7460 C   0  0  2  0  0  3  0  0  0  0  0  0
  195.0510  174.9820  139.8530 C   0  0  1  0  0  3  0  0  0  0  0  0
  192.0220  174.6540  143.8480 C   0  0  0  0  0  2  0  0  0  0  0  0
  190.0170  171.5180  139.1080 C   0  0  0  0  0  0  0  0  0  0  0  0
  191.2950  174.0010  141.4780 N   0  0  1  0  0  0  0  0  0  0  0  0
  196.0530  175.5130  142.1910 C   0  0  2  0  0  3  0  0  0  0  0  0
  190.8150  172.2350  139.9810 C   0  0  0  0  0  0  0  0  0  0  0  0
  190.8920  174.6920  142.7730 C   0  0  1  0  0  3  0  0  0  0  0  0
  188.6420  172.2090  138.7990 C   0  0  0  0  0  3  0  0  0  0  0  0
  196.2720  175.0930  140.7470 C   0  0  0  0  0  2  0  0  0  0  0  0
  192.2240  171.8860  140.3820 C   0  0  2  0  0  3  0  0  0  0  0  0
  192.8300  169.3040  138.4870 O   0  0  0  0  0  0  0  0  0  0  0  0
  188.6210  175.2120  140.9740 C   0  0  0  0  0  2  0  0  0  0  0  0
  188.2330  173.3600  139.4140 C   0  0  0  0  0  3  0  0  0  0  0  0
  192.2500  170.4790  140.8790 C   0  0  0  0  0  2  0  0  0  0  0  0
  195.4320  174.5380  143.2140 C   0  0  0  0  0  2  0  0  0  0  0  0
  193.1950  175.2010  143.3260 O   0  0  0  0  0  0  0  0  0  0  0  0
  189.1640  174.0790  140.1890 N   0  0  0  0  0  0  0  0  0  0  0  0
  192.3070  172.9400  141.5580 C   0  0  1  0  0  3  0  0  0  0  0  0
  190.3090  170.2230  138.8070 N   0  0  0  0  0  2  0  0  0  0  0  0
  189.4590  174.3590  143.2940 C   0  0  2  0  0  3  0  0  0  0  0  0
  191.2360  168.1660  139.9950 O   0  0  0  0  0  0  0  0  0  0  0  0
  193.9910  174.1180  143.0680 C   0  0  1  0  0  3  0  0  0  0  0  0
  196.1810  176.8840  142.5620 O   0  0  0  0  0  1  0  0  0  0  0  0
  193.7020  173.5670  141.6630 C   0  0  2  0  0  3  0  0  0  0  0  0
  188.2890  174.8430  142.4160 C   0  0  0  0  0  2  0  0  0  0  0  0
  189.5980  174.0840  145.8090 C   0  0  0  0  0  3  0  0  0  0  0  0
  189.1900  174.8520  144.6880 C   0  0  0  0  0  0  0  0  0  0  0  0
  188.4540  176.0500  144.8710 C   0  0  0  0  0  3  0  0  0  0  0  0
  187.4050  177.7250  146.2910 N   0  0  0  0  0  1  0  0  0  0  0  0
  188.6030  175.7590  147.2370 C   0  0  0  0  0  3  0  0  0  0  0  0
  188.1510  176.4940  146.1290 C   0  0  0  0  0  0  0  0  0  0  0  0
  189.3060  174.5440  147.0820 C   0  0  0  0  0  3  0  0  0  0  0  0
  194.6530  174.6470  137.7090 C   0  0  0  0  0  1  0  0  0  0  0  0
  195.2930  174.0740  138.8210 O   0  0  0  0  0  0  0  0  0  0  0  0
  1 27  1  0  0  0  0
  2 24  2  0  0  0  0
  2 17  1  0  0  0  0
  3  9  1  6  0  0  0
  3  7  1  0  0  0  0
  4 37  1  6  0  0  0
  4  1  1  0  0  0  0
  4 12  1  0  0  0  0
  6  9  2  0  0  0  0
  7 21  1  0  0  0  0
  7 10  1  0  0  0  0
  8 26  1  0  0  0  0
  8 18  1  0  0  0  0
  9 13  1  0  0  0  0
 10 23  1  0  0  0  0
 10  5  1  0  0  0  0
 11  6  1  0  0  0  0
 11 16  2  0  0  0  0
 12  8  1  0  0  0  0
 13 17  1  0  0  0  0
 13 21  1  0  0  0  0
 14  2  2  0  0  0  0
 15 28  1  0  0  0  0
 16 20  1  0  0  0  0
 19  5  1  0  0  0  0
 20  3  1  0  0  0  0
 20 15  1  0  0  0  0
 21 27  1  0  0  0  0
 22  6  1  0  0  0  0
 22  2  1  0  0  0  0
 23 30  1  0  0  0  0
 25 18  1  0  0  0  0
 25 19  1  0  0  0  0
 27 25  1  0  0  0  0
 28 23  1  0  0  0  0
 29 35  1  0  0  0  0
 30 31  1  0  0  0  0
 30 29  2  0  0  0  0
 31 34  2  0  0  0  0
 34 32  1  0  0  0  0
 34 33  1  0  0  0  0
 35 33  2  0  0  0  0
 36 37  1  0  0  0  0
M  END
>  <MODEL>
9

>  <REMARK>
 VINA RESULT:      -7.5      3.208      6.438
  Name = 
  2 active torsions:
  status: ('A' for Active; 'I' for Inactive)
    1  A    between atoms: C_4  and  O_37
    2  A    between atoms: C_23  and  C_30
                            x       y       z     vdW  Elec       q    Type
                         _______ _______ _______ _____ _____    ______ ____

>  <TORSDO>
F 2

$$$$
