=
 OpenBabel11112417273D

 37 43  0  0  1  0  0  0  0  0999 V2000
  192.4330  173.0860  142.3090 O   0  0  0  0  0  0  0  0  0  0  0  0
  194.8060  176.4280  145.1970 C   0  0  0  0  0  0  0  0  0  0  0  0
  190.8120  175.0280  144.6980 C   0  0  1  0  0  3  0  0  0  0  0  0
  192.9300  172.1600  141.3700 C   0  0  2  0  0  3  0  0  0  0  0  0
  188.7790  174.2860  142.3610 C   0  0  0  0  0  2  0  0  0  0  0  0
  192.8360  175.1160  146.1300 C   0  0  0  0  0  0  0  0  0  0  0  0
  190.7070  175.7500  143.3700 C   0  0  2  0  0  3  0  0  0  0  0  0
  190.6150  171.0250  141.6200 C   0  0  1  0  0  3  0  0  0  0  0  0
  192.2880  175.0120  144.9140 C   0  0  0  0  0  0  0  0  0  0  0  0
  189.3320  175.6930  142.6430 C   0  0  2  0  0  3  0  0  0  0  0  0
  191.9900  175.2090  147.2870 N   0  0  0  0  0  2  0  0  0  0  0  0
  191.8230  171.3020  140.7170 C   0  0  0  0  0  2  0  0  0  0  0  0
  193.0830  175.3080  143.6900 C   0  0  2  0  0  3  0  0  0  0  0  0
  196.1960  176.0230  144.7540 C   0  0  0  0  0  1  0  0  0  0  0  0
  188.6480  175.9100  145.6270 C   0  0  0  0  0  2  0  0  0  0  0  0
  190.5300  175.1990  147.1580 C   0  0  0  0  0  2  0  0  0  0  0  0
  193.9090  176.5680  143.9450 C   0  0  0  0  0  2  0  0  0  0  0  0
  189.4620  171.9990  141.3450 C   0  0  0  0  0  2  0  0  0  0  0  0
  189.8550  173.3930  141.7900 C   0  0  1  0  0  3  0  0  0  0  0  0
  190.1470  175.8260  145.8180 C   0  0  1  0  0  3  0  0  0  0  0  0
  192.0350  175.5020  142.5900 C   0  0  1  0  0  3  0  0  0  0  0  0
  194.3080  175.3930  146.2390 C   0  0  0  0  0  2  0  0  0  0  0  0
  188.2830  176.5330  143.2510 N   0  0  0  0  0  0  0  0  0  0  0  0
  194.8960  177.7840  145.8680 C   0  0  0  0  0  1  0  0  0  0  0  0
  190.8060  174.0970  140.8420 C   0  0  0  0  0  2  0  0  0  0  0  0
  190.1720  169.7220  141.4020 O   0  0  0  0  0  1  0  0  0  0  0  0
  192.1020  174.2800  141.6220 C   0  0  2  0  0  3  0  0  0  0  0  0
  188.3680  177.0270  144.6320 C   0  0  0  0  0  2  0  0  0  0  0  0
  187.3910  177.2520  141.0540 C   0  0  0  0  0  3  0  0  0  0  0  0
  187.1970  177.0070  142.4260 C   0  0  0  0  0  0  0  0  0  0  0  0
  185.9230  177.2350  142.9760 C   0  0  0  0  0  3  0  0  0  0  0  0
  183.6510  177.9070  142.7220 F   0  0  0  0  0  0  0  0  0  0  0  0
  185.0820  177.9320  140.8170 C   0  0  0  0  0  3  0  0  0  0  0  0
  184.8720  177.6940  142.1760 C   0  0  0  0  0  0  0  0  0  0  0  0
  186.3410  177.7110  140.2550 C   0  0  0  0  0  3  0  0  0  0  0  0
  193.9830  171.2760  142.0230 C   0  0  0  0  0  2  0  0  0  0  0  0
  194.2270  171.6860  143.3360 O   0  0  0  0  0  1  0  0  0  0  0  0
  2 24  1  0  0  0  0
  2 22  1  0  0  0  0
  3  9  1  1  0  0  0
  3 20  1  0  0  0  0
  4 36  1  1  0  0  0
  4  1  1  0  0  0  0
  5 10  1  0  0  0  0
  6 22  1  0  0  0  0
  6 11  1  0  0  0  0
  7  3  1  0  0  0  0
  9  6  2  0  0  0  0
 10 23  1  0  0  0  0
 10  7  1  0  0  0  0
 12  4  1  0  0  0  0
 12  8  1  0  0  0  0
 13 17  1  0  0  0  0
 13  9  1  0  0  0  0
 14  2  1  0  0  0  0
 15 20  1  0  0  0  0
 16 11  1  0  0  0  0
 17  2  1  0  0  0  0
 18  8  1  0  0  0  0
 18 19  1  0  0  0  0
 19  5  1  0  0  0  0
 20 16  1  0  0  0  0
 21  7  1  0  0  0  0
 21 13  1  0  0  0  0
 23 28  1  0  0  0  0
 25 27  1  0  0  0  0
 25 19  1  0  0  0  0
 26  8  1  0  0  0  0
 27  1  1  0  0  0  0
 27 21  1  0  0  0  0
 28 15  1  0  0  0  0
 29 30  1  0  0  0  0
 30 31  2  0  0  0  0
 30 23  1  0  0  0  0
 33 34  2  0  0  0  0
 34 32  1  0  0  0  0
 34 31  1  0  0  0  0
 35 33  1  0  0  0  0
 35 29  2  0  0  0  0
 36 37  1  0  0  0  0
M  END
>  <MODEL>
1

>  <REMARK>
 VINA RESULT:      -8.2      0.000      0.000
  Name = 
  2 active torsions:
  status: ('A' for Active; 'I' for Inactive)
    1  A    between atoms: C_4  and  C_36
    2  A    between atoms: N_23  and  C_30
                            x       y       z     vdW  Elec       q    Type
                         _______ _______ _______ _____ _____    ______ ____

>  <TORSDO>
F 2

$$$$
=
 OpenBabel11112417273D

 37 43  0  0  1  0  0  0  0  0999 V2000
  194.0550  173.7600  144.4400 O   0  0  0  0  0  0  0  0  0  0  0  0
  192.0110  169.7430  142.2440 C   0  0  0  0  0  0  0  0  0  0  0  0
  191.2530  173.9340  142.3860 C   0  0  1  0  0  3  0  0  0  0  0  0
  195.2240  173.8920  145.2160 C   0  0  2  0  0  3  0  0  0  0  0  0
  191.1790  176.3130  144.5030 C   0  0  0  0  0  2  0  0  0  0  0  0
  192.0040  171.9870  141.0440 C   0  0  0  0  0  0  0  0  0  0  0  0
  190.7680  173.8150  143.8160 C   0  0  2  0  0  3  0  0  0  0  0  0
  194.9870  176.4220  144.7110 C   0  0  1  0  0  3  0  0  0  0  0  0
  191.9830  172.6460  142.2090 C   0  0  0  0  0  0  0  0  0  0  0  0
  190.2200  175.1100  144.4860 C   0  0  2  0  0  3  0  0  0  0  0  0
  191.3370  172.5430  139.9000 N   0  0  0  0  0  2  0  0  0  0  0  0
  195.4850  175.3430  145.6810 C   0  0  0  0  0  2  0  0  0  0  0  0
  192.3010  171.9490  143.4860 C   0  0  2  0  0  3  0  0  0  0  0  0
  193.1200  168.7930  142.6450 C   0  0  0  0  0  1  0  0  0  0  0  0
  189.2790  175.2630  141.5680 C   0  0  0  0  0  2  0  0  0  0  0  0
  190.6260  173.8210  139.9870 C   0  0  0  0  0  2  0  0  0  0  0  0
  191.6100  170.5860  143.4770 C   0  0  0  0  0  2  0  0  0  0  0  0
  193.6120  176.9660  145.1220 C   0  0  0  0  0  2  0  0  0  0  0  0
  192.5620  175.8890  144.9370 C   0  0  1  0  0  3  0  0  0  0  0  0
  190.0830  173.9890  141.4050 C   0  0  1  0  0  3  0  0  0  0  0  0
  191.7580  172.8790  144.5760 C   0  0  1  0  0  3  0  0  0  0  0  0
  192.4970  170.5680  141.0240 C   0  0  0  0  0  2  0  0  0  0  0  0
  188.8910  175.5320  144.0060 N   0  0  0  0  0  0  0  0  0  0  0  0
  190.8090  168.9220  141.8230 C   0  0  0  0  0  1  0  0  0  0  0  0
  192.5730  174.8250  146.0190 C   0  0  0  0  0  2  0  0  0  0  0  0
  195.9020  177.4720  144.6870 O   0  0  0  0  0  1  0  0  0  0  0  0
  192.9650  173.5320  145.3160 C   0  0  2  0  0  3  0  0  0  0  0  0
  188.3240  175.0620  142.7350 C   0  0  0  0  0  2  0  0  0  0  0  0
  187.8660  175.9650  146.2200 C   0  0  0  0  0  3  0  0  0  0  0  0
  188.0520  176.3250  144.8730 C   0  0  0  0  0  0  0  0  0  0  0  0
  187.4030  177.4750  144.3890 C   0  0  0  0  0  3  0  0  0  0  0  0
  185.9740  179.3480  144.7460 F   0  0  0  0  0  0  0  0  0  0  0  0
  186.4160  177.8710  146.5630 C   0  0  0  0  0  3  0  0  0  0  0  0
  186.5900  178.2430  145.2280 C   0  0  0  0  0  0  0  0  0  0  0  0
  187.0540  176.7320  147.0590 C   0  0  0  0  0  3  0  0  0  0  0  0
  196.4200  173.3490  144.4470 C   0  0  0  0  0  2  0  0  0  0  0  0
  197.5980  173.9790  144.8550 O   0  0  0  0  0  1  0  0  0  0  0  0
  1  4  1  0  0  0  0
  1 27  1  0  0  0  0
  2 14  1  0  0  0  0
  2 17  1  0  0  0  0
  3  9  1  6  0  0  0
  3  7  1  0  0  0  0
  4 36  1  6  0  0  0
  4 12  1  0  0  0  0
  5 19  1  0  0  0  0
  6  9  2  0  0  0  0
  7 10  1  0  0  0  0
  7 21  1  0  0  0  0
  8 18  1  0  0  0  0
  8 12  1  0  0  0  0
  9 13  1  0  0  0  0
 10  5  1  0  0  0  0
 11 16  1  0  0  0  0
 11  6  1  0  0  0  0
 13 21  1  0  0  0  0
 15 28  1  0  0  0  0
 16 20  1  0  0  0  0
 17 13  1  0  0  0  0
 19 18  1  0  0  0  0
 19 25  1  0  0  0  0
 20 15  1  0  0  0  0
 20  3  1  0  0  0  0
 21 27  1  0  0  0  0
 22  6  1  0  0  0  0
 22  2  1  0  0  0  0
 23 10  1  0  0  0  0
 23 30  1  0  0  0  0
 24  2  1  0  0  0  0
 26  8  1  0  0  0  0
 27 25  1  0  0  0  0
 28 23  1  0  0  0  0
 29 35  1  0  0  0  0
 30 29  2  0  0  0  0
 31 30  1  0  0  0  0
 31 34  2  0  0  0  0
 32 34  1  0  0  0  0
 33 35  2  0  0  0  0
 34 33  1  0  0  0  0
 36 37  1  0  0  0  0
M  END
>  <MODEL>
2

>  <REMARK>
 VINA RESULT:      -8.0      2.296      5.585
  Name = 
  2 active torsions:
  status: ('A' for Active; 'I' for Inactive)
    1  A    between atoms: C_4  and  C_36
    2  A    between atoms: N_23  and  C_30
                            x       y       z     vdW  Elec       q    Type
                         _______ _______ _______ _____ _____    ______ ____

>  <TORSDO>
F 2

$$$$
=
 OpenBabel11112417273D

 37 43  0  0  1  0  0  0  0  0999 V2000
  189.8610  176.9000  145.4980 O   0  0  0  0  0  0  0  0  0  0  0  0
  186.9070  177.4780  141.4880 C   0  0  0  0  0  0  0  0  0  0  0  0
  190.0980  174.9070  142.6560 C   0  0  1  0  0  3  0  0  0  0  0  0
  189.8490  177.5410  146.7530 C   0  0  2  0  0  3  0  0  0  0  0  0
  192.9360  175.0650  144.0930 C   0  0  0  0  0  2  0  0  0  0  0  0
  187.6770  175.1520  142.1720 C   0  0  0  0  0  0  0  0  0  0  0  0
  191.0900  176.0410  142.5060 C   0  0  2  0  0  3  0  0  0  0  0  0
  191.3230  175.5520  147.5160 C   0  0  1  0  0  3  0  0  0  0  0  0
  188.8030  175.6450  142.7010 C   0  0  2  0  0  3  0  0  0  0  0  0
  192.5920  175.7010  142.7350 C   0  0  2  0  0  3  0  0  0  0  0  0
  187.6850  173.8490  141.5680 N   0  0  0  0  0  0  0  0  0  0  0  0
  190.9490  177.0270  147.7090 C   0  0  0  0  0  2  0  0  0  0  0  0
  188.9460  177.1030  142.9710 C   0  0  2  0  0  3  0  0  0  0  0  0
  185.9940  178.4950  142.1410 C   0  0  0  0  0  1  0  0  0  0  0  0
  191.4240  173.2420  141.3150 C   0  0  0  0  0  2  0  0  0  0  0  0
  188.9120  173.0490  141.5150 C   0  0  0  0  0  2  0  0  0  0  0  0
  188.3750  177.8720  141.7800 C   0  0  0  0  0  2  0  0  0  0  0  0
  192.5740  175.3910  146.6410 C   0  0  0  0  0  2  0  0  0  0  0  0
  192.2570  175.8090  145.2190 C   0  0  1  0  0  3  0  0  0  0  0  0
  190.1130  173.9900  141.4340 C   0  0  1  0  0  3  0  0  0  0  0  0
  190.4530  177.3160  143.1420 C   0  0  1  0  0  3  0  0  0  0  0  0
  186.5010  176.0690  141.9900 C   0  0  0  0  0  2  0  0  0  0  0  0
  193.2170  174.9290  141.6450 N   0  0  0  0  0  0  0  0  0  0  0  0
  186.6920  177.5380  139.9890 C   0  0  0  0  0  1  0  0  0  0  0  0
  192.1900  177.3110  145.0180 C   0  0  0  0  0  2  0  0  0  0  0  0
  191.5640  174.9750  148.7610 O   0  0  0  0  0  1  0  0  0  0  0  0
  190.7430  177.6090  144.6460 C   0  0  2  0  0  3  0  0  0  0  0  0
  192.4320  174.1750  140.6590 C   0  0  0  0  0  2  0  0  0  0  0  0
  195.2810  176.2750  141.3860 C   0  0  0  0  0  3  0  0  0  0  0  0
  194.6450  175.0220  141.4490 C   0  0  0  0  0  0  0  0  0  0  0  0
  195.4300  173.8630  141.3170 C   0  0  0  0  0  3  0  0  0  0  0  0
  197.5530  172.8270  141.0030 F   0  0  0  0  0  0  0  0  0  0  0  0
  197.4270  175.2050  141.0660 C   0  0  0  0  0  3  0  0  0  0  0  0
  196.8120  173.9530  141.1270 C   0  0  0  0  0  0  0  0  0  0  0  0
  196.6620  176.3660  141.1950 C   0  0  0  0  0  3  0  0  0  0  0  0
  188.4730  177.4040  147.3900 C   0  0  0  0  0  2  0  0  0  0  0  0
  187.8040  176.2870  146.8860 O   0  0  0  0  0  1  0  0  0  0  0  0
  1  4  1  0  0  0  0
  2 17  1  0  0  0  0
  2 22  1  0  0  0  0
  2 14  1  0  0  0  0
  3  9  1  0  0  0  0
  4 36  1  0  0  0  0
  4 12  1  0  0  0  0
  5 19  1  0  0  0  0
  6  9  1  0  0  0  0
  7  3  1  0  0  0  0
  7 10  1  0  0  0  0
  7 21  1  0  0  0  0
  8 12  1  0  0  0  0
  8 26  1  0  0  0  0
  9 13  1  0  0  0  0
 10  5  1  0  0  0  0
 11  6  2  0  0  0  0
 13 21  1  0  0  0  0
 15 20  1  0  0  0  0
 16 11  1  0  0  0  0
 17 13  1  0  0  0  0
 18  8  1  0  0  0  0
 19 18  1  0  0  0  0
 20 16  1  0  0  0  0
 20  3  1  0  0  0  0
 21 27  1  0  0  0  0
 22  6  1  0  0  0  0
 23 10  1  0  0  0  0
 24  2  1  0  0  0  0
 25 19  1  0  0  0  0
 27 25  1  0  0  0  0
 27  1  1  0  0  0  0
 28 15  1  0  0  0  0
 28 23  1  0  0  0  0
 29 30  1  0  0  0  0
 30 23  1  0  0  0  0
 31 30  2  0  0  0  0
 32 34  1  0  0  0  0
 33 34  2  0  0  0  0
 33 35  1  0  0  0  0
 34 31  1  0  0  0  0
 35 29  2  0  0  0  0
 37 36  1  0  0  0  0
M  END
>  <MODEL>
3

>  <REMARK>
 VINA RESULT:      -8.0      3.698      7.795
  Name = 
  2 active torsions:
  status: ('A' for Active; 'I' for Inactive)
    1  A    between atoms: C_4  and  C_36
    2  A    between atoms: N_23  and  C_30
                            x       y       z     vdW  Elec       q    Type
                         _______ _______ _______ _____ _____    ______ ____

>  <TORSDO>
F 2

$$$$
=
 OpenBabel11112417273D

 37 43  0  0  1  0  0  0  0  0999 V2000
  188.7630  174.3010  139.7880 O   0  0  0  0  0  0  0  0  0  0  0  0
  186.7170  177.1070  143.4040 C   0  0  0  0  0  0  0  0  0  0  0  0
  190.5760  175.5550  142.4790 C   0  0  1  0  0  3  0  0  0  0  0  0
  188.2150  173.7920  138.5930 C   0  0  2  0  0  3  0  0  0  0  0  0
  191.9210  172.8590  141.4460 C   0  0  0  0  0  2  0  0  0  0  0  0
  189.1080  177.5480  142.6560 C   0  0  0  0  0  0  0  0  0  0  0  0
  190.1210  174.1580  142.8440 C   0  0  2  0  0  3  0  0  0  0  0  0
  190.6840  173.4520  137.8860 C   0  0  1  0  0  3  0  0  0  0  0  0
  189.2730  176.2630  142.3190 C   0  0  0  0  0  0  0  0  0  0  0  0
  191.1920  173.0300  142.7900 C   0  0  2  0  0  3  0  0  0  0  0  0
  190.2230  178.3010  143.1570 N   0  0  0  0  0  2  0  0  0  0  0  0
  189.2300  172.9810  137.7550 C   0  0  0  0  0  2  0  0  0  0  0  0
  188.1020  175.3530  142.1800 C   0  0  2  0  0  3  0  0  0  0  0  0
  185.3770  177.2560  142.7140 C   0  0  0  0  0  1  0  0  0  0  0  0
  192.6810  175.4930  143.8560 C   0  0  0  0  0  2  0  0  0  0  0  0
  191.5430  177.6840  143.3120 C   0  0  0  0  0  2  0  0  0  0  0  0
  187.1430  175.6210  143.3390 C   0  0  0  0  0  2  0  0  0  0  0  0
  191.4660  172.6110  138.9040 C   0  0  0  0  0  2  0  0  0  0  0  0
  190.9380  172.8800  140.2990 C   0  0  1  0  0  3  0  0  0  0  0  0
  191.3620  176.1990  143.6210 C   0  0  1  0  0  3  0  0  0  0  0  0
  188.7030  173.9450  142.2260 C   0  0  1  0  0  3  0  0  0  0  0  0
  187.7130  178.0970  142.7490 C   0  0  0  0  0  2  0  0  0  0  0  0
  192.1710  173.0630  143.8930 N   0  0  0  0  0  0  0  0  0  0  0  0
  186.5470  177.4860  144.8610 C   0  0  0  0  0  1  0  0  0  0  0  0
  189.6180  172.1960  140.6010 C   0  0  0  0  0  2  0  0  0  0  0  0
  191.3080  173.3560  136.6430 O   0  0  0  0  0  1  0  0  0  0  0  0
  188.6100  173.3210  140.7990 C   0  0  2  0  0  3  0  0  0  0  0  0
  192.4030  174.2630  144.7070 C   0  0  0  0  0  2  0  0  0  0  0  0
  192.3220  170.5900  143.8820 C   0  0  0  0  0  3  0  0  0  0  0  0
  192.8310  171.8390  144.2820 C   0  0  0  0  0  0  0  0  0  0  0  0
  193.9960  171.8690  145.0690 C   0  0  0  0  0  3  0  0  0  0  0  0
  195.7560  170.7320  146.2040 F   0  0  0  0  0  0  0  0  0  0  0  0
  194.1160  169.4530  145.0420 C   0  0  0  0  0  3  0  0  0  0  0  0
  194.6340  170.6840  145.4460 C   0  0  0  0  0  0  0  0  0  0  0  0
  192.9600  169.4050  144.2600 C   0  0  0  0  0  3  0  0  0  0  0  0
  187.6210  174.9270  137.7720 C   0  0  0  0  0  2  0  0  0  0  0  0
  187.0680  175.9020  138.6040 O   0  0  0  0  0  1  0  0  0  0  0  0
  1 27  1  0  0  0  0
  2 24  1  0  0  0  0
  3  9  1  1  0  0  0
  3  7  1  0  0  0  0
  3 20  1  0  0  0  0
  4 36  1  6  0  0  0
  4  1  1  0  0  0  0
  5 10  1  0  0  0  0
  6 22  1  0  0  0  0
  6 11  1  0  0  0  0
  8 18  1  0  0  0  0
  9  6  2  0  0  0  0
 10  7  1  0  0  0  0
 10 23  1  0  0  0  0
 11 16  1  0  0  0  0
 12  8  1  0  0  0  0
 12  4  1  0  0  0  0
 13 21  1  0  0  0  0
 13  9  1  0  0  0  0
 13 17  1  0  0  0  0
 14  2  1  0  0  0  0
 15 28  1  0  0  0  0
 16 20  1  0  0  0  0
 17  2  1  0  0  0  0
 18 19  1  0  0  0  0
 19 25  1  0  0  0  0
 19  5  1  0  0  0  0
 20 15  1  0  0  0  0
 21  7  1  0  0  0  0
 22  2  1  0  0  0  0
 23 30  1  0  0  0  0
 23 28  1  0  0  0  0
 25 27  1  0  0  0  0
 26  8  1  0  0  0  0
 27 21  1  0  0  0  0
 29 35  2  0  0  0  0
 29 30  1  0  0  0  0
 30 31  2  0  0  0  0
 31 34  1  0  0  0  0
 33 34  2  0  0  0  0
 34 32  1  0  0  0  0
 35 33  1  0  0  0  0
 36 37  1  0  0  0  0
M  END
>  <MODEL>
4

>  <REMARK>
 VINA RESULT:      -7.9      3.616      7.074
  Name = 
  2 active torsions:
  status: ('A' for Active; 'I' for Inactive)
    1  A    between atoms: C_4  and  C_36
    2  A    between atoms: N_23  and  C_30
                            x       y       z     vdW  Elec       q    Type
                         _______ _______ _______ _____ _____    ______ ____

>  <TORSDO>
F 2

$$$$
=
 OpenBabel11112417273D

 37 43  0  0  1  0  0  0  0  0999 V2000
  189.8590  173.3840  141.7620 O   0  0  0  0  0  0  0  0  0  0  0  0
  189.0270  176.6370  145.4860 C   0  0  0  0  0  0  0  0  0  0  0  0
  192.3680  174.5340  143.8810 C   0  0  1  0  0  3  0  0  0  0  0  0
  188.9990  172.8870  140.7620 C   0  0  2  0  0  3  0  0  0  0  0  0
  193.1160  171.6280  142.8130 C   0  0  0  0  0  2  0  0  0  0  0  0
  191.2220  176.7120  144.2030 C   0  0  0  0  0  0  0  0  0  0  0  0
  191.8450  173.2320  144.4530 C   0  0  2  0  0  3  0  0  0  0  0  0
  191.1870  172.1810  139.5680 C   0  0  1  0  0  3  0  0  0  0  0  0
  191.1550  175.3990  143.9480 C   0  0  0  0  0  0  0  0  0  0  0  0
  192.7350  171.9700  144.2640 C   0  0  2  0  0  3  0  0  0  0  0  0
  192.5030  177.3360  144.3850 N   0  0  0  0  0  2  0  0  0  0  0  0
  189.6960  171.9030  139.7960 C   0  0  0  0  0  2  0  0  0  0  0  0
  189.8840  174.6480  144.1430 C   0  0  2  0  0  3  0  0  0  0  0  0
  187.5930  176.9260  145.0930 C   0  0  0  0  0  1  0  0  0  0  0  0
  194.7060  174.2680  144.7690 C   0  0  0  0  0  2  0  0  0  0  0  0
  193.7420  176.5580  144.3020 C   0  0  0  0  0  2  0  0  0  0  0  0
  189.2500  175.1070  145.4560 C   0  0  0  0  0  2  0  0  0  0  0  0
  192.0740  171.3010  140.4600 C   0  0  0  0  0  2  0  0  0  0  0  0
  191.9100  171.7160  141.9080 C   0  0  1  0  0  3  0  0  0  0  0  0
  193.4610  175.1300  144.7670 C   0  0  1  0  0  3  0  0  0  0  0  0
  190.3090  173.1770  144.1770 C   0  0  1  0  0  3  0  0  0  0  0  0
  189.9600  177.4470  144.5490 C   0  0  0  0  0  2  0  0  0  0  0  0
  193.9350  171.9340  145.1210 N   0  0  0  0  0  0  0  0  0  0  0  0
  189.2360  177.1160  146.9080 C   0  0  0  0  0  1  0  0  0  0  0  0
  190.6210  171.2330  142.5450 C   0  0  0  0  0  2  0  0  0  0  0  0
  191.4980  171.9330  138.2330 O   0  0  0  0  0  1  0  0  0  0  0  0
  189.8240  172.4920  142.8620 C   0  0  2  0  0  3  0  0  0  0  0  0
  194.4850  173.1360  145.7620 C   0  0  0  0  0  2  0  0  0  0  0  0
  193.8090  169.4620  145.2330 C   0  0  0  0  0  3  0  0  0  0  0  0
  194.5170  170.6560  145.4600 C   0  0  0  0  0  0  0  0  0  0  0  0
  195.8030  170.5790  146.0230 C   0  0  0  0  0  3  0  0  0  0  0  0
  197.6060  169.2860  146.8930 F   0  0  0  0  0  0  0  0  0  0  0  0
  195.6490  168.1660  146.1210 C   0  0  0  0  0  3  0  0  0  0  0  0
  196.3650  169.3420  146.3520 C   0  0  0  0  0  0  0  0  0  0  0  0
  194.3710  168.2260  145.5620 C   0  0  0  0  0  3  0  0  0  0  0  0
  188.3730  174.0440  139.9960 C   0  0  0  0  0  2  0  0  0  0  0  0
  188.2180  175.1580  140.8240 O   0  0  0  0  0  1  0  0  0  0  0  0
  1 27  1  0  0  0  0
  2 24  1  0  0  0  0
  3  9  1  1  0  0  0
  3  7  1  0  0  0  0
  3 20  1  0  0  0  0
  4 36  1  6  0  0  0
  4  1  1  0  0  0  0
  5 10  1  0  0  0  0
  6 11  1  0  0  0  0
  6 22  1  0  0  0  0
  8 12  1  0  0  0  0
  8 18  1  0  0  0  0
  9 13  1  0  0  0  0
  9  6  2  0  0  0  0
 10  7  1  0  0  0  0
 10 23  1  0  0  0  0
 12  4  1  0  0  0  0
 13 21  1  0  0  0  0
 13 17  1  0  0  0  0
 14  2  1  0  0  0  0
 15 28  1  0  0  0  0
 16 11  1  0  0  0  0
 16 20  1  0  0  0  0
 17  2  1  0  0  0  0
 18 19  1  0  0  0  0
 19 25  1  0  0  0  0
 19  5  1  0  0  0  0
 20 15  1  0  0  0  0
 21  7  1  0  0  0  0
 22  2  1  0  0  0  0
 23 30  1  0  0  0  0
 23 28  1  0  0  0  0
 25 27  1  0  0  0  0
 26  8  1  0  0  0  0
 27 21  1  0  0  0  0
 29 30  2  0  0  0  0
 29 35  1  0  0  0  0
 30 31  1  0  0  0  0
 31 34  2  0  0  0  0
 33 34  1  0  0  0  0
 34 32  1  0  0  0  0
 35 33  2  0  0  0  0
 36 37  1  0  0  0  0
M  END
>  <MODEL>
5

>  <REMARK>
 VINA RESULT:      -7.8      3.852      7.302
  Name = 
  2 active torsions:
  status: ('A' for Active; 'I' for Inactive)
    1  A    between atoms: C_4  and  C_36
    2  A    between atoms: N_23  and  C_30
                            x       y       z     vdW  Elec       q    Type
                         _______ _______ _______ _____ _____    ______ ____

>  <TORSDO>
F 2

$$$$
=
 OpenBabel11112417273D

 37 43  0  0  1  0  0  0  0  0999 V2000
  193.1850  172.6830  141.5000 O   0  0  0  0  0  0  0  0  0  0  0  0
  196.8800  175.8430  142.7260 C   0  0  0  0  0  0  0  0  0  0  0  0
  192.9460  174.9700  144.1110 C   0  0  1  0  0  3  0  0  0  0  0  0
  193.1380  171.6430  140.5500 C   0  0  2  0  0  3  0  0  0  0  0  0
  190.0430  174.3690  142.9440 C   0  0  0  0  0  2  0  0  0  0  0  0
  195.3870  174.8700  144.5420 C   0  0  0  0  0  0  0  0  0  0  0  0
  192.3500  175.6170  142.8770 C   0  0  2  0  0  3  0  0  0  0  0  0
  191.0580  170.8500  141.8750 C   0  0  1  0  0  3  0  0  0  0  0  0
  194.3610  174.7670  143.6880 C   0  0  0  0  0  0  0  0  0  0  0  0
  190.7970  175.7030  142.8060 C   0  0  2  0  0  3  0  0  0  0  0  0
  195.1340  175.1480  145.9280 N   0  0  0  0  0  2  0  0  0  0  0  0
  191.7800  170.9050  140.5240 C   0  0  0  0  0  2  0  0  0  0  0  0
  194.5770  174.8770  142.2190 C   0  0  2  0  0  3  0  0  0  0  0  0
  197.8980  175.2260  141.7900 C   0  0  0  0  0  1  0  0  0  0  0  0
  191.4880  176.1930  145.7560 C   0  0  0  0  0  2  0  0  0  0  0  0
  193.7670  175.3280  146.4250 C   0  0  0  0  0  2  0  0  0  0  0  0
  195.5500  176.0270  141.9580 C   0  0  0  0  0  2  0  0  0  0  0  0
  189.9980  171.9530  142.0010 C   0  0  0  0  0  2  0  0  0  0  0  0
  190.6780  173.3050  142.0790 C   0  0  1  0  0  3  0  0  0  0  0  0
  192.9080  175.9180  145.3080 C   0  0  1  0  0  3  0  0  0  0  0  0
  193.1820  175.1440  141.6450 C   0  0  1  0  0  3  0  0  0  0  0  0
  196.7820  174.9510  143.9900 C   0  0  0  0  0  2  0  0  0  0  0  0
  190.1990  176.7140  143.6990 N   0  0  0  0  0  0  0  0  0  0  0  0
  197.3800  177.2120  143.1390 C   0  0  0  0  0  1  0  0  0  0  0  0
  191.1910  173.8150  140.7460 C   0  0  0  0  0  2  0  0  0  0  0  0
  190.4400  169.6090  142.0120 O   0  0  0  0  0  1  0  0  0  0  0  0
  192.7080  173.8670  140.8850 C   0  0  2  0  0  3  0  0  0  0  0  0
  190.9170  177.2740  144.8510 C   0  0  0  0  0  2  0  0  0  0  0  0
  188.5690  177.5160  142.0140 C   0  0  0  0  0  3  0  0  0  0  0  0
  188.9150  177.2790  143.3570 C   0  0  0  0  0  0  0  0  0  0  0  0
  187.9830  177.6050  144.3590 C   0  0  0  0  0  3  0  0  0  0  0  0
  185.8550  178.4600  145.0060 F   0  0  0  0  0  0  0  0  0  0  0  0
  186.4130  178.3830  142.6910 C   0  0  0  0  0  3  0  0  0  0  0  0
  186.7410  178.1530  144.0280 C   0  0  0  0  0  0  0  0  0  0  0  0
  187.3270  178.0650  141.6840 C   0  0  0  0  0  3  0  0  0  0  0  0
  194.2790  170.6660  140.7970 C   0  0  0  0  0  2  0  0  0  0  0  0
  195.2340  171.2260  141.6480 O   0  0  0  0  0  1  0  0  0  0  0  0
  2 24  1  0  0  0  0
  2 22  1  0  0  0  0
  3  9  1  6  0  0  0
  3 20  1  0  0  0  0
  4 36  1  1  0  0  0
  4  1  1  0  0  0  0
  6 11  1  0  0  0  0
  7  3  1  0  0  0  0
  8 18  1  0  0  0  0
  8 26  1  0  0  0  0
  9  6  2  0  0  0  0
 10  7  1  0  0  0  0
 10  5  1  0  0  0  0
 10 23  1  0  0  0  0
 11 16  1  0  0  0  0
 12  4  1  0  0  0  0
 12  8  1  0  0  0  0
 13  9  1  0  0  0  0
 14  2  1  0  0  0  0
 17 13  1  0  0  0  0
 17  2  1  0  0  0  0
 18 19  1  0  0  0  0
 19  5  1  0  0  0  0
 20 15  1  0  0  0  0
 20 16  1  0  0  0  0
 21 13  1  0  0  0  0
 21  7  1  0  0  0  0
 22  6  1  0  0  0  0
 23 28  1  0  0  0  0
 25 27  1  0  0  0  0
 25 19  1  0  0  0  0
 27  1  1  0  0  0  0
 27 21  1  0  0  0  0
 28 15  1  0  0  0  0
 29 30  1  0  0  0  0
 30 23  1  0  0  0  0
 30 31  2  0  0  0  0
 33 34  2  0  0  0  0
 34 31  1  0  0  0  0
 34 32  1  0  0  0  0
 35 29  2  0  0  0  0
 35 33  1  0  0  0  0
 36 37  1  0  0  0  0
M  END
>  <MODEL>
6

>  <REMARK>
 VINA RESULT:      -7.8      1.645      2.262
  Name = 
  2 active torsions:
  status: ('A' for Active; 'I' for Inactive)
    1  A    between atoms: C_4  and  C_36
    2  A    between atoms: N_23  and  C_30
                            x       y       z     vdW  Elec       q    Type
                         _______ _______ _______ _____ _____    ______ ____

>  <TORSDO>
F 2

$$$$
=
 OpenBabel11112417273D

 37 43  0  0  1  0  0  0  0  0999 V2000
  189.6770  173.9740  141.2410 O   0  0  0  0  0  0  0  0  0  0  0  0
  187.6420  176.8750  144.7880 C   0  0  0  0  0  0  0  0  0  0  0  0
  191.5650  175.8570  143.4740 C   0  0  1  0  0  3  0  0  0  0  0  0
  189.0800  173.2260  140.2060 C   0  0  2  0  0  3  0  0  0  0  0  0
  193.2270  173.2990  142.5580 C   0  0  0  0  0  2  0  0  0  0  0  0
  189.7990  177.5910  143.6460 C   0  0  0  0  0  0  0  0  0  0  0  0
  191.4180  174.4660  144.0560 C   0  0  2  0  0  3  0  0  0  0  0  0
  191.4580  173.1970  139.1790 C   0  0  1  0  0  3  0  0  0  0  0  0
  190.1470  176.3160  143.4330 C   0  0  0  0  0  0  0  0  0  0  0  0
  192.6580  173.5300  143.9690 C   0  0  2  0  0  3  0  0  0  0  0  0
  190.8160  178.5760  143.8880 N   0  0  0  0  0  2  0  0  0  0  0  0
  190.1070  172.4850  139.3210 C   0  0  0  0  0  2  0  0  0  0  0  0
  189.1500  175.2190  143.5730 C   0  0  2  0  0  3  0  0  0  0  0  0
  186.2190  176.7110  144.2940 C   0  0  0  0  0  1  0  0  0  0  0  0
  193.8060  176.3230  144.5190 C   0  0  0  0  0  2  0  0  0  0  0  0
  192.2340  178.2070  143.9110 C   0  0  0  0  0  2  0  0  0  0  0  0
  188.3150  175.4830  144.8260 C   0  0  0  0  0  2  0  0  0  0  0  0
  192.5020  172.6400  140.1560 C   0  0  0  0  0  2  0  0  0  0  0  0
  192.1180  173.0060  141.5750 C   0  0  1  0  0  3  0  0  0  0  0  0
  192.3630  176.7680  144.4070 C   0  0  1  0  0  3  0  0  0  0  0  0
  189.9950  173.9460  143.6850 C   0  0  1  0  0  3  0  0  0  0  0  0
  188.3520  177.9160  143.8850 C   0  0  0  0  0  2  0  0  0  0  0  0
  193.7490  173.8700  144.9010 N   0  0  0  0  0  0  0  0  0  0  0  0
  187.5950  177.4150  146.2030 C   0  0  0  0  0  1  0  0  0  0  0  0
  190.9920  172.1640  142.1450 C   0  0  0  0  0  2  0  0  0  0  0  0
  191.9240  173.0370  137.8760 O   0  0  0  0  0  1  0  0  0  0  0  0
  189.8330  173.1280  142.3660 C   0  0  2  0  0  3  0  0  0  0  0  0
  193.8650  175.1900  145.5340 C   0  0  0  0  0  2  0  0  0  0  0  0
  196.0450  173.0770  145.3880 C   0  0  0  0  0  3  0  0  0  0  0  0
  194.6620  172.8330  145.3210 C   0  0  0  0  0  0  0  0  0  0  0  0
  194.1870  171.5560  145.6720 C   0  0  0  0  0  3  0  0  0  0  0  0
  194.5970  169.3290  146.4130 F   0  0  0  0  0  0  0  0  0  0  0  0
  196.4410  170.8110  146.1380 C   0  0  0  0  0  3  0  0  0  0  0  0
  195.0710  170.5520  146.0780 C   0  0  0  0  0  0  0  0  0  0  0  0
  196.9290  172.0730  145.7930 C   0  0  0  0  0  3  0  0  0  0  0  0
  188.1910  174.1290  139.3610 C   0  0  0  0  0  2  0  0  0  0  0  0
  188.1910  173.7130  138.0270 O   0  0  0  0  0  1  0  0  0  0  0  0
  1 27  1  0  0  0  0
  2 17  1  0  0  0  0
  2 24  1  0  0  0  0
  3  9  1  1  0  0  0
  3  7  1  0  0  0  0
  3 20  1  0  0  0  0
  4 36  1  6  0  0  0
  4  1  1  0  0  0  0
  5 10  1  0  0  0  0
  6 22  1  0  0  0  0
  6 11  1  0  0  0  0
  8 12  1  0  0  0  0
  8 18  1  0  0  0  0
  9 13  1  0  0  0  0
  9  6  2  0  0  0  0
 10  7  1  0  0  0  0
 10 23  1  0  0  0  0
 11 16  1  0  0  0  0
 12  4  1  0  0  0  0
 13 21  1  0  0  0  0
 13 17  1  0  0  0  0
 14  2  1  0  0  0  0
 15 28  1  0  0  0  0
 16 20  1  0  0  0  0
 18 19  1  0  0  0  0
 19 25  1  0  0  0  0
 19  5  1  0  0  0  0
 20 15  1  0  0  0  0
 21  7  1  0  0  0  0
 22  2  1  0  0  0  0
 23 30  1  0  0  0  0
 23 28  1  0  0  0  0
 25 27  1  0  0  0  0
 26  8  1  0  0  0  0
 27 21  1  0  0  0  0
 29 35  1  0  0  0  0
 30 29  2  0  0  0  0
 30 31  1  0  0  0  0
 31 34  2  0  0  0  0
 34 33  1  0  0  0  0
 34 32  1  0  0  0  0
 35 33  2  0  0  0  0
 37 36  1  0  0  0  0
M  END
>  <MODEL>
7

>  <REMARK>
 VINA RESULT:      -7.8      3.438      7.008
  Name = 
  2 active torsions:
  status: ('A' for Active; 'I' for Inactive)
    1  A    between atoms: C_4  and  C_36
    2  A    between atoms: N_23  and  C_30
                            x       y       z     vdW  Elec       q    Type
                         _______ _______ _______ _____ _____    ______ ____

>  <TORSDO>
F 2

$$$$
=
 OpenBabel11112417273D

 37 43  0  0  1  0  0  0  0  0999 V2000
  195.6800  173.9350  143.8960 O   0  0  0  0  0  0  0  0  0  0  0  0
  195.3250  169.3650  145.9260 C   0  0  0  0  0  0  0  0  0  0  0  0
  192.7810  172.0180  143.7700 C   0  0  1  0  0  3  0  0  0  0  0  0
  196.7820  174.8050  143.7690 C   0  0  2  0  0  3  0  0  0  0  0  0
  192.0240  175.1100  143.6790 C   0  0  0  0  0  2  0  0  0  0  0  0
  194.0730  169.8990  143.7770 C   0  0  0  0  0  0  0  0  0  0  0  0
  192.6780  172.9270  144.9770 C   0  0  2  0  0  3  0  0  0  0  0  0
  195.3270  176.0030  141.9910 C   0  0  1  0  0  3  0  0  0  0  0  0
  193.9700  171.1900  144.1200 C   0  0  2  0  0  3  0  0  0  0  0  0
  191.7360  174.1600  144.8540 C   0  0  2  0  0  3  0  0  0  0  0  0
  193.0270  169.2810  143.0110 N   0  0  0  0  0  0  0  0  0  0  0  0
  196.4330  176.1270  143.0460 C   0  0  0  0  0  2  0  0  0  0  0  0
  194.8020  171.7560  145.2170 C   0  0  2  0  0  3  0  0  0  0  0  0
  196.7980  169.2530  146.2600 C   0  0  0  0  0  1  0  0  0  0  0  0
  190.3050  171.9080  143.3360 C   0  0  0  0  0  2  0  0  0  0  0  0
  191.8410  170.0390  142.6020 C   0  0  0  0  0  2  0  0  0  0  0  0
  194.8210  170.7570  146.3740 C   0  0  0  0  0  2  0  0  0  0  0  0
  193.9590  176.4180  142.5480 C   0  0  0  0  0  2  0  0  0  0  0  0
  193.5020  175.4070  143.5810 C   0  0  1  0  0  3  0  0  0  0  0  0
  191.5550  171.1130  143.6510 C   0  0  1  0  0  3  0  0  0  0  0  0
  194.1080  173.0710  145.5850 C   0  0  1  0  0  3  0  0  0  0  0  0
  195.1460  169.0640  144.4160 C   0  0  0  0  0  2  0  0  0  0  0  0
  190.2970  173.8380  144.8990 N   0  0  0  0  0  0  0  0  0  0  0  0
  194.5760  168.3140  146.7200 C   0  0  0  0  0  1  0  0  0  0  0  0
  194.1980  175.5390  144.9220 C   0  0  0  0  0  2  0  0  0  0  0  0
  195.6400  176.8170  140.9040 O   0  0  0  0  0  1  0  0  0  0  0  0
  194.9980  174.2540  145.0960 C   0  0  2  0  0  3  0  0  0  0  0  0
  189.7820  172.4870  144.6420 C   0  0  0  0  0  2  0  0  0  0  0  0
  189.1000  175.0240  146.7150 C   0  0  0  0  0  3  0  0  0  0  0  0
  189.3660  174.8470  145.3450 C   0  0  0  0  0  0  0  0  0  0  0  0
  188.7050  175.6750  144.4200 C   0  0  0  0  0  3  0  0  0  0  0  0
  187.1760  177.4400  143.9470 F   0  0  0  0  0  0  0  0  0  0  0  0
  187.5500  176.8130  146.2150 C   0  0  0  0  0  3  0  0  0  0  0  0
  187.8030  176.6510  144.8520 C   0  0  0  0  0  0  0  0  0  0  0  0
  188.1980  176.0000  147.1470 C   0  0  0  0  0  3  0  0  0  0  0  0
  197.9270  174.0910  143.0660 C   0  0  0  0  0  2  0  0  0  0  0  0
  197.4730  173.4420  141.9160 O   0  0  0  0  0  1  0  0  0  0  0  0
  1 27  1  0  0  0  0
  2 14  1  0  0  0  0
  2 17  1  0  0  0  0
  2 24  1  0  0  0  0
  3  9  1  0  0  0  0
  3  7  1  0  0  0  0
  4  1  1  0  0  0  0
  5 10  1  0  0  0  0
  6  9  1  0  0  0  0
  6 22  1  0  0  0  0
  7 21  1  0  0  0  0
  8 18  1  0  0  0  0
  8 12  1  0  0  0  0
  9 13  1  0  0  0  0
 10 23  1  0  0  0  0
 10  7  1  0  0  0  0
 11  6  2  0  0  0  0
 12  4  1  0  0  0  0
 13 21  1  0  0  0  0
 13 17  1  0  0  0  0
 15 20  1  0  0  0  0
 15 28  1  0  0  0  0
 16 11  1  0  0  0  0
 16 20  1  0  0  0  0
 18 19  1  0  0  0  0
 19  5  1  0  0  0  0
 19 25  1  0  0  0  0
 20  3  1  0  0  0  0
 22  2  1  0  0  0  0
 23 30  1  0  0  0  0
 25 27  1  0  0  0  0
 26  8  1  0  0  0  0
 27 21  1  0  0  0  0
 28 23  1  0  0  0  0
 29 35  1  0  0  0  0
 30 29  2  0  0  0  0
 31 34  2  0  0  0  0
 31 30  1  0  0  0  0
 32 34  1  0  0  0  0
 33 35  2  0  0  0  0
 34 33  1  0  0  0  0
 36  4  1  0  0  0  0
 37 36  1  0  0  0  0
M  END
>  <MODEL>
8

>  <REMARK>
 VINA RESULT:      -7.7      3.026      5.633
  Name = 
  2 active torsions:
  status: ('A' for Active; 'I' for Inactive)
    1  A    between atoms: C_4  and  C_36
    2  A    between atoms: N_23  and  C_30
                            x       y       z     vdW  Elec       q    Type
                         _______ _______ _______ _____ _____    ______ ____

>  <TORSDO>
F 2

$$$$
=
 OpenBabel11112417273D

 37 43  0  0  1  0  0  0  0  0999 V2000
  189.5530  175.7270  143.2900 O   0  0  0  0  0  0  0  0  0  0  0  0
  194.0010  175.3290  145.5690 C   0  0  0  0  0  0  0  0  0  0  0  0
  192.4710  174.8280  141.6240 C   0  0  1  0  0  3  0  0  0  0  0  0
  188.3030  176.1610  143.7760 C   0  0  2  0  0  3  0  0  0  0  0  0
  189.9560  173.5520  140.1430 C   0  0  0  0  0  2  0  0  0  0  0  0
  193.8740  176.1680  143.1710 C   0  0  0  0  0  0  0  0  0  0  0  0
  191.7680  173.5520  142.0390 C   0  0  2  0  0  3  0  0  0  0  0  0
  187.6810  176.3980  141.2730 C   0  0  1  0  0  3  0  0  0  0  0  0
  192.7650  175.4530  142.9450 C   0  0  0  0  0  0  0  0  0  0  0  0
  191.0210  172.7630  140.9260 C   0  0  2  0  0  3  0  0  0  0  0  0
  194.8100  176.3850  142.1030 N   0  0  0  0  0  2  0  0  0  0  0  0
  187.1910  176.1370  142.7020 C   0  0  0  0  0  2  0  0  0  0  0  0
  191.9870  174.8750  144.0760 C   0  0  2  0  0  3  0  0  0  0  0  0
  193.5270  175.9030  146.8880 C   0  0  0  0  0  1  0  0  0  0  0  0
  193.5480  173.8550  139.5690 C   0  0  0  0  0  2  0  0  0  0  0  0
  194.5740  175.8300  140.7670 C   0  0  0  0  0  2  0  0  0  0  0  0
  192.9700  174.2830  145.0850 C   0  0  0  0  0  2  0  0  0  0  0  0
  187.8990  175.0930  140.4970 C   0  0  0  0  0  2  0  0  0  0  0  0
  189.0780  174.3420  141.0840 C   0  0  1  0  0  3  0  0  0  0  0  0
  193.7860  174.5290  140.9040 C   0  0  1  0  0  3  0  0  0  0  0  0
  191.0980  173.8110  143.4250 C   0  0  1  0  0  3  0  0  0  0  0  0
  194.2430  176.5040  144.5870 C   0  0  0  0  0  2  0  0  0  0  0  0
  191.9030  172.0430  139.9890 N   0  0  0  0  0  0  0  0  0  0  0  0
  195.3190  174.6180  145.8050 C   0  0  0  0  0  1  0  0  0  0  0  0
  188.7670  173.6310  142.3880 C   0  0  0  0  0  2  0  0  0  0  0  0
  186.7370  177.1730  140.6020 O   0  0  0  0  0  1  0  0  0  0  0  0
  189.6230  174.3200  143.4430 C   0  0  2  0  0  3  0  0  0  0  0  0
  193.3250  172.3720  139.8310 C   0  0  0  0  0  2  0  0  0  0  0  0
  190.9330  169.7630  140.0160 C   0  0  0  0  0  3  0  0  0  0  0  0
  191.3930  170.8810  139.2980 C   0  0  0  0  0  0  0  0  0  0  0  0
  191.3470  170.8440  137.8930 C   0  0  0  0  0  3  0  0  0  0  0  0
  190.8160  169.7000  135.8710 F   0  0  0  0  0  0  0  0  0  0  0  0
  190.4020  168.6170  137.9530 C   0  0  0  0  0  3  0  0  0  0  0  0
  190.8540  169.7190  137.2250 C   0  0  0  0  0  0  0  0  0  0  0  0
  190.4420  168.6380  139.3480 C   0  0  0  0  0  3  0  0  0  0  0  0
  188.4380  177.5510  144.3820 C   0  0  0  0  0  2  0  0  0  0  0  0
  189.7830  177.8850  144.5550 O   0  0  0  0  0  1  0  0  0  0  0  0
  1 27  1  0  0  0  0
  1  4  1  0  0  0  0
  2 24  1  0  0  0  0
  2 14  1  0  0  0  0
  3  7  1  0  0  0  0
  3  9  1  1  0  0  0
  4 36  1  6  0  0  0
  5 10  1  0  0  0  0
  5 19  1  0  0  0  0
  6 22  1  0  0  0  0
  7 21  1  0  0  0  0
  8 12  1  0  0  0  0
  9  6  2  0  0  0  0
  9 13  1  0  0  0  0
 10  7  1  0  0  0  0
 11  6  1  0  0  0  0
 12  4  1  0  0  0  0
 13 17  1  0  0  0  0
 15 28  1  0  0  0  0
 15 20  1  0  0  0  0
 16 20  1  0  0  0  0
 16 11  1  0  0  0  0
 17  2  1  0  0  0  0
 18 19  1  0  0  0  0
 18  8  1  0  0  0  0
 19 25  1  0  0  0  0
 20  3  1  0  0  0  0
 21 27  1  0  0  0  0
 21 13  1  0  0  0  0
 22  2  1  0  0  0  0
 23 10  1  0  0  0  0
 25 27  1  0  0  0  0
 26  8  1  0  0  0  0
 28 23  1  0  0  0  0
 30 23  1  0  0  0  0
 30 29  2  0  0  0  0
 31 30  1  0  0  0  0
 32 34  1  0  0  0  0
 33 35  2  0  0  0  0
 34 31  2  0  0  0  0
 34 33  1  0  0  0  0
 35 29  1  0  0  0  0
 36 37  1  0  0  0  0
M  END
>  <MODEL>
9

>  <REMARK>
 VINA RESULT:      -7.6      3.512      6.435
  Name = 
  2 active torsions:
  status: ('A' for Active; 'I' for Inactive)
    1  A    between atoms: C_4  and  C_36
    2  A    between atoms: N_23  and  C_30
                            x       y       z     vdW  Elec       q    Type
                         _______ _______ _______ _____ _____    ______ ____

>  <TORSDO>
F 2

$$$$
