=
 OpenBabel11112417373D

 28 32  0  0  1  0  0  0  0  0999 V2000
  191.9930  174.7200  142.2380 C   0  0  0  0  0  0  0  0  0  0  0  0
  188.6660  178.1680  141.6540 O   0  0  0  0  0  0  0  0  0  0  0  0
  191.6220  176.1100  147.5610 O   0  0  0  0  0  0  0  0  0  0  0  0
  190.6120  172.2880  142.4530 C   0  0  0  0  0  3  0  0  0  0  0  0
  189.3770  175.8850  146.6310 C   0  0  1  0  0  3  0  0  0  0  0  0
  192.7990  175.9770  142.1690 C   0  0  0  0  0  2  0  0  0  0  0  0
  187.4980  176.3260  140.5180 O   0  0  0  0  0  0  0  0  0  0  0  0
  187.7630  176.9800  141.8440 S   0  0  0  0  0  0  0  0  0  0  0  0
  186.5620  177.8880  143.9770 C   0  0  0  0  0  0  0  0  0  0  0  0
  188.4690  175.8280  142.9380 N   0  0  2  0  0  0  0  0  0  0  0  0
  194.5480  175.9710  145.3770 O   0  0  0  0  0  0  0  0  0  0  0  0
  190.1310  176.4200  144.4760 C   0  0  1  0  0  3  0  0  0  0  0  0
  187.3590  177.1830  144.7050 N   0  0  0  0  0  0  0  0  0  0  0  0
  186.2410  177.4970  142.5760 C   0  0  0  0  0  2  0  0  0  0  0  0
  193.6850  176.2970  144.5230 C   0  0  0  0  0  0  0  0  0  0  0  0
  190.6540  174.7170  142.6840 C   0  0  0  0  0  0  0  0  0  0  0  0
  190.8710  176.0540  146.5490 C   0  0  0  0  0  0  0  0  0  0  0  0
  186.0870  179.2050  144.4840 C   0  0  0  0  0  1  0  0  0  0  0  0
  192.5030  177.1010  144.9460 C   0  0  0  0  0  2  0  0  0  0  0  0
  189.9820  173.4860  142.7960 C   0  0  0  0  0  3  0  0  0  0  0  0
  192.6160  173.5130  141.8890 C   0  0  0  0  0  3  0  0  0  0  0  0
  191.9290  172.3030  141.9940 C   0  0  0  0  0  3  0  0  0  0  0  0
  193.8680  175.9210  143.1570 N   0  0  0  0  0  2  0  0  0  0  0  0
  189.1240  175.5960  145.1710 C   0  0  2  0  0  3  0  0  0  0  0  0
  191.3590  176.2430  145.2140 N   0  0  0  0  0  0  0  0  0  0  0  0
  187.9090  175.8810  144.3280 C   0  0  2  0  0  3  0  0  0  0  0  0
  189.0210  174.6620  147.4540 C   0  0  0  0  0  1  0  0  0  0  0  0
  189.9370  176.0060  143.0360 C   0  0  1  0  0  3  0  0  0  0  0  0
  1 16  1  0  0  0  0
  2  8  2  0  0  0  0
  4 20  1  0  0  0  0
  5 27  1  1  0  0  0
  6  1  1  0  0  0  0
  6 23  1  0  0  0  0
  7  8  2  0  0  0  0
  8 14  1  0  0  0  0
  9 18  1  0  0  0  0
  9 13  2  0  0  0  0
 10  8  1  6  0  0  0
 10 28  1  0  0  0  0
 10 26  1  0  0  0  0
 12 24  1  0  0  0  0
 12 25  1  1  0  0  0
 14  9  1  0  0  0  0
 15 19  1  0  0  0  0
 15 11  2  0  0  0  0
 16 20  2  0  0  0  0
 16 28  1  0  0  0  0
 17  5  1  0  0  0  0
 17  3  2  0  0  0  0
 19 25  1  0  0  0  0
 21 22  1  0  0  0  0
 21  1  2  0  0  0  0
 22  4  2  0  0  0  0
 23 15  1  0  0  0  0
 24  5  1  0  0  0  0
 25 17  1  0  0  0  0
 26 13  1  0  0  0  0
 26 24  1  0  0  0  0
 28 12  1  0  0  0  0
M  END
>  <MODEL>
1

>  <REMARK>
 VINA RESULT:      -7.9      0.000      0.000
  Name = 
  0 active torsions:
  status: ('A' for Active; 'I' for Inactive)
                            x       y       z     vdW  Elec       q    Type
                         _______ _______ _______ _____ _____    ______ ____

>  <TORSDO>
F 0

$$$$
=
 OpenBabel11112417373D

 28 32  0  0  1  0  0  0  0  0999 V2000
  192.2670  173.9260  144.0620 C   0  0  0  0  0  0  0  0  0  0  0  0
  188.9730  175.1710  147.3650 O   0  0  0  0  0  0  0  0  0  0  0  0
  187.8580  173.1380  140.8460 O   0  0  0  0  0  0  0  0  0  0  0  0
  193.1260  176.2990  142.8400 C   0  0  0  0  0  3  0  0  0  0  0  0
  187.6330  175.2720  142.0090 C   0  0  1  0  0  3  0  0  0  0  0  0
  191.8350  172.6160  144.6390 C   0  0  0  0  0  2  0  0  0  0  0  0
  190.3880  177.1790  147.4730 O   0  0  0  0  0  0  0  0  0  0  0  0
  189.2420  176.5220  146.7590 S   0  0  0  0  0  0  0  0  0  0  0  0
  186.7990  176.9470  145.9430 C   0  0  0  0  0  0  0  0  0  0  0  0
  189.6050  176.3860  145.0650 N   0  0  2  0  0  0  0  0  0  0  0  0
  190.5670  170.8430  141.7070 O   0  0  0  0  0  0  0  0  0  0  0  0
  188.9600  174.5280  143.7940 C   0  0  1  0  0  3  0  0  0  0  0  0
  187.1400  176.5420  144.7670 N   0  0  0  0  0  0  0  0  0  0  0  0
  187.7970  177.5300  146.8820 C   0  0  0  0  0  2  0  0  0  0  0  0
  190.5250  171.5010  142.7770 C   0  0  0  0  0  0  0  0  0  0  0  0
  191.4190  175.0540  144.0580 C   0  0  0  0  0  0  0  0  0  0  0  0
  188.2110  173.8990  141.7880 C   0  0  0  0  0  0  0  0  0  0  0  0
  185.4210  176.6720  146.4360 C   0  0  0  0  0  1  0  0  0  0  0  0
  189.2320  172.0980  143.2180 C   0  0  0  0  0  2  0  0  0  0  0  0
  191.8620  176.2310  143.4290 C   0  0  0  0  0  3  0  0  0  0  0  0
  193.5370  174.0050  143.4730 C   0  0  0  0  0  3  0  0  0  0  0  0
  193.9660  175.1870  142.8660 C   0  0  0  0  0  3  0  0  0  0  0  0
  191.7060  171.6360  143.5690 N   0  0  0  0  0  2  0  0  0  0  0  0
  188.6310  175.7500  143.0360 C   0  0  2  0  0  3  0  0  0  0  0  0
  189.1350  173.4900  142.8060 N   0  0  0  0  0  0  0  0  0  0  0  0
  188.4580  176.7330  144.1640 C   0  0  2  0  0  3  0  0  0  0  0  0
  187.7600  176.1140  140.7540 C   0  0  0  0  0  1  0  0  0  0  0  0
  190.0520  175.0160  144.7170 C   0  0  1  0  0  3  0  0  0  0  0  0
  1  6  1  0  0  0  0
  3 17  2  0  0  0  0
  4 22  2  0  0  0  0
  4 20  1  0  0  0  0
  5 27  1  6  0  0  0
  5 24  1  0  0  0  0
  8 14  1  0  0  0  0
  8  2  2  0  0  0  0
  8  7  2  0  0  0  0
  9 18  1  0  0  0  0
  9 14  1  0  0  0  0
 10  8  1  1  0  0  0
 11 15  2  0  0  0  0
 12 25  1  6  0  0  0
 12 28  1  0  0  0  0
 13  9  2  0  0  0  0
 15 19  1  0  0  0  0
 15 23  1  0  0  0  0
 16  1  1  0  0  0  0
 16 28  1  0  0  0  0
 17  5  1  0  0  0  0
 17 25  1  0  0  0  0
 20 16  2  0  0  0  0
 21  1  2  0  0  0  0
 22 21  1  0  0  0  0
 23  6  1  0  0  0  0
 24 12  1  0  0  0  0
 24 26  1  0  0  0  0
 25 19  1  0  0  0  0
 26 13  1  0  0  0  0
 26 10  1  0  0  0  0
 28 10  1  0  0  0  0
M  END
>  <MODEL>
2

>  <REMARK>
 VINA RESULT:      -7.5      2.609      4.657
  Name = 
  0 active torsions:
  status: ('A' for Active; 'I' for Inactive)
                            x       y       z     vdW  Elec       q    Type
                         _______ _______ _______ _____ _____    ______ ____

>  <TORSDO>
F 0

$$$$
=
 OpenBabel11112417373D

 28 32  0  0  1  0  0  0  0  0999 V2000
  189.1400  176.6850  145.6380 C   0  0  0  0  0  0  0  0  0  0  0  0
  193.7170  176.7920  144.1030 O   0  0  0  0  0  0  0  0  0  0  0  0
  188.3180  173.7040  141.0730 O   0  0  0  0  0  0  0  0  0  0  0  0
  188.9410  174.5500  147.4460 C   0  0  0  0  0  3  0  0  0  0  0  0
  190.3050  172.8780  142.2240 C   0  0  1  0  0  3  0  0  0  0  0  0
  189.1570  177.8150  144.6600 C   0  0  0  0  0  2  0  0  0  0  0  0
  194.1050  175.9420  146.3780 O   0  0  0  0  0  0  0  0  0  0  0  0
  193.7710  175.5590  144.9650 S   0  0  0  0  0  0  0  0  0  0  0  0
  194.4530  173.9180  143.0520 C   0  0  0  0  0  0  0  0  0  0  0  0
  192.2580  174.7040  144.9290 N   0  0  2  0  0  0  0  0  0  0  0  0
  186.6700  176.7650  142.1970 O   0  0  0  0  0  0  0  0  0  0  0  0
  190.7110  174.9750  143.1930 C   0  0  1  0  0  3  0  0  0  0  0  0
  193.2170  173.5720  142.9320 N   0  0  0  0  0  0  0  0  0  0  0  0
  194.9900  174.4450  144.3380 C   0  0  0  0  0  2  0  0  0  0  0  0
  187.8110  176.9700  142.6850 C   0  0  0  0  0  0  0  0  0  0  0  0
  190.0500  175.6100  145.5480 C   0  0  0  0  0  0  0  0  0  0  0  0
  189.2310  173.8900  141.9220 C   0  0  0  0  0  0  0  0  0  0  0  0
  195.3200  173.9550  141.8420 C   0  0  0  0  0  1  0  0  0  0  0  0
  189.0090  176.3950  142.0100 C   0  0  0  0  0  2  0  0  0  0  0  0
  189.9270  174.5420  146.4560 C   0  0  0  0  0  3  0  0  0  0  0  0
  188.1580  176.6870  146.6380 C   0  0  0  0  0  3  0  0  0  0  0  0
  188.0600  175.6270  147.5400 C   0  0  0  0  0  3  0  0  0  0  0  0
  187.9420  177.7770  143.8560 N   0  0  0  0  0  2  0  0  0  0  0  0
  190.8590  173.5330  143.4660 C   0  0  2  0  0  3  0  0  0  0  0  0
  189.3950  175.1320  142.6210 N   0  0  0  0  0  0  0  0  0  0  0  0
  192.2540  173.5040  144.0310 C   0  0  2  0  0  3  0  0  0  0  0  0
  189.6910  171.5410  142.5920 C   0  0  0  0  0  1  0  0  0  0  0  0
  191.1480  175.5900  144.5010 C   0  0  1  0  0  3  0  0  0  0  0  0
  1 21  1  0  0  0  0
  2  8  2  0  0  0  0
  3 17  2  0  0  0  0
  4 22  1  0  0  0  0
  5 27  1  1  0  0  0
  5 24  1  0  0  0  0
  6  1  1  0  0  0  0
  8  7  2  0  0  0  0
  9 14  1  0  0  0  0
 10  8  1  6  0  0  0
 11 15  2  0  0  0  0
 12 25  1  1  0  0  0
 12 24  1  0  0  0  0
 12 28  1  0  0  0  0
 13  9  2  0  0  0  0
 13 26  1  0  0  0  0
 14  8  1  0  0  0  0
 15 23  1  0  0  0  0
 16  1  2  0  0  0  0
 16 20  1  0  0  0  0
 17  5  1  0  0  0  0
 17 25  1  0  0  0  0
 18  9  1  0  0  0  0
 19 25  1  0  0  0  0
 19 15  1  0  0  0  0
 20  4  2  0  0  0  0
 21 22  2  0  0  0  0
 23  6  1  0  0  0  0
 24 26  1  0  0  0  0
 26 10  1  0  0  0  0
 28 10  1  0  0  0  0
 28 16  1  0  0  0  0
M  END
>  <MODEL>
3

>  <REMARK>
 VINA RESULT:      -7.3      2.208      6.286
  Name = 
  0 active torsions:
  status: ('A' for Active; 'I' for Inactive)
                            x       y       z     vdW  Elec       q    Type
                         _______ _______ _______ _____ _____    ______ ____

>  <TORSDO>
F 0

$$$$
=
 OpenBabel11112417373D

 28 32  0  0  1  0  0  0  0  0999 V2000
  186.6690  176.7880  143.5680 C   0  0  0  0  0  0  0  0  0  0  0  0
  188.2010  172.2380  143.0600 O   0  0  0  0  0  0  0  0  0  0  0  0
  190.7940  177.1280  147.2100 O   0  0  0  0  0  0  0  0  0  0  0  0
  187.9080  178.2910  141.5500 C   0  0  0  0  0  3  0  0  0  0  0  0
  191.6010  176.0360  145.1830 C   0  0  1  0  0  3  0  0  0  0  0  0
  185.9990  176.0640  144.6910 C   0  0  0  0  0  2  0  0  0  0  0  0
  188.2510  172.9150  140.6960 O   0  0  0  0  0  0  0  0  0  0  0  0
  189.0210  172.8990  141.9850 S   0  0  0  0  0  0  0  0  0  0  0  0
  191.3470  172.2770  142.9950 C   0  0  0  0  0  0  0  0  0  0  0  0
  189.4490  174.5230  142.4360 N   0  0  2  0  0  0  0  0  0  0  0  0
  187.2370  177.8480  147.6300 O   0  0  0  0  0  0  0  0  0  0  0  0
  189.4560  175.2410  144.6640 C   0  0  1  0  0  3  0  0  0  0  0  0
  191.4100  173.4500  143.5270 N   0  0  0  0  0  0  0  0  0  0  0  0
  190.5400  172.0240  141.7690 C   0  0  0  0  0  2  0  0  0  0  0  0
  187.1480  176.9250  146.7810 C   0  0  0  0  0  0  0  0  0  0  0  0
  187.8870  176.3400  143.0160 C   0  0  0  0  0  0  0  0  0  0  0  0
  190.5400  176.5260  146.1320 C   0  0  0  0  0  0  0  0  0  0  0  0
  191.9500  171.1190  143.7120 C   0  0  0  0  0  1  0  0  0  0  0  0
  188.1920  175.8620  146.7440 C   0  0  0  0  0  2  0  0  0  0  0  0
  188.5000  177.1140  142.0130 C   0  0  0  0  0  3  0  0  0  0  0  0
  186.0780  177.9670  143.0930 C   0  0  0  0  0  3  0  0  0  0  0  0
  186.6930  178.7150  142.0880 C   0  0  0  0  0  3  0  0  0  0  0  0
  186.0320  176.8930  145.8890 N   0  0  0  0  0  2  0  0  0  0  0  0
  190.6980  175.7080  144.0180 C   0  0  2  0  0  3  0  0  0  0  0  0
  189.2070  176.1630  145.7470 N   0  0  0  0  0  0  0  0  0  0  0  0
  190.8530  174.6680  142.9410 C   0  0  2  0  0  3  0  0  0  0  0  0
  192.5340  177.1660  144.7920 C   0  0  0  0  0  1  0  0  0  0  0  0
  188.5380  175.0510  143.4800 C   0  0  1  0  0  3  0  0  0  0  0  0
  1  6  1  0  0  0  0
  4 20  2  0  0  0  0
  4 22  1  0  0  0  0
  5 27  1  6  0  0  0
  5 17  1  0  0  0  0
  6 23  1  0  0  0  0
  7  8  2  0  0  0  0
  8  2  2  0  0  0  0
  9 13  2  0  0  0  0
  9 18  1  0  0  0  0
 10  8  1  1  0  0  0
 10 26  1  0  0  0  0
 10 28  1  0  0  0  0
 12 25  1  1  0  0  0
 14  8  1  0  0  0  0
 14  9  1  0  0  0  0
 15 11  2  0  0  0  0
 16 28  1  0  0  0  0
 16  1  2  0  0  0  0
 17  3  2  0  0  0  0
 19 15  1  0  0  0  0
 20 16  1  0  0  0  0
 21  1  1  0  0  0  0
 22 21  2  0  0  0  0
 23 15  1  0  0  0  0
 24 12  1  0  0  0  0
 24  5  1  0  0  0  0
 25 17  1  0  0  0  0
 25 19  1  0  0  0  0
 26 13  1  0  0  0  0
 26 24  1  0  0  0  0
 28 12  1  0  0  0  0
M  END
>  <MODEL>
4

>  <REMARK>
 VINA RESULT:      -7.0      2.216      5.547
  Name = 
  0 active torsions:
  status: ('A' for Active; 'I' for Inactive)
                            x       y       z     vdW  Elec       q    Type
                         _______ _______ _______ _____ _____    ______ ____

>  <TORSDO>
F 0

$$$$
=
 OpenBabel11112417373D

 28 32  0  0  1  0  0  0  0  0999 V2000
  188.4120  176.6190  144.8490 C   0  0  0  0  0  0  0  0  0  0  0  0
  189.3170  171.8790  144.6980 O   0  0  0  0  0  0  0  0  0  0  0  0
  193.5630  176.9240  146.7930 O   0  0  0  0  0  0  0  0  0  0  0  0
  188.9800  177.6350  142.2980 C   0  0  0  0  0  3  0  0  0  0  0  0
  193.5240  175.4520  144.8470 C   0  0  1  0  0  3  0  0  0  0  0  0
  188.1230  176.1620  146.2430 C   0  0  0  0  0  2  0  0  0  0  0  0
  188.5900  172.1960  142.3690 O   0  0  0  0  0  0  0  0  0  0  0  0
  189.7580  172.2620  143.3110 S   0  0  0  0  0  0  0  0  0  0  0  0
  192.2350  171.4850  143.5890 C   0  0  0  0  0  0  0  0  0  0  0  0
  190.4390  173.8620  143.2920 N   0  0  2  0  0  0  0  0  0  0  0  0
  190.4420  178.1680  148.2290 O   0  0  0  0  0  0  0  0  0  0  0  0
  191.2790  174.8860  145.2220 C   0  0  1  0  0  3  0  0  0  0  0  0
  192.5700  172.7040  143.8470 N   0  0  0  0  0  0  0  0  0  0  0  0
  191.0340  171.1690  142.7670 C   0  0  0  0  0  2  0  0  0  0  0  0
  189.9910  177.1530  147.6400 C   0  0  0  0  0  0  0  0  0  0  0  0
  189.3230  175.9370  144.0150 C   0  0  0  0  0  0  0  0  0  0  0  0
  192.9020  176.2120  145.9880 C   0  0  0  0  0  0  0  0  0  0  0  0
  192.9600  170.3730  144.2630 C   0  0  0  0  0  1  0  0  0  0  0  0
  190.8720  175.9650  147.4540 C   0  0  0  0  0  2  0  0  0  0  0  0
  189.6040  176.4680  142.7440 C   0  0  0  0  0  3  0  0  0  0  0  0
  187.7840  177.7860  144.3910 C   0  0  0  0  0  3  0  0  0  0  0  0
  188.0650  178.2910  143.1200 C   0  0  0  0  0  3  0  0  0  0  0  0
  188.6360  177.1420  147.1900 N   0  0  0  0  0  2  0  0  0  0  0  0
  192.2490  175.0840  144.1280 C   0  0  2  0  0  3  0  0  0  0  0  0
  191.4950  175.9790  146.1390 N   0  0  0  0  0  0  0  0  0  0  0  0
  191.9380  173.8880  143.2680 C   0  0  2  0  0  3  0  0  0  0  0  0
  194.3460  176.3780  143.9720 C   0  0  0  0  0  1  0  0  0  0  0  0
  189.9940  174.6520  144.4640 C   0  0  1  0  0  3  0  0  0  0  0  0
  1  6  1  0  0  0  0
  4 20  2  0  0  0  0
  4 22  1  0  0  0  0
  5 27  1  6  0  0  0
  5 17  1  0  0  0  0
  6 23  1  0  0  0  0
  7  8  2  0  0  0  0
  8  2  2  0  0  0  0
  9 13  2  0  0  0  0
  9 18  1  0  0  0  0
 10  8  1  1  0  0  0
 10 28  1  0  0  0  0
 12 25  1  1  0  0  0
 14  8  1  0  0  0  0
 14  9  1  0  0  0  0
 15 11  2  0  0  0  0
 16 28  1  0  0  0  0
 16  1  2  0  0  0  0
 17 25  1  0  0  0  0
 17  3  2  0  0  0  0
 19 15  1  0  0  0  0
 20 16  1  0  0  0  0
 21  1  1  0  0  0  0
 22 21  2  0  0  0  0
 23 15  1  0  0  0  0
 24  5  1  0  0  0  0
 24 12  1  0  0  0  0
 25 19  1  0  0  0  0
 26 10  1  0  0  0  0
 26 13  1  0  0  0  0
 26 24  1  0  0  0  0
 28 12  1  0  0  0  0
M  END
>  <MODEL>
5

>  <REMARK>
 VINA RESULT:      -7.0      2.459      5.504
  Name = 
  0 active torsions:
  status: ('A' for Active; 'I' for Inactive)
                            x       y       z     vdW  Elec       q    Type
                         _______ _______ _______ _____ _____    ______ ____

>  <TORSDO>
F 0

$$$$
=
 OpenBabel11112417373D

 28 32  0  0  1  0  0  0  0  0999 V2000
  191.7080  175.5170  145.7330 C   0  0  0  0  0  0  0  0  0  0  0  0
  192.4380  172.3570  142.1570 O   0  0  0  0  0  0  0  0  0  0  0  0
  188.6510  178.1430  141.9700 O   0  0  0  0  0  0  0  0  0  0  0  0
  189.5630  174.5400  147.2520 C   0  0  0  0  0  3  0  0  0  0  0  0
  188.1010  175.7660  141.9350 C   0  0  1  0  0  3  0  0  0  0  0  0
  192.8320  176.1210  144.9540 C   0  0  0  0  0  2  0  0  0  0  0  0
  191.6450  170.7930  143.8820 O   0  0  0  0  0  0  0  0  0  0  0  0
  191.2230  171.7380  142.7930 S   0  0  0  0  0  0  0  0  0  0  0  0
  189.6940  171.9090  140.6840 C   0  0  0  0  0  0  0  0  0  0  0  0
  190.1710  172.9570  143.4470 N   0  0  2  0  0  0  0  0  0  0  0  0
  191.4570  179.3600  143.9680 O   0  0  0  0  0  0  0  0  0  0  0  0
  190.2320  175.1810  142.7200 C   0  0  1  0  0  3  0  0  0  0  0  0
  189.1820  172.9920  141.1640 N   0  0  0  0  0  0  0  0  0  0  0  0
  190.2860  170.8700  141.5730 C   0  0  0  0  0  2  0  0  0  0  0  0
  191.8150  178.1610  143.8440 C   0  0  0  0  0  0  0  0  0  0  0  0
  190.7670  174.6530  145.1340 C   0  0  0  0  0  0  0  0  0  0  0  0
  188.9580  176.9580  142.2710 C   0  0  0  0  0  0  0  0  0  0  0  0
  189.8500  171.7700  139.2100 C   0  0  0  0  0  1  0  0  0  0  0  0
  191.4090  177.3990  142.6290 C   0  0  0  0  0  2  0  0  0  0  0  0
  189.6910  174.1840  145.9090 C   0  0  0  0  0  3  0  0  0  0  0  0
  191.5750  175.8650  147.0850 C   0  0  0  0  0  3  0  0  0  0  0  0
  190.5100  175.3780  147.8420 C   0  0  0  0  0  3  0  0  0  0  0  0
  192.6300  177.5610  144.8510 N   0  0  0  0  0  2  0  0  0  0  0  0
  188.8220  174.7490  142.7860 C   0  0  2  0  0  3  0  0  0  0  0  0
  190.2090  176.6150  142.8820 N   0  0  0  0  0  0  0  0  0  0  0  0
  188.9830  173.2650  142.5870 C   0  0  2  0  0  3  0  0  0  0  0  0
  186.6920  175.9540  142.4640 C   0  0  0  0  0  1  0  0  0  0  0  0
  190.8980  174.2270  143.6830 C   0  0  1  0  0  3  0  0  0  0  0  0
  1 21  1  0  0  0  0
  2  8  2  0  0  0  0
  3 17  2  0  0  0  0
  4 22  1  0  0  0  0
  5 17  1  0  0  0  0
  5 27  1  1  0  0  0
  5 24  1  0  0  0  0
  6  1  1  0  0  0  0
  8  7  2  0  0  0  0
  9 13  2  0  0  0  0
  9 14  1  0  0  0  0
 10  8  1  6  0  0  0
 10 28  1  0  0  0  0
 12 24  1  0  0  0  0
 12 25  1  1  0  0  0
 12 28  1  0  0  0  0
 13 26  1  0  0  0  0
 14  8  1  0  0  0  0
 15 11  2  0  0  0  0
 15 23  1  0  0  0  0
 16  1  2  0  0  0  0
 16 20  1  0  0  0  0
 17 25  1  0  0  0  0
 18  9  1  0  0  0  0
 19 25  1  0  0  0  0
 19 15  1  0  0  0  0
 20  4  2  0  0  0  0
 21 22  2  0  0  0  0
 23  6  1  0  0  0  0
 26 24  1  0  0  0  0
 26 10  1  0  0  0  0
 28 16  1  0  0  0  0
M  END
>  <MODEL>
6

>  <REMARK>
 VINA RESULT:      -6.9      2.698      5.187
  Name = 
  0 active torsions:
  status: ('A' for Active; 'I' for Inactive)
                            x       y       z     vdW  Elec       q    Type
                         _______ _______ _______ _____ _____    ______ ____

>  <TORSDO>
F 0

$$$$
=
 OpenBabel11112417373D

 28 32  0  0  1  0  0  0  0  0999 V2000
  194.9330  173.7560  144.3540 C   0  0  0  0  0  0  0  0  0  0  0  0
  192.1600  174.2120  140.4280 O   0  0  0  0  0  0  0  0  0  0  0  0
  191.0020  176.8000  146.7390 O   0  0  0  0  0  0  0  0  0  0  0  0
  194.2280  171.3280  145.5670 C   0  0  0  0  0  3  0  0  0  0  0  0
  189.9590  175.0260  145.4260 C   0  0  1  0  0  3  0  0  0  0  0  0
  195.3390  175.0790  143.7890 C   0  0  0  0  0  2  0  0  0  0  0  0
  192.3610  171.7610  140.4610 O   0  0  0  0  0  0  0  0  0  0  0  0
  191.5900  172.9370  140.9890 S   0  0  0  0  0  0  0  0  0  0  0  0
  189.1620  173.8400  141.3110 C   0  0  0  0  0  0  0  0  0  0  0  0
  191.6420  172.9410  142.7270 N   0  0  2  0  0  0  0  0  0  0  0  0
  194.6050  177.3710  146.5380 O   0  0  0  0  0  0  0  0  0  0  0  0
  191.7920  174.9210  143.9670 C   0  0  1  0  0  3  0  0  0  0  0  0
  189.4290  174.0660  142.5520 N   0  0  0  0  0  0  0  0  0  0  0  0
  189.8880  172.7930  140.5390 C   0  0  0  0  0  2  0  0  0  0  0  0
  194.4420  176.7810  145.4390 C   0  0  0  0  0  0  0  0  0  0  0  0
  193.6490  173.2140  144.1310 C   0  0  0  0  0  0  0  0  0  0  0  0
  191.0950  175.9260  145.8340 C   0  0  0  0  0  0  0  0  0  0  0  0
  188.2340  174.7530  140.5890 C   0  0  0  0  0  1  0  0  0  0  0  0
  193.1360  176.9020  144.7310 C   0  0  0  0  0  2  0  0  0  0  0  0
  193.3100  172.0010  144.7580 C   0  0  0  0  0  3  0  0  0  0  0  0
  195.8500  173.0700  145.1620 C   0  0  0  0  0  3  0  0  0  0  0  0
  195.5010  171.8610  145.7640 C   0  0  0  0  0  3  0  0  0  0  0  0
  195.5200  176.0340  144.8740 N   0  0  0  0  0  2  0  0  0  0  0  0
  190.7540  174.0660  144.5750 C   0  0  2  0  0  3  0  0  0  0  0  0
  192.2740  175.7690  145.0320 N   0  0  0  0  0  0  0  0  0  0  0  0
  190.3290  173.2600  143.3770 C   0  0  2  0  0  3  0  0  0  0  0  0
  189.4020  174.2890  146.6290 C   0  0  0  0  0  1  0  0  0  0  0  0
  192.6430  173.9100  143.2350 C   0  0  1  0  0  3  0  0  0  0  0  0
  1 21  1  0  0  0  0
  2  8  2  0  0  0  0
  4 22  1  0  0  0  0
  5 17  1  0  0  0  0
  5 27  1  1  0  0  0
  6  1  1  0  0  0  0
  6 23  1  0  0  0  0
  7  8  2  0  0  0  0
  9 13  2  0  0  0  0
 10  8  1  6  0  0  0
 10 28  1  0  0  0  0
 10 26  1  0  0  0  0
 12 24  1  0  0  0  0
 12 25  1  1  0  0  0
 13 26  1  0  0  0  0
 14  8  1  0  0  0  0
 14  9  1  0  0  0  0
 15 11  2  0  0  0  0
 16  1  2  0  0  0  0
 16 20  1  0  0  0  0
 17  3  2  0  0  0  0
 18  9  1  0  0  0  0
 19 25  1  0  0  0  0
 19 15  1  0  0  0  0
 20  4  2  0  0  0  0
 21 22  2  0  0  0  0
 23 15  1  0  0  0  0
 24  5  1  0  0  0  0
 25 17  1  0  0  0  0
 26 24  1  0  0  0  0
 28 12  1  0  0  0  0
 28 16  1  0  0  0  0
M  END
>  <MODEL>
7

>  <REMARK>
 VINA RESULT:      -6.9      2.995      3.930
  Name = 
  0 active torsions:
  status: ('A' for Active; 'I' for Inactive)
                            x       y       z     vdW  Elec       q    Type
                         _______ _______ _______ _____ _____    ______ ____

>  <TORSDO>
F 0

$$$$
=
 OpenBabel11112417373D

 28 32  0  0  1  0  0  0  0  0999 V2000
  192.7120  173.4990  142.6020 C   0  0  0  0  0  0  0  0  0  0  0  0
  188.9020  176.3540  141.8010 O   0  0  0  0  0  0  0  0  0  0  0  0
  193.4970  176.7920  146.9540 O   0  0  0  0  0  0  0  0  0  0  0  0
  191.7770  171.2860  144.0490 C   0  0  0  0  0  3  0  0  0  0  0  0
  191.1440  176.1560  146.8430 C   0  0  1  0  0  3  0  0  0  0  0  0
  193.2930  174.6620  141.8650 C   0  0  0  0  0  2  0  0  0  0  0  0
  187.7520  174.1800  141.7760 O   0  0  0  0  0  0  0  0  0  0  0  0
  188.2480  175.2970  142.6490 S   0  0  0  0  0  0  0  0  0  0  0  0
  187.5060  176.9050  144.5670 C   0  0  0  0  0  0  0  0  0  0  0  0
  189.3570  174.6700  143.8320 N   0  0  2  0  0  0  0  0  0  0  0  0
  195.7730  175.9340  144.2280 O   0  0  0  0  0  0  0  0  0  0  0  0
  191.2530  175.8580  144.5190 C   0  0  1  0  0  3  0  0  0  0  0  0
  188.5500  176.5570  145.2400 N   0  0  0  0  0  0  0  0  0  0  0  0
  186.9010  176.0010  143.5490 C   0  0  0  0  0  2  0  0  0  0  0  0
  194.6880  175.8820  143.5960 C   0  0  0  0  0  0  0  0  0  0  0  0
  191.5410  173.6200  143.3800 C   0  0  0  0  0  0  0  0  0  0  0  0
  192.5320  176.3310  146.2860 C   0  0  0  0  0  0  0  0  0  0  0  0
  186.9970  178.3000  144.6850 C   0  0  0  0  0  1  0  0  0  0  0  0
  193.5510  176.7460  144.0230 C   0  0  0  0  0  2  0  0  0  0  0  0
  191.0940  172.5030  144.1080 C   0  0  0  0  0  3  0  0  0  0  0  0
  193.3870  172.2720  142.5430 C   0  0  0  0  0  3  0  0  0  0  0  0
  192.9220  171.1700  143.2610 C   0  0  0  0  0  3  0  0  0  0  0  0
  194.5730  175.0220  142.4610 N   0  0  0  0  0  2  0  0  0  0  0  0
  190.5760  175.3260  145.7170 C   0  0  2  0  0  3  0  0  0  0  0  0
  192.6390  176.0160  144.8910 N   0  0  0  0  0  0  0  0  0  0  0  0
  189.1620  175.2290  145.2100 C   0  0  2  0  0  3  0  0  0  0  0  0
  191.1770  175.3250  148.1110 C   0  0  0  0  0  1  0  0  0  0  0  0
  190.7640  174.9220  143.4390 C   0  0  1  0  0  3  0  0  0  0  0  0
  1 16  1  0  0  0  0
  2  8  2  0  0  0  0
  4 20  1  0  0  0  0
  5 27  1  1  0  0  0
  6 23  1  0  0  0  0
  6  1  1  0  0  0  0
  7  8  2  0  0  0  0
  8 14  1  0  0  0  0
  9 18  1  0  0  0  0
  9 13  2  0  0  0  0
 10  8  1  6  0  0  0
 10 26  1  0  0  0  0
 12 25  1  1  0  0  0
 12 24  1  0  0  0  0
 14  9  1  0  0  0  0
 15 19  1  0  0  0  0
 15 11  2  0  0  0  0
 16 28  1  0  0  0  0
 16 20  2  0  0  0  0
 17  5  1  0  0  0  0
 17  3  2  0  0  0  0
 19 25  1  0  0  0  0
 21  1  2  0  0  0  0
 21 22  1  0  0  0  0
 22  4  2  0  0  0  0
 23 15  1  0  0  0  0
 24  5  1  0  0  0  0
 25 17  1  0  0  0  0
 26 13  1  0  0  0  0
 26 24  1  0  0  0  0
 28 10  1  0  0  0  0
 28 12  1  0  0  0  0
M  END
>  <MODEL>
8

>  <REMARK>
 VINA RESULT:      -6.8      1.507      1.724
  Name = 
  0 active torsions:
  status: ('A' for Active; 'I' for Inactive)
                            x       y       z     vdW  Elec       q    Type
                         _______ _______ _______ _____ _____    ______ ____

>  <TORSDO>
F 0

$$$$
=
 OpenBabel11112417373D

 28 32  0  0  1  0  0  0  0  0999 V2000
  190.8520  176.1310  145.3950 C   0  0  0  0  0  0  0  0  0  0  0  0
  191.4310  171.4770  144.2470 O   0  0  0  0  0  0  0  0  0  0  0  0
  196.0800  176.5720  143.7000 O   0  0  0  0  0  0  0  0  0  0  0  0
  189.6940  177.3770  143.1660 C   0  0  0  0  0  3  0  0  0  0  0  0
  194.8170  175.2600  142.0760 C   0  0  1  0  0  3  0  0  0  0  0  0
  191.5010  175.5480  146.6090 C   0  0  0  0  0  2  0  0  0  0  0  0
  189.4030  171.9370  142.9330 O   0  0  0  0  0  0  0  0  0  0  0  0
  190.9040  171.9940  142.9360 S   0  0  0  0  0  0  0  0  0  0  0  0
  192.9990  171.3400  141.5230 C   0  0  0  0  0  0  0  0  0  0  0  0
  191.4310  173.6260  142.6510 N   0  0  2  0  0  0  0  0  0  0  0  0
  194.5650  177.5180  146.8880 O   0  0  0  0  0  0  0  0  0  0  0  0
  193.3040  174.5390  143.7170 C   0  0  1  0  0  3  0  0  0  0  0  0
  193.4300  172.5510  141.6320 N   0  0  0  0  0  0  0  0  0  0  0  0
  191.5470  171.0220  141.6090 C   0  0  0  0  0  2  0  0  0  0  0  0
  193.8380  176.5290  146.6150 C   0  0  0  0  0  0  0  0  0  0  0  0
  191.0310  175.5700  144.1130 C   0  0  0  0  0  0  0  0  0  0  0  0
  195.0560  175.8900  143.4220 C   0  0  0  0  0  0  0  0  0  0  0  0
  193.9800  170.2200  141.4810 C   0  0  0  0  0  1  0  0  0  0  0  0
  194.3980  175.4120  145.8030 C   0  0  0  0  0  2  0  0  0  0  0  0
  190.4530  176.2170  143.0050 C   0  0  0  0  0  3  0  0  0  0  0  0
  190.0830  177.2930  145.5480 C   0  0  0  0  0  3  0  0  0  0  0  0
  189.5040  177.9130  144.4390 C   0  0  0  0  0  3  0  0  0  0  0  0
  192.5020  176.4780  147.1160 N   0  0  0  0  0  2  0  0  0  0  0  0
  193.3710  174.8790  142.2830 C   0  0  2  0  0  3  0  0  0  0  0  0
  194.0560  175.5670  144.3970 N   0  0  0  0  0  0  0  0  0  0  0  0
  192.5810  173.7400  141.6950 C   0  0  2  0  0  3  0  0  0  0  0  0
  194.9100  176.2980  140.9740 C   0  0  0  0  0  1  0  0  0  0  0  0
  191.8270  174.2940  143.9140 C   0  0  1  0  0  3  0  0  0  0  0  0
  1 21  1  0  0  0  0
  1  6  1  0  0  0  0
  4 22  1  0  0  0  0
  5 27  1  6  0  0  0
  5 24  1  0  0  0  0
  5 17  1  0  0  0  0
  6 23  1  0  0  0  0
  7  8  2  0  0  0  0
  8  2  2  0  0  0  0
  9 14  1  0  0  0  0
  9 13  2  0  0  0  0
 10  8  1  1  0  0  0
 10 28  1  0  0  0  0
 12 28  1  0  0  0  0
 12 25  1  1  0  0  0
 13 26  1  0  0  0  0
 14  8  1  0  0  0  0
 15 11  2  0  0  0  0
 15 23  1  0  0  0  0
 16  1  2  0  0  0  0
 17  3  2  0  0  0  0
 17 25  1  0  0  0  0
 18  9  1  0  0  0  0
 19 15  1  0  0  0  0
 20  4  2  0  0  0  0
 20 16  1  0  0  0  0
 22 21  2  0  0  0  0
 24 12  1  0  0  0  0
 25 19  1  0  0  0  0
 26 24  1  0  0  0  0
 26 10  1  0  0  0  0
 28 16  1  0  0  0  0
M  END
>  <MODEL>
9

>  <REMARK>
 VINA RESULT:      -6.8      3.022      5.932
  Name = 
  0 active torsions:
  status: ('A' for Active; 'I' for Inactive)
                            x       y       z     vdW  Elec       q    Type
                         _______ _______ _______ _____ _____    ______ ____

>  <TORSDO>
F 0

$$$$
