=
 OpenBabel11112416463D

 31 35  0  0  1  0  0  0  0  0999 V2000
  193.5700  174.5850  145.0520 C   0  0  0  0  0  0  0  0  0  0  0  0
  190.1720  175.4320  143.6610 N   0  0  0  0  0  0  0  0  0  0  0  0
  190.1370  174.6190  142.4240 C   0  0  0  0  0  0  0  0  0  0  0  0
  190.1360  172.2540  141.8650 C   0  0  0  0  0  0  0  0  0  0  0  0
  191.3410  175.4090  144.5130 C   0  0  0  0  0  0  0  0  0  0  0  0
  193.5540  175.3070  146.2470 C   0  0  0  0  0  3  0  0  0  0  0  0
  190.4830  173.2130  142.6750 N   0  0  0  0  0  0  0  0  0  0  0  0
  189.2820  177.4290  145.0270 C   0  0  1  0  0  3  0  0  0  0  0  0
  194.6460  173.8280  144.7320 F   0  0  0  0  0  0  0  0  0  0  0  0
  187.9260  175.6390  141.9360 C   0  0  0  0  0  3  0  0  0  0  0  0
  190.5950  170.8660  142.1290 C   0  0  0  0  0  1  0  0  0  0  0  0
  190.2430  176.9870  146.0310 N   0  0  0  0  0  2  0  0  0  0  0  0
  189.1440  176.4290  143.9040 C   0  0  0  0  0  0  0  0  0  0  0  0
  192.4690  174.6330  144.1940 C   0  0  0  0  0  3  0  0  0  0  0  0
  189.2120  172.5140  140.7390 C   0  0  0  0  0  3  0  0  0  0  0  0
  191.3540  176.1580  145.7030 C   0  0  0  0  0  0  0  0  0  0  0  0
  192.4470  176.0930  146.5710 C   0  0  0  0  0  3  0  0  0  0  0  0
  188.1150  176.5590  143.0600 C   0  0  0  0  0  3  0  0  0  0  0  0
  188.8310  174.7060  141.6690 C   0  0  0  0  0  0  0  0  0  0  0  0
  188.5700  173.6820  140.6510 C   0  0  0  0  0  2  0  0  0  0  0  0
  188.0720  175.7710  147.0180 O   0  0  0  0  0  0  0  0  0  0  0  0
  187.4430  176.8000  146.6550 C   0  0  0  0  0  0  0  0  0  0  0  0
  187.9960  177.6720  145.6650 N   0  0  0  0  0  2  0  0  0  0  0  0
  184.5440  178.7290  145.6130 C   0  0  1  0  0  3  0  0  0  0  0  0
  184.9540  176.6300  146.3720 C   0  0  0  0  0  2  0  0  0  0  0  0
  187.0370  179.0550  148.3650 C   0  0  0  0  0  1  0  0  0  0  0  0
  184.3090  179.5500  144.4400 N   0  0  0  0  0  1  0  0  0  0  0  0
  184.8850  177.4240  145.2100 O   0  0  0  0  0  0  0  0  0  0  0  0
  185.8960  178.5200  147.6340 N   0  0  0  0  0  0  0  0  0  0  0  0
  186.1020  177.1000  147.2790 C   0  0  2  0  0  3  0  0  0  0  0  0
  185.6810  179.3350  146.4380 C   0  0  0  0  0  2  0  0  0  0  0  0
  1  6  1  0  0  0  0
  2 13  1  0  0  0  0
  2  5  1  0  0  0  0
  3  7  2  0  0  0  0
  3  2  1  0  0  0  0
  4 11  1  0  0  0  0
  4  7  1  0  0  0  0
  5 16  2  0  0  0  0
  6 17  2  0  0  0  0
  8 23  1  1  0  0  0
  8 12  1  0  0  0  0
  9  1  1  0  0  0  0
 10 18  1  0  0  0  0
 13  8  1  0  0  0  0
 14  5  1  0  0  0  0
 14  1  2  0  0  0  0
 15  4  2  0  0  0  0
 16 12  1  0  0  0  0
 16 17  1  0  0  0  0
 18 13  2  0  0  0  0
 19 10  2  0  0  0  0
 19  3  1  0  0  0  0
 20 15  1  0  0  0  0
 20 19  1  0  0  0  0
 22 21  2  0  0  0  0
 23 22  1  0  0  0  0
 24 27  1  6  0  0  0
 24 31  1  0  0  0  0
 25 30  1  0  0  0  0
 28 24  1  0  0  0  0
 28 25  1  0  0  0  0
 29 26  1  0  0  0  0
 30 22  1  6  0  0  0
 30 29  1  0  0  0  0
 31 29  1  0  0  0  0
M  END
>  <MODEL>
1

>  <REMARK>
 VINA RESULT:      -8.4      0.000      0.000
  Name = 
  2 active torsions:
  status: ('A' for Active; 'I' for Inactive)
    1  A    between atoms: C_5  and  C_30
    2  A    between atoms: C_10  and  N_16
                            x       y       z     vdW  Elec       q    Type
                         _______ _______ _______ _____ _____    ______ ____

>  <TORSDO>
F 2

$$$$
=
 OpenBabel11112416463D

 31 35  0  0  1  0  0  0  0  0999 V2000
  191.3340  171.1530  142.8610 C   0  0  0  0  0  0  0  0  0  0  0  0
  190.9200  174.5810  144.3700 N   0  0  0  0  0  0  0  0  0  0  0  0
  192.0580  174.6390  145.3140 C   0  0  1  0  0  3  0  0  0  0  0  0
  194.4840  174.6440  145.1570 C   0  0  0  0  0  0  0  0  0  0  0  0
  190.6960  173.3940  143.5720 C   0  0  0  0  0  0  0  0  0  0  0  0
  190.2950  171.1460  141.9290 C   0  0  0  0  0  3  0  0  0  0  0  0
  193.3300  174.2840  144.6700 N   0  0  0  0  0  0  0  0  0  0  0  0
  188.6080  175.4480  143.6290 C   0  0  1  0  0  3  0  0  0  0  0  0
  192.1560  170.0810  142.9680 F   0  0  0  0  0  0  0  0  0  0  0  0
  191.2180  176.8620  146.0330 C   0  0  0  0  0  3  0  0  0  0  0  0
  195.7350  174.1750  144.5090 C   0  0  0  0  0  1  0  0  0  0  0  0
  188.7400  174.4660  142.5590 N   0  0  0  0  0  2  0  0  0  0  0  0
  189.8920  175.6060  144.4080 C   0  0  0  0  0  0  0  0  0  0  0  0
  191.5350  172.2710  143.6740 C   0  0  0  0  0  3  0  0  0  0  0  0
  194.5610  175.5920  146.2920 C   0  0  0  0  0  3  0  0  0  0  0  0
  189.6330  173.3600  142.6530 C   0  0  0  0  0  0  0  0  0  0  0  0
  189.4440  172.2490  141.8260 C   0  0  0  0  0  3  0  0  0  0  0  0
  190.0110  176.6530  145.2320 C   0  0  0  0  0  3  0  0  0  0  0  0
  192.1920  175.9600  146.0350 C   0  0  0  0  0  0  0  0  0  0  0  0
  193.4680  176.2390  146.7030 C   0  0  0  0  0  3  0  0  0  0  0  0
  185.8990  176.2600  143.1960 O   0  0  0  0  0  0  0  0  0  0  0  0
  186.8090  177.0670  142.8700 C   0  0  0  0  0  0  0  0  0  0  0  0
  188.1840  176.7220  143.0640 N   0  0  0  0  0  2  0  0  0  0  0  0
  183.6800  178.5460  141.7610 C   0  0  1  0  0  3  0  0  0  0  0  0
  185.3860  179.1160  143.1440 C   0  0  0  0  0  2  0  0  0  0  0  0
  186.8310  177.5290  140.0480 C   0  0  0  0  0  1  0  0  0  0  0  0
  182.3360  178.0030  141.6820 N   0  0  0  0  0  1  0  0  0  0  0  0
  184.1490  178.4440  143.0840 O   0  0  0  0  0  0  0  0  0  0  0  0
  185.9460  178.3350  140.8800 N   0  0  0  0  0  0  0  0  0  0  0  0
  186.4310  178.4010  142.2740 C   0  0  2  0  0  3  0  0  0  0  0  0
  184.5990  177.7660  140.8190 C   0  0  0  0  0  2  0  0  0  0  0  0
  1  9  1  0  0  0  0
  1 14  1  0  0  0  0
  2 13  1  0  0  0  0
  2  3  1  0  0  0  0
  3  7  1  6  0  0  0
  3 19  1  0  0  0  0
  4 15  1  0  0  0  0
  5 14  2  0  0  0  0
  5  2  1  0  0  0  0
  6  1  2  0  0  0  0
  7  4  2  0  0  0  0
  8 23  1  6  0  0  0
  8 13  1  0  0  0  0
 10 19  2  0  0  0  0
 11  4  1  0  0  0  0
 12 16  1  0  0  0  0
 12  8  1  0  0  0  0
 13 18  2  0  0  0  0
 15 20  2  0  0  0  0
 16  5  1  0  0  0  0
 17  6  1  0  0  0  0
 17 16  2  0  0  0  0
 18 10  1  0  0  0  0
 19 20  1  0  0  0  0
 22 23  1  0  0  0  0
 22 21  2  0  0  0  0
 24 27  1  1  0  0  0
 24 28  1  0  0  0  0
 26 29  1  0  0  0  0
 28 25  1  0  0  0  0
 29 30  1  0  0  0  0
 30 22  1  1  0  0  0
 30 25  1  0  0  0  0
 31 29  1  0  0  0  0
 31 24  1  0  0  0  0
M  END
>  <MODEL>
2

>  <REMARK>
 VINA RESULT:      -8.2      2.707      5.026
  Name = 
  2 active torsions:
  status: ('A' for Active; 'I' for Inactive)
    1  A    between atoms: C_5  and  C_30
    2  A    between atoms: C_10  and  N_16
                            x       y       z     vdW  Elec       q    Type
                         _______ _______ _______ _____ _____    ______ ____

>  <TORSDO>
F 2

$$$$
=
 OpenBabel11112416463D

 31 35  0  0  1  0  0  0  0  0999 V2000
  186.3400  177.0040  142.7590 C   0  0  0  0  0  0  0  0  0  0  0  0
  189.2080  174.5680  142.5600 N   0  0  0  0  0  0  0  0  0  0  0  0
  188.7760  173.6760  141.4600 C   0  0  0  0  0  0  0  0  0  0  0  0
  188.3640  173.8890  139.0740 C   0  0  0  0  0  0  0  0  0  0  0  0
  188.3640  175.6660  142.9810 C   0  0  0  0  0  0  0  0  0  0  0  0
  186.7980  177.8710  143.7530 C   0  0  0  0  0  3  0  0  0  0  0  0
  188.3850  174.4280  140.2600 N   0  0  0  0  0  0  0  0  0  0  0  0
  190.6740  174.9680  144.6430 C   0  0  1  0  0  3  0  0  0  0  0  0
  185.1470  177.2290  142.1600 F   0  0  0  0  0  0  0  0  0  0  0  0
  190.8190  172.3300  141.8840 C   0  0  0  0  0  3  0  0  0  0  0  0
  187.8710  174.6760  137.9160 C   0  0  0  0  0  1  0  0  0  0  0  0
  190.0310  176.2780  144.6680 N   0  0  0  0  0  2  0  0  0  0  0  0
  190.3560  174.2110  143.3760 C   0  0  0  0  0  0  0  0  0  0  0  0
  187.1200  175.9110  142.3740 C   0  0  0  0  0  3  0  0  0  0  0  0
  188.9160  172.5330  138.8520 C   0  0  0  0  0  3  0  0  0  0  0  0
  188.7960  176.5270  144.0040 C   0  0  0  0  0  0  0  0  0  0  0  0
  188.0240  177.6320  144.3750 C   0  0  0  0  0  3  0  0  0  0  0  0
  191.0810  173.1260  143.0840 C   0  0  0  0  0  3  0  0  0  0  0  0
  189.7860  172.6120  141.1000 C   0  0  0  0  0  0  0  0  0  0  0  0
  189.6140  171.9250  139.8150 C   0  0  0  0  0  2  0  0  0  0  0  0
  192.0920  174.9410  147.1270 O   0  0  0  0  0  0  0  0  0  0  0  0
  192.7620  175.1140  146.0740 C   0  0  0  0  0  0  0  0  0  0  0  0
  192.1120  175.1350  144.8000 N   0  0  0  0  0  2  0  0  0  0  0  0
  195.3600  176.0610  143.7150 C   0  0  1  0  0  3  0  0  0  0  0  0
  194.6660  176.7220  145.7720 C   0  0  0  0  0  2  0  0  0  0  0  0
  194.5870  172.9580  145.6310 C   0  0  0  0  0  1  0  0  0  0  0  0
  195.3090  176.3370  142.2910 N   0  0  0  0  0  1  0  0  0  0  0  0
  194.4730  176.9190  144.3900 O   0  0  0  0  0  0  0  0  0  0  0  0
  195.0480  174.3200  145.3980 N   0  0  0  0  0  0  0  0  0  0  0  0
  194.2570  175.2970  146.1750 C   0  0  2  0  0  3  0  0  0  0  0  0
  194.9680  174.6030  143.9640 C   0  0  0  0  0  2  0  0  0  0  0  0
  1  6  1  0  0  0  0
  2  5  1  0  0  0  0
  2 13  1  0  0  0  0
  3  2  1  0  0  0  0
  4  7  1  0  0  0  0
  5 16  2  0  0  0  0
  6 17  2  0  0  0  0
  7  3  2  0  0  0  0
  8 12  1  0  0  0  0
  8 23  1  6  0  0  0
  9  1  1  0  0  0  0
 10 18  1  0  0  0  0
 11  4  1  0  0  0  0
 13  8  1  0  0  0  0
 14  1  2  0  0  0  0
 14  5  1  0  0  0  0
 15  4  2  0  0  0  0
 15 20  1  0  0  0  0
 16 17  1  0  0  0  0
 16 12  1  0  0  0  0
 18 13  2  0  0  0  0
 19  3  1  0  0  0  0
 19 10  2  0  0  0  0
 20 19  1  0  0  0  0
 22 21  2  0  0  0  0
 23 22  1  0  0  0  0
 24 27  1  6  0  0  0
 24 31  1  0  0  0  0
 24 28  1  0  0  0  0
 25 30  1  0  0  0  0
 28 25  1  0  0  0  0
 29 26  1  0  0  0  0
 29 30  1  0  0  0  0
 30 22  1  6  0  0  0
 31 29  1  0  0  0  0
M  END
>  <MODEL>
3

>  <REMARK>
 VINA RESULT:      -8.0      3.438      6.652
  Name = 
  2 active torsions:
  status: ('A' for Active; 'I' for Inactive)
    1  A    between atoms: C_5  and  C_30
    2  A    between atoms: C_10  and  N_16
                            x       y       z     vdW  Elec       q    Type
                         _______ _______ _______ _____ _____    ______ ____

>  <TORSDO>
F 2

$$$$
=
 OpenBabel11112416463D

 31 35  0  0  1  0  0  0  0  0999 V2000
  186.0430  178.1000  141.0050 C   0  0  0  0  0  0  0  0  0  0  0  0
  187.8650  176.9840  144.1090 N   0  0  0  0  0  0  0  0  0  0  0  0
  187.3320  177.9160  145.1280 C   0  0  1  0  0  3  0  0  0  0  0  0
  185.1760  178.3590  146.1590 C   0  0  0  0  0  0  0  0  0  0  0  0
  187.4230  177.0800  142.7330 C   0  0  0  0  0  0  0  0  0  0  0  0
  186.5080  177.1690  140.0750 C   0  0  0  0  0  3  0  0  0  0  0  0
  185.8630  177.9530  145.1290 N   0  0  0  0  0  0  0  0  0  0  0  0
  189.7100  175.3530  143.3450 C   0  0  1  0  0  3  0  0  0  0  0  0
  185.1430  179.0410  140.6300 F   0  0  0  0  0  0  0  0  0  0  0  0
  188.8860  176.8660  146.7550 C   0  0  0  0  0  3  0  0  0  0  0  0
  183.6970  178.4600  146.0640 C   0  0  0  0  0  1  0  0  0  0  0  0
  188.8840  175.2010  142.1530 N   0  0  0  0  0  2  0  0  0  0  0  0
  188.9980  176.1330  144.4260 C   0  0  0  0  0  0  0  0  0  0  0  0
  186.4950  178.0530  142.3260 C   0  0  0  0  0  3  0  0  0  0  0  0
  185.8430  178.6300  147.4520 C   0  0  0  0  0  3  0  0  0  0  0  0
  187.9090  176.1700  141.7790 C   0  0  0  0  0  0  0  0  0  0  0  0
  187.4410  176.2050  140.4620 C   0  0  0  0  0  3  0  0  0  0  0  0
  189.5090  176.1200  145.6610 C   0  0  0  0  0  3  0  0  0  0  0  0
  187.8460  177.6580  146.5250 C   0  0  0  0  0  0  0  0  0  0  0  0
  187.1180  178.2770  147.6380 C   0  0  0  0  0  3  0  0  0  0  0  0
  192.0780  173.9390  142.5880 O   0  0  0  0  0  0  0  0  0  0  0  0
  191.3020  173.3800  143.4090 C   0  0  0  0  0  0  0  0  0  0  0  0
  190.1030  174.0370  143.8300 N   0  0  0  0  0  2  0  0  0  0  0  0
  194.0840  171.1010  142.8830 C   0  0  1  0  0  3  0  0  0  0  0  0
  193.0170  172.0340  144.6540 C   0  0  0  0  0  2  0  0  0  0  0  0
  190.4380  170.9800  142.1190 C   0  0  0  0  0  1  0  0  0  0  0  0
  195.2380  171.1810  142.0060 N   0  0  0  0  0  1  0  0  0  0  0  0
  194.0580  172.2280  143.7250 O   0  0  0  0  0  0  0  0  0  0  0  0
  191.6490  170.9390  142.9270 N   0  0  0  0  0  0  0  0  0  0  0  0
  191.6550  172.0130  143.9420 C   0  0  2  0  0  3  0  0  0  0  0  0
  192.8080  171.0490  142.0400 C   0  0  0  0  0  2  0  0  0  0  0  0
  1 14  1  0  0  0  0
  2 13  1  0  0  0  0
  2  3  1  0  0  0  0
  3  7  1  1  0  0  0
  3 19  1  0  0  0  0
  4 15  1  0  0  0  0
  5  2  1  0  0  0  0
  6 17  1  0  0  0  0
  6  1  2  0  0  0  0
  7  4  2  0  0  0  0
  8 23  1  1  0  0  0
  8 13  1  0  0  0  0
  9  1  1  0  0  0  0
 11  4  1  0  0  0  0
 12  8  1  0  0  0  0
 13 18  2  0  0  0  0
 14  5  2  0  0  0  0
 15 20  2  0  0  0  0
 16 12  1  0  0  0  0
 16  5  1  0  0  0  0
 17 16  2  0  0  0  0
 18 10  1  0  0  0  0
 19 10  2  0  0  0  0
 19 20  1  0  0  0  0
 21 22  2  0  0  0  0
 22 23  1  0  0  0  0
 24 27  1  6  0  0  0
 24 28  1  0  0  0  0
 26 29  1  0  0  0  0
 28 25  1  0  0  0  0
 29 30  1  0  0  0  0
 30 22  1  6  0  0  0
 30 25  1  0  0  0  0
 31 24  1  0  0  0  0
 31 29  1  0  0  0  0
M  END
>  <MODEL>
4

>  <REMARK>
 VINA RESULT:      -7.9      3.393      8.242
  Name = 
  2 active torsions:
  status: ('A' for Active; 'I' for Inactive)
    1  A    between atoms: C_5  and  C_30
    2  A    between atoms: C_10  and  N_16
                            x       y       z     vdW  Elec       q    Type
                         _______ _______ _______ _____ _____    ______ ____

>  <TORSDO>
F 2

$$$$
=
 OpenBabel11112416463D

 31 35  0  0  1  0  0  0  0  0999 V2000
  185.2370  177.5240  146.1450 C   0  0  0  0  0  0  0  0  0  0  0  0
  187.9020  176.5710  143.6580 N   0  0  0  0  0  0  0  0  0  0  0  0
  187.1060  176.3280  142.4350 C   0  0  0  0  0  0  0  0  0  0  0  0
  185.7230  177.6510  140.9360 C   0  0  0  0  0  0  0  0  0  0  0  0
  187.2460  176.9580  144.8890 C   0  0  0  0  0  0  0  0  0  0  0  0
  186.0140  177.8130  147.2690 C   0  0  0  0  0  3  0  0  0  0  0  0
  186.2040  177.4470  142.1300 N   0  0  0  0  0  0  0  0  0  0  0  0
  190.0770  176.2110  144.9960 C   0  0  1  0  0  3  0  0  0  0  0  0
  183.8910  177.6650  146.1970 F   0  0  0  0  0  0  0  0  0  0  0  0
  189.2170  175.6520  141.3160 C   0  0  0  0  0  3  0  0  0  0  0  0
  184.7440  178.7460  140.7150 C   0  0  0  0  0  1  0  0  0  0  0  0
  189.4250  177.0370  146.0050 N   0  0  0  0  0  2  0  0  0  0  0  0
  189.3050  176.1970  143.6980 C   0  0  0  0  0  0  0  0  0  0  0  0
  185.8500  177.1030  144.9630 C   0  0  0  0  0  3  0  0  0  0  0  0
  186.2130  176.8670  139.7810 C   0  0  0  0  0  3  0  0  0  0  0  0
  188.0120  177.2190  146.0380 C   0  0  0  0  0  0  0  0  0  0  0  0
  187.4000  177.6590  147.2150 C   0  0  0  0  0  3  0  0  0  0  0  0
  189.9070  175.7150  142.6050 C   0  0  0  0  0  3  0  0  0  0  0  0
  187.9360  175.9850  141.2200 C   0  0  0  0  0  0  0  0  0  0  0  0
  187.2850  176.0810  139.9080 C   0  0  0  0  0  2  0  0  0  0  0  0
  192.4210  174.5750  144.8920 O   0  0  0  0  0  0  0  0  0  0  0  0
  192.5700  175.8180  144.7470 C   0  0  0  0  0  0  0  0  0  0  0  0
  191.4360  176.6900  144.7860 N   0  0  0  0  0  2  0  0  0  0  0  0
  195.9140  174.4030  144.9070 C   0  0  1  0  0  3  0  0  0  0  0  0
  194.6910  175.6050  143.4200 C   0  0  0  0  0  2  0  0  0  0  0  0
  194.0840  176.9890  146.8710 C   0  0  0  0  0  1  0  0  0  0  0  0
  196.3800  173.0800  145.2780 N   0  0  0  0  0  1  0  0  0  0  0  0
  194.9970  174.2960  143.8450 O   0  0  0  0  0  0  0  0  0  0  0  0
  194.8000  176.4070  145.7440 N   0  0  0  0  0  0  0  0  0  0  0  0
  193.9560  176.3730  144.5300 C   0  0  2  0  0  3  0  0  0  0  0  0
  195.2420  175.0620  146.1130 C   0  0  0  0  0  2  0  0  0  0  0  0
  1  9  1  0  0  0  0
  1  6  1  0  0  0  0
  2 13  1  0  0  0  0
  2  5  1  0  0  0  0
  3  2  1  0  0  0  0
  4  7  1  0  0  0  0
  5 14  1  0  0  0  0
  5 16  2  0  0  0  0
  7  3  2  0  0  0  0
  8 23  1  6  0  0  0
  8 12  1  0  0  0  0
 10 18  1  0  0  0  0
 11  4  1  0  0  0  0
 12 16  1  0  0  0  0
 13  8  1  0  0  0  0
 14  1  2  0  0  0  0
 15 20  1  0  0  0  0
 15  4  2  0  0  0  0
 16 17  1  0  0  0  0
 17  6  2  0  0  0  0
 18 13  2  0  0  0  0
 19 10  2  0  0  0  0
 19  3  1  0  0  0  0
 20 19  1  0  0  0  0
 22 23  1  0  0  0  0
 22 21  2  0  0  0  0
 24 27  1  1  0  0  0
 24 31  1  0  0  0  0
 25 28  1  0  0  0  0
 25 30  1  0  0  0  0
 28 24  1  0  0  0  0
 29 31  1  0  0  0  0
 29 26  1  0  0  0  0
 30 22  1  1  0  0  0
 30 29  1  0  0  0  0
M  END
>  <MODEL>
5

>  <REMARK>
 VINA RESULT:      -7.8      3.530      7.152
  Name = 
  2 active torsions:
  status: ('A' for Active; 'I' for Inactive)
    1  A    between atoms: C_5  and  C_30
    2  A    between atoms: C_10  and  N_16
                            x       y       z     vdW  Elec       q    Type
                         _______ _______ _______ _____ _____    ______ ____

>  <TORSDO>
F 2

$$$$
=
 OpenBabel11112416463D

 31 35  0  0  1  0  0  0  0  0999 V2000
  185.6780  177.3820  142.8200 C   0  0  0  0  0  0  0  0  0  0  0  0
  188.8100  175.5370  141.8280 N   0  0  0  0  0  0  0  0  0  0  0  0
  188.3440  174.7450  140.6680 C   0  0  0  0  0  0  0  0  0  0  0  0
  187.5190  175.2110  138.4290 C   0  0  0  0  0  0  0  0  0  0  0  0
  187.8900  176.4010  142.5370 C   0  0  0  0  0  0  0  0  0  0  0  0
  186.1550  178.1700  143.8690 C   0  0  0  0  0  3  0  0  0  0  0  0
  187.6510  175.5760  139.6730 N   0  0  0  0  0  0  0  0  0  0  0  0
  190.5200  175.8960  143.7250 C   0  0  1  0  0  3  0  0  0  0  0  0
  184.3820  177.4760  142.4370 F   0  0  0  0  0  0  0  0  0  0  0  0
  190.6090  173.7320  140.5780 C   0  0  0  0  0  3  0  0  0  0  0  0
  186.7290  176.0530  137.4960 C   0  0  0  0  0  1  0  0  0  0  0  0
  189.6990  177.0560  144.0520 N   0  0  0  0  0  2  0  0  0  0  0  0
  190.1170  175.2780  142.4070 C   0  0  0  0  0  0  0  0  0  0  0  0
  186.5410  176.5070  142.1560 C   0  0  0  0  0  3  0  0  0  0  0  0
  188.2260  174.0170  137.9140 C   0  0  0  0  0  3  0  0  0  0  0  0
  188.3480  177.1750  143.6170 C   0  0  0  0  0  0  0  0  0  0  0  0
  187.4890  178.0660  144.2670 C   0  0  0  0  0  3  0  0  0  0  0  0
  190.9410  174.3870  141.8440 C   0  0  0  0  0  3  0  0  0  0  0  0
  189.4310  173.9350  140.0020 C   0  0  0  0  0  0  0  0  0  0  0  0
  189.1570  173.4140  138.6580 C   0  0  0  0  0  2  0  0  0  0  0  0
  192.6680  174.4570  144.9470 O   0  0  0  0  0  0  0  0  0  0  0  0
  192.9520  175.5240  144.3410 C   0  0  0  0  0  0  0  0  0  0  0  0
  191.9220  176.2880  143.7050 N   0  0  0  0  0  2  0  0  0  0  0  0
  196.1300  173.9840  145.2000 C   0  0  1  0  0  3  0  0  0  0  0  0
  195.2350  175.0520  143.4090 C   0  0  0  0  0  2  0  0  0  0  0  0
  194.1890  176.8730  146.5370 C   0  0  0  0  0  1  0  0  0  0  0  0
  196.4440  172.6950  145.7890 N   0  0  0  0  0  1  0  0  0  0  0  0
  195.3840  173.7920  144.0230 O   0  0  0  0  0  0  0  0  0  0  0  0
  195.0320  176.1250  145.6140 N   0  0  0  0  0  0  0  0  0  0  0  0
  194.3880  175.9830  144.2910 C   0  0  2  0  0  3  0  0  0  0  0  0
  195.3220  174.8160  146.1990 C   0  0  0  0  0  2  0  0  0  0  0  0
  1  6  1  0  0  0  0
  2 13  1  0  0  0  0
  2  5  1  0  0  0  0
  3  2  1  0  0  0  0
  4  7  1  0  0  0  0
  5 16  2  0  0  0  0
  6 17  2  0  0  0  0
  7  3  2  0  0  0  0
  8 23  1  6  0  0  0
  8 12  1  0  0  0  0
  9  1  1  0  0  0  0
 10 18  1  0  0  0  0
 11  4  1  0  0  0  0
 13  8  1  0  0  0  0
 14  5  1  0  0  0  0
 14  1  2  0  0  0  0
 15  4  2  0  0  0  0
 15 20  1  0  0  0  0
 16 12  1  0  0  0  0
 16 17  1  0  0  0  0
 18 13  2  0  0  0  0
 19 10  2  0  0  0  0
 19  3  1  0  0  0  0
 20 19  1  0  0  0  0
 22 21  2  0  0  0  0
 23 22  1  0  0  0  0
 24 27  1  1  0  0  0
 24 31  1  0  0  0  0
 25 28  1  0  0  0  0
 25 30  1  0  0  0  0
 28 24  1  0  0  0  0
 29 31  1  0  0  0  0
 29 26  1  0  0  0  0
 30 22  1  1  0  0  0
 30 29  1  0  0  0  0
M  END
>  <MODEL>
6

>  <REMARK>
 VINA RESULT:      -7.8      3.651      7.153
  Name = 
  2 active torsions:
  status: ('A' for Active; 'I' for Inactive)
    1  A    between atoms: C_5  and  C_30
    2  A    between atoms: C_10  and  N_16
                            x       y       z     vdW  Elec       q    Type
                         _______ _______ _______ _____ _____    ______ ____

>  <TORSDO>
F 2

$$$$
=
 OpenBabel11112416463D

 31 35  0  0  1  0  0  0  0  0999 V2000
  185.6210  177.5200  145.5080 C   0  0  0  0  0  0  0  0  0  0  0  0
  188.3760  175.7750  143.6220 N   0  0  0  0  0  0  0  0  0  0  0  0
  187.7170  175.4670  142.3330 C   0  0  0  0  0  0  0  0  0  0  0  0
  186.8020  176.7340  140.4710 C   0  0  0  0  0  0  0  0  0  0  0  0
  187.6430  176.4520  144.6710 C   0  0  0  0  0  0  0  0  0  0  0  0
  186.2820  177.8600  146.6900 C   0  0  0  0  0  3  0  0  0  0  0  0
  187.0770  176.6510  141.7420 N   0  0  0  0  0  0  0  0  0  0  0  0
  190.2560  175.2970  145.3200 C   0  0  1  0  0  3  0  0  0  0  0  0
  184.3260  177.8780  145.3290 F   0  0  0  0  0  0  0  0  0  0  0  0
  189.8020  174.2980  141.6610 C   0  0  0  0  0  3  0  0  0  0  0  0
  186.0720  177.9190  139.9530 C   0  0  0  0  0  1  0  0  0  0  0  0
  189.6350  176.3660  146.0930 N   0  0  0  0  0  2  0  0  0  0  0  0
  189.6720  175.1970  143.9310 C   0  0  0  0  0  0  0  0  0  0  0  0
  186.2980  176.8250  144.5040 C   0  0  0  0  0  3  0  0  0  0  0  0
  187.2910  175.7080  139.5240 C   0  0  0  0  0  3  0  0  0  0  0  0
  188.2860  176.7700  145.8790 C   0  0  0  0  0  0  0  0  0  0  0  0
  187.6130  177.4840  146.8750 C   0  0  0  0  0  3  0  0  0  0  0  0
  190.3170  174.4570  143.0220 C   0  0  0  0  0  3  0  0  0  0  0  0
  188.6250  174.8080  141.3210 C   0  0  0  0  0  0  0  0  0  0  0  0
  188.1800  174.7940  139.9230 C   0  0  0  0  0  2  0  0  0  0  0  0
  192.1240  174.6460  147.3860 O   0  0  0  0  0  0  0  0  0  0  0  0
  192.5770  175.1710  146.3350 C   0  0  0  0  0  0  0  0  0  0  0  0
  191.6950  175.5170  145.2630 N   0  0  0  0  0  2  0  0  0  0  0  0
  194.7800  176.0960  143.5960 C   0  0  1  0  0  3  0  0  0  0  0  0
  194.3350  176.8430  145.6920 C   0  0  0  0  0  2  0  0  0  0  0  0
  194.4380  173.0780  145.7560 C   0  0  0  0  0  1  0  0  0  0  0  0
  194.5230  176.2870  142.1800 N   0  0  0  0  0  1  0  0  0  0  0  0
  193.9470  176.9510  144.3410 O   0  0  0  0  0  0  0  0  0  0  0  0
  194.7900  174.4440  145.3920 N   0  0  0  0  0  0  0  0  0  0  0  0
  194.0600  175.4270  146.2200 C   0  0  2  0  0  3  0  0  0  0  0  0
  194.5020  174.6390  143.9710 C   0  0  0  0  0  2  0  0  0  0  0  0
  1  6  1  0  0  0  0
  2 13  1  0  0  0  0
  2  5  1  0  0  0  0
  3  2  1  0  0  0  0
  4  7  1  0  0  0  0
  5 16  2  0  0  0  0
  6 17  2  0  0  0  0
  7  3  2  0  0  0  0
  8 23  1  6  0  0  0
  8 12  1  0  0  0  0
  9  1  1  0  0  0  0
 10 18  1  0  0  0  0
 11  4  1  0  0  0  0
 13  8  1  0  0  0  0
 14  5  1  0  0  0  0
 14  1  2  0  0  0  0
 15 20  1  0  0  0  0
 15  4  2  0  0  0  0
 16 12  1  0  0  0  0
 16 17  1  0  0  0  0
 18 13  2  0  0  0  0
 19 10  2  0  0  0  0
 19  3  1  0  0  0  0
 20 19  1  0  0  0  0
 22 21  2  0  0  0  0
 23 22  1  0  0  0  0
 24 27  1  6  0  0  0
 24 31  1  0  0  0  0
 24 28  1  0  0  0  0
 25 30  1  0  0  0  0
 28 25  1  0  0  0  0
 29 26  1  0  0  0  0
 29 30  1  0  0  0  0
 30 22  1  6  0  0  0
 31 29  1  0  0  0  0
M  END
>  <MODEL>
7

>  <REMARK>
 VINA RESULT:      -7.7      3.240      6.659
  Name = 
  2 active torsions:
  status: ('A' for Active; 'I' for Inactive)
    1  A    between atoms: C_5  and  C_30
    2  A    between atoms: C_10  and  N_16
                            x       y       z     vdW  Elec       q    Type
                         _______ _______ _______ _____ _____    ______ ____

>  <TORSDO>
F 2

$$$$
=
 OpenBabel11112416463D

 31 35  0  0  1  0  0  0  0  0999 V2000
  185.4030  178.2740  141.3100 C   0  0  0  0  0  0  0  0  0  0  0  0
  188.0060  177.4410  143.9040 N   0  0  0  0  0  0  0  0  0  0  0  0
  187.4760  178.1310  145.1020 C   0  0  1  0  0  3  0  0  0  0  0  0
  185.5190  177.9350  146.5310 C   0  0  0  0  0  0  0  0  0  0  0  0
  187.2950  177.5180  142.6450 C   0  0  0  0  0  0  0  0  0  0  0  0
  185.8860  177.5600  140.2120 C   0  0  0  0  0  3  0  0  0  0  0  0
  186.0690  177.7930  145.3580 N   0  0  0  0  0  0  0  0  0  0  0  0
  190.0000  176.3930  142.6510 C   0  0  1  0  0  3  0  0  0  0  0  0
  184.2500  178.9780  141.2080 F   0  0  0  0  0  0  0  0  0  0  0  0
  189.5210  177.3990  146.3050 C   0  0  0  0  0  3  0  0  0  0  0  0
  184.0690  177.6630  146.7020 C   0  0  0  0  0  1  0  0  0  0  0  0
  189.0180  176.1210  141.6080 N   0  0  0  0  0  2  0  0  0  0  0  0
  189.3480  176.8860  143.9210 C   0  0  0  0  0  0  0  0  0  0  0  0
  186.1010  178.2490  142.5200 C   0  0  0  0  0  3  0  0  0  0  0  0
  186.3420  178.2740  147.7140 C   0  0  0  0  0  3  0  0  0  0  0  0
  187.7870  176.8330  141.5220 C   0  0  0  0  0  0  0  0  0  0  0  0
  187.0770  176.8410  140.3180 C   0  0  0  0  0  3  0  0  0  0  0  0
  190.0780  176.9160  145.0410 C   0  0  0  0  0  3  0  0  0  0  0  0
  188.2980  177.9130  146.3500 C   0  0  0  0  0  0  0  0  0  0  0  0
  187.6750  178.2460  147.6360 C   0  0  0  0  0  3  0  0  0  0  0  0
  192.8500  176.1980  142.5160 O   0  0  0  0  0  0  0  0  0  0  0  0
  192.2090  175.1570  142.8160 C   0  0  0  0  0  0  0  0  0  0  0  0
  190.7810  175.1890  142.9030 N   0  0  0  0  0  2  0  0  0  0  0  0
  191.3410  171.6300  142.6780 C   0  0  1  0  0  3  0  0  0  0  0  0
  192.9700  172.9710  141.8440 C   0  0  0  0  0  2  0  0  0  0  0  0
  192.3060  173.9690  145.4150 C   0  0  0  0  0  1  0  0  0  0  0  0
  190.0840  170.9610  142.3980 N   0  0  0  0  0  1  0  0  0  0  0  0
  191.6790  172.4640  141.5960 O   0  0  0  0  0  0  0  0  0  0  0  0
  192.4770  173.1120  144.2500 N   0  0  0  0  0  0  0  0  0  0  0  0
  192.9640  173.8780  143.0840 C   0  0  2  0  0  3  0  0  0  0  0  0
  191.2000  172.4620  143.9550 C   0  0  0  0  0  2  0  0  0  0  0  0
  1 14  1  0  0  0  0
  2 13  1  0  0  0  0
  2  3  1  0  0  0  0
  3  7  1  1  0  0  0
  3 19  1  0  0  0  0
  4 11  1  0  0  0  0
  4 15  1  0  0  0  0
  5  2  1  0  0  0  0
  6 17  1  0  0  0  0
  6  1  2  0  0  0  0
  7  4  2  0  0  0  0
  8 23  1  1  0  0  0
  8 13  1  0  0  0  0
  9  1  1  0  0  0  0
 10 19  2  0  0  0  0
 12  8  1  0  0  0  0
 13 18  2  0  0  0  0
 14  5  2  0  0  0  0
 16 12  1  0  0  0  0
 16  5  1  0  0  0  0
 17 16  2  0  0  0  0
 18 10  1  0  0  0  0
 19 20  1  0  0  0  0
 20 15  2  0  0  0  0
 21 22  2  0  0  0  0
 22 23  1  0  0  0  0
 24 27  1  6  0  0  0
 24 31  1  0  0  0  0
 25 30  1  0  0  0  0
 28 25  1  0  0  0  0
 28 24  1  0  0  0  0
 29 26  1  0  0  0  0
 30 22  1  6  0  0  0
 30 29  1  0  0  0  0
 31 29  1  0  0  0  0
M  END
>  <MODEL>
8

>  <REMARK>
 VINA RESULT:      -7.6      3.419      7.732
  Name = 
  2 active torsions:
  status: ('A' for Active; 'I' for Inactive)
    1  A    between atoms: C_5  and  C_30
    2  A    between atoms: C_10  and  N_16
                            x       y       z     vdW  Elec       q    Type
                         _______ _______ _______ _____ _____    ______ ____

>  <TORSDO>
F 2

$$$$
=
 OpenBabel11112416463D

 31 35  0  0  1  0  0  0  0  0999 V2000
  186.9140  177.7100  145.3680 C   0  0  0  0  0  0  0  0  0  0  0  0
  189.9590  176.1750  143.7660 N   0  0  0  0  0  0  0  0  0  0  0  0
  191.0490  176.6910  144.6240 C   0  0  1  0  0  3  0  0  0  0  0  0
  191.7400  176.4400  146.9410 C   0  0  0  0  0  0  0  0  0  0  0  0
  188.5850  176.5460  144.0330 C   0  0  0  0  0  0  0  0  0  0  0  0
  185.8970  177.1590  144.5860 C   0  0  0  0  0  3  0  0  0  0  0  0
  190.7880  176.4540  146.0510 N   0  0  0  0  0  0  0  0  0  0  0  0
  189.1940  175.1740  141.5160 C   0  0  1  0  0  3  0  0  0  0  0  0
  186.6050  178.5330  146.4000 F   0  0  0  0  0  0  0  0  0  0  0  0
  192.6490  175.5570  143.1010 C   0  0  0  0  0  3  0  0  0  0  0  0
  191.4000  176.2860  148.3790 C   0  0  0  0  0  1  0  0  0  0  0  0
  187.8680  175.1900  142.1230 N   0  0  0  0  0  2  0  0  0  0  0  0
  190.2750  175.4960  142.5210 C   0  0  0  0  0  0  0  0  0  0  0  0
  188.2480  177.4020  145.0950 C   0  0  0  0  0  3  0  0  0  0  0  0
  193.1610  176.4800  146.5290 C   0  0  0  0  0  3  0  0  0  0  0  0
  187.5530  176.0260  143.2330 C   0  0  0  0  0  0  0  0  0  0  0  0
  186.2170  176.3180  143.5190 C   0  0  0  0  0  3  0  0  0  0  0  0
  191.5470  175.2540  142.1870 C   0  0  0  0  0  3  0  0  0  0  0  0
  192.4190  176.1740  144.2540 C   0  0  0  0  0  0  0  0  0  0  0  0
  193.4910  176.3340  145.2430 C   0  0  0  0  0  3  0  0  0  0  0  0
  188.3770  174.4010  138.8870 O   0  0  0  0  0  0  0  0  0  0  0  0
  188.9890  173.5470  139.5820 C   0  0  0  0  0  0  0  0  0  0  0  0
  189.4280  173.8730  140.9040 N   0  0  0  0  0  2  0  0  0  0  0  0
  192.0030  171.6390  138.8840 C   0  0  1  0  0  3  0  0  0  0  0  0
  190.0480  171.3070  139.9870 C   0  0  0  0  0  2  0  0  0  0  0  0
  189.3180  173.1300  136.7720 C   0  0  0  0  0  1  0  0  0  0  0  0
  193.4080  171.9800  139.0180 N   0  0  0  0  0  1  0  0  0  0  0  0
  191.3640  171.7920  140.1280 O   0  0  0  0  0  0  0  0  0  0  0  0
  189.9450  172.1930  137.6940 N   0  0  0  0  0  0  0  0  0  0  0  0
  189.2560  172.1800  139.0010 C   0  0  2  0  0  3  0  0  0  0  0  0
  191.3540  172.5580  137.8470 C   0  0  0  0  0  2  0  0  0  0  0  0
  1  9  1  0  0  0  0
  2  5  1  0  0  0  0
  2  3  1  0  0  0  0
  3 19  1  6  0  0  0
  3  7  1  0  0  0  0
  4 11  1  0  0  0  0
  5 14  2  0  0  0  0
  6  1  2  0  0  0  0
  7  4  2  0  0  0  0
  8 23  1  1  0  0  0
  8 12  1  0  0  0  0
  8 13  1  0  0  0  0
 10 19  2  0  0  0  0
 12 16  1  0  0  0  0
 13  2  1  0  0  0  0
 14  1  1  0  0  0  0
 15  4  1  0  0  0  0
 16 17  2  0  0  0  0
 16  5  1  0  0  0  0
 17  6  1  0  0  0  0
 18 13  2  0  0  0  0
 18 10  1  0  0  0  0
 19 20  1  0  0  0  0
 20 15  2  0  0  0  0
 21 22  2  0  0  0  0
 22 23  1  0  0  0  0
 24 27  1  1  0  0  0
 24 28  1  0  0  0  0
 25 28  1  0  0  0  0
 26 29  1  0  0  0  0
 29 31  1  0  0  0  0
 29 30  1  0  0  0  0
 30 22  1  1  0  0  0
 30 25  1  0  0  0  0
 31 24  1  0  0  0  0
M  END
>  <MODEL>
9

>  <REMARK>
 VINA RESULT:      -7.5      3.437      7.937
  Name = 
  2 active torsions:
  status: ('A' for Active; 'I' for Inactive)
    1  A    between atoms: C_5  and  C_30
    2  A    between atoms: C_10  and  N_16
                            x       y       z     vdW  Elec       q    Type
                         _______ _______ _______ _____ _____    ______ ____

>  <TORSDO>
F 2

$$$$
