=
 OpenBabel11112416463D

 31 35  0  0  1  0  0  0  0  0999 V2000
  184.4150  178.4100  146.2490 C   0  0  0  0  0  0  0  0  0  0  0  0
  186.8930  176.4800  144.0320 C   0  0  2  0  0  3  0  0  0  0  0  0
  186.5610  176.9440  142.6170 C   0  0  0  0  0  0  0  0  0  0  0  0
  185.0440  177.8940  140.9670 C   0  0  0  0  0  0  0  0  0  0  0  0
  186.2510  177.1950  145.2100 C   0  0  0  0  0  0  0  0  0  0  0  0
  185.0000  178.2370  147.5040 C   0  0  0  0  0  3  0  0  0  0  0  0
  185.3370  177.5440  142.2870 C   0  0  0  0  0  3  0  0  0  0  0  0
  188.8000  175.9360  145.6250 C   0  0  0  0  0  0  0  0  0  0  0  0
  183.2440  179.0800  146.1350 F   0  0  0  0  0  0  0  0  0  0  0  0
  188.6690  175.9760  141.8510 O   0  0  0  0  0  0  0  0  0  0  0  0
  183.7500  178.5490  140.6420 C   0  0  0  0  0  1  0  0  0  0  0  0
  188.0520  176.2870  146.6290 N   0  0  0  0  0  0  0  0  0  0  0  0
  188.4220  176.3670  144.2180 C   0  0  1  0  0  3  0  0  0  0  0  0
  190.0590  175.3140  145.9180 N   0  0  0  0  0  2  0  0  0  0  0  0
  185.0270  177.8770  145.1130 C   0  0  0  0  0  3  0  0  0  0  0  0
  185.9640  177.6260  139.9520 C   0  0  0  0  0  3  0  0  0  0  0  0
  186.8240  177.0080  146.4830 C   0  0  0  0  0  0  0  0  0  0  0  0
  186.2010  177.5330  147.6210 C   0  0  0  0  0  3  0  0  0  0  0  0
  188.9440  175.4250  143.1370 C   0  0  0  0  0  2  0  0  0  0  0  0
  187.4650  176.6350  141.5740 C   0  0  0  0  0  0  0  0  0  0  0  0
  187.1720  176.9930  140.2550 C   0  0  0  0  0  3  0  0  0  0  0  0
  191.9990  176.5680  145.1960 C   0  0  0  0  0  1  0  0  0  0  0  0
  191.2000  175.2850  145.0130 C   0  0  1  0  0  3  0  0  0  0  0  0
  193.0530  173.2030  142.7240 C   0  0  1  0  0  3  0  0  0  0  0  0
  193.5230  174.2620  144.8080 C   0  0  0  0  0  2  0  0  0  0  0  0
  190.2830  172.5920  144.9810 F   0  0  0  0  0  0  0  0  0  0  0  0
  193.1000  173.3560  141.2180 C   0  0  0  0  0  1  0  0  0  0  0  0
  193.5720  174.4160  143.3530 N   0  0  0  0  0  2  0  0  0  0  0  0
  191.5660  172.8190  144.6180 N   0  0  0  0  0  0  0  0  0  0  0  0
  192.0760  174.0380  145.2730 C   0  0  2  0  0  3  0  0  0  0  0  0
  191.6100  172.9630  143.1630 C   0  0  0  0  0  2  0  0  0  0  0  0
  1  6  1  0  0  0  0
  2  3  1  6  0  0  0
  2 13  1  0  0  0  0
  2  5  1  0  0  0  0
  4  7  2  0  0  0  0
  5 17  2  0  0  0  0
  6 18  2  0  0  0  0
  7  3  1  0  0  0  0
  8 14  1  0  0  0  0
  8 12  2  0  0  0  0
  9  1  1  0  0  0  0
 10 19  1  0  0  0  0
 11  4  1  0  0  0  0
 13 19  1  6  0  0  0
 13  8  1  0  0  0  0
 15  5  1  0  0  0  0
 15  1  2  0  0  0  0
 16 21  2  0  0  0  0
 16  4  1  0  0  0  0
 17 12  1  0  0  0  0
 17 18  1  0  0  0  0
 20 10  1  0  0  0  0
 20  3  2  0  0  0  0
 21 20  1  0  0  0  0
 23 22  1  1  0  0  0
 23 14  1  0  0  0  0
 24 27  1  6  0  0  0
 24 31  1  0  0  0  0
 24 28  1  0  0  0  0
 25 30  1  0  0  0  0
 28 25  1  0  0  0  0
 29 26  1  0  0  0  0
 29 30  1  0  0  0  0
 30 23  1  6  0  0  0
 31 29  1  0  0  0  0
M  END
>  <MODEL>
1

>  <REMARK>
 VINA RESULT:      -9.1      0.000      0.000
  Name = 
  2 active torsions:
  status: ('A' for Active; 'I' for Inactive)
    1  A    between atoms: C_5  and  N_16
    2  A    between atoms: C_5  and  C_30
                            x       y       z     vdW  Elec       q    Type
                         _______ _______ _______ _____ _____    ______ ____

>  <TORSDO>
F 2

$$$$
=
 OpenBabel11112416463D

 31 35  0  0  1  0  0  0  0  0999 V2000
  185.2380  178.0080  141.1280 C   0  0  0  0  0  0  0  0  0  0  0  0
  187.8410  176.8390  143.7040 C   0  0  2  0  0  3  0  0  0  0  0  0
  187.1160  176.9580  145.0410 C   0  0  0  0  0  0  0  0  0  0  0  0
  185.3790  177.8930  146.4690 C   0  0  0  0  0  0  0  0  0  0  0  0
  187.0480  177.0180  142.4200 C   0  0  0  0  0  0  0  0  0  0  0  0
  185.8100  177.5330  139.9470 C   0  0  0  0  0  3  0  0  0  0  0  0
  185.9750  177.7570  145.2140 C   0  0  0  0  0  3  0  0  0  0  0  0
  189.4000  175.3690  142.3330 C   0  0  0  0  0  0  0  0  0  0  0  0
  184.0860  178.7200  141.0840 F   0  0  0  0  0  0  0  0  0  0  0  0
  188.8700  175.6010  146.0650 O   0  0  0  0  0  0  0  0  0  0  0  0
  184.1580  178.7260  146.6250 C   0  0  0  0  0  1  0  0  0  0  0  0
  188.8560  175.8220  141.2420 N   0  0  0  0  0  0  0  0  0  0  0  0
  188.6840  175.5450  143.6620 C   0  0  1  0  0  3  0  0  0  0  0  0
  190.5720  174.5520  142.2040 N   0  0  0  0  0  2  0  0  0  0  0  0
  185.8630  177.7680  142.3530 C   0  0  0  0  0  3  0  0  0  0  0  0
  185.9320  177.2510  147.5790 C   0  0  0  0  0  3  0  0  0  0  0  0
  187.6280  176.5590  141.2210 C   0  0  0  0  0  0  0  0  0  0  0  0
  187.0060  176.8130  139.9940 C   0  0  0  0  0  3  0  0  0  0  0  0
  189.6290  175.5770  144.8590 C   0  0  0  0  0  2  0  0  0  0  0  0
  187.6930  176.3510  146.1810 C   0  0  0  0  0  0  0  0  0  0  0  0
  187.0900  176.4840  147.4340 C   0  0  0  0  0  3  0  0  0  0  0  0
  190.2550  172.3010  143.0310 C   0  0  0  0  0  1  0  0  0  0  0  0
  191.0320  173.5980  143.2020 C   0  0  1  0  0  3  0  0  0  0  0  0
  193.7700  174.7830  145.2310 C   0  0  1  0  0  3  0  0  0  0  0  0
  193.1220  172.6740  144.3270 C   0  0  0  0  0  2  0  0  0  0  0  0
  192.8430  175.2500  141.7570 F   0  0  0  0  0  0  0  0  0  0  0  0
  193.6580  175.7050  146.4270 C   0  0  0  0  0  1  0  0  0  0  0  0
  193.0120  173.5600  145.4870 N   0  0  0  0  0  2  0  0  0  0  0  0
  193.3230  174.5980  142.8400 N   0  0  0  0  0  0  0  0  0  0  0  0
  192.5540  173.3600  143.0740 C   0  0  2  0  0  3  0  0  0  0  0  0
  193.2180  175.4900  143.9940 C   0  0  0  0  0  2  0  0  0  0  0  0
  1 15  1  0  0  0  0
  2  5  1  6  0  0  0
  2  3  1  0  0  0  0
  3  7  2  0  0  0  0
  3 20  1  0  0  0  0
  4 11  1  0  0  0  0
  4 16  2  0  0  0  0
  6 18  1  0  0  0  0
  6  1  2  0  0  0  0
  7  4  1  0  0  0  0
  8 13  1  0  0  0  0
  9  1  1  0  0  0  0
 10 20  1  0  0  0  0
 12  8  2  0  0  0  0
 13  2  1  0  0  0  0
 13 19  1  1  0  0  0
 14  8  1  0  0  0  0
 14 23  1  0  0  0  0
 15  5  2  0  0  0  0
 17 12  1  0  0  0  0
 17  5  1  0  0  0  0
 18 17  2  0  0  0  0
 19 10  1  0  0  0  0
 20 21  2  0  0  0  0
 21 16  1  0  0  0  0
 23 22  1  6  0  0  0
 24 28  1  0  0  0  0
 24 27  1  1  0  0  0
 25 28  1  0  0  0  0
 26 29  1  0  0  0  0
 29 30  1  0  0  0  0
 29 31  1  0  0  0  0
 30 23  1  1  0  0  0
 30 25  1  0  0  0  0
 31 24  1  0  0  0  0
M  END
>  <MODEL>
2

>  <REMARK>
 VINA RESULT:      -8.0      2.127      4.545
  Name = 
  2 active torsions:
  status: ('A' for Active; 'I' for Inactive)
    1  A    between atoms: C_5  and  N_16
    2  A    between atoms: C_5  and  C_30
                            x       y       z     vdW  Elec       q    Type
                         _______ _______ _______ _____ _____    ______ ____

>  <TORSDO>
F 2

$$$$
=
 OpenBabel11112416463D

 31 35  0  0  1  0  0  0  0  0999 V2000
  189.7400  177.5350  147.2630 C   0  0  0  0  0  0  0  0  0  0  0  0
  188.8030  175.9550  143.8860 C   0  0  2  0  0  3  0  0  0  0  0  0
  187.8280  176.9540  143.2690 C   0  0  0  0  0  0  0  0  0  0  0  0
  186.2140  178.7690  143.4400 C   0  0  0  0  0  0  0  0  0  0  0  0
  189.5560  176.3470  145.1460 C   0  0  0  0  0  0  0  0  0  0  0  0
  190.8740  176.7920  147.5910 C   0  0  0  0  0  3  0  0  0  0  0  0
  187.1490  177.9160  144.0310 C   0  0  0  0  0  3  0  0  0  0  0  0
  190.7770  174.4300  143.3870 C   0  0  0  0  0  0  0  0  0  0  0  0
  189.2710  178.4720  148.1220 F   0  0  0  0  0  0  0  0  0  0  0  0
  188.0970  175.8250  141.1200 O   0  0  0  0  0  0  0  0  0  0  0  0
  185.5220  179.7960  144.2630 C   0  0  0  0  0  1  0  0  0  0  0  0
  191.1920  174.5800  144.6100 N   0  0  0  0  0  0  0  0  0  0  0  0
  189.7660  175.4070  142.8100 C   0  0  1  0  0  3  0  0  0  0  0  0
  191.4400  173.4530  142.5730 N   0  0  0  0  0  2  0  0  0  0  0  0
  189.0750  177.3000  146.0570 C   0  0  0  0  0  3  0  0  0  0  0  0
  185.9250  178.6540  142.0800 C   0  0  0  0  0  3  0  0  0  0  0  0
  190.6910  175.5880  145.4950 C   0  0  0  0  0  0  0  0  0  0  0  0
  191.3460  175.8170  146.7100 C   0  0  0  0  0  3  0  0  0  0  0  0
  188.9120  174.8070  141.6970 C   0  0  0  0  0  2  0  0  0  0  0  0
  187.4930  176.8160  141.9010 C   0  0  0  0  0  0  0  0  0  0  0  0
  186.5620  177.6760  141.3120 C   0  0  0  0  0  3  0  0  0  0  0  0
  192.6910  174.2210  140.6500 C   0  0  0  0  0  1  0  0  0  0  0  0
  191.4580  173.4600  141.1170 C   0  0  1  0  0  3  0  0  0  0  0  0
  190.0810  172.1440  138.0540 C   0  0  1  0  0  3  0  0  0  0  0  0
  192.1600  171.9350  139.2030 C   0  0  0  0  0  2  0  0  0  0  0  0
  189.4070  171.5410  141.5640 F   0  0  0  0  0  0  0  0  0  0  0  0
  189.3160  172.9300  137.0100 C   0  0  0  0  0  1  0  0  0  0  0  0
  191.4270  172.6980  138.1920 N   0  0  0  0  0  2  0  0  0  0  0  0
  190.0860  171.4670  140.3970 N   0  0  0  0  0  0  0  0  0  0  0  0
  191.4440  172.0190  140.5600 C   0  0  2  0  0  3  0  0  0  0  0  0
  189.3440  172.2240  139.3890 C   0  0  0  0  0  2  0  0  0  0  0  0
  1  6  1  0  0  0  0
  1  9  1  0  0  0  0
  2  3  1  6  0  0  0
  2  5  1  0  0  0  0
  3  7  1  0  0  0  0
  4  7  2  0  0  0  0
  4 11  1  0  0  0  0
  5 17  2  0  0  0  0
  5 15  1  0  0  0  0
  8 12  2  0  0  0  0
 10 19  1  0  0  0  0
 10 20  1  0  0  0  0
 12 17  1  0  0  0  0
 13 19  1  6  0  0  0
 13  8  1  0  0  0  0
 13  2  1  0  0  0  0
 14  8  1  0  0  0  0
 15  1  2  0  0  0  0
 16  4  1  0  0  0  0
 17 18  1  0  0  0  0
 18  6  2  0  0  0  0
 20  3  2  0  0  0  0
 21 20  1  0  0  0  0
 21 16  2  0  0  0  0
 23 22  1  1  0  0  0
 23 14  1  0  0  0  0
 24 27  1  6  0  0  0
 24 28  1  0  0  0  0
 24 31  1  0  0  0  0
 25 30  1  0  0  0  0
 28 25  1  0  0  0  0
 29 30  1  0  0  0  0
 29 26  1  0  0  0  0
 30 23  1  6  0  0  0
 31 29  1  0  0  0  0
M  END
>  <MODEL>
3

>  <REMARK>
 VINA RESULT:      -8.0      2.829      4.203
  Name = 
  2 active torsions:
  status: ('A' for Active; 'I' for Inactive)
    1  A    between atoms: C_5  and  N_16
    2  A    between atoms: C_5  and  C_30
                            x       y       z     vdW  Elec       q    Type
                         _______ _______ _______ _____ _____    ______ ____

>  <TORSDO>
F 2

$$$$
=
 OpenBabel11112416463D

 31 35  0  0  1  0  0  0  0  0999 V2000
  191.3330  172.3850  141.2990 C   0  0  0  0  0  0  0  0  0  0  0  0
  189.9470  174.6380  144.0890 C   0  0  2  0  0  3  0  0  0  0  0  0
  191.1810  175.0220  144.9000 C   0  0  0  0  0  0  0  0  0  0  0  0
  193.4650  174.6380  145.6520 C   0  0  0  0  0  0  0  0  0  0  0  0
  190.1340  173.9140  142.7650 C   0  0  0  0  0  0  0  0  0  0  0  0
  190.2570  172.3810  140.4110 C   0  0  0  0  0  3  0  0  0  0  0  0
  192.3790  174.2940  144.8430 C   0  0  0  0  0  3  0  0  0  0  0  0
  187.7770  175.5240  143.1000 C   0  0  0  0  0  0  0  0  0  0  0  0
  192.4380  171.6510  141.0280 F   0  0  0  0  0  0  0  0  0  0  0  0
  189.8700  176.7750  145.9840 O   0  0  0  0  0  0  0  0  0  0  0  0
  194.7320  173.8670  145.5590 C   0  0  0  0  0  1  0  0  0  0  0  0
  187.8600  174.6420  142.1480 N   0  0  0  0  0  0  0  0  0  0  0  0
  189.0070  175.8530  143.9300 C   0  0  1  0  0  3  0  0  0  0  0  0
  186.5670  176.2870  143.1980 N   0  0  0  0  0  2  0  0  0  0  0  0
  191.2640  173.1330  142.4770 C   0  0  0  0  0  3  0  0  0  0  0  0
  193.3590  175.7010  146.5500 C   0  0  0  0  0  3  0  0  0  0  0  0
  189.0450  173.8870  141.8720 C   0  0  0  0  0  0  0  0  0  0  0  0
  189.1130  173.1270  140.7000 C   0  0  0  0  0  3  0  0  0  0  0  0
  188.6740  176.3580  145.3300 C   0  0  0  0  0  2  0  0  0  0  0  0
  191.0700  176.0680  145.8470 C   0  0  0  0  0  0  0  0  0  0  0  0
  192.1610  176.4120  146.6490 C   0  0  0  0  0  3  0  0  0  0  0  0
  186.7280  178.6700  142.8120 C   0  0  0  0  0  1  0  0  0  0  0  0
  186.4560  177.5870  143.8460 C   0  0  1  0  0  3  0  0  0  0  0  0
  185.4880  179.1370  146.9560 C   0  0  1  0  0  3  0  0  0  0  0  0
  184.7240  179.2470  144.7000 C   0  0  0  0  0  2  0  0  0  0  0  0
  185.2340  175.7620  145.6550 F   0  0  0  0  0  0  0  0  0  0  0  0
  186.4250  179.7460  147.9780 C   0  0  0  0  0  1  0  0  0  0  0  0
  185.6310  179.8410  145.6830 N   0  0  0  0  0  2  0  0  0  0  0  0
  184.9240  177.0720  145.7860 N   0  0  0  0  0  0  0  0  0  0  0  0
  185.0620  177.7630  144.4890 C   0  0  2  0  0  3  0  0  0  0  0  0
  185.8270  177.6580  146.7760 C   0  0  0  0  0  2  0  0  0  0  0  0
  1 15  1  0  0  0  0
  2  5  1  6  0  0  0
  2  3  1  0  0  0  0
  3 20  1  0  0  0  0
  4 16  2  0  0  0  0
  6 18  1  0  0  0  0
  6  1  2  0  0  0  0
  7  3  2  0  0  0  0
  7  4  1  0  0  0  0
  8 14  1  0  0  0  0
  8 13  1  0  0  0  0
  9  1  1  0  0  0  0
 11  4  1  0  0  0  0
 12  8  2  0  0  0  0
 13  2  1  0  0  0  0
 13 19  1  1  0  0  0
 14 23  1  0  0  0  0
 15  5  2  0  0  0  0
 16 21  1  0  0  0  0
 17 12  1  0  0  0  0
 17  5  1  0  0  0  0
 18 17  2  0  0  0  0
 19 10  1  0  0  0  0
 20 10  1  0  0  0  0
 20 21  2  0  0  0  0
 23 22  1  6  0  0  0
 24 27  1  1  0  0  0
 25 28  1  0  0  0  0
 26 29  1  0  0  0  0
 28 24  1  0  0  0  0
 29 31  1  0  0  0  0
 30 23  1  1  0  0  0
 30 25  1  0  0  0  0
 30 29  1  0  0  0  0
 31 24  1  0  0  0  0
M  END
>  <MODEL>
4

>  <REMARK>
 VINA RESULT:      -7.8      2.632      8.022
  Name = 
  2 active torsions:
  status: ('A' for Active; 'I' for Inactive)
    1  A    between atoms: C_5  and  N_16
    2  A    between atoms: C_5  and  C_30
                            x       y       z     vdW  Elec       q    Type
                         _______ _______ _______ _____ _____    ______ ____

>  <TORSDO>
F 2

$$$$
=
 OpenBabel11112416463D

 31 35  0  0  1  0  0  0  0  0999 V2000
  184.3110  178.4200  146.2210 C   0  0  0  0  0  0  0  0  0  0  0  0
  186.7610  176.5870  143.8940 C   0  0  2  0  0  3  0  0  0  0  0  0
  186.3530  177.0440  142.4960 C   0  0  0  0  0  0  0  0  0  0  0  0
  184.7360  177.9450  140.9150 C   0  0  0  0  0  0  0  0  0  0  0  0
  186.1430  177.2750  145.1000 C   0  0  0  0  0  0  0  0  0  0  0  0
  184.9540  178.2630  147.4490 C   0  0  0  0  0  3  0  0  0  0  0  0
  185.0960  177.6010  142.2190 C   0  0  0  0  0  3  0  0  0  0  0  0
  188.7510  176.1060  145.4030 C   0  0  0  0  0  0  0  0  0  0  0  0
  183.1120  179.0480  146.1590 F   0  0  0  0  0  0  0  0  0  0  0  0
  188.4600  176.1540  141.6370 O   0  0  0  0  0  0  0  0  0  0  0  0
  183.4060  178.5540  140.6480 C   0  0  0  0  0  1  0  0  0  0  0  0
  188.0330  176.4270  146.4390 N   0  0  0  0  0  0  0  0  0  0  0  0
  188.2990  176.5280  144.0140 C   0  0  1  0  0  3  0  0  0  0  0  0
  190.0420  175.5290  145.6390 N   0  0  0  0  0  2  0  0  0  0  0  0
  184.8930  177.9120  145.0580 C   0  0  0  0  0  3  0  0  0  0  0  0
  185.6210  177.7130  139.8610 C   0  0  0  0  0  3  0  0  0  0  0  0
  186.7750  177.1040  146.3480 C   0  0  0  0  0  0  0  0  0  0  0  0
  186.1820  177.6020  147.5130 C   0  0  0  0  0  3  0  0  0  0  0  0
  188.8080  175.6090  142.9080 C   0  0  0  0  0  2  0  0  0  0  0  0
  187.2230  176.7710  141.4140 C   0  0  0  0  0  0  0  0  0  0  0  0
  186.8620  177.1230  140.1110 C   0  0  0  0  0  3  0  0  0  0  0  0
  191.6040  176.9820  144.4970 C   0  0  0  0  0  1  0  0  0  0  0  0
  191.1450  175.5440  144.6880 C   0  0  1  0  0  3  0  0  0  0  0  0
  194.4670  176.4010  145.8000 C   0  0  1  0  0  3  0  0  0  0  0  0
  192.7190  174.9970  146.6130 C   0  0  0  0  0  2  0  0  0  0  0  0
  193.1810  174.4390  143.0370 F   0  0  0  0  0  0  0  0  0  0  0  0
  195.0600  177.7940  145.8460 C   0  0  0  0  0  1  0  0  0  0  0  0
  193.2880  176.3450  146.6630 N   0  0  0  0  0  2  0  0  0  0  0  0
  193.5030  174.7200  144.3200 N   0  0  0  0  0  0  0  0  0  0  0  0
  192.3040  174.6450  145.1760 C   0  0  2  0  0  3  0  0  0  0  0  0
  194.0790  176.0640  144.3620 C   0  0  0  0  0  2  0  0  0  0  0  0
  1  6  1  0  0  0  0
  2  3  1  6  0  0  0
  2 13  1  0  0  0  0
  2  5  1  0  0  0  0
  4  7  2  0  0  0  0
  5 17  2  0  0  0  0
  6 18  2  0  0  0  0
  7  3  1  0  0  0  0
  8 14  1  0  0  0  0
  8 12  2  0  0  0  0
  9  1  1  0  0  0  0
 10 19  1  0  0  0  0
 11  4  1  0  0  0  0
 13 19  1  6  0  0  0
 13  8  1  0  0  0  0
 15  5  1  0  0  0  0
 15  1  2  0  0  0  0
 16 21  2  0  0  0  0
 16  4  1  0  0  0  0
 17 12  1  0  0  0  0
 17 18  1  0  0  0  0
 20 10  1  0  0  0  0
 20  3  2  0  0  0  0
 21 20  1  0  0  0  0
 23 22  1  1  0  0  0
 23 14  1  0  0  0  0
 24 27  1  6  0  0  0
 24 28  1  0  0  0  0
 25 28  1  0  0  0  0
 26 29  1  0  0  0  0
 29 31  1  0  0  0  0
 29 30  1  0  0  0  0
 30 23  1  6  0  0  0
 30 25  1  0  0  0  0
 31 24  1  0  0  0  0
M  END
>  <MODEL>
5

>  <REMARK>
 VINA RESULT:      -7.7      1.422      2.039
  Name = 
  2 active torsions:
  status: ('A' for Active; 'I' for Inactive)
    1  A    between atoms: C_5  and  N_16
    2  A    between atoms: C_5  and  C_30
                            x       y       z     vdW  Elec       q    Type
                         _______ _______ _______ _____ _____    ______ ____

>  <TORSDO>
F 2

$$$$
=
 OpenBabel11112416463D

 31 35  0  0  1  0  0  0  0  0999 V2000
  190.8710  176.6110  147.1160 C   0  0  0  0  0  0  0  0  0  0  0  0
  189.5050  175.2820  143.7770 C   0  0  2  0  0  3  0  0  0  0  0  0
  188.4420  176.3020  143.3820 C   0  0  0  0  0  0  0  0  0  0  0  0
  186.8400  178.0560  143.9180 C   0  0  0  0  0  0  0  0  0  0  0  0
  190.4180  175.5910  144.9530 C   0  0  0  0  0  0  0  0  0  0  0  0
  192.0500  175.8730  147.2260 C   0  0  0  0  0  3  0  0  0  0  0  0
  187.8590  177.1830  144.3050 C   0  0  0  0  0  3  0  0  0  0  0  0
  191.4140  173.8520  142.8930 C   0  0  0  0  0  0  0  0  0  0  0  0
  190.5110  177.4630  148.1050 F   0  0  0  0  0  0  0  0  0  0  0  0
  188.4320  175.3550  141.1300 O   0  0  0  0  0  0  0  0  0  0  0  0
  186.2530  178.9960  144.9080 C   0  0  0  0  0  1  0  0  0  0  0  0
  191.9900  173.9140  144.0570 N   0  0  0  0  0  0  0  0  0  0  0  0
  190.3200  174.8460  142.5400 C   0  0  1  0  0  3  0  0  0  0  0  0
  191.9740  172.9600  141.9200 N   0  0  0  0  0  2  0  0  0  0  0  0
  190.0520  176.4560  145.9960 C   0  0  0  0  0  3  0  0  0  0  0  0
  186.3700  178.0430  142.6040 C   0  0  0  0  0  3  0  0  0  0  0  0
  191.6000  174.8360  145.0820 C   0  0  0  0  0  0  0  0  0  0  0  0
  192.4120  174.9830  146.2120 C   0  0  0  0  0  3  0  0  0  0  0  0
  189.3320  174.3160  141.5070 C   0  0  0  0  0  2  0  0  0  0  0  0
  187.9250  176.2650  142.0650 C   0  0  0  0  0  0  0  0  0  0  0  0
  186.9100  177.1460  141.6800 C   0  0  0  0  0  3  0  0  0  0  0  0
  192.7950  174.1000  139.9500 C   0  0  0  0  0  1  0  0  0  0  0  0
  191.7940  173.0840  140.4800 C   0  0  1  0  0  3  0  0  0  0  0  0
  190.2620  171.7640  137.4930 C   0  0  1  0  0  3  0  0  0  0  0  0
  192.4850  171.8750  138.3480 C   0  0  0  0  0  2  0  0  0  0  0  0
  190.2100  170.7740  140.9800 F   0  0  0  0  0  0  0  0  0  0  0  0
  189.2270  172.4640  136.6380 C   0  0  0  0  0  1  0  0  0  0  0  0
  191.4900  172.5570  137.5190 N   0  0  0  0  0  2  0  0  0  0  0  0
  190.7200  170.9230  139.7360 N   0  0  0  0  0  0  0  0  0  0  0  0
  191.9640  171.7140  139.7850 C   0  0  2  0  0  3  0  0  0  0  0  0
  189.7180  171.5970  138.9100 C   0  0  0  0  0  2  0  0  0  0  0  0
  1  6  1  0  0  0  0
  1  9  1  0  0  0  0
  2  3  1  6  0  0  0
  2  5  1  0  0  0  0
  3  7  1  0  0  0  0
  4  7  2  0  0  0  0
  4 11  1  0  0  0  0
  5 17  2  0  0  0  0
  5 15  1  0  0  0  0
  8 12  2  0  0  0  0
 10 19  1  0  0  0  0
 10 20  1  0  0  0  0
 12 17  1  0  0  0  0
 13 19  1  6  0  0  0
 13  8  1  0  0  0  0
 13  2  1  0  0  0  0
 14  8  1  0  0  0  0
 15  1  2  0  0  0  0
 16  4  1  0  0  0  0
 17 18  1  0  0  0  0
 18  6  2  0  0  0  0
 20  3  2  0  0  0  0
 21 20  1  0  0  0  0
 21 16  2  0  0  0  0
 23 22  1  6  0  0  0
 23 14  1  0  0  0  0
 24 27  1  6  0  0  0
 24 28  1  0  0  0  0
 24 31  1  0  0  0  0
 25 30  1  0  0  0  0
 28 25  1  0  0  0  0
 29 30  1  0  0  0  0
 29 26  1  0  0  0  0
 30 23  1  6  0  0  0
 31 29  1  0  0  0  0
M  END
>  <MODEL>
6

>  <REMARK>
 VINA RESULT:      -7.3      2.934      4.988
  Name = 
  2 active torsions:
  status: ('A' for Active; 'I' for Inactive)
    1  A    between atoms: C_5  and  N_16
    2  A    between atoms: C_5  and  C_30
                            x       y       z     vdW  Elec       q    Type
                         _______ _______ _______ _____ _____    ______ ____

>  <TORSDO>
F 2

$$$$
=
 OpenBabel11112416463D

 31 35  0  0  1  0  0  0  0  0999 V2000
  185.8690  178.4610  145.1000 C   0  0  0  0  0  0  0  0  0  0  0  0
  189.0600  176.5000  144.2320 C   0  0  2  0  0  3  0  0  0  0  0  0
  189.8750  176.5330  145.5220 C   0  0  0  0  0  0  0  0  0  0  0  0
  190.4560  177.5130  147.6740 C   0  0  0  0  0  0  0  0  0  0  0  0
  187.6250  177.0010  144.2580 C   0  0  0  0  0  0  0  0  0  0  0  0
  185.0380  178.0830  144.0450 C   0  0  0  0  0  3  0  0  0  0  0  0
  189.6450  177.4730  146.5380 C   0  0  0  0  0  3  0  0  0  0  0  0
  188.3280  175.0200  142.2980 C   0  0  0  0  0  0  0  0  0  0  0  0
  185.4310  179.3500  146.0230 F   0  0  0  0  0  0  0  0  0  0  0  0
  191.2980  174.7650  144.6170 O   0  0  0  0  0  0  0  0  0  0  0  0
  190.1800  178.5020  148.7480 C   0  0  0  0  0  1  0  0  0  0  0  0
  187.2360  175.7160  142.1880 N   0  0  0  0  0  0  0  0  0  0  0  0
  189.1520  175.1080  143.5720 C   0  0  1  0  0  3  0  0  0  0  0  0
  188.6060  174.0510  141.2780 N   0  0  0  0  0  2  0  0  0  0  0  0
  187.1600  177.9370  145.1950 C   0  0  0  0  0  3  0  0  0  0  0  0
  191.5280  176.6270  147.7990 C   0  0  0  0  0  3  0  0  0  0  0  0
  186.7850  176.6410  143.1850 C   0  0  0  0  0  0  0  0  0  0  0  0
  185.4970  177.1770  143.0860 C   0  0  0  0  0  3  0  0  0  0  0  0
  190.6310  174.8010  143.3570 C   0  0  0  0  0  2  0  0  0  0  0  0
  190.9930  175.6720  145.6380 C   0  0  0  0  0  0  0  0  0  0  0  0
  191.7970  175.7110  146.7800 C   0  0  0  0  0  3  0  0  0  0  0  0
  188.8360  171.9530  142.4610 C   0  0  0  0  0  1  0  0  0  0  0  0
  189.4720  172.8930  141.4470 C   0  0  1  0  0  3  0  0  0  0  0  0
  192.5370  172.1440  139.6990 C   0  0  1  0  0  3  0  0  0  0  0  0
  190.5720  170.9210  140.2690 C   0  0  0  0  0  2  0  0  0  0  0  0
  189.6420  174.1800  138.9160 F   0  0  0  0  0  0  0  0  0  0  0  0
  193.9340  172.5230  140.1460 C   0  0  0  0  0  1  0  0  0  0  0  0
  191.9210  171.2820  140.7070 N   0  0  0  0  0  2  0  0  0  0  0  0
  190.3550  173.0430  139.0870 N   0  0  0  0  0  0  0  0  0  0  0  0
  189.7100  172.1820  140.0960 C   0  0  2  0  0  3  0  0  0  0  0  0
  191.7040  173.4110  139.5150 C   0  0  0  0  0  2  0  0  0  0  0  0
  1 15  1  0  0  0  0
  1  9  1  0  0  0  0
  2  5  1  1  0  0  0
  2  3  1  0  0  0  0
  3 20  2  0  0  0  0
  3  7  1  0  0  0  0
  4 16  1  0  0  0  0
  4 11  1  0  0  0  0
  5 15  2  0  0  0  0
  6  1  2  0  0  0  0
  7  4  2  0  0  0  0
  8 13  1  0  0  0  0
 10 20  1  0  0  0  0
 12  8  2  0  0  0  0
 12 17  1  0  0  0  0
 13 19  1  6  0  0  0
 13  2  1  0  0  0  0
 14 23  1  0  0  0  0
 14  8  1  0  0  0  0
 17  5  1  0  0  0  0
 18 17  2  0  0  0  0
 18  6  1  0  0  0  0
 19 10  1  0  0  0  0
 20 21  1  0  0  0  0
 21 16  2  0  0  0  0
 23 22  1  1  0  0  0
 24 27  1  1  0  0  0
 24 28  1  0  0  0  0
 25 28  1  0  0  0  0
 26 29  1  0  0  0  0
 29 31  1  0  0  0  0
 29 30  1  0  0  0  0
 30 25  1  0  0  0  0
 30 23  1  1  0  0  0
 31 24  1  0  0  0  0
M  END
>  <MODEL>
7

>  <REMARK>
 VINA RESULT:      -7.2      2.901      5.161
  Name = 
  2 active torsions:
  status: ('A' for Active; 'I' for Inactive)
    1  A    between atoms: C_5  and  N_16
    2  A    between atoms: C_5  and  C_30
                            x       y       z     vdW  Elec       q    Type
                         _______ _______ _______ _____ _____    ______ ____

>  <TORSDO>
F 2

$$$$
=
 OpenBabel11112416463D

 31 35  0  0  1  0  0  0  0  0999 V2000
  193.0840  173.4080  144.9670 C   0  0  0  0  0  0  0  0  0  0  0  0
  190.2040  174.9660  142.9520 C   0  0  2  0  0  3  0  0  0  0  0  0
  189.9200  173.9380  141.8600 C   0  0  0  0  0  0  0  0  0  0  0  0
  190.5780  172.0740  140.4390 C   0  0  0  0  0  0  0  0  0  0  0  0
  191.1520  174.5950  144.0810 C   0  0  0  0  0  0  0  0  0  0  0  0
  193.0400  174.1850  146.1250 C   0  0  0  0  0  3  0  0  0  0  0  0
  190.8480  172.9540  141.4890 C   0  0  0  0  0  3  0  0  0  0  0  0
  189.1170  176.5520  144.6180 C   0  0  0  0  0  0  0  0  0  0  0  0
  194.0370  172.4560  144.8250 F   0  0  0  0  0  0  0  0  0  0  0  0
  187.8110  175.0790  141.3940 O   0  0  0  0  0  0  0  0  0  0  0  0
  191.5670  171.0250  140.0770 C   0  0  0  0  0  1  0  0  0  0  0  0
  190.1400  176.4120  145.4070 N   0  0  0  0  0  0  0  0  0  0  0  0
  188.8830  175.5450  143.5030 C   0  0  1  0  0  3  0  0  0  0  0  0
  188.1450  177.5500  144.9560 N   0  0  0  0  0  2  0  0  0  0  0  0
  192.1570  173.6250  143.9440 C   0  0  0  0  0  3  0  0  0  0  0  0
  189.3830  172.1820  139.7260 C   0  0  0  0  0  3  0  0  0  0  0  0
  191.1280  175.3870  145.2450 C   0  0  0  0  0  0  0  0  0  0  0  0
  192.0660  175.1770  146.2620 C   0  0  0  0  0  3  0  0  0  0  0  0
  188.1090  176.1210  142.3220 C   0  0  0  0  0  2  0  0  0  0  0  0
  188.7330  174.0680  141.1000 C   0  0  0  0  0  0  0  0  0  0  0  0
  188.4640  173.1810  140.0550 C   0  0  0  0  0  3  0  0  0  0  0  0
  185.9040  176.8830  145.5770 C   0  0  0  0  0  1  0  0  0  0  0  0
  186.7600  177.5460  144.5080 C   0  0  1  0  0  3  0  0  0  0  0  0
  183.9810  178.7220  142.5310 C   0  0  1  0  0  3  0  0  0  0  0  0
  184.8340  179.2010  144.7050 C   0  0  0  0  0  2  0  0  0  0  0  0
  187.5750  179.1400  142.2960 F   0  0  0  0  0  0  0  0  0  0  0  0
  183.0220  177.8580  141.7390 C   0  0  0  0  0  1  0  0  0  0  0  0
  183.9040  178.3640  143.9460 N   0  0  0  0  0  2  0  0  0  0  0  0
  186.3280  179.3370  142.7810 N   0  0  0  0  0  0  0  0  0  0  0  0
  186.2740  178.9830  144.2120 C   0  0  2  0  0  3  0  0  0  0  0  0
  185.4020  178.5050  142.0130 C   0  0  0  0  0  2  0  0  0  0  0  0
  1  6  1  0  0  0  0
  2  3  1  1  0  0  0
  2 13  1  0  0  0  0
  2  5  1  0  0  0  0
  4  7  2  0  0  0  0
  5 17  2  0  0  0  0
  6 18  2  0  0  0  0
  7  3  1  0  0  0  0
  8 14  1  0  0  0  0
  8 12  2  0  0  0  0
  9  1  1  0  0  0  0
 10 19  1  0  0  0  0
 11  4  1  0  0  0  0
 13 19  1  6  0  0  0
 13  8  1  0  0  0  0
 15  5  1  0  0  0  0
 15  1  2  0  0  0  0
 16 21  2  0  0  0  0
 16  4  1  0  0  0  0
 17 12  1  0  0  0  0
 17 18  1  0  0  0  0
 20 10  1  0  0  0  0
 20  3  2  0  0  0  0
 21 20  1  0  0  0  0
 23 14  1  0  0  0  0
 23 22  1  1  0  0  0
 24 27  1  6  0  0  0
 24 28  1  0  0  0  0
 26 29  1  0  0  0  0
 28 25  1  0  0  0  0
 29 30  1  0  0  0  0
 30 23  1  6  0  0  0
 30 25  1  0  0  0  0
 31 24  1  0  0  0  0
 31 29  1  0  0  0  0
M  END
>  <MODEL>
8

>  <REMARK>
 VINA RESULT:      -7.2      2.540      7.271
  Name = 
  2 active torsions:
  status: ('A' for Active; 'I' for Inactive)
    1  A    between atoms: C_5  and  N_16
    2  A    between atoms: C_5  and  C_30
                            x       y       z     vdW  Elec       q    Type
                         _______ _______ _______ _____ _____    ______ ____

>  <TORSDO>
F 2

$$$$
=
 OpenBabel11112416463D

 31 35  0  0  1  0  0  0  0  0999 V2000
  196.5260  172.1980  144.8960 C   0  0  0  0  0  0  0  0  0  0  0  0
  192.9770  173.1970  143.8090 C   0  0  2  0  0  3  0  0  0  0  0  0
  192.4470  171.9570  143.0950 C   0  0  0  0  0  0  0  0  0  0  0  0
  192.7720  169.8670  141.8900 C   0  0  0  0  0  0  0  0  0  0  0  0
  194.2900  173.1030  144.5680 C   0  0  0  0  0  0  0  0  0  0  0  0
  196.8000  173.1940  145.8330 C   0  0  0  0  0  3  0  0  0  0  0  0
  193.2910  170.9540  142.5970 C   0  0  0  0  0  3  0  0  0  0  0  0
  192.3660  175.0500  145.4420 C   0  0  0  0  0  0  0  0  0  0  0  0
  197.4690  171.2740  144.5940 F   0  0  0  0  0  0  0  0  0  0  0  0
  190.1960  172.8980  143.2230 O   0  0  0  0  0  0  0  0  0  0  0  0
  193.6830  168.8030  141.3900 C   0  0  0  0  0  1  0  0  0  0  0  0
  193.6080  175.1140  145.8210 N   0  0  0  0  0  0  0  0  0  0  0  0
  191.8720  173.8270  144.6860 C   0  0  1  0  0  3  0  0  0  0  0  0
  191.4690  176.0600  145.9230 N   0  0  0  0  0  2  0  0  0  0  0  0
  195.2860  172.1640  144.2540 C   0  0  0  0  0  3  0  0  0  0  0  0
  191.4000  169.7810  141.6470 C   0  0  0  0  0  3  0  0  0  0  0  0
  194.5840  174.1160  145.5010 C   0  0  0  0  0  0  0  0  0  0  0  0
  195.8320  174.1550  146.1320 C   0  0  0  0  0  3  0  0  0  0  0  0
  190.6810  174.1180  143.7790 C   0  0  0  0  0  2  0  0  0  0  0  0
  191.0640  171.8830  142.8030 C   0  0  0  0  0  0  0  0  0  0  0  0
  190.5480  170.7910  142.1010 C   0  0  0  0  0  3  0  0  0  0  0  0
  189.6910  175.1110  147.2630 C   0  0  0  0  0  1  0  0  0  0  0  0
  190.0230  175.9110  146.0110 C   0  0  1  0  0  3  0  0  0  0  0  0
  187.1230  177.0990  144.2240 C   0  0  1  0  0  3  0  0  0  0  0  0
  187.8660  177.1790  146.4890 C   0  0  0  0  0  2  0  0  0  0  0  0
  190.6140  178.0740  144.2610 F   0  0  0  0  0  0  0  0  0  0  0  0
  186.3160  176.3140  143.2130 C   0  0  0  0  0  1  0  0  0  0  0  0
  187.0840  176.4160  145.5160 N   0  0  0  0  0  2  0  0  0  0  0  0
  189.3460  177.9720  144.7190 N   0  0  0  0  0  0  0  0  0  0  0  0
  189.3280  177.2920  146.0280 C   0  0  2  0  0  3  0  0  0  0  0  0
  188.5670  177.2160  143.7390 C   0  0  0  0  0  2  0  0  0  0  0  0
  1  6  1  0  0  0  0
  2  3  1  1  0  0  0
  2  5  1  0  0  0  0
  2 13  1  0  0  0  0
  4  7  1  0  0  0  0
  5 17  2  0  0  0  0
  6 18  2  0  0  0  0
  7  3  2  0  0  0  0
  8 12  2  0  0  0  0
  8 14  1  0  0  0  0
  9  1  1  0  0  0  0
 10 19  1  0  0  0  0
 11  4  1  0  0  0  0
 13 19  1  6  0  0  0
 13  8  1  0  0  0  0
 14 23  1  0  0  0  0
 15  5  1  0  0  0  0
 15  1  2  0  0  0  0
 16  4  2  0  0  0  0
 16 21  1  0  0  0  0
 17 12  1  0  0  0  0
 17 18  1  0  0  0  0
 20  3  1  0  0  0  0
 20 10  1  0  0  0  0
 21 20  2  0  0  0  0
 23 22  1  1  0  0  0
 24 27  1  6  0  0  0
 24 28  1  0  0  0  0
 26 29  1  0  0  0  0
 28 25  1  0  0  0  0
 29 30  1  0  0  0  0
 30 23  1  6  0  0  0
 30 25  1  0  0  0  0
 31 24  1  0  0  0  0
 31 29  1  0  0  0  0
M  END
>  <MODEL>
9

>  <REMARK>
 VINA RESULT:      -6.8      2.791      8.327
  Name = 
  2 active torsions:
  status: ('A' for Active; 'I' for Inactive)
    1  A    between atoms: C_5  and  N_16
    2  A    between atoms: C_5  and  C_30
                            x       y       z     vdW  Elec       q    Type
                         _______ _______ _______ _____ _____    ______ ____

>  <TORSDO>
F 2

$$$$
