=
 OpenBabel11112416163D

 30 35  0  0  1  0  0  0  0  0999 V2000
  187.2070  176.6350  144.3490 C   0  0  0  0  0  0  0  0  0  0  0  0
  185.2590  177.9120  145.2250 C   0  0  0  0  0  0  0  0  0  0  0  0
  189.4310  177.4660  147.7060 N   0  0  0  0  0  2  0  0  0  0  0  0
  188.5160  176.1150  144.5330 C   0  0  0  0  0  0  0  0  0  0  0  0
  186.5460  176.3700  143.1460 O   0  0  0  0  0  0  0  0  0  0  0  0
  189.0910  174.3910  141.1980 C   0  0  0  0  0  1  0  0  0  0  0  0
  191.4210  175.0330  144.0370 C   0  0  1  0  0  3  0  0  0  0  0  0
  188.2240  174.8160  142.3810 C   0  0  2  0  0  3  0  0  0  0  0  0
  191.6590  175.7190  145.3760 C   0  0  2  0  0  3  0  0  0  0  0  0
  190.5650  176.8500  147.3110 C   0  0  0  0  0  0  0  0  0  0  0  0
  187.2560  175.9390  141.9900 C   0  0  2  0  0  3  0  0  0  0  0  0
  189.0250  175.1640  143.5690 N   0  0  0  0  0  0  0  0  0  0  0  0
  184.6880  178.6710  146.2500 C   0  0  0  0  0  3  0  0  0  0  0  0
  192.4670  174.7330  146.1940 C   0  0  0  0  0  2  0  0  0  0  0  0
  192.5900  174.0800  143.8530 C   0  0  0  0  0  2  0  0  0  0  0  0
  184.5020  177.6690  144.0860 O   0  0  0  0  0  1  0  0  0  0  0  0
  188.5950  177.2310  146.6810 C   0  0  0  0  0  0  0  0  0  0  0  0
  185.4020  178.9470  147.4160 C   0  0  0  0  0  3  0  0  0  0  0  0
  186.5770  177.4100  145.3630 C   0  0  0  0  0  0  0  0  0  0  0  0
  189.2090  176.4820  145.7070 C   0  0  0  0  0  0  0  0  0  0  0  0
  191.6230  176.8920  147.9960 O   0  0  0  0  0  0  0  0  0  0  0  0
  190.4810  176.2220  146.1070 N   0  0  0  0  0  0  0  0  0  0  0  0
  193.3220  173.9990  145.1830 C   0  0  0  0  0  2  0  0  0  0  0  0
  189.7670  173.3570  145.0950 C   0  0  0  0  0  1  0  0  0  0  0  0
  186.7020  178.4660  147.5680 C   0  0  0  0  0  3  0  0  0  0  0  0
  187.2900  177.7020  146.5550 C   0  0  0  0  0  0  0  0  0  0  0  0
  190.1150  174.2620  143.9150 C   0  0  2  0  0  3  0  0  0  0  0  0
  187.9830  177.1280  141.3640 C   0  0  0  0  0  2  0  0  0  0  0  0
  186.5530  177.3840  139.7060 C   0  0  0  0  0  1  0  0  0  0  0  0
  187.0560  178.0260  140.8360 O   0  0  0  0  0  0  0  0  0  0  0  0
  1  4  2  0  0  0  0
  1 19  1  0  0  0  0
  2 19  2  0  0  0  0
  2 13  1  0  0  0  0
  4 20  1  0  0  0  0
  5  1  1  0  0  0  0
  7 15  1  1  0  0  0
  7  9  1  0  0  0  0
  8  6  1  6  0  0  0
  8 12  1  0  0  0  0
  9 22  1  0  0  0  0
  9 14  1  1  0  0  0
 10  3  1  0  0  0  0
 10 21  2  0  0  0  0
 11 28  1  1  0  0  0
 11  8  1  0  0  0  0
 11  5  1  0  0  0  0
 12 27  1  0  0  0  0
 12  4  1  0  0  0  0
 13 18  2  0  0  0  0
 15 23  1  0  0  0  0
 16  2  1  0  0  0  0
 17  3  1  0  0  0  0
 18 25  1  0  0  0  0
 19 26  1  0  0  0  0
 20 22  1  0  0  0  0
 20 17  2  0  0  0  0
 22 10  1  0  0  0  0
 23 14  1  0  0  0  0
 26 17  1  0  0  0  0
 26 25  2  0  0  0  0
 27  7  1  0  0  0  0
 27 24  1  1  0  0  0
 29 30  1  0  0  0  0
 30 28  1  0  0  0  0
M  END
>  <MODEL>
1

>  <REMARK>
 VINA RESULT:      -8.8      0.000      0.000
  Name = 
  2 active torsions:
  status: ('A' for Active; 'I' for Inactive)
    1  A    between atoms: C_11  and  C_28
    2  A    between atoms: C_28  and  O_30
                            x       y       z     vdW  Elec       q    Type
                         _______ _______ _______ _____ _____    ______ ____

>  <TORSDO>
F 2

$$$$
=
 OpenBabel11112416163D

 30 35  0  0  1  0  0  0  0  0999 V2000
  189.6370  175.8500  144.0410 C   0  0  0  0  0  0  0  0  0  0  0  0
  191.6570  175.2790  145.3770 C   0  0  0  0  0  0  0  0  0  0  0  0
  187.7890  177.5320  147.3060 N   0  0  0  0  0  2  0  0  0  0  0  0
  188.3620  176.4690  143.9480 C   0  0  0  0  0  0  0  0  0  0  0  0
  190.1650  175.2330  142.9020 O   0  0  0  0  0  0  0  0  0  0  0  0
  187.4400  175.7040  140.3440 C   0  0  0  0  0  1  0  0  0  0  0  0
  185.4310  177.2080  143.1010 C   0  0  1  0  0  3  0  0  0  0  0  0
  188.4280  176.0670  141.4510 C   0  0  2  0  0  3  0  0  0  0  0  0
  185.3360  177.5570  144.5810 C   0  0  2  0  0  3  0  0  0  0  0  0
  186.6240  177.8410  146.6970 C   0  0  0  0  0  0  0  0  0  0  0  0
  189.3360  174.8810  141.8000 C   0  0  2  0  0  3  0  0  0  0  0  0
  187.7600  176.6220  142.6420 N   0  0  0  0  0  0  0  0  0  0  0  0
  192.3300  175.3070  146.6020 C   0  0  0  0  0  3  0  0  0  0  0  0
  184.6320  178.8980  144.6330 C   0  0  0  0  0  2  0  0  0  0  0  0
  184.2580  177.9130  142.4400 C   0  0  0  0  0  2  0  0  0  0  0  0
  192.2870  174.6780  144.2940 O   0  0  0  0  0  1  0  0  0  0  0  0
  188.5100  176.9930  146.3090 C   0  0  0  0  0  0  0  0  0  0  0  0
  191.7460  175.8970  147.7230 C   0  0  0  0  0  3  0  0  0  0  0  0
  190.3680  175.8550  145.2620 C   0  0  0  0  0  0  0  0  0  0  0  0
  187.7990  176.9920  145.1330 C   0  0  0  0  0  0  0  0  0  0  0  0
  185.6490  178.3290  147.3280 O   0  0  0  0  0  0  0  0  0  0  0  0
  186.5820  177.5460  145.3700 N   0  0  0  0  0  0  0  0  0  0  0  0
  183.6780  178.8820  143.4570 C   0  0  0  0  0  2  0  0  0  0  0  0
  187.2080  179.0380  142.7000 C   0  0  0  0  0  1  0  0  0  0  0  0
  190.4760  176.4640  147.6310 C   0  0  0  0  0  3  0  0  0  0  0  0
  189.7880  176.4490  146.4140 C   0  0  0  0  0  0  0  0  0  0  0  0
  186.7240  177.6180  142.4100 C   0  0  2  0  0  3  0  0  0  0  0  0
  188.5320  173.6280  142.1450 C   0  0  0  0  0  2  0  0  0  0  0  0
  189.3140  171.9190  143.2980 C   0  0  0  0  0  1  0  0  0  0  0  0
  189.3430  172.4990  142.0310 O   0  0  0  0  0  0  0  0  0  0  0  0
  1 19  1  0  0  0  0
  2 13  1  0  0  0  0
  4  1  2  0  0  0  0
  4 20  1  0  0  0  0
  5  1  1  0  0  0  0
  7 15  1  6  0  0  0
  7  9  1  0  0  0  0
  8  6  1  6  0  0  0
  8 11  1  0  0  0  0
  8 12  1  0  0  0  0
  9 14  1  6  0  0  0
  9 22  1  0  0  0  0
 10  3  1  0  0  0  0
 10 21  2  0  0  0  0
 11 28  1  1  0  0  0
 11  5  1  0  0  0  0
 12  4  1  0  0  0  0
 13 18  2  0  0  0  0
 15 23  1  0  0  0  0
 16  2  1  0  0  0  0
 17 26  1  0  0  0  0
 17  3  1  0  0  0  0
 19  2  2  0  0  0  0
 19 26  1  0  0  0  0
 20 22  1  0  0  0  0
 20 17  2  0  0  0  0
 22 10  1  0  0  0  0
 23 14  1  0  0  0  0
 25 18  1  0  0  0  0
 26 25  2  0  0  0  0
 27 12  1  0  0  0  0
 27 24  1  1  0  0  0
 27  7  1  0  0  0  0
 30 28  1  0  0  0  0
 30 29  1  0  0  0  0
M  END
>  <MODEL>
2

>  <REMARK>
 VINA RESULT:      -7.9      2.191      5.598
  Name = 
  2 active torsions:
  status: ('A' for Active; 'I' for Inactive)
    1  A    between atoms: C_11  and  C_28
    2  A    between atoms: C_28  and  O_30
                            x       y       z     vdW  Elec       q    Type
                         _______ _______ _______ _____ _____    ______ ____

>  <TORSDO>
F 2

$$$$
=
 OpenBabel11112416163D

 30 35  0  0  1  0  0  0  0  0999 V2000
  189.3880  174.9810  143.2140 C   0  0  0  0  0  0  0  0  0  0  0  0
  190.4750  173.2790  141.7610 C   0  0  0  0  0  0  0  0  0  0  0  0
  187.0780  176.3570  140.1030 N   0  0  0  0  0  2  0  0  0  0  0  0
  188.4200  176.0060  143.3910 C   0  0  0  0  0  0  0  0  0  0  0  0
  190.1870  174.6220  144.3040 O   0  0  0  0  0  0  0  0  0  0  0  0
  189.0410  176.9790  147.0090 C   0  0  0  0  0  1  0  0  0  0  0  0
  186.8760  178.5430  144.4070 C   0  0  1  0  0  3  0  0  0  0  0  0
  188.9400  175.9700  145.8670 C   0  0  2  0  0  3  0  0  0  0  0  0
  186.4460  178.5840  142.9470 C   0  0  2  0  0  3  0  0  0  0  0  0
  186.4630  177.3500  140.7800 C   0  0  0  0  0  0  0  0  0  0  0  0
  190.3250  175.4770  145.4340 C   0  0  2  0  0  3  0  0  0  0  0  0
  188.1550  176.4840  144.7300 N   0  0  0  0  0  0  0  0  0  0  0  0
  190.5940  172.6750  140.5050 C   0  0  0  0  0  3  0  0  0  0  0  0
  184.9550  178.8510  142.9750 C   0  0  0  0  0  2  0  0  0  0  0  0
  185.8830  179.4220  145.1500 C   0  0  0  0  0  2  0  0  0  0  0  0
  191.2880  172.8200  142.7900 O   0  0  0  0  0  1  0  0  0  0  0  0
  187.8550  175.7950  141.0450 C   0  0  0  0  0  0  0  0  0  0  0  0
  189.8040  173.0960  139.4350 C   0  0  0  0  0  3  0  0  0  0  0  0
  189.5460  174.3290  141.9590 C   0  0  0  0  0  0  0  0  0  0  0  0
  187.6970  176.4280  142.2540 C   0  0  0  0  0  0  0  0  0  0  0  0
  185.6760  178.1560  140.2150 O   0  0  0  0  0  0  0  0  0  0  0  0
  186.7930  177.4300  142.0970 N   0  0  0  0  0  0  0  0  0  0  0  0
  184.7390  179.7210  144.1950 C   0  0  0  0  0  2  0  0  0  0  0  0
  185.6850  176.2820  144.7800 C   0  0  0  0  0  1  0  0  0  0  0  0
  188.8870  174.1310  139.6090 C   0  0  0  0  0  3  0  0  0  0  0  0
  188.7510  174.7460  140.8580 C   0  0  0  0  0  0  0  0  0  0  0  0
  186.9060  177.1620  145.0460 C   0  0  2  0  0  3  0  0  0  0  0  0
  191.2620  176.6330  145.0880 C   0  0  0  0  0  2  0  0  0  0  0  0
  192.7420  176.0840  146.6270 C   0  0  0  0  0  1  0  0  0  0  0  0
  192.5880  176.2330  145.2500 O   0  0  0  0  0  0  0  0  0  0  0  0
  1  4  1  0  0  0  0
  1  5  1  0  0  0  0
  2 19  1  0  0  0  0
  2 16  1  0  0  0  0
  3 10  1  0  0  0  0
  3 17  1  0  0  0  0
  4 12  1  0  0  0  0
  5 11  1  0  0  0  0
  7 27  1  0  0  0  0
  7 15  1  1  0  0  0
  8  6  1  1  0  0  0
  9 14  1  1  0  0  0
  9  7  1  0  0  0  0
 10 22  1  0  0  0  0
 11 28  1  6  0  0  0
 11  8  1  0  0  0  0
 12 27  1  0  0  0  0
 12  8  1  0  0  0  0
 13  2  2  0  0  0  0
 14 23  1  0  0  0  0
 17 20  1  0  0  0  0
 18 25  2  0  0  0  0
 18 13  1  0  0  0  0
 19  1  2  0  0  0  0
 20  4  2  0  0  0  0
 21 10  2  0  0  0  0
 22 20  1  0  0  0  0
 22  9  1  0  0  0  0
 23 15  1  0  0  0  0
 25 26  1  0  0  0  0
 26 17  2  0  0  0  0
 26 19  1  0  0  0  0
 27 24  1  6  0  0  0
 28 30  1  0  0  0  0
 30 29  1  0  0  0  0
M  END
>  <MODEL>
3

>  <REMARK>
 VINA RESULT:      -7.8      2.250      7.010
  Name = 
  2 active torsions:
  status: ('A' for Active; 'I' for Inactive)
    1  A    between atoms: C_11  and  C_28
    2  A    between atoms: C_28  and  O_30
                            x       y       z     vdW  Elec       q    Type
                         _______ _______ _______ _____ _____    ______ ____

>  <TORSDO>
F 2

$$$$
=
 OpenBabel11112416163D

 30 35  0  0  1  0  0  0  0  0999 V2000
  188.0600  177.2780  143.9420 C   0  0  0  0  0  0  0  0  0  0  0  0
  186.2050  178.4810  142.8020 C   0  0  0  0  0  0  0  0  0  0  0  0
  188.7240  174.9050  140.6510 N   0  0  0  0  0  2  0  0  0  0  0  0
  189.1100  176.3220  143.9030 C   0  0  0  0  0  0  0  0  0  0  0  0
  187.8510  177.9930  145.1270 O   0  0  0  0  0  0  0  0  0  0  0  0
  190.4440  176.5570  147.4510 C   0  0  0  0  0  1  0  0  0  0  0  0
  191.2520  174.1710  144.7020 C   0  0  1  0  0  3  0  0  0  0  0  0
  189.8540  177.1520  146.1740 C   0  0  2  0  0  3  0  0  0  0  0  0
  190.9220  173.6580  143.3070 C   0  0  2  0  0  3  0  0  0  0  0  0
  189.7060  174.1500  141.1860 C   0  0  0  0  0  0  0  0  0  0  0  0
  188.3840  177.5410  146.3670 C   0  0  2  0  0  3  0  0  0  0  0  0
  190.0470  176.2770  145.0040 N   0  0  0  0  0  0  0  0  0  0  0  0
  185.4200  178.6660  141.6590 C   0  0  0  0  0  3  0  0  0  0  0  0
  192.2610  173.3520  142.6650 C   0  0  0  0  0  2  0  0  0  0  0  0
  192.5800  173.5300  145.0700 C   0  0  0  0  0  2  0  0  0  0  0  0
  185.9430  179.2720  143.9140 O   0  0  0  0  0  1  0  0  0  0  0  0
  188.4380  175.7640  141.6440 C   0  0  0  0  0  0  0  0  0  0  0  0
  185.6370  177.8990  140.5140 C   0  0  0  0  0  3  0  0  0  0  0  0
  187.2350  177.5100  142.8060 C   0  0  0  0  0  0  0  0  0  0  0  0
  189.2370  175.5360  142.7370 C   0  0  0  0  0  0  0  0  0  0  0  0
  190.2140  173.1770  140.5660 O   0  0  0  0  0  0  0  0  0  0  0  0
  190.0680  174.5000  142.4490 N   0  0  0  0  0  0  0  0  0  0  0  0
  193.1460  172.9010  143.8070 C   0  0  0  0  0  2  0  0  0  0  0  0
  192.1860  176.3850  143.7560 C   0  0  0  0  0  1  0  0  0  0  0  0
  186.6440  176.9350  140.5000 C   0  0  0  0  0  3  0  0  0  0  0  0
  187.4420  176.7370  141.6320 C   0  0  0  0  0  0  0  0  0  0  0  0
  191.3660  175.6830  144.8370 C   0  0  2  0  0  3  0  0  0  0  0  0
  187.5470  176.3730  146.8870 C   0  0  0  0  0  2  0  0  0  0  0  0
  185.9410  177.5410  147.8460 C   0  0  0  0  0  1  0  0  0  0  0  0
  186.1910  176.6770  146.7800 O   0  0  0  0  0  0  0  0  0  0  0  0
  1  5  1  0  0  0  0
  2 19  1  0  0  0  0
  2 16  1  0  0  0  0
  3 10  1  0  0  0  0
  3 17  1  0  0  0  0
  4  1  1  0  0  0  0
  4 12  1  0  0  0  0
  5 11  1  0  0  0  0
  7 27  1  0  0  0  0
  7 15  1  6  0  0  0
  8 11  1  0  0  0  0
  8  6  1  1  0  0  0
  9 14  1  6  0  0  0
  9  7  1  0  0  0  0
 10 22  1  0  0  0  0
 11 28  1  6  0  0  0
 12  8  1  0  0  0  0
 13  2  2  0  0  0  0
 14 23  1  0  0  0  0
 17 20  1  0  0  0  0
 18 13  1  0  0  0  0
 19  1  2  0  0  0  0
 20  4  2  0  0  0  0
 21 10  2  0  0  0  0
 22 20  1  0  0  0  0
 22  9  1  0  0  0  0
 23 15  1  0  0  0  0
 25 18  2  0  0  0  0
 25 26  1  0  0  0  0
 26 17  2  0  0  0  0
 26 19  1  0  0  0  0
 27 24  1  6  0  0  0
 27 12  1  0  0  0  0
 30 28  1  0  0  0  0
 30 29  1  0  0  0  0
M  END
>  <MODEL>
4

>  <REMARK>
 VINA RESULT:      -7.6      1.890      4.783
  Name = 
  2 active torsions:
  status: ('A' for Active; 'I' for Inactive)
    1  A    between atoms: C_11  and  C_28
    2  A    between atoms: C_28  and  O_30
                            x       y       z     vdW  Elec       q    Type
                         _______ _______ _______ _____ _____    ______ ____

>  <TORSDO>
F 2

$$$$
=
 OpenBabel11112416163D

 30 35  0  0  1  0  0  0  0  0999 V2000
  191.3300  175.0100  143.5100 C   0  0  0  0  0  0  0  0  0  0  0  0
  193.6310  174.6450  144.3840 C   0  0  0  0  0  0  0  0  0  0  0  0
  190.2590  177.1640  146.8440 N   0  0  0  0  0  2  0  0  0  0  0  0
  190.0480  175.6070  143.6400 C   0  0  0  0  0  0  0  0  0  0  0  0
  191.5900  174.2280  142.3790 O   0  0  0  0  0  0  0  0  0  0  0  0
  188.3170  174.3100  140.5180 C   0  0  0  0  0  1  0  0  0  0  0  0
  186.9750  176.2120  143.4310 C   0  0  1  0  0  3  0  0  0  0  0  0
  189.5270  174.8340  141.2880 C   0  0  2  0  0  3  0  0  0  0  0  0
  187.2250  176.7790  144.8220 C   0  0  2  0  0  3  0  0  0  0  0  0
  188.9720  177.3780  146.4970 C   0  0  0  0  0  0  0  0  0  0  0  0
  190.5340  173.7140  141.5750 C   0  0  2  0  0  3  0  0  0  0  0  0
  189.1450  175.5620  142.5110 N   0  0  0  0  0  0  0  0  0  0  0  0
  194.5760  174.8570  145.3920 C   0  0  0  0  0  3  0  0  0  0  0  0
  186.5060  178.1120  144.8470 C   0  0  0  0  0  2  0  0  0  0  0  0
  185.6530  176.8090  142.9780 C   0  0  0  0  0  2  0  0  0  0  0  0
  194.0030  173.8880  143.2810 O   0  0  0  0  0  1  0  0  0  0  0  0
  190.7380  176.4800  145.7910 C   0  0  0  0  0  0  0  0  0  0  0  0
  194.2570  175.6080  146.5230 C   0  0  0  0  0  3  0  0  0  0  0  0
  192.3310  175.1970  144.5030 C   0  0  0  0  0  0  0  0  0  0  0  0
  189.7670  176.3030  144.8370 C   0  0  0  0  0  0  0  0  0  0  0  0
  188.1590  177.9560  147.2680 O   0  0  0  0  0  0  0  0  0  0  0  0
  188.6230  176.8870  145.2780 N   0  0  0  0  0  0  0  0  0  0  0  0
  185.2990  177.9200  143.9540 C   0  0  0  0  0  2  0  0  0  0  0  0
  188.5360  177.9600  142.3480 C   0  0  0  0  0  1  0  0  0  0  0  0
  192.9830  176.1560  146.6600 C   0  0  0  0  0  3  0  0  0  0  0  0
  192.0230  175.9580  145.6610 C   0  0  0  0  0  0  0  0  0  0  0  0
  188.0480  176.5130  142.3950 C   0  0  2  0  0  3  0  0  0  0  0  0
  189.8830  172.5280  142.2840 C   0  0  0  0  0  2  0  0  0  0  0  0
  190.5810  171.2720  140.6110 C   0  0  0  0  0  1  0  0  0  0  0  0
  190.5920  171.3600  142.0020 O   0  0  0  0  0  0  0  0  0  0  0  0
  1  4  2  0  0  0  0
  1 19  1  0  0  0  0
  2 19  2  0  0  0  0
  2 13  1  0  0  0  0
  4 20  1  0  0  0  0
  5  1  1  0  0  0  0
  7 15  1  6  0  0  0
  7  9  1  0  0  0  0
  8  6  1  1  0  0  0
  8 11  1  0  0  0  0
  8 12  1  0  0  0  0
  9 14  1  6  0  0  0
  9 22  1  0  0  0  0
 10  3  1  0  0  0  0
 10 21  2  0  0  0  0
 11 28  1  1  0  0  0
 11  5  1  0  0  0  0
 12  4  1  0  0  0  0
 13 18  2  0  0  0  0
 15 23  1  0  0  0  0
 16  2  1  0  0  0  0
 17  3  1  0  0  0  0
 18 25  1  0  0  0  0
 19 26  1  0  0  0  0
 20 22  1  0  0  0  0
 20 17  2  0  0  0  0
 22 10  1  0  0  0  0
 23 14  1  0  0  0  0
 26 17  1  0  0  0  0
 26 25  2  0  0  0  0
 27 24  1  1  0  0  0
 27 12  1  0  0  0  0
 27  7  1  0  0  0  0
 29 30  1  0  0  0  0
 30 28  1  0  0  0  0
M  END
>  <MODEL>
5

>  <REMARK>
 VINA RESULT:      -7.6      2.454      5.819
  Name = 
  2 active torsions:
  status: ('A' for Active; 'I' for Inactive)
    1  A    between atoms: C_11  and  C_28
    2  A    between atoms: C_28  and  O_30
                            x       y       z     vdW  Elec       q    Type
                         _______ _______ _______ _____ _____    ______ ____

>  <TORSDO>
F 2

$$$$
=
 OpenBabel11112416163D

 30 35  0  0  1  0  0  0  0  0999 V2000
  190.9490  174.3920  143.4330 C   0  0  0  0  0  0  0  0  0  0  0  0
  191.1900  172.9260  141.4380 C   0  0  0  0  0  0  0  0  0  0  0  0
  187.0600  175.3040  142.4600 N   0  0  0  0  0  2  0  0  0  0  0  0
  190.1400  175.2160  144.2600 C   0  0  0  0  0  0  0  0  0  0  0  0
  192.2860  174.1920  143.7950 O   0  0  0  0  0  0  0  0  0  0  0  0
  192.6490  176.2920  146.9000 C   0  0  0  0  0  1  0  0  0  0  0  0
  189.1500  177.4150  146.2690 C   0  0  1  0  0  3  0  0  0  0  0  0
  192.0380  175.2810  145.9320 C   0  0  2  0  0  3  0  0  0  0  0  0
  187.9300  177.3730  145.3580 C   0  0  2  0  0  3  0  0  0  0  0  0
  186.8320  176.1630  143.4750 C   0  0  0  0  0  0  0  0  0  0  0  0
  192.9420  175.0580  144.7130 C   0  0  2  0  0  3  0  0  0  0  0  0
  190.6610  175.6360  145.5420 N   0  0  0  0  0  0  0  0  0  0  0  0
  190.6220  172.3540  140.2960 C   0  0  0  0  0  3  0  0  0  0  0  0
  186.7350  177.3540  146.2900 C   0  0  0  0  0  2  0  0  0  0  0  0
  188.6820  178.0920  147.5480 C   0  0  0  0  0  2  0  0  0  0  0  0
  192.5160  172.6300  141.7310 O   0  0  0  0  0  1  0  0  0  0  0  0
  188.3200  174.9000  142.6930 C   0  0  0  0  0  0  0  0  0  0  0  0
  189.2960  172.6170  139.9510 C   0  0  0  0  0  3  0  0  0  0  0  0
  190.4190  173.7810  142.2630 C   0  0  0  0  0  0  0  0  0  0  0  0
  188.8250  175.4930  143.8240 C   0  0  0  0  0  0  0  0  0  0  0  0
  185.7510  176.8050  143.5780 O   0  0  0  0  0  0  0  0  0  0  0  0
  187.8680  176.3050  144.3440 N   0  0  0  0  0  0  0  0  0  0  0  0
  187.1650  178.1680  147.4910 C   0  0  0  0  0  2  0  0  0  0  0  0
  188.7810  174.9710  147.0150 C   0  0  0  0  0  1  0  0  0  0  0  0
  188.5220  173.4600  140.7480 C   0  0  0  0  0  3  0  0  0  0  0  0
  189.0720  174.0390  141.8970 C   0  0  0  0  0  0  0  0  0  0  0  0
  189.7670  176.0650  146.6070 C   0  0  2  0  0  3  0  0  0  0  0  0
  193.2950  176.3710  144.0150 C   0  0  0  0  0  2  0  0  0  0  0  0
  195.4990  176.3400  144.0310 C   0  0  0  0  0  1  0  0  0  0  0  0
  194.4010  176.1840  143.1870 O   0  0  0  0  0  0  0  0  0  0  0  0
  1  5  1  0  0  0  0
  1  4  1  0  0  0  0
  2 16  1  0  0  0  0
  2 19  1  0  0  0  0
  3 17  1  0  0  0  0
  3 10  1  0  0  0  0
  4 12  1  0  0  0  0
  5 11  1  0  0  0  0
  7 27  1  0  0  0  0
  7 15  1  1  0  0  0
  8  6  1  1  0  0  0
  9  7  1  0  0  0  0
  9 14  1  1  0  0  0
 10 21  2  0  0  0  0
 10 22  1  0  0  0  0
 11 28  1  6  0  0  0
 11  8  1  0  0  0  0
 12  8  1  0  0  0  0
 12 27  1  0  0  0  0
 13  2  2  0  0  0  0
 14 23  1  0  0  0  0
 17 20  1  0  0  0  0
 18 13  1  0  0  0  0
 18 25  2  0  0  0  0
 19  1  2  0  0  0  0
 20  4  2  0  0  0  0
 20 22  1  0  0  0  0
 22  9  1  0  0  0  0
 23 15  1  0  0  0  0
 25 26  1  0  0  0  0
 26 19  1  0  0  0  0
 26 17  2  0  0  0  0
 27 24  1  6  0  0  0
 30 28  1  0  0  0  0
 30 29  1  0  0  0  0
M  END
>  <MODEL>
6

>  <REMARK>
 VINA RESULT:      -7.3      2.436      6.527
  Name = 
  2 active torsions:
  status: ('A' for Active; 'I' for Inactive)
    1  A    between atoms: C_11  and  C_28
    2  A    between atoms: C_28  and  O_30
                            x       y       z     vdW  Elec       q    Type
                         _______ _______ _______ _____ _____    ______ ____

>  <TORSDO>
F 2

$$$$
=
 OpenBabel11112416163D

 30 35  0  0  1  0  0  0  0  0999 V2000
  192.3370  174.8050  143.1580 C   0  0  0  0  0  0  0  0  0  0  0  0
  194.7470  174.2990  142.8050 C   0  0  0  0  0  0  0  0  0  0  0  0
  193.0570  176.2580  146.9360 N   0  0  0  0  0  2  0  0  0  0  0  0
  191.3030  175.3530  143.9640 C   0  0  0  0  0  0  0  0  0  0  0  0
  191.9970  174.2610  141.9150 O   0  0  0  0  0  0  0  0  0  0  0  0
  188.2550  174.6720  141.8030 C   0  0  0  0  0  1  0  0  0  0  0  0
  188.5240  175.9580  145.2930 C   0  0  1  0  0  3  0  0  0  0  0  0
  189.7200  175.0480  142.0140 C   0  0  2  0  0  3  0  0  0  0  0  0
  189.4180  176.2450  146.4920 C   0  0  2  0  0  3  0  0  0  0  0  0
  191.7740  176.5230  147.2600 C   0  0  0  0  0  0  0  0  0  0  0  0
  190.6550  173.9040  141.6060 C   0  0  2  0  0  3  0  0  0  0  0  0
  189.9890  175.5210  143.3840 N   0  0  0  0  0  0  0  0  0  0  0  0
  196.0590  174.3190  143.2880 C   0  0  0  0  0  3  0  0  0  0  0  0
  188.8970  177.5420  147.0790 C   0  0  0  0  0  2  0  0  0  0  0  0
  187.1930  176.6200  145.6080 C   0  0  0  0  0  2  0  0  0  0  0  0
  194.5210  173.7750  141.5380 O   0  0  0  0  0  1  0  0  0  0  0  0
  192.9550  175.7970  145.6780 C   0  0  0  0  0  0  0  0  0  0  0  0
  196.3440  174.8330  144.5530 C   0  0  0  0  0  3  0  0  0  0  0  0
  193.6890  174.8050  143.6000 C   0  0  0  0  0  0  0  0  0  0  0  0
  191.6480  175.8000  145.2580 C   0  0  0  0  0  0  0  0  0  0  0  0
  191.4450  176.9320  148.4060 O   0  0  0  0  0  0  0  0  0  0  0  0
  190.8760  176.2760  146.2690 N   0  0  0  0  0  0  0  0  0  0  0  0
  187.4070  177.5160  146.8170 C   0  0  0  0  0  2  0  0  0  0  0  0
  189.5670  177.8980  143.9460 C   0  0  0  0  0  1  0  0  0  0  0  0
  195.3160  175.3320  145.3530 C   0  0  0  0  0  3  0  0  0  0  0  0
  193.9980  175.3230  144.8850 C   0  0  0  0  0  0  0  0  0  0  0  0
  189.0370  176.4650  143.9530 C   0  0  2  0  0  3  0  0  0  0  0  0
  190.2980  172.5960  142.3100 C   0  0  0  0  0  2  0  0  0  0  0  0
  190.8130  170.4940  141.8880 C   0  0  0  0  0  1  0  0  0  0  0  0
  190.1180  171.5840  141.3670 O   0  0  0  0  0  0  0  0  0  0  0  0
  1 19  2  0  0  0  0
  1  4  1  0  0  0  0
  2 13  2  0  0  0  0
  2 19  1  0  0  0  0
  3 10  1  0  0  0  0
  4 20  2  0  0  0  0
  5  1  1  0  0  0  0
  7 15  1  1  0  0  0
  7  9  1  0  0  0  0
  8  6  1  1  0  0  0
  8 12  1  0  0  0  0
  9 14  1  6  0  0  0
 10 21  2  0  0  0  0
 11  5  1  0  0  0  0
 11  8  1  0  0  0  0
 11 28  1  1  0  0  0
 12 27  1  0  0  0  0
 12  4  1  0  0  0  0
 13 18  1  0  0  0  0
 15 23  1  0  0  0  0
 16  2  1  0  0  0  0
 17  3  1  0  0  0  0
 18 25  2  0  0  0  0
 19 26  1  0  0  0  0
 20 17  1  0  0  0  0
 20 22  1  0  0  0  0
 22  9  1  0  0  0  0
 22 10  1  0  0  0  0
 23 14  1  0  0  0  0
 26 25  1  0  0  0  0
 26 17  2  0  0  0  0
 27 24  1  1  0  0  0
 27  7  1  0  0  0  0
 30 29  1  0  0  0  0
 30 28  1  0  0  0  0
M  END
>  <MODEL>
7

>  <REMARK>
 VINA RESULT:      -7.2      2.717      6.275
  Name = 
  2 active torsions:
  status: ('A' for Active; 'I' for Inactive)
    1  A    between atoms: C_11  and  C_28
    2  A    between atoms: C_28  and  O_30
                            x       y       z     vdW  Elec       q    Type
                         _______ _______ _______ _____ _____    ______ ____

>  <TORSDO>
F 2

$$$$
=
 OpenBabel11112416163D

 30 35  0  0  1  0  0  0  0  0999 V2000
  187.8090  175.9680  144.2120 C   0  0  0  0  0  0  0  0  0  0  0  0
  186.1120  177.3860  145.3520 C   0  0  0  0  0  0  0  0  0  0  0  0
  190.6280  176.7930  147.0890 N   0  0  0  0  0  2  0  0  0  0  0  0
  189.1030  175.3800  144.1890 C   0  0  0  0  0  0  0  0  0  0  0  0
  186.9340  175.6960  143.1550 O   0  0  0  0  0  0  0  0  0  0  0  0
  188.9940  173.5030  140.8890 C   0  0  0  0  0  1  0  0  0  0  0  0
  191.8170  174.1150  143.2470 C   0  0  1  0  0  3  0  0  0  0  0  0
  188.3720  174.0200  142.1840 C   0  0  2  0  0  3  0  0  0  0  0  0
  192.3200  174.8350  144.4920 C   0  0  2  0  0  3  0  0  0  0  0  0
  191.6420  176.0980  146.5320 C   0  0  0  0  0  0  0  0  0  0  0  0
  187.4080  175.1820  141.9150 C   0  0  2  0  0  3  0  0  0  0  0  0
  189.3850  174.3660  143.1980 N   0  0  0  0  0  0  0  0  0  0  0  0
  185.7690  178.2150  146.4240 C   0  0  0  0  0  3  0  0  0  0  0  0
  193.2100  173.8350  145.2020 C   0  0  0  0  0  2  0  0  0  0  0  0
  192.8860  173.0890  142.9090 C   0  0  0  0  0  2  0  0  0  0  0  0
  185.1550  177.1450  144.3740 O   0  0  0  0  0  1  0  0  0  0  0  0
  189.6140  176.5680  146.2370 C   0  0  0  0  0  0  0  0  0  0  0  0
  186.6900  178.4920  147.4340 C   0  0  0  0  0  3  0  0  0  0  0  0
  187.4070  176.8140  145.2820 C   0  0  0  0  0  0  0  0  0  0  0  0
  190.0090  175.7500  145.2070 C   0  0  0  0  0  0  0  0  0  0  0  0
  192.8050  176.1050  147.0200 O   0  0  0  0  0  0  0  0  0  0  0  0
  191.3160  175.4320  145.3920 N   0  0  0  0  0  0  0  0  0  0  0  0
  193.8360  173.0160  144.0930 C   0  0  0  0  0  2  0  0  0  0  0  0
  190.2930  172.5770  144.6540 C   0  0  0  0  0  1  0  0  0  0  0  0
  187.9710  177.9430  147.3810 C   0  0  0  0  0  3  0  0  0  0  0  0
  188.3330  177.1080  146.3180 C   0  0  0  0  0  0  0  0  0  0  0  0
  190.4720  173.4160  143.3900 C   0  0  2  0  0  3  0  0  0  0  0  0
  188.0720  176.3030  141.1180 C   0  0  0  0  0  2  0  0  0  0  0  0
  188.0250  178.4370  141.6700 C   0  0  0  0  0  1  0  0  0  0  0  0
  187.2480  177.4280  141.1040 O   0  0  0  0  0  0  0  0  0  0  0  0
  1 19  1  0  0  0  0
  2 13  1  0  0  0  0
  4  1  2  0  0  0  0
  4 20  1  0  0  0  0
  5  1  1  0  0  0  0
  7 15  1  1  0  0  0
  7 27  1  0  0  0  0
  7  9  1  0  0  0  0
  8  6  1  6  0  0  0
  8 12  1  0  0  0  0
  9 14  1  1  0  0  0
  9 22  1  0  0  0  0
 10 21  2  0  0  0  0
 10  3  1  0  0  0  0
 11 28  1  1  0  0  0
 11  8  1  0  0  0  0
 11  5  1  0  0  0  0
 12 27  1  0  0  0  0
 12  4  1  0  0  0  0
 13 18  2  0  0  0  0
 15 23  1  0  0  0  0
 16  2  1  0  0  0  0
 17 26  1  0  0  0  0
 17  3  1  0  0  0  0
 19  2  2  0  0  0  0
 19 26  1  0  0  0  0
 20 22  1  0  0  0  0
 20 17  2  0  0  0  0
 22 10  1  0  0  0  0
 23 14  1  0  0  0  0
 25 18  1  0  0  0  0
 26 25  2  0  0  0  0
 27 24  1  1  0  0  0
 30 28  1  0  0  0  0
 30 29  1  0  0  0  0
M  END
>  <MODEL>
8

>  <REMARK>
 VINA RESULT:      -7.1      1.089      1.271
  Name = 
  2 active torsions:
  status: ('A' for Active; 'I' for Inactive)
    1  A    between atoms: C_11  and  C_28
    2  A    between atoms: C_28  and  O_30
                            x       y       z     vdW  Elec       q    Type
                         _______ _______ _______ _____ _____    ______ ____

>  <TORSDO>
F 2

$$$$
=
 OpenBabel11112416163D

 30 35  0  0  1  0  0  0  0  0999 V2000
  188.5440  175.8400  143.8100 C   0  0  0  0  0  0  0  0  0  0  0  0
  187.2600  176.9280  145.6430 C   0  0  0  0  0  0  0  0  0  0  0  0
  192.1280  176.6760  145.6430 N   0  0  0  0  0  2  0  0  0  0  0  0
  189.7840  175.4100  143.2680 C   0  0  0  0  0  0  0  0  0  0  0  0
  187.3750  175.5830  143.0870 O   0  0  0  0  0  0  0  0  0  0  0  0
  188.6570  173.8890  139.9760 C   0  0  0  0  0  1  0  0  0  0  0  0
  192.0770  174.5690  141.2960 C   0  0  1  0  0  3  0  0  0  0  0  0
  188.4940  174.1940  141.4640 C   0  0  2  0  0  3  0  0  0  0  0  0
  192.9330  175.2080  142.3820 C   0  0  2  0  0  3  0  0  0  0  0  0
  192.9280  176.1640  144.6850 C   0  0  0  0  0  0  0  0  0  0  0  0
  187.4170  175.2600  141.7010 C   0  0  2  0  0  3  0  0  0  0  0  0
  189.7720  174.5440  142.1100 N   0  0  0  0  0  0  0  0  0  0  0  0
  187.2570  177.5950  146.8710 C   0  0  0  0  0  3  0  0  0  0  0  0
  194.0840  174.2470  142.6020 C   0  0  0  0  0  2  0  0  0  0  0  0
  193.0290  173.7140  140.4760 C   0  0  0  0  0  2  0  0  0  0  0  0
  186.0390  176.6830  145.0250 O   0  0  0  0  0  1  0  0  0  0  0  0
  190.8970  176.4270  145.1640 C   0  0  0  0  0  0  0  0  0  0  0  0
  188.4530  177.8690  147.5360 C   0  0  0  0  0  3  0  0  0  0  0  0
  188.4840  176.5190  145.0590 C   0  0  0  0  0  0  0  0  0  0  0  0
  190.9620  175.7720  143.9590 C   0  0  0  0  0  0  0  0  0  0  0  0
  194.1840  176.2520  144.7450 O   0  0  0  0  0  0  0  0  0  0  0  0
  192.2700  175.5880  143.6430 N   0  0  0  0  0  0  0  0  0  0  0  0
  194.3370  173.6260  141.2450 C   0  0  0  0  0  2  0  0  0  0  0  0
  191.2570  172.7280  142.9100 C   0  0  0  0  0  1  0  0  0  0  0  0
  189.6680  177.4780  146.9760 C   0  0  0  0  0  3  0  0  0  0  0  0
  189.6910  176.8060  145.7490 C   0  0  0  0  0  0  0  0  0  0  0  0
  190.9210  173.7110  141.7890 C   0  0  2  0  0  3  0  0  0  0  0  0
  187.6780  176.5260  140.8880 C   0  0  0  0  0  2  0  0  0  0  0  0
  185.9720  177.7290  140.1760 C   0  0  0  0  0  1  0  0  0  0  0  0
  186.7970  177.5320  141.2830 O   0  0  0  0  0  0  0  0  0  0  0  0
  1 19  1  0  0  0  0
  2 13  1  0  0  0  0
  4  1  2  0  0  0  0
  4 20  1  0  0  0  0
  5  1  1  0  0  0  0
  7 15  1  1  0  0  0
  7 27  1  0  0  0  0
  7  9  1  0  0  0  0
  8  6  1  6  0  0  0
  8 11  1  0  0  0  0
  8 12  1  0  0  0  0
  9 14  1  1  0  0  0
  9 22  1  0  0  0  0
 10 21  2  0  0  0  0
 10  3  1  0  0  0  0
 11 28  1  6  0  0  0
 11  5  1  0  0  0  0
 12  4  1  0  0  0  0
 13 18  2  0  0  0  0
 15 23  1  0  0  0  0
 16  2  1  0  0  0  0
 17  3  1  0  0  0  0
 17 26  1  0  0  0  0
 19  2  2  0  0  0  0
 19 26  1  0  0  0  0
 20 17  2  0  0  0  0
 22 20  1  0  0  0  0
 22 10  1  0  0  0  0
 23 14  1  0  0  0  0
 25 18  1  0  0  0  0
 26 25  2  0  0  0  0
 27 12  1  0  0  0  0
 27 24  1  1  0  0  0
 28 30  1  0  0  0  0
 29 30  1  0  0  0  0
M  END
>  <MODEL>
9

>  <REMARK>
 VINA RESULT:      -6.8      1.817      2.643
  Name = 
  2 active torsions:
  status: ('A' for Active; 'I' for Inactive)
    1  A    between atoms: C_11  and  C_28
    2  A    between atoms: C_28  and  O_30
                            x       y       z     vdW  Elec       q    Type
                         _______ _______ _______ _____ _____    ______ ____

>  <TORSDO>
F 2

$$$$
