=
 OpenBabel11112416173D

 30 35  0  0  1  0  0  0  0  0999 V2000
  187.6110  176.3760  145.3960 C   0  0  0  0  0  0  0  0  0  0  0  0
  185.7860  177.6010  146.6850 C   0  0  0  0  0  0  0  0  0  0  0  0
  185.9330  177.4500  141.7060 N   0  0  0  0  0  2  0  0  0  0  0  0
  188.1770  175.9570  144.1690 C   0  0  0  0  0  0  0  0  0  0  0  0
  188.2750  176.0170  146.6100 N   0  0  0  0  0  2  0  0  0  0  0  0
  191.1770  174.1860  145.3520 O   0  0  0  0  0  1  0  0  0  0  0  0
  188.7950  173.8090  142.1000 C   0  0  1  0  0  3  0  0  0  0  0  0
  189.8260  174.5320  145.4460 C   0  0  1  0  0  3  0  0  0  0  0  0
  187.9470  174.6720  141.2460 N   0  0  2  0  0  0  0  0  0  0  0  0
  186.8940  176.8490  140.8460 C   0  0  0  0  0  0  0  0  0  0  0  0
  189.6420  175.5210  146.5940 C   0  0  2  0  0  3  0  0  0  0  0  0
  189.3460  175.0980  144.1740 N   0  0  0  0  0  0  0  0  0  0  0  0
  184.6530  178.5310  146.6360 C   0  0  0  0  0  3  0  0  0  0  0  0
  188.4600  174.4810  139.8950 C   0  0  0  0  0  2  0  0  0  0  0  0
  189.4340  172.7510  141.2170 C   0  0  0  0  0  2  0  0  0  0  0  0
  186.2160  177.2290  147.8080 O   0  0  0  0  0  0  0  0  0  0  0  0
  186.4010  177.1230  143.0040 C   0  0  0  0  0  0  0  0  0  0  0  0
  184.0870  178.8720  145.4810 C   0  0  0  0  0  3  0  0  0  0  0  0
  186.4120  177.1400  145.4200 C   0  0  0  0  0  0  0  0  0  0  0  0
  187.5510  176.3610  142.9820 C   0  0  0  0  0  0  0  0  0  0  0  0
  186.8380  176.9690  139.5940 O   0  0  0  0  0  0  0  0  0  0  0  0
  187.9850  176.1070  141.5700 C   0  0  1  0  0  3  0  0  0  0  0  0
  188.9850  173.0690  139.8140 C   0  0  0  0  0  2  0  0  0  0  0  0
  190.7920  175.4690  142.1890 C   0  0  0  0  0  1  0  0  0  0  0  0
  184.5080  178.2940  144.1580 C   0  0  0  0  0  2  0  0  0  0  0  0
  185.8050  177.5220  144.2000 C   0  0  0  0  0  0  0  0  0  0  0  0
  189.8810  174.5080  142.9440 C   0  0  2  0  0  3  0  0  0  0  0  0
  189.9280  174.9030  147.8130 O   0  0  0  0  0  0  0  0  0  0  0  0
  191.2760  176.8400  148.1010 C   0  0  0  0  0  1  0  0  0  0  0  0
  191.2180  175.3280  148.1360 C   0  0  0  0  0  2  0  0  0  0  0  0
  1 19  1  0  0  0  0
  1  5  1  0  0  0  0
  2 16  2  0  0  0  0
  3 17  1  0  0  0  0
  4 12  1  0  0  0  0
  4  1  2  0  0  0  0
  7 15  1  6  0  0  0
  7 27  1  0  0  0  0
  8  6  1  6  0  0  0
  8 11  1  0  0  0  0
  9 14  1  6  0  0  0
  9 22  1  0  0  0  0
  9  7  1  0  0  0  0
 10  3  1  0  0  0  0
 11  5  1  0  0  0  0
 11 28  1  1  0  0  0
 12  8  1  0  0  0  0
 13  2  1  0  0  0  0
 17 26  1  0  0  0  0
 18 13  2  0  0  0  0
 19  2  1  0  0  0  0
 20 17  2  0  0  0  0
 20  4  1  0  0  0  0
 21 10  2  0  0  0  0
 22 10  1  6  0  0  0
 22 20  1  0  0  0  0
 23 14  1  0  0  0  0
 23 15  1  0  0  0  0
 25 26  1  0  0  0  0
 25 18  1  0  0  0  0
 26 19  2  0  0  0  0
 27 24  1  6  0  0  0
 27 12  1  0  0  0  0
 28 30  1  0  0  0  0
 29 30  1  0  0  0  0
M  END
>  <MODEL>
1

>  <REMARK>
 VINA RESULT:      -9.0      0.000      0.000
  Name = 
  2 active torsions:
  status: ('A' for Active; 'I' for Inactive)
    1  A    between atoms: C_11  and  O_28
    2  A    between atoms: O_28  and  C_30
                            x       y       z     vdW  Elec       q    Type
                         _______ _______ _______ _____ _____    ______ ____

>  <TORSDO>
F 2

$$$$
=
 OpenBabel11112416173D

 30 35  0  0  1  0  0  0  0  0999 V2000
  186.4120  177.3160  143.7530 C   0  0  0  0  0  0  0  0  0  0  0  0
  184.6770  178.5880  145.1180 C   0  0  0  0  0  0  0  0  0  0  0  0
  188.4450  176.0860  147.2080 N   0  0  0  0  0  2  0  0  0  0  0  0
  187.5860  176.5290  143.6870 C   0  0  0  0  0  0  0  0  0  0  0  0
  185.7450  177.6460  142.5330 N   0  0  0  0  0  2  0  0  0  0  0  0
  187.8400  175.9550  140.0620 O   0  0  0  0  0  1  0  0  0  0  0  0
  190.5480  176.1860  143.0640 C   0  0  1  0  0  3  0  0  0  0  0  0
  187.5690  176.7600  141.1720 C   0  0  1  0  0  3  0  0  0  0  0  0
  190.6140  175.9010  144.5160 N   0  0  2  0  0  0  0  0  0  0  0  0
  189.4630  175.3020  146.5960 C   0  0  0  0  0  0  0  0  0  0  0  0
  186.0590  176.9460  141.2980 C   0  0  2  0  0  3  0  0  0  0  0  0
  188.1360  176.1660  142.3950 N   0  0  0  0  0  0  0  0  0  0  0  0
  184.1110  178.8670  146.4420 C   0  0  0  0  0  3  0  0  0  0  0  0
  191.7270  174.9710  144.6650 C   0  0  0  0  0  2  0  0  0  0  0  0
  191.8980  175.8520  142.4540 C   0  0  0  0  0  2  0  0  0  0  0  0
  184.0900  179.0420  144.1010 O   0  0  0  0  0  0  0  0  0  0  0  0
  187.6990  176.5770  146.1080 C   0  0  0  0  0  0  0  0  0  0  0  0
  184.7460  178.5090  147.5560 C   0  0  0  0  0  3  0  0  0  0  0  0
  185.9060  177.7630  145.0050 C   0  0  0  0  0  0  0  0  0  0  0  0
  188.2020  176.1630  144.8920 C   0  0  0  0  0  0  0  0  0  0  0  0
  190.3060  174.6550  147.2700 O   0  0  0  0  0  0  0  0  0  0  0  0
  189.4040  175.2910  145.0920 C   0  0  1  0  0  3  0  0  0  0  0  0
  192.7280  175.3000  143.5850 C   0  0  0  0  0  2  0  0  0  0  0  0
  189.3140  173.9810  142.4560 C   0  0  0  0  0  1  0  0  0  0  0  0
  186.1010  177.8570  147.5550 C   0  0  0  0  0  2  0  0  0  0  0  0
  186.5610  177.3790  146.1980 C   0  0  0  0  0  0  0  0  0  0  0  0
  189.4280  175.4890  142.2630 C   0  0  2  0  0  3  0  0  0  0  0  0
  185.5720  177.6750  140.2110 O   0  0  0  0  0  0  0  0  0  0  0  0
  183.2100  177.9450  140.2240 C   0  0  0  0  0  1  0  0  0  0  0  0
  184.5400  178.4540  140.7360 C   0  0  0  0  0  2  0  0  0  0  0  0
  1 19  1  0  0  0  0
  2 13  1  0  0  0  0
  4  1  2  0  0  0  0
  4 20  1  0  0  0  0
  5  1  1  0  0  0  0
  7 15  1  6  0  0  0
  7  9  1  0  0  0  0
  8  6  1  6  0  0  0
  8 11  1  0  0  0  0
  8 12  1  0  0  0  0
  9 14  1  6  0  0  0
  9 22  1  0  0  0  0
 10  3  1  0  0  0  0
 10 21  2  0  0  0  0
 11 28  1  6  0  0  0
 11  5  1  0  0  0  0
 12  4  1  0  0  0  0
 13 18  2  0  0  0  0
 15 23  1  0  0  0  0
 16  2  2  0  0  0  0
 17 26  1  0  0  0  0
 17  3  1  0  0  0  0
 19  2  1  0  0  0  0
 19 26  2  0  0  0  0
 20 17  2  0  0  0  0
 22 20  1  1  0  0  0
 22 10  1  0  0  0  0
 23 14  1  0  0  0  0
 25 18  1  0  0  0  0
 26 25  1  0  0  0  0
 27 12  1  0  0  0  0
 27 24  1  1  0  0  0
 27  7  1  0  0  0  0
 28 30  1  0  0  0  0
 29 30  1  0  0  0  0
M  END
>  <MODEL>
2

>  <REMARK>
 VINA RESULT:      -8.7      1.643      5.262
  Name = 
  2 active torsions:
  status: ('A' for Active; 'I' for Inactive)
    1  A    between atoms: C_11  and  O_28
    2  A    between atoms: O_28  and  C_30
                            x       y       z     vdW  Elec       q    Type
                         _______ _______ _______ _____ _____    ______ ____

>  <TORSDO>
F 2

$$$$
=
 OpenBabel11112416173D

 30 35  0  0  1  0  0  0  0  0999 V2000
  188.3670  176.0420  143.4200 C   0  0  0  0  0  0  0  0  0  0  0  0
  186.0750  177.1550  143.4560 C   0  0  0  0  0  0  0  0  0  0  0  0
  189.2960  177.4930  147.2420 N   0  0  0  0  0  2  0  0  0  0  0  0
  189.6150  175.7810  144.0330 C   0  0  0  0  0  0  0  0  0  0  0  0
  188.1040  175.4640  142.1390 N   0  0  0  0  0  2  0  0  0  0  0  0
  191.1780  173.5840  141.5310 O   0  0  0  0  0  1  0  0  0  0  0  0
  192.6230  176.1960  144.2660 C   0  0  1  0  0  3  0  0  0  0  0  0
  190.4080  174.6910  141.8970 C   0  0  1  0  0  3  0  0  0  0  0  0
  192.2440  176.7230  145.5970 N   0  0  2  0  0  0  0  0  0  0  0  0
  190.5840  176.9060  147.3920 C   0  0  0  0  0  0  0  0  0  0  0  0
  188.9380  174.3920  141.6190 C   0  0  2  0  0  3  0  0  0  0  0  0
  190.6240  175.0270  143.3150 N   0  0  0  0  0  0  0  0  0  0  0  0
  185.0540  177.8520  144.2450 C   0  0  0  0  0  3  0  0  0  0  0  0
  193.3880  176.4360  146.4540 C   0  0  0  0  0  2  0  0  0  0  0  0
  194.1370  176.0800  144.2170 C   0  0  0  0  0  2  0  0  0  0  0  0
  185.7960  176.8050  142.2800 O   0  0  0  0  0  0  0  0  0  0  0  0
  188.8910  177.0770  145.9490 C   0  0  0  0  0  0  0  0  0  0  0  0
  185.3280  178.3430  145.4520 C   0  0  0  0  0  3  0  0  0  0  0  0
  187.3960  176.8580  144.0640 C   0  0  0  0  0  0  0  0  0  0  0  0
  189.8420  176.3050  145.3130 C   0  0  0  0  0  0  0  0  0  0  0  0
  191.2500  177.0170  148.4540 O   0  0  0  0  0  0  0  0  0  0  0  0
  191.0410  176.1190  146.1930 C   0  0  1  0  0  3  0  0  0  0  0  0
  194.6200  176.4920  145.5840 C   0  0  0  0  0  2  0  0  0  0  0  0
  192.0830  173.7200  144.8410 C   0  0  0  0  0  1  0  0  0  0  0  0
  186.6970  178.2830  146.0710 C   0  0  0  0  0  2  0  0  0  0  0  0
  187.6660  177.3750  145.3530 C   0  0  0  0  0  0  0  0  0  0  0  0
  191.9840  174.8600  143.8340 C   0  0  2  0  0  3  0  0  0  0  0  0
  188.7240  174.2590  140.2460 O   0  0  0  0  0  0  0  0  0  0  0  0
  188.9740  172.2490  139.0010 C   0  0  0  0  0  1  0  0  0  0  0  0
  188.2060  172.9730  140.0860 C   0  0  0  0  0  2  0  0  0  0  0  0
  1  4  2  0  0  0  0
  1 19  1  0  0  0  0
  2 19  1  0  0  0  0
  2 13  1  0  0  0  0
  3 10  1  0  0  0  0
  4 20  1  0  0  0  0
  5  1  1  0  0  0  0
  7 15  1  1  0  0  0
  7  9  1  0  0  0  0
  8  6  1  1  0  0  0
  8 12  1  0  0  0  0
  9 22  1  0  0  0  0
  9 14  1  1  0  0  0
 10 21  2  0  0  0  0
 11 28  1  6  0  0  0
 11  8  1  0  0  0  0
 11  5  1  0  0  0  0
 12 27  1  0  0  0  0
 12  4  1  0  0  0  0
 13 18  2  0  0  0  0
 15 23  1  0  0  0  0
 16  2  2  0  0  0  0
 17  3  1  0  0  0  0
 18 25  1  0  0  0  0
 19 26  2  0  0  0  0
 20 17  2  0  0  0  0
 22 20  1  6  0  0  0
 22 10  1  0  0  0  0
 23 14  1  0  0  0  0
 26 17  1  0  0  0  0
 26 25  1  0  0  0  0
 27  7  1  0  0  0  0
 27 24  1  1  0  0  0
 29 30  1  0  0  0  0
 30 28  1  0  0  0  0
M  END
>  <MODEL>
3

>  <REMARK>
 VINA RESULT:      -8.4      2.178      5.550
  Name = 
  2 active torsions:
  status: ('A' for Active; 'I' for Inactive)
    1  A    between atoms: C_11  and  O_28
    2  A    between atoms: O_28  and  C_30
                            x       y       z     vdW  Elec       q    Type
                         _______ _______ _______ _____ _____    ______ ____

>  <TORSDO>
F 2

$$$$
=
 OpenBabel11112416173D

 30 35  0  0  1  0  0  0  0  0999 V2000
  188.0310  176.0520  142.0750 C   0  0  0  0  0  0  0  0  0  0  0  0
  186.3510  177.1730  140.5200 C   0  0  0  0  0  0  0  0  0  0  0  0
  186.5140  178.0790  145.4180 N   0  0  0  0  0  2  0  0  0  0  0  0
  188.5850  175.8810  143.3650 C   0  0  0  0  0  0  0  0  0  0  0  0
  188.5660  175.2820  140.9960 N   0  0  0  0  0  2  0  0  0  0  0  0
  191.1270  173.3070  142.6990 O   0  0  0  0  0  1  0  0  0  0  0  0
  190.8110  176.3060  145.4010 C   0  0  1  0  0  3  0  0  0  0  0  0
  190.4190  174.4640  142.3620 C   0  0  1  0  0  3  0  0  0  0  0  0
  189.7420  177.0390  146.1170 N   0  0  2  0  0  0  0  0  0  0  0  0
  187.3550  177.5140  146.4160 C   0  0  0  0  0  0  0  0  0  0  0  0
  189.4230  174.1350  141.2530 C   0  0  2  0  0  3  0  0  0  0  0  0
  189.7360  175.0160  143.5440 N   0  0  0  0  0  0  0  0  0  0  0  0
  185.1420  177.9930  140.3960 C   0  0  0  0  0  3  0  0  0  0  0  0
  190.0620  176.8810  147.5300 C   0  0  0  0  0  2  0  0  0  0  0  0
  192.0010  176.1730  146.3350 C   0  0  0  0  0  2  0  0  0  0  0  0
  186.8340  176.6440  139.4850 O   0  0  0  0  0  0  0  0  0  0  0  0
  186.9650  177.4680  144.2200 C   0  0  0  0  0  0  0  0  0  0  0  0
  184.6520  178.6660  141.4340 C   0  0  0  0  0  3  0  0  0  0  0  0
  186.9630  176.9660  141.8570 C   0  0  0  0  0  0  0  0  0  0  0  0
  188.0170  176.5990  144.4270 C   0  0  0  0  0  0  0  0  0  0  0  0
  187.2190  177.7850  147.6380 O   0  0  0  0  0  0  0  0  0  0  0  0
  188.3750  176.5450  145.8810 C   0  0  1  0  0  3  0  0  0  0  0  0
  191.5640  176.7910  147.6390 C   0  0  0  0  0  2  0  0  0  0  0  0
  189.7740  173.9550  145.7880 C   0  0  0  0  0  1  0  0  0  0  0  0
  185.3180  178.6940  142.7830 C   0  0  0  0  0  2  0  0  0  0  0  0
  186.4210  177.6770  142.9540 C   0  0  0  0  0  0  0  0  0  0  0  0
  190.4460  174.9230  144.8220 C   0  0  2  0  0  3  0  0  0  0  0  0
  190.1020  173.7890  140.0830 O   0  0  0  0  0  0  0  0  0  0  0  0
  188.8830  172.3280  138.6590 C   0  0  0  0  0  1  0  0  0  0  0  0
  189.1190  173.7580  139.0930 C   0  0  0  0  0  2  0  0  0  0  0  0
  1  4  1  0  0  0  0
  2 19  1  0  0  0  0
  3 10  1  0  0  0  0
  4 12  1  0  0  0  0
  4 20  2  0  0  0  0
  5 11  1  0  0  0  0
  5  1  1  0  0  0  0
  7  9  1  0  0  0  0
  7 15  1  1  0  0  0
  8  6  1  1  0  0  0
  8 12  1  0  0  0  0
  9 14  1  1  0  0  0
 10 21  2  0  0  0  0
 11 28  1  6  0  0  0
 11  8  1  0  0  0  0
 12 27  1  0  0  0  0
 13  2  1  0  0  0  0
 13 18  2  0  0  0  0
 14 23  1  0  0  0  0
 15 23  1  0  0  0  0
 16  2  2  0  0  0  0
 17 20  1  0  0  0  0
 17  3  1  0  0  0  0
 18 25  1  0  0  0  0
 19  1  2  0  0  0  0
 19 26  1  0  0  0  0
 22 20  1  6  0  0  0
 22  9  1  0  0  0  0
 22 10  1  0  0  0  0
 25 26  1  0  0  0  0
 26 17  2  0  0  0  0
 27  7  1  0  0  0  0
 27 24  1  1  0  0  0
 29 30  1  0  0  0  0
 30 28  1  0  0  0  0
M  END
>  <MODEL>
4

>  <REMARK>
 VINA RESULT:      -8.1      1.682      5.604
  Name = 
  2 active torsions:
  status: ('A' for Active; 'I' for Inactive)
    1  A    between atoms: C_11  and  O_28
    2  A    between atoms: O_28  and  C_30
                            x       y       z     vdW  Elec       q    Type
                         _______ _______ _______ _____ _____    ______ ____

>  <TORSDO>
F 2

$$$$
=
 OpenBabel11112416173D

 30 35  0  0  1  0  0  0  0  0999 V2000
  187.9590  175.9700  141.6230 C   0  0  0  0  0  0  0  0  0  0  0  0
  189.5870  174.1260  140.9570 C   0  0  0  0  0  0  0  0  0  0  0  0
  189.4300  176.0560  145.5490 N   0  0  0  0  0  2  0  0  0  0  0  0
  187.4200  176.8370  142.6030 C   0  0  0  0  0  0  0  0  0  0  0  0
  187.4410  176.0410  140.2930 N   0  0  0  0  0  2  0  0  0  0  0  0
  184.9620  178.7080  140.6040 O   0  0  0  0  0  1  0  0  0  0  0  0
  185.1970  177.6700  144.5110 C   0  0  1  0  0  3  0  0  0  0  0  0
  185.6280  177.5330  140.9640 C   0  0  1  0  0  3  0  0  0  0  0  0
  186.2460  177.4150  145.5240 N   0  0  2  0  0  0  0  0  0  0  0  0
  188.6170  177.1030  146.0650 C   0  0  0  0  0  0  0  0  0  0  0  0
  186.6260  177.1680  139.8690 C   0  0  2  0  0  3  0  0  0  0  0  0
  186.3010  177.6960  142.2640 N   0  0  0  0  0  0  0  0  0  0  0  0
  190.7670  173.3330  141.3170 C   0  0  0  0  0  3  0  0  0  0  0  0
  185.9420  178.3310  146.6170 C   0  0  0  0  0  2  0  0  0  0  0  0
  184.0190  178.3320  145.2050 C   0  0  0  0  0  2  0  0  0  0  0  0
  189.1150  174.0170  139.7960 O   0  0  0  0  0  0  0  0  0  0  0  0
  188.9920  175.9270  144.2070 C   0  0  0  0  0  0  0  0  0  0  0  0
  191.2420  173.3230  142.5610 C   0  0  0  0  0  3  0  0  0  0  0  0
  188.9930  175.0520  141.9550 C   0  0  0  0  0  0  0  0  0  0  0  0
  187.9720  176.8000  143.8910 C   0  0  0  0  0  0  0  0  0  0  0  0
  188.7530  177.5410  147.2370 O   0  0  0  0  0  0  0  0  0  0  0  0
  187.6270  177.6530  145.0730 C   0  0  1  0  0  3  0  0  0  0  0  0
  184.4450  178.5150  146.6390 C   0  0  0  0  0  2  0  0  0  0  0  0
  186.3160  179.8140  143.5610 C   0  0  0  0  0  1  0  0  0  0  0  0
  190.5850  174.0600  143.6960 C   0  0  0  0  0  2  0  0  0  0  0  0
  189.5190  175.0400  143.2690 C   0  0  0  0  0  0  0  0  0  0  0  0
  185.6040  178.4970  143.2740 C   0  0  2  0  0  3  0  0  0  0  0  0
  185.9500  176.8380  138.6920 O   0  0  0  0  0  0  0  0  0  0  0  0
  186.4480  176.0410  136.5090 C   0  0  0  0  0  1  0  0  0  0  0  0
  186.8520  176.0580  137.9680 C   0  0  0  0  0  2  0  0  0  0  0  0
  1 19  2  0  0  0  0
  1  4  1  0  0  0  0
  2 13  1  0  0  0  0
  2 19  1  0  0  0  0
  3 10  1  0  0  0  0
  4 20  2  0  0  0  0
  5  1  1  0  0  0  0
  7 15  1  1  0  0  0
  7  9  1  0  0  0  0
  8  6  1  6  0  0  0
  8 12  1  0  0  0  0
  9 14  1  1  0  0  0
 10 21  2  0  0  0  0
 11 28  1  6  0  0  0
 11  5  1  0  0  0  0
 11  8  1  0  0  0  0
 12  4  1  0  0  0  0
 12 27  1  0  0  0  0
 13 18  2  0  0  0  0
 14 23  1  0  0  0  0
 15 23  1  0  0  0  0
 16  2  2  0  0  0  0
 17  3  1  0  0  0  0
 18 25  1  0  0  0  0
 19 26  1  0  0  0  0
 20 17  1  0  0  0  0
 22 20  1  6  0  0  0
 22  9  1  0  0  0  0
 22 10  1  0  0  0  0
 26 25  1  0  0  0  0
 26 17  2  0  0  0  0
 27 24  1  1  0  0  0
 27  7  1  0  0  0  0
 29 30  1  0  0  0  0
 30 28  1  0  0  0  0
M  END
>  <MODEL>
5

>  <REMARK>
 VINA RESULT:      -8.0      1.842      7.295
  Name = 
  2 active torsions:
  status: ('A' for Active; 'I' for Inactive)
    1  A    between atoms: C_11  and  O_28
    2  A    between atoms: O_28  and  C_30
                            x       y       z     vdW  Elec       q    Type
                         _______ _______ _______ _____ _____    ______ ____

>  <TORSDO>
F 2

$$$$
=
 OpenBabel11112416173D

 30 35  0  0  1  0  0  0  0  0999 V2000
  188.7440  176.7090  145.6060 C   0  0  0  0  0  0  0  0  0  0  0  0
  186.6580  177.9580  146.3710 C   0  0  0  0  0  0  0  0  0  0  0  0
  187.0960  175.9750  141.8210 N   0  0  0  0  0  2  0  0  0  0  0  0
  189.4430  175.9760  144.6180 C   0  0  0  0  0  0  0  0  0  0  0  0
  189.3970  176.9670  146.8510 N   0  0  0  0  0  2  0  0  0  0  0  0
  192.6500  175.3870  146.3220 O   0  0  0  0  0  1  0  0  0  0  0  0
  190.5550  173.3670  143.5070 C   0  0  1  0  0  3  0  0  0  0  0  0
  191.2550  175.4790  146.3060 C   0  0  1  0  0  3  0  0  0  0  0  0
  189.6100  173.6670  142.4070 N   0  0  2  0  0  0  0  0  0  0  0  0
  188.1960  175.2890  141.2330 C   0  0  0  0  0  0  0  0  0  0  0  0
  190.8310  176.7720  146.9960 C   0  0  2  0  0  3  0  0  0  0  0  0
  190.7480  175.4220  144.9240 N   0  0  0  0  0  0  0  0  0  0  0  0
  185.3780  178.5670  145.9970 C   0  0  0  0  0  3  0  0  0  0  0  0
  190.2200  173.0830  141.2190 C   0  0  0  0  0  2  0  0  0  0  0  0
  191.4240  172.1980  143.0780 C   0  0  0  0  0  2  0  0  0  0  0  0
  187.0890  178.1250  147.5420 O   0  0  0  0  0  0  0  0  0  0  0  0
  187.5460  176.2560  143.1360 C   0  0  0  0  0  0  0  0  0  0  0  0
  184.8210  178.3330  144.8110 C   0  0  0  0  0  3  0  0  0  0  0  0
  187.4250  177.1830  145.3640 C   0  0  0  0  0  0  0  0  0  0  0  0
  188.8160  175.7770  143.3800 C   0  0  0  0  0  0  0  0  0  0  0  0
  188.1860  174.9170  140.0310 O   0  0  0  0  0  0  0  0  0  0  0  0
  189.3650  175.0980  142.1620 C   0  0  1  0  0  3  0  0  0  0  0  0
  190.9990  171.8720  141.6690 C   0  0  0  0  0  2  0  0  0  0  0  0
  192.2040  175.2860  142.9180 C   0  0  0  0  0  1  0  0  0  0  0  0
  185.4120  177.3910  143.7980 C   0  0  0  0  0  2  0  0  0  0  0  0
  186.8240  176.9550  144.1030 C   0  0  0  0  0  0  0  0  0  0  0  0
  191.4470  174.5250  144.0000 C   0  0  2  0  0  3  0  0  0  0  0  0
  191.1610  176.7250  148.3520 O   0  0  0  0  0  0  0  0  0  0  0  0
  191.5630  178.2050  150.1680 C   0  0  0  0  0  1  0  0  0  0  0  0
  190.8760  178.0030  148.8350 C   0  0  0  0  0  2  0  0  0  0  0  0
  1  5  1  0  0  0  0
  2 16  2  0  0  0  0
  3 17  1  0  0  0  0
  4 12  1  0  0  0  0
  4  1  2  0  0  0  0
  5 11  1  0  0  0  0
  7 15  1  6  0  0  0
  7 27  1  0  0  0  0
  8  6  1  6  0  0  0
  8 11  1  0  0  0  0
  9 14  1  6  0  0  0
  9  7  1  0  0  0  0
 10  3  1  0  0  0  0
 11 28  1  1  0  0  0
 12  8  1  0  0  0  0
 13  2  1  0  0  0  0
 14 23  1  0  0  0  0
 17 20  2  0  0  0  0
 17 26  1  0  0  0  0
 18 13  2  0  0  0  0
 19  1  1  0  0  0  0
 19  2  1  0  0  0  0
 20  4  1  0  0  0  0
 21 10  2  0  0  0  0
 22 10  1  6  0  0  0
 22  9  1  0  0  0  0
 22 20  1  0  0  0  0
 23 15  1  0  0  0  0
 25 26  1  0  0  0  0
 25 18  1  0  0  0  0
 26 19  2  0  0  0  0
 27 24  1  6  0  0  0
 27 12  1  0  0  0  0
 28 30  1  0  0  0  0
 30 29  1  0  0  0  0
M  END
>  <MODEL>
6

>  <REMARK>
 VINA RESULT:      -8.0      1.570      1.907
  Name = 
  2 active torsions:
  status: ('A' for Active; 'I' for Inactive)
    1  A    between atoms: C_11  and  O_28
    2  A    between atoms: O_28  and  C_30
                            x       y       z     vdW  Elec       q    Type
                         _______ _______ _______ _____ _____    ______ ____

>  <TORSDO>
F 2

$$$$
=
 OpenBabel11112416173D

 30 35  0  0  1  0  0  0  0  0999 V2000
  188.1180  175.6130  141.5160 C   0  0  0  0  0  0  0  0  0  0  0  0
  186.4310  177.1790  140.4230 C   0  0  0  0  0  0  0  0  0  0  0  0
  187.3350  177.1850  145.3230 N   0  0  0  0  0  2  0  0  0  0  0  0
  188.8010  175.1540  142.6660 C   0  0  0  0  0  0  0  0  0  0  0  0
  188.4000  174.9870  140.2620 N   0  0  0  0  0  2  0  0  0  0  0  0
  190.8510  172.4560  141.2340 O   0  0  0  0  0  1  0  0  0  0  0  0
  191.3030  174.9500  144.3920 C   0  0  1  0  0  3  0  0  0  0  0  0
  190.2760  173.7290  141.1920 C   0  0  1  0  0  3  0  0  0  0  0  0
  190.4460  175.6650  145.3650 N   0  0  2  0  0  0  0  0  0  0  0  0
  188.2070  176.3580  146.0850 C   0  0  0  0  0  0  0  0  0  0  0  0
  189.1120  173.7200  140.2050 C   0  0  2  0  0  3  0  0  0  0  0  0
  189.8320  174.1420  142.5340 N   0  0  0  0  0  0  0  0  0  0  0  0
  185.3430  178.1450  140.6090 C   0  0  0  0  0  3  0  0  0  0  0  0
  190.9160  175.2260  146.6730 C   0  0  0  0  0  2  0  0  0  0  0  0
  192.5700  174.5150  145.1070 C   0  0  0  0  0  2  0  0  0  0  0  0
  186.7000  176.7880  139.2570 O   0  0  0  0  0  0  0  0  0  0  0  0
  187.5410  176.7450  143.9910 C   0  0  0  0  0  0  0  0  0  0  0  0
  185.0870  178.6770  141.8020 C   0  0  0  0  0  3  0  0  0  0  0  0
  187.1700  176.6700  141.6050 C   0  0  0  0  0  0  0  0  0  0  0  0
  188.4770  175.7360  143.9000 C   0  0  0  0  0  0  0  0  0  0  0  0
  188.2650  176.4250  147.3400 O   0  0  0  0  0  0  0  0  0  0  0  0
  189.0050  175.3850  145.2580 C   0  0  1  0  0  3  0  0  0  0  0  0
  192.3920  174.9410  146.5420 C   0  0  0  0  0  2  0  0  0  0  0  0
  190.0020  172.7060  144.5530 C   0  0  0  0  0  1  0  0  0  0  0  0
  185.9150  178.3900  143.0250 C   0  0  0  0  0  2  0  0  0  0  0  0
  186.8770  177.2360  142.8680 C   0  0  0  0  0  0  0  0  0  0  0  0
  190.6770  173.7430  143.6620 C   0  0  2  0  0  3  0  0  0  0  0  0
  189.5830  173.5080  138.9070 O   0  0  0  0  0  0  0  0  0  0  0  0
  188.9710  174.2780  136.7440 C   0  0  0  0  0  1  0  0  0  0  0  0
  188.4870  173.7630  138.0820 C   0  0  0  0  0  2  0  0  0  0  0  0
  1 19  2  0  0  0  0
  1  4  1  0  0  0  0
  2 13  1  0  0  0  0
  2 19  1  0  0  0  0
  3 10  1  0  0  0  0
  4 20  2  0  0  0  0
  5  1  1  0  0  0  0
  7 15  1  1  0  0  0
  7  9  1  0  0  0  0
  8  6  1  1  0  0  0
  8 12  1  0  0  0  0
  9 14  1  1  0  0  0
 10 21  2  0  0  0  0
 11 28  1  6  0  0  0
 11  5  1  0  0  0  0
 11  8  1  0  0  0  0
 12  4  1  0  0  0  0
 12 27  1  0  0  0  0
 13 18  2  0  0  0  0
 15 23  1  0  0  0  0
 16  2  2  0  0  0  0
 17  3  1  0  0  0  0
 18 25  1  0  0  0  0
 19 26  1  0  0  0  0
 20 17  1  0  0  0  0
 22 20  1  6  0  0  0
 22  9  1  0  0  0  0
 22 10  1  0  0  0  0
 23 14  1  0  0  0  0
 26 25  1  0  0  0  0
 26 17  2  0  0  0  0
 27  7  1  0  0  0  0
 27 24  1  1  0  0  0
 29 30  1  0  0  0  0
 30 28  1  0  0  0  0
M  END
>  <MODEL>
7

>  <REMARK>
 VINA RESULT:      -7.9      1.967      5.738
  Name = 
  2 active torsions:
  status: ('A' for Active; 'I' for Inactive)
    1  A    between atoms: C_11  and  O_28
    2  A    between atoms: O_28  and  C_30
                            x       y       z     vdW  Elec       q    Type
                         _______ _______ _______ _____ _____    ______ ____

>  <TORSDO>
F 2

$$$$
=
 OpenBabel11112416173D

 30 35  0  0  1  0  0  0  0  0999 V2000
  189.9920  174.9070  143.7820 C   0  0  0  0  0  0  0  0  0  0  0  0
  192.1090  173.4960  143.9230 C   0  0  0  0  0  0  0  0  0  0  0  0
  190.8420  176.8140  147.4180 N   0  0  0  0  0  2  0  0  0  0  0  0
  189.1220  175.8750  144.3370 C   0  0  0  0  0  0  0  0  0  0  0  0
  189.6600  174.3440  142.5100 N   0  0  0  0  0  2  0  0  0  0  0  0
  186.5680  176.1170  141.7010 O   0  0  0  0  0  1  0  0  0  0  0  0
  186.5210  176.6640  145.7120 C   0  0  1  0  0  3  0  0  0  0  0  0
  187.4540  175.3920  142.5040 C   0  0  1  0  0  3  0  0  0  0  0  0
  187.4520  177.1010  146.7780 N   0  0  2  0  0  0  0  0  0  0  0  0
  189.7270  177.6970  147.4690 C   0  0  0  0  0  0  0  0  0  0  0  0
  188.6520  174.9610  141.6620 C   0  0  2  0  0  3  0  0  0  0  0  0
  187.8790  176.1960  143.6620 N   0  0  0  0  0  0  0  0  0  0  0  0
  193.3900  173.2580  144.5950 C   0  0  0  0  0  3  0  0  0  0  0  0
  186.7800  178.2200  147.4270 C   0  0  0  0  0  2  0  0  0  0  0  0
  185.1310  177.1640  146.0640 C   0  0  0  0  0  2  0  0  0  0  0  0
  191.8440  172.8470  142.8780 O   0  0  0  0  0  0  0  0  0  0  0  0
  190.6390  176.0920  146.2160 C   0  0  0  0  0  0  0  0  0  0  0  0
  193.6780  173.8320  145.7610 C   0  0  0  0  0  3  0  0  0  0  0  0
  191.1690  174.5070  144.4710 C   0  0  0  0  0  0  0  0  0  0  0  0
  189.4840  176.4620  145.5580 C   0  0  0  0  0  0  0  0  0  0  0  0
  189.5870  178.5450  148.3880 O   0  0  0  0  0  0  0  0  0  0  0  0
  188.7750  177.5460  146.3120 C   0  0  1  0  0  3  0  0  0  0  0  0
  185.2960  177.9630  147.3310 C   0  0  0  0  0  2  0  0  0  0  0  0
  187.1810  178.5480  144.0480 C   0  0  0  0  0  1  0  0  0  0  0  0
  192.7070  174.7060  146.5070 C   0  0  0  0  0  2  0  0  0  0  0  0
  191.4960  175.1180  145.7050 C   0  0  0  0  0  0  0  0  0  0  0  0
  186.8710  177.0710  144.2660 C   0  0  2  0  0  3  0  0  0  0  0  0
  188.2490  174.0520  140.6810 O   0  0  0  0  0  0  0  0  0  0  0  0
  189.0520  173.7540  138.4640 C   0  0  0  0  0  1  0  0  0  0  0  0
  189.4010  173.7950  139.9370 C   0  0  0  0  0  2  0  0  0  0  0  0
  1  4  2  0  0  0  0
  1 19  1  0  0  0  0
  2 19  1  0  0  0  0
  2 13  1  0  0  0  0
  3 10  1  0  0  0  0
  4 20  1  0  0  0  0
  5  1  1  0  0  0  0
  7 15  1  1  0  0  0
  7  9  1  0  0  0  0
  8  6  1  6  0  0  0
  8 12  1  0  0  0  0
  9 14  1  6  0  0  0
 10 21  2  0  0  0  0
 11 28  1  6  0  0  0
 11  8  1  0  0  0  0
 11  5  1  0  0  0  0
 12 27  1  0  0  0  0
 12  4  1  0  0  0  0
 13 18  2  0  0  0  0
 15 23  1  0  0  0  0
 16  2  2  0  0  0  0
 17  3  1  0  0  0  0
 18 25  1  0  0  0  0
 19 26  2  0  0  0  0
 20 17  2  0  0  0  0
 22 20  1  6  0  0  0
 22  9  1  0  0  0  0
 22 10  1  0  0  0  0
 23 14  1  0  0  0  0
 26 17  1  0  0  0  0
 26 25  1  0  0  0  0
 27 24  1  1  0  0  0
 27  7  1  0  0  0  0
 29 30  1  0  0  0  0
 30 28  1  0  0  0  0
M  END
>  <MODEL>
8

>  <REMARK>
 VINA RESULT:      -7.8      2.074      6.999
  Name = 
  2 active torsions:
  status: ('A' for Active; 'I' for Inactive)
    1  A    between atoms: C_11  and  O_28
    2  A    between atoms: O_28  and  C_30
                            x       y       z     vdW  Elec       q    Type
                         _______ _______ _______ _____ _____    ______ ____

>  <TORSDO>
F 2

$$$$
=
 OpenBabel11112416173D

 30 35  0  0  1  0  0  0  0  0999 V2000
  188.9430  175.2030  143.1600 C   0  0  0  0  0  0  0  0  0  0  0  0
  186.7670  176.2920  143.9170 C   0  0  0  0  0  0  0  0  0  0  0  0
  191.0720  176.8930  146.3530 N   0  0  0  0  0  2  0  0  0  0  0  0
  190.3320  174.9920  143.3250 C   0  0  0  0  0  0  0  0  0  0  0  0
  188.2780  174.5460  142.0790 N   0  0  0  0  0  2  0  0  0  0  0  0
  191.0180  172.6630  140.5610 O   0  0  0  0  0  1  0  0  0  0  0  0
  193.2270  175.4510  142.4950 C   0  0  1  0  0  3  0  0  0  0  0  0
  190.3850  173.7830  141.1080 C   0  0  1  0  0  3  0  0  0  0  0  0
  193.3070  176.0540  143.8450 N   0  0  2  0  0  0  0  0  0  0  0  0
  192.3510  176.3300  146.0860 C   0  0  0  0  0  0  0  0  0  0  0  0
  188.9170  173.4520  141.3650 C   0  0  2  0  0  3  0  0  0  0  0  0
  191.0600  174.2060  142.3460 N   0  0  0  0  0  0  0  0  0  0  0  0
  186.0540  177.0260  144.9680 C   0  0  0  0  0  3  0  0  0  0  0  0
  194.6820  175.8320  144.2740 C   0  0  0  0  0  2  0  0  0  0  0  0
  194.6360  175.3480  141.9380 C   0  0  0  0  0  2  0  0  0  0  0  0
  186.1150  175.8690  142.9270 O   0  0  0  0  0  0  0  0  0  0  0  0
  190.2640  176.3950  145.3000 C   0  0  0  0  0  0  0  0  0  0  0  0
  186.7070  177.5920  145.9810 C   0  0  0  0  0  3  0  0  0  0  0  0
  188.2250  176.0460  144.0530 C   0  0  0  0  0  0  0  0  0  0  0  0
  190.9650  175.5960  144.4200 C   0  0  0  0  0  0  0  0  0  0  0  0
  193.3350  176.5110  146.8490 O   0  0  0  0  0  0  0  0  0  0  0  0
  192.3970  175.4760  144.8470 C   0  0  1  0  0  3  0  0  0  0  0  0
  195.5420  175.8470  143.0340 C   0  0  0  0  0  2  0  0  0  0  0  0
  192.9900  173.0090  143.3510 C   0  0  0  0  0  1  0  0  0  0  0  0
  188.2070  177.5840  146.0980 C   0  0  0  0  0  2  0  0  0  0  0  0
  188.9010  176.6440  145.1420 C   0  0  0  0  0  0  0  0  0  0  0  0
  192.5190  174.0850  142.3790 C   0  0  2  0  0  3  0  0  0  0  0  0
  188.2540  173.2340  140.1560 O   0  0  0  0  0  0  0  0  0  0  0  0
  188.2310  174.2420  138.0030 C   0  0  0  0  0  1  0  0  0  0  0  0
  188.2910  174.4640  139.4990 C   0  0  0  0  0  2  0  0  0  0  0  0
  1  4  2  0  0  0  0
  1 19  1  0  0  0  0
  2 19  1  0  0  0  0
  2 13  1  0  0  0  0
  4 20  1  0  0  0  0
  5  1  1  0  0  0  0
  7 15  1  1  0  0  0
  7  9  1  0  0  0  0
  8  6  1  1  0  0  0
  8 11  1  0  0  0  0
  8 12  1  0  0  0  0
  9 14  1  1  0  0  0
  9 22  1  0  0  0  0
 10  3  1  0  0  0  0
 10 21  2  0  0  0  0
 11 28  1  6  0  0  0
 11  5  1  0  0  0  0
 12 27  1  0  0  0  0
 12  4  1  0  0  0  0
 13 18  2  0  0  0  0
 15 23  1  0  0  0  0
 16  2  2  0  0  0  0
 17  3  1  0  0  0  0
 18 25  1  0  0  0  0
 19 26  2  0  0  0  0
 20 17  2  0  0  0  0
 22 20  1  6  0  0  0
 22 10  1  0  0  0  0
 23 14  1  0  0  0  0
 26 17  1  0  0  0  0
 26 25  1  0  0  0  0
 27  7  1  0  0  0  0
 27 24  1  1  0  0  0
 29 30  1  0  0  0  0
 30 28  1  0  0  0  0
M  END
>  <MODEL>
9

>  <REMARK>
 VINA RESULT:      -7.5      2.681      5.704
  Name = 
  2 active torsions:
  status: ('A' for Active; 'I' for Inactive)
    1  A    between atoms: C_11  and  O_28
    2  A    between atoms: O_28  and  C_30
                            x       y       z     vdW  Elec       q    Type
                         _______ _______ _______ _____ _____    ______ ____

>  <TORSDO>
F 2

$$$$
