=
 OpenBabel11112416263D

 30 35  0  0  1  0  0  0  0  0999 V2000
  189.7690  175.0110  144.6220 C   0  0  2  0  0  3  0  0  0  0  0  0
  191.0060  172.9340  143.7810 C   0  0  0  0  0  0  0  0  0  0  0  0
  188.2080  175.7000  141.2460 N   0  0  0  0  0  2  0  0  0  0  0  0
  188.9800  176.1870  144.1620 N   0  0  2  0  0  0  0  0  0  0  0  0
  190.9510  175.4240  145.2610 O   0  0  0  0  0  0  0  0  0  0  0  0
  189.6740  178.0140  147.3770 O   0  0  0  0  0  1  0  0  0  0  0  0
  186.3850  177.8830  144.9570 C   0  0  2  0  0  3  0  0  0  0  0  0
  190.0270  177.3560  146.1940 C   0  0  1  0  0  3  0  0  0  0  0  0
  186.9260  178.1430  143.6250 N   0  0  2  0  0  0  0  0  0  0  0  0
  187.5580  176.9190  141.5580 C   0  0  0  0  0  0  0  0  0  0  0  0
  190.5740  175.9760  146.4860 C   0  0  2  0  0  3  0  0  0  0  0  0
  188.8310  177.2200  145.2400 C   0  0  2  0  0  3  0  0  0  0  0  0
  190.7760  171.6810  143.1250 N   0  0  0  0  0  0  0  0  0  0  0  0
  185.9610  179.0660  143.0440 C   0  0  0  0  0  2  0  0  0  0  0  0
  185.7850  179.1750  145.4480 C   0  0  0  0  0  2  0  0  0  0  0  0
  191.9620  173.0290  144.5950 O   0  0  0  0  0  0  0  0  0  0  0  0
  187.9220  174.8170  142.3640 C   0  0  2  0  0  3  0  0  0  0  0  0
  189.7790  171.5030  142.3150 C   0  0  0  0  0  3  0  0  0  0  0  0
  190.1830  174.1530  143.4140 C   0  0  1  0  0  3  0  0  0  0  0  0
  187.6810  175.7310  143.5760 C   0  0  2  0  0  3  0  0  0  0  0  0
  187.5160  177.8930  140.7600 O   0  0  0  0  0  0  0  0  0  0  0  0
  186.8940  176.8770  142.8900 C   0  0  1  0  0  3  0  0  0  0  0  0
  185.3870  179.8970  144.1800 C   0  0  0  0  0  2  0  0  0  0  0  0
  187.0480  176.1260  146.4610 O   0  0  0  0  0  1  0  0  0  0  0  0
  188.8160  172.5820  142.0540 C   0  0  0  0  0  3  0  0  0  0  0  0
  188.9770  173.7950  142.5870 C   0  0  0  0  0  0  0  0  0  0  0  0
  187.4500  177.3450  145.9160 C   0  0  2  0  0  3  0  0  0  0  0  0
  191.7920  176.0670  147.3900 C   0  0  0  0  0  2  0  0  0  0  0  0
  194.0380  176.7850  146.6420 C   0  0  0  0  0  1  0  0  0  0  0  0
  193.0370  175.6490  146.6330 C   0  0  0  0  0  2  0  0  0  0  0  0
  1  5  1  6  0  0  0
  2 16  2  0  0  0  0
  3 10  1  0  0  0  0
  3 17  1  0  0  0  0
  4  1  1  0  0  0  0
  4 12  1  0  0  0  0
  5 11  1  0  0  0  0
  7 15  1  0  0  0  0
  7 27  1  0  0  0  0
  8 11  1  0  0  0  0
  8  6  1  0  0  0  0
  9  7  1  0  0  0  0
 10 22  1  0  0  0  0
 11 28  1  0  0  0  0
 12 27  1  0  0  0  0
 12  8  1  0  0  0  0
 13  2  1  0  0  0  0
 14  9  1  0  0  0  0
 14 23  1  0  0  0  0
 17 26  1  0  0  0  0
 17 20  1  0  0  0  0
 18 13  2  0  0  0  0
 19  2  1  0  0  0  0
 19  1  1  0  0  0  0
 20  4  1  0  0  0  0
 21 10  2  0  0  0  0
 22 20  1  0  0  0  0
 22  9  1  0  0  0  0
 23 15  1  0  0  0  0
 25 18  1  0  0  0  0
 25 26  2  0  0  0  0
 26 19  1  0  0  0  0
 27 24  1  0  0  0  0
 30 29  1  0  0  0  0
 30 28  1  0  0  0  0
M  END
>  <MODEL>
1

>  <REMARK>
 VINA RESULT:      -8.8      0.000      0.000
  Name = 
  2 active torsions:
  status: ('A' for Active; 'I' for Inactive)
    1  A    between atoms: C_11  and  C_28
    2  A    between atoms: C_28  and  C_30
                            x       y       z     vdW  Elec       q    Type
                         _______ _______ _______ _____ _____    ______ ____

>  <TORSDO>
F 2

$$$$
=
 OpenBabel11112416263D

 30 35  0  0  1  0  0  0  0  0999 V2000
  186.5580  177.6580  143.5400 C   0  0  2  0  0  3  0  0  0  0  0  0
  185.2260  178.9440  145.3070 C   0  0  0  0  0  0  0  0  0  0  0  0
  189.6840  177.5610  145.6690 N   0  0  0  0  0  2  0  0  0  0  0  0
  187.9320  177.2050  143.1900 N   0  0  2  0  0  0  0  0  0  0  0  0
  186.0610  178.5380  142.5620 O   0  0  0  0  0  0  0  0  0  0  0  0
  186.9620  176.7740  139.5810 O   0  0  0  0  0  1  0  0  0  0  0  0
  189.4660  174.6540  142.0140 C   0  0  2  0  0  3  0  0  0  0  0  0
  187.1310  177.4950  140.7680 C   0  0  1  0  0  3  0  0  0  0  0  0
  190.3150  175.6800  142.6140 N   0  0  2  0  0  0  0  0  0  0  0  0
  190.5550  176.9460  144.7370 C   0  0  0  0  0  0  0  0  0  0  0  0
  185.7980  177.7720  141.4270 C   0  0  2  0  0  3  0  0  0  0  0  0
  188.0270  176.7440  141.7650 C   0  0  2  0  0  3  0  0  0  0  0  0
  184.8340  178.8770  146.6830 N   0  0  0  0  0  0  0  0  0  0  0  0
  191.6450  175.0880  142.5620 C   0  0  0  0  0  2  0  0  0  0  0  0
  190.2600  174.0220  140.8990 C   0  0  0  0  0  2  0  0  0  0  0  0
  184.4690  179.5230  144.4850 O   0  0  0  0  0  0  0  0  0  0  0  0
  188.4480  176.7990  145.5980 C   0  0  2  0  0  3  0  0  0  0  0  0
  185.5440  178.2510  147.5700 C   0  0  0  0  0  3  0  0  0  0  0  0
  186.5840  178.4270  144.8720 C   0  0  1  0  0  3  0  0  0  0  0  0
  188.4040  176.1930  144.1860 C   0  0  2  0  0  3  0  0  0  0  0  0
  191.7580  177.2920  144.5980 O   0  0  0  0  0  0  0  0  0  0  0  0
  189.8990  175.8240  144.0100 C   0  0  1  0  0  3  0  0  0  0  0  0
  191.6980  174.1970  141.3320 C   0  0  0  0  0  2  0  0  0  0  0  0
  187.0640  174.5460  142.0950 O   0  0  0  0  0  1  0  0  0  0  0  0
  186.7820  177.5540  147.1920 C   0  0  0  0  0  3  0  0  0  0  0  0
  187.2460  177.6010  145.9420 C   0  0  0  0  0  0  0  0  0  0  0  0
  188.1360  175.2250  141.5170 C   0  0  2  0  0  3  0  0  0  0  0  0
  184.8950  178.5570  140.4900 C   0  0  0  0  0  2  0  0  0  0  0  0
  182.7070  178.2530  141.6030 C   0  0  0  0  0  1  0  0  0  0  0  0
  183.5380  177.8880  140.3910 C   0  0  0  0  0  2  0  0  0  0  0  0
  1  5  1  6  0  0  0
  1 19  1  0  0  0  0
  2 13  1  0  0  0  0
  4  1  1  0  0  0  0
  4 20  1  0  0  0  0
  6  8  1  0  0  0  0
  7  9  1  0  0  0  0
  8 11  1  0  0  0  0
  8 12  1  0  0  0  0
  9 22  1  0  0  0  0
 10  3  1  0  0  0  0
 11  5  1  0  0  0  0
 12  4  1  0  0  0  0
 13 18  2  0  0  0  0
 14  9  1  0  0  0  0
 15 23  1  0  0  0  0
 15  7  1  0  0  0  0
 16  2  2  0  0  0  0
 17  3  1  0  0  0  0
 17 26  1  0  0  0  0
 19  2  1  0  0  0  0
 19 26  1  0  0  0  0
 20 17  1  0  0  0  0
 21 10  2  0  0  0  0
 22 20  1  0  0  0  0
 22 10  1  0  0  0  0
 23 14  1  0  0  0  0
 25 18  1  0  0  0  0
 26 25  2  0  0  0  0
 27 12  1  0  0  0  0
 27  7  1  0  0  0  0
 27 24  1  0  0  0  0
 28 11  1  0  0  0  0
 30 28  1  0  0  0  0
 30 29  1  0  0  0  0
M  END
>  <MODEL>
2

>  <REMARK>
 VINA RESULT:      -8.7      2.347      7.066
  Name = 
  2 active torsions:
  status: ('A' for Active; 'I' for Inactive)
    1  A    between atoms: C_11  and  C_28
    2  A    between atoms: C_28  and  C_30
                            x       y       z     vdW  Elec       q    Type
                         _______ _______ _______ _____ _____    ______ ____

>  <TORSDO>
F 2

$$$$
=
 OpenBabel11112416263D

 30 35  0  0  1  0  0  0  0  0999 V2000
  187.2380  176.8540  143.8600 C   0  0  2  0  0  3  0  0  0  0  0  0
  185.0710  177.6660  142.7640 C   0  0  0  0  0  0  0  0  0  0  0  0
  188.1590  174.6800  140.9040 N   0  0  0  0  0  2  0  0  0  0  0  0
  188.3350  175.8580  143.7190 N   0  0  2  0  0  0  0  0  0  0  0  0
  186.5230  176.6410  145.0530 O   0  0  0  0  0  0  0  0  0  0  0  0
  189.2270  176.1990  147.3570 O   0  0  0  0  0  1  0  0  0  0  0  0
  191.5130  175.6270  144.0200 C   0  0  2  0  0  3  0  0  0  0  0  0
  188.3730  175.9210  146.2850 C   0  0  1  0  0  3  0  0  0  0  0  0
  190.8600  174.5100  143.3420 N   0  0  2  0  0  0  0  0  0  0  0  0
  189.3240  174.0780  141.4400 C   0  0  0  0  0  0  0  0  0  0  0  0
  187.3610  177.0310  146.0970 C   0  0  2  0  0  3  0  0  0  0  0  0
  189.1500  175.7380  144.9720 C   0  0  2  0  0  3  0  0  0  0  0  0
  184.5860  178.2940  141.5730 N   0  0  0  0  0  0  0  0  0  0  0  0
  191.9770  173.6790  142.9140 C   0  0  0  0  0  2  0  0  0  0  0  0
  192.7050  175.0640  144.7500 C   0  0  0  0  0  2  0  0  0  0  0  0
  184.4560  177.8540  143.8470 O   0  0  0  0  0  0  0  0  0  0  0  0
  188.2710  176.0910  141.2340 C   0  0  2  0  0  3  0  0  0  0  0  0
  185.2020  178.1820  140.4370 C   0  0  0  0  0  3  0  0  0  0  0  0
  186.2380  176.7000  142.7000 C   0  0  1  0  0  3  0  0  0  0  0  0
  189.1450  176.1630  142.4970 C   0  0  2  0  0  3  0  0  0  0  0  0
  189.6070  172.8640  141.2600 O   0  0  0  0  0  0  0  0  0  0  0  0
  190.1780  175.0550  142.1670 C   0  0  1  0  0  3  0  0  0  0  0  0
  193.0880  173.8470  143.9370 C   0  0  0  0  0  2  0  0  0  0  0  0
  190.5030  177.7200  144.6450 O   0  0  0  0  0  1  0  0  0  0  0  0
  186.4540  177.4200  140.3290 C   0  0  0  0  0  3  0  0  0  0  0  0
  186.9550  176.7650  141.3780 C   0  0  0  0  0  0  0  0  0  0  0  0
  190.5600  176.3630  144.9650 C   0  0  2  0  0  3  0  0  0  0  0  0
  186.5350  177.2140  147.3600 C   0  0  0  0  0  2  0  0  0  0  0  0
  184.4740  178.5660  147.1450 C   0  0  0  0  0  1  0  0  0  0  0  0
  185.9640  178.6180  147.4100 C   0  0  0  0  0  2  0  0  0  0  0  0
  1  5  1  1  0  0  0
  2 16  2  0  0  0  0
  3 17  1  0  0  0  0
  3 10  1  0  0  0  0
  4  1  1  0  0  0  0
  4 12  1  0  0  0  0
  5 11  1  0  0  0  0
  7 15  1  0  0  0  0
  7 27  1  0  0  0  0
  8  6  1  0  0  0  0
  9  7  1  0  0  0  0
 10 22  1  0  0  0  0
 11  8  1  0  0  0  0
 11 28  1  0  0  0  0
 12  8  1  0  0  0  0
 13  2  1  0  0  0  0
 14  9  1  0  0  0  0
 14 23  1  0  0  0  0
 17 26  1  0  0  0  0
 17 20  1  0  0  0  0
 18 13  2  0  0  0  0
 19  2  1  0  0  0  0
 19  1  1  0  0  0  0
 20  4  1  0  0  0  0
 21 10  2  0  0  0  0
 22 20  1  0  0  0  0
 22  9  1  0  0  0  0
 23 15  1  0  0  0  0
 24 27  1  0  0  0  0
 25 18  1  0  0  0  0
 25 26  2  0  0  0  0
 26 19  1  0  0  0  0
 27 12  1  0  0  0  0
 28 30  1  0  0  0  0
 29 30  1  0  0  0  0
M  END
>  <MODEL>
3

>  <REMARK>
 VINA RESULT:      -8.5      2.101      5.713
  Name = 
  2 active torsions:
  status: ('A' for Active; 'I' for Inactive)
    1  A    between atoms: C_11  and  C_28
    2  A    between atoms: C_28  and  C_30
                            x       y       z     vdW  Elec       q    Type
                         _______ _______ _______ _____ _____    ______ ____

>  <TORSDO>
F 2

$$$$
=
 OpenBabel11112416263D

 30 35  0  0  1  0  0  0  0  0999 V2000
  189.6760  175.6720  144.3260 C   0  0  2  0  0  3  0  0  0  0  0  0
  191.3930  175.1120  146.1400 C   0  0  0  0  0  0  0  0  0  0  0  0
  187.0930  176.8260  146.8380 N   0  0  0  0  0  2  0  0  0  0  0  0
  188.2490  176.0410  144.1200 N   0  0  2  0  0  0  0  0  0  0  0  0
  189.9660  174.4430  143.7090 O   0  0  0  0  0  0  0  0  0  0  0  0
  188.3910  174.9260  140.5300 O   0  0  0  0  0  1  0  0  0  0  0  0
  186.4360  178.0080  142.3630 C   0  0  2  0  0  3  0  0  0  0  0  0
  188.5040  174.7530  141.9140 C   0  0  1  0  0  3  0  0  0  0  0  0
  185.7630  177.3680  143.4910 N   0  0  2  0  0  0  0  0  0  0  0  0
  186.0250  177.0760  145.9430 C   0  0  0  0  0  0  0  0  0  0  0  0
  189.9560  174.6710  142.3330 C   0  0  2  0  0  3  0  0  0  0  0  0
  187.8330  175.9000  142.6860 C   0  0  2  0  0  3  0  0  0  0  0  0
  192.0760  175.6960  147.2550 N   0  0  0  0  0  0  0  0  0  0  0  0
  184.4410  177.9800  143.4840 C   0  0  0  0  0  2  0  0  0  0  0  0
  185.4030  178.1950  141.2820 C   0  0  0  0  0  2  0  0  0  0  0  0
  191.9640  174.2020  145.4830 O   0  0  0  0  0  0  0  0  0  0  0  0
  188.2660  177.4090  146.2070 C   0  0  2  0  0  3  0  0  0  0  0  0
  191.5640  176.6710  147.9400 C   0  0  0  0  0  3  0  0  0  0  0  0
  189.9610  175.5030  145.8290 C   0  0  1  0  0  3  0  0  0  0  0  0
  187.9850  177.3970  144.6960 C   0  0  2  0  0  3  0  0  0  0  0  0
  184.8290  176.7870  146.2120 O   0  0  0  0  0  0  0  0  0  0  0  0
  186.4790  177.7650  144.7040 C   0  0  1  0  0  3  0  0  0  0  0  0
  184.0990  178.3060  142.0400 C   0  0  0  0  0  2  0  0  0  0  0  0
  188.7940  177.9750  141.8870 O   0  0  0  0  0  1  0  0  0  0  0  0
  190.2590  177.2420  147.5820 C   0  0  0  0  0  3  0  0  0  0  0  0
  189.5320  176.7310  146.5850 C   0  0  0  0  0  0  0  0  0  0  0  0
  187.6370  177.1960  141.8730 C   0  0  2  0  0  3  0  0  0  0  0  0
  190.6480  173.5170  141.6270 C   0  0  0  0  0  2  0  0  0  0  0  0
  190.0700  171.1760  142.1850 C   0  0  0  0  0  1  0  0  0  0  0  0
  190.8890  172.3800  142.6010 C   0  0  0  0  0  2  0  0  0  0  0  0
  1  5  1  6  0  0  0
  1 19  1  0  0  0  0
  2 13  1  0  0  0  0
  4  1  1  0  0  0  0
  4 20  1  0  0  0  0
  6  8  1  0  0  0  0
  7  9  1  0  0  0  0
  8 11  1  0  0  0  0
  8 12  1  0  0  0  0
  9 22  1  0  0  0  0
 10 21  2  0  0  0  0
 10  3  1  0  0  0  0
 11  5  1  0  0  0  0
 12  4  1  0  0  0  0
 13 18  2  0  0  0  0
 14  9  1  0  0  0  0
 15 23  1  0  0  0  0
 15  7  1  0  0  0  0
 16  2  2  0  0  0  0
 17 26  1  0  0  0  0
 17  3  1  0  0  0  0
 19  2  1  0  0  0  0
 19 26  1  0  0  0  0
 20 22  1  0  0  0  0
 20 17  1  0  0  0  0
 22 10  1  0  0  0  0
 23 14  1  0  0  0  0
 25 18  1  0  0  0  0
 26 25  2  0  0  0  0
 27 24  1  0  0  0  0
 27  7  1  0  0  0  0
 27 12  1  0  0  0  0
 28 11  1  0  0  0  0
 28 30  1  0  0  0  0
 29 30  1  0  0  0  0
M  END
>  <MODEL>
4

>  <REMARK>
 VINA RESULT:      -8.4      1.927      4.698
  Name = 
  2 active torsions:
  status: ('A' for Active; 'I' for Inactive)
    1  A    between atoms: C_11  and  C_28
    2  A    between atoms: C_28  and  C_30
                            x       y       z     vdW  Elec       q    Type
                         _______ _______ _______ _____ _____    ______ ____

>  <TORSDO>
F 2

$$$$
=
 OpenBabel11112416263D

 30 35  0  0  1  0  0  0  0  0999 V2000
  190.1920  175.6920  144.1270 C   0  0  2  0  0  3  0  0  0  0  0  0
  191.3130  174.4740  142.1740 C   0  0  0  0  0  0  0  0  0  0  0  0
  187.4430  177.0960  141.9400 N   0  0  0  0  0  2  0  0  0  0  0  0
  189.1400  176.6940  144.4500 N   0  0  2  0  0  0  0  0  0  0  0  0
  191.4580  176.1520  144.5320 O   0  0  0  0  0  0  0  0  0  0  0  0
  190.6890  177.3610  147.8120 O   0  0  0  0  0  1  0  0  0  0  0  0
  186.8000  177.2200  146.5690 C   0  0  2  0  0  3  0  0  0  0  0  0
  190.6790  177.2930  146.4150 C   0  0  1  0  0  3  0  0  0  0  0  0
  186.7850  178.0770  145.3860 N   0  0  2  0  0  0  0  0  0  0  0  0
  186.7900  177.8960  142.9090 C   0  0  0  0  0  0  0  0  0  0  0  0
  191.4760  176.1040  145.9250 C   0  0  2  0  0  3  0  0  0  0  0  0
  189.2490  177.1890  145.8610 C   0  0  2  0  0  3  0  0  0  0  0  0
  191.0350  173.5280  141.1350 N   0  0  0  0  0  0  0  0  0  0  0  0
  185.5590  178.8480  145.5450 C   0  0  0  0  0  2  0  0  0  0  0  0
  186.2480  178.0360  147.7100 C   0  0  0  0  0  2  0  0  0  0  0  0
  192.4760  174.5260  142.6560 O   0  0  0  0  0  0  0  0  0  0  0  0
  187.7010  175.8280  142.6020 C   0  0  2  0  0  3  0  0  0  0  0  0
  189.8470  173.3890  140.6340 C   0  0  0  0  0  3  0  0  0  0  0  0
  190.2560  175.4720  142.6050 C   0  0  1  0  0  3  0  0  0  0  0  0
  187.7910  176.1450  144.1040 C   0  0  2  0  0  3  0  0  0  0  0  0
  186.3320  179.0410  142.6500 O   0  0  0  0  0  0  0  0  0  0  0  0
  186.6620  177.2010  144.2190 C   0  0  1  0  0  3  0  0  0  0  0  0
  185.3260  179.0270  147.0360 C   0  0  0  0  0  2  0  0  0  0  0  0
  188.1910  175.2910  146.9310 O   0  0  0  0  0  1  0  0  0  0  0  0
  188.7180  174.1860  141.1330 C   0  0  0  0  0  3  0  0  0  0  0  0
  188.8940  175.1210  142.0680 C   0  0  0  0  0  0  0  0  0  0  0  0
  188.2010  176.6850  146.8740 C   0  0  2  0  0  3  0  0  0  0  0  0
  192.9130  176.1910  146.4120 C   0  0  0  0  0  2  0  0  0  0  0  0
  195.1160  175.2710  145.7630 C   0  0  0  0  0  1  0  0  0  0  0  0
  193.6670  174.9300  146.0390 C   0  0  0  0  0  2  0  0  0  0  0  0
  1  4  1  0  0  0  0
  1  5  1  6  0  0  0
  2 19  1  0  0  0  0
  2 16  2  0  0  0  0
  3 17  1  0  0  0  0
  3 10  1  0  0  0  0
  4 12  1  0  0  0  0
  5 11  1  0  0  0  0
  7 27  1  0  0  0  0
  7 15  1  0  0  0  0
  8  6  1  0  0  0  0
  9 14  1  0  0  0  0
  9  7  1  0  0  0  0
 10 22  1  0  0  0  0
 11 28  1  0  0  0  0
 11  8  1  0  0  0  0
 12  8  1  0  0  0  0
 12 27  1  0  0  0  0
 13  2  1  0  0  0  0
 14 23  1  0  0  0  0
 17 20  1  0  0  0  0
 18 25  1  0  0  0  0
 18 13  2  0  0  0  0
 19  1  1  0  0  0  0
 20 22  1  0  0  0  0
 20  4  1  0  0  0  0
 21 10  2  0  0  0  0
 22  9  1  0  0  0  0
 23 15  1  0  0  0  0
 25 26  2  0  0  0  0
 26 17  1  0  0  0  0
 26 19  1  0  0  0  0
 27 24  1  0  0  0  0
 29 30  1  0  0  0  0
 30 28  1  0  0  0  0
M  END
>  <MODEL>
5

>  <REMARK>
 VINA RESULT:      -8.3      1.532      1.787
  Name = 
  2 active torsions:
  status: ('A' for Active; 'I' for Inactive)
    1  A    between atoms: C_11  and  C_28
    2  A    between atoms: C_28  and  C_30
                            x       y       z     vdW  Elec       q    Type
                         _______ _______ _______ _____ _____    ______ ____

>  <TORSDO>
F 2

$$$$
=
 OpenBabel11112416263D

 30 35  0  0  1  0  0  0  0  0999 V2000
  187.8360  176.1070  144.0960 C   0  0  2  0  0  3  0  0  0  0  0  0
  185.8220  177.5370  144.7680 C   0  0  0  0  0  0  0  0  0  0  0  0
  189.7490  176.9540  147.2480 N   0  0  0  0  0  2  0  0  0  0  0  0
  189.2450  175.8000  144.4630 N   0  0  2  0  0  0  0  0  0  0  0  0
  187.7680  176.6650  142.8070 O   0  0  0  0  0  0  0  0  0  0  0  0
  189.9340  174.4410  141.0240 O   0  0  0  0  0  1  0  0  0  0  0  0
  191.2410  173.3120  144.7250 C   0  0  2  0  0  3  0  0  0  0  0  0
  189.5470  175.4240  141.9420 C   0  0  1  0  0  3  0  0  0  0  0  0
  191.7070  174.5610  145.3220 N   0  0  2  0  0  0  0  0  0  0  0  0
  190.9600  176.2860  146.9460 C   0  0  0  0  0  0  0  0  0  0  0  0
  188.0500  175.6370  141.9090 C   0  0  2  0  0  3  0  0  0  0  0  0
  189.9600  175.0550  143.3750 C   0  0  2  0  0  3  0  0  0  0  0  0
  184.8810  177.7180  145.8330 N   0  0  0  0  0  0  0  0  0  0  0  0
  192.9550  174.1800  145.9700 C   0  0  0  0  0  2  0  0  0  0  0  0
  192.4620  172.5770  144.2350 C   0  0  0  0  0  2  0  0  0  0  0  0
  185.4660  177.7990  143.5890 O   0  0  0  0  0  0  0  0  0  0  0  0
  188.6960  176.0190  146.8890 C   0  0  2  0  0  3  0  0  0  0  0  0
  185.1690  177.4180  147.0610 C   0  0  0  0  0  3  0  0  0  0  0  0
  187.2550  177.1470  145.0710 C   0  0  1  0  0  3  0  0  0  0  0  0
  189.2870  175.1160  145.7940 C   0  0  2  0  0  3  0  0  0  0  0  0
  192.0910  176.7700  147.2180 O   0  0  0  0  0  0  0  0  0  0  0  0
  190.7280  174.9470  146.3400 C   0  0  1  0  0  3  0  0  0  0  0  0
  193.5680  173.0570  145.1490 C   0  0  0  0  0  2  0  0  0  0  0  0
  189.0430  172.8650  143.8560 O   0  0  0  0  0  1  0  0  0  0  0  0
  186.4770  176.8480  147.4140 C   0  0  0  0  0  3  0  0  0  0  0  0
  187.4290  176.6870  146.4930 C   0  0  0  0  0  0  0  0  0  0  0  0
  190.2300  173.5530  143.6020 C   0  0  2  0  0  3  0  0  0  0  0  0
  187.6030  176.0510  140.5160 C   0  0  0  0  0  2  0  0  0  0  0  0
  185.7830  177.6650  140.0680 C   0  0  0  0  0  1  0  0  0  0  0  0
  187.2260  177.5190  140.5050 C   0  0  0  0  0  2  0  0  0  0  0  0
  1  5  1  6  0  0  0
  1  4  1  0  0  0  0
  1 19  1  0  0  0  0
  2 19  1  0  0  0  0
  2 13  1  0  0  0  0
  4 20  1  0  0  0  0
  6  8  1  0  0  0  0
  7  9  1  0  0  0  0
  8 12  1  0  0  0  0
  9 14  1  0  0  0  0
  9 22  1  0  0  0  0
 10 21  2  0  0  0  0
 10  3  1  0  0  0  0
 11  8  1  0  0  0  0
 11  5  1  0  0  0  0
 12 27  1  0  0  0  0
 12  4  1  0  0  0  0
 13 18  2  0  0  0  0
 15  7  1  0  0  0  0
 15 23  1  0  0  0  0
 16  2  2  0  0  0  0
 17  3  1  0  0  0  0
 18 25  1  0  0  0  0
 19 26  1  0  0  0  0
 20 22  1  0  0  0  0
 20 17  1  0  0  0  0
 22 10  1  0  0  0  0
 23 14  1  0  0  0  0
 26 17  1  0  0  0  0
 26 25  2  0  0  0  0
 27 24  1  0  0  0  0
 27  7  1  0  0  0  0
 28 11  1  0  0  0  0
 29 30  1  0  0  0  0
 30 28  1  0  0  0  0
M  END
>  <MODEL>
6

>  <REMARK>
 VINA RESULT:      -7.7      2.113      6.785
  Name = 
  2 active torsions:
  status: ('A' for Active; 'I' for Inactive)
    1  A    between atoms: C_11  and  C_28
    2  A    between atoms: C_28  and  C_30
                            x       y       z     vdW  Elec       q    Type
                         _______ _______ _______ _____ _____    ______ ____

>  <TORSDO>
F 2

$$$$
=
 OpenBabel11112416263D

 30 35  0  0  1  0  0  0  0  0999 V2000
  189.0380  176.7200  145.1470 C   0  0  2  0  0  3  0  0  0  0  0  0
  186.9400  177.8600  146.0700 C   0  0  0  0  0  0  0  0  0  0  0  0
  187.1230  174.9610  142.3990 N   0  0  0  0  0  2  0  0  0  0  0  0
  189.4940  175.6750  144.1910 N   0  0  2  0  0  0  0  0  0  0  0  0
  189.4010  176.3830  146.4630 O   0  0  0  0  0  0  0  0  0  0  0  0
  192.8010  175.3800  145.9600 O   0  0  0  0  0  1  0  0  0  0  0  0
  191.7790  175.1500  142.0120 C   0  0  2  0  0  3  0  0  0  0  0  0
  191.4050  175.3390  145.8720 C   0  0  1  0  0  3  0  0  0  0  0  0
  190.6640  174.2050  141.9980 N   0  0  2  0  0  0  0  0  0  0  0  0
  188.1850  174.1940  141.8600 C   0  0  0  0  0  0  0  0  0  0  0  0
  190.7840  176.5400  146.5510 C   0  0  2  0  0  3  0  0  0  0  0  0
  190.9290  175.2980  144.4110 C   0  0  2  0  0  3  0  0  0  0  0  0
  185.8520  178.7000  145.6670 N   0  0  0  0  0  0  0  0  0  0  0  0
  190.9510  173.3640  140.8440 C   0  0  0  0  0  2  0  0  0  0  0  0
  193.0060  174.3880  141.5830 C   0  0  0  0  0  2  0  0  0  0  0  0
  187.3550  177.9270  147.2570 O   0  0  0  0  0  0  0  0  0  0  0  0
  187.6750  176.2910  142.5970 C   0  0  2  0  0  3  0  0  0  0  0  0
  185.4110  178.7160  144.4470 C   0  0  0  0  0  3  0  0  0  0  0  0
  187.5030  176.8260  145.1140 C   0  0  1  0  0  3  0  0  0  0  0  0
  189.1880  176.0990  142.7890 C   0  0  2  0  0  3  0  0  0  0  0  0
  188.0380  173.0030  141.4760 O   0  0  0  0  0  0  0  0  0  0  0  0
  189.4460  174.9770  141.7490 C   0  0  1  0  0  3  0  0  0  0  0  0
  192.4620  173.2850  140.7030 C   0  0  0  0  0  2  0  0  0  0  0  0
  191.9170  177.1950  143.2720 O   0  0  0  0  0  1  0  0  0  0  0  0
  186.0330  177.8830  143.4090 C   0  0  0  0  0  3  0  0  0  0  0  0
  187.0220  177.0370  143.7030 C   0  0  0  0  0  0  0  0  0  0  0  0
  191.9620  175.8040  143.3830 C   0  0  2  0  0  3  0  0  0  0  0  0
  191.1910  176.5920  148.0140 C   0  0  0  0  0  2  0  0  0  0  0  0
  191.5660  178.1570  149.8930 C   0  0  0  0  0  1  0  0  0  0  0  0
  190.7760  177.9160  148.6240 C   0  0  0  0  0  2  0  0  0  0  0  0
  1  5  1  1  0  0  0
  2 16  2  0  0  0  0
  3 17  1  0  0  0  0
  4 12  1  0  0  0  0
  4  1  1  0  0  0  0
  5 11  1  0  0  0  0
  7 27  1  0  0  0  0
  8  6  1  0  0  0  0
  8 11  1  0  0  0  0
  9  7  1  0  0  0  0
 10  3  1  0  0  0  0
 11 28  1  0  0  0  0
 12  8  1  0  0  0  0
 13  2  1  0  0  0  0
 14  9  1  0  0  0  0
 15  7  1  0  0  0  0
 17 20  1  0  0  0  0
 17 26  1  0  0  0  0
 18 13  2  0  0  0  0
 19  1  1  0  0  0  0
 19  2  1  0  0  0  0
 20  4  1  0  0  0  0
 21 10  2  0  0  0  0
 22 10  1  0  0  0  0
 22  9  1  0  0  0  0
 22 20  1  0  0  0  0
 23 14  1  0  0  0  0
 23 15  1  0  0  0  0
 24 27  1  0  0  0  0
 25 26  2  0  0  0  0
 25 18  1  0  0  0  0
 26 19  1  0  0  0  0
 27 12  1  0  0  0  0
 28 30  1  0  0  0  0
 30 29  1  0  0  0  0
M  END
>  <MODEL>
7

>  <REMARK>
 VINA RESULT:      -7.4      2.123      5.333
  Name = 
  2 active torsions:
  status: ('A' for Active; 'I' for Inactive)
    1  A    between atoms: C_11  and  C_28
    2  A    between atoms: C_28  and  C_30
                            x       y       z     vdW  Elec       q    Type
                         _______ _______ _______ _____ _____    ______ ____

>  <TORSDO>
F 2

$$$$
=
 OpenBabel11112416263D

 30 35  0  0  1  0  0  0  0  0999 V2000
  188.5060  175.2320  143.0290 C   0  0  2  0  0  3  0  0  0  0  0  0
  186.4680  176.7780  143.1320 C   0  0  0  0  0  0  0  0  0  0  0  0
  190.1320  176.8380  146.0440 N   0  0  0  0  0  2  0  0  0  0  0  0
  189.8680  175.0290  143.5940 N   0  0  2  0  0  0  0  0  0  0  0  0
  188.5710  175.4540  141.6420 O   0  0  0  0  0  0  0  0  0  0  0  0
  190.8480  172.8650  140.6780 O   0  0  0  0  0  1  0  0  0  0  0  0
  191.7790  172.6900  144.6510 C   0  0  2  0  0  3  0  0  0  0  0  0
  190.3970  174.0430  141.2840 C   0  0  1  0  0  3  0  0  0  0  0  0
  192.2130  174.0490  144.9640 N   0  0  2  0  0  0  0  0  0  0  0  0
  191.3520  176.1200  146.0330 C   0  0  0  0  0  0  0  0  0  0  0  0
  188.9140  174.2360  141.0560 C   0  0  2  0  0  3  0  0  0  0  0  0
  190.6660  174.0410  142.7970 C   0  0  2  0  0  3  0  0  0  0  0  0
  185.4350  177.2130  144.0240 N   0  0  0  0  0  0  0  0  0  0  0  0
  193.3860  173.8430  145.8020 C   0  0  0  0  0  2  0  0  0  0  0  0
  193.0250  171.8600  144.4770 C   0  0  0  0  0  2  0  0  0  0  0  0
  186.2300  176.7390  141.8960 O   0  0  0  0  0  0  0  0  0  0  0  0
  189.0990  175.8390  145.8270 C   0  0  2  0  0  3  0  0  0  0  0  0
  185.6000  177.2270  145.3100 C   0  0  0  0  0  3  0  0  0  0  0  0
  187.8590  176.4790  143.6570 C   0  0  1  0  0  3  0  0  0  0  0  0
  189.7710  174.6960  145.0500 C   0  0  2  0  0  3  0  0  0  0  0  0
  192.4630  176.6590  146.2850 O   0  0  0  0  0  0  0  0  0  0  0  0
  191.1500  174.6710  145.7570 C   0  0  1  0  0  3  0  0  0  0  0  0
  194.0500  172.5550  145.3460 C   0  0  0  0  0  2  0  0  0  0  0  0
  189.6630  172.0350  143.7120 O   0  0  0  0  0  1  0  0  0  0  0  0
  186.8580  176.7660  145.9160 C   0  0  0  0  0  3  0  0  0  0  0  0
  187.8890  176.3850  145.1590 C   0  0  0  0  0  0  0  0  0  0  0  0
  190.8820  172.6430  143.4120 C   0  0  2  0  0  3  0  0  0  0  0  0
  188.6090  174.2920  139.5680 C   0  0  0  0  0  2  0  0  0  0  0  0
  188.9010  172.6020  137.7840 C   0  0  0  0  0  1  0  0  0  0  0  0
  188.1760  172.9250  139.0740 C   0  0  0  0  0  2  0  0  0  0  0  0
  1  5  1  6  0  0  0
  1  4  1  0  0  0  0
  1 19  1  0  0  0  0
  2 19  1  0  0  0  0
  2 13  1  0  0  0  0
  4 20  1  0  0  0  0
  6  8  1  0  0  0  0
  7  9  1  0  0  0  0
  8 12  1  0  0  0  0
  9 22  1  0  0  0  0
  9 14  1  0  0  0  0
 10  3  1  0  0  0  0
 10 21  2  0  0  0  0
 11  8  1  0  0  0  0
 11  5  1  0  0  0  0
 12 27  1  0  0  0  0
 12  4  1  0  0  0  0
 13 18  2  0  0  0  0
 15  7  1  0  0  0  0
 15 23  1  0  0  0  0
 16  2  2  0  0  0  0
 17  3  1  0  0  0  0
 18 25  1  0  0  0  0
 19 26  1  0  0  0  0
 20 22  1  0  0  0  0
 20 17  1  0  0  0  0
 22 10  1  0  0  0  0
 23 14  1  0  0  0  0
 26 17  1  0  0  0  0
 26 25  2  0  0  0  0
 27 24  1  0  0  0  0
 27  7  1  0  0  0  0
 28 11  1  0  0  0  0
 29 30  1  0  0  0  0
 30 28  1  0  0  0  0
M  END
>  <MODEL>
8

>  <REMARK>
 VINA RESULT:      -7.2      2.163      6.874
  Name = 
  2 active torsions:
  status: ('A' for Active; 'I' for Inactive)
    1  A    between atoms: C_11  and  C_28
    2  A    between atoms: C_28  and  C_30
                            x       y       z     vdW  Elec       q    Type
                         _______ _______ _______ _____ _____    ______ ____

>  <TORSDO>
F 2

$$$$
=
 OpenBabel11112416263D

 30 35  0  0  1  0  0  0  0  0999 V2000
  191.6760  175.0060  142.8940 C   0  0  2  0  0  3  0  0  0  0  0  0
  194.0880  174.3210  142.3750 C   0  0  0  0  0  0  0  0  0  0  0  0
  192.5310  176.1170  146.4080 N   0  0  0  0  0  2  0  0  0  0  0  0
  190.7760  175.4220  144.0040 N   0  0  2  0  0  0  0  0  0  0  0  0
  191.2380  173.7980  142.3240 O   0  0  0  0  0  0  0  0  0  0  0  0
  187.7340  174.4620  142.0100 O   0  0  0  0  0  1  0  0  0  0  0  0
  188.4360  177.5120  144.6350 C   0  0  2  0  0  3  0  0  0  0  0  0
  188.9630  174.2260  142.6360 C   0  0  1  0  0  3  0  0  0  0  0  0
  189.0140  176.8410  145.7970 N   0  0  2  0  0  0  0  0  0  0  0  0
  191.2250  176.4350  146.8520 C   0  0  0  0  0  0  0  0  0  0  0  0
  190.0720  174.0870  141.6160 C   0  0  2  0  0  3  0  0  0  0  0  0
  189.3300  175.3550  143.6110 C   0  0  2  0  0  3  0  0  0  0  0  0
  195.4230  174.8370  142.3730 N   0  0  0  0  0  0  0  0  0  0  0  0
  188.3510  177.4870  146.9220 C   0  0  0  0  0  2  0  0  0  0  0  0
  186.9860  177.7730  144.9530 C   0  0  0  0  0  2  0  0  0  0  0  0
  193.7780  173.4260  141.5450 O   0  0  0  0  0  0  0  0  0  0  0  0
  192.6340  176.6960  145.0790 C   0  0  2  0  0  3  0  0  0  0  0  0
  195.7910  175.7940  143.1670 C   0  0  0  0  0  3  0  0  0  0  0  0
  193.0970  174.7640  143.4340 C   0  0  1  0  0  3  0  0  0  0  0  0
  191.1990  176.7570  144.5300 C   0  0  2  0  0  3  0  0  0  0  0  0
  190.8160  176.1660  148.0130 O   0  0  0  0  0  0  0  0  0  0  0  0
  190.4410  177.1660  145.8190 C   0  0  1  0  0  3  0  0  0  0  0  0
  186.9590  177.8860  146.4610 C   0  0  0  0  0  2  0  0  0  0  0  0
  189.2570  177.4360  142.3740 O   0  0  0  0  0  1  0  0  0  0  0  0
  194.8350  176.4160  144.0950 C   0  0  0  0  0  3  0  0  0  0  0  0
  193.5810  175.9690  144.1950 C   0  0  0  0  0  0  0  0  0  0  0  0
  188.6020  176.6900  143.3550 C   0  0  2  0  0  3  0  0  0  0  0  0
  189.7720  172.9470  140.6570 C   0  0  0  0  0  2  0  0  0  0  0  0
  188.5660  173.7520  138.6520 C   0  0  0  0  0  1  0  0  0  0  0  0
  189.9280  173.4160  139.2240 C   0  0  0  0  0  2  0  0  0  0  0  0
  1  5  1  1  0  0  0
  1 19  1  0  0  0  0
  1  4  1  0  0  0  0
  2 19  1  0  0  0  0
  3 10  1  0  0  0  0
  4 20  1  0  0  0  0
  6  8  1  0  0  0  0
  7 15  1  0  0  0  0
  7  9  1  0  0  0  0
  8 12  1  0  0  0  0
  9 22  1  0  0  0  0
  9 14  1  0  0  0  0
 10 21  2  0  0  0  0
 11  5  1  0  0  0  0
 11  8  1  0  0  0  0
 12  4  1  0  0  0  0
 13  2  1  0  0  0  0
 13 18  2  0  0  0  0
 15 23  1  0  0  0  0
 16  2  2  0  0  0  0
 17  3  1  0  0  0  0
 18 25  1  0  0  0  0
 19 26  1  0  0  0  0
 20 17  1  0  0  0  0
 20 22  1  0  0  0  0
 22 10  1  0  0  0  0
 23 14  1  0  0  0  0
 24 27  1  0  0  0  0
 25 26  2  0  0  0  0
 26 17  1  0  0  0  0
 27 12  1  0  0  0  0
 27  7  1  0  0  0  0
 28 11  1  0  0  0  0
 29 30  1  0  0  0  0
 30 28  1  0  0  0  0
M  END
>  <MODEL>
9

>  <REMARK>
 VINA RESULT:      -7.0      2.574      5.385
  Name = 
  2 active torsions:
  status: ('A' for Active; 'I' for Inactive)
    1  A    between atoms: C_11  and  C_28
    2  A    between atoms: C_28  and  C_30
                            x       y       z     vdW  Elec       q    Type
                         _______ _______ _______ _____ _____    ______ ____

>  <TORSDO>
F 2

$$$$
