=
 OpenBabel11112417033D

 31 35  0  0  1  0  0  0  0  0999 V2000
  195.5990  175.4690  144.4410 C   0  0  0  0  0  0  0  0  0  0  0  0
  192.1670  176.4350  143.1270 C   0  0  2  0  0  3  0  0  0  0  0  0
  191.3470  175.2650  142.6200 C   0  0  0  0  0  0  0  0  0  0  0  0
  191.1540  172.9670  141.8920 C   0  0  0  0  0  0  0  0  0  0  0  0
  193.2770  176.0340  144.0570 C   0  0  0  0  0  0  0  0  0  0  0  0
  195.3320  175.2940  145.8020 C   0  0  0  0  0  3  0  0  0  0  0  0
  191.9290  174.0090  142.4030 C   0  0  0  0  0  3  0  0  0  0  0  0
  190.8540  177.1860  145.2680 C   0  0  1  0  0  3  0  0  0  0  0  0
  196.8850  175.2760  143.9560 O   0  0  0  0  0  1  0  0  0  0  0  0
  189.3730  176.7340  142.4550 N   0  0  0  0  0  2  0  0  0  0  0  0
  191.7080  171.7490  141.6910 F   0  0  0  0  0  0  0  0  0  0  0  0
  191.6130  176.0200  145.9300 C   0  0  0  0  0  2  0  0  0  0  0  0
  191.2830  177.5040  143.8010 C   0  0  2  0  0  3  0  0  0  0  0  0
  194.5720  175.8380  143.5670 C   0  0  0  0  0  3  0  0  0  0  0  0
  189.8440  173.1750  141.5910 N   0  0  0  0  0  0  0  0  0  0  0  0
  193.0110  175.8700  145.4240 C   0  0  0  0  0  0  0  0  0  0  0  0
  194.0370  175.4890  146.2940 C   0  0  0  0  0  3  0  0  0  0  0  0
  190.1370  177.9100  142.8660 C   0  0  0  0  0  2  0  0  0  0  0  0
  189.9980  175.4610  142.2680 C   0  0  0  0  0  0  0  0  0  0  0  0
  189.2570  174.3890  141.7660 C   0  0  0  0  0  3  0  0  0  0  0  0
  189.1760  177.9740  147.4640 O   0  0  0  0  0  0  0  0  0  0  0  0
  188.6420  177.3440  146.5130 C   0  0  0  0  0  0  0  0  0  0  0  0
  189.4200  176.9480  145.3800 N   0  0  0  0  0  2  0  0  0  0  0  0
  185.5990  178.8530  145.0080 C   0  0  0  0  0  0  0  0  0  0  0  0
  186.6430  176.5940  145.2120 C   0  0  0  0  0  2  0  0  0  0  0  0
  186.3840  178.3270  148.4010 O   0  0  0  0  0  0  0  0  0  0  0  0
  184.7890  179.7920  144.1900 C   0  0  0  0  0  1  0  0  0  0  0  0
  186.4350  177.8150  144.3150 C   0  0  0  0  0  2  0  0  0  0  0  0
  186.3830  178.1270  147.1590 C   0  0  0  0  0  0  0  0  0  0  0  0
  187.1880  176.9970  146.5840 C   0  0  2  0  0  3  0  0  0  0  0  0
  185.6250  178.9910  146.3010 N   0  0  0  0  0  0  0  0  0  0  0  0
  1  6  1  0  0  0  0
  2  3  1  1  0  0  0
  2 13  1  0  0  0  0
  2  5  1  0  0  0  0
  4  7  2  0  0  0  0
  5 16  2  0  0  0  0
  6 17  2  0  0  0  0
  7  3  1  0  0  0  0
  8 23  1  6  0  0  0
  8 12  1  0  0  0  0
  9  1  1  0  0  0  0
 10 18  1  0  0  0  0
 11  4  1  0  0  0  0
 13 18  1  6  0  0  0
 13  8  1  0  0  0  0
 14  5  1  0  0  0  0
 14  1  2  0  0  0  0
 15 20  2  0  0  0  0
 15  4  1  0  0  0  0
 16 12  1  0  0  0  0
 16 17  1  0  0  0  0
 19 10  1  0  0  0  0
 19  3  2  0  0  0  0
 20 19  1  0  0  0  0
 22 21  2  0  0  0  0
 23 22  1  0  0  0  0
 24 31  2  0  0  0  0
 25 30  1  0  0  0  0
 27 24  1  0  0  0  0
 28 24  1  0  0  0  0
 28 25  1  0  0  0  0
 29 26  2  0  0  0  0
 30 22  1  6  0  0  0
 30 29  1  0  0  0  0
 31 29  1  0  0  0  0
M  END
>  <MODEL>
1

>  <REMARK>
 VINA RESULT:      -8.7      0.000      0.000
  Name = 
  2 active torsions:
  status: ('A' for Active; 'I' for Inactive)
    1  A    between atoms: C_5  and  C_30
    2  A    between atoms: C_10  and  N_16
                            x       y       z     vdW  Elec       q    Type
                         _______ _______ _______ _____ _____    ______ ____

>  <TORSDO>
F 2

$$$$
=
 OpenBabel11112417033D

 31 35  0  0  1  0  0  0  0  0999 V2000
  186.4680  178.1650  146.9710 C   0  0  0  0  0  0  0  0  0  0  0  0
  189.7010  177.6580  145.0390 C   0  0  2  0  0  3  0  0  0  0  0  0
  190.6700  176.6950  145.6960 C   0  0  0  0  0  0  0  0  0  0  0  0
  191.4270  175.4210  147.6070 C   0  0  0  0  0  0  0  0  0  0  0  0
  188.2840  177.5040  145.5130 C   0  0  0  0  0  0  0  0  0  0  0  0
  185.6410  177.2060  146.3780 C   0  0  0  0  0  3  0  0  0  0  0  0
  190.4900  176.2730  147.0200 C   0  0  0  0  0  3  0  0  0  0  0  0
  188.9580  176.3630  142.8850 C   0  0  1  0  0  3  0  0  0  0  0  0
  185.9770  178.9710  147.9890 O   0  0  0  0  0  1  0  0  0  0  0  0
  192.0550  176.7140  143.6560 N   0  0  0  0  0  2  0  0  0  0  0  0
  191.2520  175.0010  148.8820 F   0  0  0  0  0  0  0  0  0  0  0  0
  188.0030  175.6450  143.8570 C   0  0  0  0  0  2  0  0  0  0  0  0
  189.7510  177.5590  143.5010 C   0  0  2  0  0  3  0  0  0  0  0  0
  187.7900  178.3140  146.5400 C   0  0  0  0  0  3  0  0  0  0  0  0
  192.5170  175.0170  146.9030 N   0  0  0  0  0  0  0  0  0  0  0  0
  187.4510  176.5490  144.9100 C   0  0  0  0  0  0  0  0  0  0  0  0
  186.1340  176.3940  145.3520 C   0  0  0  0  0  3  0  0  0  0  0  0
  191.1950  177.7010  143.0070 C   0  0  0  0  0  2  0  0  0  0  0  0
  191.8250  176.2870  145.0020 C   0  0  0  0  0  0  0  0  0  0  0  0
  192.7340  175.4300  145.6260 C   0  0  0  0  0  3  0  0  0  0  0  0
  188.3390  174.7280  140.6030 O   0  0  0  0  0  0  0  0  0  0  0  0
  189.4660  174.5780  141.1460 C   0  0  0  0  0  0  0  0  0  0  0  0
  189.8420  175.3810  142.2680 N   0  0  0  0  0  2  0  0  0  0  0  0
  191.4600  171.9020  142.7770 C   0  0  0  0  0  0  0  0  0  0  0  0
  189.8690  172.1260  140.8670 C   0  0  0  0  0  2  0  0  0  0  0  0
  192.5470  174.5870  140.7740 O   0  0  0  0  0  0  0  0  0  0  0  0
  191.9870  171.0560  143.8790 C   0  0  0  0  0  1  0  0  0  0  0  0
  190.0380  171.7160  142.3310 C   0  0  0  0  0  2  0  0  0  0  0  0
  191.7770  173.6910  141.2070 C   0  0  0  0  0  0  0  0  0  0  0  0
  190.4050  173.5380  140.6180 C   0  0  2  0  0  3  0  0  0  0  0  0
  192.2140  172.8330  142.2700 N   0  0  0  0  0  0  0  0  0  0  0  0
  1  9  1  0  0  0  0
  2  5  1  1  0  0  0
  2  3  1  0  0  0  0
  3  7  1  0  0  0  0
  4 11  1  0  0  0  0
  5 14  2  0  0  0  0
  6  1  2  0  0  0  0
  7  4  2  0  0  0  0
  8 23  1  1  0  0  0
  8 13  1  0  0  0  0
  8 12  1  0  0  0  0
 10 19  1  0  0  0  0
 12 16  1  0  0  0  0
 13 18  1  1  0  0  0
 13  2  1  0  0  0  0
 14  1  1  0  0  0  0
 15  4  1  0  0  0  0
 16 17  2  0  0  0  0
 16  5  1  0  0  0  0
 17  6  1  0  0  0  0
 18 10  1  0  0  0  0
 19 20  1  0  0  0  0
 19  3  2  0  0  0  0
 20 15  2  0  0  0  0
 21 22  2  0  0  0  0
 22 23  1  0  0  0  0
 24 27  1  0  0  0  0
 25 28  1  0  0  0  0
 26 29  2  0  0  0  0
 28 24  1  0  0  0  0
 29 31  1  0  0  0  0
 30 25  1  0  0  0  0
 30 22  1  1  0  0  0
 30 29  1  0  0  0  0
 31 24  2  0  0  0  0
M  END
>  <MODEL>
2

>  <REMARK>
 VINA RESULT:      -8.1      2.767      7.134
  Name = 
  2 active torsions:
  status: ('A' for Active; 'I' for Inactive)
    1  A    between atoms: C_5  and  C_30
    2  A    between atoms: C_10  and  N_16
                            x       y       z     vdW  Elec       q    Type
                         _______ _______ _______ _____ _____    ______ ____

>  <TORSDO>
F 2

$$$$
=
 OpenBabel11112417033D

 31 35  0  0  1  0  0  0  0  0999 V2000
  196.5000  170.4760  145.8480 C   0  0  0  0  0  0  0  0  0  0  0  0
  195.7020  174.1810  145.5610 C   0  0  2  0  0  3  0  0  0  0  0  0
  196.0490  174.7850  144.2140 C   0  0  0  0  0  0  0  0  0  0  0  0
  197.1820  174.7020  142.0800 C   0  0  0  0  0  0  0  0  0  0  0  0
  195.5620  172.6860  145.5310 C   0  0  0  0  0  0  0  0  0  0  0  0
  195.2810  169.9040  145.4750 C   0  0  0  0  0  3  0  0  0  0  0  0
  196.8450  174.0950  143.2910 C   0  0  0  0  0  3  0  0  0  0  0  0
  193.0840  174.2710  145.5870 C   0  0  1  0  0  3  0  0  0  0  0  0
  197.5720  169.6640  146.1920 O   0  0  0  0  0  1  0  0  0  0  0  0
  194.8510  176.8470  144.8450 N   0  0  0  0  0  2  0  0  0  0  0  0
  197.9400  174.0350  141.1780 F   0  0  0  0  0  0  0  0  0  0  0  0
  193.2040  172.9890  144.7410 C   0  0  0  0  0  2  0  0  0  0  0  0
  194.4310  174.8130  146.1610 C   0  0  2  0  0  3  0  0  0  0  0  0
  196.6430  171.8670  145.8750 C   0  0  0  0  0  3  0  0  0  0  0  0
  196.7530  175.9630  141.8050 N   0  0  0  0  0  0  0  0  0  0  0  0
  194.3350  172.1120  145.1680 C   0  0  0  0  0  0  0  0  0  0  0  0
  194.1990  170.7200  145.1290 C   0  0  0  0  0  3  0  0  0  0  0  0
  194.5580  176.3400  146.1840 C   0  0  0  0  0  2  0  0  0  0  0  0
  195.6470  176.1020  143.9180 C   0  0  0  0  0  0  0  0  0  0  0  0
  196.0010  176.6680  142.6920 C   0  0  0  0  0  3  0  0  0  0  0  0
  190.2290  174.5040  145.3400 O   0  0  0  0  0  0  0  0  0  0  0  0
  190.9430  175.3340  144.7160 C   0  0  0  0  0  0  0  0  0  0  0  0
  192.3690  175.2850  144.8210 N   0  0  0  0  0  2  0  0  0  0  0  0
  187.6020  176.9560  144.7910 C   0  0  0  0  0  0  0  0  0  0  0  0
  189.9950  177.6470  144.6290 C   0  0  0  0  0  2  0  0  0  0  0  0
  189.1050  175.0580  142.2320 O   0  0  0  0  0  0  0  0  0  0  0  0
  186.2350  177.2700  145.2810 C   0  0  0  0  0  1  0  0  0  0  0  0
  188.7880  177.4750  145.5520 C   0  0  0  0  0  2  0  0  0  0  0  0
  189.0310  175.8300  143.2230 C   0  0  0  0  0  0  0  0  0  0  0  0
  190.2880  176.3630  143.8480 C   0  0  2  0  0  3  0  0  0  0  0  0
  187.7460  176.1810  143.7560 N   0  0  0  0  0  0  0  0  0  0  0  0
  1 14  1  0  0  0  0
  1  9  1  0  0  0  0
  2  3  1  6  0  0  0
  2 13  1  0  0  0  0
  4  7  1  0  0  0  0
  5  2  1  0  0  0  0
  5 14  2  0  0  0  0
  6  1  2  0  0  0  0
  7  3  2  0  0  0  0
  8 23  1  6  0  0  0
  8 13  1  0  0  0  0
 10 18  1  0  0  0  0
 11  4  1  0  0  0  0
 12 16  1  0  0  0  0
 12  8  1  0  0  0  0
 13 18  1  6  0  0  0
 15  4  2  0  0  0  0
 15 20  1  0  0  0  0
 16  5  1  0  0  0  0
 17 16  2  0  0  0  0
 17  6  1  0  0  0  0
 19  3  1  0  0  0  0
 19 10  1  0  0  0  0
 20 19  2  0  0  0  0
 22 23  1  0  0  0  0
 22 21  2  0  0  0  0
 24 27  1  0  0  0  0
 24 28  1  0  0  0  0
 25 28  1  0  0  0  0
 26 29  2  0  0  0  0
 29 31  1  0  0  0  0
 29 30  1  0  0  0  0
 30 25  1  0  0  0  0
 30 22  1  1  0  0  0
 31 24  2  0  0  0  0
M  END
>  <MODEL>
3

>  <REMARK>
 VINA RESULT:      -8.0      3.537      5.063
  Name = 
  2 active torsions:
  status: ('A' for Active; 'I' for Inactive)
    1  A    between atoms: C_5  and  C_30
    2  A    between atoms: C_10  and  N_16
                            x       y       z     vdW  Elec       q    Type
                         _______ _______ _______ _____ _____    ______ ____

>  <TORSDO>
F 2

$$$$
=
 OpenBabel11112417033D

 31 35  0  0  1  0  0  0  0  0999 V2000
  186.1570  177.9160  140.6950 C   0  0  0  0  0  0  0  0  0  0  0  0
  188.5130  177.9150  143.6760 C   0  0  2  0  0  3  0  0  0  0  0  0
  187.9030  177.3580  144.9470 C   0  0  0  0  0  0  0  0  0  0  0  0
  185.9900  176.6690  146.2570 C   0  0  0  0  0  0  0  0  0  0  0  0
  187.7940  177.4920  142.4270 C   0  0  0  0  0  0  0  0  0  0  0  0
  186.4700  176.6910  140.0980 C   0  0  0  0  0  3  0  0  0  0  0  0
  186.5220  177.1410  145.0560 C   0  0  0  0  0  3  0  0  0  0  0  0
  190.3200  176.1210  143.0590 C   0  0  1  0  0  3  0  0  0  0  0  0
  185.1890  178.7350  140.1300 O   0  0  0  0  0  1  0  0  0  0  0  0
  190.1280  177.3720  146.0090 N   0  0  0  0  0  2  0  0  0  0  0  0
  184.6590  176.4460  146.3640 F   0  0  0  0  0  0  0  0  0  0  0  0
  189.1160  175.3640  142.4670 C   0  0  0  0  0  2  0  0  0  0  0  0
  190.0110  177.5660  143.5610 C   0  0  2  0  0  3  0  0  0  0  0  0
  186.8180  178.3170  141.8600 C   0  0  0  0  0  3  0  0  0  0  0  0
  186.8050  176.4380  147.3210 N   0  0  0  0  0  0  0  0  0  0  0  0
  188.1170  176.2690  141.8220 C   0  0  0  0  0  0  0  0  0  0  0  0
  187.4460  175.8640  140.6640 C   0  0  0  0  0  3  0  0  0  0  0  0
  190.7520  177.9810  144.8370 C   0  0  0  0  0  2  0  0  0  0  0  0
  188.7170  177.1410  146.0750 C   0  0  0  0  0  0  0  0  0  0  0  0
  188.1440  176.6640  147.2550 C   0  0  0  0  0  3  0  0  0  0  0  0
  192.8220  174.7220  142.8430 O   0  0  0  0  0  0  0  0  0  0  0  0
  192.1760  174.6090  143.9190 C   0  0  0  0  0  0  0  0  0  0  0  0
  190.9380  175.3020  144.0960 N   0  0  0  0  0  2  0  0  0  0  0  0
  195.5890  174.0100  145.2570 C   0  0  0  0  0  0  0  0  0  0  0  0
  193.3190  174.5510  146.1430 C   0  0  0  0  0  2  0  0  0  0  0  0
  193.3080  171.7200  143.8560 O   0  0  0  0  0  0  0  0  0  0  0  0
  197.0600  174.1660  145.3950 C   0  0  0  0  0  1  0  0  0  0  0  0
  194.6890  175.1060  145.7520 C   0  0  0  0  0  2  0  0  0  0  0  0
  193.7060  172.7430  144.4730 C   0  0  0  0  0  0  0  0  0  0  0  0
  192.7060  173.7280  145.0070 C   0  0  2  0  0  3  0  0  0  0  0  0
  195.1120  172.9640  144.6490 N   0  0  0  0  0  0  0  0  0  0  0  0
  1 14  1  0  0  0  0
  2  5  1  6  0  0  0
  2  3  1  0  0  0  0
  3  7  2  0  0  0  0
  3 19  1  0  0  0  0
  4 11  1  0  0  0  0
  4 15  2  0  0  0  0
  6 17  1  0  0  0  0
  6  1  2  0  0  0  0
  7  4  1  0  0  0  0
  8 13  1  0  0  0  0
  8 23  1  1  0  0  0
  9  1  1  0  0  0  0
 10 19  1  0  0  0  0
 12  8  1  0  0  0  0
 13  2  1  0  0  0  0
 13 18  1  1  0  0  0
 14  5  2  0  0  0  0
 16  5  1  0  0  0  0
 16 12  1  0  0  0  0
 17 16  2  0  0  0  0
 18 10  1  0  0  0  0
 19 20  2  0  0  0  0
 20 15  1  0  0  0  0
 21 22  2  0  0  0  0
 22 23  1  0  0  0  0
 24 27  1  0  0  0  0
 24 28  1  0  0  0  0
 26 29  2  0  0  0  0
 28 25  1  0  0  0  0
 29 31  1  0  0  0  0
 29 30  1  0  0  0  0
 30 22  1  6  0  0  0
 30 25  1  0  0  0  0
 31 24  2  0  0  0  0
M  END
>  <MODEL>
4

>  <REMARK>
 VINA RESULT:      -7.9      3.361      7.785
  Name = 
  2 active torsions:
  status: ('A' for Active; 'I' for Inactive)
    1  A    between atoms: C_5  and  C_30
    2  A    between atoms: C_10  and  N_16
                            x       y       z     vdW  Elec       q    Type
                         _______ _______ _______ _____ _____    ______ ____

>  <TORSDO>
F 2

$$$$
=
 OpenBabel11112417033D

 31 35  0  0  1  0  0  0  0  0999 V2000
  185.1380  179.0930  144.0290 C   0  0  0  0  0  0  0  0  0  0  0  0
  188.6330  177.6010  144.0900 C   0  0  2  0  0  3  0  0  0  0  0  0
  188.8510  176.5820  145.1920 C   0  0  0  0  0  0  0  0  0  0  0  0
  188.1910  175.5230  147.2630 C   0  0  0  0  0  0  0  0  0  0  0  0
  187.1850  177.8280  143.7590 C   0  0  0  0  0  0  0  0  0  0  0  0
  184.4920  178.2410  143.1280 C   0  0  0  0  0  3  0  0  0  0  0  0
  187.9340  176.4390  146.2410 C   0  0  0  0  0  3  0  0  0  0  0  0
  188.7400  176.1420  141.9150 C   0  0  1  0  0  3  0  0  0  0  0  0
  184.4430  180.1440  144.6090 O   0  0  0  0  0  1  0  0  0  0  0  0
  191.0120  175.9650  144.1760 N   0  0  0  0  0  2  0  0  0  0  0  0
  187.3030  175.3720  148.2730 F   0  0  0  0  0  0  0  0  0  0  0  0
  187.2770  175.8150  142.2710 C   0  0  0  0  0  2  0  0  0  0  0  0
  189.4090  177.2330  142.8090 C   0  0  2  0  0  3  0  0  0  0  0  0
  186.4850  178.8870  144.3460 C   0  0  0  0  0  3  0  0  0  0  0  0
  189.3340  174.7870  147.2480 N   0  0  0  0  0  0  0  0  0  0  0  0
  186.5410  176.9810  142.8460 C   0  0  0  0  0  0  0  0  0  0  0  0
  185.1910  177.1810  142.5400 C   0  0  0  0  0  3  0  0  0  0  0  0
  190.8860  176.9850  143.1380 C   0  0  0  0  0  2  0  0  0  0  0  0
  190.0410  175.8310  145.2190 C   0  0  0  0  0  0  0  0  0  0  0  0
  190.2550  174.9210  146.2570 C   0  0  0  0  0  3  0  0  0  0  0  0
  188.6450  174.1320  139.8620 O   0  0  0  0  0  0  0  0  0  0  0  0
  189.4050  173.9310  140.8480 C   0  0  0  0  0  0  0  0  0  0  0  0
  189.5140  174.9070  141.8880 N   0  0  0  0  0  2  0  0  0  0  0  0
  191.7440  172.5490  143.3790 C   0  0  0  0  0  0  0  0  0  0  0  0
  189.7230  171.8020  142.1200 C   0  0  0  0  0  2  0  0  0  0  0  0
  192.2920  173.2150  139.9650 O   0  0  0  0  0  0  0  0  0  0  0  0
  192.5320  172.4890  144.6380 C   0  0  0  0  0  1  0  0  0  0  0  0
  190.2560  172.3580  143.4410 C   0  0  0  0  0  2  0  0  0  0  0  0
  191.6560  172.9130  141.0080 C   0  0  0  0  0  0  0  0  0  0  0  0
  190.1790  172.6530  140.9320 C   0  0  2  0  0  3  0  0  0  0  0  0
  192.3460  172.8340  142.2620 N   0  0  0  0  0  0  0  0  0  0  0  0
  1 14  1  0  0  0  0
  1  9  1  0  0  0  0
  2  5  1  6  0  0  0
  2  3  1  0  0  0  0
  3 19  2  0  0  0  0
  3  7  1  0  0  0  0
  4 11  1  0  0  0  0
  5 14  2  0  0  0  0
  6  1  2  0  0  0  0
  7  4  2  0  0  0  0
  8 23  1  1  0  0  0
  8 12  1  0  0  0  0
  8 13  1  0  0  0  0
 10 19  1  0  0  0  0
 12 16  1  0  0  0  0
 13 18  1  1  0  0  0
 13  2  1  0  0  0  0
 15  4  1  0  0  0  0
 16  5  1  0  0  0  0
 17 16  2  0  0  0  0
 17  6  1  0  0  0  0
 18 10  1  0  0  0  0
 19 20  1  0  0  0  0
 20 15  2  0  0  0  0
 21 22  2  0  0  0  0
 22 23  1  0  0  0  0
 24 28  1  0  0  0  0
 24 27  1  0  0  0  0
 25 28  1  0  0  0  0
 26 29  2  0  0  0  0
 29 31  1  0  0  0  0
 30 22  1  1  0  0  0
 30 29  1  0  0  0  0
 30 25  1  0  0  0  0
 31 24  2  0  0  0  0
M  END
>  <MODEL>
5

>  <REMARK>
 VINA RESULT:      -7.9      3.277      7.634
  Name = 
  2 active torsions:
  status: ('A' for Active; 'I' for Inactive)
    1  A    between atoms: C_5  and  C_30
    2  A    between atoms: C_10  and  N_16
                            x       y       z     vdW  Elec       q    Type
                         _______ _______ _______ _____ _____    ______ ____

>  <TORSDO>
F 2

$$$$
=
 OpenBabel11112417033D

 31 35  0  0  1  0  0  0  0  0999 V2000
  187.2970  177.1890  143.8220 C   0  0  0  0  0  0  0  0  0  0  0  0
  190.3150  175.3360  145.2020 C   0  0  2  0  0  3  0  0  0  0  0  0
  190.5700  173.9940  144.5440 C   0  0  0  0  0  0  0  0  0  0  0  0
  189.8600  172.1360  143.1680 C   0  0  0  0  0  0  0  0  0  0  0  0
  189.4620  176.2570  144.3770 C   0  0  0  0  0  0  0  0  0  0  0  0
  187.8900  177.9820  142.8360 C   0  0  0  0  0  3  0  0  0  0  0  0
  189.6090  173.3940  143.7190 C   0  0  0  0  0  3  0  0  0  0  0  0
  192.3590  176.7720  144.4110 C   0  0  1  0  0  3  0  0  0  0  0  0
  185.9280  177.2580  144.0370 O   0  0  0  0  0  1  0  0  0  0  0  0
  192.7460  173.8560  145.6960 N   0  0  0  0  0  2  0  0  0  0  0  0
  188.9410  171.5580  142.3600 F   0  0  0  0  0  0  0  0  0  0  0  0
  191.5240  176.9400  143.1270 C   0  0  0  0  0  2  0  0  0  0  0  0
  191.6300  176.0440  145.5840 C   0  0  2  0  0  3  0  0  0  0  0  0
  188.0820  176.3250  144.5930 C   0  0  0  0  0  3  0  0  0  0  0  0
  191.0240  171.4900  143.4450 N   0  0  0  0  0  0  0  0  0  0  0  0
  190.0590  177.0620  143.3960 C   0  0  0  0  0  0  0  0  0  0  0  0
  189.2700  177.9160  142.6180 C   0  0  0  0  0  3  0  0  0  0  0  0
  192.5150  175.1070  146.4140 C   0  0  0  0  0  2  0  0  0  0  0  0
  191.7510  173.2860  144.8400 C   0  0  0  0  0  0  0  0  0  0  0  0
  191.9640  172.0330  144.2630 C   0  0  0  0  0  3  0  0  0  0  0  0
  194.9490  177.5490  145.3870 O   0  0  0  0  0  0  0  0  0  0  0  0
  194.8910  176.5850  144.5770 C   0  0  0  0  0  0  0  0  0  0  0  0
  193.6280  176.1360  144.0770 N   0  0  0  0  0  2  0  0  0  0  0  0
  196.0810  175.3820  141.2710 C   0  0  0  0  0  0  0  0  0  0  0  0
  196.9240  176.8070  143.1390 C   0  0  0  0  0  2  0  0  0  0  0  0
  195.6510  173.5920  144.2740 O   0  0  0  0  0  0  0  0  0  0  0  0
  196.0500  175.1190  139.8090 C   0  0  0  0  0  1  0  0  0  0  0  0
  196.2750  176.7910  141.7550 C   0  0  0  0  0  2  0  0  0  0  0  0
  195.8830  174.5760  143.5240 C   0  0  0  0  0  0  0  0  0  0  0  0
  196.1560  175.9250  144.1270 C   0  0  2  0  0  3  0  0  0  0  0  0
  195.8710  174.4030  142.1010 N   0  0  0  0  0  0  0  0  0  0  0  0
  1  9  1  0  0  0  0
  1 14  1  0  0  0  0
  2  5  1  6  0  0  0
  2 13  1  0  0  0  0
  3 19  1  0  0  0  0
  3  2  1  0  0  0  0
  4 15  2  0  0  0  0
  4  7  1  0  0  0  0
  5 14  2  0  0  0  0
  6  1  2  0  0  0  0
  7  3  2  0  0  0  0
  8 23  1  6  0  0  0
  8 13  1  0  0  0  0
 10 18  1  0  0  0  0
 11  4  1  0  0  0  0
 12 16  1  0  0  0  0
 12  8  1  0  0  0  0
 13 18  1  6  0  0  0
 15 20  1  0  0  0  0
 16  5  1  0  0  0  0
 17  6  1  0  0  0  0
 17 16  2  0  0  0  0
 19 10  1  0  0  0  0
 20 19  2  0  0  0  0
 22 21  2  0  0  0  0
 23 22  1  0  0  0  0
 24 28  1  0  0  0  0
 24 31  2  0  0  0  0
 25 30  1  0  0  0  0
 27 24  1  0  0  0  0
 28 25  1  0  0  0  0
 29 30  1  0  0  0  0
 29 26  2  0  0  0  0
 30 22  1  6  0  0  0
 31 29  1  0  0  0  0
M  END
>  <MODEL>
6

>  <REMARK>
 VINA RESULT:      -7.8      2.935      7.237
  Name = 
  2 active torsions:
  status: ('A' for Active; 'I' for Inactive)
    1  A    between atoms: C_5  and  C_30
    2  A    between atoms: C_10  and  N_16
                            x       y       z     vdW  Elec       q    Type
                         _______ _______ _______ _____ _____    ______ ____

>  <TORSDO>
F 2

$$$$
=
 OpenBabel11112417033D

 31 35  0  0  1  0  0  0  0  0999 V2000
  186.1290  177.2970  142.6620 C   0  0  0  0  0  0  0  0  0  0  0  0
  188.7500  174.6240  143.3170 C   0  0  2  0  0  3  0  0  0  0  0  0
  189.0570  173.7520  142.1150 C   0  0  0  0  0  0  0  0  0  0  0  0
  188.5240  172.9130  139.9100 C   0  0  0  0  0  0  0  0  0  0  0  0
  188.1080  175.9350  142.9600 C   0  0  0  0  0  0  0  0  0  0  0  0
  186.9310  178.3830  142.2990 C   0  0  0  0  0  3  0  0  0  0  0  0
  188.2370  173.7640  140.9790 C   0  0  0  0  0  3  0  0  0  0  0  0
  190.9710  175.9770  143.6400 C   0  0  1  0  0  3  0  0  0  0  0  0
  184.7480  177.4340  142.6950 O   0  0  0  0  0  1  0  0  0  0  0  0
  190.9750  172.7820  143.3240 N   0  0  0  0  0  2  0  0  0  0  0  0
  187.7430  172.9300  138.8050 F   0  0  0  0  0  0  0  0  0  0  0  0
  190.3950  176.8580  142.5150 C   0  0  0  0  0  2  0  0  0  0  0  0
  190.0050  174.8740  144.1770 C   0  0  2  0  0  3  0  0  0  0  0  0
  186.7170  176.0710  142.9920 C   0  0  0  0  0  3  0  0  0  0  0  0
  189.5850  172.0660  139.9790 N   0  0  0  0  0  0  0  0  0  0  0  0
  188.9130  177.0280  142.6080 C   0  0  0  0  0  0  0  0  0  0  0  0
  188.3220  178.2480  142.2660 C   0  0  0  0  0  3  0  0  0  0  0  0
  190.6760  173.5430  144.5350 C   0  0  0  0  0  2  0  0  0  0  0  0
  190.1280  172.8400  142.1720 C   0  0  0  0  0  0  0  0  0  0  0  0
  190.3840  172.0110  141.0780 C   0  0  0  0  0  3  0  0  0  0  0  0
  193.5680  176.7760  144.5770 O   0  0  0  0  0  0  0  0  0  0  0  0
  193.5120  175.8800  143.6930 C   0  0  0  0  0  0  0  0  0  0  0  0
  192.2480  175.4210  143.2070 N   0  0  0  0  0  2  0  0  0  0  0  0
  196.1820  173.7550  145.1610 C   0  0  0  0  0  0  0  0  0  0  0  0
  194.7420  173.7790  143.1220 C   0  0  0  0  0  2  0  0  0  0  0  0
  196.4240  176.9530  143.7050 O   0  0  0  0  0  0  0  0  0  0  0  0
  196.8900  172.9480  146.1880 C   0  0  0  0  0  1  0  0  0  0  0  0
  194.9420  173.1980  144.5230 C   0  0  0  0  0  2  0  0  0  0  0  0
  195.9770  175.7940  143.9100 C   0  0  0  0  0  0  0  0  0  0  0  0
  194.7810  175.3090  143.1420 C   0  0  2  0  0  3  0  0  0  0  0  0
  196.6070  174.9530  144.8860 N   0  0  0  0  0  0  0  0  0  0  0  0
  1  9  1  0  0  0  0
  1 14  1  0  0  0  0
  2  3  1  6  0  0  0
  2 13  1  0  0  0  0
  3 19  1  0  0  0  0
  4 15  2  0  0  0  0
  4  7  1  0  0  0  0
  5 14  2  0  0  0  0
  5  2  1  0  0  0  0
  6  1  2  0  0  0  0
  7  3  2  0  0  0  0
  8 23  1  6  0  0  0
  8 13  1  0  0  0  0
 10 18  1  0  0  0  0
 11  4  1  0  0  0  0
 12 16  1  0  0  0  0
 12  8  1  0  0  0  0
 13 18  1  6  0  0  0
 15 20  1  0  0  0  0
 16  5  1  0  0  0  0
 17  6  1  0  0  0  0
 17 16  2  0  0  0  0
 19 10  1  0  0  0  0
 20 19  2  0  0  0  0
 22 21  2  0  0  0  0
 23 22  1  0  0  0  0
 24 27  1  0  0  0  0
 25 30  1  0  0  0  0
 25 28  1  0  0  0  0
 26 29  2  0  0  0  0
 28 24  1  0  0  0  0
 29 31  1  0  0  0  0
 30 22  1  1  0  0  0
 30 29  1  0  0  0  0
 31 24  2  0  0  0  0
M  END
>  <MODEL>
7

>  <REMARK>
 VINA RESULT:      -7.8      3.138      7.415
  Name = 
  2 active torsions:
  status: ('A' for Active; 'I' for Inactive)
    1  A    between atoms: C_5  and  C_30
    2  A    between atoms: C_10  and  N_16
                            x       y       z     vdW  Elec       q    Type
                         _______ _______ _______ _____ _____    ______ ____

>  <TORSDO>
F 2

$$$$
=
 OpenBabel11112417033D

 31 35  0  0  1  0  0  0  0  0999 V2000
  193.2780  171.0490  141.9820 C   0  0  0  0  0  0  0  0  0  0  0  0
  191.5670  173.0510  144.7220 C   0  0  2  0  0  3  0  0  0  0  0  0
  192.4420  174.1230  145.3430 C   0  0  0  0  0  0  0  0  0  0  0  0
  194.6040  175.1320  145.7380 C   0  0  0  0  0  0  0  0  0  0  0  0
  192.0390  172.5990  143.3700 C   0  0  0  0  0  0  0  0  0  0  0  0
  192.9020  171.7680  140.8430 C   0  0  0  0  0  3  0  0  0  0  0  0
  193.8240  174.1580  145.1120 C   0  0  0  0  0  3  0  0  0  0  0  0
  189.7480  174.4440  143.4510 C   0  0  1  0  0  3  0  0  0  0  0  0
  194.0790  169.9230  141.8590 O   0  0  0  0  0  1  0  0  0  0  0  0
  190.4750  175.0280  146.5230 N   0  0  0  0  0  2  0  0  0  0  0  0
  195.9370  175.1770  145.5090 F   0  0  0  0  0  0  0  0  0  0  0  0
  190.8390  174.5580  142.3700 C   0  0  0  0  0  2  0  0  0  0  0  0
  190.0920  173.4940  144.6400 C   0  0  2  0  0  3  0  0  0  0  0  0
  192.8480  171.4650  143.2460 C   0  0  0  0  0  3  0  0  0  0  0  0
  194.0280  176.0310  146.5790 N   0  0  0  0  0  0  0  0  0  0  0  0
  191.6520  173.3130  142.2260 C   0  0  0  0  0  0  0  0  0  0  0  0
  192.0940  172.9030  140.9640 C   0  0  0  0  0  3  0  0  0  0  0  0
  189.6050  173.9710  146.0130 C   0  0  0  0  0  2  0  0  0  0  0  0
  191.8780  175.0460  146.2450 C   0  0  0  0  0  0  0  0  0  0  0  0
  192.6950  176.0070  146.8440 C   0  0  0  0  0  3  0  0  0  0  0  0
  187.2320  175.7590  142.9980 O   0  0  0  0  0  0  0  0  0  0  0  0
  188.1210  176.3920  143.6280 C   0  0  0  0  0  0  0  0  0  0  0  0
  189.3840  175.7810  143.9070 N   0  0  0  0  0  2  0  0  0  0  0  0
  185.4140  177.9430  145.6440 C   0  0  0  0  0  0  0  0  0  0  0  0
  187.9100  177.9250  145.5920 C   0  0  0  0  0  2  0  0  0  0  0  0
  186.4310  178.6580  142.3490 O   0  0  0  0  0  0  0  0  0  0  0  0
  184.1760  178.0150  146.4630 C   0  0  0  0  0  1  0  0  0  0  0  0
  186.6540  177.3480  146.2470 C   0  0  0  0  0  2  0  0  0  0  0  0
  186.5330  178.2900  143.5480 C   0  0  0  0  0  0  0  0  0  0  0  0
  187.8530  177.7970  144.0670 C   0  0  2  0  0  3  0  0  0  0  0  0
  185.3820  178.3300  144.4030 N   0  0  0  0  0  0  0  0  0  0  0  0
  1 14  1  0  0  0  0
  2  5  1  6  0  0  0
  2  3  1  0  0  0  0
  3 19  1  0  0  0  0
  4 15  2  0  0  0  0
  6 17  1  0  0  0  0
  6  1  2  0  0  0  0
  7  3  2  0  0  0  0
  7  4  1  0  0  0  0
  8 23  1  1  0  0  0
  8 13  1  0  0  0  0
  9  1  1  0  0  0  0
 11  4  1  0  0  0  0
 12  8  1  0  0  0  0
 13  2  1  0  0  0  0
 13 18  1  1  0  0  0
 14  5  2  0  0  0  0
 15 20  1  0  0  0  0
 16 12  1  0  0  0  0
 16  5  1  0  0  0  0
 17 16  2  0  0  0  0
 18 10  1  0  0  0  0
 19 10  1  0  0  0  0
 19 20  2  0  0  0  0
 21 22  2  0  0  0  0
 22 23  1  0  0  0  0
 24 28  1  0  0  0  0
 24 27  1  0  0  0  0
 25 28  1  0  0  0  0
 26 29  2  0  0  0  0
 29 30  1  0  0  0  0
 29 31  1  0  0  0  0
 30 22  1  1  0  0  0
 30 25  1  0  0  0  0
 31 24  2  0  0  0  0
M  END
>  <MODEL>
8

>  <REMARK>
 VINA RESULT:      -7.7      2.915      4.551
  Name = 
  2 active torsions:
  status: ('A' for Active; 'I' for Inactive)
    1  A    between atoms: C_5  and  C_30
    2  A    between atoms: C_10  and  N_16
                            x       y       z     vdW  Elec       q    Type
                         _______ _______ _______ _____ _____    ______ ____

>  <TORSDO>
F 2

$$$$
=
 OpenBabel11112417033D

 31 35  0  0  1  0  0  0  0  0999 V2000
  190.1010  171.3010  138.7220 C   0  0  0  0  0  0  0  0  0  0  0  0
  190.6180  172.9920  142.0860 C   0  0  2  0  0  3  0  0  0  0  0  0
  191.7090  174.0450  142.0870 C   0  0  0  0  0  0  0  0  0  0  0  0
  193.6310  175.1110  141.0780 C   0  0  0  0  0  0  0  0  0  0  0  0
  190.0900  172.6750  140.7160 C   0  0  0  0  0  0  0  0  0  0  0  0
  189.0920  172.0950  138.1680 C   0  0  0  0  0  3  0  0  0  0  0  0
  192.6120  174.1590  141.0210 C   0  0  0  0  0  3  0  0  0  0  0  0
  188.4390  174.4060  142.4290 C   0  0  1  0  0  3  0  0  0  0  0  0
  190.6070  170.2250  138.0060 O   0  0  0  0  0  1  0  0  0  0  0  0
  190.9960  174.7630  144.3360 N   0  0  0  0  0  2  0  0  0  0  0  0
  194.4980  175.2330  140.0460 F   0  0  0  0  0  0  0  0  0  0  0  0
  188.5710  174.6570  140.9140 C   0  0  0  0  0  2  0  0  0  0  0  0
  189.4520  173.3750  143.0180 C   0  0  2  0  0  3  0  0  0  0  0  0
  190.6020  171.5910  139.9950 C   0  0  0  0  0  3  0  0  0  0  0  0
  193.7580  175.9110  142.1700 N   0  0  0  0  0  0  0  0  0  0  0  0
  189.0690  173.4640  140.1660 C   0  0  0  0  0  0  0  0  0  0  0  0
  188.5790  173.1800  138.8870 C   0  0  0  0  0  3  0  0  0  0  0  0
  189.9820  173.7150  144.4170 C   0  0  0  0  0  2  0  0  0  0  0  0
  191.8840  174.8650  143.2190 C   0  0  0  0  0  0  0  0  0  0  0  0
  192.9140  175.8070  143.2310 C   0  0  0  0  0  3  0  0  0  0  0  0
  186.1810  176.0620  143.0790 O   0  0  0  0  0  0  0  0  0  0  0  0
  187.3260  176.4750  143.4050 C   0  0  0  0  0  0  0  0  0  0  0  0
  188.4860  175.6830  143.1310 N   0  0  0  0  0  2  0  0  0  0  0  0
  185.4410  178.1710  146.1180 C   0  0  0  0  0  0  0  0  0  0  0  0
  187.8180  177.6650  145.5480 C   0  0  0  0  0  2  0  0  0  0  0  0
  186.0020  179.2160  142.8020 O   0  0  0  0  0  0  0  0  0  0  0  0
  184.4150  178.3490  147.1790 C   0  0  0  0  0  1  0  0  0  0  0  0
  186.5980  177.2470  146.3710 C   0  0  0  0  0  2  0  0  0  0  0  0
  186.2250  178.6370  143.8970 C   0  0  0  0  0  0  0  0  0  0  0  0
  187.4670  177.8110  144.0650 C   0  0  2  0  0  3  0  0  0  0  0  0
  185.2810  178.7610  144.9700 N   0  0  0  0  0  0  0  0  0  0  0  0
  1 14  1  0  0  0  0
  2  5  1  6  0  0  0
  2  3  1  0  0  0  0
  2 13  1  0  0  0  0
  3 19  1  0  0  0  0
  4 15  2  0  0  0  0
  6  1  2  0  0  0  0
  6 17  1  0  0  0  0
  7  4  1  0  0  0  0
  7  3  2  0  0  0  0
  8 13  1  0  0  0  0
  8 23  1  1  0  0  0
  9  1  1  0  0  0  0
 10 18  1  0  0  0  0
 11  4  1  0  0  0  0
 12  8  1  0  0  0  0
 13 18  1  1  0  0  0
 14  5  2  0  0  0  0
 15 20  1  0  0  0  0
 16  5  1  0  0  0  0
 16 12  1  0  0  0  0
 17 16  2  0  0  0  0
 19 20  2  0  0  0  0
 19 10  1  0  0  0  0
 21 22  2  0  0  0  0
 23 22  1  0  0  0  0
 24 28  1  0  0  0  0
 24 27  1  0  0  0  0
 25 28  1  0  0  0  0
 26 29  2  0  0  0  0
 29 30  1  0  0  0  0
 29 31  1  0  0  0  0
 30 22  1  1  0  0  0
 30 25  1  0  0  0  0
 31 24  2  0  0  0  0
M  END
>  <MODEL>
9

>  <REMARK>
 VINA RESULT:      -7.7      3.163      5.200
  Name = 
  2 active torsions:
  status: ('A' for Active; 'I' for Inactive)
    1  A    between atoms: C_5  and  C_30
    2  A    between atoms: C_10  and  N_16
                            x       y       z     vdW  Elec       q    Type
                         _______ _______ _______ _____ _____    ______ ____

>  <TORSDO>
F 2

$$$$
