=
 OpenBabel11112417353D

 28 32  0  0  1  0  0  0  0  0999 V2000
  186.1230  178.3570  144.7010 C   0  0  0  0  0  0  0  0  0  0  0  0
  189.6660  178.1860  147.6060 O   0  0  0  0  0  0  0  0  0  0  0  0
  187.3780  173.4700  141.7540 O   0  0  0  0  0  0  0  0  0  0  0  0
  185.4730  176.7790  146.9200 C   0  0  0  0  0  3  0  0  0  0  0  0
  189.6770  174.4460  142.5440 C   0  0  2  0  0  3  0  0  0  0  0  0
  186.3590  179.0900  143.4160 C   0  0  0  0  0  2  0  0  0  0  0  0
  189.0140  175.8060  147.5450 O   0  0  0  0  0  0  0  0  0  0  0  0
  189.8930  176.8610  146.9370 S   0  0  0  0  0  0  0  0  0  0  0  0
  192.3890  176.5600  145.8180 C   0  0  1  0  0  3  0  0  0  0  0  0
  189.6850  176.9940  145.1740 C   0  0  1  0  0  3  0  0  0  0  0  0
  185.9170  177.4980  140.0560 O   0  0  0  0  0  1  0  0  0  0  0  0
  188.3470  176.0290  143.4960 C   0  0  2  0  0  3  0  0  0  0  0  0
  191.8250  175.8290  144.5750 C   0  0  0  0  0  2  0  0  0  0  0  0
  191.5970  176.3330  147.1180 C   0  0  0  0  0  2  0  0  0  0  0  0
  186.6180  178.1240  141.0860 C   0  0  2  0  0  3  0  0  0  0  0  0
  187.0530  177.4080  145.1810 C   0  0  0  0  0  0  0  0  0  0  0  0
  188.3080  174.6130  141.3670 S   0  0  2  0  0  0  0  0  0  0  0  0
  193.8380  176.1720  146.0220 C   0  0  0  0  0  1  0  0  0  0  0  0
  187.8790  177.3180  141.4130 C   0  0  0  0  0  2  0  0  0  0  0  0
  186.6950  176.6000  146.2670 C   0  0  0  0  0  3  0  0  0  0  0  0
  184.8990  178.5290  145.3580 C   0  0  0  0  0  3  0  0  0  0  0  0
  184.5810  177.7530  146.4720 C   0  0  0  0  0  3  0  0  0  0  0  0
  185.6910  178.3230  142.2830 C   0  0  0  0  0  2  0  0  0  0  0  0
  189.7370  175.7360  143.2070 N   0  0  1  0  0  0  0  0  0  0  0  0
  187.5770  176.0400  142.1950 C   0  0  2  0  0  3  0  0  0  0  0  0
  190.2920  175.7500  144.5480 C   0  0  2  0  0  3  0  0  0  0  0  0
  190.9610  174.1970  141.7780 C   0  0  0  0  0  1  0  0  0  0  0  0
  188.3500  177.2070  144.4410 C   0  0  1  0  0  3  0  0  0  0  0  0
  1 16  2  0  0  0  0
  1 21  1  0  0  0  0
  5 27  1  6  0  0  0
  5 24  1  0  0  0  0
  6  1  1  0  0  0  0
  8 14  1  0  0  0  0
  8  7  2  0  0  0  0
  8  2  2  0  0  0  0
  9 18  1  1  0  0  0
  9 14  1  0  0  0  0
 10  8  1  1  0  0  0
 11 15  1  0  0  0  0
 12 28  1  0  0  0  0
 13  9  1  0  0  0  0
 15 19  1  0  0  0  0
 15 23  1  0  0  0  0
 16 20  1  0  0  0  0
 17  3  2  0  0  0  0
 17 25  1  0  0  0  0
 17  5  1  0  0  0  0
 19 25  1  0  0  0  0
 20  4  2  0  0  0  0
 21 22  2  0  0  0  0
 22  4  1  0  0  0  0
 23  6  1  0  0  0  0
 24 12  1  0  0  0  0
 24 26  1  0  0  0  0
 25 12  1  0  0  0  0
 26 13  1  0  0  0  0
 26 10  1  0  0  0  0
 28 10  1  0  0  0  0
 28 16  1  0  0  0  0
M  END
>  <MODEL>
1

>  <REMARK>
 VINA RESULT:      -9.7      0.000      0.000
  Name = 
  0 active torsions:
  status: ('A' for Active; 'I' for Inactive)
                            x       y       z     vdW  Elec       q    Type
                         _______ _______ _______ _____ _____    ______ ____

>  <TORSDO>
F 0

$$$$
=
 OpenBabel11112417353D

 28 32  0  0  1  0  0  0  0  0999 V2000
  188.3190  176.5060  144.9090 C   0  0  0  0  0  0  0  0  0  0  0  0
  187.7170  173.0210  141.9910 O   0  0  0  0  0  0  0  0  0  0  0  0
  194.1540  176.6580  144.6470 O   0  0  0  0  0  0  0  0  0  0  0  0
  188.2370  177.4570  142.2770 C   0  0  0  0  0  3  0  0  0  0  0  0
  193.4790  174.1580  144.2520 C   0  0  2  0  0  3  0  0  0  0  0  0
  188.4790  176.1370  146.3520 C   0  0  0  0  0  2  0  0  0  0  0  0
  189.5170  174.2640  140.8480 O   0  0  0  0  0  0  0  0  0  0  0  0
  189.2020  173.1660  141.8230 S   0  0  0  0  0  0  0  0  0  0  0  0
  190.6380  170.8750  142.3300 C   0  0  1  0  0  3  0  0  0  0  0  0
  190.0000  173.3980  143.3970 C   0  0  1  0  0  3  0  0  0  0  0  0
  191.4800  177.0970  148.3750 O   0  0  0  0  0  1  0  0  0  0  0  0
  191.3730  175.0010  144.4400 C   0  0  2  0  0  3  0  0  0  0  0  0
  191.7680  171.6530  143.0470 C   0  0  0  0  0  2  0  0  0  0  0  0
  189.9310  171.6490  141.2050 C   0  0  0  0  0  2  0  0  0  0  0  0
  190.5820  176.2210  147.7670 C   0  0  2  0  0  3  0  0  0  0  0  0
  189.0440  175.8340  143.8990 C   0  0  0  0  0  0  0  0  0  0  0  0
  193.6600  175.4810  145.4780 S   0  0  2  0  0  0  0  0  0  0  0  0
  191.1810  169.5680  141.7940 C   0  0  0  0  0  1  0  0  0  0  0  0
  191.3510  175.1980  146.9250 C   0  0  0  0  0  2  0  0  0  0  0  0
  189.0230  176.3470  142.5970 C   0  0  0  0  0  3  0  0  0  0  0  0
  187.5360  177.6200  144.5830 C   0  0  0  0  0  3  0  0  0  0  0  0
  187.4850  178.0850  143.2690 C   0  0  0  0  0  3  0  0  0  0  0  0
  189.5550  177.0210  146.9690 C   0  0  0  0  0  2  0  0  0  0  0  0
  192.0930  173.7440  144.3750 N   0  0  1  0  0  0  0  0  0  0  0  0
  191.8880  175.7890  145.6230 C   0  0  2  0  0  3  0  0  0  0  0  0
  191.4860  173.1540  143.1950 C   0  0  2  0  0  3  0  0  0  0  0  0
  194.3980  173.0100  144.6220 C   0  0  0  0  0  1  0  0  0  0  0  0
  189.9120  174.6600  144.2720 C   0  0  1  0  0  3  0  0  0  0  0  0
  1  6  1  0  0  0  0
  3 17  2  0  0  0  0
  4 20  2  0  0  0  0
  4 22  1  0  0  0  0
  5 24  1  0  0  0  0
  5 27  1  1  0  0  0
  5 17  1  0  0  0  0
  6 23  1  0  0  0  0
  7  8  2  0  0  0  0
  8  2  2  0  0  0  0
  9 18  1  6  0  0  0
  9 13  1  0  0  0  0
 10  8  1  6  0  0  0
 10 28  1  0  0  0  0
 12 25  1  0  0  0  0
 13 26  1  0  0  0  0
 14  8  1  0  0  0  0
 14  9  1  0  0  0  0
 15 11  1  0  0  0  0
 16 28  1  0  0  0  0
 16  1  2  0  0  0  0
 17 25  1  0  0  0  0
 19 15  1  0  0  0  0
 20 16  1  0  0  0  0
 21  1  1  0  0  0  0
 22 21  2  0  0  0  0
 23 15  1  0  0  0  0
 24 12  1  0  0  0  0
 25 19  1  0  0  0  0
 26 10  1  0  0  0  0
 26 24  1  0  0  0  0
 28 12  1  0  0  0  0
M  END
>  <MODEL>
2

>  <REMARK>
 VINA RESULT:      -7.8      2.442      5.813
  Name = 
  0 active torsions:
  status: ('A' for Active; 'I' for Inactive)
                            x       y       z     vdW  Elec       q    Type
                         _______ _______ _______ _____ _____    ______ ____

>  <TORSDO>
F 0

$$$$
=
 OpenBabel11112417353D

 28 32  0  0  1  0  0  0  0  0999 V2000
  190.5270  177.0490  145.7970 C   0  0  0  0  0  0  0  0  0  0  0  0
  194.9390  176.9200  144.5580 O   0  0  0  0  0  0  0  0  0  0  0  0
  188.7640  172.4580  142.6430 O   0  0  0  0  0  0  0  0  0  0  0  0
  191.9410  175.2910  147.4540 C   0  0  0  0  0  3  0  0  0  0  0  0
  190.7490  173.5280  141.3110 C   0  0  2  0  0  3  0  0  0  0  0  0
  189.6250  177.8790  144.9360 C   0  0  0  0  0  2  0  0  0  0  0  0
  194.4760  174.5120  144.8380 O   0  0  0  0  0  0  0  0  0  0  0  0
  194.5020  175.6590  143.8690 S   0  0  0  0  0  0  0  0  0  0  0  0
  195.0210  175.5960  141.1680 C   0  0  1  0  0  3  0  0  0  0  0  0
  192.9440  175.8940  143.0420 C   0  0  1  0  0  3  0  0  0  0  0  0
  186.5980  176.4850  143.2280 O   0  0  0  0  0  1  0  0  0  0  0  0
  190.7860  174.9560  143.0840 C   0  0  2  0  0  3  0  0  0  0  0  0
  193.6680  174.9130  140.8490 C   0  0  0  0  0  2  0  0  0  0  0  0
  195.6230  175.2330  142.5360 C   0  0  0  0  0  2  0  0  0  0  0  0
  187.8540  177.0860  143.3030 C   0  0  2  0  0  3  0  0  0  0  0  0
  191.4400  176.1340  145.2280 C   0  0  0  0  0  0  0  0  0  0  0  0
  189.0010  173.6820  141.7680 S   0  0  2  0  0  0  0  0  0  0  0  0
  196.0160  175.2910  140.0690 C   0  0  0  0  0  1  0  0  0  0  0  0
  188.8350  176.3450  142.3900 C   0  0  0  0  0  2  0  0  0  0  0  0
  192.1090  175.2350  146.0680 C   0  0  0  0  0  3  0  0  0  0  0  0
  190.3610  177.0990  147.1860 C   0  0  0  0  0  3  0  0  0  0  0  0
  191.0760  176.2320  148.0130 C   0  0  0  0  0  3  0  0  0  0  0  0
  188.3020  177.1460  144.7620 C   0  0  0  0  0  2  0  0  0  0  0  0
  191.3460  174.7740  141.7590 N   0  0  1  0  0  0  0  0  0  0  0  0
  189.2790  175.0020  142.9670 C   0  0  2  0  0  3  0  0  0  0  0  0
  192.7620  174.7360  142.0750 C   0  0  2  0  0  3  0  0  0  0  0  0
  190.8580  173.4140  139.8030 C   0  0  0  0  0  1  0  0  0  0  0  0
  191.5790  176.0670  143.7290 C   0  0  1  0  0  3  0  0  0  0  0  0
  1 21  1  0  0  0  0
  4 22  1  0  0  0  0
  5 27  1  6  0  0  0
  5 24  1  0  0  0  0
  5 17  1  0  0  0  0
  6  1  1  0  0  0  0
  8  2  2  0  0  0  0
  8  7  2  0  0  0  0
  9 18  1  6  0  0  0
  9 14  1  0  0  0  0
 10 28  1  0  0  0  0
 10  8  1  1  0  0  0
 11 15  1  0  0  0  0
 12 28  1  0  0  0  0
 13  9  1  0  0  0  0
 13 26  1  0  0  0  0
 14  8  1  0  0  0  0
 15 23  1  0  0  0  0
 16  1  2  0  0  0  0
 16 20  1  0  0  0  0
 17  3  2  0  0  0  0
 17 25  1  0  0  0  0
 19 25  1  0  0  0  0
 19 15  1  0  0  0  0
 20  4  2  0  0  0  0
 21 22  2  0  0  0  0
 23  6  1  0  0  0  0
 24 26  1  0  0  0  0
 24 12  1  0  0  0  0
 25 12  1  0  0  0  0
 26 10  1  0  0  0  0
 28 16  1  0  0  0  0
M  END
>  <MODEL>
3

>  <REMARK>
 VINA RESULT:      -7.6      2.886      4.475
  Name = 
  0 active torsions:
  status: ('A' for Active; 'I' for Inactive)
                            x       y       z     vdW  Elec       q    Type
                         _______ _______ _______ _____ _____    ______ ____

>  <TORSDO>
F 0

$$$$
=
 OpenBabel11112417353D

 28 32  0  0  1  0  0  0  0  0999 V2000
  191.8650  174.5480  141.9710 C   0  0  0  0  0  0  0  0  0  0  0  0
  187.7440  176.0040  140.5860 O   0  0  0  0  0  0  0  0  0  0  0  0
  190.8590  174.9170  147.7150 O   0  0  0  0  0  0  0  0  0  0  0  0
  190.0730  172.4000  141.8570 C   0  0  0  0  0  3  0  0  0  0  0  0
  189.4010  176.7890  146.6060 C   0  0  2  0  0  3  0  0  0  0  0  0
  192.9040  175.6080  142.1720 C   0  0  0  0  0  2  0  0  0  0  0  0
  187.1010  174.5570  142.4800 O   0  0  0  0  0  0  0  0  0  0  0  0
  187.4530  175.9550  142.0580 S   0  0  0  0  0  0  0  0  0  0  0  0
  186.5640  178.3310  143.1240 C   0  0  1  0  0  3  0  0  0  0  0  0
  188.8040  176.6350  142.9960 C   0  0  1  0  0  3  0  0  0  0  0  0
  194.6750  176.1270  145.4300 O   0  0  0  0  0  1  0  0  0  0  0  0
  190.2810  175.9330  144.6890 C   0  0  2  0  0  3  0  0  0  0  0  0
  187.3940  178.1460  144.4180 C   0  0  0  0  0  2  0  0  0  0  0  0
  186.0750  177.0240  142.4760 C   0  0  0  0  0  2  0  0  0  0  0  0
  193.8560  176.4750  144.3570 C   0  0  2  0  0  3  0  0  0  0  0  0
  190.5620  174.6950  142.4980 C   0  0  0  0  0  0  0  0  0  0  0  0
  191.0740  176.2910  147.0930 S   0  0  2  0  0  0  0  0  0  0  0  0
  185.3860  179.2410  143.4020 C   0  0  0  0  0  1  0  0  0  0  0  0
  192.5210  177.0120  144.8820 C   0  0  0  0  0  2  0  0  0  0  0  0
  189.6930  173.5980  142.4680 C   0  0  0  0  0  3  0  0  0  0  0  0
  192.2410  173.3450  141.3630 C   0  0  0  0  0  3  0  0  0  0  0  0
  191.3440  172.2790  141.2940 C   0  0  0  0  0  3  0  0  0  0  0  0
  193.7080  175.2760  143.4220 C   0  0  0  0  0  2  0  0  0  0  0  0
  189.5080  177.0560  145.1830 N   0  0  1  0  0  0  0  0  0  0  0  0
  191.6080  175.9080  145.4130 C   0  0  2  0  0  3  0  0  0  0  0  0
  188.2940  176.9030  144.4020 C   0  0  2  0  0  3  0  0  0  0  0  0
  189.0260  178.0590  147.3450 C   0  0  0  0  0  1  0  0  0  0  0  0
  190.1850  175.9830  143.1830 C   0  0  1  0  0  3  0  0  0  0  0  0
  1  6  1  0  0  0  0
  1 16  1  0  0  0  0
  2  8  2  0  0  0  0
  4 20  1  0  0  0  0
  5 17  1  0  0  0  0
  5 27  1  1  0  0  0
  6 23  1  0  0  0  0
  8 14  1  0  0  0  0
  8  7  2  0  0  0  0
  9 18  1  1  0  0  0
  9 13  1  0  0  0  0
 10  8  1  1  0  0  0
 10 28  1  0  0  0  0
 10 26  1  0  0  0  0
 12 24  1  0  0  0  0
 12 25  1  0  0  0  0
 14  9  1  0  0  0  0
 15 19  1  0  0  0  0
 15 11  1  0  0  0  0
 16 28  1  0  0  0  0
 17  3  2  0  0  0  0
 19 25  1  0  0  0  0
 20 16  2  0  0  0  0
 21  1  2  0  0  0  0
 22 21  1  0  0  0  0
 22  4  2  0  0  0  0
 23 15  1  0  0  0  0
 24  5  1  0  0  0  0
 25 17  1  0  0  0  0
 26 13  1  0  0  0  0
 26 24  1  0  0  0  0
 28 12  1  0  0  0  0
M  END
>  <MODEL>
4

>  <REMARK>
 VINA RESULT:      -7.5      1.904      6.725
  Name = 
  0 active torsions:
  status: ('A' for Active; 'I' for Inactive)
                            x       y       z     vdW  Elec       q    Type
                         _______ _______ _______ _____ _____    ______ ____

>  <TORSDO>
F 0

$$$$
=
 OpenBabel11112417353D

 28 32  0  0  1  0  0  0  0  0999 V2000
  186.4270  176.4160  143.0820 C   0  0  0  0  0  0  0  0  0  0  0  0
  187.4410  172.6690  140.6420 O   0  0  0  0  0  0  0  0  0  0  0  0
  191.8960  177.7590  144.6380 O   0  0  0  0  0  0  0  0  0  0  0  0
  187.0670  177.1240  140.4500 C   0  0  0  0  0  3  0  0  0  0  0  0
  191.8320  175.1500  144.4070 C   0  0  2  0  0  3  0  0  0  0  0  0
  186.1560  176.2000  144.5390 C   0  0  0  0  0  2  0  0  0  0  0  0
  189.2780  174.1680  139.9560 O   0  0  0  0  0  0  0  0  0  0  0  0
  188.8490  173.1070  140.9280 S   0  0  0  0  0  0  0  0  0  0  0  0
  190.4030  171.2100  142.1750 C   0  0  1  0  0  3  0  0  0  0  0  0
  189.0230  173.6200  142.6240 C   0  0  1  0  0  3  0  0  0  0  0  0
  188.0960  177.9160  147.2430 O   0  0  0  0  0  1  0  0  0  0  0  0
  189.6720  175.5480  143.8070 C   0  0  2  0  0  3  0  0  0  0  0  0
  191.0780  172.2590  143.0930 C   0  0  0  0  0  2  0  0  0  0  0  0
  189.9910  171.7320  140.7880 C   0  0  0  0  0  2  0  0  0  0  0  0
  187.6180  176.8280  146.5140 C   0  0  2  0  0  3  0  0  0  0  0  0
  187.5510  175.8340  142.4540 C   0  0  0  0  0  0  0  0  0  0  0  0
  191.3620  176.5720  145.4300 S   0  0  2  0  0  0  0  0  0  0  0  0
  191.3110  170.0080  142.0250 C   0  0  0  0  0  1  0  0  0  0  0  0
  188.7870  175.9270  146.1070 C   0  0  0  0  0  2  0  0  0  0  0  0
  187.8780  176.2300  141.1520 C   0  0  0  0  0  3  0  0  0  0  0  0
  185.6180  177.3140  142.3740 C   0  0  0  0  0  3  0  0  0  0  0  0
  185.9290  177.6560  141.0580 C   0  0  0  0  0  3  0  0  0  0  0  0
  186.7950  177.3330  145.3300 C   0  0  0  0  0  2  0  0  0  0  0  0
  190.5770  174.4670  144.1470 N   0  0  1  0  0  0  0  0  0  0  0  0
  189.6190  176.5150  144.9680 C   0  0  2  0  0  3  0  0  0  0  0  0
  190.5090  173.6760  142.9320 C   0  0  2  0  0  3  0  0  0  0  0  0
  192.7560  174.2500  145.2040 C   0  0  0  0  0  1  0  0  0  0  0  0
  188.4320  174.8990  143.2400 C   0  0  1  0  0  3  0  0  0  0  0  0
  1  6  1  0  0  0  0
  2  8  2  0  0  0  0
  3 17  2  0  0  0  0
  4 22  2  0  0  0  0
  4 20  1  0  0  0  0
  5 27  1  1  0  0  0
  5 17  1  0  0  0  0
  6 23  1  0  0  0  0
  7  8  2  0  0  0  0
  9 18  1  6  0  0  0
  9 13  1  0  0  0  0
 10  8  1  6  0  0  0
 10 26  1  0  0  0  0
 10 28  1  0  0  0  0
 12 24  1  0  0  0  0
 12 25  1  0  0  0  0
 14  8  1  0  0  0  0
 14  9  1  0  0  0  0
 15 11  1  0  0  0  0
 16  1  1  0  0  0  0
 16 28  1  0  0  0  0
 19 15  1  0  0  0  0
 20 16  2  0  0  0  0
 21  1  2  0  0  0  0
 22 21  1  0  0  0  0
 23 15  1  0  0  0  0
 24  5  1  0  0  0  0
 25 17  1  0  0  0  0
 25 19  1  0  0  0  0
 26 13  1  0  0  0  0
 26 24  1  0  0  0  0
 28 12  1  0  0  0  0
M  END
>  <MODEL>
5

>  <REMARK>
 VINA RESULT:      -7.5      1.888      5.333
  Name = 
  0 active torsions:
  status: ('A' for Active; 'I' for Inactive)
                            x       y       z     vdW  Elec       q    Type
                         _______ _______ _______ _____ _____    ______ ____

>  <TORSDO>
F 0

$$$$
=
 OpenBabel11112417353D

 28 32  0  0  1  0  0  0  0  0999 V2000
  190.3560  177.1790  145.6000 C   0  0  0  0  0  0  0  0  0  0  0  0
  194.8990  177.7490  145.3880 O   0  0  0  0  0  0  0  0  0  0  0  0
  190.2060  171.7840  143.3620 O   0  0  0  0  0  0  0  0  0  0  0  0
  191.5660  176.1270  147.8950 C   0  0  0  0  0  3  0  0  0  0  0  0
  192.2660  172.9660  142.2580 C   0  0  2  0  0  3  0  0  0  0  0  0
  189.5810  177.6090  144.3920 C   0  0  0  0  0  2  0  0  0  0  0  0
  194.7720  175.4020  146.1420 O   0  0  0  0  0  0  0  0  0  0  0  0
  194.8590  176.3130  144.9510 S   0  0  0  0  0  0  0  0  0  0  0  0
  196.0480  175.8260  142.5180 C   0  0  1  0  0  3  0  0  0  0  0  0
  193.5440  176.0410  143.7820 C   0  0  1  0  0  3  0  0  0  0  0  0
  187.3490  175.2910  142.4770 O   0  0  0  0  0  1  0  0  0  0  0  0
  191.6250  174.6920  143.5960 C   0  0  2  0  0  3  0  0  0  0  0  0
  194.9480  174.8210  142.0980 C   0  0  0  0  0  2  0  0  0  0  0  0
  196.3340  175.8790  144.0290 C   0  0  0  0  0  2  0  0  0  0  0  0
  188.4320  176.1490  142.6660 C   0  0  2  0  0  3  0  0  0  0  0  0
  191.5170  176.3840  145.4760 C   0  0  0  0  0  0  0  0  0  0  0  0
  190.4590  172.8320  142.2850 S   0  0  2  0  0  0  0  0  0  0  0  0
  197.3250  175.5270  141.7620 C   0  0  0  0  0  1  0  0  0  0  0  0
  189.7170  175.4670  142.1900 C   0  0  0  0  0  2  0  0  0  0  0  0
  192.0860  175.8340  146.6310 C   0  0  0  0  0  3  0  0  0  0  0  0
  189.8370  177.4670  146.8680 C   0  0  0  0  0  3  0  0  0  0  0  0
  190.4490  176.9540  148.0120 C   0  0  0  0  0  3  0  0  0  0  0  0
  188.4790  176.5910  144.1270 C   0  0  0  0  0  2  0  0  0  0  0  0
  192.5240  174.3740  142.5040 N   0  0  1  0  0  0  0  0  0  0  0  0
  190.2090  174.3920  143.1570 C   0  0  2  0  0  3  0  0  0  0  0  0
  193.8010  174.7020  143.1110 C   0  0  2  0  0  3  0  0  0  0  0  0
  192.7720  172.5800  140.8810 C   0  0  0  0  0  1  0  0  0  0  0  0
  192.0400  176.0520  144.1030 C   0  0  1  0  0  3  0  0  0  0  0  0
  1 21  1  0  0  0  0
  4 22  1  0  0  0  0
  5 27  1  6  0  0  0
  5 17  1  0  0  0  0
  5 24  1  0  0  0  0
  6  1  1  0  0  0  0
  8  2  2  0  0  0  0
  8  7  2  0  0  0  0
  9 18  1  6  0  0  0
  9 14  1  0  0  0  0
 10 28  1  0  0  0  0
 10  8  1  1  0  0  0
 11 15  1  0  0  0  0
 12 28  1  0  0  0  0
 13  9  1  0  0  0  0
 13 26  1  0  0  0  0
 14  8  1  0  0  0  0
 15 23  1  0  0  0  0
 16  1  2  0  0  0  0
 16 20  1  0  0  0  0
 17 25  1  0  0  0  0
 17  3  2  0  0  0  0
 19 15  1  0  0  0  0
 19 25  1  0  0  0  0
 20  4  2  0  0  0  0
 21 22  2  0  0  0  0
 23  6  1  0  0  0  0
 24 26  1  0  0  0  0
 24 12  1  0  0  0  0
 25 12  1  0  0  0  0
 26 10  1  0  0  0  0
 28 16  1  0  0  0  0
M  END
>  <MODEL>
6

>  <REMARK>
 VINA RESULT:      -7.4      3.011      4.444
  Name = 
  0 active torsions:
  status: ('A' for Active; 'I' for Inactive)
                            x       y       z     vdW  Elec       q    Type
                         _______ _______ _______ _____ _____    ______ ____

>  <TORSDO>
F 0

$$$$
=
 OpenBabel11112417353D

 28 32  0  0  1  0  0  0  0  0999 V2000
  194.9530  173.3570  144.7530 C   0  0  0  0  0  0  0  0  0  0  0  0
  192.8060  171.5620  141.1220 O   0  0  0  0  0  0  0  0  0  0  0  0
  190.1690  175.0380  147.6540 O   0  0  0  0  0  0  0  0  0  0  0  0
  194.2550  170.6950  145.2660 C   0  0  0  0  0  3  0  0  0  0  0  0
  189.5600  175.1890  145.1110 C   0  0  2  0  0  3  0  0  0  0  0  0
  195.3030  174.8110  144.6590 C   0  0  0  0  0  2  0  0  0  0  0  0
  191.3410  170.7790  142.9480 O   0  0  0  0  0  0  0  0  0  0  0  0
  191.5860  171.8680  141.9420 S   0  0  0  0  0  0  0  0  0  0  0  0
  189.7390  173.4750  140.6870 C   0  0  1  0  0  3  0  0  0  0  0  0
  191.7120  173.4780  142.6920 C   0  0  1  0  0  3  0  0  0  0  0  0
  194.1240  177.3500  147.1460 O   0  0  0  0  0  1  0  0  0  0  0  0
  191.6810  174.4030  144.8560 C   0  0  2  0  0  3  0  0  0  0  0  0
  189.4390  174.2690  141.9820 C   0  0  0  0  0  2  0  0  0  0  0  0
  190.1300  172.0030  140.9050 C   0  0  0  0  0  2  0  0  0  0  0  0
  194.2430  176.7590  145.8880 C   0  0  2  0  0  3  0  0  0  0  0  0
  193.6640  172.8930  144.4080 C   0  0  0  0  0  0  0  0  0  0  0  0
  190.4660  175.9610  146.4790 S   0  0  2  0  0  0  0  0  0  0  0  0
  188.5510  173.5590  139.7520 C   0  0  0  0  0  1  0  0  0  0  0  0
  192.8530  176.5630  145.2780 C   0  0  0  0  0  2  0  0  0  0  0  0
  193.3190  171.5700  144.7090 C   0  0  0  0  0  3  0  0  0  0  0  0
  195.8860  172.4770  145.3130 C   0  0  0  0  0  3  0  0  0  0  0  0
  195.5420  171.1470  145.5570 C   0  0  0  0  0  3  0  0  0  0  0  0
  195.0460  175.4660  146.0090 C   0  0  0  0  0  2  0  0  0  0  0  0
  190.5740  174.9540  144.0990 N   0  0  1  0  0  0  0  0  0  0  0  0
  192.0860  175.4050  145.9140 C   0  0  2  0  0  3  0  0  0  0  0  0
  190.3230  173.8670  143.1700 C   0  0  2  0  0  3  0  0  0  0  0  0
  188.5240  176.1650  144.5890 C   0  0  0  0  0  1  0  0  0  0  0  0
  192.6590  173.8620  143.8410 C   0  0  1  0  0  3  0  0  0  0  0  0
  1 21  1  0  0  0  0
  2  8  2  0  0  0  0
  4 22  1  0  0  0  0
  5 27  1  6  0  0  0
  5 17  1  0  0  0  0
  6  1  1  0  0  0  0
  6 23  1  0  0  0  0
  8  7  2  0  0  0  0
  9 18  1  6  0  0  0
  9 14  1  0  0  0  0
  9 13  1  0  0  0  0
 10  8  1  1  0  0  0
 10 26  1  0  0  0  0
 10 28  1  0  0  0  0
 12 25  1  0  0  0  0
 13 26  1  0  0  0  0
 14  8  1  0  0  0  0
 15 23  1  0  0  0  0
 15 11  1  0  0  0  0
 16 20  1  0  0  0  0
 16  1  2  0  0  0  0
 17  3  2  0  0  0  0
 19 15  1  0  0  0  0
 19 25  1  0  0  0  0
 20  4  2  0  0  0  0
 21 22  2  0  0  0  0
 24 12  1  0  0  0  0
 24  5  1  0  0  0  0
 25 17  1  0  0  0  0
 26 24  1  0  0  0  0
 28 16  1  0  0  0  0
 28 12  1  0  0  0  0
M  END
>  <MODEL>
7

>  <REMARK>
 VINA RESULT:      -7.0      3.285      7.868
  Name = 
  0 active torsions:
  status: ('A' for Active; 'I' for Inactive)
                            x       y       z     vdW  Elec       q    Type
                         _______ _______ _______ _____ _____    ______ ____

>  <TORSDO>
F 0

$$$$
=
 OpenBabel11112417353D

 28 32  0  0  1  0  0  0  0  0999 V2000
  189.6240  175.6030  145.3120 C   0  0  0  0  0  0  0  0  0  0  0  0
  187.2470  173.4860  142.0130 O   0  0  0  0  0  0  0  0  0  0  0  0
  194.3720  176.7910  142.1220 O   0  0  0  0  0  0  0  0  0  0  0  0
  188.2080  177.4790  143.7910 C   0  0  0  0  0  3  0  0  0  0  0  0
  193.3850  174.5700  141.1450 C   0  0  2  0  0  3  0  0  0  0  0  0
  190.5090  174.7310  146.1490 C   0  0  0  0  0  2  0  0  0  0  0  0
  188.2350  175.3520  140.7340 O   0  0  0  0  0  0  0  0  0  0  0  0
  188.4090  173.9240  141.1700 S   0  0  0  0  0  0  0  0  0  0  0  0
  189.6920  171.8830  139.8450 C   0  0  1  0  0  3  0  0  0  0  0  0
  189.9490  173.6500  142.0190 C   0  0  1  0  0  3  0  0  0  0  0  0
  194.1960  175.2990  146.4790 O   0  0  0  0  0  1  0  0  0  0  0  0
  191.7970  174.9180  142.7380 C   0  0  2  0  0  3  0  0  0  0  0  0
  191.0910  172.4920  140.1080 C   0  0  0  0  0  2  0  0  0  0  0  0
  188.5550  172.9100  139.6990 C   0  0  0  0  0  2  0  0  0  0  0  0
  193.0420  174.5970  146.1340 C   0  0  2  0  0  3  0  0  0  0  0  0
  189.6260  175.5060  143.9030 C   0  0  0  0  0  0  0  0  0  0  0  0
  194.3110  175.3190  142.5110 S   0  0  2  0  0  0  0  0  0  0  0  0
  189.7460  170.9960  138.6190 C   0  0  0  0  0  1  0  0  0  0  0  0
  193.1430  174.1230  144.6810 C   0  0  0  0  0  2  0  0  0  0  0  0
  188.9450  176.4750  143.1570 C   0  0  0  0  0  3  0  0  0  0  0  0
  188.8860  176.6120  145.9420 C   0  0  0  0  0  3  0  0  0  0  0  0
  188.1690  177.5390  145.1850 C   0  0  0  0  0  3  0  0  0  0  0  0
  191.8170  175.4660  146.4100 C   0  0  0  0  0  2  0  0  0  0  0  0
  192.2580  173.9220  141.7920 N   0  0  1  0  0  0  0  0  0  0  0  0
  192.9340  175.2550  143.6750 C   0  0  2  0  0  3  0  0  0  0  0  0
  191.0610  173.7490  140.9880 C   0  0  2  0  0  3  0  0  0  0  0  0
  194.2570  173.5340  140.4640 C   0  0  0  0  0  1  0  0  0  0  0  0
  190.4550  174.4380  143.2390 C   0  0  1  0  0  3  0  0  0  0  0  0
  1 21  1  0  0  0  0
  1  6  1  0  0  0  0
  3 17  2  0  0  0  0
  4 22  1  0  0  0  0
  5 27  1  1  0  0  0
  5 24  1  0  0  0  0
  5 17  1  0  0  0  0
  6 23  1  0  0  0  0
  7  8  2  0  0  0  0
  8  2  2  0  0  0  0
  9 18  1  6  0  0  0
  9 13  1  0  0  0  0
 10  8  1  6  0  0  0
 10 28  1  0  0  0  0
 12 28  1  0  0  0  0
 12 25  1  0  0  0  0
 13 26  1  0  0  0  0
 14  9  1  0  0  0  0
 14  8  1  0  0  0  0
 15 23  1  0  0  0  0
 15 11  1  0  0  0  0
 16  1  2  0  0  0  0
 17 25  1  0  0  0  0
 19 15  1  0  0  0  0
 20  4  2  0  0  0  0
 20 16  1  0  0  0  0
 22 21  2  0  0  0  0
 24 12  1  0  0  0  0
 25 19  1  0  0  0  0
 26 24  1  0  0  0  0
 26 10  1  0  0  0  0
 28 16  1  0  0  0  0
M  END
>  <MODEL>
8

>  <REMARK>
 VINA RESULT:      -6.7      2.882      6.282
  Name = 
  0 active torsions:
  status: ('A' for Active; 'I' for Inactive)
                            x       y       z     vdW  Elec       q    Type
                         _______ _______ _______ _____ _____    ______ ____

>  <TORSDO>
F 0

$$$$
