=
 OpenBabel11112417223D

 37 42  0  0  1  0  0  0  0  0999 V2000
  194.7690  175.6410  145.2240 C   0  0  0  0  0  0  0  0  0  0  0  0
  193.5790  174.6420  141.4690 C   0  0  2  0  0  3  0  0  0  0  0  0
  190.3000  172.9200  141.3490 O   0  0  0  0  0  0  0  0  0  0  0  0
  195.3450  175.4620  142.7920 C   0  0  1  0  0  3  0  0  0  0  0  0
  192.0860  174.6310  141.4720 C   0  0  1  0  0  3  0  0  0  0  0  0
  193.8870  175.6930  142.4630 C   0  0  2  0  0  3  0  0  0  0  0  0
  191.5860  173.2920  140.8890 C   0  0  2  0  0  3  0  0  0  0  0  0
  196.1500  175.8030  141.5560 C   0  0  0  0  0  3  0  0  0  0  0  0
  192.9230  175.5820  143.5560 N   0  0  2  0  0  0  0  0  0  0  0  0
  194.3290  176.8180  146.0730 C   0  0  0  0  0  1  0  0  0  0  0  0
  193.6810  174.7410  138.9190 C   0  0  0  0  0  2  0  0  0  0  0  0
  195.6170  175.5320  140.3370 C   0  0  0  0  0  3  0  0  0  0  0  0
  193.5140  174.8880  144.7060 C   0  0  0  0  0  2  0  0  0  0  0  0
  188.5340  174.3330  142.1620 C   0  0  1  0  0  3  0  0  0  0  0  0
  189.3780  173.9090  140.9650 C   0  0  0  0  0  2  0  0  0  0  0  0
  194.2760  174.9840  140.2260 N   0  0  0  0  0  0  0  0  0  0  0  0
  191.8120  174.8010  142.9860 C   0  0  1  0  0  3  0  0  0  0  0  0
  195.6860  176.1660  144.0900 C   0  0  0  0  0  2  0  0  0  0  0  0
  191.7070  173.2200  139.3430 C   0  0  1  0  0  3  0  0  0  0  0  0
  195.5670  174.6940  146.0950 C   0  0  0  0  0  1  0  0  0  0  0  0
  189.3530  174.5960  143.4310 C   0  0  0  0  0  2  0  0  0  0  0  0
  190.5120  175.5610  143.2140 C   0  0  0  0  0  2  0  0  0  0  0  0
  193.1480  173.3170  138.8330 C   0  0  0  0  0  2  0  0  0  0  0  0
  190.2950  172.0600  137.6340 C   0  0  0  0  0  3  0  0  0  0  0  0
  191.0720  171.9770  138.7950 C   0  0  0  0  0  0  0  0  0  0  0  0
  191.2450  170.7340  139.4270 C   0  0  0  0  0  3  0  0  0  0  0  0
  190.8250  168.2770  139.5710 C   0  0  0  0  0  1  0  0  0  0  0  0
  189.8650  169.6780  137.7400 C   0  0  0  0  0  3  0  0  0  0  0  0
  190.6410  169.5900  138.8990 C   0  0  0  0  0  0  0  0  0  0  0  0
  189.6910  170.9140  137.1080 C   0  0  0  0  0  3  0  0  0  0  0  0
  185.8140  177.7190  141.5240 O   0  0  0  0  0  0  0  0  0  0  0  0
  185.8360  177.0850  142.6120 C   0  0  0  0  0  0  0  0  0  0  0  0
  187.6600  175.4950  141.8170 C   0  0  0  0  0  0  0  0  0  0  0  0
  186.7340  175.9810  142.7960 N   0  0  0  0  0  2  0  0  0  0  0  0
  187.7510  176.0440  140.6850 O   0  0  0  0  0  0  0  0  0  0  0  0
  184.1170  178.5940  143.5120 C   0  0  0  0  0  1  0  0  0  0  0  0
  184.9760  177.4720  143.6380 O   0  0  0  0  0  0  0  0  0  0  0  0
  1 10  1  0  0  0  0
  1 20  1  0  0  0  0
  2 16  1  6  0  0  0
  2  5  1  0  0  0  0
  2  6  1  0  0  0  0
  4  8  1  6  0  0  0
  4 18  1  0  0  0  0
  5 17  1  0  0  0  0
  6  4  1  0  0  0  0
  6  9  1  0  0  0  0
  7  3  1  0  0  0  0
  7  5  1  0  0  0  0
  9 13  1  0  0  0  0
 11 16  1  0  0  0  0
 12  8  2  0  0  0  0
 13  1  1  0  0  0  0
 14 21  1  0  0  0  0
 15  3  1  0  0  0  0
 15 14  1  0  0  0  0
 16 12  1  0  0  0  0
 17 22  1  0  0  0  0
 17  9  1  0  0  0  0
 18  1  1  0  0  0  0
 19  7  1  0  0  0  0
 22 21  1  0  0  0  0
 23 11  1  0  0  0  0
 23 19  1  0  0  0  0
 24 25  1  0  0  0  0
 25 19  1  0  0  0  0
 25 26  2  0  0  0  0
 28 29  2  0  0  0  0
 29 26  1  0  0  0  0
 29 27  1  0  0  0  0
 30 24  2  0  0  0  0
 30 28  1  0  0  0  0
 31 32  2  0  0  0  0
 32 34  1  0  0  0  0
 32 37  1  0  0  0  0
 33 14  1  0  0  0  0
 33 34  1  0  0  0  0
 35 33  2  0  0  0  0
 36 37  1  0  0  0  0
M  END
>  <MODEL>
1

>  <REMARK>
 VINA RESULT:      -7.8      0.000      0.000
  Name = 
  3 active torsions:
  status: ('A' for Active; 'I' for Inactive)
    1  A    between atoms: C_4  and  O_37
    2  A    between atoms: C_8  and  C_18
    3  A    between atoms: C_23  and  C_30
                            x       y       z     vdW  Elec       q    Type
                         _______ _______ _______ _____ _____    ______ ____

>  <TORSDO>
F 3

$$$$
=
 OpenBabel11112417223D

 37 42  0  0  1  0  0  0  0  0999 V2000
  189.8620  172.8130  138.0360 C   0  0  0  0  0  0  0  0  0  0  0  0
  190.4570  172.9380  142.0540 C   0  0  2  0  0  3  0  0  0  0  0  0
  190.5710  176.3730  143.4410 O   0  0  0  0  0  0  0  0  0  0  0  0
  190.4190  171.5700  140.1390 C   0  0  1  0  0  3  0  0  0  0  0  0
  189.8130  174.1900  142.5520 C   0  0  1  0  0  3  0  0  0  0  0  0
  189.5920  172.5730  140.9120 C   0  0  2  0  0  3  0  0  0  0  0  0
  190.8290  174.9810  143.4030 C   0  0  2  0  0  3  0  0  0  0  0  0
  190.5390  170.3250  140.9920 C   0  0  0  0  0  3  0  0  0  0  0  0
  189.2040  173.8020  140.2220 N   0  0  2  0  0  0  0  0  0  0  0  0
  188.5630  172.9670  137.2680 C   0  0  0  0  0  1  0  0  0  0  0  0
  190.5640  171.9300  144.3970 C   0  0  0  0  0  2  0  0  0  0  0  0
  190.6210  170.4650  142.3400 C   0  0  0  0  0  3  0  0  0  0  0  0
  190.0170  174.0050  139.0180 C   0  0  0  0  0  2  0  0  0  0  0  0
  188.4810  177.5180  143.1270 C   0  0  1  0  0  3  0  0  0  0  0  0
  189.3030  176.5830  144.0080 C   0  0  0  0  0  2  0  0  0  0  0  0
  190.5310  171.7810  142.9490 N   0  0  0  0  0  0  0  0  0  0  0  0
  189.4510  174.8670  141.2090 C   0  0  1  0  0  3  0  0  0  0  0  0
  189.8600  171.4310  138.7360 C   0  0  0  0  0  2  0  0  0  0  0  0
  191.0370  174.3770  144.8180 C   0  0  1  0  0  3  0  0  0  0  0  0
  191.0100  172.8560  137.0480 C   0  0  0  0  0  1  0  0  0  0  0  0
  188.5300  177.1600  141.6370 C   0  0  0  0  0  2  0  0  0  0  0  0
  188.1850  175.7020  141.3530 C   0  0  0  0  0  2  0  0  0  0  0  0
  191.6130  172.9580  144.8020 C   0  0  0  0  0  2  0  0  0  0  0  0
  193.2490  175.4340  145.3180 C   0  0  0  0  0  3  0  0  0  0  0  0
  191.9070  175.2530  145.6700 C   0  0  0  0  0  0  0  0  0  0  0  0
  191.3960  175.8930  146.8110 C   0  0  0  0  0  3  0  0  0  0  0  0
  191.6830  177.3760  148.8000 C   0  0  0  0  0  1  0  0  0  0  0  0
  193.5670  176.8780  147.2370 C   0  0  0  0  0  3  0  0  0  0  0  0
  192.2260  176.7020  147.5910 C   0  0  0  0  0  0  0  0  0  0  0  0
  194.0780  176.2440  146.1000 C   0  0  0  0  0  3  0  0  0  0  0  0
  184.4930  177.7230  144.9500 O   0  0  0  0  0  0  0  0  0  0  0  0
  185.5040  177.3620  145.6090 C   0  0  0  0  0  0  0  0  0  0  0  0
  187.0760  177.6270  143.6240 C   0  0  0  0  0  0  0  0  0  0  0  0
  186.7970  177.3020  144.9910 N   0  0  0  0  0  2  0  0  0  0  0  0
  186.1570  178.0130  142.8510 O   0  0  0  0  0  0  0  0  0  0  0  0
  186.0360  177.7140  147.9840 C   0  0  0  0  0  1  0  0  0  0  0  0
  185.3490  177.0220  146.9530 O   0  0  0  0  0  0  0  0  0  0  0  0
  1 18  1  0  0  0  0
  1 13  1  0  0  0  0
  2  5  1  0  0  0  0
  2 16  1  1  0  0  0
  3 15  1  0  0  0  0
  4 18  1  6  0  0  0
  4  6  1  0  0  0  0
  4  8  1  0  0  0  0
  5  7  1  0  0  0  0
  6  2  1  0  0  0  0
  7  3  1  0  0  0  0
  7 19  1  0  0  0  0
  8 12  2  0  0  0  0
  9  6  1  0  0  0  0
  9 17  1  0  0  0  0
 10  1  1  0  0  0  0
 11 23  1  0  0  0  0
 12 16  1  0  0  0  0
 13  9  1  0  0  0  0
 14 33  1  0  0  0  0
 14 15  1  0  0  0  0
 16 11  1  0  0  0  0
 17 22  1  0  0  0  0
 17  5  1  0  0  0  0
 19 25  1  0  0  0  0
 20  1  1  0  0  0  0
 21 14  1  0  0  0  0
 22 21  1  0  0  0  0
 23 19  1  0  0  0  0
 24 25  2  0  0  0  0
 24 30  1  0  0  0  0
 25 26  1  0  0  0  0
 26 29  2  0  0  0  0
 28 29  1  0  0  0  0
 29 27  1  0  0  0  0
 30 28  2  0  0  0  0
 31 32  2  0  0  0  0
 32 37  1  0  0  0  0
 33 34  1  0  0  0  0
 34 32  1  0  0  0  0
 35 33  2  0  0  0  0
 37 36  1  0  0  0  0
M  END
>  <MODEL>
2

>  <REMARK>
 VINA RESULT:      -7.7      2.631      6.980
  Name = 
  3 active torsions:
  status: ('A' for Active; 'I' for Inactive)
    1  A    between atoms: C_4  and  O_37
    2  A    between atoms: C_8  and  C_18
    3  A    between atoms: C_23  and  C_30
                            x       y       z     vdW  Elec       q    Type
                         _______ _______ _______ _____ _____    ______ ____

>  <TORSDO>
F 3

$$$$
=
 OpenBabel11112417223D

 37 42  0  0  1  0  0  0  0  0999 V2000
  189.6940  175.2740  146.1040 C   0  0  0  0  0  0  0  0  0  0  0  0
  193.5350  174.0470  145.6040 C   0  0  2  0  0  3  0  0  0  0  0  0
  193.8440  170.5720  144.3560 O   0  0  0  0  0  0  0  0  0  0  0  0
  192.1320  175.7360  146.4510 C   0  0  1  0  0  3  0  0  0  0  0  0
  193.5290  173.0220  144.5190 C   0  0  1  0  0  3  0  0  0  0  0  0
  192.4280  174.9400  145.2000 C   0  0  2  0  0  3  0  0  0  0  0  0
  194.2620  171.7560  145.0100 C   0  0  2  0  0  3  0  0  0  0  0  0
  193.3220  176.6350  146.7110 C   0  0  0  0  0  3  0  0  0  0  0  0
  191.3520  174.1130  144.6570 N   0  0  2  0  0  0  0  0  0  0  0  0
  188.7130  175.7610  145.0550 C   0  0  0  0  0  1  0  0  0  0  0  0
  196.0570  174.4000  145.4070 C   0  0  0  0  0  2  0  0  0  0  0  0
  194.5630  176.1750  146.4060 C   0  0  0  0  0  3  0  0  0  0  0  0
  190.2910  173.9140  145.6510 C   0  0  0  0  0  2  0  0  0  0  0  0
  192.8690  170.3320  142.1720 C   0  0  1  0  0  3  0  0  0  0  0  0
  194.1090  170.6970  142.9820 C   0  0  0  0  0  2  0  0  0  0  0  0
  194.7320  174.8730  145.7850 N   0  0  0  0  0  0  0  0  0  0  0  0
  192.0060  172.8350  144.3250 C   0  0  1  0  0  3  0  0  0  0  0  0
  190.7610  176.3740  146.3300 C   0  0  0  0  0  2  0  0  0  0  0  0
  195.8060  171.9140  145.0220 C   0  0  1  0  0  3  0  0  0  0  0  0
  188.9390  175.0550  147.3990 C   0  0  0  0  0  1  0  0  0  0  0  0
  191.5800  170.9760  142.6970 C   0  0  0  0  0  2  0  0  0  0  0  0
  191.6880  172.4860  142.8770 C   0  0  0  0  0  2  0  0  0  0  0  0
  196.3050  173.0070  145.9720 C   0  0  0  0  0  2  0  0  0  0  0  0
  197.2950  170.0070  144.3870 C   0  0  0  0  0  3  0  0  0  0  0  0
  196.4920  170.6220  145.3530 C   0  0  0  0  0  0  0  0  0  0  0  0
  196.3410  170.0220  146.6140 C   0  0  0  0  0  3  0  0  0  0  0  0
  196.8250  168.1830  148.2330 C   0  0  0  0  0  1  0  0  0  0  0  0
  197.7880  168.2050  145.9280 C   0  0  0  0  0  3  0  0  0  0  0  0
  196.9880  168.8160  146.8980 C   0  0  0  0  0  0  0  0  0  0  0  0
  197.9410  168.8000  144.6730 C   0  0  0  0  0  3  0  0  0  0  0  0
  193.0730  171.1150  137.8580 O   0  0  0  0  0  0  0  0  0  0  0  0
  191.9810  170.8650  138.4330 C   0  0  0  0  0  0  0  0  0  0  0  0
  193.0750  170.6120  140.7190 C   0  0  0  0  0  0  0  0  0  0  0  0
  191.9400  170.6110  139.8450 N   0  0  0  0  0  2  0  0  0  0  0  0
  194.2310  170.8580  140.2770 O   0  0  0  0  0  0  0  0  0  0  0  0
  189.7950  169.8710  137.9030 C   0  0  0  0  0  1  0  0  0  0  0  0
  190.8090  170.8390  137.6790 O   0  0  0  0  0  0  0  0  0  0  0  0
  1 18  1  0  0  0  0
  1 20  1  0  0  0  0
  2 16  1  6  0  0  0
  3  7  1  0  0  0  0
  4 18  1  6  0  0  0
  4  8  1  0  0  0  0
  5  7  1  0  0  0  0
  5  2  1  0  0  0  0
  6  2  1  0  0  0  0
  6  4  1  0  0  0  0
  7 19  1  0  0  0  0
  9  6  1  0  0  0  0
  9 13  1  0  0  0  0
 10  1  1  0  0  0  0
 11 16  1  0  0  0  0
 11 23  1  0  0  0  0
 12  8  2  0  0  0  0
 13  1  1  0  0  0  0
 14 21  1  0  0  0  0
 14 15  1  0  0  0  0
 15  3  1  0  0  0  0
 16 12  1  0  0  0  0
 17  5  1  0  0  0  0
 17  9  1  0  0  0  0
 19 25  1  0  0  0  0
 19 23  1  0  0  0  0
 21 22  1  0  0  0  0
 22 17  1  0  0  0  0
 24 30  2  0  0  0  0
 24 25  1  0  0  0  0
 25 26  2  0  0  0  0
 26 29  1  0  0  0  0
 28 29  2  0  0  0  0
 29 27  1  0  0  0  0
 30 28  1  0  0  0  0
 31 32  2  0  0  0  0
 32 34  1  0  0  0  0
 33 14  1  0  0  0  0
 34 33  1  0  0  0  0
 35 33  2  0  0  0  0
 37 36  1  0  0  0  0
 37 32  1  0  0  0  0
M  END
>  <MODEL>
3

>  <REMARK>
 VINA RESULT:      -7.7      3.906      7.384
  Name = 
  3 active torsions:
  status: ('A' for Active; 'I' for Inactive)
    1  A    between atoms: C_4  and  O_37
    2  A    between atoms: C_8  and  C_18
    3  A    between atoms: C_23  and  C_30
                            x       y       z     vdW  Elec       q    Type
                         _______ _______ _______ _____ _____    ______ ____

>  <TORSDO>
F 3

$$$$
=
 OpenBabel11112417223D

 37 42  0  0  1  0  0  0  0  0999 V2000
  189.9130  172.7610  138.0300 C   0  0  0  0  0  0  0  0  0  0  0  0
  190.4830  172.9040  142.0510 C   0  0  2  0  0  3  0  0  0  0  0  0
  190.5850  176.3440  143.4250 O   0  0  0  0  0  0  0  0  0  0  0  0
  190.4570  171.5270  140.1420 C   0  0  1  0  0  3  0  0  0  0  0  0
  189.8340  174.1570  142.5410 C   0  0  1  0  0  3  0  0  0  0  0  0
  189.6240  172.5330  140.9060 C   0  0  2  0  0  3  0  0  0  0  0  0
  190.8440  174.9520  143.3950 C   0  0  2  0  0  3  0  0  0  0  0  0
  190.5720  170.2860  141.0010 C   0  0  0  0  0  3  0  0  0  0  0  0
  189.2400  173.7590  140.2090 N   0  0  2  0  0  0  0  0  0  0  0  0
  188.6190  172.9120  137.2530 C   0  0  0  0  0  1  0  0  0  0  0  0
  190.5750  171.9050  144.4000 C   0  0  0  0  0  2  0  0  0  0  0  0
  190.6450  170.4320  142.3480 C   0  0  0  0  0  3  0  0  0  0  0  0
  190.0610  173.9580  139.0090 C   0  0  0  0  0  2  0  0  0  0  0  0
  188.4960  177.4860  143.0940 C   0  0  1  0  0  3  0  0  0  0  0  0
  189.3130  176.5550  143.9840 C   0  0  0  0  0  2  0  0  0  0  0  0
  190.5510  171.7500  142.9510 N   0  0  0  0  0  0  0  0  0  0  0  0
  189.4800  174.8280  141.1920 C   0  0  1  0  0  3  0  0  0  0  0  0
  189.9080  171.3830  138.7360 C   0  0  0  0  0  2  0  0  0  0  0  0
  191.0440  174.3540  144.8130 C   0  0  1  0  0  3  0  0  0  0  0  0
  191.0670  172.8020  137.0500 C   0  0  0  0  0  1  0  0  0  0  0  0
  188.5550  177.1220  141.6050 C   0  0  0  0  0  2  0  0  0  0  0  0
  188.2130  175.6630  141.3250 C   0  0  0  0  0  2  0  0  0  0  0  0
  191.6200  172.9360  144.8070 C   0  0  0  0  0  2  0  0  0  0  0  0
  193.2530  175.4100  145.3270 C   0  0  0  0  0  3  0  0  0  0  0  0
  191.9070  175.2340  145.6680 C   0  0  0  0  0  0  0  0  0  0  0  0
  191.3870  175.8830  146.8000 C   0  0  0  0  0  3  0  0  0  0  0  0
  191.6580  177.3790  148.7800 C   0  0  0  0  0  1  0  0  0  0  0  0
  193.5560  176.8670  147.2380 C   0  0  0  0  0  3  0  0  0  0  0  0
  192.2120  176.6960  147.5820 C   0  0  0  0  0  0  0  0  0  0  0  0
  194.0760  176.2240  146.1110 C   0  0  0  0  0  3  0  0  0  0  0  0
  184.2520  177.8790  144.1410 O   0  0  0  0  0  0  0  0  0  0  0  0
  184.6560  178.0170  142.9560 C   0  0  0  0  0  0  0  0  0  0  0  0
  187.0880  177.5960  143.5810 C   0  0  0  0  0  0  0  0  0  0  0  0
  186.0490  177.8850  142.6390 N   0  0  0  0  0  2  0  0  0  0  0  0
  186.8240  177.4240  144.8030 O   0  0  0  0  0  0  0  0  0  0  0  0
  184.1040  178.3810  140.5880 C   0  0  0  0  0  1  0  0  0  0  0  0
  183.7290  178.2990  141.9540 O   0  0  0  0  0  0  0  0  0  0  0  0
  1 18  1  0  0  0  0
  1 13  1  0  0  0  0
  2  5  1  0  0  0  0
  2 16  1  1  0  0  0
  3 15  1  0  0  0  0
  4 18  1  6  0  0  0
  4  6  1  0  0  0  0
  4  8  1  0  0  0  0
  5  7  1  0  0  0  0
  6  2  1  0  0  0  0
  7  3  1  0  0  0  0
  7 19  1  0  0  0  0
  8 12  2  0  0  0  0
  9  6  1  0  0  0  0
  9 17  1  0  0  0  0
 10  1  1  0  0  0  0
 11 23  1  0  0  0  0
 12 16  1  0  0  0  0
 13  9  1  0  0  0  0
 14 33  1  0  0  0  0
 14 15  1  0  0  0  0
 16 11  1  0  0  0  0
 17 22  1  0  0  0  0
 17  5  1  0  0  0  0
 19 25  1  0  0  0  0
 20  1  1  0  0  0  0
 21 14  1  0  0  0  0
 22 21  1  0  0  0  0
 23 19  1  0  0  0  0
 24 25  2  0  0  0  0
 24 30  1  0  0  0  0
 25 26  1  0  0  0  0
 26 29  2  0  0  0  0
 28 29  1  0  0  0  0
 29 27  1  0  0  0  0
 30 28  2  0  0  0  0
 32 31  2  0  0  0  0
 33 35  2  0  0  0  0
 34 32  1  0  0  0  0
 34 33  1  0  0  0  0
 36 37  1  0  0  0  0
 37 32  1  0  0  0  0
M  END
>  <MODEL>
4

>  <REMARK>
 VINA RESULT:      -7.7      2.603      6.921
  Name = 
  3 active torsions:
  status: ('A' for Active; 'I' for Inactive)
    1  A    between atoms: C_4  and  O_37
    2  A    between atoms: C_8  and  C_18
    3  A    between atoms: C_23  and  C_30
                            x       y       z     vdW  Elec       q    Type
                         _______ _______ _______ _____ _____    ______ ____

>  <TORSDO>
F 3

$$$$
=
 OpenBabel11112417223D

 37 42  0  0  1  0  0  0  0  0999 V2000
  191.1690  170.5860  141.4890 C   0  0  0  0  0  0  0  0  0  0  0  0
  189.3490  174.1330  142.2760 C   0  0  2  0  0  3  0  0  0  0  0  0
  189.5450  175.1570  145.8320 O   0  0  0  0  0  0  0  0  0  0  0  0
  189.7050  172.4480  140.6710 C   0  0  1  0  0  3  0  0  0  0  0  0
  190.0540  174.7360  143.4460 C   0  0  1  0  0  3  0  0  0  0  0  0
  190.4350  173.3880  141.6040 C   0  0  2  0  0  3  0  0  0  0  0  0
  189.0160  175.1280  144.5190 C   0  0  2  0  0  3  0  0  0  0  0  0
  189.0470  173.2900  139.5990 C   0  0  0  0  0  3  0  0  0  0  0  0
  191.2840  172.7920  142.6340 N   0  0  2  0  0  0  0  0  0  0  0  0
  192.6470  170.3050  141.2960 C   0  0  0  0  0  1  0  0  0  0  0  0
  188.2720  176.3590  141.6380 C   0  0  0  0  0  2  0  0  0  0  0  0
  188.5660  174.5140  139.9380 C   0  0  0  0  0  3  0  0  0  0  0  0
  190.9690  171.3700  142.8140 C   0  0  0  0  0  2  0  0  0  0  0  0
  191.8200  175.5060  146.5220 C   0  0  1  0  0  3  0  0  0  0  0  0
  190.5750  176.1110  145.8840 C   0  0  0  0  0  2  0  0  0  0  0  0
  188.7390  175.0250  141.2860 N   0  0  0  0  0  0  0  0  0  0  0  0
  190.9690  173.5570  143.8530 C   0  0  1  0  0  3  0  0  0  0  0  0
  190.6430  171.3370  140.2400 C   0  0  0  0  0  2  0  0  0  0  0  0
  188.2350  176.4210  144.1650 C   0  0  1  0  0  3  0  0  0  0  0  0
  190.4410  169.2630  141.6030 C   0  0  0  0  0  1  0  0  0  0  0  0
  192.1800  174.1180  145.9760 C   0  0  0  0  0  2  0  0  0  0  0  0
  192.2710  174.0720  144.4560 C   0  0  0  0  0  2  0  0  0  0  0  0
  187.4000  176.3050  142.8860 C   0  0  0  0  0  2  0  0  0  0  0  0
  186.0310  176.3930  145.3500 C   0  0  0  0  0  3  0  0  0  0  0  0
  187.3500  176.8590  145.2940 C   0  0  0  0  0  0  0  0  0  0  0  0
  187.8220  177.7260  146.2930 C   0  0  0  0  0  3  0  0  0  0  0  0
  187.4810  179.0410  148.3880 C   0  0  0  0  0  1  0  0  0  0  0  0
  185.6610  177.6550  147.3840 C   0  0  0  0  0  3  0  0  0  0  0  0
  186.9780  178.1220  147.3340 C   0  0  0  0  0  0  0  0  0  0  0  0
  185.1880  176.7910  146.3920 C   0  0  0  0  0  3  0  0  0  0  0  0
  195.3170  178.0940  145.9360 O   0  0  0  0  0  0  0  0  0  0  0  0
  195.0230  177.1850  145.1170 C   0  0  0  0  0  0  0  0  0  0  0  0
  192.9770  176.4480  146.4420 C   0  0  0  0  0  0  0  0  0  0  0  0
  193.8750  176.3510  145.3310 N   0  0  0  0  0  2  0  0  0  0  0  0
  193.1470  177.3230  147.3360 O   0  0  0  0  0  0  0  0  0  0  0  0
  195.5620  175.9830  143.0400 C   0  0  0  0  0  1  0  0  0  0  0  0
  195.8290  176.9990  143.9940 O   0  0  0  0  0  0  0  0  0  0  0  0
  1 20  1  0  0  0  0
  1 13  1  0  0  0  0
  2 16  1  6  0  0  0
  2  5  1  0  0  0  0
  3 15  1  0  0  0  0
  4  8  1  6  0  0  0
  4  6  1  0  0  0  0
  5 17  1  0  0  0  0
  5  7  1  0  0  0  0
  6  2  1  0  0  0  0
  6  9  1  0  0  0  0
  7  3  1  0  0  0  0
  8 12  2  0  0  0  0
  9 13  1  0  0  0  0
  9 17  1  0  0  0  0
 10  1  1  0  0  0  0
 11 23  1  0  0  0  0
 12 16  1  0  0  0  0
 15 14  1  0  0  0  0
 16 11  1  0  0  0  0
 17 22  1  0  0  0  0
 18  4  1  0  0  0  0
 18  1  1  0  0  0  0
 19  7  1  0  0  0  0
 19 25  1  0  0  0  0
 21 14  1  0  0  0  0
 22 21  1  0  0  0  0
 23 19  1  0  0  0  0
 24 30  1  0  0  0  0
 25 24  2  0  0  0  0
 25 26  1  0  0  0  0
 26 29  2  0  0  0  0
 29 28  1  0  0  0  0
 29 27  1  0  0  0  0
 30 28  2  0  0  0  0
 32 34  1  0  0  0  0
 32 31  2  0  0  0  0
 33 14  1  0  0  0  0
 33 35  2  0  0  0  0
 34 33  1  0  0  0  0
 36 37  1  0  0  0  0
 37 32  1  0  0  0  0
M  END
>  <MODEL>
5

>  <REMARK>
 VINA RESULT:      -7.5      3.430      8.066
  Name = 
  3 active torsions:
  status: ('A' for Active; 'I' for Inactive)
    1  A    between atoms: C_4  and  O_37
    2  A    between atoms: C_8  and  C_18
    3  A    between atoms: C_23  and  C_30
                            x       y       z     vdW  Elec       q    Type
                         _______ _______ _______ _____ _____    ______ ____

>  <TORSDO>
F 3

$$$$
=
 OpenBabel11112417223D

 37 42  0  0  1  0  0  0  0  0999 V2000
  186.4620  177.0760  143.5140 C   0  0  0  0  0  0  0  0  0  0  0  0
  190.1820  175.4760  143.1740 C   0  0  2  0  0  3  0  0  0  0  0  0
  190.2390  172.1660  141.5070 O   0  0  0  0  0  0  0  0  0  0  0  0
  188.8900  177.2020  144.1180 C   0  0  1  0  0  3  0  0  0  0  0  0
  190.1720  174.5990  141.9650 C   0  0  1  0  0  3  0  0  0  0  0  0
  189.2190  176.5350  142.8020 C   0  0  2  0  0  3  0  0  0  0  0  0
  190.7150  173.2040  142.3440 C   0  0  2  0  0  3  0  0  0  0  0  0
  190.1390  177.9160  144.5910 C   0  0  0  0  0  3  0  0  0  0  0  0
  188.1190  175.9130  142.0670 N   0  0  2  0  0  0  0  0  0  0  0  0
  185.6440  177.7980  142.4610 C   0  0  0  0  0  1  0  0  0  0  0  0
  192.7340  175.5510  143.2330 C   0  0  0  0  0  2  0  0  0  0  0  0
  191.3470  177.3540  144.3310 C   0  0  0  0  0  3  0  0  0  0  0  0
  186.9520  175.7200  142.9360 C   0  0  0  0  0  2  0  0  0  0  0  0
  189.4590  172.3110  139.2380 C   0  0  1  0  0  3  0  0  0  0  0  0
  190.6470  172.4260  140.1880 C   0  0  0  0  0  2  0  0  0  0  0  0
  191.4360  176.1270  143.5600 N   0  0  0  0  0  0  0  0  0  0  0  0
  188.6630  174.6170  141.6240 C   0  0  1  0  0  3  0  0  0  0  0  0
  187.6130  178.0060  143.9700 C   0  0  0  0  0  2  0  0  0  0  0  0
  192.2590  173.1770  142.5040 C   0  0  1  0  0  3  0  0  0  0  0  0
  185.5670  176.7910  144.7020 C   0  0  0  0  0  1  0  0  0  0  0  0
  188.2010  173.0330  139.7360 C   0  0  0  0  0  2  0  0  0  0  0  0
  188.4510  174.4860  140.1210 C   0  0  0  0  0  2  0  0  0  0  0  0
  192.7770  174.0790  143.6270 C   0  0  0  0  0  2  0  0  0  0  0  0
  192.4300  171.1030  143.8920 C   0  0  0  0  0  3  0  0  0  0  0  0
  192.7680  171.7820  142.7160 C   0  0  0  0  0  0  0  0  0  0  0  0
  193.5750  171.1500  141.7570 C   0  0  0  0  0  3  0  0  0  0  0  0
  194.8950  169.1850  140.9620 C   0  0  0  0  0  1  0  0  0  0  0  0
  193.7010  169.1770  143.1560 C   0  0  0  0  0  3  0  0  0  0  0  0
  194.0400  169.8500  141.9790 C   0  0  0  0  0  0  0  0  0  0  0  0
  192.8960  169.8030  144.1120 C   0  0  0  0  0  3  0  0  0  0  0  0
  190.8110  173.8360  135.3500 O   0  0  0  0  0  0  0  0  0  0  0  0
  191.2490  174.3060  136.4330 C   0  0  0  0  0  0  0  0  0  0  0  0
  189.8330  172.7400  137.8570 C   0  0  0  0  0  0  0  0  0  0  0  0
  190.7910  173.7910  137.6920 N   0  0  0  0  0  2  0  0  0  0  0  0
  189.3180  172.1710  136.8540 O   0  0  0  0  0  0  0  0  0  0  0  0
  193.3960  175.2770  137.1390 C   0  0  0  0  0  1  0  0  0  0  0  0
  192.1900  175.3350  136.3930 O   0  0  0  0  0  0  0  0  0  0  0  0
  1 18  1  0  0  0  0
  1 20  1  0  0  0  0
  2 16  1  6  0  0  0
  3  7  1  0  0  0  0
  4 18  1  6  0  0  0
  4  8  1  0  0  0  0
  5  7  1  0  0  0  0
  5  2  1  0  0  0  0
  6  2  1  0  0  0  0
  6  4  1  0  0  0  0
  7 19  1  0  0  0  0
  9  6  1  0  0  0  0
  9 13  1  0  0  0  0
 10  1  1  0  0  0  0
 11 16  1  0  0  0  0
 11 23  1  0  0  0  0
 12  8  2  0  0  0  0
 13  1  1  0  0  0  0
 14 21  1  0  0  0  0
 14 15  1  0  0  0  0
 15  3  1  0  0  0  0
 16 12  1  0  0  0  0
 17  5  1  0  0  0  0
 17  9  1  0  0  0  0
 19 25  1  0  0  0  0
 19 23  1  0  0  0  0
 21 22  1  0  0  0  0
 22 17  1  0  0  0  0
 24 30  1  0  0  0  0
 25 24  2  0  0  0  0
 26 29  2  0  0  0  0
 26 25  1  0  0  0  0
 27 29  1  0  0  0  0
 28 30  2  0  0  0  0
 29 28  1  0  0  0  0
 31 32  2  0  0  0  0
 32 34  1  0  0  0  0
 33 14  1  0  0  0  0
 34 33  1  0  0  0  0
 35 33  2  0  0  0  0
 37 32  1  0  0  0  0
 37 36  1  0  0  0  0
M  END
>  <MODEL>
6

>  <REMARK>
 VINA RESULT:      -7.3      2.962      6.267
  Name = 
  3 active torsions:
  status: ('A' for Active; 'I' for Inactive)
    1  A    between atoms: C_4  and  O_37
    2  A    between atoms: C_8  and  C_18
    3  A    between atoms: C_23  and  C_30
                            x       y       z     vdW  Elec       q    Type
                         _______ _______ _______ _____ _____    ______ ____

>  <TORSDO>
F 3

$$$$
=
 OpenBabel11112417223D

 37 42  0  0  1  0  0  0  0  0999 V2000
  195.7360  168.9800  146.4310 C   0  0  0  0  0  0  0  0  0  0  0  0
  192.9550  171.0860  144.3470 C   0  0  2  0  0  3  0  0  0  0  0  0
  192.9040  174.7020  145.1550 O   0  0  0  0  0  0  0  0  0  0  0  0
  193.7670  168.9420  144.8820 C   0  0  1  0  0  3  0  0  0  0  0  0
  193.4700  172.4810  144.2170 C   0  0  1  0  0  3  0  0  0  0  0  0
  194.2010  170.2900  144.3500 C   0  0  2  0  0  3  0  0  0  0  0  0
  192.3830  173.4710  144.6890 C   0  0  2  0  0  3  0  0  0  0  0  0
  192.8670  168.3110  143.8410 C   0  0  0  0  0  3  0  0  0  0  0  0
  195.2090  171.0240  145.1130 N   0  0  2  0  0  0  0  0  0  0  0  0
  197.2270  168.8690  146.1730 C   0  0  0  0  0  1  0  0  0  0  0  0
  191.2510  171.4250  142.4760 C   0  0  0  0  0  2  0  0  0  0  0  0
  192.0500  169.1150  143.1140 C   0  0  0  0  0  3  0  0  0  0  0  0
  195.3360  170.4790  146.4700 C   0  0  0  0  0  2  0  0  0  0  0  0
  194.9850  175.7600  144.5810 C   0  0  1  0  0  3  0  0  0  0  0  0
  193.6030  175.3230  144.1060 C   0  0  0  0  0  2  0  0  0  0  0  0
  192.0880  170.5560  143.2920 N   0  0  0  0  0  0  0  0  0  0  0  0
  194.7040  172.4070  145.1490 C   0  0  1  0  0  3  0  0  0  0  0  0
  194.9860  168.1680  145.3460 C   0  0  0  0  0  2  0  0  0  0  0  0
  191.2450  173.6620  143.6520 C   0  0  1  0  0  3  0  0  0  0  0  0
  195.4390  168.3710  147.7860 C   0  0  0  0  0  1  0  0  0  0  0  0
  195.7320  174.6830  145.3770 C   0  0  0  0  0  2  0  0  0  0  0  0
  195.8030  173.3410  144.6580 C   0  0  0  0  0  2  0  0  0  0  0  0
  190.4590  172.3820  143.3580 C   0  0  0  0  0  2  0  0  0  0  0  0
  189.9960  175.7770  143.1760 C   0  0  0  0  0  3  0  0  0  0  0  0
  190.2910  174.7420  144.0700 C   0  0  0  0  0  0  0  0  0  0  0  0
  189.6920  174.7290  145.3400 C   0  0  0  0  0  3  0  0  0  0  0  0
  188.1780  175.7320  147.0540 C   0  0  0  0  0  1  0  0  0  0  0  0
  188.5180  176.7800  144.8120 C   0  0  0  0  0  3  0  0  0  0  0  0
  188.8080  175.7480  145.7080 C   0  0  0  0  0  0  0  0  0  0  0  0
  189.1120  176.7950  143.5460 C   0  0  0  0  0  3  0  0  0  0  0  0
  197.1800  177.0320  140.9990 O   0  0  0  0  0  0  0  0  0  0  0  0
  196.2670  176.1670  140.9420 C   0  0  0  0  0  0  0  0  0  0  0  0
  195.8050  176.2760  143.4440 C   0  0  0  0  0  0  0  0  0  0  0  0
  195.5640  175.7670  142.1270 N   0  0  0  0  0  2  0  0  0  0  0  0
  196.6870  177.1570  143.6450 O   0  0  0  0  0  0  0  0  0  0  0  0
  195.3190  174.3330  139.6060 C   0  0  0  0  0  1  0  0  0  0  0  0
  195.9460  175.6020  139.7080 O   0  0  0  0  0  0  0  0  0  0  0  0
  1 13  1  0  0  0  0
  1 20  1  0  0  0  0
  2 16  1  6  0  0  0
  2  6  1  0  0  0  0
  4  8  1  6  0  0  0
  4 18  1  0  0  0  0
  5  2  1  0  0  0  0
  5  7  1  0  0  0  0
  5 17  1  0  0  0  0
  6  4  1  0  0  0  0
  6  9  1  0  0  0  0
  7  3  1  0  0  0  0
  9 17  1  0  0  0  0
  9 13  1  0  0  0  0
 10  1  1  0  0  0  0
 11 16  1  0  0  0  0
 11 23  1  0  0  0  0
 12 16  1  0  0  0  0
 12  8  2  0  0  0  0
 14 21  1  0  0  0  0
 15 14  1  0  0  0  0
 15  3  1  0  0  0  0
 18  1  1  0  0  0  0
 19 25  1  0  0  0  0
 19  7  1  0  0  0  0
 22 17  1  0  0  0  0
 22 21  1  0  0  0  0
 23 19  1  0  0  0  0
 24 30  2  0  0  0  0
 24 25  1  0  0  0  0
 25 26  2  0  0  0  0
 26 29  1  0  0  0  0
 28 29  2  0  0  0  0
 29 27  1  0  0  0  0
 30 28  1  0  0  0  0
 32 31  2  0  0  0  0
 32 34  1  0  0  0  0
 33 35  2  0  0  0  0
 33 14  1  0  0  0  0
 34 33  1  0  0  0  0
 36 37  1  0  0  0  0
 37 32  1  0  0  0  0
M  END
>  <MODEL>
7

>  <REMARK>
 VINA RESULT:      -7.2      4.080      7.637
  Name = 
  3 active torsions:
  status: ('A' for Active; 'I' for Inactive)
    1  A    between atoms: C_4  and  O_37
    2  A    between atoms: C_8  and  C_18
    3  A    between atoms: C_23  and  C_30
                            x       y       z     vdW  Elec       q    Type
                         _______ _______ _______ _____ _____    ______ ____

>  <TORSDO>
F 3

$$$$
=
 OpenBabel11112417223D

 37 42  0  0  1  0  0  0  0  0999 V2000
  191.5070  169.7470  141.3170 C   0  0  0  0  0  0  0  0  0  0  0  0
  189.9280  173.4310  141.9840 C   0  0  2  0  0  3  0  0  0  0  0  0
  190.7160  174.8120  145.3320 O   0  0  0  0  0  0  0  0  0  0  0  0
  189.9790  171.5740  140.5390 C   0  0  1  0  0  3  0  0  0  0  0  0
  190.8260  174.1230  142.9560 C   0  0  1  0  0  3  0  0  0  0  0  0
  190.8730  172.5750  141.2370 C   0  0  2  0  0  3  0  0  0  0  0  0
  189.9830  174.6680  144.1280 C   0  0  2  0  0  3  0  0  0  0  0  0
  189.1810  172.3270  139.4960 C   0  0  0  0  0  3  0  0  0  0  0  0
  191.8600  172.0540  142.1810 N   0  0  2  0  0  0  0  0  0  0  0  0
  192.9270  169.3840  140.9280 C   0  0  0  0  0  1  0  0  0  0  0  0
  188.8210  175.6230  141.2810 C   0  0  0  0  0  2  0  0  0  0  0  0
  188.7920  173.5990  139.7690 C   0  0  0  0  0  3  0  0  0  0  0  0
  191.5410  170.6730  142.5630 C   0  0  0  0  0  2  0  0  0  0  0  0
  193.0810  175.1330  145.6150 C   0  0  1  0  0  3  0  0  0  0  0  0
  191.7650  175.7210  145.1170 C   0  0  0  0  0  2  0  0  0  0  0  0
  189.1910  174.2400  141.0100 N   0  0  0  0  0  0  0  0  0  0  0  0
  191.7640  172.9550  143.3430 C   0  0  1  0  0  3  0  0  0  0  0  0
  190.8070  170.3860  140.0910 C   0  0  0  0  0  2  0  0  0  0  0  0
  189.1890  175.9510  143.7610 C   0  0  1  0  0  3  0  0  0  0  0  0
  190.7730  168.4760  141.6890 C   0  0  0  0  0  1  0  0  0  0  0  0
  193.3120  173.6820  145.1760 C   0  0  0  0  0  2  0  0  0  0  0  0
  193.1580  173.4730  143.6740 C   0  0  0  0  0  2  0  0  0  0  0  0
  188.1580  175.7370  142.6480 C   0  0  0  0  0  2  0  0  0  0  0  0
  189.2700  177.2330  145.9070 C   0  0  0  0  0  3  0  0  0  0  0  0
  188.5080  176.5420  144.9590 C   0  0  0  0  0  0  0  0  0  0  0  0
  187.1210  176.4140  145.1420 C   0  0  0  0  0  3  0  0  0  0  0  0
  185.0430  176.8320  146.4600 C   0  0  0  0  0  1  0  0  0  0  0  0
  187.2760  177.6590  147.2140 C   0  0  0  0  0  3  0  0  0  0  0  0
  186.5100  176.9710  146.2680 C   0  0  0  0  0  0  0  0  0  0  0  0
  188.6560  177.7890  147.0330 C   0  0  0  0  0  3  0  0  0  0  0  0
  196.4940  177.5050  144.2020 O   0  0  0  0  0  0  0  0  0  0  0  0
  196.0240  176.5530  143.5240 C   0  0  0  0  0  0  0  0  0  0  0  0
  194.2340  176.0120  145.2520 C   0  0  0  0  0  0  0  0  0  0  0  0
  194.9080  175.7920  144.0080 N   0  0  0  0  0  2  0  0  0  0  0  0
  194.5940  176.9400  146.0280 O   0  0  0  0  0  0  0  0  0  0  0  0
  195.9110  176.4480  141.0700 C   0  0  0  0  0  1  0  0  0  0  0  0
  196.6030  176.2490  142.2930 O   0  0  0  0  0  0  0  0  0  0  0  0
  1 20  1  0  0  0  0
  1 13  1  0  0  0  0
  2 16  1  6  0  0  0
  2  5  1  0  0  0  0
  4  8  1  6  0  0  0
  4  6  1  0  0  0  0
  5 17  1  0  0  0  0
  5  7  1  0  0  0  0
  6  2  1  0  0  0  0
  6  9  1  0  0  0  0
  7  3  1  0  0  0  0
  8 12  2  0  0  0  0
  9 13  1  0  0  0  0
  9 17  1  0  0  0  0
 10  1  1  0  0  0  0
 11 23  1  0  0  0  0
 12 16  1  0  0  0  0
 15  3  1  0  0  0  0
 15 14  1  0  0  0  0
 16 11  1  0  0  0  0
 17 22  1  0  0  0  0
 18  4  1  0  0  0  0
 18  1  1  0  0  0  0
 19  7  1  0  0  0  0
 19 25  1  0  0  0  0
 21 14  1  0  0  0  0
 22 21  1  0  0  0  0
 23 19  1  0  0  0  0
 24 30  1  0  0  0  0
 25 26  1  0  0  0  0
 25 24  2  0  0  0  0
 26 29  2  0  0  0  0
 29 27  1  0  0  0  0
 29 28  1  0  0  0  0
 30 28  2  0  0  0  0
 32 34  1  0  0  0  0
 32 31  2  0  0  0  0
 33 14  1  0  0  0  0
 33 35  2  0  0  0  0
 34 33  1  0  0  0  0
 36 37  1  0  0  0  0
 37 32  1  0  0  0  0
M  END
>  <MODEL>
8

>  <REMARK>
 VINA RESULT:      -7.2      3.239      7.975
  Name = 
  3 active torsions:
  status: ('A' for Active; 'I' for Inactive)
    1  A    between atoms: C_4  and  O_37
    2  A    between atoms: C_8  and  C_18
    3  A    between atoms: C_23  and  C_30
                            x       y       z     vdW  Elec       q    Type
                         _______ _______ _______ _____ _____    ______ ____

>  <TORSDO>
F 3

$$$$
=
 OpenBabel11112417223D

 37 42  0  0  1  0  0  0  0  0999 V2000
  187.6850  176.7320  145.4340 C   0  0  0  0  0  0  0  0  0  0  0  0
  191.4370  175.9350  144.0920 C   0  0  2  0  0  3  0  0  0  0  0  0
  192.4500  172.3940  144.5010 O   0  0  0  0  0  0  0  0  0  0  0  0
  189.8630  177.6190  144.5710 C   0  0  1  0  0  3  0  0  0  0  0  0
  191.4550  174.5030  143.6690 C   0  0  1  0  0  3  0  0  0  0  0  0
  190.0440  176.3320  143.7970 C   0  0  2  0  0  3  0  0  0  0  0  0
  192.6440  173.7870  144.3460 C   0  0  2  0  0  3  0  0  0  0  0  0
  190.7460  178.6660  143.9250 C   0  0  0  0  0  3  0  0  0  0  0  0
  189.1690  175.2120  144.1370 N   0  0  2  0  0  0  0  0  0  0  0  0
  186.3590  176.4660  144.7470 C   0  0  0  0  0  1  0  0  0  0  0  0
  193.5800  176.4560  142.8050 C   0  0  0  0  0  2  0  0  0  0  0  0
  191.9380  178.2800  143.4030 C   0  0  0  0  0  3  0  0  0  0  0  0
  188.5260  175.4270  145.4390 C   0  0  0  0  0  2  0  0  0  0  0  0
  191.0480  170.9240  143.2150 C   0  0  1  0  0  3  0  0  0  0  0  0
  192.2860  171.8150  143.2310 C   0  0  0  0  0  2  0  0  0  0  0  0
  192.3260  176.8800  143.4120 N   0  0  0  0  0  0  0  0  0  0  0  0
  190.0690  174.0470  144.1830 C   0  0  1  0  0  3  0  0  0  0  0  0
  188.3840  177.9150  144.7180 C   0  0  0  0  0  2  0  0  0  0  0  0
  194.0100  174.1270  143.6910 C   0  0  1  0  0  3  0  0  0  0  0  0
  187.4090  177.1260  146.8700 C   0  0  0  0  0  1  0  0  0  0  0  0
  189.8140  171.5740  143.8520 C   0  0  0  0  0  2  0  0  0  0  0  0
  189.4980  172.9540  143.2870 C   0  0  0  0  0  2  0  0  0  0  0  0
  194.3840  175.6090  143.7840 C   0  0  0  0  0  2  0  0  0  0  0  0
  195.5630  173.5620  145.5680 C   0  0  0  0  0  3  0  0  0  0  0  0
  195.1200  173.3000  144.2670 C   0  0  0  0  0  0  0  0  0  0  0  0
  195.7190  172.2690  143.5240 C   0  0  0  0  0  3  0  0  0  0  0  0
  197.3870  170.4260  143.2910 C   0  0  0  0  0  1  0  0  0  0  0  0
  197.1940  171.7810  145.3810 C   0  0  0  0  0  3  0  0  0  0  0  0
  196.7540  171.5140  144.0820 C   0  0  0  0  0  0  0  0  0  0  0  0
  196.5990  172.8050  146.1240 C   0  0  0  0  0  3  0  0  0  0  0  0
  190.2950  169.8380  139.0290 O   0  0  0  0  0  0  0  0  0  0  0  0
  190.6280  171.0070  139.3590 C   0  0  0  0  0  0  0  0  0  0  0  0
  190.7620  170.4270  141.8350 C   0  0  0  0  0  0  0  0  0  0  0  0
  190.8680  171.3380  140.7350 N   0  0  0  0  0  2  0  0  0  0  0  0
  190.4460  169.2200  141.6480 O   0  0  0  0  0  0  0  0  0  0  0  0
  190.2520  173.2920  138.5320 C   0  0  0  0  0  1  0  0  0  0  0  0
  190.7620  171.9770  138.3680 O   0  0  0  0  0  0  0  0  0  0  0  0
  1 13  1  0  0  0  0
  1 20  1  0  0  0  0
  2 16  1  6  0  0  0
  4  8  1  6  0  0  0
  4 18  1  0  0  0  0
  5  2  1  0  0  0  0
  5 17  1  0  0  0  0
  5  7  1  0  0  0  0
  6  2  1  0  0  0  0
  6  9  1  0  0  0  0
  6  4  1  0  0  0  0
  7  3  1  0  0  0  0
  9 17  1  0  0  0  0
  9 13  1  0  0  0  0
 10  1  1  0  0  0  0
 11 16  1  0  0  0  0
 11 23  1  0  0  0  0
 12 16  1  0  0  0  0
 12  8  2  0  0  0  0
 14 15  1  0  0  0  0
 14 21  1  0  0  0  0
 15  3  1  0  0  0  0
 18  1  1  0  0  0  0
 19 23  1  0  0  0  0
 19 25  1  0  0  0  0
 19  7  1  0  0  0  0
 22 21  1  0  0  0  0
 22 17  1  0  0  0  0
 24 30  1  0  0  0  0
 25 24  2  0  0  0  0
 26 29  2  0  0  0  0
 26 25  1  0  0  0  0
 27 29  1  0  0  0  0
 28 30  2  0  0  0  0
 29 28  1  0  0  0  0
 31 32  2  0  0  0  0
 32 34  1  0  0  0  0
 33 14  1  0  0  0  0
 34 33  1  0  0  0  0
 35 33  2  0  0  0  0
 37 36  1  0  0  0  0
 37 32  1  0  0  0  0
M  END
>  <MODEL>
9

>  <REMARK>
 VINA RESULT:      -7.1      3.133      6.669
  Name = 
  3 active torsions:
  status: ('A' for Active; 'I' for Inactive)
    1  A    between atoms: C_4  and  O_37
    2  A    between atoms: C_8  and  C_18
    3  A    between atoms: C_23  and  C_30
                            x       y       z     vdW  Elec       q    Type
                         _______ _______ _______ _____ _____    ______ ____

>  <TORSDO>
F 3

$$$$
