=
 OpenBabel11112417373D

 28 32  0  0  1  0  0  0  0  0999 V2000
  186.7270  178.3010  144.2110 C   0  0  0  0  0  0  0  0  0  0  0  0
  189.7420  178.0310  145.0730 O   0  0  0  0  0  0  0  0  0  0  0  0
  187.9490  173.3650  141.0030 O   0  0  0  0  0  0  0  0  0  0  0  0
  185.0560  177.7720  146.4030 C   0  0  0  0  0  3  0  0  0  0  0  0
  189.5560  174.0220  142.5830 N   0  0  0  0  0  0  0  0  0  0  0  0
  187.5140  178.6400  142.9870 C   0  0  0  0  0  2  0  0  0  0  0  0
  188.8940  177.6300  147.3380 O   0  0  0  0  0  0  0  0  0  0  0  0
  189.6060  177.0110  146.1690 S   0  0  0  0  0  0  0  0  0  0  0  0
  191.7420  175.5600  145.6240 C   0  0  1  0  0  3  0  0  0  0  0  0
  188.7200  175.5930  145.6250 N   0  0  2  0  0  0  0  0  0  0  0  0
  185.7130  177.1990  140.1570 O   0  0  0  0  0  0  0  0  0  0  0  0
  188.5350  176.0390  143.2790 N   0  0  1  0  0  0  0  0  0  0  0  0
  190.8790  174.3860  145.5850 N   0  0  0  0  0  2  0  0  0  0  0  0
  191.2290  176.5210  146.6690 C   0  0  0  0  0  2  0  0  0  0  0  0
  186.6590  177.3660  140.9680 C   0  0  0  0  0  0  0  0  0  0  0  0
  186.8130  177.0500  144.8760 C   0  0  0  0  0  0  0  0  0  0  0  0
  188.3750  174.1950  141.8490 C   0  0  0  0  0  0  0  0  0  0  0  0
  193.1510  175.1380  145.9800 C   0  0  0  0  0  1  0  0  0  0  0  0
  187.7810  176.3810  140.9840 C   0  0  0  0  0  2  0  0  0  0  0  0
  185.9630  176.8070  145.9650 C   0  0  0  0  0  3  0  0  0  0  0  0
  185.8120  179.2620  144.6620 C   0  0  0  0  0  3  0  0  0  0  0  0
  184.9840  179.0030  145.7540 C   0  0  0  0  0  3  0  0  0  0  0  0
  186.6580  178.5130  141.8180 N   0  0  0  0  0  2  0  0  0  0  0  0
  189.7030  175.1490  143.4790 C   0  0  1  0  0  3  0  0  0  0  0  0
  187.7130  175.4640  142.1960 C   0  0  2  0  0  3  0  0  0  0  0  0
  189.6000  174.6680  144.9150 C   0  0  2  0  0  3  0  0  0  0  0  0
  190.5510  172.9870  142.3580 C   0  0  0  0  0  1  0  0  0  0  0  0
  187.7900  175.9360  144.5400 C   0  0  2  0  0  3  0  0  0  0  0  0
  1 21  2  0  0  0  0
  1 16  1  0  0  0  0
  2  8  2  0  0  0  0
  3 17  2  0  0  0  0
  5 24  1  0  0  0  0
  6  1  1  0  0  0  0
  8 14  1  0  0  0  0
  8  7  2  0  0  0  0
  9 18  1  1  0  0  0
  9 14  1  0  0  0  0
 10  8  1  6  0  0  0
 11 15  2  0  0  0  0
 12 24  1  0  0  0  0
 12 28  1  0  0  0  0
 13  9  1  0  0  0  0
 15 19  1  0  0  0  0
 15 23  1  0  0  0  0
 16 20  2  0  0  0  0
 17 25  1  0  0  0  0
 17  5  1  0  0  0  0
 19 25  1  0  0  0  0
 20  4  1  0  0  0  0
 21 22  1  0  0  0  0
 22  4  2  0  0  0  0
 23  6  1  0  0  0  0
 24 26  1  0  0  0  0
 25 12  1  0  0  0  0
 26 13  1  0  0  0  0
 26 10  1  0  0  0  0
 27  5  1  0  0  0  0
 28 16  1  0  0  0  0
 28 10  1  0  0  0  0
M  END
>  <MODEL>
1

>  <REMARK>
 VINA RESULT:      -9.0      0.000      0.000
  Name = 
  0 active torsions:
  status: ('A' for Active; 'I' for Inactive)
                            x       y       z     vdW  Elec       q    Type
                         _______ _______ _______ _____ _____    ______ ____

>  <TORSDO>
F 0

$$$$
=
 OpenBabel11112417373D

 28 32  0  0  1  0  0  0  0  0999 V2000
  190.7030  175.0120  144.4770 C   0  0  0  0  0  0  0  0  0  0  0  0
  188.1900  175.6260  146.2700 O   0  0  0  0  0  0  0  0  0  0  0  0
  187.0660  176.7910  140.0310 O   0  0  0  0  0  0  0  0  0  0  0  0
  192.7350  176.8720  145.0130 C   0  0  0  0  0  3  0  0  0  0  0  0
  186.3300  177.1960  142.2240 N   0  0  0  0  0  0  0  0  0  0  0  0
  189.7120  173.9470  144.1380 C   0  0  0  0  0  2  0  0  0  0  0  0
  189.5470  177.3950  147.2910 O   0  0  0  0  0  0  0  0  0  0  0  0
  188.3460  177.1130  146.4330 S   0  0  0  0  0  0  0  0  0  0  0  0
  185.8110  177.8030  146.1920 C   0  0  1  0  0  3  0  0  0  0  0  0
  188.5310  177.9160  144.8800 N   0  0  2  0  0  0  0  0  0  0  0  0
  189.9830  173.3770  140.5420 O   0  0  0  0  0  0  0  0  0  0  0  0
  188.0890  176.1080  143.3730 N   0  0  1  0  0  0  0  0  0  0  0  0
  186.2110  178.7320  145.1420 N   0  0  0  0  0  2  0  0  0  0  0  0
  186.8990  177.7330  147.2360 C   0  0  0  0  0  2  0  0  0  0  0  0
  189.4440  173.7120  141.6270 C   0  0  0  0  0  0  0  0  0  0  0  0
  190.4520  176.3990  144.3050 C   0  0  0  0  0  0  0  0  0  0  0  0
  187.2090  176.6550  141.2750 C   0  0  0  0  0  0  0  0  0  0  0  0
  184.5310  178.2920  146.8350 C   0  0  0  0  0  1  0  0  0  0  0  0
  188.1390  174.4390  141.5940 C   0  0  0  0  0  2  0  0  0  0  0  0
  191.4850  177.3080  144.5730 C   0  0  0  0  0  3  0  0  0  0  0  0
  191.9630  174.5880  144.9210 C   0  0  0  0  0  3  0  0  0  0  0  0
  192.9720  175.5110  145.1920 C   0  0  0  0  0  3  0  0  0  0  0  0
  190.0690  173.3520  142.8600 N   0  0  0  0  0  2  0  0  0  0  0  0
  186.8310  176.8730  143.5430 C   0  0  1  0  0  3  0  0  0  0  0  0
  188.3040  175.9150  141.9250 C   0  0  2  0  0  3  0  0  0  0  0  0
  187.2310  178.1510  144.2560 C   0  0  2  0  0  3  0  0  0  0  0  0
  185.0480  177.8150  141.9350 C   0  0  0  0  0  1  0  0  0  0  0  0
  189.1260  177.0120  143.8860 C   0  0  2  0  0  3  0  0  0  0  0  0
  1 21  1  0  0  0  0
  2  8  2  0  0  0  0
  3 17  2  0  0  0  0
  4 22  1  0  0  0  0
  5 24  1  0  0  0  0
  6  1  1  0  0  0  0
  8 14  1  0  0  0  0
  8  7  2  0  0  0  0
  9 18  1  1  0  0  0
  9 14  1  0  0  0  0
 10  8  1  1  0  0  0
 11 15  2  0  0  0  0
 12 24  1  0  0  0  0
 12 28  1  0  0  0  0
 13  9  1  0  0  0  0
 15 23  1  0  0  0  0
 16  1  2  0  0  0  0
 16 20  1  0  0  0  0
 17 25  1  0  0  0  0
 17  5  1  0  0  0  0
 19 15  1  0  0  0  0
 19 25  1  0  0  0  0
 20  4  2  0  0  0  0
 21 22  2  0  0  0  0
 23  6  1  0  0  0  0
 24 26  1  0  0  0  0
 25 12  1  0  0  0  0
 26 10  1  0  0  0  0
 26 13  1  0  0  0  0
 27  5  1  0  0  0  0
 28 16  1  0  0  0  0
 28 10  1  0  0  0  0
M  END
>  <MODEL>
2

>  <REMARK>
 VINA RESULT:      -8.7      1.537      5.111
  Name = 
  0 active torsions:
  status: ('A' for Active; 'I' for Inactive)
                            x       y       z     vdW  Elec       q    Type
                         _______ _______ _______ _____ _____    ______ ____

>  <TORSDO>
F 0

$$$$
=
 OpenBabel11112417373D

 28 32  0  0  1  0  0  0  0  0999 V2000
  188.7320  176.0880  145.6560 C   0  0  0  0  0  0  0  0  0  0  0  0
  189.4880  173.6590  143.8040 O   0  0  0  0  0  0  0  0  0  0  0  0
  194.6290  177.2260  145.3510 O   0  0  0  0  0  0  0  0  0  0  0  0
  187.2030  177.9490  144.2150 C   0  0  0  0  0  3  0  0  0  0  0  0
  193.7860  175.6140  143.8660 N   0  0  0  0  0  0  0  0  0  0  0  0
  189.5030  175.1550  146.5320 C   0  0  0  0  0  2  0  0  0  0  0  0
  188.1160  174.7460  142.0860 O   0  0  0  0  0  0  0  0  0  0  0  0
  189.5140  174.3510  142.4690 S   0  0  0  0  0  0  0  0  0  0  0  0
  191.6440  173.1670  141.4550 C   0  0  1  0  0  3  0  0  0  0  0  0
  190.5400  175.7780  142.5030 N   0  0  2  0  0  0  0  0  0  0  0  0
  191.5870  177.2340  148.6920 O   0  0  0  0  0  0  0  0  0  0  0  0
  191.5580  175.5620  144.6600 N   0  0  1  0  0  0  0  0  0  0  0  0
  192.2010  174.4900  141.1980 N   0  0  0  0  0  2  0  0  0  0  0  0
  190.1460  173.2130  141.2720 C   0  0  0  0  0  2  0  0  0  0  0  0
  191.3200  176.3850  147.8040 C   0  0  0  0  0  0  0  0  0  0  0  0
  189.2620  176.6710  144.4750 C   0  0  0  0  0  0  0  0  0  0  0  0
  193.6790  176.5060  144.9410 C   0  0  0  0  0  0  0  0  0  0  0  0
  192.2370  172.1730  140.4790 C   0  0  0  0  0  1  0  0  0  0  0  0
  192.4180  175.8930  146.9190 C   0  0  0  0  0  2  0  0  0  0  0  0
  188.4810  177.6030  143.7760 C   0  0  0  0  0  3  0  0  0  0  0  0
  187.4470  176.4440  146.0860 C   0  0  0  0  0  3  0  0  0  0  0  0
  186.6830  177.3650  145.3690 C   0  0  0  0  0  3  0  0  0  0  0  0
  189.9880  175.8820  147.6950 N   0  0  0  0  0  2  0  0  0  0  0  0
  192.4940  174.9950  143.6600 C   0  0  1  0  0  3  0  0  0  0  0  0
  192.3250  176.4840  145.5200 C   0  0  2  0  0  3  0  0  0  0  0  0
  191.9430  175.4180  142.3100 C   0  0  2  0  0  3  0  0  0  0  0  0
  195.0180  175.2410  143.1920 C   0  0  0  0  0  1  0  0  0  0  0  0
  190.6110  176.3450  143.8570 C   0  0  2  0  0  3  0  0  0  0  0  0
  1 21  1  0  0  0  0
  1  6  1  0  0  0  0
  4 22  1  0  0  0  0
  5 17  1  0  0  0  0
  6 23  1  0  0  0  0
  7  8  2  0  0  0  0
  8  2  2  0  0  0  0
  9 18  1  6  0  0  0
 10  8  1  1  0  0  0
 10 28  1  0  0  0  0
 12 25  1  0  0  0  0
 13  9  1  0  0  0  0
 13 26  1  0  0  0  0
 14  9  1  0  0  0  0
 14  8  1  0  0  0  0
 15 11  2  0  0  0  0
 16  1  2  0  0  0  0
 17  3  2  0  0  0  0
 17 25  1  0  0  0  0
 19 15  1  0  0  0  0
 20  4  2  0  0  0  0
 20 16  1  0  0  0  0
 22 21  2  0  0  0  0
 23 15  1  0  0  0  0
 24  5  1  0  0  0  0
 24 12  1  0  0  0  0
 25 19  1  0  0  0  0
 26 10  1  0  0  0  0
 26 24  1  0  0  0  0
 27  5  1  0  0  0  0
 28 16  1  0  0  0  0
 28 12  1  0  0  0  0
M  END
>  <MODEL>
3

>  <REMARK>
 VINA RESULT:      -8.1      2.464      5.449
  Name = 
  0 active torsions:
  status: ('A' for Active; 'I' for Inactive)
                            x       y       z     vdW  Elec       q    Type
                         _______ _______ _______ _____ _____    ______ ____

>  <TORSDO>
F 0

$$$$
=
 OpenBabel11112417373D

 28 32  0  0  1  0  0  0  0  0999 V2000
  190.5520  174.7930  141.9900 C   0  0  0  0  0  0  0  0  0  0  0  0
  189.0240  177.5440  142.0740 O   0  0  0  0  0  0  0  0  0  0  0  0
  188.9410  174.5410  147.7770 O   0  0  0  0  0  0  0  0  0  0  0  0
  189.1380  172.9640  140.3990 C   0  0  0  0  0  3  0  0  0  0  0  0
  187.9370  176.2160  146.4730 N   0  0  0  0  0  0  0  0  0  0  0  0
  191.4090  175.6900  142.8220 C   0  0  0  0  0  2  0  0  0  0  0  0
  187.4420  176.5330  140.4970 O   0  0  0  0  0  0  0  0  0  0  0  0
  187.6120  177.0600  141.8930 S   0  0  0  0  0  0  0  0  0  0  0  0
  186.4240  178.6600  143.6230 C   0  0  1  0  0  3  0  0  0  0  0  0
  187.2090  175.7980  143.0500 N   0  0  2  0  0  0  0  0  0  0  0  0
  192.7520  173.6340  145.5240 O   0  0  0  0  0  0  0  0  0  0  0  0
  189.1380  175.8440  144.4690 N   0  0  1  0  0  0  0  0  0  0  0  0
  185.8470  177.4780  144.2520 N   0  0  0  0  0  2  0  0  0  0  0  0
  186.5250  178.4330  142.1340 C   0  0  0  0  0  2  0  0  0  0  0  0
  192.0860  174.5560  144.9870 C   0  0  0  0  0  0  0  0  0  0  0  0
  189.2110  174.4650  142.3180 C   0  0  0  0  0  0  0  0  0  0  0  0
  188.8470  175.1730  146.6910 C   0  0  0  0  0  0  0  0  0  0  0  0
  185.5340  179.8550  143.8880 C   0  0  0  0  0  1  0  0  0  0  0  0
  191.1040  175.3160  145.8150 C   0  0  0  0  0  2  0  0  0  0  0  0
  188.5270  173.5430  141.5120 C   0  0  0  0  0  3  0  0  0  0  0  0
  191.1530  174.2050  140.8680 C   0  0  0  0  0  3  0  0  0  0  0  0
  190.4500  173.2990  140.0740 C   0  0  0  0  0  3  0  0  0  0  0  0
  192.3190  174.8790  143.6160 N   0  0  0  0  0  2  0  0  0  0  0  0
  188.0870  176.6720  145.1080 C   0  0  1  0  0  3  0  0  0  0  0  0
  189.6690  174.9240  145.4950 C   0  0  2  0  0  3  0  0  0  0  0  0
  186.8160  176.3740  144.3340 C   0  0  2  0  0  3  0  0  0  0  0  0
  187.1120  176.8480  147.4890 C   0  0  0  0  0  1  0  0  0  0  0  0
  188.4100  175.0590  143.4650 C   0  0  2  0  0  3  0  0  0  0  0  0
  1 16  1  0  0  0  0
  1  6  1  0  0  0  0
  4 20  1  0  0  0  0
  5 17  1  0  0  0  0
  5 27  1  0  0  0  0
  6 23  1  0  0  0  0
  7  8  2  0  0  0  0
  8  2  2  0  0  0  0
  8 14  1  0  0  0  0
  9 18  1  6  0  0  0
  9 13  1  0  0  0  0
 10  8  1  6  0  0  0
 10 28  1  0  0  0  0
 10 26  1  0  0  0  0
 12 24  1  0  0  0  0
 12 25  1  0  0  0  0
 13 26  1  0  0  0  0
 14  9  1  0  0  0  0
 15 11  2  0  0  0  0
 15 19  1  0  0  0  0
 16 28  1  0  0  0  0
 17  3  2  0  0  0  0
 20 16  2  0  0  0  0
 21  1  2  0  0  0  0
 22  4  2  0  0  0  0
 22 21  1  0  0  0  0
 23 15  1  0  0  0  0
 24  5  1  0  0  0  0
 25 19  1  0  0  0  0
 25 17  1  0  0  0  0
 26 24  1  0  0  0  0
 28 12  1  0  0  0  0
M  END
>  <MODEL>
4

>  <REMARK>
 VINA RESULT:      -7.9      2.167      6.171
  Name = 
  0 active torsions:
  status: ('A' for Active; 'I' for Inactive)
                            x       y       z     vdW  Elec       q    Type
                         _______ _______ _______ _____ _____    ______ ____

>  <TORSDO>
F 0

$$$$
=
 OpenBabel11112417373D

 28 32  0  0  1  0  0  0  0  0999 V2000
  190.6490  175.4670  143.8660 C   0  0  0  0  0  0  0  0  0  0  0  0
  188.9860  177.3090  141.9300 O   0  0  0  0  0  0  0  0  0  0  0  0
  186.3420  176.9330  147.7970 O   0  0  0  0  0  0  0  0  0  0  0  0
  190.4730  172.7950  143.0260 C   0  0  0  0  0  3  0  0  0  0  0  0
  185.9610  177.5030  145.5510 N   0  0  0  0  0  0  0  0  0  0  0  0
  190.8470  176.8540  144.3820 C   0  0  0  0  0  2  0  0  0  0  0  0
  188.5650  175.2810  140.6170 O   0  0  0  0  0  0  0  0  0  0  0  0
  187.9330  176.3320  141.4860 S   0  0  0  0  0  0  0  0  0  0  0  0
  185.8500  177.9510  141.5290 C   0  0  1  0  0  3  0  0  0  0  0  0
  187.1450  175.5650  142.8570 N   0  0  2  0  0  0  0  0  0  0  0  0
  190.8450  176.6200  148.0260 O   0  0  0  0  0  0  0  0  0  0  0  0
  188.0530  176.8300  144.6760 N   0  0  1  0  0  0  0  0  0  0  0  0
  185.1750  176.9850  142.3880 N   0  0  0  0  0  2  0  0  0  0  0  0
  186.7260  177.2150  140.5440 C   0  0  0  0  0  2  0  0  0  0  0  0
  190.4460  176.9640  146.8840 C   0  0  0  0  0  0  0  0  0  0  0  0
  189.3780  174.8440  143.7600 C   0  0  0  0  0  0  0  0  0  0  0  0
  186.7450  177.0170  146.6060 C   0  0  0  0  0  0  0  0  0  0  0  0
  184.8180  178.7610  140.7750 C   0  0  0  0  0  1  0  0  0  0  0  0
  189.0970  177.5900  146.7460 C   0  0  0  0  0  2  0  0  0  0  0  0
  189.3160  173.5060  143.3440 C   0  0  0  0  0  3  0  0  0  0  0  0
  191.8030  174.7400  143.5420 C   0  0  0  0  0  3  0  0  0  0  0  0
  191.7180  173.4140  143.1200 C   0  0  0  0  0  3  0  0  0  0  0  0
  191.3090  176.7890  145.7600 N   0  0  0  0  0  2  0  0  0  0  0  0
  186.7360  177.4150  144.3320 C   0  0  1  0  0  3  0  0  0  0  0  0
  188.0860  176.6290  146.1390 C   0  0  2  0  0  3  0  0  0  0  0  0
  186.0850  176.4160  143.3930 C   0  0  2  0  0  3  0  0  0  0  0  0
  184.6660  178.1480  145.6840 C   0  0  0  0  0  1  0  0  0  0  0  0
  188.0400  175.5160  144.0210 C   0  0  2  0  0  3  0  0  0  0  0  0
  1  6  1  0  0  0  0
  4 22  2  0  0  0  0
  4 20  1  0  0  0  0
  5 27  1  0  0  0  0
  5 17  1  0  0  0  0
  6 23  1  0  0  0  0
  7  8  2  0  0  0  0
  8  2  2  0  0  0  0
  9 18  1  6  0  0  0
  9 13  1  0  0  0  0
 10  8  1  6  0  0  0
 10 26  1  0  0  0  0
 10 28  1  0  0  0  0
 12 25  1  0  0  0  0
 13 26  1  0  0  0  0
 14  8  1  0  0  0  0
 14  9  1  0  0  0  0
 15 11  2  0  0  0  0
 16  1  1  0  0  0  0
 16 28  1  0  0  0  0
 17  3  2  0  0  0  0
 19 15  1  0  0  0  0
 20 16  2  0  0  0  0
 21  1  2  0  0  0  0
 22 21  1  0  0  0  0
 23 15  1  0  0  0  0
 24 12  1  0  0  0  0
 24  5  1  0  0  0  0
 25 17  1  0  0  0  0
 25 19  1  0  0  0  0
 26 24  1  0  0  0  0
 28 12  1  0  0  0  0
M  END
>  <MODEL>
5

>  <REMARK>
 VINA RESULT:      -7.8      2.055      6.348
  Name = 
  0 active torsions:
  status: ('A' for Active; 'I' for Inactive)
                            x       y       z     vdW  Elec       q    Type
                         _______ _______ _______ _____ _____    ______ ____

>  <TORSDO>
F 0

$$$$
=
 OpenBabel11112417373D

 28 32  0  0  1  0  0  0  0  0999 V2000
  191.5920  173.3050  144.5290 C   0  0  0  0  0  0  0  0  0  0  0  0
  189.3900  174.7110  146.2840 O   0  0  0  0  0  0  0  0  0  0  0  0
  188.0830  175.0860  139.9830 O   0  0  0  0  0  0  0  0  0  0  0  0
  193.9920  174.7540  144.6660 C   0  0  0  0  0  3  0  0  0  0  0  0
  187.6020  175.9790  142.1010 N   0  0  0  0  0  0  0  0  0  0  0  0
  190.3850  172.4330  144.4120 C   0  0  0  0  0  2  0  0  0  0  0  0
  191.1470  176.2920  146.9390 O   0  0  0  0  0  0  0  0  0  0  0  0
  189.8550  176.1380  146.1860 S   0  0  0  0  0  0  0  0  0  0  0  0
  187.5010  177.3020  145.9260 C   0  0  1  0  0  3  0  0  0  0  0  0
  190.0870  176.6280  144.5140 N   0  0  2  0  0  0  0  0  0  0  0  0
  190.2780  171.2580  140.9570 O   0  0  0  0  0  0  0  0  0  0  0  0
  189.1820  174.7390  143.3520 N   0  0  1  0  0  0  0  0  0  0  0  0
  188.0050  177.9470  144.7200 N   0  0  0  0  0  2  0  0  0  0  0  0
  188.6250  177.1690  146.9250 C   0  0  0  0  0  2  0  0  0  0  0  0
  189.8960  171.8670  141.9890 C   0  0  0  0  0  0  0  0  0  0  0  0
  191.6150  174.6680  144.1330 C   0  0  0  0  0  0  0  0  0  0  0  0
  188.2830  175.1220  141.2260 C   0  0  0  0  0  0  0  0  0  0  0  0
  186.3960  178.1450  146.5240 C   0  0  0  0  0  1  0  0  0  0  0  0
  188.7670  172.8380  141.8810 C   0  0  0  0  0  2  0  0  0  0  0  0
  192.8280  175.3690  144.2050 C   0  0  0  0  0  3  0  0  0  0  0  0
  192.7690  172.7000  144.9910 C   0  0  0  0  0  3  0  0  0  0  0  0
  193.9610  173.4190  145.0640 C   0  0  0  0  0  3  0  0  0  0  0  0
  190.5220  171.5820  143.2410 N   0  0  0  0  0  2  0  0  0  0  0  0
  188.1200  175.7700  143.4360 C   0  0  1  0  0  3  0  0  0  0  0  0
  189.2490  174.2790  141.9510 C   0  0  2  0  0  3  0  0  0  0  0  0
  188.8210  177.0310  143.9080 C   0  0  2  0  0  3  0  0  0  0  0  0
  186.4540  176.8020  141.7600 C   0  0  0  0  0  1  0  0  0  0  0  0
  190.4140  175.4730  143.6660 C   0  0  2  0  0  3  0  0  0  0  0  0
  1 21  1  0  0  0  0
  3 17  2  0  0  0  0
  4 22  1  0  0  0  0
  5 24  1  0  0  0  0
  6  1  1  0  0  0  0
  8  2  2  0  0  0  0
  8 14  1  0  0  0  0
  8  7  2  0  0  0  0
  9 18  1  1  0  0  0
  9 14  1  0  0  0  0
 10  8  1  1  0  0  0
 11 15  2  0  0  0  0
 12 24  1  0  0  0  0
 12 28  1  0  0  0  0
 13  9  1  0  0  0  0
 15 23  1  0  0  0  0
 16 20  1  0  0  0  0
 16  1  2  0  0  0  0
 17 25  1  0  0  0  0
 17  5  1  0  0  0  0
 19 25  1  0  0  0  0
 19 15  1  0  0  0  0
 20  4  2  0  0  0  0
 21 22  2  0  0  0  0
 23  6  1  0  0  0  0
 24 26  1  0  0  0  0
 25 12  1  0  0  0  0
 26 10  1  0  0  0  0
 26 13  1  0  0  0  0
 27  5  1  0  0  0  0
 28 16  1  0  0  0  0
 28 10  1  0  0  0  0
M  END
>  <MODEL>
6

>  <REMARK>
 VINA RESULT:      -7.6      1.944      5.514
  Name = 
  0 active torsions:
  status: ('A' for Active; 'I' for Inactive)
                            x       y       z     vdW  Elec       q    Type
                         _______ _______ _______ _____ _____    ______ ____

>  <TORSDO>
F 0

$$$$
=
 OpenBabel11112417373D

 28 32  0  0  1  0  0  0  0  0999 V2000
  188.7710  176.9030  144.4950 C   0  0  0  0  0  0  0  0  0  0  0  0
  191.8720  177.0780  145.0020 O   0  0  0  0  0  0  0  0  0  0  0  0
  190.2420  171.7680  141.7330 O   0  0  0  0  0  0  0  0  0  0  0  0
  187.4290  176.4720  146.9220 C   0  0  0  0  0  3  0  0  0  0  0  0
  191.9180  172.7930  143.0190 N   0  0  0  0  0  0  0  0  0  0  0  0
  189.3710  177.1700  143.1530 C   0  0  0  0  0  2  0  0  0  0  0  0
  191.3340  176.8750  147.3860 O   0  0  0  0  0  0  0  0  0  0  0  0
  191.9850  176.1960  146.2140 S   0  0  0  0  0  0  0  0  0  0  0  0
  194.2140  174.9340  145.5750 C   0  0  1  0  0  3  0  0  0  0  0  0
  191.2290  174.6310  145.9460 N   0  0  2  0  0  0  0  0  0  0  0  0
  187.4650  175.1940  140.7460 O   0  0  0  0  0  0  0  0  0  0  0  0
  190.7340  174.7560  143.6060 N   0  0  1  0  0  0  0  0  0  0  0  0
  193.5050  173.6760  145.7750 N   0  0  0  0  0  2  0  0  0  0  0  0
  193.7020  175.9560  146.5620 C   0  0  0  0  0  2  0  0  0  0  0  0
  188.4670  175.5650  141.4100 C   0  0  0  0  0  0  0  0  0  0  0  0
  189.0850  175.7630  145.2800 C   0  0  0  0  0  0  0  0  0  0  0  0
  190.6510  172.7400  142.4220 C   0  0  0  0  0  0  0  0  0  0  0  0
  195.6950  174.7190  145.8000 C   0  0  0  0  0  1  0  0  0  0  0  0
  189.6980  174.7200  141.3970 C   0  0  0  0  0  2  0  0  0  0  0  0
  188.3960  175.5660  146.4860 C   0  0  0  0  0  3  0  0  0  0  0  0
  187.7980  177.8050  144.9450 C   0  0  0  0  0  3  0  0  0  0  0  0
  187.1330  177.5950  146.1520 C   0  0  0  0  0  3  0  0  0  0  0  0
  188.4150  176.8030  142.1200 N   0  0  0  0  0  2  0  0  0  0  0  0
  192.0200  174.0330  143.7590 C   0  0  1  0  0  3  0  0  0  0  0  0
  189.8770  173.9610  142.7040 C   0  0  2  0  0  3  0  0  0  0  0  0
  192.1350  173.7280  145.2410 C   0  0  2  0  0  3  0  0  0  0  0  0
  193.0030  171.8550  142.7900 C   0  0  0  0  0  1  0  0  0  0  0  0
  190.1500  174.7300  144.9530 C   0  0  2  0  0  3  0  0  0  0  0  0
  1 21  2  0  0  0  0
  1 16  1  0  0  0  0
  2  8  2  0  0  0  0
  3 17  2  0  0  0  0
  5 24  1  0  0  0  0
  6  1  1  0  0  0  0
  8 14  1  0  0  0  0
  8  7  2  0  0  0  0
  9 13  1  0  0  0  0
  9 18  1  1  0  0  0
  9 14  1  0  0  0  0
 10  8  1  6  0  0  0
 11 15  2  0  0  0  0
 12 24  1  0  0  0  0
 12 28  1  0  0  0  0
 15 23  1  0  0  0  0
 16 20  2  0  0  0  0
 17 25  1  0  0  0  0
 17  5  1  0  0  0  0
 19 15  1  0  0  0  0
 19 25  1  0  0  0  0
 20  4  1  0  0  0  0
 21 22  1  0  0  0  0
 22  4  2  0  0  0  0
 23  6  1  0  0  0  0
 24 26  1  0  0  0  0
 25 12  1  0  0  0  0
 26 13  1  0  0  0  0
 26 10  1  0  0  0  0
 27  5  1  0  0  0  0
 28 16  1  0  0  0  0
 28 10  1  0  0  0  0
M  END
>  <MODEL>
7

>  <REMARK>
 VINA RESULT:      -7.5      1.913      2.621
  Name = 
  0 active torsions:
  status: ('A' for Active; 'I' for Inactive)
                            x       y       z     vdW  Elec       q    Type
                         _______ _______ _______ _____ _____    ______ ____

>  <TORSDO>
F 0

$$$$
=
 OpenBabel11112417373D

 28 32  0  0  1  0  0  0  0  0999 V2000
  185.9600  177.0050  143.7490 C   0  0  0  0  0  0  0  0  0  0  0  0
  187.5580  174.5190  142.6670 O   0  0  0  0  0  0  0  0  0  0  0  0
  190.5580  177.3740  147.6050 O   0  0  0  0  0  0  0  0  0  0  0  0
  185.9900  179.0630  141.8410 C   0  0  0  0  0  3  0  0  0  0  0  0
  190.8140  175.9010  145.7950 N   0  0  0  0  0  0  0  0  0  0  0  0
  185.8440  175.9710  144.8200 C   0  0  0  0  0  2  0  0  0  0  0  0
  187.8230  175.7930  140.5880 O   0  0  0  0  0  0  0  0  0  0  0  0
  188.5450  175.2160  141.7730 S   0  0  0  0  0  0  0  0  0  0  0  0
  190.6820  173.7780  142.3500 C   0  0  1  0  0  3  0  0  0  0  0  0
  189.3940  176.4990  142.6260 N   0  0  2  0  0  0  0  0  0  0  0  0
  186.0720  177.7390  148.0070 O   0  0  0  0  0  0  0  0  0  0  0  0
  188.6480  176.1280  144.8710 N   0  0  1  0  0  0  0  0  0  0  0  0
  191.3770  175.0210  142.6640 N   0  0  0  0  0  2  0  0  0  0  0  0
  189.7200  174.0200  141.2120 C   0  0  0  0  0  2  0  0  0  0  0  0
  186.4080  176.9410  147.0940 C   0  0  0  0  0  0  0  0  0  0  0  0
  187.2000  177.5270  143.2960 C   0  0  0  0  0  0  0  0  0  0  0  0
  190.0830  176.7880  146.5970 C   0  0  0  0  0  0  0  0  0  0  0  0
  191.6900  172.7270  141.9390 C   0  0  0  0  0  1  0  0  0  0  0  0
  187.7660  176.3210  147.1380 C   0  0  0  0  0  2  0  0  0  0  0  0
  187.1880  178.5600  142.3470 C   0  0  0  0  0  3  0  0  0  0  0  0
  184.7630  177.5200  143.2320 C   0  0  0  0  0  3  0  0  0  0  0  0
  184.7760  178.5390  142.2810 C   0  0  0  0  0  3  0  0  0  0  0  0
  185.4690  176.6160  146.0690 N   0  0  0  0  0  2  0  0  0  0  0  0
  189.9600  175.4570  144.7140 C   0  0  1  0  0  3  0  0  0  0  0  0
  188.7020  176.9340  146.1070 C   0  0  2  0  0  3  0  0  0  0  0  0
  190.5140  175.9620  143.3940 C   0  0  2  0  0  3  0  0  0  0  0  0
  192.1360  175.3790  146.0950 C   0  0  0  0  0  1  0  0  0  0  0  0
  188.5740  177.0370  143.7200 C   0  0  2  0  0  3  0  0  0  0  0  0
  1  6  1  0  0  0  0
  4 22  2  0  0  0  0
  4 20  1  0  0  0  0
  5 27  1  0  0  0  0
  5 17  1  0  0  0  0
  6 23  1  0  0  0  0
  7  8  2  0  0  0  0
  8  2  2  0  0  0  0
  9 18  1  6  0  0  0
  9 13  1  0  0  0  0
 10  8  1  1  0  0  0
 10 26  1  0  0  0  0
 10 28  1  0  0  0  0
 12 25  1  0  0  0  0
 13 26  1  0  0  0  0
 14  8  1  0  0  0  0
 14  9  1  0  0  0  0
 15 19  1  0  0  0  0
 15 11  2  0  0  0  0
 16 28  1  0  0  0  0
 16  1  1  0  0  0  0
 17  3  2  0  0  0  0
 20 16  2  0  0  0  0
 21  1  2  0  0  0  0
 22 21  1  0  0  0  0
 23 15  1  0  0  0  0
 24 12  1  0  0  0  0
 24  5  1  0  0  0  0
 25 17  1  0  0  0  0
 25 19  1  0  0  0  0
 26 24  1  0  0  0  0
 28 12  1  0  0  0  0
M  END
>  <MODEL>
8

>  <REMARK>
 VINA RESULT:      -7.3      2.029      4.625
  Name = 
  0 active torsions:
  status: ('A' for Active; 'I' for Inactive)
                            x       y       z     vdW  Elec       q    Type
                         _______ _______ _______ _____ _____    ______ ____

>  <TORSDO>
F 0

$$$$
=
 OpenBabel11112417373D

 28 32  0  0  1  0  0  0  0  0999 V2000
  189.2030  176.3940  144.9760 C   0  0  0  0  0  0  0  0  0  0  0  0
  192.1480  176.4820  143.8680 O   0  0  0  0  0  0  0  0  0  0  0  0
  188.1450  173.3700  139.8890 O   0  0  0  0  0  0  0  0  0  0  0  0
  189.0860  174.7510  147.2480 C   0  0  0  0  0  3  0  0  0  0  0  0
  190.3950  173.7300  140.4540 N   0  0  0  0  0  0  0  0  0  0  0  0
  189.1520  177.3200  143.8050 C   0  0  0  0  0  2  0  0  0  0  0  0
  192.7490  175.1040  145.8050 O   0  0  0  0  0  0  0  0  0  0  0  0
  192.6290  175.1270  144.3080 S   0  0  0  0  0  0  0  0  0  0  0  0
  193.9960  174.4750  142.1470 C   0  0  1  0  0  3  0  0  0  0  0  0
  191.5340  173.8530  143.7870 N   0  0  2  0  0  0  0  0  0  0  0  0
  185.9890  176.6690  142.1000 O   0  0  0  0  0  0  0  0  0  0  0  0
  190.0460  175.0790  142.3660 N   0  0  1  0  0  0  0  0  0  0  0  0
  193.2220  173.2410  142.0850 N   0  0  0  0  0  2  0  0  0  0  0  0
  194.2210  174.8500  143.5920 C   0  0  0  0  0  2  0  0  0  0  0  0
  187.2360  176.7250  142.2530 C   0  0  0  0  0  0  0  0  0  0  0  0
  189.6070  175.0370  144.8840 C   0  0  0  0  0  0  0  0  0  0  0  0
  189.0150  173.9010  140.6280 C   0  0  0  0  0  0  0  0  0  0  0  0
  195.3330  174.2650  141.4700 C   0  0  0  0  0  1  0  0  0  0  0  0
  188.1200  176.0690  141.2430 C   0  0  0  0  0  2  0  0  0  0  0  0
  189.5340  174.2340  146.0320 C   0  0  0  0  0  3  0  0  0  0  0  0
  188.7570  176.9010  146.2040 C   0  0  0  0  0  3  0  0  0  0  0  0
  188.7020  176.0870  147.3350 C   0  0  0  0  0  3  0  0  0  0  0  0
  187.7730  177.4500  143.3590 N   0  0  0  0  0  2  0  0  0  0  0  0
  191.0780  174.4520  141.5060 C   0  0  1  0  0  3  0  0  0  0  0  0
  188.7270  174.7800  141.7750 C   0  0  2  0  0  3  0  0  0  0  0  0
  191.8040  173.4670  142.4040 C   0  0  2  0  0  3  0  0  0  0  0  0
  191.0330  173.0900  139.3170 C   0  0  0  0  0  1  0  0  0  0  0  0
  190.1630  174.3620  143.6420 C   0  0  2  0  0  3  0  0  0  0  0  0
  1 21  1  0  0  0  0
  2  8  2  0  0  0  0
  3 17  2  0  0  0  0
  4 22  1  0  0  0  0
  5 17  1  0  0  0  0
  5 24  1  0  0  0  0
  6  1  1  0  0  0  0
  8  7  2  0  0  0  0
  9 18  1  1  0  0  0
  9 14  1  0  0  0  0
 10  8  1  6  0  0  0
 11 15  2  0  0  0  0
 12 28  1  0  0  0  0
 13  9  1  0  0  0  0
 13 26  1  0  0  0  0
 14  8  1  0  0  0  0
 15 23  1  0  0  0  0
 16  1  2  0  0  0  0
 16 20  1  0  0  0  0
 17 25  1  0  0  0  0
 19 25  1  0  0  0  0
 19 15  1  0  0  0  0
 20  4  2  0  0  0  0
 21 22  2  0  0  0  0
 23  6  1  0  0  0  0
 24 12  1  0  0  0  0
 24 26  1  0  0  0  0
 25 12  1  0  0  0  0
 26 10  1  0  0  0  0
 27  5  1  0  0  0  0
 28 10  1  0  0  0  0
 28 16  1  0  0  0  0
M  END
>  <MODEL>
9

>  <REMARK>
 VINA RESULT:      -7.2      2.517      3.410
  Name = 
  0 active torsions:
  status: ('A' for Active; 'I' for Inactive)
                            x       y       z     vdW  Elec       q    Type
                         _______ _______ _______ _____ _____    ______ ____

>  <TORSDO>
F 0

$$$$
