=
 OpenBabel11112416143D

 30 35  0  0  1  0  0  0  0  0999 V2000
  189.4680  175.1060  144.2200 C   0  0  1  0  0  3  0  0  0  0  0  0
  190.4430  172.9830  143.1160 C   0  0  0  0  0  0  0  0  0  0  0  0
  187.5670  176.1850  140.6440 N   0  0  0  0  0  0  0  0  0  0  0  0
  188.2180  176.0110  144.2490 C   0  0  1  0  0  3  0  0  0  0  0  0
  189.6280  174.5480  145.6260 C   0  0  0  0  0  2  0  0  0  0  0  0
  189.5530  177.8730  147.1700 O   0  0  0  0  0  0  0  0  0  0  0  0
  186.5380  178.8200  144.5530 C   0  0  1  0  0  3  0  0  0  0  0  0
  189.3030  176.9410  146.3580 C   0  0  0  0  0  0  0  0  0  0  0  0
  186.0110  178.2170  143.2610 C   0  0  2  0  0  3  0  0  0  0  0  0
  186.7710  177.1580  141.1390 C   0  0  0  0  0  0  0  0  0  0  0  0
  189.8880  175.6390  146.5580 N   0  0  0  0  0  0  0  0  0  0  0  0
  188.4480  177.2370  145.1440 C   0  0  2  0  0  3  0  0  0  0  0  0
  190.3650  171.9130  142.0690 C   0  0  0  0  0  2  0  0  0  0  0  0
  184.6170  177.7180  143.5380 C   0  0  0  0  0  2  0  0  0  0  0  0
  185.2890  179.4750  145.1250 C   0  0  0  0  0  2  0  0  0  0  0  0
  191.3920  173.0230  143.8850 O   0  0  0  0  0  0  0  0  0  0  0  0
  188.1620  175.6840  141.7420 C   0  0  0  0  0  0  0  0  0  0  0  0
  190.1200  172.5420  140.6940 C   0  0  0  0  0  2  0  0  0  0  0  0
  189.3250  173.9970  143.1590 C   0  0  2  0  0  3  0  0  0  0  0  0
  187.7710  176.3820  142.8600 C   0  0  0  0  0  0  0  0  0  0  0  0
  185.8780  177.9760  140.2680 C   0  0  0  0  0  1  0  0  0  0  0  0
  186.8560  177.3020  142.4830 N   0  0  0  0  0  0  0  0  0  0  0  0
  184.0870  178.7020  144.5720 C   0  0  0  0  0  2  0  0  0  0  0  0
  186.1410  176.8100  146.1540 C   0  0  0  0  0  1  0  0  0  0  0  0
  188.9370  173.5170  140.7260 C   0  0  0  0  0  2  0  0  0  0  0  0
  189.2090  174.6140  141.7550 C   0  0  1  0  0  3  0  0  0  0  0  0
  187.1210  177.8420  145.5860 C   0  0  2  0  0  3  0  0  0  0  0  0
  190.8560  175.4060  147.6210 C   0  0  0  0  0  2  0  0  0  0  0  0
  192.9450  176.3070  146.6500 C   0  0  0  0  0  1  0  0  0  0  0  0
  192.2060  175.0430  147.0310 C   0  0  0  0  0  2  0  0  0  0  0  0
  1  4  1  0  0  0  0
  1  5  1  1  0  0  0
  2 16  2  0  0  0  0
  3 10  2  0  0  0  0
  3 17  1  0  0  0  0
  4 20  1  6  0  0  0
  4 12  1  0  0  0  0
  5 11  1  0  0  0  0
  7 15  1  1  0  0  0
  7 27  1  0  0  0  0
  8 11  1  0  0  0  0
  8  6  2  0  0  0  0
  9 14  1  1  0  0  0
  9  7  1  0  0  0  0
 10 22  1  0  0  0  0
 11 28  1  0  0  0  0
 12 27  1  0  0  0  0
 12  8  1  1  0  0  0
 13  2  1  0  0  0  0
 14 23  1  0  0  0  0
 17 26  1  0  0  0  0
 17 20  2  0  0  0  0
 18 25  1  0  0  0  0
 18 13  1  0  0  0  0
 19  2  1  6  0  0  0
 19  1  1  0  0  0  0
 21 10  1  0  0  0  0
 22 20  1  0  0  0  0
 22  9  1  0  0  0  0
 23 15  1  0  0  0  0
 26 25  1  6  0  0  0
 26 19  1  0  0  0  0
 27 24  1  6  0  0  0
 29 30  1  0  0  0  0
 30 28  1  0  0  0  0
M  END
>  <MODEL>
1

>  <REMARK>
 VINA RESULT:      -9.2      0.000      0.000
  Name = 
  2 active torsions:
  status: ('A' for Active; 'I' for Inactive)
    1  A    between atoms: N_11  and  C_28
    2  A    between atoms: C_28  and  C_30
                            x       y       z     vdW  Elec       q    Type
                         _______ _______ _______ _____ _____    ______ ____

>  <TORSDO>
F 2

$$$$
=
 OpenBabel11112416143D

 30 35  0  0  1  0  0  0  0  0999 V2000
  186.4040  177.5960  143.8520 C   0  0  1  0  0  3  0  0  0  0  0  0
  184.8690  178.5300  145.7100 C   0  0  0  0  0  0  0  0  0  0  0  0
  189.4460  176.8460  146.6360 N   0  0  0  0  0  0  0  0  0  0  0  0
  187.4660  176.5130  143.5670 C   0  0  1  0  0  3  0  0  0  0  0  0
  185.2370  177.3110  142.9190 C   0  0  0  0  0  2  0  0  0  0  0  0
  187.3700  177.2850  139.9360 O   0  0  0  0  0  0  0  0  0  0  0  0
  190.1280  175.2030  142.1510 C   0  0  1  0  0  3  0  0  0  0  0  0
  187.0140  177.1310  141.1370 C   0  0  0  0  0  0  0  0  0  0  0  0
  190.3420  174.9520  143.6350 C   0  0  2  0  0  3  0  0  0  0  0  0
  190.2390  176.0870  145.8490 C   0  0  0  0  0  0  0  0  0  0  0  0
  185.6690  177.4650  141.5350 N   0  0  0  0  0  0  0  0  0  0  0  0
  188.0390  176.6670  142.1500 C   0  0  2  0  0  3  0  0  0  0  0  0
  184.4630  178.5830  147.1520 C   0  0  0  0  0  2  0  0  0  0  0  0
  190.1290  173.4810  143.8730 C   0  0  0  0  0  2  0  0  0  0  0  0
  190.7250  173.9480  141.5310 C   0  0  0  0  0  2  0  0  0  0  0  0
  184.3150  179.2450  144.8890 O   0  0  0  0  0  0  0  0  0  0  0  0
  188.3640  177.0650  145.8660 C   0  0  0  0  0  0  0  0  0  0  0  0
  185.6970  178.7880  148.0370 C   0  0  0  0  0  2  0  0  0  0  0  0
  185.9860  177.5850  145.3370 C   0  0  2  0  0  3  0  0  0  0  0  0
  188.5350  176.4950  144.6260 C   0  0  0  0  0  0  0  0  0  0  0  0
  191.5580  175.5670  146.3140 C   0  0  0  0  0  1  0  0  0  0  0  0
  189.7170  175.8400  144.6240 N   0  0  0  0  0  0  0  0  0  0  0  0
  190.6170  172.8370  142.5820 C   0  0  0  0  0  2  0  0  0  0  0  0
  187.7700  174.1410  141.8760 C   0  0  0  0  0  1  0  0  0  0  0  0
  186.8010  177.7780  147.7030 C   0  0  0  0  0  2  0  0  0  0  0  0
  187.1910  177.9200  146.2310 C   0  0  1  0  0  3  0  0  0  0  0  0
  188.6730  175.3630  141.6790 C   0  0  2  0  0  3  0  0  0  0  0  0
  184.7420  178.0840  140.5990 C   0  0  0  0  0  2  0  0  0  0  0  0
  182.2890  177.9430  140.3080 C   0  0  0  0  0  1  0  0  0  0  0  0
  183.3990  178.3130  141.2670 C   0  0  0  0  0  2  0  0  0  0  0  0
  1  5  1  6  0  0  0
  1 19  1  0  0  0  0
  2 13  1  0  0  0  0
  4  1  1  0  0  0  0
  4 20  1  1  0  0  0
  6  8  2  0  0  0  0
  7 15  1  6  0  0  0
  7  9  1  0  0  0  0
  8 11  1  0  0  0  0
  9 14  1  1  0  0  0
  9 22  1  0  0  0  0
 10 21  1  0  0  0  0
 10  3  2  0  0  0  0
 11  5  1  0  0  0  0
 12  8  1  6  0  0  0
 12  4  1  0  0  0  0
 13 18  1  0  0  0  0
 15 23  1  0  0  0  0
 16  2  2  0  0  0  0
 17 26  1  0  0  0  0
 17  3  1  0  0  0  0
 19  2  1  6  0  0  0
 19 26  1  0  0  0  0
 20 17  2  0  0  0  0
 22 20  1  0  0  0  0
 22 10  1  0  0  0  0
 23 14  1  0  0  0  0
 25 18  1  0  0  0  0
 26 25  1  1  0  0  0
 27 24  1  1  0  0  0
 27 12  1  0  0  0  0
 27  7  1  0  0  0  0
 28 30  1  0  0  0  0
 28 11  1  0  0  0  0
 29 30  1  0  0  0  0
M  END
>  <MODEL>
2

>  <REMARK>
 VINA RESULT:      -8.5      2.237      7.264
  Name = 
  2 active torsions:
  status: ('A' for Active; 'I' for Inactive)
    1  A    between atoms: N_11  and  C_28
    2  A    between atoms: C_28  and  C_30
                            x       y       z     vdW  Elec       q    Type
                         _______ _______ _______ _____ _____    ______ ____

>  <TORSDO>
F 2

$$$$
=
 OpenBabel11112416143D

 30 35  0  0  1  0  0  0  0  0999 V2000
  190.0200  175.0430  143.9370 C   0  0  1  0  0  3  0  0  0  0  0  0
  192.0330  174.7290  145.5270 C   0  0  0  0  0  0  0  0  0  0  0  0
  187.6400  176.4230  147.0980 N   0  0  0  0  0  0  0  0  0  0  0  0
  188.8110  175.9580  143.6540 C   0  0  1  0  0  3  0  0  0  0  0  0
  190.9030  175.1000  142.7000 C   0  0  0  0  0  2  0  0  0  0  0  0
  188.1490  174.2030  140.4500 O   0  0  0  0  0  0  0  0  0  0  0  0
  185.7690  176.7120  142.6600 C   0  0  1  0  0  3  0  0  0  0  0  0
  188.7540  174.7020  141.4380 C   0  0  0  0  0  0  0  0  0  0  0  0
  185.8770  177.3610  144.0310 C   0  0  2  0  0  3  0  0  0  0  0  0
  186.6100  176.8990  146.3660 C   0  0  0  0  0  0  0  0  0  0  0  0
  190.1820  174.5470  141.5590 N   0  0  0  0  0  0  0  0  0  0  0  0
  187.9470  175.3910  142.5180 C   0  0  2  0  0  3  0  0  0  0  0  0
  192.7640  175.0990  146.7830 C   0  0  0  0  0  2  0  0  0  0  0  0
  185.9800  178.8470  143.8130 C   0  0  0  0  0  2  0  0  0  0  0  0
  184.9140  177.7180  141.9030 C   0  0  0  0  0  2  0  0  0  0  0  0
  192.4570  173.8350  144.8100 O   0  0  0  0  0  0  0  0  0  0  0  0
  188.5310  176.0390  146.1660 C   0  0  0  0  0  0  0  0  0  0  0  0
  191.7970  175.1020  147.9710 C   0  0  0  0  0  2  0  0  0  0  0  0
  190.7660  175.4860  145.2120 C   0  0  2  0  0  3  0  0  0  0  0  0
  188.0190  176.2320  144.9050 C   0  0  0  0  0  0  0  0  0  0  0  0
  185.3860  177.4750  146.9940 C   0  0  0  0  0  1  0  0  0  0  0  0
  186.8050  176.8120  145.0280 N   0  0  0  0  0  0  0  0  0  0  0  0
  185.1410  179.0820  142.5640 C   0  0  0  0  0  2  0  0  0  0  0  0
  187.8720  177.7470  141.5330 C   0  0  0  0  0  1  0  0  0  0  0  0
  190.5440  175.9330  147.6720 C   0  0  0  0  0  2  0  0  0  0  0  0
  189.8420  175.3690  146.4360 C   0  0  1  0  0  3  0  0  0  0  0  0
  187.0840  176.4840  141.8970 C   0  0  2  0  0  3  0  0  0  0  0  0
  190.9300  173.7270  140.6170 C   0  0  0  0  0  2  0  0  0  0  0  0
  190.5140  171.4970  141.6050 C   0  0  0  0  0  1  0  0  0  0  0  0
  191.5660  172.5510  141.3350 C   0  0  0  0  0  2  0  0  0  0  0  0
  1  5  1  6  0  0  0
  1 19  1  0  0  0  0
  2 13  1  0  0  0  0
  4  1  1  0  0  0  0
  4 20  1  1  0  0  0
  6  8  2  0  0  0  0
  7 15  1  6  0  0  0
  7  9  1  0  0  0  0
  8 11  1  0  0  0  0
  9 14  1  6  0  0  0
  9 22  1  0  0  0  0
 10 21  1  0  0  0  0
 10  3  2  0  0  0  0
 11  5  1  0  0  0  0
 12  8  1  6  0  0  0
 12  4  1  0  0  0  0
 13 18  1  0  0  0  0
 15 23  1  0  0  0  0
 16  2  2  0  0  0  0
 17 26  1  0  0  0  0
 17  3  1  0  0  0  0
 19  2  1  1  0  0  0
 19 26  1  0  0  0  0
 20 22  1  0  0  0  0
 20 17  2  0  0  0  0
 22 10  1  0  0  0  0
 23 14  1  0  0  0  0
 25 18  1  0  0  0  0
 26 25  1  1  0  0  0
 27 24  1  1  0  0  0
 27 12  1  0  0  0  0
 27  7  1  0  0  0  0
 28 30  1  0  0  0  0
 28 11  1  0  0  0  0
 30 29  1  0  0  0  0
M  END
>  <MODEL>
3

>  <REMARK>
 VINA RESULT:      -8.2      1.767      4.848
  Name = 
  2 active torsions:
  status: ('A' for Active; 'I' for Inactive)
    1  A    between atoms: N_11  and  C_28
    2  A    between atoms: C_28  and  C_30
                            x       y       z     vdW  Elec       q    Type
                         _______ _______ _______ _____ _____    ______ ____

>  <TORSDO>
F 2

$$$$
=
 OpenBabel11112416143D

 30 35  0  0  1  0  0  0  0  0999 V2000
  190.3240  174.7860  143.7050 C   0  0  1  0  0  3  0  0  0  0  0  0
  190.8230  173.1380  141.7780 C   0  0  0  0  0  0  0  0  0  0  0  0
  187.0470  176.3550  141.6170 N   0  0  0  0  0  0  0  0  0  0  0  0
  189.1700  175.4650  144.4720 C   0  0  1  0  0  3  0  0  0  0  0  0
  191.0870  173.9530  144.7240 C   0  0  0  0  0  2  0  0  0  0  0  0
  191.5430  176.7920  147.0000 O   0  0  0  0  0  0  0  0  0  0  0  0
  187.6680  177.8510  146.1620 C   0  0  1  0  0  3  0  0  0  0  0  0
  191.0090  176.0420  146.1380 C   0  0  0  0  0  0  0  0  0  0  0  0
  186.6670  177.4860  145.0780 C   0  0  2  0  0  3  0  0  0  0  0  0
  186.4980  177.0610  142.6290 C   0  0  0  0  0  0  0  0  0  0  0  0
  191.6750  174.8300  145.7300 N   0  0  0  0  0  0  0  0  0  0  0  0
  189.7100  176.4770  145.4940 C   0  0  2  0  0  3  0  0  0  0  0  0
  190.3500  172.3340  140.6040 C   0  0  0  0  0  2  0  0  0  0  0  0
  185.5430  176.7360  145.7420 C   0  0  0  0  0  2  0  0  0  0  0  0
  186.7550  178.1670  147.3380 C   0  0  0  0  0  2  0  0  0  0  0  0
  192.0050  173.1420  142.0840 O   0  0  0  0  0  0  0  0  0  0  0  0
  188.0710  175.7120  142.2080 C   0  0  0  0  0  0  0  0  0  0  0  0
  189.5210  173.2150  139.6650 C   0  0  0  0  0  2  0  0  0  0  0  0
  189.7900  173.9380  142.5340 C   0  0  2  0  0  3  0  0  0  0  0  0
  188.1630  176.0710  143.5310 C   0  0  0  0  0  0  0  0  0  0  0  0
  185.2890  177.9140  142.4410 C   0  0  0  0  0  1  0  0  0  0  0  0
  187.1390  176.9070  143.8130 N   0  0  0  0  0  0  0  0  0  0  0  0
  185.4630  177.3700  147.1250 C   0  0  0  0  0  2  0  0  0  0  0  0
  188.0660  175.4940  147.1850 C   0  0  0  0  0  1  0  0  0  0  0  0
  188.4260  173.9710  140.4270 C   0  0  0  0  0  2  0  0  0  0  0  0
  189.0660  174.8340  141.5150 C   0  0  1  0  0  3  0  0  0  0  0  0
  188.6720  176.7620  146.5730 C   0  0  2  0  0  3  0  0  0  0  0  0
  193.0100  174.5080  146.2140 C   0  0  0  0  0  2  0  0  0  0  0  0
  194.8810  176.0910  145.8800 C   0  0  0  0  0  1  0  0  0  0  0  0
  194.0560  175.0010  145.2320 C   0  0  0  0  0  2  0  0  0  0  0  0
  1  4  1  0  0  0  0
  1  5  1  1  0  0  0
  2 16  2  0  0  0  0
  3 17  1  0  0  0  0
  3 10  2  0  0  0  0
  4 20  1  6  0  0  0
  4 12  1  0  0  0  0
  5 11  1  0  0  0  0
  7 27  1  0  0  0  0
  7 15  1  1  0  0  0
  8  6  2  0  0  0  0
  9 14  1  1  0  0  0
  9  7  1  0  0  0  0
 10 22  1  0  0  0  0
 11  8  1  0  0  0  0
 11 28  1  0  0  0  0
 12  8  1  1  0  0  0
 12 27  1  0  0  0  0
 13  2  1  0  0  0  0
 14 23  1  0  0  0  0
 17 20  2  0  0  0  0
 18 25  1  0  0  0  0
 18 13  1  0  0  0  0
 19  2  1  6  0  0  0
 19  1  1  0  0  0  0
 20 22  1  0  0  0  0
 21 10  1  0  0  0  0
 22  9  1  0  0  0  0
 23 15  1  0  0  0  0
 26 25  1  6  0  0  0
 26 17  1  0  0  0  0
 26 19  1  0  0  0  0
 27 24  1  6  0  0  0
 30 29  1  0  0  0  0
 30 28  1  0  0  0  0
M  END
>  <MODEL>
4

>  <REMARK>
 VINA RESULT:      -8.0      1.431      1.899
  Name = 
  2 active torsions:
  status: ('A' for Active; 'I' for Inactive)
    1  A    between atoms: N_11  and  C_28
    2  A    between atoms: C_28  and  C_30
                            x       y       z     vdW  Elec       q    Type
                         _______ _______ _______ _____ _____    ______ ____

>  <TORSDO>
F 2

$$$$
=
 OpenBabel11112416143D

 30 35  0  0  1  0  0  0  0  0999 V2000
  187.2610  176.8620  143.9340 C   0  0  1  0  0  3  0  0  0  0  0  0
  185.6340  178.1150  142.3660 C   0  0  0  0  0  0  0  0  0  0  0  0
  188.9400  174.8170  140.6840 N   0  0  0  0  0  0  0  0  0  0  0  0
  188.7000  176.3120  144.0250 C   0  0  1  0  0  3  0  0  0  0  0  0
  187.1270  177.9010  145.0370 C   0  0  0  0  0  2  0  0  0  0  0  0
  188.2640  175.5790  147.6380 O   0  0  0  0  0  0  0  0  0  0  0  0
  191.0880  174.2600  144.9690 C   0  0  1  0  0  3  0  0  0  0  0  0
  188.1590  176.1280  146.5070 C   0  0  0  0  0  0  0  0  0  0  0  0
  191.2790  174.3750  143.4650 C   0  0  2  0  0  3  0  0  0  0  0  0
  190.0180  174.3060  141.3180 C   0  0  0  0  0  0  0  0  0  0  0  0
  187.2780  177.2570  146.3370 N   0  0  0  0  0  0  0  0  0  0  0  0
  188.9110  175.5370  145.3340 C   0  0  2  0  0  3  0  0  0  0  0  0
  185.3000  178.6580  141.0090 C   0  0  0  0  0  2  0  0  0  0  0  0
  192.5130  175.2070  143.2350 C   0  0  0  0  0  2  0  0  0  0  0  0
  192.5250  174.1540  145.4600 C   0  0  0  0  0  2  0  0  0  0  0  0
  184.8280  178.2060  143.2790 O   0  0  0  0  0  0  0  0  0  0  0  0
  188.3680  175.5930  141.6230 C   0  0  0  0  0  0  0  0  0  0  0  0
  185.5380  177.5850  139.9420 C   0  0  0  0  0  2  0  0  0  0  0  0
  186.9770  177.4470  142.5370 C   0  0  2  0  0  3  0  0  0  0  0  0
  189.0600  175.5030  142.8070 C   0  0  0  0  0  0  0  0  0  0  0  0
  190.9850  173.3970  140.6380 C   0  0  0  0  0  1  0  0  0  0  0  0
  190.1350  174.7090  142.6070 N   0  0  0  0  0  0  0  0  0  0  0  0
  193.4050  174.8550  144.4180 C   0  0  0  0  0  2  0  0  0  0  0  0
  191.1260  176.7830  145.5970 C   0  0  0  0  0  1  0  0  0  0  0  0
  186.9320  176.9610  140.0740 C   0  0  0  0  0  2  0  0  0  0  0  0
  187.0840  176.3480  141.4670 C   0  0  1  0  0  3  0  0  0  0  0  0
  190.3940  175.4380  145.6710 C   0  0  2  0  0  3  0  0  0  0  0  0
  186.4170  177.7070  147.4210 C   0  0  0  0  0  2  0  0  0  0  0  0
  184.1060  178.2920  146.7600 C   0  0  0  0  0  1  0  0  0  0  0  0
  185.5100  178.8250  146.9400 C   0  0  0  0  0  2  0  0  0  0  0  0
  1  4  1  0  0  0  0
  1  5  1  1  0  0  0
  2 16  2  0  0  0  0
  3 10  2  0  0  0  0
  3 17  1  0  0  0  0
  4 20  1  6  0  0  0
  4 12  1  0  0  0  0
  5 11  1  0  0  0  0
  7 15  1  1  0  0  0
  7 27  1  0  0  0  0
  8  6  2  0  0  0  0
  9 14  1  1  0  0  0
  9  7  1  0  0  0  0
 10 22  1  0  0  0  0
 11  8  1  0  0  0  0
 11 28  1  0  0  0  0
 12 27  1  0  0  0  0
 12  8  1  1  0  0  0
 13  2  1  0  0  0  0
 14 23  1  0  0  0  0
 17 20  2  0  0  0  0
 18 25  1  0  0  0  0
 18 13  1  0  0  0  0
 19  2  1  1  0  0  0
 19  1  1  0  0  0  0
 21 10  1  0  0  0  0
 22 20  1  0  0  0  0
 22  9  1  0  0  0  0
 23 15  1  0  0  0  0
 26 25  1  6  0  0  0
 26 17  1  0  0  0  0
 26 19  1  0  0  0  0
 27 24  1  6  0  0  0
 29 30  1  0  0  0  0
 30 28  1  0  0  0  0
M  END
>  <MODEL>
5

>  <REMARK>
 VINA RESULT:      -8.0      2.076      5.664
  Name = 
  2 active torsions:
  status: ('A' for Active; 'I' for Inactive)
    1  A    between atoms: N_11  and  C_28
    2  A    between atoms: C_28  and  C_30
                            x       y       z     vdW  Elec       q    Type
                         _______ _______ _______ _____ _____    ______ ____

>  <TORSDO>
F 2

$$$$
=
 OpenBabel11112416143D

 30 35  0  0  1  0  0  0  0  0999 V2000
  187.2670  176.8110  143.1390 C   0  0  1  0  0  3  0  0  0  0  0  0
  186.7210  177.0450  140.6240 C   0  0  0  0  0  0  0  0  0  0  0  0
  189.4580  173.3120  142.4150 N   0  0  0  0  0  0  0  0  0  0  0  0
  188.3770  176.3750  144.1180 C   0  0  1  0  0  3  0  0  0  0  0  0
  187.0010  178.2820  143.4170 C   0  0  0  0  0  2  0  0  0  0  0  0
  186.4510  177.7110  146.9970 O   0  0  0  0  0  0  0  0  0  0  0  0
  189.6320  175.1200  146.8850 C   0  0  1  0  0  3  0  0  0  0  0  0
  186.9200  177.5660  145.8360 C   0  0  0  0  0  0  0  0  0  0  0  0
  190.3930  174.4040  145.7810 C   0  0  2  0  0  3  0  0  0  0  0  0
  190.0530  173.2080  143.6230 C   0  0  0  0  0  0  0  0  0  0  0  0
  186.4850  178.4380  144.7720 N   0  0  0  0  0  0  0  0  0  0  0  0
  187.8790  176.4250  145.5700 C   0  0  2  0  0  3  0  0  0  0  0  0
  187.0690  176.7770  139.1900 C   0  0  0  0  0  2  0  0  0  0  0  0
  191.7910  174.9620  145.7700 C   0  0  0  0  0  2  0  0  0  0  0  0
  190.7030  175.2740  147.9550 C   0  0  0  0  0  2  0  0  0  0  0  0
  185.6840  177.6260  140.9060 O   0  0  0  0  0  0  0  0  0  0  0  0
  188.7950  174.4800  142.4960 C   0  0  0  0  0  0  0  0  0  0  0  0
  187.4060  175.2940  139.0010 C   0  0  0  0  0  2  0  0  0  0  0  0
  187.6850  176.5550  141.6760 C   0  0  2  0  0  3  0  0  0  0  0  0
  188.9470  175.0330  143.7460 C   0  0  0  0  0  0  0  0  0  0  0  0
  190.9380  172.0620  143.9790 C   0  0  0  0  0  1  0  0  0  0  0  0
  189.7780  174.2400  144.4580 N   0  0  0  0  0  0  0  0  0  0  0  0
  192.0550  175.2900  147.2340 C   0  0  0  0  0  2  0  0  0  0  0  0
  190.0730  177.5840  146.1780 C   0  0  0  0  0  1  0  0  0  0  0  0
  188.4410  174.8190  140.0280 C   0  0  0  0  0  2  0  0  0  0  0  0
  187.9000  175.0510  141.4400 C   0  0  1  0  0  3  0  0  0  0  0  0
  189.0510  176.5010  146.5420 C   0  0  2  0  0  3  0  0  0  0  0  0
  185.4270  179.4150  144.9880 C   0  0  0  0  0  2  0  0  0  0  0  0
  183.4900  178.9680  143.5150 C   0  0  0  0  0  1  0  0  0  0  0  0
  184.0690  178.7450  144.8950 C   0  0  0  0  0  2  0  0  0  0  0  0
  1  5  1  6  0  0  0
  1  4  1  0  0  0  0
  2 16  2  0  0  0  0
  3 17  1  0  0  0  0
  3 10  2  0  0  0  0
  4 20  1  6  0  0  0
  4 12  1  0  0  0  0
  5 11  1  0  0  0  0
  7 15  1  1  0  0  0
  8  6  2  0  0  0  0
  9 14  1  6  0  0  0
  9  7  1  0  0  0  0
 10 21  1  0  0  0  0
 10 22  1  0  0  0  0
 11 28  1  0  0  0  0
 11  8  1  0  0  0  0
 12  8  1  6  0  0  0
 12 27  1  0  0  0  0
 13  2  1  0  0  0  0
 14 23  1  0  0  0  0
 17 20  2  0  0  0  0
 18 13  1  0  0  0  0
 18 25  1  0  0  0  0
 19  2  1  6  0  0  0
 19  1  1  0  0  0  0
 20 22  1  0  0  0  0
 22  9  1  0  0  0  0
 23 15  1  0  0  0  0
 26 25  1  6  0  0  0
 26 19  1  0  0  0  0
 26 17  1  0  0  0  0
 27 24  1  6  0  0  0
 27  7  1  0  0  0  0
 29 30  1  0  0  0  0
 30 28  1  0  0  0  0
M  END
>  <MODEL>
6

>  <REMARK>
 VINA RESULT:      -7.8      2.052      5.586
  Name = 
  2 active torsions:
  status: ('A' for Active; 'I' for Inactive)
    1  A    between atoms: N_11  and  C_28
    2  A    between atoms: C_28  and  C_30
                            x       y       z     vdW  Elec       q    Type
                         _______ _______ _______ _____ _____    ______ ____

>  <TORSDO>
F 2

$$$$
=
 OpenBabel11112416143D

 30 35  0  0  1  0  0  0  0  0999 V2000
  190.7390  174.8290  143.4130 C   0  0  1  0  0  3  0  0  0  0  0  0
  193.1610  174.7550  144.3120 C   0  0  0  0  0  0  0  0  0  0  0  0
  189.4420  176.8370  146.8560 N   0  0  0  0  0  0  0  0  0  0  0  0
  189.4740  175.7120  143.3650 C   0  0  1  0  0  3  0  0  0  0  0  0
  191.1810  174.6320  141.9710 C   0  0  0  0  0  2  0  0  0  0  0  0
  187.8860  173.4170  140.9170 O   0  0  0  0  0  0  0  0  0  0  0  0
  186.2520  176.3580  143.2670 C   0  0  1  0  0  3  0  0  0  0  0  0
  188.7570  174.0710  141.5530 C   0  0  0  0  0  0  0  0  0  0  0  0
  186.7690  177.2440  144.3890 C   0  0  2  0  0  3  0  0  0  0  0  0
  188.2180  177.1990  146.4140 C   0  0  0  0  0  0  0  0  0  0  0  0
  190.1540  173.8990  141.2410 N   0  0  0  0  0  0  0  0  0  0  0  0
  188.3130  174.9700  142.6870 C   0  0  2  0  0  3  0  0  0  0  0  0
  194.2400  175.3280  145.1800 C   0  0  0  0  0  2  0  0  0  0  0  0
  186.7510  178.6610  143.8800 C   0  0  0  0  0  2  0  0  0  0  0  0
  185.1700  177.2310  142.6500 C   0  0  0  0  0  2  0  0  0  0  0  0
  193.3630  173.7320  143.6750 O   0  0  0  0  0  0  0  0  0  0  0  0
  190.0030  176.2620  145.7760 C   0  0  0  0  0  0  0  0  0  0  0  0
  193.7010  175.5780  146.5910 C   0  0  0  0  0  2  0  0  0  0  0  0
  191.8360  175.4770  144.2820 C   0  0  2  0  0  3  0  0  0  0  0  0
  189.1120  176.2330  144.7300 C   0  0  0  0  0  0  0  0  0  0  0  0
  187.2390  177.9170  147.2800 C   0  0  0  0  0  1  0  0  0  0  0  0
  187.9820  176.8620  145.1230 N   0  0  0  0  0  0  0  0  0  0  0  0
  185.5530  178.6870  142.9410 C   0  0  0  0  0  2  0  0  0  0  0  0
  187.8560  177.1050  141.3610 C   0  0  0  0  0  1  0  0  0  0  0  0
  192.3920  176.3760  146.5580 C   0  0  0  0  0  2  0  0  0  0  0  0
  191.3520  175.6140  145.7350 C   0  0  1  0  0  3  0  0  0  0  0  0
  187.2640  175.9550  142.1820 C   0  0  2  0  0  3  0  0  0  0  0  0
  190.5900  172.8980  140.2770 C   0  0  0  0  0  2  0  0  0  0  0  0
  189.9720  173.7010  138.0200 C   0  0  0  0  0  1  0  0  0  0  0  0
  191.1030  173.5710  139.0180 C   0  0  0  0  0  2  0  0  0  0  0  0
  1  5  1  6  0  0  0
  1 19  1  0  0  0  0
  2 13  1  0  0  0  0
  4  1  1  0  0  0  0
  4 20  1  1  0  0  0
  6  8  2  0  0  0  0
  7 15  1  6  0  0  0
  7  9  1  0  0  0  0
  9 14  1  6  0  0  0
  9 22  1  0  0  0  0
 10  3  2  0  0  0  0
 10 21  1  0  0  0  0
 11  8  1  0  0  0  0
 11  5  1  0  0  0  0
 12  8  1  6  0  0  0
 12  4  1  0  0  0  0
 13 18  1  0  0  0  0
 15 23  1  0  0  0  0
 16  2  2  0  0  0  0
 17  3  1  0  0  0  0
 19  2  1  1  0  0  0
 19 26  1  0  0  0  0
 20 22  1  0  0  0  0
 20 17  2  0  0  0  0
 22 10  1  0  0  0  0
 23 14  1  0  0  0  0
 25 18  1  0  0  0  0
 26 17  1  0  0  0  0
 26 25  1  1  0  0  0
 27 24  1  1  0  0  0
 27 12  1  0  0  0  0
 27  7  1  0  0  0  0
 28 11  1  0  0  0  0
 29 30  1  0  0  0  0
 30 28  1  0  0  0  0
M  END
>  <MODEL>
7

>  <REMARK>
 VINA RESULT:      -7.7      2.028      5.164
  Name = 
  2 active torsions:
  status: ('A' for Active; 'I' for Inactive)
    1  A    between atoms: N_11  and  C_28
    2  A    between atoms: C_28  and  C_30
                            x       y       z     vdW  Elec       q    Type
                         _______ _______ _______ _____ _____    ______ ____

>  <TORSDO>
F 2

$$$$
=
 OpenBabel11112416143D

 30 35  0  0  1  0  0  0  0  0999 V2000
  189.4070  176.2200  144.4710 C   0  0  1  0  0  3  0  0  0  0  0  0
  190.4810  176.7550  146.7600 C   0  0  0  0  0  0  0  0  0  0  0  0
  193.1180  175.0470  142.9160 N   0  0  0  0  0  0  0  0  0  0  0  0
  189.4740  175.2370  143.2830 C   0  0  1  0  0  3  0  0  0  0  0  0
  188.0130  176.0830  145.0660 C   0  0  0  0  0  2  0  0  0  0  0  0
  186.3640  176.6640  141.8430 O   0  0  0  0  0  0  0  0  0  0  0  0
  189.2420  174.2820  140.1470 C   0  0  1  0  0  3  0  0  0  0  0  0
  187.2310  176.2820  142.6750 C   0  0  0  0  0  0  0  0  0  0  0  0
  190.6030  173.7660  140.5860 C   0  0  2  0  0  3  0  0  0  0  0  0
  192.6720  174.4680  141.7800 C   0  0  0  0  0  0  0  0  0  0  0  0
  187.0190  176.5020  144.0840 N   0  0  0  0  0  0  0  0  0  0  0  0
  188.5150  175.6650  142.1620 C   0  0  2  0  0  3  0  0  0  0  0  0
  191.5690  176.5290  147.7660 C   0  0  0  0  0  2  0  0  0  0  0  0
  190.4890  172.2710  140.7240 C   0  0  0  0  0  2  0  0  0  0  0  0
  188.7780  173.1790  139.2060 C   0  0  0  0  0  2  0  0  0  0  0  0
  189.6180  177.5940  146.9660 O   0  0  0  0  0  0  0  0  0  0  0  0
  191.9830  175.3770  143.5610 C   0  0  0  0  0  0  0  0  0  0  0  0
  192.9390  176.5990  147.0820 C   0  0  0  0  0  2  0  0  0  0  0  0
  190.5170  175.9250  145.4990 C   0  0  2  0  0  3  0  0  0  0  0  0
  190.8870  175.0510  142.7990 C   0  0  0  0  0  0  0  0  0  0  0  0
  193.6000  173.9060  140.7570 C   0  0  0  0  0  1  0  0  0  0  0  0
  191.3220  174.4390  141.6760 N   0  0  0  0  0  0  0  0  0  0  0  0
  189.4810  171.8900  139.6490 C   0  0  0  0  0  2  0  0  0  0  0  0
  187.7650  173.2280  142.0100 C   0  0  0  0  0  1  0  0  0  0  0  0
  192.9930  175.6980  145.8430 C   0  0  0  0  0  2  0  0  0  0  0  0
  191.9010  176.1190  144.8580 C   0  0  1  0  0  3  0  0  0  0  0  0
  188.1910  174.4880  141.2490 C   0  0  2  0  0  3  0  0  0  0  0  0
  185.8720  177.2590  144.5620 C   0  0  0  0  0  2  0  0  0  0  0  0
  185.5430  179.6170  143.8860 C   0  0  0  0  0  1  0  0  0  0  0  0
  186.2720  178.6960  144.8410 C   0  0  0  0  0  2  0  0  0  0  0  0
  1  5  1  1  0  0  0
  1 19  1  0  0  0  0
  2 16  2  0  0  0  0
  2 13  1  0  0  0  0
  3 17  1  0  0  0  0
  4 20  1  6  0  0  0
  4  1  1  0  0  0  0
  6  8  2  0  0  0  0
  7 15  1  6  0  0  0
  7  9  1  0  0  0  0
  7 27  1  0  0  0  0
  8 11  1  0  0  0  0
  9 14  1  1  0  0  0
  9 22  1  0  0  0  0
 10  3  2  0  0  0  0
 11 28  1  0  0  0  0
 11  5  1  0  0  0  0
 12  8  1  1  0  0  0
 12  4  1  0  0  0  0
 15 23  1  0  0  0  0
 17 26  1  0  0  0  0
 18 13  1  0  0  0  0
 19  2  1  1  0  0  0
 20 17  2  0  0  0  0
 21 10  1  0  0  0  0
 22 10  1  0  0  0  0
 22 20  1  0  0  0  0
 23 14  1  0  0  0  0
 25 18  1  0  0  0  0
 26 19  1  0  0  0  0
 26 25  1  1  0  0  0
 27 24  1  1  0  0  0
 27 12  1  0  0  0  0
 28 30  1  0  0  0  0
 29 30  1  0  0  0  0
M  END
>  <MODEL>
8

>  <REMARK>
 VINA RESULT:      -7.5      2.240      6.191
  Name = 
  2 active torsions:
  status: ('A' for Active; 'I' for Inactive)
    1  A    between atoms: N_11  and  C_28
    2  A    between atoms: C_28  and  C_30
                            x       y       z     vdW  Elec       q    Type
                         _______ _______ _______ _____ _____    ______ ____

>  <TORSDO>
F 2

$$$$
=
 OpenBabel11112416143D

 30 35  0  0  1  0  0  0  0  0999 V2000
  189.4640  174.0670  142.5010 C   0  0  1  0  0  3  0  0  0  0  0  0
  189.2460  172.7720  140.2750 C   0  0  0  0  0  0  0  0  0  0  0  0
  192.6550  171.6270  143.6970 N   0  0  0  0  0  0  0  0  0  0  0  0
  190.4980  174.5880  143.5210 C   0  0  1  0  0  3  0  0  0  0  0  0
  188.7460  175.2910  141.9530 C   0  0  0  0  0  2  0  0  0  0  0  0
  187.8700  176.5200  145.2950 O   0  0  0  0  0  0  0  0  0  0  0  0
  191.6450  175.4350  146.4830 C   0  0  1  0  0  3  0  0  0  0  0  0
  188.5250  175.9540  144.3780 C   0  0  0  0  0  0  0  0  0  0  0  0
  192.7330  174.5400  145.9120 C   0  0  2  0  0  3  0  0  0  0  0  0
  193.0720  172.3640  144.7500 C   0  0  0  0  0  0  0  0  0  0  0  0
  188.0160  175.9520  143.0290 N   0  0  0  0  0  0  0  0  0  0  0  0
  189.8010  175.2210  144.7350 C   0  0  2  0  0  3  0  0  0  0  0  0
  189.8620  171.9270  139.2000 C   0  0  0  0  0  2  0  0  0  0  0  0
  193.8960  175.4270  145.5540 C   0  0  0  0  0  2  0  0  0  0  0  0
  192.4580  176.4570  147.2640 C   0  0  0  0  0  2  0  0  0  0  0  0
  188.0560  173.0440  140.2370 O   0  0  0  0  0  0  0  0  0  0  0  0
  191.6780  172.3810  143.1590 C   0  0  0  0  0  0  0  0  0  0  0  0
  190.6370  170.7640  139.8270 C   0  0  0  0  0  2  0  0  0  0  0  0
  190.1470  173.2410  141.3920 C   0  0  2  0  0  3  0  0  0  0  0  0
  191.4800  173.5160  143.9100 C   0  0  0  0  0  0  0  0  0  0  0  0
  194.1900  171.9250  145.6350 C   0  0  0  0  0  1  0  0  0  0  0  0
  192.3920  173.5250  144.9070 N   0  0  0  0  0  0  0  0  0  0  0  0
  193.8380  176.5300  146.6010 C   0  0  0  0  0  2  0  0  0  0  0  0
  191.4530  177.1600  144.5470 C   0  0  0  0  0  1  0  0  0  0  0  0
  191.6040  171.2550  140.9110 C   0  0  0  0  0  2  0  0  0  0  0  0
  190.8200  171.9970  141.9950 C   0  0  1  0  0  3  0  0  0  0  0  0
  190.7460  176.1630  145.4720 C   0  0  2  0  0  3  0  0  0  0  0  0
  186.7010  176.4960  142.7220 C   0  0  0  0  0  2  0  0  0  0  0  0
  186.0860  178.8670  143.0720 C   0  0  0  0  0  1  0  0  0  0  0  0
  186.8320  177.9050  142.1740 C   0  0  0  0  0  2  0  0  0  0  0  0
  1  5  1  6  0  0  0
  1  4  1  0  0  0  0
  3 10  2  0  0  0  0
  4 20  1  1  0  0  0
  4 12  1  0  0  0  0
  5 11  1  0  0  0  0
  7 15  1  6  0  0  0
  8  6  2  0  0  0  0
  9 14  1  6  0  0  0
  9  7  1  0  0  0  0
 10 22  1  0  0  0  0
 10 21  1  0  0  0  0
 11  8  1  0  0  0  0
 12  8  1  6  0  0  0
 12 27  1  0  0  0  0
 13 18  1  0  0  0  0
 13  2  1  0  0  0  0
 14 23  1  0  0  0  0
 16  2  2  0  0  0  0
 17  3  1  0  0  0  0
 17 20  2  0  0  0  0
 18 25  1  0  0  0  0
 19  2  1  6  0  0  0
 19 26  1  0  0  0  0
 19  1  1  0  0  0  0
 20 22  1  0  0  0  0
 22  9  1  0  0  0  0
 23 15  1  0  0  0  0
 26 25  1  6  0  0  0
 26 17  1  0  0  0  0
 27 24  1  6  0  0  0
 27  7  1  0  0  0  0
 28 11  1  0  0  0  0
 30 28  1  0  0  0  0
 30 29  1  0  0  0  0
M  END
>  <MODEL>
9

>  <REMARK>
 VINA RESULT:      -7.2      2.217      6.023
  Name = 
  2 active torsions:
  status: ('A' for Active; 'I' for Inactive)
    1  A    between atoms: N_11  and  C_28
    2  A    between atoms: C_28  and  C_30
                            x       y       z     vdW  Elec       q    Type
                         _______ _______ _______ _____ _____    ______ ____

>  <TORSDO>
F 2

$$$$
