=
 OpenBabel11112417223D

 37 42  0  0  1  0  0  0  0  0999 V2000
  186.3560  178.2210  147.2040 C   0  0  0  0  0  0  0  0  0  0  0  0
  187.5650  175.9950  143.7220 C   0  0  0  0  0  0  0  0  0  0  0  0
  189.7400  173.9920  144.4270 C   0  0  0  0  0  2  0  0  0  0  0  0
  185.7710  177.5000  144.8320 C   0  0  0  0  0  0  0  0  0  0  0  0
  188.9970  176.3180  143.7190 N   0  0  0  0  0  0  0  0  0  0  0  0
  192.9190  174.2970  145.2910 C   0  0  0  0  0  0  0  0  0  0  0  0
  187.0260  176.7530  144.8740 C   0  0  0  0  0  0  0  0  0  0  0  0
  189.7790  175.1170  143.3760 C   0  0  2  0  0  3  0  0  0  0  0  0
  185.1680  177.6490  143.6490 C   0  0  0  0  0  3  0  0  0  0  0  0
  194.0990  174.9040  144.7500 N   0  0  0  0  0  2  0  0  0  0  0  0
  188.0080  177.0920  145.6680 C   0  0  2  0  0  3  0  0  0  0  0  0
  186.0070  177.0020  148.0400 C   0  0  0  0  0  1  0  0  0  0  0  0
  187.3550  175.7080  141.1480 C   0  0  0  0  0  2  0  0  0  0  0  0
  185.7430  177.0540  142.4130 C   0  0  0  0  0  3  0  0  0  0  0  0
  187.8280  178.1340  146.7400 C   0  0  0  0  0  2  0  0  0  0  0  0
  191.7200  175.0710  145.4480 N   0  0  0  0  0  0  0  0  0  0  0  0
  190.4620  174.3700  145.7230 C   0  0  0  0  0  2  0  0  0  0  0  0
  186.8960  176.3600  142.4180 C   0  0  0  0  0  0  0  0  0  0  0  0
  189.2390  176.7530  145.0450 N   0  0  2  0  0  0  0  0  0  0  0  0
  185.3660  178.3320  146.0190 C   0  0  0  0  0  2  0  0  0  0  0  0
  189.4710  174.5780  141.9670 C   0  0  1  0  0  3  0  0  0  0  0  0
  186.1980  179.4490  148.0750 C   0  0  0  0  0  1  0  0  0  0  0  0
  191.7320  176.4820  145.0340 C   0  0  0  0  0  2  0  0  0  0  0  0
  192.9330  173.0780  145.6140 O   0  0  0  0  0  0  0  0  0  0  0  0
  190.5190  177.2920  145.5150 C   0  0  0  0  0  2  0  0  0  0  0  0
  188.8800  175.6310  141.0210 C   0  0  0  0  0  2  0  0  0  0  0  0
  192.0130  174.6090  141.7020 C   0  0  0  0  0  3  0  0  0  0  0  0
  190.7140  173.9870  141.3840 C   0  0  0  0  0  0  0  0  0  0  0  0
  190.6370  172.9720  140.5710 N   0  0  0  0  0  0  0  0  0  0  0  0
  191.3920  171.4000  138.8790 C   0  0  0  0  0  1  0  0  0  0  0  0
  192.9300  173.6140  139.3180 S   0  0  0  0  0  0  0  0  0  0  0  0
  191.8180  172.3390  139.9880 C   0  0  1  0  0  3  0  0  0  0  0  0
  193.0720  174.4430  140.9090 C   0  0  0  0  0  3  0  0  0  0  0  0
  196.2160  174.2750  145.8060 C   0  0  0  0  0  1  0  0  0  0  0  0
  195.3450  174.1730  144.5640 C   0  0  2  0  0  3  0  0  0  0  0  0
  195.7620  176.1310  143.0150 C   0  0  0  0  0  1  0  0  0  0  0  0
  196.0850  174.6780  143.3290 C   0  0  0  0  0  2  0  0  0  0  0  0
  1 12  1  0  0  0  0
  1 22  1  0  0  0  0
  2  7  1  0  0  0  0
  3 17  1  0  0  0  0
  4  7  2  0  0  0  0
  4 20  1  0  0  0  0
  5  2  1  0  0  0  0
  5 19  1  0  0  0  0
  6 16  1  0  0  0  0
  6 24  2  0  0  0  0
  7 11  1  0  0  0  0
  8  5  1  0  0  0  0
  8  3  1  1  0  0  0
  9  4  1  0  0  0  0
 10  6  1  0  0  0  0
 11 15  1  6  0  0  0
 13 18  1  0  0  0  0
 14 18  1  0  0  0  0
 14  9  2  0  0  0  0
 15  1  1  0  0  0  0
 16 17  1  0  0  0  0
 18  2  2  0  0  0  0
 19 25  1  6  0  0  0
 19 11  1  0  0  0  0
 20  1  1  0  0  0  0
 21 28  1  6  0  0  0
 21  8  1  0  0  0  0
 23 16  1  0  0  0  0
 23 25  1  0  0  0  0
 26 13  1  0  0  0  0
 26 21  1  0  0  0  0
 28 27  1  0  0  0  0
 29 28  2  0  0  0  0
 31 32  1  0  0  0  0
 31 33  1  0  0  0  0
 32 30  1  6  0  0  0
 32 29  1  0  0  0  0
 33 27  2  0  0  0  0
 35 10  1  0  0  0  0
 35 34  1  1  0  0  0
 36 37  1  0  0  0  0
 37 35  1  0  0  0  0
M  END
>  <MODEL>
1

>  <REMARK>
 VINA RESULT:      -7.9      0.000      0.000
  Name = 
  3 active torsions:
  status: ('A' for Active; 'I' for Inactive)
    1  A    between atoms: C_4  and  N_12
    2  A    between atoms: C_4  and  C_37
    3  A    between atoms: C_23  and  C_30
                            x       y       z     vdW  Elec       q    Type
                         _______ _______ _______ _____ _____    ______ ____

>  <TORSDO>
F 3

$$$$
=
 OpenBabel11112417223D

 37 42  0  0  1  0  0  0  0  0999 V2000
  194.6950  175.5300  142.3090 C   0  0  0  0  0  0  0  0  0  0  0  0
  191.9420  175.9710  145.5910 C   0  0  0  0  0  0  0  0  0  0  0  0
  189.1210  175.2280  144.7360 C   0  0  0  0  0  2  0  0  0  0  0  0
  194.4090  175.7340  144.8320 C   0  0  0  0  0  0  0  0  0  0  0  0
  191.0010  176.9210  144.9860 N   0  0  0  0  0  0  0  0  0  0  0  0
  186.9030  176.6480  142.7330 C   0  0  0  0  0  0  0  0  0  0  0  0
  192.9750  175.7720  144.5490 C   0  0  0  0  0  0  0  0  0  0  0  0
  189.6190  176.5520  145.3430 C   0  0  2  0  0  3  0  0  0  0  0  0
  194.8150  176.0650  146.0620 C   0  0  0  0  0  3  0  0  0  0  0  0
  186.2590  177.9220  142.6180 N   0  0  0  0  0  2  0  0  0  0  0  0
  192.5070  176.1650  143.3940 C   0  0  2  0  0  3  0  0  0  0  0  0
  194.3560  174.0750  142.0320 C   0  0  0  0  0  1  0  0  0  0  0  0
  191.5900  176.7750  148.0370 C   0  0  0  0  0  2  0  0  0  0  0  0
  193.8390  176.4410  147.1190 C   0  0  0  0  0  3  0  0  0  0  0  0
  193.4160  176.3930  142.2140 C   0  0  0  0  0  2  0  0  0  0  0  0
  188.3350  176.5700  142.8110 N   0  0  0  0  0  0  0  0  0  0  0  0
  188.9490  175.3020  143.2160 C   0  0  0  0  0  2  0  0  0  0  0  0
  192.5130  176.4840  146.8910 C   0  0  0  0  0  0  0  0  0  0  0  0
  191.2470  176.7890  143.5970 N   0  0  2  0  0  0  0  0  0  0  0  0
  195.3840  175.6430  143.6900 C   0  0  0  0  0  2  0  0  0  0  0  0
  189.3520  176.6090  146.8580 C   0  0  1  0  0  3  0  0  0  0  0  0
  195.6690  175.9970  141.2490 C   0  0  0  0  0  1  0  0  0  0  0  0
  189.1110  177.8190  142.7810 C   0  0  0  0  0  2  0  0  0  0  0  0
  186.2090  175.5960  142.7800 O   0  0  0  0  0  0  0  0  0  0  0  0
  190.6190  177.6210  142.5660 C   0  0  0  0  0  2  0  0  0  0  0  0
  190.3200  177.5240  147.6200 C   0  0  0  0  0  2  0  0  0  0  0  0
  186.8480  176.1820  146.5790 C   0  0  0  0  0  3  0  0  0  0  0  0
  187.9370  177.0330  147.0920 C   0  0  0  0  0  0  0  0  0  0  0  0
  187.6840  178.1600  147.6950 N   0  0  0  0  0  0  0  0  0  0  0  0
  186.3540  180.0660  148.4040 C   0  0  0  0  0  1  0  0  0  0  0  0
  185.3020  178.4450  146.4740 S   0  0  0  0  0  0  0  0  0  0  0  0
  186.3230  178.6160  147.9710 C   0  0  1  0  0  3  0  0  0  0  0  0
  185.6310  176.6790  146.3510 C   0  0  0  0  0  3  0  0  0  0  0  0
  184.3710  178.2300  141.0920 C   0  0  0  0  0  1  0  0  0  0  0  0
  184.8120  178.0670  142.5370 C   0  0  2  0  0  3  0  0  0  0  0  0
  185.4990  180.0650  143.9320 C   0  0  0  0  0  1  0  0  0  0  0  0
  184.3410  179.2400  143.3920 C   0  0  0  0  0  2  0  0  0  0  0  0
  1 20  1  0  0  0  0
  2 18  1  0  0  0  0
  4  9  2  0  0  0  0
  5  8  1  0  0  0  0
  5  2  1  0  0  0  0
  6 24  2  0  0  0  0
  6 16  1  0  0  0  0
  7  4  1  0  0  0  0
  7  2  2  0  0  0  0
  8  3  1  1  0  0  0
  8 21  1  0  0  0  0
  9 14  1  0  0  0  0
 10  6  1  0  0  0  0
 11 15  1  1  0  0  0
 11 19  1  0  0  0  0
 11  7  1  0  0  0  0
 12  1  1  0  0  0  0
 15  1  1  0  0  0  0
 16 17  1  0  0  0  0
 17  3  1  0  0  0  0
 18 14  2  0  0  0  0
 18 13  1  0  0  0  0
 19 25  1  6  0  0  0
 19  5  1  0  0  0  0
 20  4  1  0  0  0  0
 21 28  1  6  0  0  0
 21 26  1  0  0  0  0
 22  1  1  0  0  0  0
 23 16  1  0  0  0  0
 25 23  1  0  0  0  0
 26 13  1  0  0  0  0
 27 28  1  0  0  0  0
 28 29  2  0  0  0  0
 29 32  1  0  0  0  0
 31 32  1  0  0  0  0
 32 30  1  6  0  0  0
 33 31  1  0  0  0  0
 33 27  2  0  0  0  0
 35 34  1  6  0  0  0
 35 10  1  0  0  0  0
 35 37  1  0  0  0  0
 37 36  1  0  0  0  0
M  END
>  <MODEL>
2

>  <REMARK>
 VINA RESULT:      -7.8      3.065      8.478
  Name = 
  3 active torsions:
  status: ('A' for Active; 'I' for Inactive)
    1  A    between atoms: C_4  and  N_12
    2  A    between atoms: C_4  and  C_37
    3  A    between atoms: C_23  and  C_30
                            x       y       z     vdW  Elec       q    Type
                         _______ _______ _______ _____ _____    ______ ____

>  <TORSDO>
F 3

$$$$
=
 OpenBabel11112417223D

 37 42  0  0  1  0  0  0  0  0999 V2000
  185.5790  178.0160  142.8710 C   0  0  0  0  0  0  0  0  0  0  0  0
  188.6770  176.6450  145.5300 C   0  0  0  0  0  0  0  0  0  0  0  0
  191.4220  177.0880  144.3020 C   0  0  0  0  0  2  0  0  0  0  0  0
  186.2030  177.3660  145.2540 C   0  0  0  0  0  0  0  0  0  0  0  0
  189.3360  175.6750  144.6460 N   0  0  0  0  0  0  0  0  0  0  0  0
  193.0310  175.6960  141.7680 C   0  0  0  0  0  0  0  0  0  0  0  0
  187.5480  177.1610  144.7220 C   0  0  0  0  0  0  0  0  0  0  0  0
  190.7990  175.7720  144.8020 C   0  0  2  0  0  3  0  0  0  0  0  0
  185.9350  176.9050  146.4800 C   0  0  0  0  0  3  0  0  0  0  0  0
  193.4200  174.3750  141.3710 N   0  0  0  0  0  2  0  0  0  0  0  0
  187.7610  176.8950  143.4600 C   0  0  2  0  0  3  0  0  0  0  0  0
  186.1190  179.4290  142.7370 C   0  0  0  0  0  1  0  0  0  0  0  0
  189.2490  175.4130  147.7450 C   0  0  0  0  0  2  0  0  0  0  0  0
  186.9800  176.2230  147.2890 C   0  0  0  0  0  3  0  0  0  0  0  0
  186.6600  176.9990  142.4380 C   0  0  0  0  0  2  0  0  0  0  0  0
  191.6640  175.9720  142.1050 N   0  0  0  0  0  0  0  0  0  0  0  0
  191.3470  177.2350  142.7790 C   0  0  0  0  0  2  0  0  0  0  0  0
  188.2280  176.0200  146.8280 C   0  0  0  0  0  0  0  0  0  0  0  0
  188.9100  176.0660  143.3530 N   0  0  2  0  0  0  0  0  0  0  0  0
  185.0970  177.7850  144.3240 C   0  0  0  0  0  2  0  0  0  0  0  0
  191.2780  175.4320  146.2260 C   0  0  1  0  0  3  0  0  0  0  0  0
  184.3900  177.8770  141.9450 C   0  0  0  0  0  1  0  0  0  0  0  0
  190.6860  174.8740  142.0440 C   0  0  0  0  0  2  0  0  0  0  0  0
  193.8970  176.6110  141.8340 O   0  0  0  0  0  0  0  0  0  0  0  0
  189.2210  175.3270  142.1250 C   0  0  0  0  0  2  0  0  0  0  0  0
  190.2920  174.5610  147.0150 C   0  0  0  0  0  2  0  0  0  0  0  0
  193.8120  175.5390  146.5370 C   0  0  0  0  0  3  0  0  0  0  0  0
  192.6160  174.7700  146.1480 C   0  0  0  0  0  0  0  0  0  0  0  0
  192.7180  173.5510  145.6970 N   0  0  0  0  0  0  0  0  0  0  0  0
  193.8270  171.5880  144.7930 C   0  0  0  0  0  1  0  0  0  0  0  0
  195.2460  173.9210  144.8500 S   0  0  0  0  0  0  0  0  0  0  0  0
  193.9950  172.8460  145.6190 C   0  0  1  0  0  3  0  0  0  0  0  0
  195.0240  175.2050  146.0930 C   0  0  0  0  0  3  0  0  0  0  0  0
  195.0560  174.3240  139.5520 C   0  0  0  0  0  1  0  0  0  0  0  0
  194.7910  174.0310  141.0190 C   0  0  2  0  0  3  0  0  0  0  0  0
  196.5580  172.3150  141.6050 C   0  0  0  0  0  1  0  0  0  0  0  0
  195.0800  172.5690  141.3490 C   0  0  0  0  0  2  0  0  0  0  0  0
  1 20  1  0  0  0  0
  2 18  1  0  0  0  0
  4  9  2  0  0  0  0
  5  8  1  0  0  0  0
  5  2  1  0  0  0  0
  6 24  2  0  0  0  0
  6 16  1  0  0  0  0
  7  4  1  0  0  0  0
  7  2  2  0  0  0  0
  8  3  1  1  0  0  0
  8 21  1  0  0  0  0
  9 14  1  0  0  0  0
 10  6  1  0  0  0  0
 11 15  1  1  0  0  0
 11  7  1  0  0  0  0
 12  1  1  0  0  0  0
 15  1  1  0  0  0  0
 16 17  1  0  0  0  0
 17  3  1  0  0  0  0
 18 14  2  0  0  0  0
 18 13  1  0  0  0  0
 19 25  1  6  0  0  0
 19 11  1  0  0  0  0
 19  5  1  0  0  0  0
 20  4  1  0  0  0  0
 21 28  1  6  0  0  0
 21 26  1  0  0  0  0
 22  1  1  0  0  0  0
 23 16  1  0  0  0  0
 23 25  1  0  0  0  0
 26 13  1  0  0  0  0
 28 27  1  0  0  0  0
 29 28  2  0  0  0  0
 31 32  1  0  0  0  0
 31 33  1  0  0  0  0
 32 30  1  6  0  0  0
 32 29  1  0  0  0  0
 33 27  2  0  0  0  0
 35 34  1  6  0  0  0
 35 37  1  0  0  0  0
 35 10  1  0  0  0  0
 37 36  1  0  0  0  0
M  END
>  <MODEL>
3

>  <REMARK>
 VINA RESULT:      -7.8      2.251      4.476
  Name = 
  3 active torsions:
  status: ('A' for Active; 'I' for Inactive)
    1  A    between atoms: C_4  and  N_12
    2  A    between atoms: C_4  and  C_37
    3  A    between atoms: C_23  and  C_30
                            x       y       z     vdW  Elec       q    Type
                         _______ _______ _______ _____ _____    ______ ____

>  <TORSDO>
F 3

$$$$
=
 OpenBabel11112417223D

 37 42  0  0  1  0  0  0  0  0999 V2000
  186.8360  177.2390  143.3090 C   0  0  0  0  0  0  0  0  0  0  0  0
  190.6890  176.2970  144.9880 C   0  0  0  0  0  0  0  0  0  0  0  0
  192.5850  175.2950  142.8340 C   0  0  0  0  0  2  0  0  0  0  0  0
  188.4340  177.5420  145.2710 C   0  0  0  0  0  0  0  0  0  0  0  0
  190.7860  174.8880  144.5840 N   0  0  0  0  0  0  0  0  0  0  0  0
  192.7270  172.5170  141.0420 C   0  0  0  0  0  0  0  0  0  0  0  0
  189.3600  176.7240  144.4920 C   0  0  0  0  0  0  0  0  0  0  0  0
  192.1580  174.5910  144.1350 C   0  0  2  0  0  3  0  0  0  0  0  0
  188.7240  177.7700  146.5550 C   0  0  0  0  0  3  0  0  0  0  0  0
  192.7800  171.1080  141.2940 N   0  0  0  0  0  2  0  0  0  0  0  0
  188.9460  175.8820  143.5820 C   0  0  2  0  0  3  0  0  0  0  0  0
  187.3670  178.2110  142.2690 C   0  0  0  0  0  1  0  0  0  0  0  0
  192.1150  176.0490  147.1460 C   0  0  0  0  0  2  0  0  0  0  0  0
  189.9650  177.2280  147.1700 C   0  0  0  0  0  3  0  0  0  0  0  0
  187.5100  175.8590  143.1280 C   0  0  0  0  0  2  0  0  0  0  0  0
  191.6960  173.3160  141.6410 N   0  0  0  0  0  0  0  0  0  0  0  0
  191.8280  174.7760  141.6080 C   0  0  0  0  0  2  0  0  0  0  0  0
  190.8400  176.4730  146.4800 C   0  0  0  0  0  0  0  0  0  0  0  0
  189.8450  174.7830  143.5300 N   0  0  2  0  0  0  0  0  0  0  0  0
  187.0610  177.8270  144.7230 C   0  0  0  0  0  2  0  0  0  0  0  0
  193.2100  174.7800  145.2440 C   0  0  1  0  0  3  0  0  0  0  0  0
  185.3470  177.0800  143.0890 C   0  0  0  0  0  1  0  0  0  0  0  0
  190.7150  172.6600  142.5190 C   0  0  0  0  0  2  0  0  0  0  0  0
  193.5960  173.0550  140.3040 O   0  0  0  0  0  0  0  0  0  0  0  0
  189.4940  173.5260  142.8620 C   0  0  0  0  0  2  0  0  0  0  0  0
  192.6310  174.6900  146.6620 C   0  0  0  0  0  2  0  0  0  0  0  0
  193.9850  172.3450  145.2000 C   0  0  0  0  0  3  0  0  0  0  0  0
  194.3030  173.7780  145.0600 C   0  0  0  0  0  0  0  0  0  0  0  0
  195.5220  174.1760  144.8280 N   0  0  0  0  0  0  0  0  0  0  0  0
  197.9400  173.9980  144.6680 C   0  0  0  0  0  1  0  0  0  0  0  0
  196.6070  171.9630  145.9090 S   0  0  0  0  0  0  0  0  0  0  0  0
  196.6280  173.2440  144.6170 C   0  0  1  0  0  3  0  0  0  0  0  0
  194.9320  171.4520  145.4900 C   0  0  0  0  0  3  0  0  0  0  0  0
  193.1650  169.0450  140.0360 C   0  0  0  0  0  1  0  0  0  0  0  0
  193.8020  170.2440  140.7190 C   0  0  2  0  0  3  0  0  0  0  0  0
  195.9720  170.7640  141.9160 C   0  0  0  0  0  1  0  0  0  0  0  0
  194.7990  169.8040  141.7880 C   0  0  0  0  0  2  0  0  0  0  0  0
  1 20  1  0  0  0  0
  2 18  1  0  0  0  0
  4  9  2  0  0  0  0
  5  2  1  0  0  0  0
  6 10  1  0  0  0  0
  6 16  1  0  0  0  0
  7  2  2  0  0  0  0
  7  4  1  0  0  0  0
  8  3  1  6  0  0  0
  8  5  1  0  0  0  0
  8 21  1  0  0  0  0
  9 14  1  0  0  0  0
 11 15  1  1  0  0  0
 11  7  1  0  0  0  0
 12  1  1  0  0  0  0
 15  1  1  0  0  0  0
 16 23  1  0  0  0  0
 17 16  1  0  0  0  0
 17  3  1  0  0  0  0
 18 13  1  0  0  0  0
 18 14  2  0  0  0  0
 19 25  1  1  0  0  0
 19 11  1  0  0  0  0
 19  5  1  0  0  0  0
 20  4  1  0  0  0  0
 21 28  1  1  0  0  0
 21 26  1  0  0  0  0
 22  1  1  0  0  0  0
 23 25  1  0  0  0  0
 24  6  2  0  0  0  0
 26 13  1  0  0  0  0
 27 33  2  0  0  0  0
 28 27  1  0  0  0  0
 29 28  2  0  0  0  0
 32 30  1  1  0  0  0
 32 29  1  0  0  0  0
 32 31  1  0  0  0  0
 33 31  1  0  0  0  0
 35 34  1  1  0  0  0
 35 10  1  0  0  0  0
 35 37  1  0  0  0  0
 37 36  1  0  0  0  0
M  END
>  <MODEL>
4

>  <REMARK>
 VINA RESULT:      -7.7      2.440      5.265
  Name = 
  3 active torsions:
  status: ('A' for Active; 'I' for Inactive)
    1  A    between atoms: C_4  and  N_12
    2  A    between atoms: C_4  and  C_37
    3  A    between atoms: C_23  and  C_30
                            x       y       z     vdW  Elec       q    Type
                         _______ _______ _______ _____ _____    ______ ____

>  <TORSDO>
F 3

$$$$
=
 OpenBabel11112417223D

 37 42  0  0  1  0  0  0  0  0999 V2000
  196.1240  173.3520  144.8980 C   0  0  0  0  0  0  0  0  0  0  0  0
  192.2120  175.1400  145.1090 C   0  0  0  0  0  0  0  0  0  0  0  0
  190.1980  173.5130  143.5170 C   0  0  0  0  0  2  0  0  0  0  0  0
  194.5890  174.9700  146.1290 C   0  0  0  0  0  0  0  0  0  0  0  0
  191.9630  175.3360  143.6760 N   0  0  0  0  0  0  0  0  0  0  0  0
  189.7450  172.9920  140.2810 C   0  0  0  0  0  0  0  0  0  0  0  0
  193.5730  174.5580  145.1630 C   0  0  0  0  0  0  0  0  0  0  0  0
  190.5620  175.0010  143.3620 C   0  0  2  0  0  3  0  0  0  0  0  0
  194.3370  176.0430  146.8850 C   0  0  0  0  0  3  0  0  0  0  0  0
  189.5460  173.7900  139.1080 N   0  0  0  0  0  2  0  0  0  0  0  0
  193.8860  174.0800  143.9880 C   0  0  2  0  0  3  0  0  0  0  0  0
  195.6880  171.9910  145.4130 C   0  0  0  0  0  1  0  0  0  0  0  0
  190.7900  177.1660  145.9020 C   0  0  0  0  0  2  0  0  0  0  0  0
  193.0530  176.7830  146.7660 C   0  0  0  0  0  3  0  0  0  0  0  0
  195.3070  173.7220  143.6380 C   0  0  0  0  0  2  0  0  0  0  0  0
  190.8610  173.2510  141.1460 N   0  0  0  0  0  0  0  0  0  0  0  0
  190.8830  172.6260  142.4720 C   0  0  0  0  0  2  0  0  0  0  0  0
  192.0970  176.4280  145.8890 C   0  0  0  0  0  0  0  0  0  0  0  0
  192.8760  174.4470  143.0580 N   0  0  2  0  0  0  0  0  0  0  0  0
  195.9780  174.4000  146.0280 C   0  0  0  0  0  2  0  0  0  0  0  0
  189.5480  175.9040  144.0880 C   0  0  1  0  0  3  0  0  0  0  0  0
  197.5860  173.2640  144.5140 C   0  0  0  0  0  1  0  0  0  0  0  0
  191.7770  174.3510  140.8070 C   0  0  0  0  0  2  0  0  0  0  0  0
  188.9290  172.0710  140.5580 O   0  0  0  0  0  0  0  0  0  0  0  0
  193.0850  174.3550  141.6100 C   0  0  0  0  0  2  0  0  0  0  0  0
  190.1290  177.2560  144.5230 C   0  0  0  0  0  2  0  0  0  0  0  0
  188.4790  175.8380  141.7680 C   0  0  0  0  0  3  0  0  0  0  0  0
  188.3530  176.1040  143.2130 C   0  0  0  0  0  0  0  0  0  0  0  0
  187.2390  176.5520  143.7200 N   0  0  0  0  0  0  0  0  0  0  0  0
  185.0200  177.5410  143.7160 C   0  0  0  0  0  1  0  0  0  0  0  0
  186.4470  177.6420  141.3900 S   0  0  0  0  0  0  0  0  0  0  0  0
  186.0330  176.7470  142.9190 C   0  0  1  0  0  3  0  0  0  0  0  0
  187.6460  176.3950  140.8880 C   0  0  0  0  0  3  0  0  0  0  0  0
  188.8840  172.7830  136.9780 C   0  0  0  0  0  1  0  0  0  0  0  0
  188.4330  173.5790  138.1920 C   0  0  2  0  0  3  0  0  0  0  0  0
  188.1610  175.2900  136.3460 C   0  0  0  0  0  1  0  0  0  0  0  0
  187.8170  174.9130  137.7790 C   0  0  0  0  0  2  0  0  0  0  0  0
  1 12  1  0  0  0  0
  1 20  1  0  0  0  0
  2  7  2  0  0  0  0
  2 18  1  0  0  0  0
  4  9  2  0  0  0  0
  5  2  1  0  0  0  0
  6 24  2  0  0  0  0
  6 16  1  0  0  0  0
  7  4  1  0  0  0  0
  8  3  1  1  0  0  0
  8  5  1  0  0  0  0
  8 21  1  0  0  0  0
 10  6  1  0  0  0  0
 11 15  1  6  0  0  0
 11  7  1  0  0  0  0
 14  9  1  0  0  0  0
 15  1  1  0  0  0  0
 16 17  1  0  0  0  0
 17  3  1  0  0  0  0
 18 13  1  0  0  0  0
 18 14  2  0  0  0  0
 19 25  1  6  0  0  0
 19  5  1  0  0  0  0
 19 11  1  0  0  0  0
 20  4  1  0  0  0  0
 21 28  1  6  0  0  0
 21 26  1  0  0  0  0
 22  1  1  0  0  0  0
 23 16  1  0  0  0  0
 23 25  1  0  0  0  0
 26 13  1  0  0  0  0
 27 28  1  0  0  0  0
 28 29  2  0  0  0  0
 31 32  1  0  0  0  0
 32 30  1  1  0  0  0
 32 29  1  0  0  0  0
 33 31  1  0  0  0  0
 33 27  2  0  0  0  0
 35 34  1  6  0  0  0
 35 10  1  0  0  0  0
 36 37  1  0  0  0  0
 37 35  1  0  0  0  0
M  END
>  <MODEL>
5

>  <REMARK>
 VINA RESULT:      -7.4      2.588      7.566
  Name = 
  3 active torsions:
  status: ('A' for Active; 'I' for Inactive)
    1  A    between atoms: C_4  and  N_12
    2  A    between atoms: C_4  and  C_37
    3  A    between atoms: C_23  and  C_30
                            x       y       z     vdW  Elec       q    Type
                         _______ _______ _______ _____ _____    ______ ____

>  <TORSDO>
F 3

$$$$
=
 OpenBabel11112417223D

 37 42  0  0  1  0  0  0  0  0999 V2000
  185.1220  178.2530  143.3700 C   0  0  0  0  0  0  0  0  0  0  0  0
  188.4150  176.3080  145.3500 C   0  0  0  0  0  0  0  0  0  0  0  0
  190.7290  175.8840  143.4250 C   0  0  0  0  0  2  0  0  0  0  0  0
  186.2120  177.6520  145.5930 C   0  0  0  0  0  0  0  0  0  0  0  0
  188.5470  175.1270  144.4870 N   0  0  0  0  0  0  0  0  0  0  0  0
  191.1800  173.9070  140.8110 C   0  0  0  0  0  0  0  0  0  0  0  0
  187.2640  177.0450  144.7800 C   0  0  0  0  0  0  0  0  0  0  0  0
  189.9730  174.8330  144.2580 C   0  0  2  0  0  3  0  0  0  0  0  0
  186.1950  177.3810  146.9010 C   0  0  0  0  0  3  0  0  0  0  0  0
  191.1120  172.5030  140.5340 N   0  0  0  0  0  2  0  0  0  0  0  0
  187.0450  176.6300  143.5600 C   0  0  2  0  0  3  0  0  0  0  0  0
  185.9280  179.4500  142.8940 C   0  0  0  0  0  1  0  0  0  0  0  0
  189.2690  175.1480  147.5130 C   0  0  0  0  0  2  0  0  0  0  0  0
  187.2280  176.5070  147.5190 C   0  0  0  0  0  3  0  0  0  0  0  0
  185.7600  176.9480  142.8400 C   0  0  0  0  0  2  0  0  0  0  0  0
  190.0700  174.5720  141.4320 N   0  0  0  0  0  0  0  0  0  0  0  0
  190.2690  175.9230  141.9650 C   0  0  0  0  0  2  0  0  0  0  0  0
  188.2100  175.9350  146.7980 C   0  0  0  0  0  0  0  0  0  0  0  0
  187.8830  175.5140  143.2970 N   0  0  2  0  0  0  0  0  0  0  0  0
  185.0250  178.2800  144.9140 C   0  0  0  0  0  2  0  0  0  0  0  0
  190.7340  174.4900  145.5520 C   0  0  1  0  0  3  0  0  0  0  0  0
  183.7250  178.3700  142.8010 C   0  0  0  0  0  1  0  0  0  0  0  0
  188.8800  173.7810  141.7830 C   0  0  0  0  0  2  0  0  0  0  0  0
  192.2240  174.5530  140.5210 O   0  0  0  0  0  0  0  0  0  0  0  0
  187.6510  174.6220  142.1560 C   0  0  0  0  0  2  0  0  0  0  0  0
  189.8280  173.9880  146.6840 C   0  0  0  0  0  2  0  0  0  0  0  0
  193.1920  173.7930  145.6080 C   0  0  0  0  0  3  0  0  0  0  0  0
  191.7960  173.4850  145.2450 C   0  0  0  0  0  0  0  0  0  0  0  0
  191.4920  172.3810  144.6230 N   0  0  0  0  0  0  0  0  0  0  0  0
  191.8880  170.3520  143.3460 C   0  0  0  0  0  1  0  0  0  0  0  0
  193.9570  172.1200  143.5740 S   0  0  0  0  0  0  0  0  0  0  0  0
  192.4820  171.3520  144.3150 C   0  0  1  0  0  3  0  0  0  0  0  0
  194.2140  173.1920  144.9980 C   0  0  0  0  0  3  0  0  0  0  0  0
  192.5350  172.3630  138.5480 C   0  0  0  0  0  1  0  0  0  0  0  0
  192.2050  171.7710  139.9080 C   0  0  2  0  0  3  0  0  0  0  0  0
  190.6110  170.0440  138.9660 C   0  0  0  0  0  1  0  0  0  0  0  0
  191.8630  170.2870  139.7950 C   0  0  0  0  0  2  0  0  0  0  0  0
  1 20  1  0  0  0  0
  2 18  1  0  0  0  0
  4  9  2  0  0  0  0
  5  2  1  0  0  0  0
  6 16  1  0  0  0  0
  7  2  2  0  0  0  0
  7  4  1  0  0  0  0
  8  3  1  1  0  0  0
  8  5  1  0  0  0  0
  8 21  1  0  0  0  0
  9 14  1  0  0  0  0
 10  6  1  0  0  0  0
 11 15  1  1  0  0  0
 11  7  1  0  0  0  0
 12  1  1  0  0  0  0
 15  1  1  0  0  0  0
 16 23  1  0  0  0  0
 16 17  1  0  0  0  0
 17  3  1  0  0  0  0
 18 13  1  0  0  0  0
 18 14  2  0  0  0  0
 19 25  1  1  0  0  0
 19 11  1  0  0  0  0
 19  5  1  0  0  0  0
 20  4  1  0  0  0  0
 21 28  1  6  0  0  0
 21 26  1  0  0  0  0
 22  1  1  0  0  0  0
 23 25  1  0  0  0  0
 24  6  2  0  0  0  0
 26 13  1  0  0  0  0
 28 27  1  0  0  0  0
 29 28  2  0  0  0  0
 31 32  1  0  0  0  0
 31 33  1  0  0  0  0
 32 30  1  6  0  0  0
 32 29  1  0  0  0  0
 33 27  2  0  0  0  0
 35 34  1  6  0  0  0
 35 10  1  0  0  0  0
 36 37  1  0  0  0  0
 37 35  1  0  0  0  0
M  END
>  <MODEL>
6

>  <REMARK>
 VINA RESULT:      -7.2      2.030      4.737
  Name = 
  3 active torsions:
  status: ('A' for Active; 'I' for Inactive)
    1  A    between atoms: C_4  and  N_12
    2  A    between atoms: C_4  and  C_37
    3  A    between atoms: C_23  and  C_30
                            x       y       z     vdW  Elec       q    Type
                         _______ _______ _______ _____ _____    ______ ____

>  <TORSDO>
F 3

$$$$
=
 OpenBabel11112417223D

 37 42  0  0  1  0  0  0  0  0999 V2000
  189.9310  175.8970  146.9310 C   0  0  0  0  0  0  0  0  0  0  0  0
  187.8450  175.9670  143.1640 C   0  0  0  0  0  0  0  0  0  0  0  0
  188.3510  173.4060  141.6060 C   0  0  0  0  0  2  0  0  0  0  0  0
  188.0710  176.9560  145.5490 C   0  0  0  0  0  0  0  0  0  0  0  0
  188.9840  175.7810  142.2580 N   0  0  0  0  0  0  0  0  0  0  0  0
  191.0060  172.1660  140.0710 C   0  0  0  0  0  0  0  0  0  0  0  0
  188.4570  176.0010  144.5120 C   0  0  0  0  0  0  0  0  0  0  0  0
  188.6120  174.8590  141.1700 C   0  0  2  0  0  3  0  0  0  0  0  0
  187.2520  177.9550  145.2090 C   0  0  0  0  0  3  0  0  0  0  0  0
  191.9210  172.5880  139.0520 N   0  0  0  0  0  2  0  0  0  0  0  0
  189.6560  175.4840  144.4570 C   0  0  2  0  0  3  0  0  0  0  0  0
  189.3150  174.5940  147.4120 C   0  0  0  0  0  1  0  0  0  0  0  0
  186.4110  177.3570  141.5010 C   0  0  0  0  0  2  0  0  0  0  0  0
  186.7280  178.0810  143.8230 C   0  0  0  0  0  3  0  0  0  0  0  0
  190.6450  175.6700  145.5780 C   0  0  0  0  0  2  0  0  0  0  0  0
  190.7610  173.0050  141.2090 N   0  0  0  0  0  0  0  0  0  0  0  0
  189.6220  172.6950  142.0790 C   0  0  0  0  0  2  0  0  0  0  0  0
  187.0620  177.2180  142.8460 C   0  0  0  0  0  0  0  0  0  0  0  0
  189.9870  175.2370  143.0980 N   0  0  2  0  0  0  0  0  0  0  0  0
  188.8330  176.9840  146.8470 C   0  0  0  0  0  2  0  0  0  0  0  0
  187.4650  175.3940  140.2920 C   0  0  1  0  0  3  0  0  0  0  0  0
  190.9610  176.3350  147.9500 C   0  0  0  0  0  1  0  0  0  0  0  0
  191.4570  174.2980  141.2950 C   0  0  0  0  0  2  0  0  0  0  0  0
  190.4060  171.0620  139.9570 O   0  0  0  0  0  0  0  0  0  0  0  0
  191.3660  174.9740  142.6710 C   0  0  0  0  0  2  0  0  0  0  0  0
  187.3120  176.9200  140.3420 C   0  0  0  0  0  2  0  0  0  0  0  0
  188.2250  173.5890  138.6510 C   0  0  0  0  0  3  0  0  0  0  0  0
  187.6670  174.9330  138.8850 C   0  0  0  0  0  0  0  0  0  0  0  0
  187.3980  175.7320  137.8900 N   0  0  0  0  0  0  0  0  0  0  0  0
  187.4490  176.5500  135.6030 C   0  0  0  0  0  1  0  0  0  0  0  0
  189.1760  174.5380  136.2600 S   0  0  0  0  0  0  0  0  0  0  0  0
  187.5550  175.3300  136.4940 C   0  0  1  0  0  3  0  0  0  0  0  0
  188.8340  173.2830  137.5050 C   0  0  0  0  0  3  0  0  0  0  0  0
  193.3650  170.8330  138.1430 C   0  0  0  0  0  1  0  0  0  0  0  0
  192.2100  171.7840  137.8720 C   0  0  2  0  0  3  0  0  0  0  0  0
  192.8860  174.0920  137.0820 C   0  0  0  0  0  1  0  0  0  0  0  0
  192.5030  172.6780  136.6710 C   0  0  0  0  0  2  0  0  0  0  0  0
  1 12  1  0  0  0  0
  1 22  1  0  0  0  0
  2  7  1  0  0  0  0
  3 17  1  0  0  0  0
  4 20  1  0  0  0  0
  5 19  1  0  0  0  0
  5  2  1  0  0  0  0
  6 16  1  0  0  0  0
  7  4  2  0  0  0  0
  8  3  1  1  0  0  0
  8  5  1  0  0  0  0
  9  4  1  0  0  0  0
 10  6  1  0  0  0  0
 11  7  1  0  0  0  0
 11 15  1  6  0  0  0
 13 18  1  0  0  0  0
 14  9  2  0  0  0  0
 15  1  1  0  0  0  0
 16 23  1  0  0  0  0
 16 17  1  0  0  0  0
 18  2  2  0  0  0  0
 18 14  1  0  0  0  0
 19 25  1  6  0  0  0
 19 11  1  0  0  0  0
 20  1  1  0  0  0  0
 21 28  1  6  0  0  0
 21 26  1  0  0  0  0
 21  8  1  0  0  0  0
 23 25  1  0  0  0  0
 24  6  2  0  0  0  0
 26 13  1  0  0  0  0
 27 28  1  0  0  0  0
 29 28  2  0  0  0  0
 31 32  1  0  0  0  0
 31 33  1  0  0  0  0
 32 30  1  6  0  0  0
 32 29  1  0  0  0  0
 33 27  2  0  0  0  0
 35 34  1  1  0  0  0
 35 10  1  0  0  0  0
 37 36  1  0  0  0  0
 37 35  1  0  0  0  0
M  END
>  <MODEL>
7

>  <REMARK>
 VINA RESULT:      -7.0      2.700      4.713
  Name = 
  3 active torsions:
  status: ('A' for Active; 'I' for Inactive)
    1  A    between atoms: C_4  and  N_12
    2  A    between atoms: C_4  and  C_37
    3  A    between atoms: C_23  and  C_30
                            x       y       z     vdW  Elec       q    Type
                         _______ _______ _______ _____ _____    ______ ____

>  <TORSDO>
F 3

$$$$
=
 OpenBabel11112417223D

 37 42  0  0  1  0  0  0  0  0999 V2000
  194.3990  169.3790  141.2720 C   0  0  0  0  0  0  0  0  0  0  0  0
  191.1610  172.0640  140.3500 C   0  0  0  0  0  0  0  0  0  0  0  0
  191.6110  174.7770  141.6450 C   0  0  0  0  0  2  0  0  0  0  0  0
  192.4220  169.8820  139.7450 C   0  0  0  0  0  0  0  0  0  0  0  0
  190.7290  172.3930  141.7140 N   0  0  0  0  0  0  0  0  0  0  0  0
  191.5520  175.8390  144.7780 C   0  0  0  0  0  0  0  0  0  0  0  0
  192.2650  171.0960  140.5440 C   0  0  0  0  0  0  0  0  0  0  0  0
  190.4080  173.8290  141.8030 C   0  0  2  0  0  3  0  0  0  0  0  0
  191.4290  169.5410  138.9190 C   0  0  0  0  0  3  0  0  0  0  0  0
  190.6260  175.8280  145.8720 N   0  0  0  0  0  2  0  0  0  0  0  0
  192.7050  171.1810  141.7710 C   0  0  2  0  0  3  0  0  0  0  0  0
  195.4950  170.2880  140.7420 C   0  0  0  0  0  1  0  0  0  0  0  0
  188.8200  172.3490  139.2590 C   0  0  0  0  0  2  0  0  0  0  0  0
  190.2090  170.3820  138.7960 C   0  0  0  0  0  3  0  0  0  0  0  0
  193.5900  170.1160  142.3640 C   0  0  0  0  0  2  0  0  0  0  0  0
  191.8790  174.6170  144.1010 N   0  0  0  0  0  0  0  0  0  0  0  0
  192.5890  174.6900  142.8200 C   0  0  0  0  0  2  0  0  0  0  0  0
  190.0340  171.5050  139.5150 C   0  0  0  0  0  0  0  0  0  0  0  0
  191.8520  172.0470  142.5060 N   0  0  2  0  0  0  0  0  0  0  0  0
  193.5120  168.9050  140.0960 C   0  0  0  0  0  2  0  0  0  0  0  0
  189.2430  174.2450  140.8870 C   0  0  1  0  0  3  0  0  0  0  0  0
  195.0550  168.1660  141.8950 C   0  0  0  0  0  1  0  0  0  0  0  0
  191.2390  173.3700  144.5470 C   0  0  0  0  0  2  0  0  0  0  0  0
  192.0660  176.9280  144.4030 O   0  0  0  0  0  0  0  0  0  0  0  0
  191.8710  172.0940  143.9720 C   0  0  0  0  0  2  0  0  0  0  0  0
  188.3160  173.0840  140.5050 C   0  0  0  0  0  2  0  0  0  0  0  0
  188.4280  175.3980  143.0160 C   0  0  0  0  0  3  0  0  0  0  0  0
  188.4680  175.3410  141.5440 C   0  0  0  0  0  0  0  0  0  0  0  0
  187.8020  176.1960  140.8190 N   0  0  0  0  0  0  0  0  0  0  0  0
  186.1590  177.9220  140.3440 C   0  0  0  0  0  1  0  0  0  0  0  0
  186.0180  176.6840  142.7750 S   0  0  0  0  0  0  0  0  0  0  0  0
  187.0440  177.3000  141.4040 C   0  0  1  0  0  3  0  0  0  0  0  0
  187.4450  176.0310  143.6580 C   0  0  0  0  0  3  0  0  0  0  0  0
  191.0120  177.1260  147.9100 C   0  0  0  0  0  1  0  0  0  0  0  0
  190.2520  177.0340  146.5970 C   0  0  2  0  0  3  0  0  0  0  0  0
  188.1720  175.7050  147.1620 C   0  0  0  0  0  1  0  0  0  0  0  0
  188.7430  177.0750  146.8300 C   0  0  0  0  0  2  0  0  0  0  0  0
  1 22  1  0  0  0  0
  1 15  1  0  0  0  0
  2  7  1  0  0  0  0
  2  5  1  0  0  0  0
  3 17  1  0  0  0  0
  4 20  1  0  0  0  0
  4  7  2  0  0  0  0
  5  8  1  0  0  0  0
  5 19  1  0  0  0  0
  6 10  1  0  0  0  0
  7 11  1  0  0  0  0
  8  3  1  6  0  0  0
  9  4  1  0  0  0  0
 10 35  1  0  0  0  0
 11 15  1  1  0  0  0
 11 19  1  0  0  0  0
 12  1  1  0  0  0  0
 13 18  1  0  0  0  0
 13 26  1  0  0  0  0
 14  9  2  0  0  0  0
 14 18  1  0  0  0  0
 16 23  1  0  0  0  0
 16  6  1  0  0  0  0
 17 16  1  0  0  0  0
 18  2  2  0  0  0  0
 19 25  1  1  0  0  0
 20  1  1  0  0  0  0
 21 28  1  1  0  0  0
 21  8  1  0  0  0  0
 24  6  2  0  0  0  0
 25 23  1  0  0  0  0
 26 21  1  0  0  0  0
 27 33  2  0  0  0  0
 28 27  1  0  0  0  0
 29 32  1  0  0  0  0
 29 28  2  0  0  0  0
 31 33  1  0  0  0  0
 32 30  1  6  0  0  0
 32 31  1  0  0  0  0
 35 37  1  0  0  0  0
 35 34  1  1  0  0  0
 37 36  1  0  0  0  0
M  END
>  <MODEL>
8

>  <REMARK>
 VINA RESULT:      -6.6      2.707      7.662
  Name = 
  3 active torsions:
  status: ('A' for Active; 'I' for Inactive)
    1  A    between atoms: C_4  and  N_12
    2  A    between atoms: C_4  and  C_37
    3  A    between atoms: C_23  and  C_30
                            x       y       z     vdW  Elec       q    Type
                         _______ _______ _______ _____ _____    ______ ____

>  <TORSDO>
F 3

$$$$
=
 OpenBabel11112417223D

 37 42  0  0  1  0  0  0  0  0999 V2000
  186.7050  177.4090  143.1890 C   0  0  0  0  0  0  0  0  0  0  0  0
  190.5690  175.6490  143.9080 C   0  0  0  0  0  0  0  0  0  0  0  0
  191.5990  174.2580  141.4100 C   0  0  0  0  0  2  0  0  0  0  0  0
  188.7760  177.3560  144.6730 C   0  0  0  0  0  0  0  0  0  0  0  0
  190.2610  174.2530  143.5710 N   0  0  0  0  0  0  0  0  0  0  0  0
  190.6910  171.5160  139.7950 C   0  0  0  0  0  0  0  0  0  0  0  0
  189.2800  176.3560  143.7340 C   0  0  0  0  0  0  0  0  0  0  0  0
  191.3790  173.6640  142.8130 C   0  0  2  0  0  3  0  0  0  0  0  0
  189.4250  177.5150  145.8300 C   0  0  0  0  0  3  0  0  0  0  0  0
  190.5090  170.1290  140.1040 N   0  0  0  0  0  2  0  0  0  0  0  0
  188.4790  175.6250  143.0040 C   0  0  2  0  0  3  0  0  0  0  0  0
  187.1460  178.2420  141.9980 C   0  0  0  0  0  1  0  0  0  0  0  0
  192.4120  175.0960  145.6540 C   0  0  0  0  0  2  0  0  0  0  0  0
  190.6380  176.7150  146.1470 C   0  0  0  0  0  3  0  0  0  0  0  0
  187.0030  175.9160  142.9230 C   0  0  0  0  0  2  0  0  0  0  0  0
  190.0390  172.5210  140.5860 N   0  0  0  0  0  0  0  0  0  0  0  0
  190.4640  173.9170  140.4400 C   0  0  0  0  0  2  0  0  0  0  0  0
  191.1280  175.7880  145.3040 C   0  0  0  0  0  0  0  0  0  0  0  0
  189.0820  174.3560  142.7920 N   0  0  2  0  0  0  0  0  0  0  0  0
  187.4010  177.9340  144.4680 C   0  0  0  0  0  2  0  0  0  0  0  0
  192.6940  173.6190  143.6140 C   0  0  1  0  0  3  0  0  0  0  0  0
  185.2100  177.5790  143.3550 C   0  0  0  0  0  1  0  0  0  0  0  0
  189.1990  172.0940  141.7150 C   0  0  0  0  0  2  0  0  0  0  0  0
  191.4380  171.8520  138.8350 O   0  0  0  0  0  0  0  0  0  0  0  0
  188.3160  173.2060  142.3020 C   0  0  0  0  0  2  0  0  0  0  0  0
  192.4890  173.6570  145.1340 C   0  0  0  0  0  2  0  0  0  0  0  0
  192.7320  171.1620  142.9110 C   0  0  0  0  0  3  0  0  0  0  0  0
  193.4670  172.4020  143.2190 C   0  0  0  0  0  0  0  0  0  0  0  0
  194.7700  172.4340  143.1990 N   0  0  0  0  0  0  0  0  0  0  0  0
  197.0280  171.5380  143.1610 C   0  0  0  0  0  1  0  0  0  0  0  0
  194.9880  169.7910  143.6560 S   0  0  0  0  0  0  0  0  0  0  0  0
  195.5790  171.2850  142.8010 C   0  0  1  0  0  3  0  0  0  0  0  0
  193.3240  169.9700  142.9900 C   0  0  0  0  0  3  0  0  0  0  0  0
  192.6280  169.3440  139.1650 C   0  0  0  0  0  1  0  0  0  0  0  0
  191.1440  169.0630  139.3410 C   0  0  2  0  0  3  0  0  0  0  0  0
  191.4300  168.9670  136.8270 C   0  0  0  0  0  1  0  0  0  0  0  0
  190.4540  168.8830  137.9910 C   0  0  0  0  0  2  0  0  0  0  0  0
  1 22  1  0  0  0  0
  1 20  1  0  0  0  0
  2 18  1  0  0  0  0
  4  9  2  0  0  0  0
  5  2  1  0  0  0  0
  6 10  1  0  0  0  0
  6 16  1  0  0  0  0
  7  2  2  0  0  0  0
  7  4  1  0  0  0  0
  8  3  1  6  0  0  0
  8  5  1  0  0  0  0
  8 21  1  0  0  0  0
  9 14  1  0  0  0  0
 11 15  1  1  0  0  0
 11  7  1  0  0  0  0
 12  1  1  0  0  0  0
 15  1  1  0  0  0  0
 16 23  1  0  0  0  0
 17 16  1  0  0  0  0
 17  3  1  0  0  0  0
 18 13  1  0  0  0  0
 18 14  2  0  0  0  0
 19 25  1  1  0  0  0
 19 11  1  0  0  0  0
 19  5  1  0  0  0  0
 20  4  1  0  0  0  0
 21 28  1  1  0  0  0
 21 26  1  0  0  0  0
 23 25  1  0  0  0  0
 24  6  2  0  0  0  0
 26 13  1  0  0  0  0
 27 33  2  0  0  0  0
 27 28  1  0  0  0  0
 29 28  2  0  0  0  0
 32 30  1  1  0  0  0
 32 29  1  0  0  0  0
 32 31  1  0  0  0  0
 33 31  1  0  0  0  0
 35 34  1  6  0  0  0
 35 10  1  0  0  0  0
 36 37  1  0  0  0  0
 37 35  1  0  0  0  0
M  END
>  <MODEL>
9

>  <REMARK>
 VINA RESULT:      -6.6      2.624      5.650
  Name = 
  3 active torsions:
  status: ('A' for Active; 'I' for Inactive)
    1  A    between atoms: C_4  and  N_12
    2  A    between atoms: C_4  and  C_37
    3  A    between atoms: C_23  and  C_30
                            x       y       z     vdW  Elec       q    Type
                         _______ _______ _______ _____ _____    ______ ____

>  <TORSDO>
F 3

$$$$
