=
 OpenBabel11112416373D

 32 37  0  0  1  0  0  0  0  0999 V2000
  194.1850  175.7160  146.3950 C   0  0  0  0  0  2  0  0  0  0  0  0
  189.3220  174.3790  144.4050 N   0  0  1  0  0  0  0  0  0  0  0  0
  190.1720  172.0170  140.0900 C   0  0  0  0  0  2  0  0  0  0  0  0
  188.6860  172.2040  139.8110 C   0  0  0  0  0  2  0  0  0  0  0  0
  187.8550  176.4150  144.4810 C   0  0  2  0  0  3  0  0  0  0  0  0
  186.9970  177.3120  143.6350 C   0  0  0  0  0  0  0  0  0  0  0  0
  191.3410  175.5440  145.3150 C   0  0  2  0  0  3  0  0  0  0  0  0
  191.5240  174.3170  143.2660 C   0  0  0  0  0  2  0  0  0  0  0  0
  186.0190  178.2300  141.8470 N   0  0  0  0  0  0  0  0  0  0  0  0
  193.3280  175.5540  144.0070 C   0  0  0  0  0  2  0  0  0  0  0  0
  190.4480  172.0300  141.5970 C   0  0  0  0  0  2  0  0  0  0  0  0
  190.2420  173.5480  143.6130 C   0  0  2  0  0  3  0  0  0  0  0  0
  189.5380  172.9970  142.3740 C   0  0  1  0  0  3  0  0  0  0  0  0
  188.1160  175.0720  142.3310 C   0  0  2  0  0  3  0  0  0  0  0  0
  185.4960  178.9320  143.0130 C   0  0  0  0  0  2  0  0  0  0  0  0
  193.1420  176.6430  146.5020 O   0  0  0  0  0  0  0  0  0  0  0  0
  192.2330  174.7130  144.4820 N   0  0  1  0  0  0  0  0  0  0  0  0
  186.1710  178.3200  144.1130 O   0  0  0  0  0  0  0  0  0  0  0  0
  191.9910  175.8650  146.6650 C   0  0  0  0  0  2  0  0  0  0  0  0
  194.5470  175.4640  144.9300 C   0  0  1  0  0  3  0  0  0  0  0  0
  188.1910  173.5680  140.3090 C   0  0  0  0  0  2  0  0  0  0  0  0
  188.9910  174.1310  141.5000 C   0  0  2  0  0  3  0  0  0  0  0  0
  187.6920  176.2810  141.4900 C   0  0  0  0  0  2  0  0  0  0  0  0
  190.0340  174.7960  145.6230 C   0  0  0  0  0  2  0  0  0  0  0  0
  188.5740  177.2050  145.3780 O   0  0  0  0  0  1  0  0  0  0  0  0
  185.4480  178.2910  140.5130 C   0  0  0  0  0  1  0  0  0  0  0  0
  188.8250  175.5430  143.6310 C   0  0  2  0  0  3  0  0  0  0  0  0
  186.8970  177.2280  142.3280 C   0  0  0  0  0  0  0  0  0  0  0  0
  195.5530  176.4280  144.5090 N   0  0  0  0  0  2  0  0  0  0  0  0
  196.5540  176.1220  143.5360 C   0  0  0  0  0  0  0  0  0  0  0  0
  196.6180  174.9770  143.0160 O   0  0  0  0  0  0  0  0  0  0  0  0
  197.5340  177.1660  143.1380 C   0  0  0  0  0  1  0  0  0  0  0  0
  1 16  1  0  0  0  0
  2 24  1  1  0  0  0
  3 11  1  0  0  0  0
  4  3  1  0  0  0  0
  4 21  1  0  0  0  0
  5 25  1  1  0  0  0
  6 18  1  0  0  0  0
  6  5  1  0  0  0  0
  7 24  1  1  0  0  0
  7 19  1  0  0  0  0
  9 28  1  0  0  0  0
  9 15  1  0  0  0  0
 10 17  1  0  0  0  0
 10 20  1  0  0  0  0
 12  8  1  6  0  0  0
 12  2  1  0  0  0  0
 13 11  1  6  0  0  0
 13 12  1  0  0  0  0
 14 23  1  6  0  0  0
 14 27  1  0  0  0  0
 15 18  1  0  0  0  0
 16 19  1  0  0  0  0
 17  8  1  6  0  0  0
 17  7  1  0  0  0  0
 20 29  1  6  0  0  0
 20  1  1  0  0  0  0
 22 21  1  6  0  0  0
 22 14  1  0  0  0  0
 22 13  1  0  0  0  0
 23 28  1  0  0  0  0
 26  9  1  0  0  0  0
 27  2  1  0  0  0  0
 27  5  1  0  0  0  0
 28  6  2  0  0  0  0
 30 29  1  0  0  0  0
 31 30  2  0  0  0  0
 32 30  1  0  0  0  0
M  END
>  <MODEL>
1

>  <REMARK>
 VINA RESULT:      -8.0      0.000      0.000
  Name = 
  1 active torsions:
  status: ('A' for Active; 'I' for Inactive)
    1  A    between atoms: C_20  and  N_29
                            x       y       z     vdW  Elec       q    Type
                         _______ _______ _______ _____ _____    ______ ____

>  <TORSDO>
F 1

$$$$
=
 OpenBabel11112416373D

 32 37  0  0  1  0  0  0  0  0999 V2000
  190.6210  172.5660  140.4400 C   0  0  0  0  0  2  0  0  0  0  0  0
  189.8320  177.0520  143.3800 N   0  0  1  0  0  0  0  0  0  0  0  0
  191.9910  176.2260  147.8050 C   0  0  0  0  0  2  0  0  0  0  0  0
  191.2290  177.4520  148.2920 C   0  0  0  0  0  2  0  0  0  0  0  0
  187.4030  177.6680  143.2380 C   0  0  2  0  0  3  0  0  0  0  0  0
  186.1820  177.9470  144.0670 C   0  0  0  0  0  0  0  0  0  0  0  0
  189.6050  174.9870  141.9850 C   0  0  2  0  0  3  0  0  0  0  0  0
  190.6430  174.8330  144.1380 C   0  0  0  0  0  2  0  0  0  0  0  0
  184.8210  178.1310  145.8310 N   0  0  0  0  0  0  0  0  0  0  0  0
  190.2540  172.9040  142.9320 C   0  0  0  0  0  2  0  0  0  0  0  0
  192.2040  176.2860  146.2890 C   0  0  0  0  0  2  0  0  0  0  0  0
  190.8870  176.3490  144.1280 C   0  0  2  0  0  3  0  0  0  0  0  0
  191.0270  176.9280  145.5340 C   0  0  1  0  0  3  0  0  0  0  0  0
  188.5690  177.4650  145.4940 C   0  0  2  0  0  3  0  0  0  0  0  0
  184.0660  178.5980  144.6740 C   0  0  0  0  0  2  0  0  0  0  0  0
  189.3770  173.2020  140.3650 O   0  0  0  0  0  0  0  0  0  0  0  0
  190.6460  174.3010  142.7770 N   0  0  1  0  0  0  0  0  0  0  0  0
  184.9750  178.4350  143.5840 O   0  0  0  0  0  0  0  0  0  0  0  0
  189.6650  174.5630  140.5130 C   0  0  0  0  0  2  0  0  0  0  0  0
  190.8760  172.0210  141.8460 C   0  0  1  0  0  3  0  0  0  0  0  0
  189.8230  177.5140  147.6810 C   0  0  0  0  0  2  0  0  0  0  0  0
  189.7050  176.8330  146.3040 C   0  0  2  0  0  3  0  0  0  0  0  0
  187.2280  177.2380  146.2010 C   0  0  0  0  0  2  0  0  0  0  0  0
  189.8170  176.5090  142.0130 C   0  0  0  0  0  2  0  0  0  0  0  0
  187.0220  176.9170  142.1260 O   0  0  0  0  0  1  0  0  0  0  0  0
  184.4410  178.3490  147.2160 C   0  0  0  0  0  1  0  0  0  0  0  0
  188.5090  176.9220  144.0390 C   0  0  2  0  0  3  0  0  0  0  0  0
  186.1170  177.7950  145.3710 C   0  0  0  0  0  0  0  0  0  0  0  0
  190.3410  170.6710  141.9440 N   0  0  0  0  0  2  0  0  0  0  0  0
  191.0570  169.5230  141.4840 C   0  0  0  0  0  0  0  0  0  0  0  0
  192.1880  169.6430  140.9430 O   0  0  0  0  0  0  0  0  0  0  0  0
  190.4570  168.1720  141.6410 C   0  0  0  0  0  1  0  0  0  0  0  0
  1 20  1  0  0  0  0
  2 24  1  6  0  0  0
  2 27  1  0  0  0  0
  2 12  1  0  0  0  0
  3  4  1  0  0  0  0
  5 25  1  6  0  0  0
  5 27  1  0  0  0  0
  5  6  1  0  0  0  0
  6 28  2  0  0  0  0
  7 19  1  6  0  0  0
  7 24  1  0  0  0  0
  7 17  1  0  0  0  0
  9 26  1  0  0  0  0
 11  3  1  0  0  0  0
 12  8  1  1  0  0  0
 12 13  1  0  0  0  0
 13 11  1  1  0  0  0
 13 22  1  0  0  0  0
 14 23  1  1  0  0  0
 14 22  1  0  0  0  0
 15  9  1  0  0  0  0
 16  1  1  0  0  0  0
 16 19  1  0  0  0  0
 17 10  1  1  0  0  0
 17  8  1  0  0  0  0
 18  6  1  0  0  0  0
 18 15  1  0  0  0  0
 20 29  1  6  0  0  0
 20 10  1  0  0  0  0
 21  4  1  0  0  0  0
 22 21  1  1  0  0  0
 27 14  1  0  0  0  0
 28  9  1  0  0  0  0
 28 23  1  0  0  0  0
 30 32  1  0  0  0  0
 30 29  1  0  0  0  0
 31 30  2  0  0  0  0
M  END
>  <MODEL>
2

>  <REMARK>
 VINA RESULT:      -7.3      3.121      5.875
  Name = 
  1 active torsions:
  status: ('A' for Active; 'I' for Inactive)
    1  A    between atoms: C_20  and  N_29
                            x       y       z     vdW  Elec       q    Type
                         _______ _______ _______ _____ _____    ______ ____

>  <TORSDO>
F 1

$$$$
=
 OpenBabel11112416373D

 32 37  0  0  1  0  0  0  0  0999 V2000
  189.7030  171.3860  138.3440 C   0  0  0  0  0  2  0  0  0  0  0  0
  189.7610  173.3620  143.3920 N   0  0  1  0  0  0  0  0  0  0  0  0
  187.1890  177.6390  143.2540 C   0  0  0  0  0  2  0  0  0  0  0  0
  187.7830  177.9230  144.6280 C   0  0  0  0  0  2  0  0  0  0  0  0
  192.1280  173.3190  144.2260 C   0  0  2  0  0  3  0  0  0  0  0  0
  193.2180  174.1800  144.7980 C   0  0  0  0  0  0  0  0  0  0  0  0
  190.3230  172.4670  141.1240 C   0  0  2  0  0  3  0  0  0  0  0  0
  189.0630  174.4970  141.3000 C   0  0  0  0  0  2  0  0  0  0  0  0
  194.3470  175.9830  145.4840 N   0  0  0  0  0  0  0  0  0  0  0  0
  189.7520  173.7720  139.2190 C   0  0  0  0  0  2  0  0  0  0  0  0
  187.1470  176.1320  142.9810 C   0  0  0  0  0  2  0  0  0  0  0  0
  188.6920  174.1400  142.7460 C   0  0  2  0  0  3  0  0  0  0  0  0
  188.3430  175.3710  143.5800 C   0  0  1  0  0  3  0  0  0  0  0  0
  190.7340  175.4480  144.3600 C   0  0  2  0  0  3  0  0  0  0  0  0
  195.1860  174.8290  145.7850 C   0  0  0  0  0  2  0  0  0  0  0  0
  190.8880  171.2940  139.0830 O   0  0  0  0  0  0  0  0  0  0  0  0
  189.2620  173.2860  140.5050 N   0  0  1  0  0  0  0  0  0  0  0  0
  194.4240  173.7190  145.3060 O   0  0  0  0  0  0  0  0  0  0  0  0
  190.4680  171.1210  140.4060 C   0  0  0  0  0  2  0  0  0  0  0  0
  189.3370  172.8460  138.0720 C   0  0  1  0  0  3  0  0  0  0  0  0
  189.2390  177.4460  144.7170 C   0  0  0  0  0  2  0  0  0  0  0  0
  189.5720  176.2630  143.7870 C   0  0  2  0  0  3  0  0  0  0  0  0
  192.0000  176.3090  144.4290 C   0  0  0  0  0  2  0  0  0  0  0  0
  189.9790  172.1500  142.5880 C   0  0  0  0  0  2  0  0  0  0  0  0
  192.6970  172.4340  143.3100 O   0  0  0  0  0  1  0  0  0  0  0  0
  194.5460  177.3200  146.0180 C   0  0  0  0  0  1  0  0  0  0  0  0
  191.0060  174.1540  143.5440 C   0  0  2  0  0  3  0  0  0  0  0  0
  193.1460  175.4860  144.9230 C   0  0  0  0  0  0  0  0  0  0  0  0
  189.9710  173.2800  136.8360 N   0  0  0  0  0  2  0  0  0  0  0  0
  189.4540  174.3450  136.0370 C   0  0  0  0  0  0  0  0  0  0  0  0
  188.3950  174.9420  136.3660 O   0  0  0  0  0  0  0  0  0  0  0  0
  190.1700  174.7500  134.7990 C   0  0  0  0  0  1  0  0  0  0  0  0
  1 16  1  0  0  0  0
  2 24  1  6  0  0  0
  2 27  1  0  0  0  0
  3  4  1  0  0  0  0
  4 21  1  0  0  0  0
  5 25  1  6  0  0  0
  5  6  1  0  0  0  0
  6 28  2  0  0  0  0
  6 18  1  0  0  0  0
  7 19  1  6  0  0  0
  7 24  1  0  0  0  0
  9 15  1  0  0  0  0
  9 26  1  0  0  0  0
 11  3  1  0  0  0  0
 12  8  1  6  0  0  0
 12  2  1  0  0  0  0
 12 13  1  0  0  0  0
 13 11  1  6  0  0  0
 13 22  1  0  0  0  0
 14 23  1  6  0  0  0
 16 19  1  0  0  0  0
 17 10  1  6  0  0  0
 17  7  1  0  0  0  0
 17  8  1  0  0  0  0
 18 15  1  0  0  0  0
 20 29  1  6  0  0  0
 20  1  1  0  0  0  0
 20 10  1  0  0  0  0
 22 14  1  0  0  0  0
 22 21  1  1  0  0  0
 23 28  1  0  0  0  0
 27  5  1  0  0  0  0
 27 14  1  0  0  0  0
 28  9  1  0  0  0  0
 30 31  2  0  0  0  0
 30 29  1  0  0  0  0
 32 30  1  0  0  0  0
M  END
>  <MODEL>
3

>  <REMARK>
 VINA RESULT:      -7.3      3.270      7.356
  Name = 
  1 active torsions:
  status: ('A' for Active; 'I' for Inactive)
    1  A    between atoms: C_20  and  N_29
                            x       y       z     vdW  Elec       q    Type
                         _______ _______ _______ _____ _____    ______ ____

>  <TORSDO>
F 1

$$$$
=
 OpenBabel11112416373D

 32 37  0  0  1  0  0  0  0  0999 V2000
  186.3170  176.0410  143.4960 C   0  0  0  0  0  2  0  0  0  0  0  0
  191.1170  173.5520  143.0960 N   0  0  1  0  0  0  0  0  0  0  0  0
  194.0810  175.6650  146.5130 C   0  0  0  0  0  2  0  0  0  0  0  0
  195.2330  174.9760  145.7920 C   0  0  0  0  0  2  0  0  0  0  0  0
  191.7820  173.5100  140.6770 C   0  0  2  0  0  3  0  0  0  0  0  0
  192.8740  173.9000  139.7220 C   0  0  0  0  0  0  0  0  0  0  0  0
  188.9920  174.8150  142.7070 C   0  0  2  0  0  3  0  0  0  0  0  0
  190.5550  175.6290  144.3300 C   0  0  0  0  0  2  0  0  0  0  0  0
  194.7520  174.8030  138.9130 N   0  0  0  0  0  0  0  0  0  0  0  0
  188.6900  176.8930  143.8250 C   0  0  0  0  0  2  0  0  0  0  0  0
  192.7660  174.9170  146.2730 C   0  0  0  0  0  2  0  0  0  0  0  0
  191.2110  174.2430  144.3920 C   0  0  2  0  0  3  0  0  0  0  0  0
  192.6620  174.3040  144.8650 C   0  0  1  0  0  3  0  0  0  0  0  0
  193.3830  174.3820  142.4560 C   0  0  2  0  0  3  0  0  0  0  0  0
  194.1340  174.0750  137.8120 C   0  0  0  0  0  2  0  0  0  0  0  0
  186.8080  175.7380  142.2200 O   0  0  0  0  0  0  0  0  0  0  0  0
  189.1360  175.5140  144.0000 N   0  0  1  0  0  0  0  0  0  0  0  0
  192.9370  173.5440  138.3820 O   0  0  0  0  0  0  0  0  0  0  0  0
  187.5180  174.5440  142.3880 C   0  0  0  0  0  2  0  0  0  0  0  0
  187.2140  177.0590  144.2020 C   0  0  1  0  0  3  0  0  0  0  0  0
  195.0260  174.9830  144.2720 C   0  0  0  0  0  2  0  0  0  0  0  0
  193.5470  175.0190  143.8390 C   0  0  2  0  0  3  0  0  0  0  0  0
  194.1560  175.1900  141.4080 C   0  0  0  0  0  2  0  0  0  0  0  0
  189.6910  173.4470  142.7490 C   0  0  0  0  0  2  0  0  0  0  0  0
  190.5520  173.7800  140.0770 O   0  0  0  0  0  1  0  0  0  0  0  0
  196.1210  175.2910  138.9260 C   0  0  0  0  0  1  0  0  0  0  0  0
  191.8920  174.2500  142.0410 C   0  0  2  0  0  3  0  0  0  0  0  0
  193.9340  174.6030  140.0520 C   0  0  0  0  0  0  0  0  0  0  0  0
  186.7710  178.4040  143.8700 N   0  0  0  0  0  2  0  0  0  0  0  0
  185.8050  179.1130  144.6500 C   0  0  0  0  0  0  0  0  0  0  0  0
  185.2740  178.5770  145.6580 O   0  0  0  0  0  0  0  0  0  0  0  0
  185.4200  180.4950  144.2630 C   0  0  0  0  0  1  0  0  0  0  0  0
  1 20  1  0  0  0  0
  2 24  1  6  0  0  0
  2 12  1  0  0  0  0
  4  3  1  0  0  0  0
  5 25  1  6  0  0  0
  5 27  1  0  0  0  0
  6 28  2  0  0  0  0
  6  5  1  0  0  0  0
  7 19  1  1  0  0  0
  7 24  1  0  0  0  0
  7 17  1  0  0  0  0
  9 26  1  0  0  0  0
  9 28  1  0  0  0  0
 10 20  1  0  0  0  0
 11  3  1  0  0  0  0
 12  8  1  6  0  0  0
 12 13  1  0  0  0  0
 13 11  1  1  0  0  0
 14 23  1  6  0  0  0
 14 22  1  0  0  0  0
 15 18  1  0  0  0  0
 15  9  1  0  0  0  0
 16 19  1  0  0  0  0
 16  1  1  0  0  0  0
 17 10  1  6  0  0  0
 17  8  1  0  0  0  0
 18  6  1  0  0  0  0
 20 29  1  6  0  0  0
 21  4  1  0  0  0  0
 22 21  1  1  0  0  0
 22 13  1  0  0  0  0
 27 14  1  0  0  0  0
 27  2  1  0  0  0  0
 28 23  1  0  0  0  0
 29 30  1  0  0  0  0
 30 31  2  0  0  0  0
 32 30  1  0  0  0  0
M  END
>  <MODEL>
4

>  <REMARK>
 VINA RESULT:      -7.1      2.823      7.602
  Name = 
  1 active torsions:
  status: ('A' for Active; 'I' for Inactive)
    1  A    between atoms: C_20  and  N_29
                            x       y       z     vdW  Elec       q    Type
                         _______ _______ _______ _____ _____    ______ ____

>  <TORSDO>
F 1

$$$$
=
 OpenBabel11112416373D

 32 37  0  0  1  0  0  0  0  0999 V2000
  188.6850  177.9160  143.9750 C   0  0  0  0  0  2  0  0  0  0  0  0
  192.7760  174.8500  142.1690 N   0  0  1  0  0  0  0  0  0  0  0  0
  190.7660  170.4860  140.8120 C   0  0  0  0  0  2  0  0  0  0  0  0
  192.1930  169.9550  140.7760 C   0  0  0  0  0  2  0  0  0  0  0  0
  194.6280  174.9340  143.8610 C   0  0  2  0  0  3  0  0  0  0  0  0
  195.5060  174.0760  144.7280 C   0  0  0  0  0  0  0  0  0  0  0  0
  191.2180  176.2930  143.4930 C   0  0  2  0  0  3  0  0  0  0  0  0
  190.4540  174.1620  142.7080 C   0  0  0  0  0  2  0  0  0  0  0  0
  196.3520  172.2850  145.7620 N   0  0  0  0  0  0  0  0  0  0  0  0
  189.0930  175.4090  144.0940 C   0  0  0  0  0  2  0  0  0  0  0  0
  190.7460  172.0040  140.6030 C   0  0  0  0  0  2  0  0  0  0  0  0
  191.5870  174.1390  141.6720 C   0  0  2  0  0  3  0  0  0  0  0  0
  191.9510  172.7220  141.2360 C   0  0  1  0  0  3  0  0  0  0  0  0
  193.7490  172.7040  142.9960 C   0  0  2  0  0  3  0  0  0  0  0  0
  197.1910  173.4160  146.1380 C   0  0  0  0  0  2  0  0  0  0  0  0
  189.9020  177.9520  144.6660 O   0  0  0  0  0  0  0  0  0  0  0  0
  190.0500  175.5360  142.9990 N   0  0  1  0  0  0  0  0  0  0  0  0
  196.5900  174.5250  145.4690 O   0  0  0  0  0  0  0  0  0  0  0  0
  190.8760  177.7750  143.6770 C   0  0  0  0  0  2  0  0  0  0  0  0
  188.0470  176.5290  144.0600 C   0  0  1  0  0  3  0  0  0  0  0  0
  193.0360  170.5390  141.9180 C   0  0  0  0  0  2  0  0  0  0  0  0
  192.5740  171.9310  142.3920 C   0  0  2  0  0  3  0  0  0  0  0  0
  194.2740  171.9800  144.2400 C   0  0  0  0  0  2  0  0  0  0  0  0
  192.3730  176.2300  142.4810 C   0  0  0  0  0  2  0  0  0  0  0  0
  194.2440  176.0570  144.5940 O   0  0  0  0  0  1  0  0  0  0  0  0
  196.7000  170.8880  145.9580 C   0  0  0  0  0  1  0  0  0  0  0  0
  193.3740  174.1710  143.3450 C   0  0  2  0  0  3  0  0  0  0  0  0
  195.3740  172.7760  144.8640 C   0  0  0  0  0  0  0  0  0  0  0  0
  187.2100  176.4540  145.2470 N   0  0  0  0  0  2  0  0  0  0  0  0
  185.8590  176.9230  145.2690 C   0  0  0  0  0  0  0  0  0  0  0  0
  185.3440  177.4500  144.2480 O   0  0  0  0  0  0  0  0  0  0  0  0
  185.0570  176.7910  146.5130 C   0  0  0  0  0  1  0  0  0  0  0  0
  1 20  1  0  0  0  0
  1 16  1  0  0  0  0
  2 24  1  1  0  0  0
  2 27  1  0  0  0  0
  4  3  1  0  0  0  0
  4 21  1  0  0  0  0
  5 25  1  1  0  0  0
  5  6  1  0  0  0  0
  6 28  2  0  0  0  0
  6 18  1  0  0  0  0
  7 24  1  6  0  0  0
  7 19  1  0  0  0  0
  9 26  1  0  0  0  0
  9 15  1  0  0  0  0
 11  3  1  0  0  0  0
 12  2  1  0  0  0  0
 12  8  1  1  0  0  0
 13 11  1  1  0  0  0
 13 12  1  0  0  0  0
 13 22  1  0  0  0  0
 14 27  1  0  0  0  0
 14 23  1  1  0  0  0
 17  8  1  1  0  0  0
 17  7  1  0  0  0  0
 17 10  1  0  0  0  0
 18 15  1  0  0  0  0
 19 16  1  0  0  0  0
 20 10  1  0  0  0  0
 20 29  1  1  0  0  0
 22 21  1  6  0  0  0
 22 14  1  0  0  0  0
 23 28  1  0  0  0  0
 27  5  1  0  0  0  0
 28  9  1  0  0  0  0
 29 30  1  0  0  0  0
 30 32  1  0  0  0  0
 31 30  2  0  0  0  0
M  END
>  <MODEL>
5

>  <REMARK>
 VINA RESULT:      -7.0      2.476      7.551
  Name = 
  1 active torsions:
  status: ('A' for Active; 'I' for Inactive)
    1  A    between atoms: C_20  and  N_29
                            x       y       z     vdW  Elec       q    Type
                         _______ _______ _______ _____ _____    ______ ____

>  <TORSDO>
F 1

$$$$
=
 OpenBabel11112416373D

 32 37  0  0  1  0  0  0  0  0999 V2000
  188.9800  177.9900  145.1190 C   0  0  0  0  0  2  0  0  0  0  0  0
  192.2040  174.4510  142.5740 N   0  0  1  0  0  0  0  0  0  0  0  0
  189.3350  172.0800  139.2470 C   0  0  0  0  0  2  0  0  0  0  0  0
  190.4770  171.0800  139.1260 C   0  0  0  0  0  2  0  0  0  0  0  0
  193.4820  173.1630  144.3090 C   0  0  2  0  0  3  0  0  0  0  0  0
  193.7860  171.7740  144.7950 C   0  0  0  0  0  0  0  0  0  0  0  0
  190.8990  175.7960  144.2330 C   0  0  2  0  0  3  0  0  0  0  0  0
  189.7280  174.5970  142.5200 C   0  0  0  0  0  2  0  0  0  0  0  0
  193.7200  169.5510  145.0190 N   0  0  0  0  0  0  0  0  0  0  0  0
  188.5240  175.6760  144.1670 C   0  0  0  0  0  2  0  0  0  0  0  0
  189.8530  173.4410  139.7240 C   0  0  0  0  0  2  0  0  0  0  0  0
  191.0220  174.5090  141.6990 C   0  0  2  0  0  3  0  0  0  0  0  0
  191.0170  173.3320  140.7250 C   0  0  1  0  0  3  0  0  0  0  0  0
  192.1960  171.9560  142.4700 C   0  0  2  0  0  3  0  0  0  0  0  0
  194.7480  170.0300  145.9350 C   0  0  0  0  0  2  0  0  0  0  0  0
  189.9230  177.2820  145.8750 O   0  0  0  0  0  0  0  0  0  0  0  0
  189.7210  175.8060  143.3420 N   0  0  1  0  0  0  0  0  0  0  0  0
  194.7250  171.4480  145.7630 O   0  0  0  0  0  0  0  0  0  0  0  0
  191.0110  177.1100  145.0120 C   0  0  0  0  0  2  0  0  0  0  0  0
  187.9350  177.0460  144.5230 C   0  0  1  0  0  3  0  0  0  0  0  0
  191.1360  170.8160  140.4860 C   0  0  0  0  0  2  0  0  0  0  0  0
  191.0340  171.9950  141.4730 C   0  0  2  0  0  3  0  0  0  0  0  0
  192.1220  170.6810  143.3170 C   0  0  0  0  0  2  0  0  0  0  0  0
  192.1950  175.6560  143.4170 C   0  0  0  0  0  2  0  0  0  0  0  0
  193.2990  173.9910  145.4170 O   0  0  0  0  0  1  0  0  0  0  0  0
  193.5430  168.1660  144.6170 C   0  0  0  0  0  1  0  0  0  0  0  0
  192.2290  173.2100  143.3870 C   0  0  2  0  0  3  0  0  0  0  0  0
  193.2170  170.6830  144.3330 C   0  0  0  0  0  0  0  0  0  0  0  0
  186.8400  176.8790  145.4660 N   0  0  0  0  0  2  0  0  0  0  0  0
  185.7410  177.7900  145.5400 C   0  0  0  0  0  0  0  0  0  0  0  0
  185.6920  178.8030  144.7940 O   0  0  0  0  0  0  0  0  0  0  0  0
  184.6460  177.5410  146.5140 C   0  0  0  0  0  1  0  0  0  0  0  0
  1 16  1  0  0  0  0
  2 27  1  0  0  0  0
  2 24  1  1  0  0  0
  3 11  1  0  0  0  0
  4  3  1  0  0  0  0
  4 21  1  0  0  0  0
  5  6  1  0  0  0  0
  5 25  1  1  0  0  0
  6 18  1  0  0  0  0
  7 24  1  6  0  0  0
  7 19  1  0  0  0  0
  9 15  1  0  0  0  0
 10 20  1  0  0  0  0
 12  8  1  1  0  0  0
 12  2  1  0  0  0  0
 13 11  1  1  0  0  0
 13 22  1  0  0  0  0
 13 12  1  0  0  0  0
 14 23  1  1  0  0  0
 14 27  1  0  0  0  0
 17  8  1  6  0  0  0
 17 10  1  0  0  0  0
 17  7  1  0  0  0  0
 18 15  1  0  0  0  0
 19 16  1  0  0  0  0
 20  1  1  0  0  0  0
 20 29  1  1  0  0  0
 22 21  1  6  0  0  0
 22 14  1  0  0  0  0
 23 28  1  0  0  0  0
 26  9  1  0  0  0  0
 27  5  1  0  0  0  0
 28  6  2  0  0  0  0
 28  9  1  0  0  0  0
 29 30  1  0  0  0  0
 30 32  1  0  0  0  0
 31 30  2  0  0  0  0
M  END
>  <MODEL>
6

>  <REMARK>
 VINA RESULT:      -6.9      2.760      7.251
  Name = 
  1 active torsions:
  status: ('A' for Active; 'I' for Inactive)
    1  A    between atoms: C_20  and  N_29
                            x       y       z     vdW  Elec       q    Type
                         _______ _______ _______ _____ _____    ______ ____

>  <TORSDO>
F 1

$$$$
=
 OpenBabel11112416373D

 32 37  0  0  1  0  0  0  0  0999 V2000
  187.1490  175.4690  142.5530 C   0  0  0  0  0  2  0  0  0  0  0  0
  192.1210  173.3090  142.5980 N   0  0  1  0  0  0  0  0  0  0  0  0
  194.4890  175.3180  146.5080 C   0  0  0  0  0  2  0  0  0  0  0  0
  195.7650  174.7580  145.8940 C   0  0  0  0  0  2  0  0  0  0  0  0
  193.0820  173.4980  140.2870 C   0  0  2  0  0  3  0  0  0  0  0  0
  194.2550  174.0260  139.5100 C   0  0  0  0  0  0  0  0  0  0  0  0
  189.9790  174.4710  142.0290 C   0  0  2  0  0  3  0  0  0  0  0  0
  191.2700  175.2460  143.8930 C   0  0  0  0  0  2  0  0  0  0  0  0
  196.1510  175.1000  139.0150 N   0  0  0  0  0  0  0  0  0  0  0  0
  189.3990  176.4320  143.2430 C   0  0  0  0  0  2  0  0  0  0  0  0
  193.2680  174.5150  146.0490 C   0  0  0  0  0  2  0  0  0  0  0  0
  192.0070  173.9000  143.9410 C   0  0  2  0  0  3  0  0  0  0  0  0
  193.3810  174.0100  144.5990 C   0  0  1  0  0  3  0  0  0  0  0  0
  194.3870  174.3200  142.3150 C   0  0  2  0  0  3  0  0  0  0  0  0
  195.7260  174.4260  137.7950 C   0  0  0  0  0  2  0  0  0  0  0  0
  187.8130  175.2980  141.3330 O   0  0  0  0  0  0  0  0  0  0  0  0
  189.9140  175.0720  143.3760 N   0  0  1  0  0  0  0  0  0  0  0  0
  194.5060  173.7820  138.1670 O   0  0  0  0  0  0  0  0  0  0  0  0
  188.5780  174.1390  141.5050 C   0  0  0  0  0  2  0  0  0  0  0  0
  187.8800  176.4800  143.4380 C   0  0  1  0  0  3  0  0  0  0  0  0
  195.7480  174.8730  144.3640 C   0  0  0  0  0  2  0  0  0  0  0  0
  194.3350  174.8550  143.7480 C   0  0  2  0  0  3  0  0  0  0  0  0
  195.2270  175.2530  141.4340 C   0  0  0  0  0  2  0  0  0  0  0  0
  190.7610  173.1470  142.0640 C   0  0  0  0  0  2  0  0  0  0  0  0
  191.9190  173.7410  139.5540 O   0  0  0  0  0  1  0  0  0  0  0  0
  197.4710  175.6660  139.2380 C   0  0  0  0  0  1  0  0  0  0  0  0
  192.9710  174.1330  141.7030 C   0  0  2  0  0  3  0  0  0  0  0  0
  195.2140  174.7630  140.0220 C   0  0  0  0  0  0  0  0  0  0  0  0
  187.3900  177.8190  143.1480 N   0  0  0  0  0  2  0  0  0  0  0  0
  186.2920  178.4070  143.8500 C   0  0  0  0  0  0  0  0  0  0  0  0
  185.6820  177.7650  144.7450 O   0  0  0  0  0  0  0  0  0  0  0  0
  185.8630  179.7900  143.5150 C   0  0  0  0  0  1  0  0  0  0  0  0
  1 20  1  0  0  0  0
  2 24  1  6  0  0  0
  2 12  1  0  0  0  0
  4  3  1  0  0  0  0
  5 25  1  6  0  0  0
  5 27  1  0  0  0  0
  6 28  2  0  0  0  0
  6  5  1  0  0  0  0
  7 19  1  1  0  0  0
  7 24  1  0  0  0  0
  7 17  1  0  0  0  0
  9 26  1  0  0  0  0
  9 28  1  0  0  0  0
 10 20  1  0  0  0  0
 11  3  1  0  0  0  0
 12  8  1  6  0  0  0
 12 13  1  0  0  0  0
 13 11  1  1  0  0  0
 14 23  1  6  0  0  0
 14 22  1  0  0  0  0
 15 18  1  0  0  0  0
 15  9  1  0  0  0  0
 16 19  1  0  0  0  0
 16  1  1  0  0  0  0
 17 10  1  6  0  0  0
 17  8  1  0  0  0  0
 18  6  1  0  0  0  0
 20 29  1  6  0  0  0
 21  4  1  0  0  0  0
 22 21  1  1  0  0  0
 22 13  1  0  0  0  0
 27 14  1  0  0  0  0
 27  2  1  0  0  0  0
 28 23  1  0  0  0  0
 29 30  1  0  0  0  0
 30 31  2  0  0  0  0
 32 30  1  0  0  0  0
M  END
>  <MODEL>
7

>  <REMARK>
 VINA RESULT:      -6.8      2.911      7.919
  Name = 
  1 active torsions:
  status: ('A' for Active; 'I' for Inactive)
    1  A    between atoms: C_20  and  N_29
                            x       y       z     vdW  Elec       q    Type
                         _______ _______ _______ _____ _____    ______ ____

>  <TORSDO>
F 1

$$$$
=
 OpenBabel11112416373D

 32 37  0  0  1  0  0  0  0  0999 V2000
  192.3310  174.2680  143.4330 C   0  0  0  0  0  2  0  0  0  0  0  0
  188.5720  178.1240  144.0520 N   0  0  1  0  0  0  0  0  0  0  0  0
  186.2680  177.1570  148.3740 C   0  0  0  0  0  2  0  0  0  0  0  0
  185.2080  178.1500  147.9150 C   0  0  0  0  0  2  0  0  0  0  0  0
  187.2630  178.2970  141.9170 C   0  0  2  0  0  3  0  0  0  0  0  0
  185.8740  178.2410  141.3490 C   0  0  0  0  0  0  0  0  0  0  0  0
  190.0220  176.2460  143.2570 C   0  0  2  0  0  3  0  0  0  0  0  0
  188.8420  176.0150  145.3290 C   0  0  0  0  0  2  0  0  0  0  0  0
  183.6630  177.9470  141.1950 N   0  0  0  0  0  0  0  0  0  0  0  0
  190.0220  174.2140  144.4940 C   0  0  0  0  0  2  0  0  0  0  0  0
  187.6120  177.4460  147.6980 C   0  0  0  0  0  2  0  0  0  0  0  0
  188.6680  177.5380  145.3990 C   0  0  2  0  0  3  0  0  0  0  0  0
  187.4690  177.9510  146.2510 C   0  0  1  0  0  3  0  0  0  0  0  0
  186.0790  178.0280  144.1560 C   0  0  2  0  0  3  0  0  0  0  0  0
  184.1120  178.4100  139.8880 C   0  0  0  0  0  2  0  0  0  0  0  0
  191.5960  174.6690  142.3120 O   0  0  0  0  0  0  0  0  0  0  0  0
  190.0690  175.6690  144.6150 N   0  0  1  0  0  0  0  0  0  0  0  0
  185.5250  178.5560  140.0430 O   0  0  0  0  0  0  0  0  0  0  0  0
  191.3470  176.0300  142.5190 C   0  0  0  0  0  2  0  0  0  0  0  0
  191.4270  173.6050  144.4730 C   0  0  1  0  0  3  0  0  0  0  0  0
  184.9450  178.0300  146.4080 C   0  0  0  0  0  2  0  0  0  0  0  0
  186.1520  177.5180  145.5980 C   0  0  2  0  0  3  0  0  0  0  0  0
  184.8300  177.4720  143.4630 C   0  0  0  0  0  2  0  0  0  0  0  0
  189.7960  177.7650  143.3210 C   0  0  0  0  0  2  0  0  0  0  0  0
  188.1270  177.6350  141.0430 O   0  0  0  0  0  1  0  0  0  0  0  0
  182.2800  177.9150  141.6380 C   0  0  0  0  0  1  0  0  0  0  0  0
  187.3510  177.6720  143.3390 C   0  0  2  0  0  3  0  0  0  0  0  0
  184.8020  177.9160  142.0370 C   0  0  0  0  0  0  0  0  0  0  0  0
  191.3400  172.1790  144.2000 N   0  0  0  0  0  2  0  0  0  0  0  0
  192.4740  171.3110  144.2620 C   0  0  0  0  0  0  0  0  0  0  0  0
  193.6170  171.7630  144.5370 O   0  0  0  0  0  0  0  0  0  0  0  0
  192.3030  169.8590  143.9930 C   0  0  0  0  0  1  0  0  0  0  0  0
  1 20  1  0  0  0  0
  2 24  1  6  0  0  0
  2 12  1  0  0  0  0
  4  3  1  0  0  0  0
  5 25  1  6  0  0  0
  5 27  1  0  0  0  0
  6  5  1  0  0  0  0
  6 28  2  0  0  0  0
  7 19  1  1  0  0  0
  7 24  1  0  0  0  0
  7 17  1  0  0  0  0
  9 26  1  0  0  0  0
  9 28  1  0  0  0  0
 11  3  1  0  0  0  0
 12  8  1  6  0  0  0
 12 13  1  0  0  0  0
 13 11  1  1  0  0  0
 14 23  1  6  0  0  0
 14 22  1  0  0  0  0
 15 18  1  0  0  0  0
 15  9  1  0  0  0  0
 16 19  1  0  0  0  0
 16  1  1  0  0  0  0
 17 10  1  6  0  0  0
 17  8  1  0  0  0  0
 18  6  1  0  0  0  0
 20 29  1  6  0  0  0
 20 10  1  0  0  0  0
 21  4  1  0  0  0  0
 22 13  1  0  0  0  0
 22 21  1  1  0  0  0
 27  2  1  0  0  0  0
 27 14  1  0  0  0  0
 28 23  1  0  0  0  0
 29 30  1  0  0  0  0
 30 31  2  0  0  0  0
 32 30  1  0  0  0  0
M  END
>  <MODEL>
8

>  <REMARK>
 VINA RESULT:      -6.6      3.247      5.330
  Name = 
  1 active torsions:
  status: ('A' for Active; 'I' for Inactive)
    1  A    between atoms: C_20  and  N_29
                            x       y       z     vdW  Elec       q    Type
                         _______ _______ _______ _____ _____    ______ ____

>  <TORSDO>
F 1

$$$$
=
 OpenBabel11112416373D

 32 37  0  0  1  0  0  0  0  0999 V2000
  195.3030  173.2750  144.9620 C   0  0  0  0  0  2  0  0  0  0  0  0
  190.0450  173.2370  143.6410 N   0  0  1  0  0  0  0  0  0  0  0  0
  189.8490  172.6480  138.6870 C   0  0  0  0  0  2  0  0  0  0  0  0
  188.3850  173.0570  138.7980 C   0  0  0  0  0  2  0  0  0  0  0  0
  188.9440  175.2070  144.7390 C   0  0  2  0  0  3  0  0  0  0  0  0
  188.1190  176.4310  144.4650 C   0  0  0  0  0  0  0  0  0  0  0  0
  192.3370  173.7810  144.4860 C   0  0  2  0  0  3  0  0  0  0  0  0
  192.0110  173.4240  142.1400 C   0  0  0  0  0  2  0  0  0  0  0  0
  187.0360  178.0480  143.3640 N   0  0  0  0  0  0  0  0  0  0  0  0
  194.0780  174.1180  142.9010 C   0  0  0  0  0  2  0  0  0  0  0  0
  190.3490  172.0580  140.0090 C   0  0  0  0  0  2  0  0  0  0  0  0
  190.6930  172.6960  142.4340 C   0  0  2  0  0  3  0  0  0  0  0  0
  189.7310  172.7270  141.2480 C   0  0  1  0  0  3  0  0  0  0  0  0
  188.6610  174.7750  142.2440 C   0  0  2  0  0  3  0  0  0  0  0  0
  186.8120  178.2910  144.7840 C   0  0  0  0  0  2  0  0  0  0  0  0
  194.4470  174.1780  145.6040 O   0  0  0  0  0  0  0  0  0  0  0  0
  192.9500  173.2590  143.2480 N   0  0  1  0  0  0  0  0  0  0  0  0
  187.5430  177.2470  145.4290 O   0  0  0  0  0  0  0  0  0  0  0  0
  193.2270  173.5000  145.7020 C   0  0  0  0  0  2  0  0  0  0  0  0
  195.3940  173.5750  143.4660 C   0  0  1  0  0  3  0  0  0  0  0  0
  188.1920  174.1630  139.8440 C   0  0  0  0  0  2  0  0  0  0  0  0
  189.2420  174.1530  140.9720 C   0  0  2  0  0  3  0  0  0  0  0  0
  188.3080  176.2470  141.9990 C   0  0  0  0  0  2  0  0  0  0  0  0
  190.9910  173.0900  144.7580 C   0  0  0  0  0  2  0  0  0  0  0  0
  189.9060  175.5260  145.6980 O   0  0  0  0  0  1  0  0  0  0  0  0
  186.2850  178.6660  142.2850 C   0  0  0  0  0  1  0  0  0  0  0  0
  189.6250  174.6470  143.4560 C   0  0  2  0  0  3  0  0  0  0  0  0
  187.8080  176.8650  143.2640 C   0  0  0  0  0  0  0  0  0  0  0  0
  196.4630  174.5340  143.2290 N   0  0  0  0  0  2  0  0  0  0  0  0
  196.2760  175.9450  143.3600 C   0  0  0  0  0  0  0  0  0  0  0  0
  195.1500  176.4190  143.6670 O   0  0  0  0  0  0  0  0  0  0  0  0
  197.4220  176.8620  143.1260 C   0  0  0  0  0  1  0  0  0  0  0  0
  1 16  1  0  0  0  0
  2 24  1  1  0  0  0
  3  4  1  0  0  0  0
  3 11  1  0  0  0  0
  4 21  1  0  0  0  0
  5 25  1  1  0  0  0
  6  5  1  0  0  0  0
  6 18  1  0  0  0  0
  7 24  1  1  0  0  0
  7 19  1  0  0  0  0
  9 15  1  0  0  0  0
 10 17  1  0  0  0  0
 10 20  1  0  0  0  0
 12  8  1  6  0  0  0
 12  2  1  0  0  0  0
 13 11  1  6  0  0  0
 13 12  1  0  0  0  0
 14 23  1  6  0  0  0
 14 27  1  0  0  0  0
 15 18  1  0  0  0  0
 16 19  1  0  0  0  0
 17  8  1  6  0  0  0
 17  7  1  0  0  0  0
 20 29  1  1  0  0  0
 20  1  1  0  0  0  0
 22 21  1  6  0  0  0
 22 13  1  0  0  0  0
 22 14  1  0  0  0  0
 23 28  1  0  0  0  0
 26  9  1  0  0  0  0
 27  2  1  0  0  0  0
 27  5  1  0  0  0  0
 28  9  1  0  0  0  0
 28  6  2  0  0  0  0
 29 30  1  0  0  0  0
 30 31  2  0  0  0  0
 32 30  1  0  0  0  0
M  END
>  <MODEL>
9

>  <REMARK>
 VINA RESULT:      -6.5      1.635      1.843
  Name = 
  1 active torsions:
  status: ('A' for Active; 'I' for Inactive)
    1  A    between atoms: C_20  and  N_29
                            x       y       z     vdW  Elec       q    Type
                         _______ _______ _______ _____ _____    ______ ____

>  <TORSDO>
F 1

$$$$
