=
 OpenBabel11112416293D

 32 37  0  0  1  0  0  0  0  0999 V2000
  194.1110  174.6730  145.1910 N   0  0  0  0  0  2  0  0  0  0  0  0
  188.9250  176.1830  144.3210 C   0  0  1  0  0  3  0  0  0  0  0  0
  186.3150  178.4020  147.9100 C   0  0  0  0  0  3  0  0  0  0  0  0
  185.6050  179.1070  146.9400 C   0  0  0  0  0  3  0  0  0  0  0  0
  188.0860  176.1590  141.9080 C   0  0  2  0  0  3  0  0  0  0  0  0
  187.0210  176.7280  141.0140 C   0  0  0  0  0  0  0  0  0  0  0  0
  190.9430  175.2390  144.6590 C   0  0  1  0  0  3  0  0  0  0  0  0
  189.7330  176.1290  146.6750 C   0  0  0  0  0  2  0  0  0  0  0  0
  185.2360  177.8430  140.4000 N   0  0  0  0  0  0  0  0  0  0  0  0
  191.9990  175.1990  146.9580 N   0  0  0  0  0  2  0  0  0  0  0  0
  187.2490  177.4380  147.5260 C   0  0  0  0  0  3  0  0  0  0  0  0
  188.4810  176.0970  145.7910 C   0  0  1  0  0  3  0  0  0  0  0  0
  187.4930  177.1750  146.1680 C   0  0  0  0  0  0  0  0  0  0  0  0
  186.9610  177.6110  143.7080 C   0  0  2  0  0  3  0  0  0  0  0  0
  185.8860  177.3650  139.3190 C   0  0  0  0  0  3  0  0  0  0  0  0
  193.3200  174.9040  143.9850 C   0  0  0  0  0  2  0  0  0  0  0  0
  190.7540  175.1000  146.1880 C   0  0  2  0  0  3  0  0  0  0  0  0
  187.0020  176.6750  139.6660 N   0  0  0  0  0  0  0  0  0  0  0  0
  191.9550  174.2440  144.1110 C   0  0  0  0  0  2  0  0  0  0  0  0
  192.7930  176.3430  146.5170 C   0  0  0  0  0  2  0  0  0  0  0  0
  185.8140  178.8360  145.5880 C   0  0  0  0  0  3  0  0  0  0  0  0
  186.7270  177.8470  145.1850 C   0  0  0  0  0  0  0  0  0  0  0  0
  185.6560  177.7070  142.9000 C   0  0  0  0  0  2  0  0  0  0  0  0
  189.7090  175.0540  144.0120 O   0  0  0  0  0  0  0  0  0  0  0  0
  188.3050  174.7010  141.5400 C   0  0  0  0  0  1  0  0  0  0  0  0
  184.0100  178.6210  140.3970 C   0  0  0  0  0  1  0  0  0  0  0  0
  187.6990  176.2800  143.4080 C   0  0  2  0  0  3  0  0  0  0  0  0
  185.9580  177.4600  141.4610 C   0  0  0  0  0  0  0  0  0  0  0  0
  194.1660  175.8700  146.0440 C   0  0  2  0  0  3  0  0  0  0  0  0
  194.9570  176.9740  145.4150 C   0  0  0  0  0  0  0  0  0  0  0  0
  195.7350  176.7340  144.2880 O   0  0  0  0  0  0  0  0  0  0  0  0
  194.9410  178.1230  145.9280 O   0  0  0  0  0  1  0  0  0  0  0  0
  1 29  1  0  0  0  0
  2 24  1  6  0  0  0
  2 12  1  0  0  0  0
  4  3  2  0  0  0  0
  5 25  1  6  0  0  0
  5 27  1  0  0  0  0
  6 28  2  0  0  0  0
  6  5  1  0  0  0  0
  7 19  1  6  0  0  0
  7 17  1  0  0  0  0
  9 28  1  0  0  0  0
 11  3  1  0  0  0  0
 12 13  1  0  0  0  0
 12  8  1  1  0  0  0
 13 11  2  0  0  0  0
 14 23  1  6  0  0  0
 14 22  1  0  0  0  0
 15 18  2  0  0  0  0
 15  9  1  0  0  0  0
 16 19  1  0  0  0  0
 16  1  1  0  0  0  0
 17  8  1  1  0  0  0
 17 10  1  0  0  0  0
 18  6  1  0  0  0  0
 20 10  1  0  0  0  0
 21  4  1  0  0  0  0
 22 21  2  0  0  0  0
 22 13  1  0  0  0  0
 24  7  1  0  0  0  0
 26  9  1  0  0  0  0
 27 14  1  0  0  0  0
 27  2  1  0  0  0  0
 28 23  1  0  0  0  0
 29 20  1  0  0  0  0
 30 32  1  0  0  0  0
 30 29  1  0  0  0  0
 31 30  2  0  0  0  0
M  END
>  <MODEL>
1

>  <REMARK>
 VINA RESULT:     -10.1      0.000      0.000
  Name = 
  1 active torsions:
  status: ('A' for Active; 'I' for Inactive)
    1  A    between atoms: CA_29  and  C_30
                            x       y       z     vdW  Elec       q    Type
                         _______ _______ _______ _____ _____    ______ ____

>  <TORSDO>
F 1

$$$$
=
 OpenBabel11112416293D

 32 37  0  0  1  0  0  0  0  0999 V2000
  194.7620  173.6550  140.0620 N   0  0  0  0  0  2  0  0  0  0  0  0
  190.7180  175.5340  143.2310 C   0  0  1  0  0  3  0  0  0  0  0  0
  191.4180  176.1400  148.1060 C   0  0  0  0  0  3  0  0  0  0  0  0
  190.5160  177.2030  148.0910 C   0  0  0  0  0  3  0  0  0  0  0  0
  188.6790  176.5340  142.0620 C   0  0  2  0  0  3  0  0  0  0  0  0
  187.5110  177.4520  142.2860 C   0  0  0  0  0  0  0  0  0  0  0  0
  192.1900  174.4790  141.8900 C   0  0  1  0  0  3  0  0  0  0  0  0
  192.6770  174.4870  144.3570 C   0  0  0  0  0  2  0  0  0  0  0  0
  186.1080  178.7690  143.3340 N   0  0  0  0  0  0  0  0  0  0  0  0
  194.3110  173.4620  142.8220 N   0  0  0  0  0  2  0  0  0  0  0  0
  191.6370  175.3960  146.9460 C   0  0  0  0  0  3  0  0  0  0  0  0
  191.1990  174.8590  144.5270 C   0  0  1  0  0  3  0  0  0  0  0  0
  190.9670  175.7120  145.7530 C   0  0  0  0  0  0  0  0  0  0  0  0
  189.2680  177.1410  144.4900 C   0  0  2  0  0  3  0  0  0  0  0  0
  185.8480  178.7640  142.0110 C   0  0  0  0  0  3  0  0  0  0  0  0
  193.5280  174.3870  139.7880 C   0  0  0  0  0  2  0  0  0  0  0  0
  192.8850  173.7240  143.0490 C   0  0  2  0  0  3  0  0  0  0  0  0
  186.7060  177.9620  141.3320 N   0  0  0  0  0  0  0  0  0  0  0  0
  192.3660  173.7710  140.5550 C   0  0  0  0  0  2  0  0  0  0  0  0
  194.9920  174.6630  142.3460 C   0  0  0  0  0  2  0  0  0  0  0  0
  189.8200  177.5110  146.9210 C   0  0  0  0  0  3  0  0  0  0  0  0
  190.0060  176.7510  145.7530 C   0  0  0  0  0  0  0  0  0  0  0  0
  187.8300  177.6000  144.7870 C   0  0  0  0  0  2  0  0  0  0  0  0
  190.8190  174.6130  142.1710 O   0  0  0  0  0  0  0  0  0  0  0  0
  188.2200  175.3530  141.2220 C   0  0  0  0  0  1  0  0  0  0  0  0
  185.3890  179.5140  144.3540 C   0  0  0  0  0  1  0  0  0  0  0  0
  189.2810  176.0340  143.4040 C   0  0  2  0  0  3  0  0  0  0  0  0
  187.1630  177.9620  143.5040 C   0  0  0  0  0  0  0  0  0  0  0  0
  195.6370  174.3900  140.9880 C   0  0  2  0  0  3  0  0  0  0  0  0
  196.1950  175.6320  140.3690 C   0  0  0  0  0  0  0  0  0  0  0  0
  196.8510  175.5800  139.1450 O   0  0  0  0  0  0  0  0  0  0  0  0
  196.0970  176.7300  140.9770 O   0  0  0  0  0  1  0  0  0  0  0  0
  1 29  1  0  0  0  0
  2 24  1  6  0  0  0
  2 27  1  0  0  0  0
  2 12  1  0  0  0  0
  4  3  1  0  0  0  0
  5 25  1  6  0  0  0
  5  6  1  0  0  0  0
  5 27  1  0  0  0  0
  6 28  2  0  0  0  0
  7 19  1  6  0  0  0
  7 24  1  0  0  0  0
  7 17  1  0  0  0  0
  9 28  1  0  0  0  0
  9 26  1  0  0  0  0
 10 17  1  0  0  0  0
 11  3  2  0  0  0  0
 12  8  1  6  0  0  0
 12 13  1  0  0  0  0
 13 22  2  0  0  0  0
 13 11  1  0  0  0  0
 14 23  1  1  0  0  0
 14 22  1  0  0  0  0
 15  9  1  0  0  0  0
 16  1  1  0  0  0  0
 16 19  1  0  0  0  0
 17  8  1  1  0  0  0
 18 15  2  0  0  0  0
 18  6  1  0  0  0  0
 20 10  1  0  0  0  0
 21  4  2  0  0  0  0
 22 21  1  0  0  0  0
 27 14  1  0  0  0  0
 28 23  1  0  0  0  0
 29 20  1  0  0  0  0
 30 32  1  0  0  0  0
 30 29  1  0  0  0  0
 31 30  2  0  0  0  0
M  END
>  <MODEL>
2

>  <REMARK>
 VINA RESULT:      -8.5      2.506      3.900
  Name = 
  1 active torsions:
  status: ('A' for Active; 'I' for Inactive)
    1  A    between atoms: CA_29  and  C_30
                            x       y       z     vdW  Elec       q    Type
                         _______ _______ _______ _____ _____    ______ ____

>  <TORSDO>
F 1

$$$$
=
 OpenBabel11112416293D

 32 37  0  0  1  0  0  0  0  0999 V2000
  194.6120  173.8170  140.1780 N   0  0  0  0  0  2  0  0  0  0  0  0
  189.7770  175.0240  142.4360 C   0  0  1  0  0  3  0  0  0  0  0  0
  189.2050  174.9140  147.3640 C   0  0  0  0  0  3  0  0  0  0  0  0
  188.2550  175.9280  147.2640 C   0  0  0  0  0  3  0  0  0  0  0  0
  188.0170  176.1040  140.9320 C   0  0  2  0  0  3  0  0  0  0  0  0
  186.7610  176.9280  140.9740 C   0  0  0  0  0  0  0  0  0  0  0  0
  191.6120  174.2460  141.3840 C   0  0  1  0  0  3  0  0  0  0  0  0
  191.4740  173.9020  143.8710 C   0  0  0  0  0  2  0  0  0  0  0  0
  185.0440  178.0120  141.7990 N   0  0  0  0  0  0  0  0  0  0  0  0
  193.5120  173.1890  142.6790 N   0  0  0  0  0  2  0  0  0  0  0  0
  189.7610  174.3640  146.2080 C   0  0  0  0  0  3  0  0  0  0  0  0
  189.9760  174.1810  143.7080 C   0  0  1  0  0  3  0  0  0  0  0  0
  189.3830  174.8280  144.9380 C   0  0  0  0  0  0  0  0  0  0  0  0
  187.9400  176.3610  143.4900 C   0  0  2  0  0  3  0  0  0  0  0  0
  185.1190  178.1960  140.4650 C   0  0  0  0  0  3  0  0  0  0  0  0
  193.4290  174.5300  139.7010 C   0  0  0  0  0  2  0  0  0  0  0  0
  192.0570  173.3550  142.5680 C   0  0  2  0  0  3  0  0  0  0  0  0
  186.1780  177.5420  139.9240 N   0  0  0  0  0  0  0  0  0  0  0  0
  192.1670  173.7570  140.0550 C   0  0  0  0  0  2  0  0  0  0  0  0
  194.1920  174.4760  142.5600 C   0  0  0  0  0  2  0  0  0  0  0  0
  187.8460  176.3800  146.0080 C   0  0  0  0  0  3  0  0  0  0  0  0
  188.3730  175.8150  144.8340 C   0  0  0  0  0  0  0  0  0  0  0  0
  186.4420  176.7080  143.4700 C   0  0  0  0  0  2  0  0  0  0  0  0
  190.2080  174.2790  141.3220 O   0  0  0  0  0  0  0  0  0  0  0  0
  187.8720  175.0460  139.8510 C   0  0  0  0  0  1  0  0  0  0  0  0
  184.0400  178.5620  142.6930 C   0  0  0  0  0  1  0  0  0  0  0  0
  188.3070  175.4320  142.3030 C   0  0  2  0  0  3  0  0  0  0  0  0
  186.0850  177.2330  142.1200 C   0  0  0  0  0  0  0  0  0  0  0  0
  195.1710  174.4390  141.3870 C   0  0  2  0  0  3  0  0  0  0  0  0
  195.7650  175.7830  141.1070 C   0  0  0  0  0  0  0  0  0  0  0  0
  196.7950  175.9230  140.1830 O   0  0  0  0  0  0  0  0  0  0  0  0
  195.3510  176.7910  141.7350 O   0  0  0  0  0  1  0  0  0  0  0  0
  1 29  1  0  0  0  0
  2 24  1  6  0  0  0
  2 12  1  0  0  0  0
  4  3  1  0  0  0  0
  5 25  1  6  0  0  0
  5  6  1  0  0  0  0
  5 27  1  0  0  0  0
  6 28  2  0  0  0  0
  7 19  1  6  0  0  0
  7 17  1  0  0  0  0
  9 28  1  0  0  0  0
  9 26  1  0  0  0  0
 11  3  2  0  0  0  0
 12  8  1  1  0  0  0
 12 13  1  0  0  0  0
 13 11  1  0  0  0  0
 14 23  1  1  0  0  0
 14 22  1  0  0  0  0
 15  9  1  0  0  0  0
 16 19  1  0  0  0  0
 16  1  1  0  0  0  0
 17 10  1  0  0  0  0
 17  8  1  1  0  0  0
 18 15  2  0  0  0  0
 18  6  1  0  0  0  0
 20 10  1  0  0  0  0
 21  4  2  0  0  0  0
 22 13  2  0  0  0  0
 22 21  1  0  0  0  0
 24  7  1  0  0  0  0
 27  2  1  0  0  0  0
 27 14  1  0  0  0  0
 28 23  1  0  0  0  0
 29 20  1  0  0  0  0
 30 29  1  0  0  0  0
 30 32  1  0  0  0  0
 31 30  2  0  0  0  0
M  END
>  <MODEL>
3

>  <REMARK>
 VINA RESULT:      -8.5      2.329      3.386
  Name = 
  1 active torsions:
  status: ('A' for Active; 'I' for Inactive)
    1  A    between atoms: CA_29  and  C_30
                            x       y       z     vdW  Elec       q    Type
                         _______ _______ _______ _____ _____    ______ ____

>  <TORSDO>
F 1

$$$$
=
 OpenBabel11112416293D

 32 37  0  0  1  0  0  0  0  0999 V2000
  193.4050  173.7910  146.1980 N   0  0  0  0  0  2  0  0  0  0  0  0
  189.1900  175.1820  142.9980 C   0  0  1  0  0  3  0  0  0  0  0  0
  186.1700  178.9010  144.2920 C   0  0  0  0  0  3  0  0  0  0  0  0
  185.9600  179.1820  142.9430 C   0  0  0  0  0  3  0  0  0  0  0  0
  189.1370  174.2050  140.6380 C   0  0  2  0  0  3  0  0  0  0  0  0
  188.5450  174.4220  139.2750 C   0  0  0  0  0  0  0  0  0  0  0  0
  190.7530  174.3180  144.3740 C   0  0  1  0  0  3  0  0  0  0  0  0
  189.2140  176.0660  145.3260 C   0  0  0  0  0  2  0  0  0  0  0  0
  187.3210  175.3050  137.6860 N   0  0  0  0  0  0  0  0  0  0  0  0
  191.0270  175.1730  146.7400 N   0  0  0  0  0  2  0  0  0  0  0  0
  186.9410  177.7970  144.6610 C   0  0  0  0  0  3  0  0  0  0  0  0
  188.3140  175.7580  144.1240 C   0  0  1  0  0  3  0  0  0  0  0  0
  187.5210  176.9670  143.6870 C   0  0  0  0  0  0  0  0  0  0  0  0
  187.8680  176.3620  141.2290 C   0  0  2  0  0  3  0  0  0  0  0  0
  188.1460  174.3680  137.1770 C   0  0  0  0  0  3  0  0  0  0  0  0
  193.0870  173.5510  144.7920 C   0  0  0  0  0  2  0  0  0  0  0  0
  190.0830  174.8530  145.6630 C   0  0  2  0  0  3  0  0  0  0  0  0
  188.9240  173.8070  138.1360 N   0  0  0  0  0  0  0  0  0  0  0  0
  191.6380  173.1110  144.6440 C   0  0  0  0  0  2  0  0  0  0  0  0
  192.1480  175.9600  146.2320 C   0  0  0  0  0  2  0  0  0  0  0  0
  186.5040  178.3500  141.9630 C   0  0  0  0  0  3  0  0  0  0  0  0
  187.2560  177.2170  142.3190 C   0  0  0  0  0  0  0  0  0  0  0  0
  186.9240  176.2070  140.0260 C   0  0  0  0  0  2  0  0  0  0  0  0
  189.7620  173.9730  143.4380 O   0  0  0  0  0  0  0  0  0  0  0  0
  189.1320  172.7160  140.9420 C   0  0  0  0  0  1  0  0  0  0  0  0
  186.3560  176.1010  136.9470 C   0  0  0  0  0  1  0  0  0  0  0  0
  188.3510  174.9770  141.7340 C   0  0  2  0  0  3  0  0  0  0  0  0
  187.5850  175.3530  138.9980 C   0  0  0  0  0  0  0  0  0  0  0  0
  193.4610  175.2280  146.5050 C   0  0  2  0  0  3  0  0  0  0  0  0
  194.6270  175.8990  145.8500 C   0  0  0  0  0  0  0  0  0  0  0  0
  194.5150  177.1980  145.3660 O   0  0  0  0  0  0  0  0  0  0  0  0
  195.7090  175.2730  145.7090 O   0  0  0  0  0  1  0  0  0  0  0  0
  1 29  1  0  0  0  0
  2 24  1  1  0  0  0
  2 12  1  0  0  0  0
  3 11  1  0  0  0  0
  4  3  2  0  0  0  0
  5 25  1  1  0  0  0
  5 27  1  0  0  0  0
  6  5  1  0  0  0  0
  7 19  1  1  0  0  0
  7 17  1  0  0  0  0
  9 28  1  0  0  0  0
 12  8  1  1  0  0  0
 13 12  1  0  0  0  0
 13 11  2  0  0  0  0
 14 23  1  6  0  0  0
 14 27  1  0  0  0  0
 14 22  1  0  0  0  0
 15  9  1  0  0  0  0
 15 18  2  0  0  0  0
 16  1  1  0  0  0  0
 17  8  1  6  0  0  0
 17 10  1  0  0  0  0
 18  6  1  0  0  0  0
 19 16  1  0  0  0  0
 20 29  1  0  0  0  0
 20 10  1  0  0  0  0
 21 22  2  0  0  0  0
 21  4  1  0  0  0  0
 22 13  1  0  0  0  0
 24  7  1  0  0  0  0
 26  9  1  0  0  0  0
 27  2  1  0  0  0  0
 28  6  2  0  0  0  0
 28 23  1  0  0  0  0
 30 29  1  0  0  0  0
 31 30  2  0  0  0  0
 32 30  1  0  0  0  0
M  END
>  <MODEL>
4

>  <REMARK>
 VINA RESULT:      -8.1      1.740      2.716
  Name = 
  1 active torsions:
  status: ('A' for Active; 'I' for Inactive)
    1  A    between atoms: CA_29  and  C_30
                            x       y       z     vdW  Elec       q    Type
                         _______ _______ _______ _____ _____    ______ ____

>  <TORSDO>
F 1

$$$$
=
 OpenBabel11112416293D

 32 37  0  0  1  0  0  0  0  0999 V2000
  186.1590  177.5800  143.4490 N   0  0  0  0  0  2  0  0  0  0  0  0
  190.7270  174.5740  143.2750 C   0  0  1  0  0  3  0  0  0  0  0  0
  194.8160  176.0720  145.6520 C   0  0  0  0  0  3  0  0  0  0  0  0
  195.1710  174.7400  145.8550 C   0  0  0  0  0  3  0  0  0  0  0  0
  190.5300  172.1920  142.3700 C   0  0  2  0  0  3  0  0  0  0  0  0
  191.2200  170.8580  142.3760 C   0  0  0  0  0  0  0  0  0  0  0  0
  188.9010  175.8690  143.0120 C   0  0  1  0  0  3  0  0  0  0  0  0
  190.9190  176.9210  144.0830 C   0  0  0  0  0  2  0  0  0  0  0  0
  192.7460  169.3380  142.7800 N   0  0  0  0  0  0  0  0  0  0  0  0
  188.8480  178.2440  143.8820 N   0  0  0  0  0  2  0  0  0  0  0  0
  193.6870  176.3840  144.8930 C   0  0  0  0  0  3  0  0  0  0  0  0
  191.7010  175.7450  143.4870 C   0  0  1  0  0  3  0  0  0  0  0  0
  192.8920  175.3690  144.3370 C   0  0  0  0  0  0  0  0  0  0  0  0
  192.4590  172.8850  143.9230 C   0  0  2  0  0  3  0  0  0  0  0  0
  191.6630  168.7750  142.2060 C   0  0  0  0  0  3  0  0  0  0  0  0
  186.4300  176.1810  143.1260 C   0  0  0  0  0  2  0  0  0  0  0  0
  189.6610  177.1940  143.2570 C   0  0  2  0  0  3  0  0  0  0  0  0
  190.6950  169.6910  141.9500 N   0  0  0  0  0  0  0  0  0  0  0  0
  187.6320  176.0750  142.1990 C   0  0  0  0  0  2  0  0  0  0  0  0
  188.1050  177.7160  145.0240 C   0  0  0  0  0  2  0  0  0  0  0  0
  194.4090  173.7200  145.2830 C   0  0  0  0  0  3  0  0  0  0  0  0
  193.2880  174.0180  144.4900 C   0  0  0  0  0  0  0  0  0  0  0  0
  193.3370  171.7130  143.4540 C   0  0  0  0  0  2  0  0  0  0  0  0
  189.7420  174.9600  142.3460 O   0  0  0  0  0  0  0  0  0  0  0  0
  189.9900  172.4580  140.9740 C   0  0  0  0  0  1  0  0  0  0  0  0
  193.9630  168.6560  143.1860 C   0  0  0  0  0  1  0  0  0  0  0  0
  191.4920  173.3360  142.7970 C   0  0  2  0  0  3  0  0  0  0  0  0
  192.4590  170.6400  142.9050 C   0  0  0  0  0  0  0  0  0  0  0  0
  186.6060  177.9220  144.8070 C   0  0  2  0  0  3  0  0  0  0  0  0
  185.7870  177.2430  145.8580 C   0  0  0  0  0  0  0  0  0  0  0  0
  184.4460  177.5670  146.0300 O   0  0  0  0  0  0  0  0  0  0  0  0
  186.3230  176.3920  146.6140 O   0  0  0  0  0  1  0  0  0  0  0  0
  1 29  1  0  0  0  0
  2 24  1  6  0  0  0
  2 12  1  0  0  0  0
  3  4  1  0  0  0  0
  5 25  1  6  0  0  0
  5  6  1  0  0  0  0
  5 27  1  0  0  0  0
  6 28  2  0  0  0  0
  7 19  1  6  0  0  0
  7 17  1  0  0  0  0
  9 28  1  0  0  0  0
  9 26  1  0  0  0  0
 10 20  1  0  0  0  0
 11  3  2  0  0  0  0
 12  8  1  1  0  0  0
 12 13  1  0  0  0  0
 13 22  2  0  0  0  0
 13 11  1  0  0  0  0
 14 23  1  6  0  0  0
 14 22  1  0  0  0  0
 15  9  1  0  0  0  0
 16  1  1  0  0  0  0
 17 10  1  0  0  0  0
 17  8  1  1  0  0  0
 18 15  2  0  0  0  0
 18  6  1  0  0  0  0
 19 16  1  0  0  0  0
 21  4  2  0  0  0  0
 22 21  1  0  0  0  0
 24  7  1  0  0  0  0
 27  2  1  0  0  0  0
 27 14  1  0  0  0  0
 28 23  1  0  0  0  0
 29 20  1  0  0  0  0
 29 30  1  0  0  0  0
 30 31  2  0  0  0  0
 30 32  1  0  0  0  0
M  END
>  <MODEL>
5

>  <REMARK>
 VINA RESULT:      -7.7      3.245      7.756
  Name = 
  1 active torsions:
  status: ('A' for Active; 'I' for Inactive)
    1  A    between atoms: CA_29  and  C_30
                            x       y       z     vdW  Elec       q    Type
                         _______ _______ _______ _____ _____    ______ ____

>  <TORSDO>
F 1

$$$$
=
 OpenBabel11112416293D

 32 37  0  0  1  0  0  0  0  0999 V2000
  186.6970  176.8120  144.5550 N   0  0  0  0  0  2  0  0  0  0  0  0
  191.3350  174.9240  142.3510 C   0  0  1  0  0  3  0  0  0  0  0  0
  191.2640  172.5400  138.0000 C   0  0  0  0  0  3  0  0  0  0  0  0
  192.5390  173.0310  137.7240 C   0  0  0  0  0  3  0  0  0  0  0  0
  193.5330  175.7350  143.3700 C   0  0  2  0  0  3  0  0  0  0  0  0
  194.9970  175.8890  143.0700 C   0  0  0  0  0  0  0  0  0  0  0  0
  189.4730  175.4620  143.5000 C   0  0  1  0  0  3  0  0  0  0  0  0
  189.1860  174.0830  141.4170 C   0  0  0  0  0  2  0  0  0  0  0  0
  196.8970  175.7440  141.9860 N   0  0  0  0  0  0  0  0  0  0  0  0
  187.1790  174.8130  142.6500 N   0  0  0  0  0  2  0  0  0  0  0  0
  190.6710  172.7970  139.2370 C   0  0  0  0  0  3  0  0  0  0  0  0
  190.6840  173.7830  141.5520 C   0  0  1  0  0  3  0  0  0  0  0  0
  191.3400  173.5590  140.2100 C   0  0  0  0  0  0  0  0  0  0  0  0
  193.4170  174.8410  140.9620 C   0  0  2  0  0  3  0  0  0  0  0  0
  197.0490  176.4840  143.1030 C   0  0  0  0  0  3  0  0  0  0  0  0
  188.1100  177.1230  144.7650 C   0  0  0  0  0  2  0  0  0  0  0  0
  188.5860  174.4160  142.7840 C   0  0  2  0  0  3  0  0  0  0  0  0
  195.8870  176.5990  143.7940 N   0  0  0  0  0  0  0  0  0  0  0  0
  188.9240  175.8420  144.8670 C   0  0  0  0  0  2  0  0  0  0  0  0
  187.0710  176.1840  142.1570 C   0  0  0  0  0  2  0  0  0  0  0  0
  193.2280  173.7640  138.6910 C   0  0  0  0  0  3  0  0  0  0  0  0
  192.6580  174.0050  139.9530 C   0  0  0  0  0  0  0  0  0  0  0  0
  194.9240  174.5370  140.9380 C   0  0  0  0  0  2  0  0  0  0  0  0
  190.7760  174.9560  143.6430 O   0  0  0  0  0  0  0  0  0  0  0  0
  193.3750  175.2680  144.8070 C   0  0  0  0  0  1  0  0  0  0  0  0
  197.9280  175.4190  141.0170 C   0  0  0  0  0  1  0  0  0  0  0  0
  192.8530  174.7270  142.4020 C   0  0  2  0  0  3  0  0  0  0  0  0
  195.6060  175.3890  141.9550 C   0  0  0  0  0  0  0  0  0  0  0  0
  186.2920  177.0350  143.1600 C   0  0  2  0  0  3  0  0  0  0  0  0
  186.3030  178.4860  142.7940 C   0  0  0  0  0  0  0  0  0  0  0  0
  185.5390  179.4010  143.5090 O   0  0  0  0  0  1  0  0  0  0  0  0
  186.9860  178.8760  141.8120 O   0  0  0  0  0  0  0  0  0  0  0  0
  1 16  1  0  0  0  0
  2 27  1  0  0  0  0
  2 24  1  1  0  0  0
  3 11  1  0  0  0  0
  4  3  2  0  0  0  0
  4 21  1  0  0  0  0
  5 25  1  1  0  0  0
  6  5  1  0  0  0  0
  6 18  1  0  0  0  0
  7 24  1  0  0  0  0
  7 19  1  1  0  0  0
  9 15  1  0  0  0  0
 10 17  1  0  0  0  0
 11 13  2  0  0  0  0
 12  8  1  6  0  0  0
 12  2  1  0  0  0  0
 13 12  1  0  0  0  0
 14 23  1  1  0  0  0
 14 27  1  0  0  0  0
 15 18  2  0  0  0  0
 16 19  1  0  0  0  0
 17  8  1  6  0  0  0
 17  7  1  0  0  0  0
 20 10  1  0  0  0  0
 20 29  1  0  0  0  0
 21 22  2  0  0  0  0
 22 13  1  0  0  0  0
 22 14  1  0  0  0  0
 23 28  1  0  0  0  0
 26  9  1  0  0  0  0
 27  5  1  0  0  0  0
 28  9  1  0  0  0  0
 28  6  2  0  0  0  0
 29  1  1  0  0  0  0
 30 29  1  0  0  0  0
 30 31  1  0  0  0  0
 32 30  2  0  0  0  0
M  END
>  <MODEL>
6

>  <REMARK>
 VINA RESULT:      -7.4      3.357      8.556
  Name = 
  1 active torsions:
  status: ('A' for Active; 'I' for Inactive)
    1  A    between atoms: CA_29  and  C_30
                            x       y       z     vdW  Elec       q    Type
                         _______ _______ _______ _____ _____    ______ ____

>  <TORSDO>
F 1

$$$$
=
 OpenBabel11112416293D

 32 37  0  0  1  0  0  0  0  0999 V2000
  196.7090  173.2510  144.9050 N   0  0  0  0  0  2  0  0  0  0  0  0
  191.9000  174.7480  142.7690 C   0  0  1  0  0  3  0  0  0  0  0  0
  190.0340  172.3490  138.8470 C   0  0  0  0  0  3  0  0  0  0  0  0
  188.7470  172.6150  139.3120 C   0  0  0  0  0  3  0  0  0  0  0  0
  190.4570  176.3520  144.1370 C   0  0  2  0  0  3  0  0  0  0  0  0
  189.0430  176.8320  144.3050 C   0  0  0  0  0  0  0  0  0  0  0  0
  193.9970  174.4330  143.5320 C   0  0  1  0  0  3  0  0  0  0  0  0
  193.3480  173.2450  141.4120 C   0  0  0  0  0  2  0  0  0  0  0  0
  186.8960  177.0610  143.9290 N   0  0  0  0  0  0  0  0  0  0  0  0
  195.5850  172.8430  142.3690 N   0  0  0  0  0  2  0  0  0  0  0  0
  191.1390  172.8750  139.5180 C   0  0  0  0  0  3  0  0  0  0  0  0
  192.1910  174.2480  141.3440 C   0  0  1  0  0  3  0  0  0  0  0  0
  190.9730  173.6630  140.6680 C   0  0  0  0  0  0  0  0  0  0  0  0
  189.4320  174.8180  142.3460 C   0  0  2  0  0  3  0  0  0  0  0  0
  187.2450  177.6980  145.0660 C   0  0  0  0  0  3  0  0  0  0  0  0
  195.5810  174.0280  145.4140 C   0  0  0  0  0  2  0  0  0  0  0  0
  194.5170  173.8360  142.2020 C   0  0  2  0  0  3  0  0  0  0  0  0
  188.5690  177.5680  145.3310 N   0  0  0  0  0  0  0  0  0  0  0  0
  195.1160  175.0330  144.3700 C   0  0  0  0  0  2  0  0  0  0  0  0
  195.2400  171.8770  143.4090 C   0  0  0  0  0  2  0  0  0  0  0  0
  188.5640  173.4220  140.4360 C   0  0  0  0  0  3  0  0  0  0  0  0
  189.6660  173.9850  141.1040 C   0  0  0  0  0  0  0  0  0  0  0  0
  188.1860  175.7080  142.2120 C   0  0  0  0  0  2  0  0  0  0  0  0
  193.0350  175.4220  143.2590 O   0  0  0  0  0  0  0  0  0  0  0  0
  191.3950  177.5410  144.2720 C   0  0  0  0  0  1  0  0  0  0  0  0
  185.5660  176.9950  143.3490 C   0  0  0  0  0  1  0  0  0  0  0  0
  190.6680  175.6580  142.7630 C   0  0  2  0  0  3  0  0  0  0  0  0
  188.0200  176.5020  143.4630 C   0  0  0  0  0  0  0  0  0  0  0  0
  196.3020  171.8960  144.5070 C   0  0  2  0  0  3  0  0  0  0  0  0
  195.9110  171.0580  145.6830 C   0  0  0  0  0  0  0  0  0  0  0  0
  194.5830  170.6990  145.8860 O   0  0  0  0  0  0  0  0  0  0  0  0
  196.7860  170.6990  146.5130 O   0  0  0  0  0  1  0  0  0  0  0  0
  1 16  1  0  0  0  0
  2 24  1  6  0  0  0
  3  4  2  0  0  0  0
  3 11  1  0  0  0  0
  4 21  1  0  0  0  0
  5 25  1  6  0  0  0
  5  6  1  0  0  0  0
  6 18  1  0  0  0  0
  7 19  1  6  0  0  0
  9 15  1  0  0  0  0
 10 20  1  0  0  0  0
 11 13  2  0  0  0  0
 12  8  1  1  0  0  0
 12  2  1  0  0  0  0
 13 22  1  0  0  0  0
 13 12  1  0  0  0  0
 14 23  1  6  0  0  0
 14 27  1  0  0  0  0
 15 18  2  0  0  0  0
 17  8  1  1  0  0  0
 17 10  1  0  0  0  0
 17  7  1  0  0  0  0
 19 16  1  0  0  0  0
 20 29  1  0  0  0  0
 21 22  2  0  0  0  0
 22 14  1  0  0  0  0
 23 28  1  0  0  0  0
 24  7  1  0  0  0  0
 26  9  1  0  0  0  0
 27  2  1  0  0  0  0
 27  5  1  0  0  0  0
 28  9  1  0  0  0  0
 28  6  2  0  0  0  0
 29  1  1  0  0  0  0
 29 30  1  0  0  0  0
 30 31  2  0  0  0  0
 30 32  1  0  0  0  0
M  END
>  <MODEL>
7

>  <REMARK>
 VINA RESULT:      -7.1      3.123      5.894
  Name = 
  1 active torsions:
  status: ('A' for Active; 'I' for Inactive)
    1  A    between atoms: CA_29  and  C_30
                            x       y       z     vdW  Elec       q    Type
                         _______ _______ _______ _____ _____    ______ ____

>  <TORSDO>
F 1

$$$$
=
 OpenBabel11112416293D

 32 37  0  0  1  0  0  0  0  0999 V2000
  186.8200  178.5300  143.2160 N   0  0  0  0  0  2  0  0  0  0  0  0
  190.3840  174.4640  142.3800 C   0  0  1  0  0  3  0  0  0  0  0  0
  193.8660  173.4360  145.7630 C   0  0  0  0  0  3  0  0  0  0  0  0
  193.8160  172.0950  145.3870 C   0  0  0  0  0  3  0  0  0  0  0  0
  189.8840  172.8400  140.4730 C   0  0  2  0  0  3  0  0  0  0  0  0
  190.2000  171.4580  139.9740 C   0  0  0  0  0  0  0  0  0  0  0  0
  189.0760  176.2980  142.4660 C   0  0  1  0  0  3  0  0  0  0  0  0
  190.8990  176.0980  144.1870 C   0  0  0  0  0  2  0  0  0  0  0  0
  191.1360  169.4800  139.8660 N   0  0  0  0  0  0  0  0  0  0  0  0
  189.3520  178.0160  144.3030 N   0  0  0  0  0  2  0  0  0  0  0  0
  193.1080  174.3810  145.0690 C   0  0  0  0  0  3  0  0  0  0  0  0
  191.5100  175.0540  143.2460 C   0  0  1  0  0  3  0  0  0  0  0  0
  192.2840  173.9970  143.9990 C   0  0  0  0  0  0  0  0  0  0  0  0
  191.4000  172.1760  142.4400 C   0  0  2  0  0  3  0  0  0  0  0  0
  190.1580  169.5880  138.9430 C   0  0  0  0  0  3  0  0  0  0  0  0
  186.8260  177.3630  142.3370 C   0  0  0  0  0  2  0  0  0  0  0  0
  190.0320  177.0800  143.3980 C   0  0  2  0  0  3  0  0  0  0  0  0
  189.5530  170.8020  138.9890 N   0  0  0  0  0  0  0  0  0  0  0  0
  188.1790  177.2210  141.6550 C   0  0  0  0  0  2  0  0  0  0  0  0
  188.2120  177.3750  144.9520 C   0  0  0  0  0  2  0  0  0  0  0  0
  193.0250  171.7010  144.3070 C   0  0  0  0  0  3  0  0  0  0  0  0
  192.2820  172.6450  143.5780 C   0  0  0  0  0  0  0  0  0  0  0  0
  192.0650  171.0540  141.6270 C   0  0  0  0  0  2  0  0  0  0  0  0
  189.8270  175.4900  141.5930 O   0  0  0  0  0  0  0  0  0  0  0  0
  189.8430  173.7910  139.2870 C   0  0  0  0  0  1  0  0  0  0  0  0
  191.9850  168.3240  140.0940 C   0  0  0  0  0  1  0  0  0  0  0  0
  190.9310  173.3270  141.5120 C   0  0  2  0  0  3  0  0  0  0  0  0
  191.1480  170.6450  140.5250 C   0  0  0  0  0  0  0  0  0  0  0  0
  186.9320  178.1460  144.6310 C   0  0  2  0  0  3  0  0  0  0  0  0
  185.7100  177.4370  145.1210 C   0  0  0  0  0  0  0  0  0  0  0  0
  184.4410  177.9160  144.8110 O   0  0  0  0  0  0  0  0  0  0  0  0
  185.8290  176.4160  145.8460 O   0  0  0  0  0  1  0  0  0  0  0  0
  1 29  1  0  0  0  0
  2 24  1  6  0  0  0
  2 12  1  0  0  0  0
  4  3  1  0  0  0  0
  5 25  1  6  0  0  0
  5 27  1  0  0  0  0
  6  5  1  0  0  0  0
  6 28  2  0  0  0  0
  7 19  1  6  0  0  0
  7 17  1  0  0  0  0
  9 26  1  0  0  0  0
  9 28  1  0  0  0  0
 10 20  1  0  0  0  0
 11  3  2  0  0  0  0
 12 13  1  0  0  0  0
 12  8  1  1  0  0  0
 13 11  1  0  0  0  0
 14 23  1  6  0  0  0
 14 22  1  0  0  0  0
 15 18  2  0  0  0  0
 15  9  1  0  0  0  0
 16  1  1  0  0  0  0
 17  8  1  1  0  0  0
 17 10  1  0  0  0  0
 18  6  1  0  0  0  0
 19 16  1  0  0  0  0
 21  4  2  0  0  0  0
 22 13  2  0  0  0  0
 22 21  1  0  0  0  0
 24  7  1  0  0  0  0
 27  2  1  0  0  0  0
 27 14  1  0  0  0  0
 28 23  1  0  0  0  0
 29 20  1  0  0  0  0
 29 30  1  0  0  0  0
 30 32  1  0  0  0  0
 31 30  2  0  0  0  0
M  END
>  <MODEL>
8

>  <REMARK>
 VINA RESULT:      -7.1      3.643      7.440
  Name = 
  1 active torsions:
  status: ('A' for Active; 'I' for Inactive)
    1  A    between atoms: CA_29  and  C_30
                            x       y       z     vdW  Elec       q    Type
                         _______ _______ _______ _____ _____    ______ ____

>  <TORSDO>
F 1

$$$$
