=
 OpenBabel11112416163D

 30 35  0  0  1  0  0  0  0  0999 V2000
  190.2770  175.7000  144.0100 C   0  0  1  0  0  3  0  0  0  0  0  0
  192.9050  175.7630  143.8000 C   0  0  0  0  0  0  0  0  0  0  0  0
  190.6970  177.4010  147.7070 N   0  0  0  0  0  2  0  0  0  0  0  0
  189.2080  176.5410  144.7290 C   0  0  1  0  0  3  0  0  0  0  0  0
  190.2760  176.0050  142.6300 O   0  0  0  0  0  0  0  0  0  0  0  0
  186.6850  175.7770  142.0470 O   0  0  0  0  0  1  0  0  0  0  0  0
  186.1910  176.7150  146.0280 C   0  0  1  0  0  3  0  0  0  0  0  0
  187.8670  176.2860  142.5900 C   0  0  2  0  0  3  0  0  0  0  0  0
  187.0330  177.1560  147.2300 C   0  0  2  0  0  3  0  0  0  0  0  0
  189.3980  177.9420  147.7670 C   0  0  0  0  0  0  0  0  0  0  0  0
  189.0810  175.5280  142.0420 C   0  0  2  0  0  3  0  0  0  0  0  0
  187.8250  176.2320  144.1200 C   0  0  2  0  0  3  0  0  0  0  0  0
  194.1010  175.7320  144.3900 C   0  0  0  0  0  3  0  0  0  0  0  0
  186.4050  178.4540  147.6930 C   0  0  0  0  0  2  0  0  0  0  0  0
  184.8070  177.3020  146.2620 C   0  0  0  0  0  2  0  0  0  0  0  0
  192.8630  175.7040  142.3780 N   0  0  0  0  0  1  0  0  0  0  0  0
  190.6050  176.2150  146.8700 C   0  0  1  0  0  3  0  0  0  0  0  0
  194.2280  175.7090  145.8810 C   0  0  0  0  0  2  0  0  0  0  0  0
  191.6560  175.8940  144.6160 C   0  0  0  0  0  0  0  0  0  0  0  0
  189.1930  176.2310  146.2260 C   0  0  1  0  0  3  0  0  0  0  0  0
  189.1080  178.9180  148.5080 O   0  0  0  0  0  0  0  0  0  0  0  0
  188.4630  177.2850  146.9250 N   0  0  0  0  0  0  0  0  0  0  0  0
  184.9270  178.2930  147.4110 C   0  0  0  0  0  2  0  0  0  0  0  0
  187.0220  178.6360  144.5120 C   0  0  0  0  0  1  0  0  0  0  0  0
  193.0620  176.2440  146.5040 O   0  0  0  0  0  0  0  0  0  0  0  0
  191.7850  176.1160  145.9410 C   0  0  0  0  0  0  0  0  0  0  0  0
  186.7090  177.1460  144.6440 C   0  0  2  0  0  3  0  0  0  0  0  0
  188.9420  174.0040  142.1170 C   0  0  0  0  0  2  0  0  0  0  0  0
  188.6700  174.2500  139.7680 O   0  0  0  0  0  1  0  0  0  0  0  0
  189.1630  173.3910  140.7480 C   0  0  0  0  0  2  0  0  0  0  0  0
  1  5  1  6  0  0  0
  1 19  1  0  0  0  0
  1  4  1  0  0  0  0
  2 13  2  0  0  0  0
  2 19  1  0  0  0  0
  3 10  1  0  0  0  0
  4 20  1  0  0  0  0
  6  8  1  0  0  0  0
  7 15  1  0  0  0  0
  7  9  1  0  0  0  0
  8 12  1  0  0  0  0
  9 14  1  0  0  0  0
 10 21  2  0  0  0  0
 11 28  1  0  0  0  0
 11  8  1  0  0  0  0
 11  5  1  0  0  0  0
 12 27  1  0  0  0  0
 12  4  1  0  0  0  0
 13 18  1  0  0  0  0
 15 23  1  0  0  0  0
 16  2  1  0  0  0  0
 17  3  1  0  0  0  0
 18 25  1  0  0  0  0
 19 26  2  0  0  0  0
 20 17  1  0  0  0  0
 20 22  1  0  0  0  0
 22  9  1  0  0  0  0
 22 10  1  0  0  0  0
 23 14  1  0  0  0  0
 24 27  1  0  0  0  0
 26 25  1  0  0  0  0
 26 17  1  0  0  0  0
 27  7  1  0  0  0  0
 29 30  1  0  0  0  0
 30 28  1  0  0  0  0
M  END
>  <MODEL>
1

>  <REMARK>
 VINA RESULT:      -7.8      0.000      0.000
  Name = 
  2 active torsions:
  status: ('A' for Active; 'I' for Inactive)
    1  A    between atoms: C_11  and  C_28
    2  A    between atoms: C_28  and  C_30
                            x       y       z     vdW  Elec       q    Type
                         _______ _______ _______ _____ _____    ______ ____

>  <TORSDO>
F 2

$$$$
=
 OpenBabel11112416163D

 30 35  0  0  1  0  0  0  0  0999 V2000
  189.2970  175.5840  144.1190 C   0  0  1  0  0  3  0  0  0  0  0  0
  191.4930  175.3160  145.5540 C   0  0  0  0  0  0  0  0  0  0  0  0
  187.6540  177.5580  147.3040 N   0  0  0  0  0  2  0  0  0  0  0  0
  188.1520  176.6080  144.0370 C   0  0  1  0  0  3  0  0  0  0  0  0
  190.1730  175.7580  143.0230 O   0  0  0  0  0  0  0  0  0  0  0  0
  187.6740  175.9040  140.3730 O   0  0  0  0  0  1  0  0  0  0  0  0
  185.0300  177.2580  143.2270 C   0  0  1  0  0  3  0  0  0  0  0  0
  188.3510  176.3170  141.5240 C   0  0  2  0  0  3  0  0  0  0  0  0
  185.0330  177.7040  144.6930 C   0  0  2  0  0  3  0  0  0  0  0  0
  186.6820  178.2510  146.5590 C   0  0  0  0  0  0  0  0  0  0  0  0
  189.5190  175.3740  141.8300 C   0  0  2  0  0  3  0  0  0  0  0  0
  187.3890  176.4100  142.7110 C   0  0  2  0  0  3  0  0  0  0  0  0
  192.0710  175.1980  146.7500 C   0  0  0  0  0  3  0  0  0  0  0  0
  184.4560  179.1050  144.6750 C   0  0  0  0  0  2  0  0  0  0  0  0
  183.8930  178.0230  142.5690 C   0  0  0  0  0  2  0  0  0  0  0  0
  192.3070  175.1320  144.4010 N   0  0  0  0  0  1  0  0  0  0  0  0
  187.9090  176.3190  146.5850 C   0  0  1  0  0  3  0  0  0  0  0  0
  191.2680  175.2980  148.0100 C   0  0  0  0  0  2  0  0  0  0  0  0
  190.0420  175.6690  145.4390 C   0  0  0  0  0  0  0  0  0  0  0  0
  187.1920  176.4420  145.2150 C   0  0  1  0  0  3  0  0  0  0  0  0
  186.1540  179.3190  146.9680 O   0  0  0  0  0  0  0  0  0  0  0  0
  186.3560  177.6350  145.3220 N   0  0  0  0  0  0  0  0  0  0  0  0
  183.4430  179.0950  143.5520 C   0  0  0  0  0  2  0  0  0  0  0  0
  186.8840  178.9180  142.5300 C   0  0  0  0  0  1  0  0  0  0  0  0
  190.0600  176.0230  147.7920 O   0  0  0  0  0  0  0  0  0  0  0  0
  189.3780  175.9950  146.5680 C   0  0  0  0  0  0  0  0  0  0  0  0
  186.3340  177.4940  142.4450 C   0  0  2  0  0  3  0  0  0  0  0  0
  189.1360  173.8900  141.8060 C   0  0  0  0  0  2  0  0  0  0  0  0
  189.9870  173.3440  139.6550 O   0  0  0  0  0  1  0  0  0  0  0  0
  190.1600  173.0980  141.0150 C   0  0  0  0  0  2  0  0  0  0  0  0
  1  5  1  6  0  0  0
  1 19  1  0  0  0  0
  2 13  2  0  0  0  0
  4  1  1  0  0  0  0
  4 20  1  0  0  0  0
  6  8  1  0  0  0  0
  7  9  1  0  0  0  0
  8 11  1  0  0  0  0
  8 12  1  0  0  0  0
  9 22  1  0  0  0  0
 10 21  2  0  0  0  0
 10  3  1  0  0  0  0
 11  5  1  0  0  0  0
 12  4  1  0  0  0  0
 13 18  1  0  0  0  0
 14  9  1  0  0  0  0
 15  7  1  0  0  0  0
 15 23  1  0  0  0  0
 16  2  1  0  0  0  0
 17  3  1  0  0  0  0
 19  2  1  0  0  0  0
 19 26  2  0  0  0  0
 20 22  1  0  0  0  0
 20 17  1  0  0  0  0
 22 10  1  0  0  0  0
 23 14  1  0  0  0  0
 25 18  1  0  0  0  0
 26 17  1  0  0  0  0
 26 25  1  0  0  0  0
 27 24  1  0  0  0  0
 27 12  1  0  0  0  0
 27  7  1  0  0  0  0
 28 11  1  0  0  0  0
 29 30  1  0  0  0  0
 30 28  1  0  0  0  0
M  END
>  <MODEL>
2

>  <REMARK>
 VINA RESULT:      -7.8      1.850      2.534
  Name = 
  2 active torsions:
  status: ('A' for Active; 'I' for Inactive)
    1  A    between atoms: C_11  and  C_28
    2  A    between atoms: C_28  and  C_30
                            x       y       z     vdW  Elec       q    Type
                         _______ _______ _______ _____ _____    ______ ____

>  <TORSDO>
F 2

$$$$
=
 OpenBabel11112416163D

 30 35  0  0  1  0  0  0  0  0999 V2000
  187.5540  177.0060  144.0930 C   0  0  1  0  0  3  0  0  0  0  0  0
  185.5450  177.9620  145.5080 C   0  0  0  0  0  0  0  0  0  0  0  0
  189.6670  176.7300  147.5850 N   0  0  0  0  0  2  0  0  0  0  0  0
  188.7230  176.0400  144.3520 C   0  0  1  0  0  3  0  0  0  0  0  0
  186.5560  176.3540  143.3330 O   0  0  0  0  0  0  0  0  0  0  0  0
  188.7070  174.9270  140.7590 O   0  0  0  0  0  1  0  0  0  0  0  0
  191.7450  175.0220  143.5400 C   0  0  1  0  0  3  0  0  0  0  0  0
  188.1990  175.1180  142.0460 C   0  0  2  0  0  3  0  0  0  0  0  0
  191.9450  175.3180  145.0290 C   0  0  2  0  0  3  0  0  0  0  0  0
  190.5690  175.7470  147.1320 C   0  0  0  0  0  0  0  0  0  0  0  0
  187.0370  176.1180  142.0240 C   0  0  2  0  0  3  0  0  0  0  0  0
  189.3050  175.5750  143.0000 C   0  0  2  0  0  3  0  0  0  0  0  0
  185.1170  178.6410  146.5740 C   0  0  0  0  0  3  0  0  0  0  0  0
  192.5760  174.0620  145.5950 C   0  0  0  0  0  2  0  0  0  0  0  0
  192.8230  174.0140  143.1740 C   0  0  0  0  0  2  0  0  0  0  0  0
  184.5850  177.5990  144.5220 N   0  0  0  0  0  1  0  0  0  0  0  0
  189.2710  177.4900  146.4100 C   0  0  1  0  0  3  0  0  0  0  0  0
  186.0750  179.1290  147.6160 C   0  0  0  0  0  2  0  0  0  0  0  0
  186.9840  177.5670  145.3830 C   0  0  0  0  0  0  0  0  0  0  0  0
  189.8150  176.7210  145.1770 C   0  0  1  0  0  3  0  0  0  0  0  0
  191.1900  174.9870  147.9210 O   0  0  0  0  0  0  0  0  0  0  0  0
  190.7090  175.7020  145.7200 N   0  0  0  0  0  0  0  0  0  0  0  0
  193.4390  173.5220  144.4760 C   0  0  0  0  0  2  0  0  0  0  0  0
  189.8930  173.2670  143.9520 C   0  0  0  0  0  1  0  0  0  0  0  0
  187.2770  178.3620  147.6070 O   0  0  0  0  0  0  0  0  0  0  0  0
  187.7980  177.7970  146.4360 C   0  0  0  0  0  0  0  0  0  0  0  0
  190.3640  174.4720  143.1380 C   0  0  2  0  0  3  0  0  0  0  0  0
  187.3490  177.4080  141.2580 C   0  0  0  0  0  2  0  0  0  0  0  0
  185.2810  178.3650  140.5810 O   0  0  0  0  0  1  0  0  0  0  0  0
  186.3540  177.5990  140.1290 C   0  0  0  0  0  2  0  0  0  0  0  0
  1  5  1  1  0  0  0
  1  4  1  0  0  0  0
  1 19  1  0  0  0  0
  2 13  2  0  0  0  0
  4 20  1  0  0  0  0
  6  8  1  0  0  0  0
  7  9  1  0  0  0  0
  8 12  1  0  0  0  0
  9 14  1  0  0  0  0
  9 22  1  0  0  0  0
 10  3  1  0  0  0  0
 10 21  2  0  0  0  0
 11  8  1  0  0  0  0
 11  5  1  0  0  0  0
 12 27  1  0  0  0  0
 12  4  1  0  0  0  0
 13 18  1  0  0  0  0
 15  7  1  0  0  0  0
 15 23  1  0  0  0  0
 16  2  1  0  0  0  0
 17 26  1  0  0  0  0
 17  3  1  0  0  0  0
 19  2  1  0  0  0  0
 19 26  2  0  0  0  0
 20 22  1  0  0  0  0
 20 17  1  0  0  0  0
 22 10  1  0  0  0  0
 23 14  1  0  0  0  0
 25 18  1  0  0  0  0
 26 25  1  0  0  0  0
 27  7  1  0  0  0  0
 27 24  1  0  0  0  0
 28 11  1  0  0  0  0
 30 29  1  0  0  0  0
 30 28  1  0  0  0  0
M  END
>  <MODEL>
3

>  <REMARK>
 VINA RESULT:      -7.8      1.862      5.577
  Name = 
  2 active torsions:
  status: ('A' for Active; 'I' for Inactive)
    1  A    between atoms: C_11  and  C_28
    2  A    between atoms: C_28  and  C_30
                            x       y       z     vdW  Elec       q    Type
                         _______ _______ _______ _____ _____    ______ ____

>  <TORSDO>
F 2

$$$$
=
 OpenBabel11112416163D

 30 35  0  0  1  0  0  0  0  0999 V2000
  187.4840  176.1360  141.8280 C   0  0  1  0  0  3  0  0  0  0  0  0
  187.3720  175.8750  139.2070 C   0  0  0  0  0  0  0  0  0  0  0  0
  190.6620  173.5590  141.7830 N   0  0  0  0  0  2  0  0  0  0  0  0
  188.5890  176.0670  142.8960 C   0  0  1  0  0  3  0  0  0  0  0  0
  187.1310  177.4840  141.5920 O   0  0  0  0  0  0  0  0  0  0  0  0
  186.7650  178.5430  145.0610 O   0  0  0  0  0  1  0  0  0  0  0  0
  189.4170  175.5450  146.0380 C   0  0  1  0  0  3  0  0  0  0  0  0
  187.4300  178.0770  143.9250 C   0  0  2  0  0  3  0  0  0  0  0  0
  190.3290  174.5310  145.3400 C   0  0  2  0  0  3  0  0  0  0  0  0
  191.2070  173.9800  143.0110 C   0  0  0  0  0  0  0  0  0  0  0  0
  186.4740  178.0060  142.7300 C   0  0  2  0  0  3  0  0  0  0  0  0
  188.0760  176.7160  144.1990 C   0  0  2  0  0  3  0  0  0  0  0  0
  187.5780  175.1270  138.1210 C   0  0  0  0  0  3  0  0  0  0  0  0
  191.7130  174.8100  145.8890 C   0  0  0  0  0  2  0  0  0  0  0  0
  190.0840  175.8480  147.3700 C   0  0  0  0  0  2  0  0  0  0  0  0
  186.6770  177.1070  139.0430 N   0  0  0  0  0  1  0  0  0  0  0  0
  189.2290  173.7900  141.8750 C   0  0  1  0  0  3  0  0  0  0  0  0
  188.2290  173.7830  138.2200 C   0  0  0  0  0  2  0  0  0  0  0  0
  187.8930  175.4410  140.5420 C   0  0  0  0  0  0  0  0  0  0  0  0
  188.9910  174.6170  143.1660 C   0  0  1  0  0  3  0  0  0  0  0  0
  192.4210  173.8110  143.3040 O   0  0  0  0  0  0  0  0  0  0  0  0
  190.2670  174.5990  143.8760 N   0  0  0  0  0  0  0  0  0  0  0  0
  191.4840  175.2530  147.3180 C   0  0  0  0  0  2  0  0  0  0  0  0
  190.4190  177.5750  144.7910 C   0  0  0  0  0  1  0  0  0  0  0  0
  189.0200  173.6820  139.4020 O   0  0  0  0  0  0  0  0  0  0  0  0
  188.6870  174.3500  140.5870 C   0  0  0  0  0  0  0  0  0  0  0  0
  189.1590  176.8590  145.2770 C   0  0  2  0  0  3  0  0  0  0  0  0
  185.1530  177.2930  143.0390 C   0  0  0  0  0  2  0  0  0  0  0  0
  183.6720  178.9780  143.8260 O   0  0  0  0  0  1  0  0  0  0  0  0
  183.9810  178.1990  142.7130 C   0  0  0  0  0  2  0  0  0  0  0  0
  1 19  1  6  0  0  0
  1  4  1  0  0  0  0
  2 19  1  0  0  0  0
  3 17  1  0  0  0  0
  3 10  1  0  0  0  0
  4 20  1  0  0  0  0
  4 12  1  0  0  0  0
  5  1  1  0  0  0  0
  5 11  1  0  0  0  0
  7 15  1  0  0  0  0
  8 12  1  0  0  0  0
  8  6  1  0  0  0  0
  9 14  1  0  0  0  0
  9  7  1  0  0  0  0
 10 21  2  0  0  0  0
 10 22  1  0  0  0  0
 11 28  1  0  0  0  0
 11  8  1  0  0  0  0
 12 27  1  0  0  0  0
 13 18  1  0  0  0  0
 13  2  2  0  0  0  0
 14 23  1  0  0  0  0
 16  2  1  0  0  0  0
 17 20  1  0  0  0  0
 18 25  1  0  0  0  0
 19 26  2  0  0  0  0
 20 22  1  0  0  0  0
 22  9  1  0  0  0  0
 23 15  1  0  0  0  0
 24 27  1  0  0  0  0
 25 26  1  0  0  0  0
 26 17  1  0  0  0  0
 27  7  1  0  0  0  0
 30 28  1  0  0  0  0
 30 29  1  0  0  0  0
M  END
>  <MODEL>
4

>  <REMARK>
 VINA RESULT:      -7.6      2.602      5.885
  Name = 
  2 active torsions:
  status: ('A' for Active; 'I' for Inactive)
    1  A    between atoms: C_11  and  C_28
    2  A    between atoms: C_28  and  C_30
                            x       y       z     vdW  Elec       q    Type
                         _______ _______ _______ _____ _____    ______ ____

>  <TORSDO>
F 2

$$$$
=
 OpenBabel11112416163D

 30 35  0  0  1  0  0  0  0  0999 V2000
  191.9420  175.3090  144.5730 C   0  0  1  0  0  3  0  0  0  0  0  0
  193.1740  173.6750  142.9100 C   0  0  0  0  0  0  0  0  0  0  0  0
  188.7640  175.2690  141.9970 N   0  0  0  0  0  2  0  0  0  0  0  0
  190.4800  175.5930  144.9590 C   0  0  1  0  0  3  0  0  0  0  0  0
  192.5680  174.5560  145.5920 O   0  0  0  0  0  0  0  0  0  0  0  0
  191.5020  176.5550  148.4480 O   0  0  0  0  0  1  0  0  0  0  0  0
  188.2640  177.7010  146.1730 C   0  0  1  0  0  3  0  0  0  0  0  0
  191.3520  175.7200  147.3390 C   0  0  2  0  0  3  0  0  0  0  0  0
  187.6160  177.3640  144.8260 C   0  0  2  0  0  3  0  0  0  0  0  0
  187.7990  175.6470  142.9510 C   0  0  0  0  0  0  0  0  0  0  0  0
  192.7180  175.3580  146.7470 C   0  0  2  0  0  3  0  0  0  0  0  0
  190.4490  176.3740  146.2890 C   0  0  2  0  0  3  0  0  0  0  0  0
  193.3620  173.2390  141.6630 C   0  0  0  0  0  3  0  0  0  0  0  0
  186.1940  176.9660  145.1670 C   0  0  0  0  0  2  0  0  0  0  0  0
  187.1270  178.1610  147.0710 C   0  0  0  0  0  2  0  0  0  0  0  0
  194.0500  173.1920  143.9230 N   0  0  0  0  0  1  0  0  0  0  0  0
  190.0210  175.8550  142.4370 C   0  0  1  0  0  3  0  0  0  0  0  0
  192.5360  173.7600  140.5290 C   0  0  0  0  0  2  0  0  0  0  0  0
  192.0500  174.6130  143.2280 C   0  0  0  0  0  0  0  0  0  0  0  0
  189.7800  176.4040  143.8680 C   0  0  1  0  0  3  0  0  0  0  0  0
  186.5730  175.3960  142.8060 O   0  0  0  0  0  0  0  0  0  0  0  0
  188.3360  176.3320  144.0720 N   0  0  0  0  0  0  0  0  0  0  0  0
  185.8260  177.8210  146.3600 C   0  0  0  0  0  2  0  0  0  0  0  0
  188.2550  175.2500  146.9950 C   0  0  0  0  0  1  0  0  0  0  0  0
  191.2940  174.2830  140.9960 O   0  0  0  0  0  0  0  0  0  0  0  0
  191.1610  174.8910  142.2510 C   0  0  0  0  0  0  0  0  0  0  0  0
  189.0350  176.5580  146.8570 C   0  0  2  0  0  3  0  0  0  0  0  0
  193.6330  176.5670  146.5230 C   0  0  0  0  0  2  0  0  0  0  0  0
  195.1640  176.7040  144.7100 O   0  0  0  0  0  1  0  0  0  0  0  0
  194.9660  176.1180  145.9590 C   0  0  0  0  0  2  0  0  0  0  0  0
  1 19  1  6  0  0  0
  1  4  1  0  0  0  0
  1  5  1  0  0  0  0
  2 19  1  0  0  0  0
  2 16  1  0  0  0  0
  3 17  1  0  0  0  0
  3 10  1  0  0  0  0
  4 12  1  0  0  0  0
  5 11  1  0  0  0  0
  7 27  1  0  0  0  0
  7 15  1  0  0  0  0
  8  6  1  0  0  0  0
  9 14  1  0  0  0  0
  9  7  1  0  0  0  0
 10 22  1  0  0  0  0
 11  8  1  0  0  0  0
 12 27  1  0  0  0  0
 12  8  1  0  0  0  0
 13  2  2  0  0  0  0
 14 23  1  0  0  0  0
 17 20  1  0  0  0  0
 18 25  1  0  0  0  0
 18 13  1  0  0  0  0
 20 22  1  0  0  0  0
 20  4  1  0  0  0  0
 21 10  2  0  0  0  0
 22  9  1  0  0  0  0
 23 15  1  0  0  0  0
 25 26  1  0  0  0  0
 26 17  1  0  0  0  0
 26 19  2  0  0  0  0
 27 24  1  0  0  0  0
 28 11  1  0  0  0  0
 29 30  1  0  0  0  0
 30 28  1  0  0  0  0
M  END
>  <MODEL>
5

>  <REMARK>
 VINA RESULT:      -7.4      1.965      4.817
  Name = 
  2 active torsions:
  status: ('A' for Active; 'I' for Inactive)
    1  A    between atoms: C_11  and  C_28
    2  A    between atoms: C_28  and  C_30
                            x       y       z     vdW  Elec       q    Type
                         _______ _______ _______ _____ _____    ______ ____

>  <TORSDO>
F 2

$$$$
=
 OpenBabel11112416163D

 30 35  0  0  1  0  0  0  0  0999 V2000
  188.2370  176.0990  141.6270 C   0  0  1  0  0  3  0  0  0  0  0  0
  188.1780  174.9030  139.2780 C   0  0  0  0  0  0  0  0  0  0  0  0
  184.7020  177.8940  140.6170 N   0  0  0  0  0  2  0  0  0  0  0  0
  187.1890  176.6230  142.6240 C   0  0  1  0  0  3  0  0  0  0  0  0
  188.7810  174.8840  142.1020 O   0  0  0  0  0  0  0  0  0  0  0  0
  189.4770  175.9250  145.5250 O   0  0  0  0  0  1  0  0  0  0  0  0
  186.4470  178.6800  145.0820 C   0  0  1  0  0  3  0  0  0  0  0  0
  188.6920  175.6270  144.4080 C   0  0  2  0  0  3  0  0  0  0  0  0
  185.3560  179.0520  144.0730 C   0  0  2  0  0  3  0  0  0  0  0  0
  184.2900  178.1560  141.9380 C   0  0  0  0  0  0  0  0  0  0  0  0
  189.5670  175.1350  143.2500 C   0  0  2  0  0  3  0  0  0  0  0  0
  187.8590  176.8430  143.9960 C   0  0  2  0  0  3  0  0  0  0  0  0
  187.8060  174.9150  137.9970 C   0  0  0  0  0  3  0  0  0  0  0  0
  184.0600  178.9760  144.8540 C   0  0  0  0  0  2  0  0  0  0  0  0
  185.9010  179.0840  146.4430 C   0  0  0  0  0  2  0  0  0  0  0  0
  189.0450  173.8600  139.7090 N   0  0  0  0  0  1  0  0  0  0  0  0
  186.1560  177.9000  140.6370 C   0  0  1  0  0  3  0  0  0  0  0  0
  186.9620  176.0210  137.4470 C   0  0  0  0  0  2  0  0  0  0  0  0
  187.6630  175.9370  140.2310 C   0  0  0  0  0  0  0  0  0  0  0  0
  186.5820  177.9370  142.1290 C   0  0  1  0  0  3  0  0  0  0  0  0
  183.0800  178.3300  142.2440 O   0  0  0  0  0  0  0  0  0  0  0  0
  185.3550  178.2060  142.8740 N   0  0  0  0  0  0  0  0  0  0  0  0
  184.4250  179.4070  146.2570 C   0  0  0  0  0  2  0  0  0  0  0  0
  185.7090  176.2080  145.2410 C   0  0  0  0  0  1  0  0  0  0  0  0
  186.2230  176.6670  138.4820 O   0  0  0  0  0  0  0  0  0  0  0  0
  186.7140  176.7890  139.7890 C   0  0  0  0  0  0  0  0  0  0  0  0
  186.8660  177.1990  145.1100 C   0  0  2  0  0  3  0  0  0  0  0  0
  190.7760  176.0330  142.9660 C   0  0  0  0  0  2  0  0  0  0  0  0
  192.2160  174.5460  144.1350 O   0  0  0  0  0  1  0  0  0  0  0  0
  192.0440  175.2030  142.9180 C   0  0  0  0  0  2  0  0  0  0  0  0
  1 19  1  6  0  0  0
  1  5  1  0  0  0  0
  1  4  1  0  0  0  0
  2 16  1  0  0  0  0
  2 19  1  0  0  0  0
  3 17  1  0  0  0  0
  3 10  1  0  0  0  0
  4 12  1  0  0  0  0
  5 11  1  0  0  0  0
  7 27  1  0  0  0  0
  7 15  1  0  0  0  0
  8  6  1  0  0  0  0
  9 14  1  0  0  0  0
  9  7  1  0  0  0  0
 10 21  2  0  0  0  0
 10 22  1  0  0  0  0
 11  8  1  0  0  0  0
 12  8  1  0  0  0  0
 12 27  1  0  0  0  0
 13  2  2  0  0  0  0
 14 23  1  0  0  0  0
 17 20  1  0  0  0  0
 18 13  1  0  0  0  0
 18 25  1  0  0  0  0
 20  4  1  0  0  0  0
 20 22  1  0  0  0  0
 22  9  1  0  0  0  0
 23 15  1  0  0  0  0
 25 26  1  0  0  0  0
 26 19  2  0  0  0  0
 26 17  1  0  0  0  0
 27 24  1  0  0  0  0
 28 11  1  0  0  0  0
 30 28  1  0  0  0  0
 30 29  1  0  0  0  0
M  END
>  <MODEL>
6

>  <REMARK>
 VINA RESULT:      -7.3      2.981      5.708
  Name = 
  2 active torsions:
  status: ('A' for Active; 'I' for Inactive)
    1  A    between atoms: C_11  and  C_28
    2  A    between atoms: C_28  and  C_30
                            x       y       z     vdW  Elec       q    Type
                         _______ _______ _______ _____ _____    ______ ____

>  <TORSDO>
F 2

$$$$
=
 OpenBabel11112416163D

 30 35  0  0  1  0  0  0  0  0999 V2000
  188.0340  176.6580  143.8560 C   0  0  1  0  0  3  0  0  0  0  0  0
  186.2320  177.3900  145.6360 C   0  0  0  0  0  0  0  0  0  0  0  0
  190.7470  176.4960  146.9150 N   0  0  0  0  0  2  0  0  0  0  0  0
  189.3110  175.7980  143.8690 C   0  0  1  0  0  3  0  0  0  0  0  0
  186.9780  175.9350  143.2560 O   0  0  0  0  0  0  0  0  0  0  0  0
  188.7570  174.7750  140.2930 O   0  0  0  0  0  1  0  0  0  0  0  0
  192.2180  175.0850  142.5050 C   0  0  1  0  0  3  0  0  0  0  0  0
  188.4700  174.8880  141.6550 C   0  0  2  0  0  3  0  0  0  0  0  0
  192.6520  175.3630  143.9480 C   0  0  2  0  0  3  0  0  0  0  0  0
  191.6360  175.6130  146.2730 C   0  0  0  0  0  0  0  0  0  0  0  0
  187.2400  175.7750  141.8760 C   0  0  2  0  0  3  0  0  0  0  0  0
  189.6830  175.4220  142.4200 C   0  0  2  0  0  3  0  0  0  0  0  0
  185.9410  178.0000  146.7860 C   0  0  0  0  0  3  0  0  0  0  0  0
  193.4800  174.1580  144.3460 C   0  0  0  0  0  2  0  0  0  0  0  0
  193.2990  174.1900  141.9190 C   0  0  0  0  0  2  0  0  0  0  0  0
  185.1480  176.9620  144.8180 N   0  0  0  0  0  1  0  0  0  0  0  0
  190.0840  177.2440  145.8570 C   0  0  1  0  0  3  0  0  0  0  0  0
  187.0210  178.5500  147.6640 C   0  0  0  0  0  2  0  0  0  0  0  0
  187.6550  177.1330  145.2470 C   0  0  0  0  0  0  0  0  0  0  0  0
  190.4670  176.5590  144.5190 C   0  0  1  0  0  3  0  0  0  0  0  0
  192.4510  174.8950  146.9120 O   0  0  0  0  0  0  0  0  0  0  0  0
  191.5290  175.6140  144.8580 N   0  0  0  0  0  0  0  0  0  0  0  0
  194.1750  173.7270  143.0730 C   0  0  0  0  0  2  0  0  0  0  0  0
  190.6290  173.1570  143.1640 C   0  0  0  0  0  1  0  0  0  0  0  0
  188.2650  177.8990  147.4160 O   0  0  0  0  0  0  0  0  0  0  0  0
  188.6180  177.4120  146.1510 C   0  0  0  0  0  0  0  0  0  0  0  0
  190.8420  174.4200  142.3290 C   0  0  2  0  0  3  0  0  0  0  0  0
  187.2970  177.1060  141.1180 C   0  0  0  0  0  2  0  0  0  0  0  0
  185.6460  178.6370  141.8800 O   0  0  0  0  0  1  0  0  0  0  0  0
  185.8990  177.6570  140.9220 C   0  0  0  0  0  2  0  0  0  0  0  0
  1  5  1  1  0  0  0
  1  4  1  0  0  0  0
  1 19  1  0  0  0  0
  2 13  2  0  0  0  0
  4 20  1  0  0  0  0
  6  8  1  0  0  0  0
  7  9  1  0  0  0  0
  8 11  1  0  0  0  0
  8 12  1  0  0  0  0
  9 14  1  0  0  0  0
  9 22  1  0  0  0  0
 10 21  2  0  0  0  0
 10  3  1  0  0  0  0
 11  5  1  0  0  0  0
 12  4  1  0  0  0  0
 13 18  1  0  0  0  0
 15  7  1  0  0  0  0
 15 23  1  0  0  0  0
 16  2  1  0  0  0  0
 17 26  1  0  0  0  0
 17  3  1  0  0  0  0
 19  2  1  0  0  0  0
 19 26  2  0  0  0  0
 20 22  1  0  0  0  0
 20 17  1  0  0  0  0
 22 10  1  0  0  0  0
 23 14  1  0  0  0  0
 25 18  1  0  0  0  0
 26 25  1  0  0  0  0
 27 12  1  0  0  0  0
 27  7  1  0  0  0  0
 27 24  1  0  0  0  0
 28 11  1  0  0  0  0
 30 28  1  0  0  0  0
 30 29  1  0  0  0  0
M  END
>  <MODEL>
7

>  <REMARK>
 VINA RESULT:      -7.3      1.751      5.701
  Name = 
  2 active torsions:
  status: ('A' for Active; 'I' for Inactive)
    1  A    between atoms: C_11  and  C_28
    2  A    between atoms: C_28  and  C_30
                            x       y       z     vdW  Elec       q    Type
                         _______ _______ _______ _____ _____    ______ ____

>  <TORSDO>
F 2

$$$$
=
 OpenBabel11112416163D

 30 35  0  0  1  0  0  0  0  0999 V2000
  187.7860  176.3930  144.3050 C   0  0  1  0  0  3  0  0  0  0  0  0
  186.3730  178.3120  143.1770 C   0  0  0  0  0  0  0  0  0  0  0  0
  188.5100  174.9440  140.5470 N   0  0  0  0  0  2  0  0  0  0  0  0
  188.9950  175.5310  143.9010 C   0  0  1  0  0  3  0  0  0  0  0  0
  188.1950  177.3910  145.2190 O   0  0  0  0  0  0  0  0  0  0  0  0
  190.1110  175.2720  147.4830 O   0  0  0  0  0  1  0  0  0  0  0  0
  190.6980  172.7420  144.2840 C   0  0  1  0  0  3  0  0  0  0  0  0
  189.7930  175.9070  146.2800 C   0  0  2  0  0  3  0  0  0  0  0  0
  190.4410  172.7030  142.7750 C   0  0  2  0  0  3  0  0  0  0  0  0
  189.6800  174.2390  140.8870 C   0  0  0  0  0  0  0  0  0  0  0  0
  188.5500  176.7880  146.4480 C   0  0  2  0  0  3  0  0  0  0  0  0
  189.5970  174.8790  145.1630 C   0  0  2  0  0  3  0  0  0  0  0  0
  185.6020  178.7240  142.1690 C   0  0  0  0  0  3  0  0  0  0  0  0
  191.8030  172.4720  142.1530 C   0  0  0  0  0  2  0  0  0  0  0  0
  191.9340  171.8860  144.5120 C   0  0  0  0  0  2  0  0  0  0  0  0
  186.5120  179.1720  144.3020 N   0  0  0  0  0  1  0  0  0  0  0  0
  187.6910  174.9740  141.7490 C   0  0  1  0  0  3  0  0  0  0  0  0
  185.3390  177.8450  140.9870 C   0  0  0  0  0  2  0  0  0  0  0  0
  187.0930  177.0010  143.0990 C   0  0  0  0  0  0  0  0  0  0  0  0
  188.5790  174.4460  142.9080 C   0  0  1  0  0  3  0  0  0  0  0  0
  190.5560  173.9350  140.0340 O   0  0  0  0  0  0  0  0  0  0  0  0
  189.7720  173.9050  142.2640 N   0  0  0  0  0  0  0  0  0  0  0  0
  192.5420  171.6020  143.1460 C   0  0  0  0  0  2  0  0  0  0  0  0
  191.9680  174.9910  144.1920 C   0  0  0  0  0  1  0  0  0  0  0  0
  186.3650  176.8660  140.8370 O   0  0  0  0  0  0  0  0  0  0  0  0
  187.0490  176.3230  141.9330 C   0  0  0  0  0  0  0  0  0  0  0  0
  190.9150  174.1380  144.8980 C   0  0  2  0  0  3  0  0  0  0  0  0
  187.3770  176.0750  147.1290 C   0  0  0  0  0  2  0  0  0  0  0  0
  185.1680  176.7870  146.6160 O   0  0  0  0  0  1  0  0  0  0  0  0
  186.2670  177.0630  147.4270 C   0  0  0  0  0  2  0  0  0  0  0  0
  1 19  1  6  0  0  0
  1  5  1  0  0  0  0
  2 16  1  0  0  0  0
  3 10  1  0  0  0  0
  3 17  1  0  0  0  0
  4  1  1  0  0  0  0
  4 12  1  0  0  0  0
  5 11  1  0  0  0  0
  7 15  1  0  0  0  0
  7 27  1  0  0  0  0
  8 11  1  0  0  0  0
  8  6  1  0  0  0  0
  9  7  1  0  0  0  0
 10 22  1  0  0  0  0
 11 28  1  0  0  0  0
 12  8  1  0  0  0  0
 13  2  2  0  0  0  0
 14  9  1  0  0  0  0
 14 23  1  0  0  0  0
 17 26  1  0  0  0  0
 17 20  1  0  0  0  0
 18 13  1  0  0  0  0
 19  2  1  0  0  0  0
 20  4  1  0  0  0  0
 21 10  2  0  0  0  0
 22  9  1  0  0  0  0
 22 20  1  0  0  0  0
 23 15  1  0  0  0  0
 24 27  1  0  0  0  0
 25 18  1  0  0  0  0
 25 26  1  0  0  0  0
 26 19  2  0  0  0  0
 27 12  1  0  0  0  0
 28 30  1  0  0  0  0
 29 30  1  0  0  0  0
M  END
>  <MODEL>
8

>  <REMARK>
 VINA RESULT:      -7.3      2.588      7.009
  Name = 
  2 active torsions:
  status: ('A' for Active; 'I' for Inactive)
    1  A    between atoms: C_11  and  C_28
    2  A    between atoms: C_28  and  C_30
                            x       y       z     vdW  Elec       q    Type
                         _______ _______ _______ _____ _____    ______ ____

>  <TORSDO>
F 2

$$$$
=
 OpenBabel11112416163D

 30 35  0  0  1  0  0  0  0  0999 V2000
  189.2790  175.0510  143.6820 C   0  0  1  0  0  3  0  0  0  0  0  0
  189.2870  173.5490  141.5160 C   0  0  0  0  0  0  0  0  0  0  0  0
  186.1040  177.0680  142.0710 N   0  0  0  0  0  2  0  0  0  0  0  0
  188.2170  175.8260  144.4830 C   0  0  1  0  0  3  0  0  0  0  0  0
  189.6200  173.8630  144.3670 O   0  0  0  0  0  0  0  0  0  0  0  0
  190.1230  175.2950  147.6810 O   0  0  0  0  0  1  0  0  0  0  0  0
  187.5150  178.2800  146.5580 C   0  0  1  0  0  3  0  0  0  0  0  0
  189.4130  174.9310  146.5340 C   0  0  2  0  0  3  0  0  0  0  0  0
  186.5770  178.6240  145.3970 C   0  0  2  0  0  3  0  0  0  0  0  0
  185.6080  177.5590  143.2940 C   0  0  0  0  0  0  0  0  0  0  0  0
  190.3220  174.1850  145.5520 C   0  0  2  0  0  3  0  0  0  0  0  0
  188.7800  176.1620  145.8790 C   0  0  2  0  0  3  0  0  0  0  0  0
  189.0390  173.4200  140.2110 C   0  0  0  0  0  3  0  0  0  0  0  0
  185.2150  178.8050  146.0360 C   0  0  0  0  0  2  0  0  0  0  0  0
  186.9010  178.9310  147.7880 C   0  0  0  0  0  2  0  0  0  0  0  0
  189.9730  172.4870  142.1700 N   0  0  0  0  0  1  0  0  0  0  0  0
  187.5400  176.9140  142.2480 C   0  0  1  0  0  3  0  0  0  0  0  0
  188.3940  174.5240  139.4340 C   0  0  0  0  0  2  0  0  0  0  0  0
  188.8200  174.7580  142.2650 C   0  0  0  0  0  0  0  0  0  0  0  0
  187.8280  177.1150  143.7590 C   0  0  1  0  0  3  0  0  0  0  0  0
  184.4070  177.9090  143.4420 O   0  0  0  0  0  0  0  0  0  0  0  0
  186.5810  177.6230  144.3250 N   0  0  0  0  0  0  0  0  0  0  0  0
  185.5010  179.3870  147.4030 C   0  0  0  0  0  2  0  0  0  0  0  0
  186.4620  175.9540  146.9560 C   0  0  0  0  0  1  0  0  0  0  0  0
  187.6500  175.3880  140.2910 O   0  0  0  0  0  0  0  0  0  0  0  0
  188.0300  175.6390  141.6160 C   0  0  0  0  0  0  0  0  0  0  0  0
  187.7410  176.7810  146.8240 C   0  0  2  0  0  3  0  0  0  0  0  0
  191.6550  174.8930  145.2860 C   0  0  0  0  0  2  0  0  0  0  0  0
  192.9040  173.1900  144.1970 O   0  0  0  0  0  1  0  0  0  0  0  0
  192.8010  173.9060  145.3870 C   0  0  0  0  0  2  0  0  0  0  0  0
  1 19  1  6  0  0  0
  1  5  1  0  0  0  0
  1  4  1  0  0  0  0
  2 16  1  0  0  0  0
  2 19  1  0  0  0  0
  3 17  1  0  0  0  0
  3 10  1  0  0  0  0
  4 12  1  0  0  0  0
  5 11  1  0  0  0  0
  7 27  1  0  0  0  0
  7 15  1  0  0  0  0
  8  6  1  0  0  0  0
  9 14  1  0  0  0  0
  9  7  1  0  0  0  0
 10 21  2  0  0  0  0
 10 22  1  0  0  0  0
 11  8  1  0  0  0  0
 12  8  1  0  0  0  0
 12 27  1  0  0  0  0
 13  2  2  0  0  0  0
 14 23  1  0  0  0  0
 17 20  1  0  0  0  0
 18 13  1  0  0  0  0
 18 25  1  0  0  0  0
 20 22  1  0  0  0  0
 20  4  1  0  0  0  0
 22  9  1  0  0  0  0
 23 15  1  0  0  0  0
 25 26  1  0  0  0  0
 26 17  1  0  0  0  0
 26 19  2  0  0  0  0
 27 24  1  0  0  0  0
 28 30  1  0  0  0  0
 28 11  1  0  0  0  0
 29 30  1  0  0  0  0
M  END
>  <MODEL>
9

>  <REMARK>
 VINA RESULT:      -7.0      2.181      4.836
  Name = 
  2 active torsions:
  status: ('A' for Active; 'I' for Inactive)
    1  A    between atoms: C_11  and  C_28
    2  A    between atoms: C_28  and  C_30
                            x       y       z     vdW  Elec       q    Type
                         _______ _______ _______ _____ _____    ______ ____

>  <TORSDO>
F 2

$$$$
