=
 OpenBabel11112416233D

 30 35  0  0  1  0  0  0  0  0999 V2000
  186.6490  177.4190  143.9230 C   0  0  0  0  0  0  0  0  0  0  0  0
  184.8720  178.5570  145.3350 C   0  0  0  0  0  0  0  0  0  0  0  0
  188.3730  175.7430  147.3730 N   0  0  0  0  0  2  0  0  0  0  0  0
  187.7890  176.5550  143.8770 C   0  0  0  0  0  0  0  0  0  0  0  0
  186.1920  178.1150  142.6680 C   0  0  0  0  0  2  0  0  0  0  0  0
  187.7180  175.6720  140.0660 O   0  0  0  0  0  0  0  0  0  0  0  0
  190.7270  176.5410  143.5760 C   0  0  1  0  0  3  0  0  0  0  0  0
  187.8390  176.8140  141.0650 S   0  0  1  0  0  0  0  0  0  0  0  0
  190.7620  175.9020  144.9040 N   0  0  2  0  0  0  0  0  0  0  0  0
  189.4540  174.9250  146.8390 C   0  0  2  0  0  3  0  0  0  0  0  0
  186.1440  177.2000  141.4670 C   0  0  2  0  0  3  0  0  0  0  0  0
  188.3650  175.9890  142.5790 C   0  0  1  0  0  3  0  0  0  0  0  0
  184.3450  178.8100  146.6050 C   0  0  0  0  0  3  0  0  0  0  0  0
  191.8480  174.9330  144.8020 C   0  0  0  0  0  2  0  0  0  0  0  0
  192.1670  176.6110  143.1010 C   0  0  0  0  0  2  0  0  0  0  0  0
  184.1160  179.1670  144.2020 C   0  0  0  0  0  1  0  0  0  0  0  0
  187.7260  176.3740  146.2860 C   0  0  0  0  0  0  0  0  0  0  0  0
  184.9270  178.2700  147.7460 C   0  0  0  0  0  3  0  0  0  0  0  0
  186.0350  177.7340  145.1870 C   0  0  0  0  0  0  0  0  0  0  0  0
  188.3070  176.0780  145.0920 C   0  0  0  0  0  0  0  0  0  0  0  0
  190.7340  175.2070  147.6160 C   0  0  0  0  0  1  0  0  0  0  0  0
  189.5170  175.2080  145.3020 C   0  0  1  0  0  3  0  0  0  0  0  0
  192.8890  175.5280  143.8750 C   0  0  0  0  0  2  0  0  0  0  0  0
  190.3460  174.9790  141.8140 O   0  0  0  0  0  0  0  0  0  0  0  0
  186.0500  177.4600  147.6320 C   0  0  0  0  0  3  0  0  0  0  0  0
  186.6020  177.1860  146.3770 C   0  0  0  0  0  0  0  0  0  0  0  0
  189.8560  175.7980  142.5790 C   0  0  0  0  0  0  0  0  0  0  0  0
  185.4980  177.9150  140.2940 C   0  0  0  0  0  2  0  0  0  0  0  0
  183.1510  177.7010  139.9780 O   0  0  0  0  0  1  0  0  0  0  0  0
  184.1190  178.4180  140.6770 C   0  0  0  0  0  2  0  0  0  0  0  0
  1 19  1  0  0  0  0
  2 13  1  0  0  0  0
  4  1  2  0  0  0  0
  4 20  1  0  0  0  0
  5  1  1  0  0  0  0
  7 15  1  6  0  0  0
  7  9  1  0  0  0  0
  8  6  2  6  0  0  0
  8 11  1  0  0  0  0
  8 12  1  0  0  0  0
  9 14  1  6  0  0  0
  9 22  1  0  0  0  0
 10  3  1  0  0  0  0
 10 21  1  1  0  0  0
 11 28  1  6  0  0  0
 11  5  1  0  0  0  0
 12 27  1  1  0  0  0
 12  4  1  0  0  0  0
 13 18  2  0  0  0  0
 15 23  1  0  0  0  0
 16  2  1  0  0  0  0
 17 26  1  0  0  0  0
 17  3  1  0  0  0  0
 19  2  2  0  0  0  0
 19 26  1  0  0  0  0
 20 17  2  0  0  0  0
 22 20  1  1  0  0  0
 22 10  1  0  0  0  0
 23 14  1  0  0  0  0
 24 27  2  0  0  0  0
 25 18  1  0  0  0  0
 26 25  2  0  0  0  0
 27  7  1  0  0  0  0
 28 30  1  0  0  0  0
 29 30  1  0  0  0  0
M  END
>  <MODEL>
1

>  <REMARK>
 VINA RESULT:      -9.5      0.000      0.000
  Name = 
  2 active torsions:
  status: ('A' for Active; 'I' for Inactive)
    1  A    between atoms: C_11  and  C_28
    2  A    between atoms: C_28  and  C_30
                            x       y       z     vdW  Elec       q    Type
                         _______ _______ _______ _____ _____    ______ ____

>  <TORSDO>
F 2

$$$$
=
 OpenBabel11112416233D

 30 35  0  0  1  0  0  0  0  0999 V2000
  187.5710  176.5070  145.0280 C   0  0  0  0  0  0  0  0  0  0  0  0
  185.8600  177.8080  146.3810 C   0  0  0  0  0  0  0  0  0  0  0  0
  186.0480  178.1320  141.4620 N   0  0  0  0  0  2  0  0  0  0  0  0
  188.1230  176.2050  143.7420 C   0  0  0  0  0  0  0  0  0  0  0  0
  188.0590  175.7580  146.2410 C   0  0  0  0  0  2  0  0  0  0  0  0
  191.5390  174.6880  144.8970 O   0  0  0  0  0  0  0  0  0  0  0  0
  188.1950  174.1380  141.6350 C   0  0  1  0  0  3  0  0  0  0  0  0
  190.0280  174.5290  144.9830 S   0  0  1  0  0  0  0  0  0  0  0  0
  187.6390  175.1700  140.7410 N   0  0  2  0  0  0  0  0  0  0  0  0
  186.9310  177.5820  140.4430 C   0  0  2  0  0  3  0  0  0  0  0  0
  189.5650  175.6410  146.2990 C   0  0  2  0  0  3  0  0  0  0  0  0
  189.4310  175.4400  143.5460 C   0  0  1  0  0  3  0  0  0  0  0  0
  184.7800  178.6940  146.3920 C   0  0  0  0  0  3  0  0  0  0  0  0
  188.3040  174.9300  139.4650 C   0  0  0  0  0  2  0  0  0  0  0  0
  188.4220  172.9080  140.7740 C   0  0  0  0  0  2  0  0  0  0  0  0
  186.3320  177.3660  147.7260 C   0  0  0  0  0  1  0  0  0  0  0  0
  186.4640  177.6320  142.7170 C   0  0  0  0  0  0  0  0  0  0  0  0
  184.2650  179.2150  145.2100 C   0  0  0  0  0  3  0  0  0  0  0  0
  186.4580  177.4140  145.1400 C   0  0  0  0  0  0  0  0  0  0  0  0
  187.5140  176.7740  142.6120 C   0  0  0  0  0  0  0  0  0  0  0  0
  186.0980  177.0120  139.3030 C   0  0  0  0  0  1  0  0  0  0  0  0
  187.8770  176.5670  141.1660 C   0  0  1  0  0  3  0  0  0  0  0  0
  188.5350  173.4350  139.3590 C   0  0  0  0  0  2  0  0  0  0  0  0
  190.5670  174.2840  141.8420 O   0  0  0  0  0  0  0  0  0  0  0  0
  184.8310  178.8600  143.9930 C   0  0  0  0  0  3  0  0  0  0  0  0
  185.9140  177.9760  143.9460 C   0  0  0  0  0  0  0  0  0  0  0  0
  189.4790  174.5720  142.3200 C   0  0  0  0  0  0  0  0  0  0  0  0
  189.9890  175.0490  147.6310 C   0  0  0  0  0  2  0  0  0  0  0  0
  191.1980  177.0030  148.2430 O   0  0  0  0  0  1  0  0  0  0  0  0
  191.3230  175.6270  148.0640 C   0  0  0  0  0  2  0  0  0  0  0  0
  1 19  1  0  0  0  0
  1  5  1  0  0  0  0
  2 13  1  0  0  0  0
  2 16  1  0  0  0  0
  3 17  1  0  0  0  0
  4  1  2  0  0  0  0
  5 11  1  0  0  0  0
  7 15  1  6  0  0  0
  7 27  1  0  0  0  0
  8  6  2  6  0  0  0
  8 11  1  0  0  0  0
  9 14  1  6  0  0  0
  9 22  1  0  0  0  0
  9  7  1  0  0  0  0
 10 21  1  6  0  0  0
 10 22  1  0  0  0  0
 10  3  1  0  0  0  0
 11 28  1  1  0  0  0
 12 27  1  6  0  0  0
 12  4  1  0  0  0  0
 12  8  1  0  0  0  0
 17 26  1  0  0  0  0
 18 13  2  0  0  0  0
 19  2  2  0  0  0  0
 20 17  2  0  0  0  0
 20  4  1  0  0  0  0
 22 20  1  1  0  0  0
 23 14  1  0  0  0  0
 23 15  1  0  0  0  0
 24 27  2  0  0  0  0
 25 18  1  0  0  0  0
 26 25  2  0  0  0  0
 26 19  1  0  0  0  0
 28 30  1  0  0  0  0
 30 29  1  0  0  0  0
M  END
>  <MODEL>
2

>  <REMARK>
 VINA RESULT:      -8.6      2.817      5.529
  Name = 
  2 active torsions:
  status: ('A' for Active; 'I' for Inactive)
    1  A    between atoms: C_11  and  C_28
    2  A    between atoms: C_28  and  C_30
                            x       y       z     vdW  Elec       q    Type
                         _______ _______ _______ _____ _____    ______ ____

>  <TORSDO>
F 2

$$$$
=
 OpenBabel11112416233D

 30 35  0  0  1  0  0  0  0  0999 V2000
  188.3070  176.2780  142.7200 C   0  0  0  0  0  0  0  0  0  0  0  0
  186.3380  177.8380  142.3530 C   0  0  0  0  0  0  0  0  0  0  0  0
  188.5310  177.4430  146.7540 N   0  0  0  0  0  2  0  0  0  0  0  0
  189.2660  175.7300  143.6320 C   0  0  0  0  0  0  0  0  0  0  0  0
  188.3970  175.9390  141.2550 C   0  0  0  0  0  2  0  0  0  0  0  0
  190.3460  172.5960  141.5560 O   0  0  0  0  0  0  0  0  0  0  0  0
  192.1030  175.8730  144.4370 C   0  0  1  0  0  3  0  0  0  0  0  0
  190.2850  174.1170  141.5500 S   0  0  1  0  0  0  0  0  0  0  0  0
  191.6040  176.2520  145.7710 N   0  0  2  0  0  0  0  0  0  0  0  0
  189.6030  176.6100  147.2800 C   0  0  2  0  0  3  0  0  0  0  0  0
  188.6240  174.4660  141.0000 C   0  0  2  0  0  3  0  0  0  0  0  0
  190.1570  174.5340  143.2990 C   0  0  1  0  0  3  0  0  0  0  0  0
  185.4580  178.7860  142.8830 C   0  0  0  0  0  3  0  0  0  0  0  0
  192.5150  175.5840  146.6940 C   0  0  0  0  0  2  0  0  0  0  0  0
  193.6140  175.7890  144.5570 C   0  0  0  0  0  2  0  0  0  0  0  0
  186.0950  177.4770  140.9260 C   0  0  0  0  0  1  0  0  0  0  0  0
  188.3780  177.1420  145.3810 C   0  0  0  0  0  0  0  0  0  0  0  0
  185.5460  179.1840  144.2120 C   0  0  0  0  0  3  0  0  0  0  0  0
  187.3570  177.2590  143.1760 C   0  0  0  0  0  0  0  0  0  0  0  0
  189.2770  176.2170  144.9490 C   0  0  0  0  0  0  0  0  0  0  0  0
  190.5770  177.4750  148.0700 C   0  0  0  0  0  1  0  0  0  0  0  0
  190.2130  175.8380  146.0650 C   0  0  1  0  0  3  0  0  0  0  0  0
  193.8780  175.5570  146.0300 C   0  0  0  0  0  2  0  0  0  0  0  0
  192.1180  173.5120  144.0980 O   0  0  0  0  0  0  0  0  0  0  0  0
  186.5170  178.6320  145.0370 C   0  0  0  0  0  3  0  0  0  0  0  0
  187.4130  177.6810  144.5390 C   0  0  0  0  0  0  0  0  0  0  0  0
  191.5200  174.5660  143.9310 C   0  0  0  0  0  0  0  0  0  0  0  0
  188.5120  174.1720  139.5160 C   0  0  0  0  0  2  0  0  0  0  0  0
  189.0300  172.0860  138.5000 O   0  0  0  0  0  1  0  0  0  0  0  0
  188.0850  172.7340  139.2930 C   0  0  0  0  0  2  0  0  0  0  0  0
  1 19  2  0  0  0  0
  1  4  1  0  0  0  0
  2 13  2  0  0  0  0
  2 19  1  0  0  0  0
  3 10  1  0  0  0  0
  4 20  2  0  0  0  0
  5  1  1  0  0  0  0
  7 15  1  1  0  0  0
  7  9  1  0  0  0  0
  8  6  2  1  0  0  0
  8 12  1  0  0  0  0
  9 22  1  0  0  0  0
  9 14  1  1  0  0  0
 10 21  1  6  0  0  0
 11 28  1  6  0  0  0
 11  5  1  0  0  0  0
 11  8  1  0  0  0  0
 12  4  1  6  0  0  0
 12 27  1  0  0  0  0
 13 18  1  0  0  0  0
 15 23  1  0  0  0  0
 16  2  1  0  0  0  0
 17  3  1  0  0  0  0
 18 25  2  0  0  0  0
 19 26  1  0  0  0  0
 20 17  1  0  0  0  0
 22 20  1  6  0  0  0
 22 10  1  0  0  0  0
 23 14  1  0  0  0  0
 26 25  1  0  0  0  0
 26 17  2  0  0  0  0
 27 24  2  0  0  0  0
 27  7  1  0  0  0  0
 29 30  1  0  0  0  0
 30 28  1  0  0  0  0
M  END
>  <MODEL>
3

>  <REMARK>
 VINA RESULT:      -8.0      2.384      3.379
  Name = 
  2 active torsions:
  status: ('A' for Active; 'I' for Inactive)
    1  A    between atoms: C_11  and  C_28
    2  A    between atoms: C_28  and  C_30
                            x       y       z     vdW  Elec       q    Type
                         _______ _______ _______ _____ _____    ______ ____

>  <TORSDO>
F 2

$$$$
=
 OpenBabel11112416233D

 30 35  0  0  1  0  0  0  0  0999 V2000
  189.5010  175.3330  143.2330 C   0  0  0  0  0  0  0  0  0  0  0  0
  187.4000  176.4270  144.1490 C   0  0  0  0  0  0  0  0  0  0  0  0
  191.6530  176.5100  146.6480 N   0  0  0  0  0  2  0  0  0  0  0  0
  190.8800  175.0050  143.4290 C   0  0  0  0  0  0  0  0  0  0  0  0
  188.8440  175.0240  141.9120 C   0  0  0  0  0  2  0  0  0  0  0  0
  191.2170  172.1860  140.7380 O   0  0  0  0  0  0  0  0  0  0  0  0
  193.6200  175.7610  142.6280 C   0  0  1  0  0  3  0  0  0  0  0  0
  190.8870  173.6570  140.9480 S   0  0  1  0  0  0  0  0  0  0  0  0
  193.8620  176.0190  144.0580 N   0  0  2  0  0  0  0  0  0  0  0  0
  192.9700  175.9290  146.4260 C   0  0  2  0  0  3  0  0  0  0  0  0
  189.1610  173.6380  141.4020 C   0  0  2  0  0  3  0  0  0  0  0  0
  191.6500  174.0320  142.5370 C   0  0  1  0  0  3  0  0  0  0  0  0
  186.7920  177.1590  145.1720 C   0  0  0  0  0  3  0  0  0  0  0  0
  195.2310  175.5630  144.2740 C   0  0  0  0  0  2  0  0  0  0  0  0
  194.9420  176.0080  141.9220 C   0  0  0  0  0  2  0  0  0  0  0  0
  186.4960  176.0250  143.0330 C   0  0  0  0  0  1  0  0  0  0  0  0
  190.8400  176.1860  145.5370 C   0  0  0  0  0  0  0  0  0  0  0  0
  187.5100  177.5640  146.2920 C   0  0  0  0  0  3  0  0  0  0  0  0
  188.7880  176.0820  144.2350 C   0  0  0  0  0  0  0  0  0  0  0  0
  191.5130  175.4790  144.5900 C   0  0  0  0  0  0  0  0  0  0  0  0
  194.0390  176.9840  146.6800 C   0  0  0  0  0  1  0  0  0  0  0  0
  192.9540  175.3120  144.9890 C   0  0  1  0  0  3  0  0  0  0  0  0
  195.9970  175.8360  142.9940 C   0  0  0  0  0  2  0  0  0  0  0  0
  193.8790  173.4610  142.0520 O   0  0  0  0  0  0  0  0  0  0  0  0
  188.8540  177.2350  146.4070 C   0  0  0  0  0  3  0  0  0  0  0  0
  189.4940  176.5030  145.4020 C   0  0  0  0  0  0  0  0  0  0  0  0
  193.1060  174.3590  142.3530 C   0  0  0  0  0  0  0  0  0  0  0  0
  188.3210  173.3300  140.1770 C   0  0  0  0  0  2  0  0  0  0  0  0
  187.8770  174.5530  138.1870 O   0  0  0  0  0  1  0  0  0  0  0  0
  188.9050  174.0060  138.9520 C   0  0  0  0  0  2  0  0  0  0  0  0
  1  4  2  0  0  0  0
  1 19  1  0  0  0  0
  2 19  2  0  0  0  0
  2 13  1  0  0  0  0
  4 20  1  0  0  0  0
  5  1  1  0  0  0  0
  7 15  1  6  0  0  0
  7  9  1  0  0  0  0
  8  6  2  1  0  0  0
  8 11  1  0  0  0  0
  8 12  1  0  0  0  0
  9 14  1  1  0  0  0
  9 22  1  0  0  0  0
 10  3  1  0  0  0  0
 10 21  1  6  0  0  0
 11 28  1  6  0  0  0
 11  5  1  0  0  0  0
 12 27  1  6  0  0  0
 12  4  1  0  0  0  0
 13 18  2  0  0  0  0
 15 23  1  0  0  0  0
 16  2  1  0  0  0  0
 17  3  1  0  0  0  0
 18 25  1  0  0  0  0
 19 26  1  0  0  0  0
 20 17  2  0  0  0  0
 22 20  1  6  0  0  0
 22 10  1  0  0  0  0
 23 14  1  0  0  0  0
 24 27  2  0  0  0  0
 26 17  1  0  0  0  0
 26 25  2  0  0  0  0
 27  7  1  0  0  0  0
 29 30  1  0  0  0  0
 30 28  1  0  0  0  0
M  END
>  <MODEL>
4

>  <REMARK>
 VINA RESULT:      -7.6      2.529      3.940
  Name = 
  2 active torsions:
  status: ('A' for Active; 'I' for Inactive)
    1  A    between atoms: C_11  and  C_28
    2  A    between atoms: C_28  and  C_30
                            x       y       z     vdW  Elec       q    Type
                         _______ _______ _______ _____ _____    ______ ____

>  <TORSDO>
F 2

$$$$
=
 OpenBabel11112416233D

 30 35  0  0  1  0  0  0  0  0999 V2000
  189.1940  175.9520  145.3050 C   0  0  0  0  0  0  0  0  0  0  0  0
  187.0580  177.2100  145.8550 C   0  0  0  0  0  0  0  0  0  0  0  0
  187.8160  175.2380  141.3980 N   0  0  0  0  0  2  0  0  0  0  0  0
  189.9690  175.2490  144.3280 C   0  0  0  0  0  0  0  0  0  0  0  0
  189.6810  176.0220  146.7300 C   0  0  0  0  0  2  0  0  0  0  0  0
  193.4630  175.4460  146.0760 O   0  0  0  0  0  0  0  0  0  0  0  0
  190.8120  172.5470  143.4890 C   0  0  1  0  0  3  0  0  0  0  0  0
  192.0350  174.9390  146.2270 S   0  0  1  0  0  0  0  0  0  0  0  0
  190.1500  172.8450  142.2060 N   0  0  2  0  0  0  0  0  0  0  0  0
  188.9330  174.5410  140.7740 C   0  0  2  0  0  3  0  0  0  0  0  0
  191.1490  176.3620  146.8380 C   0  0  2  0  0  3  0  0  0  0  0  0
  191.4360  174.8710  144.5290 C   0  0  1  0  0  3  0  0  0  0  0  0
  185.8050  177.6650  145.4340 C   0  0  0  0  0  3  0  0  0  0  0  0
  191.0170  172.2290  141.2070 C   0  0  0  0  0  2  0  0  0  0  0  0
  191.4390  171.1720  143.3330 C   0  0  0  0  0  2  0  0  0  0  0  0
  187.4370  177.5950  147.2450 C   0  0  0  0  0  1  0  0  0  0  0  0
  188.1690  175.5170  142.7380 C   0  0  0  0  0  0  0  0  0  0  0  0
  185.3430  177.4110  144.1470 C   0  0  0  0  0  3  0  0  0  0  0  0
  187.8920  176.4630  144.9620 C   0  0  0  0  0  0  0  0  0  0  0  0
  189.3980  175.0340  143.0630 C   0  0  0  0  0  0  0  0  0  0  0  0
  188.4200  173.3020  140.0530 C   0  0  0  0  0  1  0  0  0  0  0  0
  189.9880  174.2840  141.9000 C   0  0  1  0  0  3  0  0  0  0  0  0
  191.6110  170.9860  141.8410 C   0  0  0  0  0  2  0  0  0  0  0  0
  193.0310  173.4140  143.6010 O   0  0  0  0  0  0  0  0  0  0  0  0
  186.1350  176.6990  143.2560 C   0  0  0  0  0  3  0  0  0  0  0  0
  187.3940  176.2290  143.6450 C   0  0  0  0  0  0  0  0  0  0  0  0
  191.8520  173.5820  143.8780 C   0  0  0  0  0  0  0  0  0  0  0  0
  191.5210  176.6020  148.2900 C   0  0  0  0  0  2  0  0  0  0  0  0
  191.5660  178.2910  149.9630 O   0  0  0  0  0  1  0  0  0  0  0  0
  190.9490  177.9230  148.7690 C   0  0  0  0  0  2  0  0  0  0  0  0
  1  5  1  0  0  0  0
  2 16  1  0  0  0  0
  3 17  1  0  0  0  0
  4 12  1  0  0  0  0
  4  1  2  0  0  0  0
  5 11  1  0  0  0  0
  7 15  1  6  0  0  0
  7 27  1  0  0  0  0
  8  6  2  6  0  0  0
  8 11  1  0  0  0  0
  9 14  1  6  0  0  0
  9  7  1  0  0  0  0
 10 21  1  1  0  0  0
 10  3  1  0  0  0  0
 10 22  1  0  0  0  0
 11 28  1  1  0  0  0
 12 27  1  1  0  0  0
 12  8  1  0  0  0  0
 13  2  1  0  0  0  0
 14 23  1  0  0  0  0
 17 20  2  0  0  0  0
 17 26  1  0  0  0  0
 18 13  2  0  0  0  0
 19  1  1  0  0  0  0
 19  2  2  0  0  0  0
 20  4  1  0  0  0  0
 22  9  1  0  0  0  0
 22 20  1  1  0  0  0
 23 15  1  0  0  0  0
 24 27  2  0  0  0  0
 25 26  2  0  0  0  0
 25 18  1  0  0  0  0
 26 19  1  0  0  0  0
 28 30  1  0  0  0  0
 30 29  1  0  0  0  0
M  END
>  <MODEL>
5

>  <REMARK>
 VINA RESULT:      -7.6      3.461      5.802
  Name = 
  2 active torsions:
  status: ('A' for Active; 'I' for Inactive)
    1  A    between atoms: C_11  and  C_28
    2  A    between atoms: C_28  and  C_30
                            x       y       z     vdW  Elec       q    Type
                         _______ _______ _______ _____ _____    ______ ____

>  <TORSDO>
F 2

$$$$
=
 OpenBabel11112416233D

 30 35  0  0  1  0  0  0  0  0999 V2000
  187.1180  176.3590  142.0070 C   0  0  0  0  0  0  0  0  0  0  0  0
  185.3000  177.5410  140.6840 C   0  0  0  0  0  0  0  0  0  0  0  0
  185.4510  177.7420  145.6100 N   0  0  0  0  0  2  0  0  0  0  0  0
  187.6630  176.0290  143.2880 C   0  0  0  0  0  0  0  0  0  0  0  0
  187.8650  175.9690  140.7580 C   0  0  0  0  0  2  0  0  0  0  0  0
  189.9320  173.0260  142.2200 O   0  0  0  0  0  0  0  0  0  0  0  0
  189.8430  176.6930  145.1660 C   0  0  1  0  0  3  0  0  0  0  0  0
  189.6750  174.5130  142.0130 S   0  0  1  0  0  0  0  0  0  0  0  0
  188.7790  177.0460  146.1230 N   0  0  2  0  0  0  0  0  0  0  0  0
  186.2990  177.1310  146.6240 C   0  0  2  0  0  3  0  0  0  0  0  0
  188.3740  174.5470  140.7920 C   0  0  2  0  0  3  0  0  0  0  0  0
  188.7620  174.9870  143.4930 C   0  0  1  0  0  3  0  0  0  0  0  0
  184.1610  178.3500  140.6920 C   0  0  0  0  0  3  0  0  0  0  0  0
  189.2930  176.5890  147.4100 C   0  0  0  0  0  2  0  0  0  0  0  0
  191.1560  176.8730  145.9060 C   0  0  0  0  0  2  0  0  0  0  0  0
  185.7380  177.0740  139.3360 C   0  0  0  0  0  1  0  0  0  0  0  0
  185.9370  177.3520  144.3410 C   0  0  0  0  0  0  0  0  0  0  0  0
  183.6220  178.8220  141.8830 C   0  0  0  0  0  3  0  0  0  0  0  0
  185.9410  177.1850  141.9150 C   0  0  0  0  0  0  0  0  0  0  0  0
  187.0480  176.5740  144.4280 C   0  0  0  0  0  0  0  0  0  0  0  0
  186.7200  178.1870  147.6380 C   0  0  0  0  0  1  0  0  0  0  0  0
  187.4640  176.4160  145.8650 C   0  0  1  0  0  3  0  0  0  0  0  0
  190.7990  176.7620  147.3730 C   0  0  0  0  0  2  0  0  0  0  0  0
  190.3170  174.3550  145.1400 O   0  0  0  0  0  0  0  0  0  0  0  0
  184.2160  178.4840  143.0920 C   0  0  0  0  0  3  0  0  0  0  0  0
  185.3570  177.6760  143.1200 C   0  0  0  0  0  0  0  0  0  0  0  0
  189.7100  175.2820  144.6210 C   0  0  0  0  0  0  0  0  0  0  0  0
  188.9430  174.1660  139.4380 C   0  0  0  0  0  2  0  0  0  0  0  0
  189.5060  171.9320  138.8490 O   0  0  0  0  0  1  0  0  0  0  0  0
  188.4310  172.8020  139.0140 C   0  0  0  0  0  2  0  0  0  0  0  0
  1  4  1  0  0  0  0
  2 13  2  0  0  0  0
  2 19  1  0  0  0  0
  3 10  1  0  0  0  0
  4 20  2  0  0  0  0
  5 11  1  0  0  0  0
  5  1  1  0  0  0  0
  7 15  1  1  0  0  0
  7  9  1  0  0  0  0
  8  6  2  1  0  0  0
  8 12  1  0  0  0  0
  9 14  1  1  0  0  0
 10 21  1  1  0  0  0
 11 28  1  6  0  0  0
 11  8  1  0  0  0  0
 12  4  1  6  0  0  0
 12 27  1  0  0  0  0
 13 18  1  0  0  0  0
 15 23  1  0  0  0  0
 16  2  1  0  0  0  0
 17 20  1  0  0  0  0
 17  3  1  0  0  0  0
 18 25  2  0  0  0  0
 19  1  2  0  0  0  0
 19 26  1  0  0  0  0
 22 20  1  6  0  0  0
 22  9  1  0  0  0  0
 22 10  1  0  0  0  0
 23 14  1  0  0  0  0
 25 26  1  0  0  0  0
 26 17  2  0  0  0  0
 27 24  2  0  0  0  0
 27  7  1  0  0  0  0
 29 30  1  0  0  0  0
 30 28  1  0  0  0  0
M  END
>  <MODEL>
6

>  <REMARK>
 VINA RESULT:      -7.4      2.386      4.188
  Name = 
  2 active torsions:
  status: ('A' for Active; 'I' for Inactive)
    1  A    between atoms: C_11  and  C_28
    2  A    between atoms: C_28  and  C_30
                            x       y       z     vdW  Elec       q    Type
                         _______ _______ _______ _____ _____    ______ ____

>  <TORSDO>
F 2

$$$$
=
 OpenBabel11112416233D

 30 35  0  0  1  0  0  0  0  0999 V2000
  190.2160  175.3130  143.9750 C   0  0  0  0  0  0  0  0  0  0  0  0
  188.5210  177.0600  144.7000 C   0  0  0  0  0  0  0  0  0  0  0  0
  188.2200  174.8420  140.3040 N   0  0  0  0  0  2  0  0  0  0  0  0
  190.6720  174.4180  142.9550 C   0  0  0  0  0  0  0  0  0  0  0  0
  190.8830  175.3030  145.3260 C   0  0  0  0  0  2  0  0  0  0  0  0
  194.3090  173.8200  144.2650 O   0  0  0  0  0  0  0  0  0  0  0  0
  190.7440  171.5700  142.1780 C   0  0  1  0  0  3  0  0  0  0  0  0
  192.8340  173.6740  144.6120 S   0  0  1  0  0  0  0  0  0  0  0  0
  190.0120  171.9830  140.9670 N   0  0  2  0  0  0  0  0  0  0  0  0
  189.0540  173.8810  139.5940 C   0  0  2  0  0  3  0  0  0  0  0  0
  192.3920  175.2840  145.2410 C   0  0  2  0  0  3  0  0  0  0  0  0
  192.0230  173.7060  143.0030 C   0  0  1  0  0  3  0  0  0  0  0  0
  187.3670  177.7900  144.4040 C   0  0  0  0  0  3  0  0  0  0  0  0
  190.5760  171.1500  139.9100 C   0  0  0  0  0  2  0  0  0  0  0  0
  191.0060  170.0820  142.0290 C   0  0  0  0  0  2  0  0  0  0  0  0
  189.1550  177.3810  146.0120 C   0  0  0  0  0  1  0  0  0  0  0  0
  188.7970  175.0650  141.5750 C   0  0  0  0  0  0  0  0  0  0  0  0
  186.6980  177.6190  143.1970 C   0  0  0  0  0  3  0  0  0  0  0  0
  189.0360  176.1110  143.7590 C   0  0  0  0  0  0  0  0  0  0  0  0
  189.9100  174.3110  141.7800 C   0  0  0  0  0  0  0  0  0  0  0  0
  188.1760  172.7820  139.0110 C   0  0  0  0  0  1  0  0  0  0  0  0
  190.1540  173.4100  140.6000 C   0  0  1  0  0  3  0  0  0  0  0  0
  190.9370  169.8190  140.5390 C   0  0  0  0  0  2  0  0  0  0  0  0
  193.1000  171.8840  141.9780 O   0  0  0  0  0  0  0  0  0  0  0  0
  187.1800  176.7140  142.2610 C   0  0  0  0  0  3  0  0  0  0  0  0
  188.3320  175.9670  142.5250 C   0  0  0  0  0  0  0  0  0  0  0  0
  192.0390  172.3370  142.3820 C   0  0  0  0  0  0  0  0  0  0  0  0
  192.9920  175.4680  146.6230 C   0  0  0  0  0  2  0  0  0  0  0  0
  194.0570  177.1770  145.3580 O   0  0  0  0  0  1  0  0  0  0  0  0
  194.0790  176.5250  146.5900 C   0  0  0  0  0  2  0  0  0  0  0  0
  1  5  1  0  0  0  0
  2 16  1  0  0  0  0
  3 17  1  0  0  0  0
  4 12  1  0  0  0  0
  4  1  2  0  0  0  0
  7 15  1  6  0  0  0
  7 27  1  0  0  0  0
  8  6  2  6  0  0  0
  8 11  1  0  0  0  0
  9 14  1  6  0  0  0
  9  7  1  0  0  0  0
 10 21  1  1  0  0  0
 10  3  1  0  0  0  0
 10 22  1  0  0  0  0
 11  5  1  0  0  0  0
 11 28  1  1  0  0  0
 12 27  1  1  0  0  0
 12  8  1  0  0  0  0
 13  2  1  0  0  0  0
 14 23  1  0  0  0  0
 17 20  2  0  0  0  0
 17 26  1  0  0  0  0
 18 13  2  0  0  0  0
 19  1  1  0  0  0  0
 19  2  2  0  0  0  0
 20  4  1  0  0  0  0
 22  9  1  0  0  0  0
 22 20  1  1  0  0  0
 23 15  1  0  0  0  0
 24 27  2  0  0  0  0
 25 26  2  0  0  0  0
 25 18  1  0  0  0  0
 26 19  1  0  0  0  0
 29 30  1  0  0  0  0
 30 28  1  0  0  0  0
M  END
>  <MODEL>
7

>  <REMARK>
 VINA RESULT:      -7.3      3.887      6.525
  Name = 
  2 active torsions:
  status: ('A' for Active; 'I' for Inactive)
    1  A    between atoms: C_11  and  C_28
    2  A    between atoms: C_28  and  C_30
                            x       y       z     vdW  Elec       q    Type
                         _______ _______ _______ _____ _____    ______ ____

>  <TORSDO>
F 2

$$$$
=
 OpenBabel11112416233D

 30 35  0  0  1  0  0  0  0  0999 V2000
  190.4700  173.5490  143.2490 C   0  0  0  0  0  0  0  0  0  0  0  0
  192.0590  171.5690  143.1790 C   0  0  0  0  0  0  0  0  0  0  0  0
  192.5650  175.1660  146.5170 N   0  0  0  0  0  2  0  0  0  0  0  0
  190.1120  174.7930  143.8580 C   0  0  0  0  0  0  0  0  0  0  0  0
  189.5740  172.9510  142.1950 C   0  0  0  0  0  2  0  0  0  0  0  0
  187.8080  176.2050  141.0300 O   0  0  0  0  0  0  0  0  0  0  0  0
  188.1850  176.0400  145.7160 C   0  0  1  0  0  3  0  0  0  0  0  0
  187.9920  175.0570  142.0120 S   0  0  1  0  0  0  0  0  0  0  0  0
  189.3570  176.4040  146.5330 N   0  0  2  0  0  0  0  0  0  0  0  0
  191.8780  176.4270  146.7600 C   0  0  2  0  0  3  0  0  0  0  0  0
  189.1160  173.9590  141.1670 C   0  0  2  0  0  3  0  0  0  0  0  0
  189.0810  175.7540  143.2680 C   0  0  1  0  0  3  0  0  0  0  0  0
  193.1660  170.9140  143.7260 C   0  0  0  0  0  3  0  0  0  0  0  0
  189.0330  177.7300  147.0470 C   0  0  0  0  0  2  0  0  0  0  0  0
  186.9780  176.6390  146.4160 C   0  0  0  0  0  2  0  0  0  0  0  0
  191.4590  170.9090  141.9830 C   0  0  0  0  0  1  0  0  0  0  0  0
  191.9250  174.5210  145.4330 C   0  0  0  0  0  0  0  0  0  0  0  0
  193.8460  171.4410  144.8190 C   0  0  0  0  0  3  0  0  0  0  0  0
  191.6000  172.8030  143.7430 C   0  0  0  0  0  0  0  0  0  0  0  0
  190.8570  175.2240  144.9680 C   0  0  0  0  0  0  0  0  0  0  0  0
  191.5660  176.5570  148.2450 C   0  0  0  0  0  1  0  0  0  0  0  0
  190.6420  176.4590  145.8010 C   0  0  1  0  0  3  0  0  0  0  0  0
  187.5310  177.7720  147.2530 C   0  0  0  0  0  2  0  0  0  0  0  0
  187.7790  177.5900  143.9490 O   0  0  0  0  0  0  0  0  0  0  0  0
  193.4290  172.6410  145.3790 C   0  0  0  0  0  3  0  0  0  0  0  0
  192.3260  173.3220  144.8560 C   0  0  0  0  0  0  0  0  0  0  0  0
  188.2840  176.5270  144.2810 C   0  0  0  0  0  0  0  0  0  0  0  0
  188.3820  173.2550  140.0410 C   0  0  0  0  0  2  0  0  0  0  0  0
  187.8170  174.5400  138.1220 O   0  0  0  0  0  1  0  0  0  0  0  0
  188.8400  173.7880  138.6970 C   0  0  0  0  0  2  0  0  0  0  0  0
  1 19  2  0  0  0  0
  1  4  1  0  0  0  0
  2 13  2  0  0  0  0
  2 19  1  0  0  0  0
  3 10  1  0  0  0  0
  4 20  2  0  0  0  0
  5  1  1  0  0  0  0
  7 15  1  1  0  0  0
  7  9  1  0  0  0  0
  8  6  2  6  0  0  0
  8 12  1  0  0  0  0
  9 14  1  6  0  0  0
 10 21  1  1  0  0  0
 11 28  1  6  0  0  0
 11  8  1  0  0  0  0
 11  5  1  0  0  0  0
 12  4  1  1  0  0  0
 12 27  1  0  0  0  0
 13 18  1  0  0  0  0
 14 23  1  0  0  0  0
 15 23  1  0  0  0  0
 16  2  1  0  0  0  0
 17  3  1  0  0  0  0
 18 25  2  0  0  0  0
 19 26  1  0  0  0  0
 20 17  1  0  0  0  0
 22 20  1  6  0  0  0
 22  9  1  0  0  0  0
 22 10  1  0  0  0  0
 24 27  2  0  0  0  0
 26 25  1  0  0  0  0
 26 17  2  0  0  0  0
 27  7  1  0  0  0  0
 29 30  1  0  0  0  0
 30 28  1  0  0  0  0
M  END
>  <MODEL>
8

>  <REMARK>
 VINA RESULT:      -7.2      2.668      6.128
  Name = 
  2 active torsions:
  status: ('A' for Active; 'I' for Inactive)
    1  A    between atoms: C_11  and  C_28
    2  A    between atoms: C_28  and  C_30
                            x       y       z     vdW  Elec       q    Type
                         _______ _______ _______ _____ _____    ______ ____

>  <TORSDO>
F 2

$$$$
=
 OpenBabel11112416233D

 30 35  0  0  1  0  0  0  0  0999 V2000
  187.0000  176.8610  144.0310 C   0  0  0  0  0  0  0  0  0  0  0  0
  185.0850  178.0630  142.8760 C   0  0  0  0  0  0  0  0  0  0  0  0
  188.4050  175.4520  140.3270 N   0  0  0  0  0  2  0  0  0  0  0  0
  188.1780  176.0570  143.9050 C   0  0  0  0  0  0  0  0  0  0  0  0
  186.4640  177.1860  145.4020 C   0  0  0  0  0  2  0  0  0  0  0  0
  189.7470  176.7350  147.4240 O   0  0  0  0  0  0  0  0  0  0  0  0
  189.2040  173.3100  144.2460 C   0  0  1  0  0  3  0  0  0  0  0  0
  188.5270  176.1760  146.7050 S   0  0  1  0  0  0  0  0  0  0  0  0
  189.5350  173.3600  142.8110 N   0  0  2  0  0  0  0  0  0  0  0  0
  189.6190  174.7320  140.6850 C   0  0  2  0  0  3  0  0  0  0  0  0
  187.5390  177.6240  146.3700 C   0  0  2  0  0  3  0  0  0  0  0  0
  189.1510  175.8030  145.0560 C   0  0  1  0  0  3  0  0  0  0  0  0
  184.4210  178.3700  141.6850 C   0  0  0  0  0  3  0  0  0  0  0  0
  190.8030  172.6450  142.7140 C   0  0  0  0  0  2  0  0  0  0  0  0
  189.7040  171.9670  144.7500 C   0  0  0  0  0  2  0  0  0  0  0  0
  184.5070  178.6860  144.1020 C   0  0  0  0  0  1  0  0  0  0  0  0
  187.8330  175.9620  141.5150 C   0  0  0  0  0  0  0  0  0  0  0  0
  184.8760  177.8880  140.4630 C   0  0  0  0  0  3  0  0  0  0  0  0
  186.2520  177.2330  142.8580 C   0  0  0  0  0  0  0  0  0  0  0  0
  188.5380  175.6100  142.6240 C   0  0  0  0  0  0  0  0  0  0  0  0
  189.6150  173.3660  140.0130 C   0  0  0  0  0  1  0  0  0  0  0  0
  189.6920  174.7200  142.2470 C   0  0  1  0  0  3  0  0  0  0  0  0
  190.7800  171.5550  143.7690 C   0  0  0  0  0  2  0  0  0  0  0  0
  190.8820  174.3130  145.6130 O   0  0  0  0  0  0  0  0  0  0  0  0
  186.0120  177.0900  140.4140 C   0  0  0  0  0  3  0  0  0  0  0  0
  186.6990  176.7630  141.5870 C   0  0  0  0  0  0  0  0  0  0  0  0
  189.8120  174.4530  145.0390 C   0  0  0  0  0  0  0  0  0  0  0  0
  186.9090  178.1140  147.6600 C   0  0  0  0  0  2  0  0  0  0  0  0
  184.5780  178.5820  147.6850 O   0  0  0  0  0  1  0  0  0  0  0  0
  185.8190  179.1270  147.3630 C   0  0  0  0  0  2  0  0  0  0  0  0
  1  5  1  0  0  0  0
  2 16  1  0  0  0  0
  3 10  1  0  0  0  0
  3 17  1  0  0  0  0
  4  1  1  0  0  0  0
  5 11  1  0  0  0  0
  7 15  1  1  0  0  0
  7 27  1  0  0  0  0
  8  6  2  1  0  0  0
  9 14  1  1  0  0  0
  9  7  1  0  0  0  0
 10 21  1  1  0  0  0
 10 22  1  0  0  0  0
 11  8  1  0  0  0  0
 11 28  1  1  0  0  0
 12  4  1  6  0  0  0
 12  8  1  0  0  0  0
 13  2  2  0  0  0  0
 14 23  1  0  0  0  0
 17 26  2  0  0  0  0
 17 20  1  0  0  0  0
 18 13  1  0  0  0  0
 19  2  1  0  0  0  0
 19  1  2  0  0  0  0
 20  4  2  0  0  0  0
 22 20  1  1  0  0  0
 22  9  1  0  0  0  0
 23 15  1  0  0  0  0
 25 18  2  0  0  0  0
 25 26  1  0  0  0  0
 26 19  1  0  0  0  0
 27 12  1  0  0  0  0
 27 24  2  0  0  0  0
 30 28  1  0  0  0  0
 30 29  1  0  0  0  0
M  END
>  <MODEL>
9

>  <REMARK>
 VINA RESULT:      -7.1      2.923      5.050
  Name = 
  2 active torsions:
  status: ('A' for Active; 'I' for Inactive)
    1  A    between atoms: C_11  and  C_28
    2  A    between atoms: C_28  and  C_30
                            x       y       z     vdW  Elec       q    Type
                         _______ _______ _______ _____ _____    ______ ____

>  <TORSDO>
F 2

$$$$
