=
 OpenBabel11112417343D

 37 43  0  0  1  0  0  0  0  0999 V2000
  190.3750  174.2020  141.3690 C   0  0  1  0  0  3  0  0  0  0  0  0
  189.6130  177.3550  142.2810 O   0  0  0  0  0  0  0  0  0  0  0  0
  192.4480  172.6090  141.0790 C   0  0  2  0  0  3  0  0  0  0  0  0
  190.3020  175.0830  142.5720 C   0  0  2  0  0  3  0  0  0  0  0  0
  191.8970  174.0330  141.2810 C   0  0  2  0  0  3  0  0  0  0  0  0
  189.1360  176.0730  142.6020 C   0  0  2  0  0  3  0  0  0  0  0  0
  191.4940  171.5220  141.5400 C   0  0  0  0  0  2  0  0  0  0  0  0
  192.4770  174.7190  142.3670 O   0  0  0  0  0  0  0  0  0  0  0  0
  188.2410  173.2210  141.1600 C   0  0  0  0  0  2  0  0  0  0  0  0
  190.1180  171.8300  140.9870 C   0  0  0  0  0  2  0  0  0  0  0  0
  189.8430  177.4770  144.8250 C   0  0  0  0  0  2  0  0  0  0  0  0
  189.9160  178.1240  143.4450 C   0  0  1  0  0  3  0  0  0  0  0  0
  189.5900  172.9990  141.6780 N   0  0  1  0  0  0  0  0  0  0  0  0
  191.6000  175.7330  142.6270 N   0  0  2  0  0  0  0  0  0  0  0  0
  187.9290  175.6730  141.7330 C   0  0  1  0  0  3  0  0  0  0  0  0
  191.2030  177.6610  144.1730 C   0  0  2  0  0  3  0  0  0  0  0  0
  191.7860  176.2420  143.9890 C   0  0  2  0  0  3  0  0  0  0  0  0
  187.4680  174.2350  142.0100 C   0  0  0  0  0  2  0  0  0  0  0  0
  186.2830  177.3180  140.8220 C   0  0  0  0  0  3  0  0  0  0  0  0
  186.7910  176.6260  141.9270 C   0  0  0  0  0  0  0  0  0  0  0  0
  186.2340  176.8430  143.1980 C   0  0  0  0  0  3  0  0  0  0  0  0
  184.6150  177.9620  144.6440 N   0  0  0  0  0  1  0  0  0  0  0  0
  184.6730  178.4320  142.2480 C   0  0  0  0  0  3  0  0  0  0  0  0
  185.1770  177.7440  143.3550 C   0  0  0  0  0  0  0  0  0  0  0  0
  185.2260  178.2190  140.9810 C   0  0  0  0  0  3  0  0  0  0  0  0
  193.2620  176.2870  144.3800 C   0  0  0  0  0  2  0  0  0  0  0  0
  193.4540  175.8110  145.8130 C   0  0  0  0  0  0  0  0  0  0  0  0
  194.8890  175.6070  146.2320 C   0  0  0  0  0  2  0  0  0  0  0  0
  194.1040  176.8100  146.7400 C   0  0  0  0  0  2  0  0  0  0  0  0
  192.4390  174.8880  146.4800 C   0  0  0  0  0  2  0  0  0  0  0  0
  191.6690  175.6020  147.5810 C   0  0  0  0  0  2  0  0  0  0  0  0
  190.3400  175.1820  147.5880 O   0  0  0  0  0  1  0  0  0  0  0  0
  193.6990  172.4500  141.7010 O   0  0  0  0  0  0  0  0  0  0  0  0
  194.6950  172.4930  140.7050 C   0  0  0  0  0  0  0  0  0  0  0  0
  194.1990  172.0470  139.4900 F   0  0  0  0  0  0  0  0  0  0  0  0
  195.1960  173.7780  140.5650 F   0  0  0  0  0  0  0  0  0  0  0  0
  195.7310  171.6620  141.0850 F   0  0  0  0  0  0  0  0  0  0  0  0
  1 13  1  0  0  0  0
  1  4  1  0  0  0  0
  2  6  1  0  0  0  0
  2 12  1  0  0  0  0
  3  5  1  0  0  0  0
  3  7  1  0  0  0  0
  3 33  1  0  0  0  0
  4  6  1  0  0  0  0
  4 14  1  0  0  0  0
  5  1  1  0  0  0  0
  5  8  1  0  0  0  0
  8 14  1  0  0  0  0
  9 13  1  0  0  0  0
  9 18  1  0  0  0  0
 10  7  1  0  0  0  0
 10 13  1  0  0  0  0
 12 16  1  0  0  0  0
 12 11  1  0  0  0  0
 14 17  1  0  0  0  0
 15 20  1  0  0  0  0
 15 18  1  0  0  0  0
 15  6  1  0  0  0  0
 16 11  1  0  0  0  0
 17 16  1  0  0  0  0
 17 26  1  0  0  0  0
 19 25  2  0  0  0  0
 19 20  1  0  0  0  0
 20 21  2  0  0  0  0
 21 24  1  0  0  0  0
 23 24  2  0  0  0  0
 24 22  1  0  0  0  0
 25 23  1  0  0  0  0
 26 27  1  0  0  0  0
 27 28  1  0  0  0  0
 27 30  1  0  0  0  0
 27 29  1  0  0  0  0
 28 29  1  0  0  0  0
 30 31  1  0  0  0  0
 31 32  1  0  0  0  0
 34 37  1  0  0  0  0
 34 33  1  0  0  0  0
 35 34  1  0  0  0  0
 36 34  1  0  0  0  0
M  END
>  <MODEL>
1

>  <REMARK>
 VINA RESULT:      -7.3      0.000      0.000
  Name = 
  7 active torsions:
  status: ('A' for Active; 'I' for Inactive)
    1  A    between atoms: C_1  and  C_4
    2  A    between atoms: C_1  and  C_27
    3  A    between atoms: C_2  and  O_22
    4  A    between atoms: C_4  and  C_12
    5  A    between atoms: C_6  and  O_22
    6  A    between atoms: C_8  and  C_12
    7  A    between atoms: C_23  and  C_30
                            x       y       z     vdW  Elec       q    Type
                         _______ _______ _______ _____ _____    ______ ____

>  <TORSDO>
F 7

$$$$
=
 OpenBabel11112417343D

 37 43  0  0  1  0  0  0  0  0999 V2000
  190.5100  176.7760  144.9640 C   0  0  1  0  0  3  0  0  0  0  0  0
  192.8060  175.7820  142.7060 O   0  0  0  0  0  0  0  0  0  0  0  0
  187.9970  177.5380  145.1150 C   0  0  2  0  0  3  0  0  0  0  0  0
  190.8630  175.6160  144.0920 C   0  0  2  0  0  3  0  0  0  0  0  0
  189.2350  177.2400  144.2480 C   0  0  2  0  0  3  0  0  0  0  0  0
  192.3580  175.3180  143.9540 C   0  0  2  0  0  3  0  0  0  0  0  0
  188.0120  176.8240  146.4540 C   0  0  0  0  0  2  0  0  0  0  0  0
  188.9840  176.3540  143.1820 O   0  0  0  0  0  0  0  0  0  0  0  0
  191.6370  176.4140  147.0030 C   0  0  0  0  0  2  0  0  0  0  0  0
  189.3760  177.0190  147.0830 C   0  0  0  0  0  2  0  0  0  0  0  0
  192.2180  173.3830  142.0450 C   0  0  0  0  0  2  0  0  0  0  0  0
  192.8060  174.7520  141.7170 C   0  0  1  0  0  3  0  0  0  0  0  0
  190.3520  176.2480  146.3260 N   0  0  1  0  0  0  0  0  0  0  0  0
  190.2230  175.9080  142.8220 N   0  0  2  0  0  0  0  0  0  0  0  0
  193.2290  175.8440  145.1120 C   0  0  1  0  0  3  0  0  0  0  0  0
  191.3860  174.3620  141.2340 C   0  0  2  0  0  3  0  0  0  0  0  0
  190.1230  174.6500  142.0740 C   0  0  2  0  0  3  0  0  0  0  0  0
  192.6840  175.4220  146.4840 C   0  0  0  0  0  2  0  0  0  0  0  0
  195.1220  174.3460  145.7580 C   0  0  0  0  0  3  0  0  0  0  0  0
  194.6480  175.3930  144.9590 C   0  0  0  0  0  0  0  0  0  0  0  0
  195.5100  176.0070  144.0360 C   0  0  0  0  0  3  0  0  0  0  0  0
  197.7050  176.1980  142.9820 N   0  0  0  0  0  1  0  0  0  0  0  0
  197.3020  174.5260  144.7180 C   0  0  0  0  0  3  0  0  0  0  0  0
  196.8330  175.5730  143.9180 C   0  0  0  0  0  0  0  0  0  0  0  0
  196.4450  173.9140  145.6380 C   0  0  0  0  0  3  0  0  0  0  0  0
  188.9210  174.6450  141.1320 C   0  0  0  0  0  2  0  0  0  0  0  0
  188.3850  173.2330  140.9500 C   0  0  0  0  0  0  0  0  0  0  0  0
  188.7520  172.2630  142.0470 C   0  0  0  0  0  2  0  0  0  0  0  0
  187.3340  172.8110  141.9490 C   0  0  0  0  0  2  0  0  0  0  0  0
  188.2270  172.6220  139.5610 C   0  0  0  0  0  2  0  0  0  0  0  0
  188.9460  173.4460  138.5010 C   0  0  0  0  0  2  0  0  0  0  0  0
  188.0250  174.1950  137.7700 O   0  0  0  0  0  1  0  0  0  0  0  0
  186.8070  177.2490  144.4240 O   0  0  0  0  0  0  0  0  0  0  0  0
  186.1690  178.4660  144.1160 C   0  0  0  0  0  0  0  0  0  0  0  0
  186.7190  179.0400  142.9810 F   0  0  0  0  0  0  0  0  0  0  0  0
  184.8070  178.2760  143.9330 F   0  0  0  0  0  0  0  0  0  0  0  0
  186.3470  179.3360  145.1740 F   0  0  0  0  0  0  0  0  0  0  0  0
  1 13  1  0  0  0  0
  2  6  1  0  0  0  0
  3  7  1  0  0  0  0
  4  1  1  0  0  0  0
  5  1  1  0  0  0  0
  5  3  1  0  0  0  0
  6  4  1  0  0  0  0
  6 15  1  0  0  0  0
  7 10  1  0  0  0  0
  8  5  1  0  0  0  0
 12 11  1  0  0  0  0
 12  2  1  0  0  0  0
 13  9  1  0  0  0  0
 13 10  1  0  0  0  0
 14  8  1  0  0  0  0
 14  4  1  0  0  0  0
 15 18  1  0  0  0  0
 16 12  1  0  0  0  0
 16 11  1  0  0  0  0
 16 17  1  0  0  0  0
 17 14  1  0  0  0  0
 18  9  1  0  0  0  0
 20 15  1  0  0  0  0
 20 19  2  0  0  0  0
 21 20  1  0  0  0  0
 22 24  1  0  0  0  0
 23 25  2  0  0  0  0
 24 21  2  0  0  0  0
 24 23  1  0  0  0  0
 25 19  1  0  0  0  0
 26 17  1  0  0  0  0
 27 26  1  0  0  0  0
 27 29  1  0  0  0  0
 27 28  1  0  0  0  0
 29 28  1  0  0  0  0
 30 27  1  0  0  0  0
 31 30  1  0  0  0  0
 32 31  1  0  0  0  0
 33  3  1  0  0  0  0
 34 33  1  0  0  0  0
 34 37  1  0  0  0  0
 35 34  1  0  0  0  0
 36 34  1  0  0  0  0
M  END
>  <MODEL>
2

>  <REMARK>
 VINA RESULT:      -7.3      3.876      8.384
  Name = 
  7 active torsions:
  status: ('A' for Active; 'I' for Inactive)
    1  A    between atoms: C_1  and  C_4
    2  A    between atoms: C_1  and  C_27
    3  A    between atoms: C_2  and  O_22
    4  A    between atoms: C_4  and  C_12
    5  A    between atoms: C_6  and  O_22
    6  A    between atoms: C_8  and  C_12
    7  A    between atoms: C_23  and  C_30
                            x       y       z     vdW  Elec       q    Type
                         _______ _______ _______ _____ _____    ______ ____

>  <TORSDO>
F 7

$$$$
=
 OpenBabel11112417343D

 37 43  0  0  1  0  0  0  0  0999 V2000
  191.8630  175.3060  142.4120 C   0  0  1  0  0  3  0  0  0  0  0  0
  191.3730  176.9320  145.3230 O   0  0  0  0  0  0  0  0  0  0  0  0
  193.8060  174.4450  140.8610 C   0  0  2  0  0  3  0  0  0  0  0  0
  191.9790  175.1150  143.8890 C   0  0  2  0  0  3  0  0  0  0  0  0
  193.3540  175.3140  142.0500 C   0  0  2  0  0  3  0  0  0  0  0  0
  190.8750  175.7590  144.7310 C   0  0  2  0  0  3  0  0  0  0  0  0
  192.8610  173.2960  140.5600 C   0  0  0  0  0  2  0  0  0  0  0  0
  194.0930  175.0930  143.2290 O   0  0  0  0  0  0  0  0  0  0  0  0
  189.6740  174.6390  141.8470 C   0  0  0  0  0  2  0  0  0  0  0  0
  191.4460  173.8360  140.5410 C   0  0  0  0  0  2  0  0  0  0  0  0
  191.9110  175.2840  147.2030 C   0  0  0  0  0  2  0  0  0  0  0  0
  191.8500  176.7050  146.6490 C   0  0  1  0  0  3  0  0  0  0  0  0
  191.0630  174.1840  141.9020 N   0  0  1  0  0  0  0  0  0  0  0  0
  193.3040  175.6100  144.2170 N   0  0  2  0  0  0  0  0  0  0  0  0
  189.5540  176.0090  143.9780 C   0  0  1  0  0  3  0  0  0  0  0  0
  193.1910  175.9290  146.6970 C   0  0  2  0  0  3  0  0  0  0  0  0
  193.6770  175.0520  145.5210 C   0  0  2  0  0  3  0  0  0  0  0  0
  189.0590  174.7540  143.2450 C   0  0  0  0  0  2  0  0  0  0  0  0
  188.3250  175.8920  146.1500 C   0  0  0  0  0  3  0  0  0  0  0  0
  188.4960  176.5150  144.9090 C   0  0  0  0  0  0  0  0  0  0  0  0
  187.6720  177.5950  144.5540 C   0  0  0  0  0  3  0  0  0  0  0  0
  185.8520  179.1370  145.0750 N   0  0  0  0  0  1  0  0  0  0  0  0
  186.5190  177.4180  146.6770 C   0  0  0  0  0  3  0  0  0  0  0  0
  186.6860  178.0430  145.4380 C   0  0  0  0  0  0  0  0  0  0  0  0
  187.3390  176.3420  147.0330 C   0  0  0  0  0  3  0  0  0  0  0  0
  195.1890  174.8850  145.6550 C   0  0  0  0  0  2  0  0  0  0  0  0
  195.5820  173.4200  145.5290 C   0  0  0  0  0  0  0  0  0  0  0  0
  196.7990  173.1560  144.6760 C   0  0  0  0  0  2  0  0  0  0  0  0
  196.8850  173.0450  146.1930 C   0  0  0  0  0  2  0  0  0  0  0  0
  194.5270  172.3180  145.5240 C   0  0  0  0  0  2  0  0  0  0  0  0
  194.3530  171.7140  144.1380 C   0  0  0  0  0  2  0  0  0  0  0  0
  193.0140  171.7720  143.7530 O   0  0  0  0  0  1  0  0  0  0  0  0
  195.1130  173.9610  141.0470 O   0  0  0  0  0  0  0  0  0  0  0  0
  195.9920  174.7650  140.2950 C   0  0  0  0  0  0  0  0  0  0  0  0
  196.9730  173.9950  139.6920 F   0  0  0  0  0  0  0  0  0  0  0  0
  195.3000  175.4830  139.3300 F   0  0  0  0  0  0  0  0  0  0  0  0
  196.6050  175.6630  141.1470 F   0  0  0  0  0  0  0  0  0  0  0  0
  1  4  1  0  0  0  0
  2 12  1  0  0  0  0
  3 33  1  0  0  0  0
  3  5  1  0  0  0  0
  4 14  1  0  0  0  0
  4  6  1  0  0  0  0
  5  1  1  0  0  0  0
  5  8  1  0  0  0  0
  6  2  1  0  0  0  0
  7  3  1  0  0  0  0
  8 14  1  0  0  0  0
  9 13  1  0  0  0  0
  9 18  1  0  0  0  0
 10  7  1  0  0  0  0
 10 13  1  0  0  0  0
 12 16  1  0  0  0  0
 12 11  1  0  0  0  0
 13  1  1  0  0  0  0
 14 17  1  0  0  0  0
 15  6  1  0  0  0  0
 15 20  1  0  0  0  0
 16 11  1  0  0  0  0
 17 26  1  0  0  0  0
 17 16  1  0  0  0  0
 18 15  1  0  0  0  0
 19 25  1  0  0  0  0
 20 19  2  0  0  0  0
 21 20  1  0  0  0  0
 21 24  2  0  0  0  0
 22 24  1  0  0  0  0
 23 25  2  0  0  0  0
 24 23  1  0  0  0  0
 27 26  1  0  0  0  0
 27 29  1  0  0  0  0
 28 27  1  0  0  0  0
 28 29  1  0  0  0  0
 30 27  1  0  0  0  0
 31 30  1  0  0  0  0
 32 31  1  0  0  0  0
 34 33  1  0  0  0  0
 34 37  1  0  0  0  0
 35 34  1  0  0  0  0
 36 34  1  0  0  0  0
M  END
>  <MODEL>
3

>  <REMARK>
 VINA RESULT:      -7.2      2.260      3.436
  Name = 
  7 active torsions:
  status: ('A' for Active; 'I' for Inactive)
    1  A    between atoms: C_1  and  C_4
    2  A    between atoms: C_1  and  C_27
    3  A    between atoms: C_2  and  O_22
    4  A    between atoms: C_4  and  C_12
    5  A    between atoms: C_6  and  O_22
    6  A    between atoms: C_8  and  C_12
    7  A    between atoms: C_23  and  C_30
                            x       y       z     vdW  Elec       q    Type
                         _______ _______ _______ _____ _____    ______ ____

>  <TORSDO>
F 7

$$$$
=
 OpenBabel11112417343D

 37 43  0  0  1  0  0  0  0  0999 V2000
  190.4740  174.1890  141.3230 C   0  0  1  0  0  3  0  0  0  0  0  0
  189.6410  177.2770  142.3870 O   0  0  0  0  0  0  0  0  0  0  0  0
  192.5880  172.6950  140.8580 C   0  0  2  0  0  3  0  0  0  0  0  0
  190.4380  175.0280  142.5580 C   0  0  2  0  0  3  0  0  0  0  0  0
  191.9940  174.0880  141.1410 C   0  0  2  0  0  3  0  0  0  0  0  0
  189.2370  175.9660  142.6910 C   0  0  2  0  0  3  0  0  0  0  0  0
  191.7080  171.5550  141.3360 C   0  0  0  0  0  2  0  0  0  0  0  0
  192.6100  174.7620  142.2140 O   0  0  0  0  0  0  0  0  0  0  0  0
  188.3730  173.1270  141.2050 C   0  0  0  0  0  2  0  0  0  0  0  0
  190.2900  171.8230  140.8750 C   0  0  0  0  0  2  0  0  0  0  0  0
  190.0180  177.3260  144.9150 C   0  0  0  0  0  2  0  0  0  0  0  0
  189.9820  178.0200  143.5560 C   0  0  1  0  0  3  0  0  0  0  0  0
  189.7580  172.9450  141.6360 N   0  0  1  0  0  0  0  0  0  0  0  0
  191.7090  175.7290  142.5590 N   0  0  2  0  0  0  0  0  0  0  0  0
  187.9960  175.5430  141.8790 C   0  0  1  0  0  3  0  0  0  0  0  0
  191.3280  177.5880  144.1910 C   0  0  2  0  0  3  0  0  0  0  0  0
  191.9560  176.2020  143.9250 C   0  0  2  0  0  3  0  0  0  0  0  0
  187.6110  174.0790  142.1340 C   0  0  0  0  0  2  0  0  0  0  0  0
  186.3790  176.5600  143.4910 C   0  0  0  0  0  3  0  0  0  0  0  0
  186.8350  176.4410  142.1730 C   0  0  0  0  0  0  0  0  0  0  0  0
  186.1930  177.1570  141.1490 C   0  0  0  0  0  3  0  0  0  0  0  0
  184.4580  178.7060  140.4080 N   0  0  0  0  0  1  0  0  0  0  0  0
  184.6550  178.0990  142.7660 C   0  0  0  0  0  3  0  0  0  0  0  0
  185.1060  177.9830  141.4470 C   0  0  0  0  0  0  0  0  0  0  0  0
  185.2920  177.3860  143.7870 C   0  0  0  0  0  3  0  0  0  0  0  0
  193.4490  176.2970  144.2310 C   0  0  0  0  0  2  0  0  0  0  0  0
  193.7800  175.5770  145.5300 C   0  0  0  0  0  0  0  0  0  0  0  0
  195.2490  175.5150  145.8710 C   0  0  0  0  0  2  0  0  0  0  0  0
  194.3230  176.4560  146.6310 C   0  0  0  0  0  2  0  0  0  0  0  0
  192.9450  174.3940  146.0110 C   0  0  0  0  0  2  0  0  0  0  0  0
  193.3250  173.1090  145.2880 C   0  0  0  0  0  2  0  0  0  0  0  0
  192.2120  172.5740  144.6410 O   0  0  0  0  0  1  0  0  0  0  0  0
  193.8800  172.5700  141.4000 O   0  0  0  0  0  0  0  0  0  0  0  0
  194.8110  172.6680  140.3470 C   0  0  0  0  0  0  0  0  0  0  0  0
  195.3580  173.9400  140.2860 F   0  0  0  0  0  0  0  0  0  0  0  0
  195.8210  171.7290  140.4950 F   0  0  0  0  0  0  0  0  0  0  0  0
  194.1560  172.4170  139.1570 F   0  0  0  0  0  0  0  0  0  0  0  0
  1 13  1  0  0  0  0
  1  4  1  0  0  0  0
  2  6  1  0  0  0  0
  2 12  1  0  0  0  0
  3  5  1  0  0  0  0
  3  7  1  0  0  0  0
  3 33  1  0  0  0  0
  4 14  1  0  0  0  0
  4  6  1  0  0  0  0
  5  1  1  0  0  0  0
  5  8  1  0  0  0  0
  8 14  1  0  0  0  0
  9 13  1  0  0  0  0
  9 18  1  0  0  0  0
 10  7  1  0  0  0  0
 10 13  1  0  0  0  0
 12 16  1  0  0  0  0
 12 11  1  0  0  0  0
 14 17  1  0  0  0  0
 15 18  1  0  0  0  0
 15 20  1  0  0  0  0
 15  6  1  0  0  0  0
 16 11  1  0  0  0  0
 17 16  1  0  0  0  0
 17 26  1  0  0  0  0
 19 25  1  0  0  0  0
 20 19  2  0  0  0  0
 21 24  2  0  0  0  0
 21 20  1  0  0  0  0
 22 24  1  0  0  0  0
 23 25  2  0  0  0  0
 24 23  1  0  0  0  0
 26 27  1  0  0  0  0
 27 28  1  0  0  0  0
 27 30  1  0  0  0  0
 27 29  1  0  0  0  0
 28 29  1  0  0  0  0
 31 30  1  0  0  0  0
 32 31  1  0  0  0  0
 34 36  1  0  0  0  0
 34 33  1  0  0  0  0
 35 34  1  0  0  0  0
 37 34  1  0  0  0  0
M  END
>  <MODEL>
4

>  <REMARK>
 VINA RESULT:      -7.1      1.135      1.610
  Name = 
  7 active torsions:
  status: ('A' for Active; 'I' for Inactive)
    1  A    between atoms: C_1  and  C_4
    2  A    between atoms: C_1  and  C_27
    3  A    between atoms: C_2  and  O_22
    4  A    between atoms: C_4  and  C_12
    5  A    between atoms: C_6  and  O_22
    6  A    between atoms: C_8  and  C_12
    7  A    between atoms: C_23  and  C_30
                            x       y       z     vdW  Elec       q    Type
                         _______ _______ _______ _____ _____    ______ ____

>  <TORSDO>
F 7

$$$$
=
 OpenBabel11112417343D

 37 43  0  0  1  0  0  0  0  0999 V2000
  186.8370  176.3240  142.8130 C   0  0  1  0  0  3  0  0  0  0  0  0
  188.8410  173.6180  142.9530 O   0  0  0  0  0  0  0  0  0  0  0  0
  185.6070  178.0330  144.3900 C   0  0  2  0  0  3  0  0  0  0  0  0
  188.2410  175.9270  143.1310 C   0  0  2  0  0  3  0  0  0  0  0  0
  186.3640  176.7020  144.2230 C   0  0  2  0  0  3  0  0  0  0  0  0
  188.8390  174.8320  142.2450 C   0  0  2  0  0  3  0  0  0  0  0  0
  185.9030  179.0370  143.2910 C   0  0  0  0  0  2  0  0  0  0  0  0
  187.4530  176.5520  145.1040 O   0  0  0  0  0  0  0  0  0  0  0  0
  186.8100  176.7970  140.5040 C   0  0  0  0  0  2  0  0  0  0  0  0
  185.7950  178.3290  141.9570 C   0  0  0  0  0  2  0  0  0  0  0  0
  191.1750  174.4450  143.5890 C   0  0  0  0  0  2  0  0  0  0  0  0
  190.0890  173.3730  143.5990 C   0  0  1  0  0  3  0  0  0  0  0  0
  186.9180  177.4100  141.8270 N   0  0  1  0  0  0  0  0  0  0  0  0
  188.2070  175.5650  144.5370 N   0  0  2  0  0  0  0  0  0  0  0  0
  188.1790  174.6920  140.8600 C   0  0  1  0  0  3  0  0  0  0  0  0
  190.3280  174.2710  144.8390 C   0  0  2  0  0  3  0  0  0  0  0  0
  189.5830  175.6100  145.0420 C   0  0  2  0  0  3  0  0  0  0  0  0
  188.0850  176.0360  140.1250 C   0  0  0  0  0  2  0  0  0  0  0  0
  188.1920  172.6720  139.3890 C   0  0  0  0  0  3  0  0  0  0  0  0
  188.9110  173.6940  140.0190 C   0  0  0  0  0  0  0  0  0  0  0  0
  190.3050  173.7610  139.8580 C   0  0  0  0  0  3  0  0  0  0  0  0
  192.3790  172.8840  138.9140 N   0  0  0  0  0  1  0  0  0  0  0  0
  190.2430  171.7950  138.4460 C   0  0  0  0  0  3  0  0  0  0  0  0
  190.9670  172.8130  139.0740 C   0  0  0  0  0  0  0  0  0  0  0  0
  188.8560  171.7240  138.6050 C   0  0  0  0  0  3  0  0  0  0  0  0
  189.6300  175.9520  146.5290 C   0  0  0  0  0  2  0  0  0  0  0  0
  191.0540  176.2670  146.9640 C   0  0  0  0  0  0  0  0  0  0  0  0
  191.1910  176.7860  148.3750 C   0  0  0  0  0  2  0  0  0  0  0  0
  191.6130  175.3620  148.0360 C   0  0  0  0  0  2  0  0  0  0  0  0
  192.0850  176.7910  145.9690 C   0  0  0  0  0  2  0  0  0  0  0  0
  193.4440  176.1350  146.1720 C   0  0  0  0  0  2  0  0  0  0  0  0
  194.3820  177.0870  146.5680 O   0  0  0  0  0  1  0  0  0  0  0  0
  185.8530  178.6080  145.6490 O   0  0  0  0  0  0  0  0  0  0  0  0
  184.7020  178.4390  146.4430 C   0  0  0  0  0  0  0  0  0  0  0  0
  183.6010  179.0410  145.8530 F   0  0  0  0  0  0  0  0  0  0  0  0
  184.4430  177.0930  146.6570 F   0  0  0  0  0  0  0  0  0  0  0  0
  184.9210  179.0390  147.6690 F   0  0  0  0  0  0  0  0  0  0  0  0
  1  4  1  0  0  0  0
  1  5  1  0  0  0  0
  2 12  1  0  0  0  0
  3 33  1  0  0  0  0
  4 14  1  0  0  0  0
  5  3  1  0  0  0  0
  5  8  1  0  0  0  0
  6  2  1  0  0  0  0
  6  4  1  0  0  0  0
  7  3  1  0  0  0  0
  9 13  1  0  0  0  0
 10  7  1  0  0  0  0
 11 12  1  0  0  0  0
 11 16  1  0  0  0  0
 12 16  1  0  0  0  0
 13 10  1  0  0  0  0
 13  1  1  0  0  0  0
 14 17  1  0  0  0  0
 14  8  1  0  0  0  0
 15  6  1  0  0  0  0
 16 17  1  0  0  0  0
 17 26  1  0  0  0  0
 18  9  1  0  0  0  0
 18 15  1  0  0  0  0
 19 20  1  0  0  0  0
 20 15  1  0  0  0  0
 21 20  2  0  0  0  0
 22 24  1  0  0  0  0
 23 25  1  0  0  0  0
 23 24  2  0  0  0  0
 24 21  1  0  0  0  0
 25 19  2  0  0  0  0
 26 27  1  0  0  0  0
 27 29  1  0  0  0  0
 27 28  1  0  0  0  0
 29 28  1  0  0  0  0
 30 31  1  0  0  0  0
 30 27  1  0  0  0  0
 31 32  1  0  0  0  0
 33 34  1  0  0  0  0
 34 36  1  0  0  0  0
 34 37  1  0  0  0  0
 35 34  1  0  0  0  0
M  END
>  <MODEL>
5

>  <REMARK>
 VINA RESULT:      -7.0      4.465      7.088
  Name = 
  7 active torsions:
  status: ('A' for Active; 'I' for Inactive)
    1  A    between atoms: C_1  and  C_4
    2  A    between atoms: C_1  and  C_27
    3  A    between atoms: C_2  and  O_22
    4  A    between atoms: C_4  and  C_12
    5  A    between atoms: C_6  and  O_22
    6  A    between atoms: C_8  and  C_12
    7  A    between atoms: C_23  and  C_30
                            x       y       z     vdW  Elec       q    Type
                         _______ _______ _______ _____ _____    ______ ____

>  <TORSDO>
F 7

$$$$
=
 OpenBabel11112417343D

 37 43  0  0  1  0  0  0  0  0999 V2000
  190.4710  174.2080  141.4710 C   0  0  1  0  0  3  0  0  0  0  0  0
  189.7060  177.3540  142.4050 O   0  0  0  0  0  0  0  0  0  0  0  0
  192.5540  172.6620  141.0310 C   0  0  2  0  0  3  0  0  0  0  0  0
  190.4760  175.1040  142.6660 C   0  0  2  0  0  3  0  0  0  0  0  0
  191.9860  174.0750  141.2610 C   0  0  2  0  0  3  0  0  0  0  0  0
  189.2900  176.0650  142.7800 C   0  0  2  0  0  3  0  0  0  0  0  0
  191.6690  171.5590  141.5830 C   0  0  0  0  0  2  0  0  0  0  0  0
  192.6350  174.7910  142.2870 O   0  0  0  0  0  0  0  0  0  0  0  0
  188.3540  173.1720  141.4510 C   0  0  0  0  0  2  0  0  0  0  0  0
  190.2450  171.8260  141.1410 C   0  0  0  0  0  2  0  0  0  0  0  0
  190.1420  177.5180  144.9190 C   0  0  0  0  0  2  0  0  0  0  0  0
  190.0840  178.1470  143.5300 C   0  0  1  0  0  3  0  0  0  0  0  0
  189.7460  172.9900  141.8590 N   0  0  1  0  0  0  0  0  0  0  0  0
  191.7560  175.7860  142.6050 N   0  0  2  0  0  0  0  0  0  0  0  0
  188.0260  175.6230  142.0180 C   0  0  1  0  0  3  0  0  0  0  0  0
  191.4380  177.7260  144.1550 C   0  0  2  0  0  3  0  0  0  0  0  0
  192.0410  176.3190  143.9410 C   0  0  2  0  0  3  0  0  0  0  0  0
  187.6270  174.1780  142.3500 C   0  0  0  0  0  2  0  0  0  0  0  0
  186.3120  177.2640  141.2340 C   0  0  0  0  0  3  0  0  0  0  0  0
  186.8850  176.5510  142.2940 C   0  0  0  0  0  0  0  0  0  0  0  0
  186.3860  176.7230  143.5950 C   0  0  0  0  0  3  0  0  0  0  0  0
  184.8220  177.7730  145.1490 N   0  0  0  0  0  1  0  0  0  0  0  0
  184.7550  178.3100  142.7670 C   0  0  0  0  0  3  0  0  0  0  0  0
  185.3240  177.6010  143.8290 C   0  0  0  0  0  0  0  0  0  0  0  0
  185.2500  178.1410  141.4700 C   0  0  0  0  0  3  0  0  0  0  0  0
  193.5410  176.4060  144.2090 C   0  0  0  0  0  2  0  0  0  0  0  0
  193.9260  175.5470  145.4050 C   0  0  0  0  0  0  0  0  0  0  0  0
  194.1580  176.3060  146.6890 C   0  0  0  0  0  2  0  0  0  0  0  0
  192.8940  175.4770  146.5040 C   0  0  0  0  0  2  0  0  0  0  0  0
  194.7610  174.2820  145.2310 C   0  0  0  0  0  2  0  0  0  0  0  0
  196.2430  174.5550  145.4430 C   0  0  0  0  0  2  0  0  0  0  0  0
  196.7920  173.5950  146.2920 O   0  0  0  0  0  1  0  0  0  0  0  0
  193.8550  172.5440  141.5500 O   0  0  0  0  0  0  0  0  0  0  0  0
  194.7690  172.6910  140.4870 C   0  0  0  0  0  0  0  0  0  0  0  0
  195.2240  173.9980  140.4040 F   0  0  0  0  0  0  0  0  0  0  0  0
  195.8440  171.8280  140.6370 F   0  0  0  0  0  0  0  0  0  0  0  0
  194.1230  172.3790  139.3060 F   0  0  0  0  0  0  0  0  0  0  0  0
  1 13  1  0  0  0  0
  1  4  1  0  0  0  0
  2  6  1  0  0  0  0
  2 12  1  0  0  0  0
  3  5  1  0  0  0  0
  3 33  1  0  0  0  0
  3  7  1  0  0  0  0
  4  6  1  0  0  0  0
  5  1  1  0  0  0  0
  5  8  1  0  0  0  0
  8 14  1  0  0  0  0
  9 13  1  0  0  0  0
  9 18  1  0  0  0  0
 10  7  1  0  0  0  0
 10 13  1  0  0  0  0
 12 16  1  0  0  0  0
 12 11  1  0  0  0  0
 14  4  1  0  0  0  0
 14 17  1  0  0  0  0
 15 20  1  0  0  0  0
 15 18  1  0  0  0  0
 15  6  1  0  0  0  0
 16 11  1  0  0  0  0
 17 16  1  0  0  0  0
 17 26  1  0  0  0  0
 19 25  2  0  0  0  0
 19 20  1  0  0  0  0
 20 21  2  0  0  0  0
 21 24  1  0  0  0  0
 23 24  2  0  0  0  0
 24 22  1  0  0  0  0
 25 23  1  0  0  0  0
 26 27  1  0  0  0  0
 27 29  1  0  0  0  0
 27 28  1  0  0  0  0
 29 28  1  0  0  0  0
 30 27  1  0  0  0  0
 30 31  1  0  0  0  0
 31 32  1  0  0  0  0
 34 36  1  0  0  0  0
 34 33  1  0  0  0  0
 35 34  1  0  0  0  0
 37 34  1  0  0  0  0
M  END
>  <MODEL>
6

>  <REMARK>
 VINA RESULT:      -6.9      1.077      1.675
  Name = 
  7 active torsions:
  status: ('A' for Active; 'I' for Inactive)
    1  A    between atoms: C_1  and  C_4
    2  A    between atoms: C_1  and  C_27
    3  A    between atoms: C_2  and  O_22
    4  A    between atoms: C_4  and  C_12
    5  A    between atoms: C_6  and  O_22
    6  A    between atoms: C_8  and  C_12
    7  A    between atoms: C_23  and  C_30
                            x       y       z     vdW  Elec       q    Type
                         _______ _______ _______ _____ _____    ______ ____

>  <TORSDO>
F 7

$$$$
=
 OpenBabel11112417343D

 37 43  0  0  1  0  0  0  0  0999 V2000
  190.9530  174.7050  145.0140 C   0  0  1  0  0  3  0  0  0  0  0  0
  187.8790  174.9500  143.6550 O   0  0  0  0  0  0  0  0  0  0  0  0
  193.0540  173.1220  145.0290 C   0  0  2  0  0  3  0  0  0  0  0  0
  190.2700  174.9880  143.7160 C   0  0  2  0  0  3  0  0  0  0  0  0
  191.5720  173.3430  144.6720 C   0  0  2  0  0  3  0  0  0  0  0  0
  188.9810  175.8080  143.8080 C   0  0  2  0  0  3  0  0  0  0  0  0
  193.8440  174.4120  145.1520 C   0  0  0  0  0  2  0  0  0  0  0  0
  191.2590  173.0440  143.3310 O   0  0  0  0  0  0  0  0  0  0  0  0
  191.1830  176.7900  146.0880 C   0  0  0  0  0  2  0  0  0  0  0  0
  193.0490  175.3770  146.0080 C   0  0  0  0  0  2  0  0  0  0  0  0
  188.1920  175.6280  141.2090 C   0  0  0  0  0  2  0  0  0  0  0  0
  187.4130  174.9080  142.3070 C   0  0  1  0  0  3  0  0  0  0  0  0
  191.8840  175.8160  145.2530 N   0  0  1  0  0  0  0  0  0  0  0  0
  190.0700  173.6800  143.1180 N   0  0  2  0  0  0  0  0  0  0  0  0
  188.8610  176.6800  145.0730 C   0  0  1  0  0  3  0  0  0  0  0  0
  188.3500  174.1230  141.3540 C   0  0  2  0  0  3  0  0  0  0  0  0
  189.8390  173.8780  141.6830 C   0  0  2  0  0  3  0  0  0  0  0  0
  190.1090  177.5460  145.2990 C   0  0  0  0  0  2  0  0  0  0  0  0
  187.3420  178.2250  143.8280 C   0  0  0  0  0  3  0  0  0  0  0  0
  187.6390  177.5420  145.0130 C   0  0  0  0  0  0  0  0  0  0  0  0
  186.7930  177.6820  146.1250 C   0  0  0  0  0  3  0  0  0  0  0  0
  184.8070  178.6390  147.1760 N   0  0  0  0  0  1  0  0  0  0  0  0
  185.3690  179.1780  144.8600 C   0  0  0  0  0  3  0  0  0  0  0  0
  185.6620  178.4980  146.0470 C   0  0  0  0  0  0  0  0  0  0  0  0
  186.2100  179.0410  143.7520 C   0  0  0  0  0  3  0  0  0  0  0  0
  190.3100  172.6800  140.8630 C   0  0  0  0  0  2  0  0  0  0  0  0
  191.1700  173.1320  139.6920 C   0  0  0  0  0  0  0  0  0  0  0  0
  192.3530  173.9920  140.0640 C   0  0  0  0  0  2  0  0  0  0  0  0
  192.5590  172.5410  139.6500 C   0  0  0  0  0  2  0  0  0  0  0  0
  190.5550  173.4180  138.3260 C   0  0  0  0  0  2  0  0  0  0  0  0
  189.3020  172.5860  138.0890 C   0  0  0  0  0  2  0  0  0  0  0  0
  188.1970  173.4200  137.9260 O   0  0  0  0  0  1  0  0  0  0  0  0
  193.6780  172.2580  144.1130 O   0  0  0  0  0  0  0  0  0  0  0  0
  194.0070  171.0650  144.7860 C   0  0  0  0  0  0  0  0  0  0  0  0
  195.1490  170.4910  144.2480 F   0  0  0  0  0  0  0  0  0  0  0  0
  194.1930  171.2980  146.1400 F   0  0  0  0  0  0  0  0  0  0  0  0
  192.9610  170.1740  144.6390 F   0  0  0  0  0  0  0  0  0  0  0  0
  1 13  1  0  0  0  0
  2  6  1  0  0  0  0
  3  7  1  0  0  0  0
  4  6  1  0  0  0  0
  4  1  1  0  0  0  0
  5  1  1  0  0  0  0
  5  3  1  0  0  0  0
  6 15  1  0  0  0  0
  7 10  1  0  0  0  0
  8  5  1  0  0  0  0
 11 16  1  0  0  0  0
 11 12  1  0  0  0  0
 12  2  1  0  0  0  0
 13 10  1  0  0  0  0
 13  9  1  0  0  0  0
 14  8  1  0  0  0  0
 14  4  1  0  0  0  0
 15 18  1  0  0  0  0
 16 17  1  0  0  0  0
 16 12  1  0  0  0  0
 17 14  1  0  0  0  0
 18  9  1  0  0  0  0
 19 20  1  0  0  0  0
 20 15  1  0  0  0  0
 20 21  2  0  0  0  0
 23 24  2  0  0  0  0
 24 21  1  0  0  0  0
 24 22  1  0  0  0  0
 25 19  2  0  0  0  0
 25 23  1  0  0  0  0
 26 17  1  0  0  0  0
 27 28  1  0  0  0  0
 27 26  1  0  0  0  0
 29 27  1  0  0  0  0
 29 28  1  0  0  0  0
 30 27  1  0  0  0  0
 31 30  1  0  0  0  0
 32 31  1  0  0  0  0
 33 34  1  0  0  0  0
 33  3  1  0  0  0  0
 34 36  1  0  0  0  0
 35 34  1  0  0  0  0
 37 34  1  0  0  0  0
M  END
>  <MODEL>
7

>  <REMARK>
 VINA RESULT:      -6.9      2.575      5.174
  Name = 
  7 active torsions:
  status: ('A' for Active; 'I' for Inactive)
    1  A    between atoms: C_1  and  C_4
    2  A    between atoms: C_1  and  C_27
    3  A    between atoms: C_2  and  O_22
    4  A    between atoms: C_4  and  C_12
    5  A    between atoms: C_6  and  O_22
    6  A    between atoms: C_8  and  C_12
    7  A    between atoms: C_23  and  C_30
                            x       y       z     vdW  Elec       q    Type
                         _______ _______ _______ _____ _____    ______ ____

>  <TORSDO>
F 7

$$$$
=
 OpenBabel11112417343D

 37 43  0  0  1  0  0  0  0  0999 V2000
  191.5030  174.7300  145.3510 C   0  0  1  0  0  3  0  0  0  0  0  0
  188.5430  174.4460  143.7650 O   0  0  0  0  0  0  0  0  0  0  0  0
  193.8540  173.5610  145.5030 C   0  0  2  0  0  3  0  0  0  0  0  0
  190.8750  174.9200  144.0090 C   0  0  2  0  0  3  0  0  0  0  0  0
  192.3860  173.5160  145.0370 C   0  0  2  0  0  3  0  0  0  0  0  0
  189.4530  175.4870  144.0140 C   0  0  2  0  0  3  0  0  0  0  0  0
  194.3800  174.9700  145.7060 C   0  0  0  0  0  2  0  0  0  0  0  0
  192.2320  173.2030  143.6720 O   0  0  0  0  0  0  0  0  0  0  0  0
  191.2640  176.7910  146.4710 C   0  0  0  0  0  2  0  0  0  0  0  0
  193.3610  175.7480  146.5120 C   0  0  0  0  0  2  0  0  0  0  0  0
  188.9010  175.2390  141.3610 C   0  0  0  0  0  2  0  0  0  0  0  0
  188.1910  174.3580  142.3840 C   0  0  1  0  0  3  0  0  0  0  0  0
  192.1920  175.9860  145.6770 N   0  0  1  0  0  0  0  0  0  0  0  0
  190.9640  173.6160  143.3780 N   0  0  2  0  0  0  0  0  0  0  0  0
  189.0830  176.2850  145.2790 C   0  0  1  0  0  3  0  0  0  0  0  0
  189.3240  173.7860  141.4940 C   0  0  2  0  0  3  0  0  0  0  0  0
  190.8060  173.8090  141.9330 C   0  0  2  0  0  3  0  0  0  0  0  0
  190.1280  177.3590  145.6130 C   0  0  0  0  0  2  0  0  0  0  0  0
  186.7750  176.7040  146.1420 C   0  0  0  0  0  3  0  0  0  0  0  0
  187.7290  176.9090  145.1390 C   0  0  0  0  0  0  0  0  0  0  0  0
  187.4010  177.6880  144.0170 C   0  0  0  0  0  3  0  0  0  0  0  0
  185.7980  179.0410  142.7670 N   0  0  0  0  0  1  0  0  0  0  0  0
  185.1780  178.0460  144.9100 C   0  0  0  0  0  3  0  0  0  0  0  0
  186.1280  178.2540  143.9050 C   0  0  0  0  0  0  0  0  0  0  0  0
  185.5020  177.2710  146.0280 C   0  0  0  0  0  3  0  0  0  0  0  0
  191.5480  172.7420  141.1330 C   0  0  0  0  0  2  0  0  0  0  0  0
  192.3640  173.3750  140.0160 C   0  0  0  0  0  0  0  0  0  0  0  0
  192.8110  172.4240  138.9320 C   0  0  0  0  0  2  0  0  0  0  0  0
  191.6850  173.4160  138.6680 C   0  0  0  0  0  2  0  0  0  0  0  0
  193.3060  174.5430  140.2920 C   0  0  0  0  0  2  0  0  0  0  0  0
  194.4750  174.1250  141.1720 C   0  0  0  0  0  2  0  0  0  0  0  0
  194.6850  175.0720  142.1740 O   0  0  0  0  0  1  0  0  0  0  0  0
  194.6920  172.8530  144.6240 O   0  0  0  0  0  0  0  0  0  0  0  0
  195.3120  171.8140  145.3470 C   0  0  0  0  0  0  0  0  0  0  0  0
  196.3390  172.3050  146.1370 F   0  0  0  0  0  0  0  0  0  0  0  0
  194.3890  171.1460  146.1390 F   0  0  0  0  0  0  0  0  0  0  0  0
  195.8470  170.9110  144.4480 F   0  0  0  0  0  0  0  0  0  0  0  0
  1 13  1  0  0  0  0
  2  6  1  0  0  0  0
  3  7  1  0  0  0  0
  4  6  1  0  0  0  0
  4  1  1  0  0  0  0
  5  1  1  0  0  0  0
  5  3  1  0  0  0  0
  6 15  1  0  0  0  0
  7 10  1  0  0  0  0
  8  5  1  0  0  0  0
 11 16  1  0  0  0  0
 11 12  1  0  0  0  0
 12  2  1  0  0  0  0
 13  9  1  0  0  0  0
 13 10  1  0  0  0  0
 14  8  1  0  0  0  0
 14  4  1  0  0  0  0
 15 18  1  0  0  0  0
 16 17  1  0  0  0  0
 16 12  1  0  0  0  0
 17 14  1  0  0  0  0
 18  9  1  0  0  0  0
 20 15  1  0  0  0  0
 20 19  2  0  0  0  0
 21 20  1  0  0  0  0
 22 24  1  0  0  0  0
 23 25  2  0  0  0  0
 24 21  2  0  0  0  0
 24 23  1  0  0  0  0
 25 19  1  0  0  0  0
 26 17  1  0  0  0  0
 27 30  1  0  0  0  0
 27 26  1  0  0  0  0
 28 27  1  0  0  0  0
 29 28  1  0  0  0  0
 29 27  1  0  0  0  0
 30 31  1  0  0  0  0
 31 32  1  0  0  0  0
 33 34  1  0  0  0  0
 33  3  1  0  0  0  0
 34 35  1  0  0  0  0
 34 36  1  0  0  0  0
 37 34  1  0  0  0  0
M  END
>  <MODEL>
8

>  <REMARK>
 VINA RESULT:      -6.8      2.372      5.054
  Name = 
  7 active torsions:
  status: ('A' for Active; 'I' for Inactive)
    1  A    between atoms: C_1  and  C_4
    2  A    between atoms: C_1  and  C_27
    3  A    between atoms: C_2  and  O_22
    4  A    between atoms: C_4  and  C_12
    5  A    between atoms: C_6  and  O_22
    6  A    between atoms: C_8  and  C_12
    7  A    between atoms: C_23  and  C_30
                            x       y       z     vdW  Elec       q    Type
                         _______ _______ _______ _____ _____    ______ ____

>  <TORSDO>
F 7

$$$$
=
 OpenBabel11112417343D

 37 43  0  0  1  0  0  0  0  0999 V2000
  191.0410  174.9800  145.5420 C   0  0  1  0  0  3  0  0  0  0  0  0
  188.0990  175.0300  143.8980 O   0  0  0  0  0  0  0  0  0  0  0  0
  193.3750  173.7690  145.5060 C   0  0  2  0  0  3  0  0  0  0  0  0
  190.4340  175.4190  144.2500 C   0  0  2  0  0  3  0  0  0  0  0  0
  191.9140  173.8310  145.0230 C   0  0  2  0  0  3  0  0  0  0  0  0
  189.0190  175.9960  144.3420 C   0  0  2  0  0  3  0  0  0  0  0  0
  193.9160  175.1110  145.9660 C   0  0  0  0  0  2  0  0  0  0  0  0
  191.7750  173.7730  143.6220 O   0  0  0  0  0  0  0  0  0  0  0  0
  190.8120  176.8070  147.0140 C   0  0  0  0  0  2  0  0  0  0  0  0
  192.8950  175.7440  146.8890 C   0  0  0  0  0  2  0  0  0  0  0  0
  188.4990  176.2410  141.6820 C   0  0  0  0  0  2  0  0  0  0  0  0
  187.7660  175.1990  142.5200 C   0  0  1  0  0  3  0  0  0  0  0  0
  191.7400  176.1460  146.0980 N   0  0  1  0  0  0  0  0  0  0  0  0
  190.5160  174.2500  143.3940 N   0  0  2  0  0  0  0  0  0  0  0  0
  188.6410  176.5570  145.7270 C   0  0  1  0  0  3  0  0  0  0  0  0
  188.9030  174.7820  141.5540 C   0  0  2  0  0  3  0  0  0  0  0  0
  190.3790  174.7040  142.0060 C   0  0  2  0  0  3  0  0  0  0  0  0
  189.6950  177.5370  146.2610 C   0  0  0  0  0  2  0  0  0  0  0  0
  186.2860  176.7560  146.5380 C   0  0  0  0  0  3  0  0  0  0  0  0
  187.2970  177.2150  145.6870 C   0  0  0  0  0  0  0  0  0  0  0  0
  187.0340  178.2770  144.8060 C   0  0  0  0  0  3  0  0  0  0  0  0
  185.5050  179.9450  143.8870 N   0  0  0  0  0  1  0  0  0  0  0  0
  184.7620  178.4080  145.6350 C   0  0  0  0  0  3  0  0  0  0  0  0
  185.7690  178.8700  144.7820 C   0  0  0  0  0  0  0  0  0  0  0  0
  185.0210  177.3510  146.5130 C   0  0  0  0  0  3  0  0  0  0  0  0
  191.1190  173.7880  141.0340 C   0  0  0  0  0  2  0  0  0  0  0  0
  190.3180  172.5220  140.7700 C   0  0  0  0  0  0  0  0  0  0  0  0
  189.3420  172.6100  139.6220 C   0  0  0  0  0  2  0  0  0  0  0  0
  190.6360  171.8190  139.4730 C   0  0  0  0  0  2  0  0  0  0  0  0
  189.9040  171.5990  141.9120 C   0  0  0  0  0  2  0  0  0  0  0  0
  190.8120  170.3810  142.0060 C   0  0  0  0  0  2  0  0  0  0  0  0
  192.0120  170.7230  142.6290 O   0  0  0  0  0  1  0  0  0  0  0  0
  194.2170  173.2200  144.5230 O   0  0  0  0  0  0  0  0  0  0  0  0
  194.9320  172.1520  145.1000 C   0  0  0  0  0  0  0  0  0  0  0  0
  194.1930  171.5490  146.1060 F   0  0  0  0  0  0  0  0  0  0  0  0
  195.2750  171.2120  144.1400 F   0  0  0  0  0  0  0  0  0  0  0  0
  196.0950  172.6510  145.6540 F   0  0  0  0  0  0  0  0  0  0  0  0
  1 13  1  0  0  0  0
  2  6  1  0  0  0  0
  3  7  1  0  0  0  0
  4  6  1  0  0  0  0
  4  1  1  0  0  0  0
  5  3  1  0  0  0  0
  5  1  1  0  0  0  0
  6 15  1  0  0  0  0
  7 10  1  0  0  0  0
  8  5  1  0  0  0  0
 11 12  1  0  0  0  0
 12  2  1  0  0  0  0
 13 10  1  0  0  0  0
 13  9  1  0  0  0  0
 14  8  1  0  0  0  0
 14  4  1  0  0  0  0
 15 18  1  0  0  0  0
 16 11  1  0  0  0  0
 16 17  1  0  0  0  0
 16 12  1  0  0  0  0
 17 14  1  0  0  0  0
 18  9  1  0  0  0  0
 20 15  1  0  0  0  0
 20 19  2  0  0  0  0
 21 20  1  0  0  0  0
 22 24  1  0  0  0  0
 23 25  2  0  0  0  0
 24 21  2  0  0  0  0
 24 23  1  0  0  0  0
 25 19  1  0  0  0  0
 26 17  1  0  0  0  0
 27 26  1  0  0  0  0
 27 30  1  0  0  0  0
 28 27  1  0  0  0  0
 29 28  1  0  0  0  0
 29 27  1  0  0  0  0
 30 31  1  0  0  0  0
 31 32  1  0  0  0  0
 33 34  1  0  0  0  0
 33  3  1  0  0  0  0
 34 37  1  0  0  0  0
 34 35  1  0  0  0  0
 36 34  1  0  0  0  0
M  END
>  <MODEL>
9

>  <REMARK>
 VINA RESULT:      -6.8      2.351      5.128
  Name = 
  7 active torsions:
  status: ('A' for Active; 'I' for Inactive)
    1  A    between atoms: C_1  and  C_4
    2  A    between atoms: C_1  and  C_27
    3  A    between atoms: C_2  and  O_22
    4  A    between atoms: C_4  and  C_12
    5  A    between atoms: C_6  and  O_22
    6  A    between atoms: C_8  and  C_12
    7  A    between atoms: C_23  and  C_30
                            x       y       z     vdW  Elec       q    Type
                         _______ _______ _______ _____ _____    ______ ____

>  <TORSDO>
F 7

$$$$
