=
 OpenBabel11112416243D

 30 35  0  0  1  0  0  0  0  0999 V2000
  190.0290  175.2780  144.4050 C   0  0  2  0  0  3  0  0  0  0  0  0
  191.6640  173.7410  143.0590 C   0  0  0  0  0  0  0  0  0  0  0  0
  187.8220  175.8490  141.0150 N   0  0  0  0  0  2  0  0  0  0  0  0
  189.1450  176.4750  144.0280 C   0  0  2  0  0  3  0  0  0  0  0  0
  191.1820  175.7250  145.0760 O   0  0  0  0  0  0  0  0  0  0  0  0
  189.6780  177.9920  147.4610 O   0  0  0  0  0  1  0  0  0  0  0  0
  186.5600  178.2850  144.9100 C   0  0  0  0  0  0  0  0  0  0  0  0
  190.0940  177.5180  146.2140 C   0  0  1  0  0  3  0  0  0  0  0  0
  186.3910  178.0960  143.6050 C   0  0  0  0  0  0  0  0  0  0  0  0
  187.1140  176.9830  141.4800 C   0  0  0  0  0  0  0  0  0  0  0  0
  190.7580  176.1480  146.3470 C   0  0  2  0  0  3  0  0  0  0  0  0
  188.9290  177.4660  145.2070 C   0  0  2  0  0  3  0  0  0  0  0  0
  192.1580  173.2490  141.7310 C   0  0  0  0  0  2  0  0  0  0  0  0
  185.4860  179.0460  143.0640 N   0  0  0  0  0  0  0  0  0  0  0  0
  185.7440  179.4550  145.3320 C   0  0  0  0  0  2  0  0  0  0  0  0
  192.3550  173.5140  144.0860 O   0  0  0  0  0  0  0  0  0  0  0  0
  188.1390  175.0400  142.1830 C   0  0  2  0  0  3  0  0  0  0  0  0
  191.0350  173.0440  140.7550 C   0  0  0  0  0  3  0  0  0  0  0  0
  190.3950  174.5100  143.1460 C   0  0  0  0  0  0  0  0  0  0  0  0
  187.8520  175.9430  143.3990 C   0  0  2  0  0  3  0  0  0  0  0  0
  186.5230  177.9310  140.5950 N   0  0  0  0  0  1  0  0  0  0  0  0
  187.0760  177.0630  142.8000 C   0  0  0  0  0  0  0  0  0  0  0  0
  185.1080  179.8210  144.0280 C   0  0  0  0  0  3  0  0  0  0  0  0
  186.9680  176.2230  146.2920 C   0  0  0  0  0  1  0  0  0  0  0  0
  189.8390  173.6110  140.9240 C   0  0  0  0  0  3  0  0  0  0  0  0
  189.5220  174.4320  142.1120 C   0  0  0  0  0  0  0  0  0  0  0  0
  187.5160  177.5620  145.8180 C   0  0  2  0  0  3  0  0  0  0  0  0
  191.9590  176.2410  147.2800 C   0  0  0  0  0  2  0  0  0  0  0  0
  194.1670  177.0560  146.8750 O   0  0  0  0  0  1  0  0  0  0  0  0
  193.2580  176.0630  146.5140 C   0  0  0  0  0  2  0  0  0  0  0  0
  1 19  1  6  0  0  0
  1  5  1  0  0  0  0
  2 19  1  0  0  0  0
  2 16  2  0  0  0  0
  3 10  1  0  0  0  0
  3 17  1  0  0  0  0
  4  1  1  0  0  0  0
  4 12  1  0  0  0  0
  5 11  1  0  0  0  0
  7 15  1  0  0  0  0
  7 27  1  0  0  0  0
  8 11  1  0  0  0  0
  8  6  1  0  0  0  0
  9  7  2  0  0  0  0
 10 22  2  0  0  0  0
 11 28  1  0  0  0  0
 12 27  1  0  0  0  0
 12  8  1  0  0  0  0
 13  2  1  0  0  0  0
 14  9  1  0  0  0  0
 14 23  2  0  0  0  0
 17 20  1  0  0  0  0
 18 25  2  0  0  0  0
 18 13  1  0  0  0  0
 20  4  1  0  0  0  0
 21 10  1  0  0  0  0
 22 20  1  0  0  0  0
 22  9  1  0  0  0  0
 23 15  1  0  0  0  0
 25 26  1  0  0  0  0
 26 17  1  0  0  0  0
 26 19  2  0  0  0  0
 27 24  1  0  0  0  0
 30 29  1  0  0  0  0
 30 28  1  0  0  0  0
M  END
>  <MODEL>
1

>  <REMARK>
 VINA RESULT:      -8.6      0.000      0.000
  Name = 
  2 active torsions:
  status: ('A' for Active; 'I' for Inactive)
    1  A    between atoms: C_11  and  C_28
    2  A    between atoms: C_28  and  C_30
                            x       y       z     vdW  Elec       q    Type
                         _______ _______ _______ _____ _____    ______ ____

>  <TORSDO>
F 2

$$$$
=
 OpenBabel11112416243D

 30 35  0  0  1  0  0  0  0  0999 V2000
  189.9940  175.8830  143.8820 C   0  0  2  0  0  3  0  0  0  0  0  0
  191.7300  175.0960  145.6750 C   0  0  0  0  0  0  0  0  0  0  0  0
  187.7680  177.6090  146.8410 N   0  0  0  0  0  2  0  0  0  0  0  0
  188.4820  176.1480  143.9130 C   0  0  2  0  0  3  0  0  0  0  0  0
  190.2540  174.6520  143.2530 O   0  0  0  0  0  0  0  0  0  0  0  0
  188.1750  175.0000  140.3120 O   0  0  0  0  0  1  0  0  0  0  0  0
  185.9920  177.6660  142.4200 C   0  0  0  0  0  0  0  0  0  0  0  0
  188.4820  174.8350  141.6670 C   0  0  1  0  0  3  0  0  0  0  0  0
  185.7840  177.9010  143.7120 C   0  0  1  0  0  3  0  0  0  0  0  0
  186.5790  177.7440  146.0830 C   0  0  0  0  0  0  0  0  0  0  0  0
  189.9950  174.8460  141.8870 C   0  0  2  0  0  3  0  0  0  0  0  0
  187.7950  175.9040  142.5390 C   0  0  2  0  0  3  0  0  0  0  0  0
  192.0670  174.8690  147.1190 C   0  0  0  0  0  2  0  0  0  0  0  0
  184.4410  178.2930  143.9510 N   0  0  0  0  0  0  0  0  0  0  0  0
  184.7160  177.8810  141.6850 C   0  0  0  0  0  3  0  0  0  0  0  0
  192.4620  174.5770  144.7920 O   0  0  0  0  0  0  0  0  0  0  0  0
  188.8790  177.6830  145.9020 C   0  0  2  0  0  3  0  0  0  0  0  0
  191.5390  175.9670  147.9960 C   0  0  0  0  0  3  0  0  0  0  0  0
  190.5330  175.8940  145.3030 C   0  0  0  0  0  0  0  0  0  0  0  0
  188.2460  177.5410  144.5040 C   0  0  2  0  0  3  0  0  0  0  0  0
  185.2940  177.8540  146.6890 N   0  0  0  0  0  1  0  0  0  0  0  0
  186.7960  177.7430  144.7780 C   0  0  0  0  0  0  0  0  0  0  0  0
  183.8240  178.2900  142.8150 C   0  0  0  0  0  3  0  0  0  0  0  0
  188.2850  178.2120  141.5410 C   0  0  0  0  0  1  0  0  0  0  0  0
  190.5680  176.7890  147.5950 C   0  0  0  0  0  3  0  0  0  0  0  0
  189.9880  176.7110  146.2370 C   0  0  0  0  0  0  0  0  0  0  0  0
  187.2430  177.1290  141.7820 C   0  0  2  0  0  3  0  0  0  0  0  0
  190.6440  173.7280  141.0810 C   0  0  0  0  0  2  0  0  0  0  0  0
  189.9140  171.5660  141.7870 O   0  0  0  0  0  1  0  0  0  0  0  0
  190.9190  172.5170  141.9540 C   0  0  0  0  0  2  0  0  0  0  0  0
  1  5  1  1  0  0  0
  1  4  1  0  0  0  0
  1 19  1  0  0  0  0
  2 13  1  0  0  0  0
  4 20  1  0  0  0  0
  6  8  1  0  0  0  0
  7  9  1  0  0  0  0
  8 11  1  0  0  0  0
  8 12  1  0  0  0  0
  9 14  1  0  0  0  0
  9 22  1  0  0  0  0
 10 21  1  0  0  0  0
 10  3  1  0  0  0  0
 11  5  1  0  0  0  0
 12  4  1  0  0  0  0
 13 18  1  0  0  0  0
 15  7  2  0  0  0  0
 15 23  1  0  0  0  0
 16  2  2  0  0  0  0
 17 26  1  0  0  0  0
 17  3  1  0  0  0  0
 19  2  1  0  0  0  0
 19 26  2  0  0  0  0
 20 22  1  0  0  0  0
 20 17  1  0  0  0  0
 22 10  2  0  0  0  0
 23 14  2  0  0  0  0
 24 27  1  0  0  0  0
 25 18  2  0  0  0  0
 26 25  1  0  0  0  0
 27  7  1  0  0  0  0
 27 12  1  0  0  0  0
 28 11  1  0  0  0  0
 28 30  1  0  0  0  0
 29 30  1  0  0  0  0
M  END
>  <MODEL>
2

>  <REMARK>
 VINA RESULT:      -8.6      2.058      4.773
  Name = 
  2 active torsions:
  status: ('A' for Active; 'I' for Inactive)
    1  A    between atoms: C_11  and  C_28
    2  A    between atoms: C_28  and  C_30
                            x       y       z     vdW  Elec       q    Type
                         _______ _______ _______ _____ _____    ______ ____

>  <TORSDO>
F 2

$$$$
=
 OpenBabel11112416243D

 30 35  0  0  1  0  0  0  0  0999 V2000
  186.6630  177.4890  144.0440 C   0  0  2  0  0  3  0  0  0  0  0  0
  184.3490  178.3280  143.1550 C   0  0  0  0  0  0  0  0  0  0  0  0
  187.5150  176.0030  140.3360 N   0  0  0  0  0  2  0  0  0  0  0  0
  187.5830  176.3180  143.6700 C   0  0  2  0  0  3  0  0  0  0  0  0
  185.9720  177.1940  145.2340 O   0  0  0  0  0  0  0  0  0  0  0  0
  188.7150  176.0110  147.2750 O   0  0  0  0  0  1  0  0  0  0  0  0
  190.6400  175.1500  143.8300 C   0  0  0  0  0  0  0  0  0  0  0  0
  187.7710  175.9960  146.2440 C   0  0  1  0  0  3  0  0  0  0  0  0
  190.2650  174.9010  142.5790 C   0  0  0  0  0  0  0  0  0  0  0  0
  188.5770  175.1600  140.7460 C   0  0  0  0  0  0  0  0  0  0  0  0
  186.9200  177.2660  146.2680 C   0  0  2  0  0  3  0  0  0  0  0  0
  188.4350  175.8090  144.8670 C   0  0  2  0  0  3  0  0  0  0  0  0
  183.3010  178.2950  142.0830 C   0  0  0  0  0  2  0  0  0  0  0  0
  191.0890  173.9080  141.9870 N   0  0  0  0  0  0  0  0  0  0  0  0
  191.7910  174.2700  144.1670 C   0  0  0  0  0  2  0  0  0  0  0  0
  184.0590  178.8270  144.2730 O   0  0  0  0  0  0  0  0  0  0  0  0
  187.4870  177.1280  141.2590 C   0  0  2  0  0  3  0  0  0  0  0  0
  183.9050  178.2570  140.7090 C   0  0  0  0  0  3  0  0  0  0  0  0
  185.6950  177.7500  142.9020 C   0  0  0  0  0  0  0  0  0  0  0  0
  188.3970  176.7190  142.4340 C   0  0  2  0  0  3  0  0  0  0  0  0
  188.9880  174.0260  139.9890 N   0  0  0  0  0  1  0  0  0  0  0  0
  189.1200  175.5360  141.8920 C   0  0  0  0  0  0  0  0  0  0  0  0
  191.9590  173.5430  142.8700 C   0  0  0  0  0  3  0  0  0  0  0  0
  190.3330  177.5140  144.6360 C   0  0  0  0  0  1  0  0  0  0  0  0
  185.1700  177.8890  140.5020 C   0  0  0  0  0  3  0  0  0  0  0  0
  186.0800  177.5500  141.6180 C   0  0  0  0  0  0  0  0  0  0  0  0
  189.9570  176.0500  144.8230 C   0  0  2  0  0  3  0  0  0  0  0  0
  186.2060  177.3870  147.6080 C   0  0  0  0  0  2  0  0  0  0  0  0
  185.9200  179.7580  147.6440 O   0  0  0  0  0  1  0  0  0  0  0  0
  185.2280  178.5490  147.6000 C   0  0  0  0  0  2  0  0  0  0  0  0
  1 19  1  6  0  0  0
  1  5  1  0  0  0  0
  2 16  2  0  0  0  0
  3 10  1  0  0  0  0
  3 17  1  0  0  0  0
  4  1  1  0  0  0  0
  4 12  1  0  0  0  0
  5 11  1  0  0  0  0
  7 15  1  0  0  0  0
  7 27  1  0  0  0  0
  8 11  1  0  0  0  0
  8  6  1  0  0  0  0
  9  7  2  0  0  0  0
 10 22  2  0  0  0  0
 11 28  1  0  0  0  0
 12  8  1  0  0  0  0
 13  2  1  0  0  0  0
 14  9  1  0  0  0  0
 14 23  2  0  0  0  0
 17 26  1  0  0  0  0
 17 20  1  0  0  0  0
 18 13  1  0  0  0  0
 19  2  1  0  0  0  0
 20  4  1  0  0  0  0
 21 10  1  0  0  0  0
 22 20  1  0  0  0  0
 22  9  1  0  0  0  0
 23 15  1  0  0  0  0
 24 27  1  0  0  0  0
 25 18  2  0  0  0  0
 25 26  1  0  0  0  0
 26 19  2  0  0  0  0
 27 12  1  0  0  0  0
 30 28  1  0  0  0  0
 30 29  1  0  0  0  0
M  END
>  <MODEL>
3

>  <REMARK>
 VINA RESULT:      -8.5      2.342      5.899
  Name = 
  2 active torsions:
  status: ('A' for Active; 'I' for Inactive)
    1  A    between atoms: C_11  and  C_28
    2  A    between atoms: C_28  and  C_30
                            x       y       z     vdW  Elec       q    Type
                         _______ _______ _______ _____ _____    ______ ____

>  <TORSDO>
F 2

$$$$
=
 OpenBabel11112416243D

 30 35  0  0  1  0  0  0  0  0999 V2000
  186.4320  177.0230  143.7650 C   0  0  2  0  0  3  0  0  0  0  0  0
  185.0270  178.3670  145.5160 C   0  0  0  0  0  0  0  0  0  0  0  0
  189.3320  176.4400  146.5830 N   0  0  0  0  0  2  0  0  0  0  0  0
  187.9370  176.7970  143.5590 C   0  0  2  0  0  3  0  0  0  0  0  0
  185.9550  177.9600  142.8300 O   0  0  0  0  0  0  0  0  0  0  0  0
  187.4310  176.6350  139.8050 O   0  0  0  0  0  1  0  0  0  0  0  0
  190.1960  174.8760  142.1670 C   0  0  0  0  0  0  0  0  0  0  0  0
  187.3870  177.2540  141.0580 C   0  0  1  0  0  3  0  0  0  0  0  0
  190.6730  175.1020  143.3870 C   0  0  1  0  0  3  0  0  0  0  0  0
  190.3540  176.0610  145.6790 C   0  0  0  0  0  0  0  0  0  0  0  0
  185.9530  177.3090  141.5860 C   0  0  2  0  0  3  0  0  0  0  0  0
  188.3160  176.5570  142.0700 C   0  0  2  0  0  3  0  0  0  0  0  0
  184.9660  179.0750  146.8380 C   0  0  0  0  0  2  0  0  0  0  0  0
  192.0640  174.8270  143.4500 N   0  0  0  0  0  0  0  0  0  0  0  0
  191.3140  174.4300  141.2920 C   0  0  0  0  0  3  0  0  0  0  0  0
  184.0960  178.5440  144.6890 O   0  0  0  0  0  0  0  0  0  0  0  0
  188.0660  176.0380  145.9840 C   0  0  2  0  0  3  0  0  0  0  0  0
  185.7440  178.3510  147.8980 C   0  0  0  0  0  3  0  0  0  0  0  0
  186.1880  177.4990  145.1880 C   0  0  0  0  0  0  0  0  0  0  0  0
  188.3970  175.6940  144.5180 C   0  0  2  0  0  3  0  0  0  0  0  0
  191.7380  176.1760  145.9980 N   0  0  0  0  0  1  0  0  0  0  0  0
  189.8830  175.6110  144.5280 C   0  0  0  0  0  0  0  0  0  0  0  0
  192.4420  174.4430  142.2750 C   0  0  0  0  0  3  0  0  0  0  0  0
  187.8260  174.0430  142.0330 C   0  0  0  0  0  1  0  0  0  0  0  0
  186.6790  177.4490  147.5980 C   0  0  0  0  0  3  0  0  0  0  0  0
  186.9710  177.0580  146.2020 C   0  0  0  0  0  0  0  0  0  0  0  0
  188.8040  175.1510  141.6680 C   0  0  2  0  0  3  0  0  0  0  0  0
  185.0690  178.0760  140.6110 C   0  0  0  0  0  2  0  0  0  0  0  0
  182.7280  177.8560  140.1970 O   0  0  0  0  0  1  0  0  0  0  0  0
  183.6630  178.2330  141.1590 C   0  0  0  0  0  2  0  0  0  0  0  0
  1  5  1  6  0  0  0
  1 19  1  0  0  0  0
  2 13  1  0  0  0  0
  4  1  1  0  0  0  0
  4 20  1  0  0  0  0
  6  8  1  0  0  0  0
  7  9  1  0  0  0  0
  8 11  1  0  0  0  0
  8 12  1  0  0  0  0
  9 14  1  0  0  0  0
  9 22  1  0  0  0  0
 10 21  1  0  0  0  0
 10  3  1  0  0  0  0
 11  5  1  0  0  0  0
 12  4  1  0  0  0  0
 13 18  1  0  0  0  0
 15  7  2  0  0  0  0
 15 23  1  0  0  0  0
 16  2  2  0  0  0  0
 17 26  1  0  0  0  0
 17  3  1  0  0  0  0
 19  2  1  0  0  0  0
 19 26  2  0  0  0  0
 20 22  1  0  0  0  0
 20 17  1  0  0  0  0
 22 10  2  0  0  0  0
 23 14  2  0  0  0  0
 25 18  2  0  0  0  0
 26 25  1  0  0  0  0
 27 24  1  0  0  0  0
 27 12  1  0  0  0  0
 27  7  1  0  0  0  0
 28 30  1  0  0  0  0
 28 11  1  0  0  0  0
 29 30  1  0  0  0  0
M  END
>  <MODEL>
4

>  <REMARK>
 VINA RESULT:      -8.4      3.504      7.313
  Name = 
  2 active torsions:
  status: ('A' for Active; 'I' for Inactive)
    1  A    between atoms: C_11  and  C_28
    2  A    between atoms: C_28  and  C_30
                            x       y       z     vdW  Elec       q    Type
                         _______ _______ _______ _____ _____    ______ ____

>  <TORSDO>
F 2

$$$$
=
 OpenBabel11112416243D

 30 35  0  0  1  0  0  0  0  0999 V2000
  187.5930  176.3660  144.0580 C   0  0  2  0  0  3  0  0  0  0  0  0
  185.6870  178.0820  144.5750 C   0  0  0  0  0  0  0  0  0  0  0  0
  189.3110  177.2310  147.6620 N   0  0  0  0  0  2  0  0  0  0  0  0
  189.0710  176.2640  144.4640 C   0  0  2  0  0  3  0  0  0  0  0  0
  187.4900  176.8220  142.7310 O   0  0  0  0  0  0  0  0  0  0  0  0
  189.9110  174.6580  141.1340 O   0  0  0  0  0  1  0  0  0  0  0  0
  191.6410  174.2560  144.7620 C   0  0  0  0  0  0  0  0  0  0  0  0
  189.4400  175.6880  141.9540 C   0  0  1  0  0  3  0  0  0  0  0  0
  191.6640  174.9760  145.8790 C   0  0  1  0  0  3  0  0  0  0  0  0
  190.5780  176.6710  147.3690 C   0  0  0  0  0  0  0  0  0  0  0  0
  187.9140  175.7600  141.9150 C   0  0  2  0  0  3  0  0  0  0  0  0
  189.9440  175.5370  143.4020 C   0  0  2  0  0  3  0  0  0  0  0  0
  185.1790  179.2170  145.4140 C   0  0  0  0  0  2  0  0  0  0  0  0
  192.9400  174.9160  146.4990 N   0  0  0  0  0  0  0  0  0  0  0  0
  192.9870  173.6570  144.5520 C   0  0  0  0  0  3  0  0  0  0  0  0
  185.1090  177.8230  143.4880 O   0  0  0  0  0  0  0  0  0  0  0  0
  188.3290  176.4840  146.8880 C   0  0  2  0  0  3  0  0  0  0  0  0
  185.5230  179.0400  146.8640 C   0  0  0  0  0  3  0  0  0  0  0  0
  186.8740  177.3020  145.0140 C   0  0  0  0  0  0  0  0  0  0  0  0
  189.1460  175.6630  145.8710 C   0  0  2  0  0  3  0  0  0  0  0  0
  191.7640  177.0650  148.0530 N   0  0  0  0  0  1  0  0  0  0  0  0
  190.5330  175.7710  146.4010 C   0  0  0  0  0  0  0  0  0  0  0  0
  193.6990  174.1720  145.7630 C   0  0  0  0  0  3  0  0  0  0  0  0
  189.4540  173.1490  144.1920 C   0  0  0  0  0  1  0  0  0  0  0  0
  186.4880  178.2130  147.2670 C   0  0  0  0  0  3  0  0  0  0  0  0
  187.2440  177.3700  146.3160 C   0  0  0  0  0  0  0  0  0  0  0  0
  190.5170  174.1530  143.7680 C   0  0  2  0  0  3  0  0  0  0  0  0
  187.4410  175.9940  140.4860 C   0  0  0  0  0  2  0  0  0  0  0  0
  185.6830  177.5410  140.0200 O   0  0  0  0  0  1  0  0  0  0  0  0
  187.0500  177.4450  140.2740 C   0  0  0  0  0  2  0  0  0  0  0  0
  1  5  1  6  0  0  0
  1  4  1  0  0  0  0
  1 19  1  0  0  0  0
  2 19  1  0  0  0  0
  2 13  1  0  0  0  0
  4 20  1  0  0  0  0
  6  8  1  0  0  0  0
  7  9  1  0  0  0  0
  8 12  1  0  0  0  0
  9 22  1  0  0  0  0
  9 14  1  0  0  0  0
 10  3  1  0  0  0  0
 10 21  1  0  0  0  0
 11  8  1  0  0  0  0
 11  5  1  0  0  0  0
 12 27  1  0  0  0  0
 12  4  1  0  0  0  0
 13 18  1  0  0  0  0
 15  7  2  0  0  0  0
 15 23  1  0  0  0  0
 16  2  2  0  0  0  0
 17  3  1  0  0  0  0
 18 25  2  0  0  0  0
 19 26  2  0  0  0  0
 20 22  1  0  0  0  0
 20 17  1  0  0  0  0
 22 10  2  0  0  0  0
 23 14  2  0  0  0  0
 26 17  1  0  0  0  0
 26 25  1  0  0  0  0
 27 24  1  0  0  0  0
 27  7  1  0  0  0  0
 28 11  1  0  0  0  0
 29 30  1  0  0  0  0
 30 28  1  0  0  0  0
M  END
>  <MODEL>
5

>  <REMARK>
 VINA RESULT:      -8.0      3.351      7.087
  Name = 
  2 active torsions:
  status: ('A' for Active; 'I' for Inactive)
    1  A    between atoms: C_11  and  C_28
    2  A    between atoms: C_28  and  C_30
                            x       y       z     vdW  Elec       q    Type
                         _______ _______ _______ _____ _____    ______ ____

>  <TORSDO>
F 2

$$$$
=
 OpenBabel11112416243D

 30 35  0  0  1  0  0  0  0  0999 V2000
  191.2860  174.8500  144.1750 C   0  0  2  0  0  3  0  0  0  0  0  0
  192.6040  174.0090  142.0770 C   0  0  0  0  0  0  0  0  0  0  0  0
  187.9650  175.3530  141.8490 N   0  0  0  0  0  2  0  0  0  0  0  0
  190.1160  175.8240  144.3740 C   0  0  2  0  0  3  0  0  0  0  0  0
  192.4940  175.4680  144.5470 O   0  0  0  0  0  0  0  0  0  0  0  0
  191.5210  176.8790  147.7330 O   0  0  0  0  0  1  0  0  0  0  0  0
  187.7120  176.7550  146.3950 C   0  0  0  0  0  0  0  0  0  0  0  0
  191.5550  176.7260  146.3440 C   0  0  1  0  0  3  0  0  0  0  0  0
  187.1350  176.7320  145.1980 C   0  0  0  0  0  0  0  0  0  0  0  0
  187.2630  176.1830  142.7570 C   0  0  0  0  0  0  0  0  0  0  0  0
  192.4710  175.5670  145.9480 C   0  0  2  0  0  3  0  0  0  0  0  0
  190.1440  176.5320  145.7580 C   0  0  2  0  0  3  0  0  0  0  0  0
  192.6850  173.8710  140.5860 C   0  0  0  0  0  2  0  0  0  0  0  0
  185.9350  177.4910  145.1950 N   0  0  0  0  0  0  0  0  0  0  0  0
  186.8890  177.5970  147.3050 C   0  0  0  0  0  2  0  0  0  0  0  0
  193.6410  173.8110  142.7620 O   0  0  0  0  0  0  0  0  0  0  0  0
  188.8180  174.4820  142.6450 C   0  0  2  0  0  3  0  0  0  0  0  0
  191.3520  173.5390  139.9800 C   0  0  0  0  0  3  0  0  0  0  0  0
  191.3250  174.4050  142.7230 C   0  0  0  0  0  0  0  0  0  0  0  0
  188.8110  175.0830  144.0640 C   0  0  2  0  0  3  0  0  0  0  0  0
  186.2320  177.0730  142.3390 N   0  0  0  0  0  1  0  0  0  0  0  0
  187.6760  176.0460  144.0060 C   0  0  0  0  0  0  0  0  0  0  0  0
  185.7800  177.9840  146.3790 C   0  0  0  0  0  3  0  0  0  0  0  0
  188.9610  174.6780  147.0710 C   0  0  0  0  0  1  0  0  0  0  0  0
  190.2070  173.7480  140.6310 C   0  0  0  0  0  3  0  0  0  0  0  0
  190.1770  174.2670  142.0160 C   0  0  0  0  0  0  0  0  0  0  0  0
  189.0440  176.1690  146.7760 C   0  0  2  0  0  3  0  0  0  0  0  0
  193.8810  175.8190  146.4640 C   0  0  0  0  0  2  0  0  0  0  0  0
  194.8610  177.8740  145.7420 O   0  0  0  0  0  1  0  0  0  0  0  0
  194.7250  176.5250  145.4190 C   0  0  0  0  0  2  0  0  0  0  0  0
  1 19  1  6  0  0  0
  1  4  1  0  0  0  0
  1  5  1  0  0  0  0
  2 19  1  0  0  0  0
  2 16  2  0  0  0  0
  3 17  1  0  0  0  0
  3 10  1  0  0  0  0
  4 12  1  0  0  0  0
  5 11  1  0  0  0  0
  7 27  1  0  0  0  0
  7 15  1  0  0  0  0
  8  6  1  0  0  0  0
  9  7  2  0  0  0  0
 10 22  2  0  0  0  0
 11  8  1  0  0  0  0
 11 28  1  0  0  0  0
 12  8  1  0  0  0  0
 12 27  1  0  0  0  0
 13  2  1  0  0  0  0
 14  9  1  0  0  0  0
 14 23  2  0  0  0  0
 17 20  1  0  0  0  0
 18 13  1  0  0  0  0
 18 25  2  0  0  0  0
 20  4  1  0  0  0  0
 21 10  1  0  0  0  0
 22 20  1  0  0  0  0
 22  9  1  0  0  0  0
 23 15  1  0  0  0  0
 25 26  1  0  0  0  0
 26 17  1  0  0  0  0
 26 19  2  0  0  0  0
 27 24  1  0  0  0  0
 30 29  1  0  0  0  0
 30 28  1  0  0  0  0
M  END
>  <MODEL>
6

>  <REMARK>
 VINA RESULT:      -8.0      1.435      1.833
  Name = 
  2 active torsions:
  status: ('A' for Active; 'I' for Inactive)
    1  A    between atoms: C_11  and  C_28
    2  A    between atoms: C_28  and  C_30
                            x       y       z     vdW  Elec       q    Type
                         _______ _______ _______ _____ _____    ______ ____

>  <TORSDO>
F 2

$$$$
=
 OpenBabel11112416243D

 30 35  0  0  1  0  0  0  0  0999 V2000
  189.1400  177.0420  145.7960 C   0  0  2  0  0  3  0  0  0  0  0  0
  186.8990  177.8290  146.8930 C   0  0  0  0  0  0  0  0  0  0  0  0
  187.0420  175.6450  142.5820 N   0  0  0  0  0  2  0  0  0  0  0  0
  189.5090  175.9060  144.8320 C   0  0  2  0  0  3  0  0  0  0  0  0
  189.5330  176.7080  147.1050 O   0  0  0  0  0  0  0  0  0  0  0  0
  192.9090  175.5710  146.4760 O   0  0  0  0  0  1  0  0  0  0  0  0
  191.7340  174.8240  142.6840 C   0  0  0  0  0  0  0  0  0  0  0  0
  191.5110  175.5460  146.4530 C   0  0  1  0  0  3  0  0  0  0  0  0
  190.5690  174.5850  142.0890 C   0  0  1  0  0  3  0  0  0  0  0  0
  188.0760  174.8260  142.0650 C   0  0  0  0  0  0  0  0  0  0  0  0
  190.9350  176.7900  147.1290 C   0  0  2  0  0  3  0  0  0  0  0  0
  190.9680  175.4010  145.0190 C   0  0  2  0  0  3  0  0  0  0  0  0
  185.3990  177.7840  146.9170 C   0  0  0  0  0  2  0  0  0  0  0  0
  190.7120  173.6270  141.0520 N   0  0  0  0  0  0  0  0  0  0  0  0
  192.7760  173.9710  142.0510 C   0  0  0  0  0  3  0  0  0  0  0  0
  187.5080  178.3010  147.8880 O   0  0  0  0  0  0  0  0  0  0  0  0
  187.6850  176.7530  143.2730 C   0  0  2  0  0  3  0  0  0  0  0  0
  184.8160  177.7870  145.5330 C   0  0  0  0  0  3  0  0  0  0  0  0
  187.6440  177.2950  145.7230 C   0  0  0  0  0  0  0  0  0  0  0  0
  189.1670  176.3500  143.4060 C   0  0  2  0  0  3  0  0  0  0  0  0
  187.8160  173.7170  141.2100 N   0  0  0  0  0  1  0  0  0  0  0  0
  189.2790  175.1980  142.4700 C   0  0  0  0  0  0  0  0  0  0  0  0
  191.9550  173.2720  141.0150 C   0  0  0  0  0  3  0  0  0  0  0  0
  192.0910  177.1640  143.5380 C   0  0  0  0  0  1  0  0  0  0  0  0
  185.5380  177.4590  144.4610 C   0  0  0  0  0  3  0  0  0  0  0  0
  186.9760  177.1280  144.5550 C   0  0  0  0  0  0  0  0  0  0  0  0
  191.9800  175.6870  143.8910 C   0  0  2  0  0  3  0  0  0  0  0  0
  191.4170  176.8680  148.5710 C   0  0  0  0  0  2  0  0  0  0  0  0
  191.5660  178.2850  150.4880 O   0  0  0  0  0  1  0  0  0  0  0  0
  191.1880  178.2540  149.1470 C   0  0  0  0  0  2  0  0  0  0  0  0
  1 19  1  1  0  0  0
  1  5  1  0  0  0  0
  2 13  1  0  0  0  0
  2 16  2  0  0  0  0
  3 17  1  0  0  0  0
  4 12  1  0  0  0  0
  4  1  1  0  0  0  0
  5 11  1  0  0  0  0
  7 27  1  0  0  0  0
  8  6  1  0  0  0  0
  8 11  1  0  0  0  0
  9 22  1  0  0  0  0
  9  7  1  0  0  0  0
 10 22  2  0  0  0  0
 10  3  1  0  0  0  0
 11 28  1  0  0  0  0
 12  8  1  0  0  0  0
 14  9  1  0  0  0  0
 15  7  2  0  0  0  0
 17 20  1  0  0  0  0
 17 26  1  0  0  0  0
 18 13  1  0  0  0  0
 19  2  1  0  0  0  0
 20  4  1  0  0  0  0
 21 10  1  0  0  0  0
 22 20  1  0  0  0  0
 23 14  2  0  0  0  0
 23 15  1  0  0  0  0
 24 27  1  0  0  0  0
 25 26  1  0  0  0  0
 25 18  2  0  0  0  0
 26 19  2  0  0  0  0
 27 12  1  0  0  0  0
 28 30  1  0  0  0  0
 30 29  1  0  0  0  0
M  END
>  <MODEL>
7

>  <REMARK>
 VINA RESULT:      -7.7      1.757      5.471
  Name = 
  2 active torsions:
  status: ('A' for Active; 'I' for Inactive)
    1  A    between atoms: C_11  and  C_28
    2  A    between atoms: C_28  and  C_30
                            x       y       z     vdW  Elec       q    Type
                         _______ _______ _______ _____ _____    ______ ____

>  <TORSDO>
F 2

$$$$
=
 OpenBabel11112416243D

 30 35  0  0  1  0  0  0  0  0999 V2000
  187.3110  176.4470  143.8780 C   0  0  2  0  0  3  0  0  0  0  0  0
  185.0270  177.7000  143.6310 C   0  0  0  0  0  0  0  0  0  0  0  0
  187.8300  178.1760  147.5420 N   0  0  0  0  0  2  0  0  0  0  0  0
  188.6220  176.7640  144.6100 C   0  0  2  0  0  3  0  0  0  0  0  0
  187.4610  176.6840  142.4990 O   0  0  0  0  0  0  0  0  0  0  0  0
  190.5990  174.9820  141.9100 O   0  0  0  0  0  1  0  0  0  0  0  0
  191.3840  175.4990  145.8390 C   0  0  0  0  0  0  0  0  0  0  0  0
  189.7340  175.9660  142.3980 C   0  0  1  0  0  3  0  0  0  0  0  0
  190.9720  176.3450  146.7770 C   0  0  1  0  0  3  0  0  0  0  0  0
  189.2170  177.9080  147.6460 C   0  0  0  0  0  0  0  0  0  0  0  0
  188.2870  175.6580  142.0120 C   0  0  2  0  0  3  0  0  0  0  0  0
  189.8680  176.1360  143.9230 C   0  0  2  0  0  3  0  0  0  0  0  0
  184.1000  178.7790  144.1090 C   0  0  0  0  0  2  0  0  0  0  0  0
  192.0290  176.6810  147.6620 N   0  0  0  0  0  0  0  0  0  0  0  0
  192.8310  175.2240  146.0470 C   0  0  0  0  0  3  0  0  0  0  0  0
  184.8130  177.1670  142.5120 O   0  0  0  0  0  0  0  0  0  0  0  0
  187.2540  177.1170  146.7260 C   0  0  2  0  0  3  0  0  0  0  0  0
  184.0880  178.8860  145.6060 C   0  0  0  0  0  3  0  0  0  0  0  0
  186.1950  177.2990  144.4590 C   0  0  0  0  0  0  0  0  0  0  0  0
  188.4550  176.3910  146.0870 C   0  0  2  0  0  3  0  0  0  0  0  0
  190.0810  178.6660  148.4870 N   0  0  0  0  0  1  0  0  0  0  0  0
  189.6070  176.9030  146.8790 C   0  0  0  0  0  0  0  0  0  0  0  0
  193.0870  176.0530  147.2650 C   0  0  0  0  0  3  0  0  0  0  0  0
  189.6890  173.8280  145.0210 C   0  0  0  0  0  1  0  0  0  0  0  0
  185.0650  178.3800  146.3600 C   0  0  0  0  0  3  0  0  0  0  0  0
  186.1960  177.6270  145.7740 C   0  0  0  0  0  0  0  0  0  0  0  0
  190.5980  174.9940  144.6590 C   0  0  2  0  0  3  0  0  0  0  0  0
  188.1610  175.5780  140.4960 C   0  0  0  0  0  2  0  0  0  0  0  0
  188.9200  174.0360  138.8380 O   0  0  0  0  0  1  0  0  0  0  0  0
  188.1920  174.1360  140.0220 C   0  0  0  0  0  2  0  0  0  0  0  0
  1  5  1  6  0  0  0
  1 19  1  0  0  0  0
  1  4  1  0  0  0  0
  2 13  1  0  0  0  0
  2 19  1  0  0  0  0
  3 10  1  0  0  0  0
  4 20  1  0  0  0  0
  6  8  1  0  0  0  0
  7 15  2  0  0  0  0
  7  9  1  0  0  0  0
  8 12  1  0  0  0  0
  9 22  1  0  0  0  0
  9 14  1  0  0  0  0
 10 21  1  0  0  0  0
 11  8  1  0  0  0  0
 11  5  1  0  0  0  0
 12  4  1  0  0  0  0
 12 27  1  0  0  0  0
 13 18  1  0  0  0  0
 15 23  1  0  0  0  0
 16  2  2  0  0  0  0
 17  3  1  0  0  0  0
 18 25  2  0  0  0  0
 19 26  2  0  0  0  0
 20 17  1  0  0  0  0
 20 22  1  0  0  0  0
 22 10  2  0  0  0  0
 23 14  2  0  0  0  0
 26 25  1  0  0  0  0
 26 17  1  0  0  0  0
 27 24  1  0  0  0  0
 27  7  1  0  0  0  0
 28 11  1  0  0  0  0
 29 30  1  0  0  0  0
 30 28  1  0  0  0  0
M  END
>  <MODEL>
8

>  <REMARK>
 VINA RESULT:      -7.5      3.148      6.775
  Name = 
  2 active torsions:
  status: ('A' for Active; 'I' for Inactive)
    1  A    between atoms: C_11  and  C_28
    2  A    between atoms: C_28  and  C_30
                            x       y       z     vdW  Elec       q    Type
                         _______ _______ _______ _____ _____    ______ ____

>  <TORSDO>
F 2

$$$$
=
 OpenBabel11112416243D

 30 35  0  0  1  0  0  0  0  0999 V2000
  188.0130  175.6550  143.2200 C   0  0  2  0  0  3  0  0  0  0  0  0
  186.1440  177.4860  143.1730 C   0  0  0  0  0  0  0  0  0  0  0  0
  189.3510  177.1540  146.7760 N   0  0  0  0  0  2  0  0  0  0  0  0
  189.4290  175.5980  143.8120 C   0  0  2  0  0  3  0  0  0  0  0  0
  188.0820  175.8510  141.8280 O   0  0  0  0  0  0  0  0  0  0  0  0
  190.5620  173.3610  140.9680 O   0  0  0  0  0  1  0  0  0  0  0  0
  191.8510  173.6200  144.7880 C   0  0  0  0  0  0  0  0  0  0  0  0
  190.0520  174.5410  141.5180 C   0  0  1  0  0  3  0  0  0  0  0  0
  191.7820  174.5400  145.7440 C   0  0  1  0  0  3  0  0  0  0  0  0
  190.6160  176.5170  146.7480 C   0  0  0  0  0  0  0  0  0  0  0  0
  188.5440  174.6410  141.2830 C   0  0  2  0  0  3  0  0  0  0  0  0
  190.3810  174.6580  143.0180 C   0  0  2  0  0  3  0  0  0  0  0  0
  185.5980  178.7730  143.7160 C   0  0  0  0  0  2  0  0  0  0  0  0
  192.9750  174.5690  146.5130 N   0  0  0  0  0  0  0  0  0  0  0  0
  193.1820  172.9590  144.8570 C   0  0  0  0  0  3  0  0  0  0  0  0
  185.6800  177.0380  142.0930 O   0  0  0  0  0  0  0  0  0  0  0  0
  188.4290  176.2970  146.0440 C   0  0  2  0  0  3  0  0  0  0  0  0
  185.7680  178.8700  145.2050 C   0  0  0  0  0  3  0  0  0  0  0  0
  187.2350  176.7760  143.8890 C   0  0  0  0  0  0  0  0  0  0  0  0
  189.3160  175.2760  145.3050 C   0  0  2  0  0  3  0  0  0  0  0  0
  191.7340  177.0060  147.4830 N   0  0  0  0  0  1  0  0  0  0  0  0
  190.6380  175.4490  145.9680 C   0  0  0  0  0  0  0  0  0  0  0  0
  193.7760  173.6790  146.0270 C   0  0  0  0  0  3  0  0  0  0  0  0
  189.6930  172.4800  144.1780 C   0  0  0  0  0  1  0  0  0  0  0  0
  186.6410  178.1120  145.8690 C   0  0  0  0  0  3  0  0  0  0  0  0
  187.4590  177.0830  145.1910 C   0  0  0  0  0  0  0  0  0  0  0  0
  190.8430  173.3560  143.7030 C   0  0  2  0  0  3  0  0  0  0  0  0
  188.2480  174.6090  139.7890 C   0  0  0  0  0  2  0  0  0  0  0  0
  188.5050  173.1460  137.9200 O   0  0  0  0  0  1  0  0  0  0  0  0
  188.1910  173.1810  139.2770 C   0  0  0  0  0  2  0  0  0  0  0  0
  1  5  1  6  0  0  0
  1  4  1  0  0  0  0
  1 19  1  0  0  0  0
  2 13  1  0  0  0  0
  2 19  1  0  0  0  0
  4 20  1  0  0  0  0
  6  8  1  0  0  0  0
  7 15  2  0  0  0  0
  7  9  1  0  0  0  0
  8 12  1  0  0  0  0
  9 22  1  0  0  0  0
  9 14  1  0  0  0  0
 10  3  1  0  0  0  0
 10 21  1  0  0  0  0
 11  8  1  0  0  0  0
 11  5  1  0  0  0  0
 12 27  1  0  0  0  0
 12  4  1  0  0  0  0
 13 18  1  0  0  0  0
 15 23  1  0  0  0  0
 16  2  2  0  0  0  0
 17  3  1  0  0  0  0
 18 25  2  0  0  0  0
 19 26  2  0  0  0  0
 20 22  1  0  0  0  0
 20 17  1  0  0  0  0
 22 10  2  0  0  0  0
 23 14  2  0  0  0  0
 26 25  1  0  0  0  0
 26 17  1  0  0  0  0
 27 24  1  0  0  0  0
 27  7  1  0  0  0  0
 28 11  1  0  0  0  0
 29 30  1  0  0  0  0
 30 28  1  0  0  0  0
M  END
>  <MODEL>
9

>  <REMARK>
 VINA RESULT:      -7.4      3.292      7.002
  Name = 
  2 active torsions:
  status: ('A' for Active; 'I' for Inactive)
    1  A    between atoms: C_11  and  C_28
    2  A    between atoms: C_28  and  C_30
                            x       y       z     vdW  Elec       q    Type
                         _______ _______ _______ _____ _____    ______ ____

>  <TORSDO>
F 2

$$$$
