=
 OpenBabel11112416503D

 31 36  0  0  1  0  0  0  0  0999 V2000
  186.2000  178.1700  146.8820 C   0  0  0  0  0  0  0  0  0  0  0  0
  189.1620  177.8750  144.5230 C   0  0  2  0  0  3  0  0  0  0  0  0
  190.3520  177.4510  145.4220 C   0  0  1  0  0  3  0  0  0  0  0  0
  191.3020  176.2060  147.3560 C   0  0  1  0  0  3  0  0  0  0  0  0
  187.8060  177.6500  145.1390 C   0  0  0  0  0  0  0  0  0  0  0  0
  185.3420  177.1840  146.3910 C   0  0  0  0  0  3  0  0  0  0  0  0
  190.0710  176.3640  146.4600 C   0  0  0  0  0  2  0  0  0  0  0  0
  188.7340  175.9080  143.0150 C   0  0  2  0  0  3  0  0  0  0  0  0
  185.8340  178.9190  147.9920 O   0  0  0  0  0  1  0  0  0  0  0  0
  191.6740  177.8670  143.4840 O   0  0  0  0  0  0  0  0  0  0  0  0
  191.0600  175.0970  148.3580 C   0  0  0  0  0  1  0  0  0  0  0  0
  187.2490  175.8940  143.3870 C   0  0  0  0  0  2  0  0  0  0  0  0
  189.2670  177.3490  143.0730 C   0  0  2  0  0  3  0  0  0  0  0  0
  187.4280  178.4030  146.2580 C   0  0  0  0  0  3  0  0  0  0  0  0
  192.5580  175.8880  146.5320 C   0  0  0  0  0  2  0  0  0  0  0  0
  186.9410  176.6490  144.6480 C   0  0  0  0  0  0  0  0  0  0  0  0
  185.7090  176.4320  145.2730 C   0  0  0  0  0  3  0  0  0  0  0  0
  190.7190  177.4530  142.5290 C   0  0  0  0  0  2  0  0  0  0  0  0
  191.5320  176.9990  144.5710 C   0  0  1  0  0  3  0  0  0  0  0  0
  192.7820  176.9320  145.4320 C   0  0  0  0  0  2  0  0  0  0  0  0
  188.2940  174.0770  141.7390 O   0  0  0  0  0  0  0  0  0  0  0  0
  189.6470  174.1020  141.8250 C   0  0  2  0  0  3  0  0  0  0  0  0
  188.8920  175.3260  141.6860 N   0  0  2  0  0  0  0  0  0  0  0  0
  191.3540  171.0640  140.8640 C   0  0  1  0  0  3  0  0  0  0  0  0
  189.6090  172.2980  140.1000 C   0  0  0  0  0  2  0  0  0  0  0  0
  192.3970  174.6360  140.9350 O   0  0  0  0  0  1  0  0  0  0  0  0
  191.7540  169.8470  141.6710 C   0  0  0  0  0  1  0  0  0  0  0  0
  189.9770  171.3060  141.0340 O   0  0  0  0  0  0  0  0  0  0  0  0
  191.7490  173.4810  140.4970 C   0  0  2  0  0  3  0  0  0  0  0  0
  190.2230  173.6490  140.4830 C   0  0  2  0  0  3  0  0  0  0  0  0
  192.1660  172.2720  141.3300 C   0  0  0  0  0  2  0  0  0  0  0  0
  1  9  1  0  0  0  0
  2  5  1  1  0  0  0
  2  3  1  0  0  0  0
  3  7  1  1  0  0  0
  4 11  1  1  0  0  0
  5 14  1  0  0  0  0
  6  1  1  0  0  0  0
  7  4  1  0  0  0  0
  8 13  1  0  0  0  0
  8 12  1  6  0  0  0
 10 19  1  0  0  0  0
 12 16  1  0  0  0  0
 13 18  1  1  0  0  0
 13  2  1  0  0  0  0
 14  1  2  0  0  0  0
 15  4  1  0  0  0  0
 16  5  2  0  0  0  0
 16 17  1  0  0  0  0
 17  6  2  0  0  0  0
 18 10  1  0  0  0  0
 19  3  1  0  0  0  0
 19 20  1  1  0  0  0
 20 15  1  0  0  0  0
 22 21  1  6  0  0  0
 23 21  1  1  0  0  0
 23 22  1  0  0  0  0
 23  8  1  0  0  0  0
 24 28  1  0  0  0  0
 24 31  1  0  0  0  0
 24 27  1  1  0  0  0
 25 28  1  0  0  0  0
 29 26  1  1  0  0  0
 29 31  1  0  0  0  0
 30 25  1  1  0  0  0
 30 29  1  0  0  0  0
 30 22  1  0  0  0  0
M  END
>  <MODEL>
1

>  <REMARK>
 VINA RESULT:      -7.4      0.000      0.000
  Name = 
  2 active torsions:
  status: ('A' for Active; 'I' for Inactive)
    1  A    between atoms: C_5  and  C_30
    2  A    between atoms: C_10  and  N_16
                            x       y       z     vdW  Elec       q    Type
                         _______ _______ _______ _____ _____    ______ ____

>  <TORSDO>
F 2

$$$$
=
 OpenBabel11112416503D

 31 36  0  0  1  0  0  0  0  0999 V2000
  196.8310  170.8630  145.2770 C   0  0  0  0  0  0  0  0  0  0  0  0
  195.9820  174.5550  145.0050 C   0  0  2  0  0  3  0  0  0  0  0  0
  196.2690  174.9270  143.5280 C   0  0  1  0  0  3  0  0  0  0  0  0
  196.3070  174.3820  141.1000 C   0  0  1  0  0  3  0  0  0  0  0  0
  195.8390  173.0770  145.2590 C   0  0  0  0  0  0  0  0  0  0  0  0
  195.5930  170.3060  145.6040 C   0  0  0  0  0  3  0  0  0  0  0  0
  195.7860  173.9360  142.4680 C   0  0  0  0  0  2  0  0  0  0  0  0
  193.4910  174.7790  145.2760 C   0  0  2  0  0  3  0  0  0  0  0  0
  197.9410  170.0440  145.1220 O   0  0  0  0  0  1  0  0  0  0  0  0
  195.9330  177.1690  144.2610 O   0  0  0  0  0  0  0  0  0  0  0  0
  195.7960  173.4400  140.0310 C   0  0  0  0  0  1  0  0  0  0  0  0
  193.3870  173.3710  145.8680 C   0  0  0  0  0  2  0  0  0  0  0  0
  194.8510  175.3950  145.6440 C   0  0  2  0  0  3  0  0  0  0  0  0
  196.9540  172.2440  145.1060 C   0  0  0  0  0  3  0  0  0  0  0  0
  195.8680  175.8170  140.7730 C   0  0  0  0  0  2  0  0  0  0  0  0
  194.5870  172.5130  145.5820 C   0  0  0  0  0  0  0  0  0  0  0  0
  194.4760  171.1300  145.7630 C   0  0  0  0  0  3  0  0  0  0  0  0
  194.9440  176.8890  145.2300 C   0  0  0  0  0  2  0  0  0  0  0  0
  195.6860  176.2950  143.1970 C   0  0  1  0  0  3  0  0  0  0  0  0
  196.2720  176.7900  141.8850 C   0  0  0  0  0  2  0  0  0  0  0  0
  191.2570  174.7760  145.7000 O   0  0  0  0  0  0  0  0  0  0  0  0
  191.4050  175.7000  144.7180 C   0  0  2  0  0  3  0  0  0  0  0  0
  192.3810  175.5830  145.7760 N   0  0  2  0  0  0  0  0  0  0  0  0
  188.3600  176.6830  143.0370 C   0  0  1  0  0  3  0  0  0  0  0  0
  189.0190  176.2780  145.1690 C   0  0  0  0  0  2  0  0  0  0  0  0
  191.6350  178.3800  143.5340 O   0  0  0  0  0  1  0  0  0  0  0  0
  187.6600  176.1070  141.8240 C   0  0  0  0  0  1  0  0  0  0  0  0
  188.5760  175.6610  143.9810 O   0  0  0  0  0  0  0  0  0  0  0  0
  190.3720  177.8770  143.8460 C   0  0  2  0  0  3  0  0  0  0  0  0
  190.4300  176.8470  144.9840 C   0  0  2  0  0  3  0  0  0  0  0  0
  189.6910  177.2990  142.6090 C   0  0  0  0  0  2  0  0  0  0  0  0
  1  6  1  0  0  0  0
  2  5  1  6  0  0  0
  2 13  1  0  0  0  0
  3  7  1  6  0  0  0
  3  2  1  0  0  0  0
  4 11  1  6  0  0  0
  4  7  1  0  0  0  0
  5 16  2  0  0  0  0
  6 17  2  0  0  0  0
  8 13  1  0  0  0  0
  8 23  1  0  0  0  0
  8 12  1  1  0  0  0
  9  1  1  0  0  0  0
 10 18  1  0  0  0  0
 13 18  1  6  0  0  0
 14  5  1  0  0  0  0
 14  1  2  0  0  0  0
 15  4  1  0  0  0  0
 15 20  1  0  0  0  0
 16 17  1  0  0  0  0
 16 12  1  0  0  0  0
 19 20  1  6  0  0  0
 19  3  1  0  0  0  0
 19 10  1  0  0  0  0
 22 30  1  0  0  0  0
 22 21  1  1  0  0  0
 22 23  1  0  0  0  0
 23 21  1  1  0  0  0
 24 27  1  6  0  0  0
 24 28  1  0  0  0  0
 28 25  1  0  0  0  0
 29 26  1  6  0  0  0
 29 30  1  0  0  0  0
 30 25  1  6  0  0  0
 31 24  1  0  0  0  0
 31 29  1  0  0  0  0
M  END
>  <MODEL>
2

>  <REMARK>
 VINA RESULT:      -7.4      3.983      7.796
  Name = 
  2 active torsions:
  status: ('A' for Active; 'I' for Inactive)
    1  A    between atoms: C_5  and  C_30
    2  A    between atoms: C_10  and  N_16
                            x       y       z     vdW  Elec       q    Type
                         _______ _______ _______ _____ _____    ______ ____

>  <TORSDO>
F 2

$$$$
=
 OpenBabel11112416503D

 31 36  0  0  1  0  0  0  0  0999 V2000
  185.5250  178.4910  144.8120 C   0  0  0  0  0  0  0  0  0  0  0  0
  189.1550  177.7090  144.0150 C   0  0  2  0  0  3  0  0  0  0  0  0
  189.7190  177.0580  145.3030 C   0  0  1  0  0  3  0  0  0  0  0  0
  189.4710  175.6200  147.3210 C   0  0  1  0  0  3  0  0  0  0  0  0
  187.6510  177.7230  143.9310 C   0  0  0  0  0  0  0  0  0  0  0  0
  184.8490  177.6890  143.8910 C   0  0  0  0  0  3  0  0  0  0  0  0
  188.8300  176.0180  145.9890 C   0  0  0  0  0  2  0  0  0  0  0  0
  189.1730  175.8840  142.2830 C   0  0  2  0  0  3  0  0  0  0  0  0
  184.8090  179.2720  145.7090 O   0  0  0  0  0  1  0  0  0  0  0  0
  191.8300  177.2650  144.2170 O   0  0  0  0  0  0  0  0  0  0  0  0
  188.6300  174.5540  147.9900 C   0  0  0  0  0  1  0  0  0  0  0  0
  187.7000  176.1330  141.9460 C   0  0  0  0  0  2  0  0  0  0  0  0
  189.8330  177.2030  142.7200 C   0  0  2  0  0  3  0  0  0  0  0  0
  186.9220  178.5090  144.8320 C   0  0  0  0  0  3  0  0  0  0  0  0
  190.9010  175.0960  147.1200 C   0  0  0  0  0  2  0  0  0  0  0  0
  186.9670  176.9070  143.0060 C   0  0  0  0  0  0  0  0  0  0  0  0
  185.5690  176.9050  142.9860 C   0  0  0  0  0  3  0  0  0  0  0  0
  191.3690  177.0520  142.8990 C   0  0  0  0  0  2  0  0  0  0  0  0
  191.0730  176.4150  145.0300 C   0  0  1  0  0  3  0  0  0  0  0  0
  191.7610  176.1040  146.3490 C   0  0  0  0  0  2  0  0  0  0  0  0
  189.0050  174.2920  140.6680 O   0  0  0  0  0  0  0  0  0  0  0  0
  190.0890  173.9160  141.3910 C   0  0  2  0  0  3  0  0  0  0  0  0
  189.8330  175.3100  141.1150 N   0  0  2  0  0  0  0  0  0  0  0  0
  191.2950  170.5410  140.9170 C   0  0  1  0  0  3  0  0  0  0  0  0
  190.4980  172.2160  139.6100 C   0  0  0  0  0  2  0  0  0  0  0  0
  192.9550  173.6910  142.0010 O   0  0  0  0  0  1  0  0  0  0  0  0
  190.9490  169.2500  141.6270 C   0  0  0  0  0  1  0  0  0  0  0  0
  190.1140  171.1480  140.4480 O   0  0  0  0  0  0  0  0  0  0  0  0
  192.3640  172.7630  141.1440 C   0  0  2  0  0  3  0  0  0  0  0  0
  191.1330  173.3420  140.4320 C   0  0  2  0  0  3  0  0  0  0  0  0
  192.0220  171.4740  141.8850 C   0  0  0  0  0  2  0  0  0  0  0  0
  1 14  1  0  0  0  0
  1  9  1  0  0  0  0
  2  5  1  6  0  0  0
  2  3  1  0  0  0  0
  3  7  1  6  0  0  0
  4 11  1  6  0  0  0
  5 14  2  0  0  0  0
  6  1  2  0  0  0  0
  7  4  1  0  0  0  0
  8 12  1  6  0  0  0
  8 13  1  0  0  0  0
 10 19  1  0  0  0  0
 12 16  1  0  0  0  0
 13 18  1  1  0  0  0
 13  2  1  0  0  0  0
 15  4  1  0  0  0  0
 16  5  1  0  0  0  0
 17 16  2  0  0  0  0
 17  6  1  0  0  0  0
 18 10  1  0  0  0  0
 19  3  1  0  0  0  0
 19 20  1  1  0  0  0
 20 15  1  0  0  0  0
 22 21  1  6  0  0  0
 23 21  1  6  0  0  0
 23 22  1  0  0  0  0
 23  8  1  0  0  0  0
 24 27  1  1  0  0  0
 24 31  1  0  0  0  0
 25 28  1  0  0  0  0
 28 24  1  0  0  0  0
 29 31  1  0  0  0  0
 29 26  1  1  0  0  0
 30 25  1  1  0  0  0
 30 29  1  0  0  0  0
 30 22  1  0  0  0  0
M  END
>  <MODEL>
3

>  <REMARK>
 VINA RESULT:      -7.3      1.295      1.466
  Name = 
  2 active torsions:
  status: ('A' for Active; 'I' for Inactive)
    1  A    between atoms: C_5  and  C_30
    2  A    between atoms: C_10  and  N_16
                            x       y       z     vdW  Elec       q    Type
                         _______ _______ _______ _____ _____    ______ ____

>  <TORSDO>
F 2

$$$$
=
 OpenBabel11112416503D

 31 36  0  0  1  0  0  0  0  0999 V2000
  186.2300  178.2140  147.4600 C   0  0  0  0  0  0  0  0  0  0  0  0
  188.3490  175.4600  145.9260 C   0  0  2  0  0  3  0  0  0  0  0  0
  188.1410  175.5970  144.3970 C   0  0  1  0  0  3  0  0  0  0  0  0
  187.7830  176.9640  142.3480 C   0  0  1  0  0  3  0  0  0  0  0  0
  187.9580  176.6800  146.7190 C   0  0  0  0  0  0  0  0  0  0  0  0
  187.1960  179.0070  148.0830 C   0  0  0  0  0  3  0  0  0  0  0  0
  188.1760  177.0160  143.8270 C   0  0  0  0  0  2  0  0  0  0  0  0
  190.7620  176.0510  146.3260 C   0  0  2  0  0  3  0  0  0  0  0  0
  184.8920  178.5780  147.5150 O   0  0  0  0  0  1  0  0  0  0  0  0
  189.3080  173.5220  144.2780 O   0  0  0  0  0  0  0  0  0  0  0  0
  187.8610  178.3550  141.7540 C   0  0  0  0  0  1  0  0  0  0  0  0
  190.3760  177.0700  147.4020 C   0  0  0  0  0  2  0  0  0  0  0  0
  189.7390  174.9030  146.3130 C   0  0  2  0  0  3  0  0  0  0  0  0
  186.6100  177.0530  146.7810 C   0  0  0  0  0  3  0  0  0  0  0  0
  188.6970  176.0160  141.5580 C   0  0  0  0  0  2  0  0  0  0  0  0
  188.9340  177.4850  147.3430 C   0  0  0  0  0  0  0  0  0  0  0  0
  188.5420  178.6390  148.0300 C   0  0  0  0  0  3  0  0  0  0  0  0
  190.1760  173.7480  145.3700 C   0  0  0  0  0  2  0  0  0  0  0  0
  189.1640  174.7590  143.6400 C   0  0  1  0  0  3  0  0  0  0  0  0
  188.7320  174.6210  142.1890 C   0  0  0  0  0  2  0  0  0  0  0  0
  192.9460  176.6700  146.4650 O   0  0  0  0  0  0  0  0  0  0  0  0
  192.9120  175.8090  145.4170 C   0  0  2  0  0  3  0  0  0  0  0  0
  192.1130  175.5700  146.5960 N   0  0  2  0  0  0  0  0  0  0  0  0
  195.7830  175.7940  143.2200 C   0  0  1  0  0  3  0  0  0  0  0  0
  195.4060  175.9140  145.4540 C   0  0  0  0  0  2  0  0  0  0  0  0
  193.2280  173.2210  144.0610 O   0  0  0  0  0  1  0  0  0  0  0  0
  196.0840  176.5910  141.9680 C   0  0  0  0  0  1  0  0  0  0  0  0
  195.4570  176.6760  144.2680 O   0  0  0  0  0  0  0  0  0  0  0  0
  194.3400  174.0490  144.2210 C   0  0  2  0  0  3  0  0  0  0  0  0
  194.1940  174.9760  145.4360 C   0  0  2  0  0  3  0  0  0  0  0  0
  194.6180  174.8430  142.9480 C   0  0  0  0  0  2  0  0  0  0  0  0
  1  9  1  0  0  0  0
  1  6  1  0  0  0  0
  2 13  1  0  0  0  0
  2  5  1  1  0  0  0
  3  7  1  6  0  0  0
  3  2  1  0  0  0  0
  4 11  1  6  0  0  0
  4  7  1  0  0  0  0
  5 14  1  0  0  0  0
  5 16  2  0  0  0  0
  8 23  1  0  0  0  0
  8 12  1  1  0  0  0
 10 18  1  0  0  0  0
 13 18  1  6  0  0  0
 13  8  1  0  0  0  0
 14  1  2  0  0  0  0
 15 20  1  0  0  0  0
 15  4  1  0  0  0  0
 16 12  1  0  0  0  0
 16 17  1  0  0  0  0
 17  6  2  0  0  0  0
 19 20  1  6  0  0  0
 19 10  1  0  0  0  0
 19  3  1  0  0  0  0
 22 30  1  0  0  0  0
 22 21  1  1  0  0  0
 22 23  1  0  0  0  0
 23 21  1  1  0  0  0
 24 27  1  6  0  0  0
 24 28  1  0  0  0  0
 28 25  1  0  0  0  0
 29 26  1  6  0  0  0
 29 30  1  0  0  0  0
 30 25  1  6  0  0  0
 31 24  1  0  0  0  0
 31 29  1  0  0  0  0
M  END
>  <MODEL>
4

>  <REMARK>
 VINA RESULT:      -7.3      2.706      5.174
  Name = 
  2 active torsions:
  status: ('A' for Active; 'I' for Inactive)
    1  A    between atoms: C_5  and  C_30
    2  A    between atoms: C_10  and  N_16
                            x       y       z     vdW  Elec       q    Type
                         _______ _______ _______ _____ _____    ______ ____

>  <TORSDO>
F 2

$$$$
=
 OpenBabel11112416503D

 31 36  0  0  1  0  0  0  0  0999 V2000
  187.2270  177.2480  141.2670 C   0  0  0  0  0  0  0  0  0  0  0  0
  188.7920  174.3130  143.1010 C   0  0  2  0  0  3  0  0  0  0  0  0
  189.2080  173.3190  141.9880 C   0  0  1  0  0  3  0  0  0  0  0  0
  190.0630  172.8190  139.7050 C   0  0  1  0  0  3  0  0  0  0  0  0
  188.5380  175.7180  142.6180 C   0  0  0  0  0  0  0  0  0  0  0  0
  188.0950  178.2910  141.5990 C   0  0  0  0  0  3  0  0  0  0  0  0
  189.8860  173.9180  140.7550 C   0  0  0  0  0  2  0  0  0  0  0  0
  190.9490  175.1190  144.1160 C   0  0  2  0  0  3  0  0  0  0  0  0
  186.1450  177.4860  140.4310 O   0  0  0  0  0  1  0  0  0  0  0  0
  189.6320  171.8220  143.7940 O   0  0  0  0  0  0  0  0  0  0  0  0
  190.7790  173.3830  138.4960 C   0  0  0  0  0  1  0  0  0  0  0  0
  190.5350  176.5820  143.9350 C   0  0  0  0  0  2  0  0  0  0  0  0
  189.6990  174.2540  144.3520 C   0  0  2  0  0  3  0  0  0  0  0  0
  187.4480  175.9660  141.7750 C   0  0  0  0  0  3  0  0  0  0  0  0
  190.8600  171.6310  140.2650 C   0  0  0  0  0  2  0  0  0  0  0  0
  189.4180  176.7700  142.9470 C   0  0  0  0  0  0  0  0  0  0  0  0
  189.1830  178.0530  142.4430 C   0  0  0  0  0  3  0  0  0  0  0  0
  190.0670  172.7910  144.7250 C   0  0  0  0  0  2  0  0  0  0  0  0
  190.1220  172.2370  142.5510 C   0  0  1  0  0  3  0  0  0  0  0  0
  190.2270  171.0950  141.5540 C   0  0  0  0  0  2  0  0  0  0  0  0
  192.8020  176.0530  145.0440 O   0  0  0  0  0  0  0  0  0  0  0  0
  193.2060  174.8110  144.6810 C   0  0  2  0  0  3  0  0  0  0  0  0
  191.8880  175.0290  145.2290 N   0  0  2  0  0  0  0  0  0  0  0  0
  196.7640  174.1830  144.5760 C   0  0  1  0  0  3  0  0  0  0  0  0
  195.3160  175.2890  145.9260 C   0  0  0  0  0  2  0  0  0  0  0  0
  193.8200  171.9690  145.1090 O   0  0  0  0  0  1  0  0  0  0  0  0
  197.7690  174.3250  143.4520 C   0  0  0  0  0  1  0  0  0  0  0  0
  196.0700  175.3970  144.7390 O   0  0  0  0  0  0  0  0  0  0  0  0
  194.7920  172.9280  145.3930 C   0  0  2  0  0  3  0  0  0  0  0  0
  194.1710  174.2860  145.7460 C   0  0  2  0  0  3  0  0  0  0  0  0
  195.7880  173.0540  144.2440 C   0  0  0  0  0  2  0  0  0  0  0  0
  1  6  2  0  0  0  0
  1 14  1  0  0  0  0
  2  5  1  6  0  0  0
  2 13  1  0  0  0  0
  3  7  1  6  0  0  0
  3 19  1  0  0  0  0
  3  2  1  0  0  0  0
  4 11  1  6  0  0  0
  4 15  1  0  0  0  0
  4  7  1  0  0  0  0
  5 16  1  0  0  0  0
  6 17  1  0  0  0  0
  8 12  1  1  0  0  0
  8 13  1  0  0  0  0
  8 23  1  0  0  0  0
  9  1  1  0  0  0  0
 10 18  1  0  0  0  0
 13 18  1  6  0  0  0
 14  5  2  0  0  0  0
 15 20  1  0  0  0  0
 16 12  1  0  0  0  0
 17 16  2  0  0  0  0
 19 20  1  6  0  0  0
 19 10  1  0  0  0  0
 22 21  1  1  0  0  0
 22 23  1  0  0  0  0
 22 30  1  0  0  0  0
 23 21  1  6  0  0  0
 24 27  1  6  0  0  0
 24 28  1  0  0  0  0
 28 25  1  0  0  0  0
 29 26  1  6  0  0  0
 29 30  1  0  0  0  0
 30 25  1  6  0  0  0
 31 24  1  0  0  0  0
 31 29  1  0  0  0  0
M  END
>  <MODEL>
5

>  <REMARK>
 VINA RESULT:      -7.2      3.122      6.090
  Name = 
  2 active torsions:
  status: ('A' for Active; 'I' for Inactive)
    1  A    between atoms: C_5  and  C_30
    2  A    between atoms: C_10  and  N_16
                            x       y       z     vdW  Elec       q    Type
                         _______ _______ _______ _____ _____    ______ ____

>  <TORSDO>
F 2

$$$$
=
 OpenBabel11112416503D

 31 36  0  0  1  0  0  0  0  0999 V2000
  187.7500  176.6780  142.2000 C   0  0  0  0  0  0  0  0  0  0  0  0
  191.2870  176.6940  143.5870 C   0  0  2  0  0  3  0  0  0  0  0  0
  191.1180  176.5430  145.1200 C   0  0  1  0  0  3  0  0  0  0  0  0
  189.9490  175.6230  147.1150 C   0  0  1  0  0  3  0  0  0  0  0  0
  190.0740  176.2970  142.7850 C   0  0  0  0  0  0  0  0  0  0  0  0
  187.7580  175.5300  141.4060 C   0  0  0  0  0  3  0  0  0  0  0  0
  190.0990  175.5070  145.5960 C   0  0  0  0  0  2  0  0  0  0  0  0
  192.4060  174.5730  142.8270 C   0  0  2  0  0  3  0  0  0  0  0  0
  186.5950  177.4400  142.3080 O   0  0  0  0  0  1  0  0  0  0  0  0
  193.4520  177.0200  145.1980 O   0  0  0  0  0  0  0  0  0  0  0  0
  188.9810  174.5700  147.6110 C   0  0  0  0  0  1  0  0  0  0  0  0
  191.3350  174.3430  141.7560 C   0  0  0  0  0  2  0  0  0  0  0  0
  192.6000  176.0820  143.0470 C   0  0  2  0  0  3  0  0  0  0  0  0
  188.9050  177.0610  142.8870 C   0  0  0  0  0  3  0  0  0  0  0  0
  191.3000  175.4540  147.8270 C   0  0  0  0  0  2  0  0  0  0  0  0
  190.0790  175.1330  141.9880 C   0  0  0  0  0  0  0  0  0  0  0  0
  188.9210  174.7640  141.2950 C   0  0  0  0  0  3  0  0  0  0  0  0
  193.8010  176.3820  143.9870 C   0  0  0  0  0  2  0  0  0  0  0  0
  192.4560  176.2260  145.7770 C   0  0  1  0  0  3  0  0  0  0  0  0
  192.3440  176.4320  147.2780 C   0  0  0  0  0  2  0  0  0  0  0  0
  193.3380  172.5810  142.2460 O   0  0  0  0  0  0  0  0  0  0  0  0
  193.9800  172.9260  143.3900 C   0  0  2  0  0  3  0  0  0  0  0  0
  193.6430  173.9240  142.4030 N   0  0  2  0  0  0  0  0  0  0  0  0
  195.9150  170.4950  145.2380 C   0  0  1  0  0  3  0  0  0  0  0  0
  195.5090  170.9800  143.0600 C   0  0  0  0  0  2  0  0  0  0  0  0
  196.2030  174.1850  144.8430 O   0  0  0  0  0  1  0  0  0  0  0  0
  195.5430  169.6000  146.4010 C   0  0  0  0  0  1  0  0  0  0  0  0
  194.9980  170.3030  144.1880 O   0  0  0  0  0  0  0  0  0  0  0  0
  196.2830  172.8330  144.5100 C   0  0  2  0  0  3  0  0  0  0  0  0
  195.4430  172.4970  143.2700 C   0  0  2  0  0  3  0  0  0  0  0  0
  195.8990  171.9540  145.6960 C   0  0  0  0  0  2  0  0  0  0  0  0
  1  9  1  0  0  0  0
  1 14  1  0  0  0  0
  2  5  1  6  0  0  0
  2  3  1  0  0  0  0
  3  7  1  6  0  0  0
  3 19  1  0  0  0  0
  4 11  1  1  0  0  0
  4 15  1  0  0  0  0
  5 14  2  0  0  0  0
  6  1  2  0  0  0  0
  7  4  1  0  0  0  0
  8 12  1  6  0  0  0
  8 13  1  0  0  0  0
 10 19  1  0  0  0  0
 12 16  1  0  0  0  0
 13  2  1  0  0  0  0
 13 18  1  1  0  0  0
 16  5  1  0  0  0  0
 17  6  1  0  0  0  0
 17 16  2  0  0  0  0
 18 10  1  0  0  0  0
 19 20  1  1  0  0  0
 20 15  1  0  0  0  0
 22 21  1  6  0  0  0
 23 21  1  6  0  0  0
 23  8  1  0  0  0  0
 23 22  1  0  0  0  0
 24 31  1  0  0  0  0
 24 27  1  1  0  0  0
 25 28  1  0  0  0  0
 28 24  1  0  0  0  0
 29 26  1  1  0  0  0
 29 31  1  0  0  0  0
 30 25  1  1  0  0  0
 30 22  1  0  0  0  0
 30 29  1  0  0  0  0
M  END
>  <MODEL>
6

>  <REMARK>
 VINA RESULT:      -7.1      3.207      4.538
  Name = 
  2 active torsions:
  status: ('A' for Active; 'I' for Inactive)
    1  A    between atoms: C_5  and  C_30
    2  A    between atoms: C_10  and  N_16
                            x       y       z     vdW  Elec       q    Type
                         _______ _______ _______ _____ _____    ______ ____

>  <TORSDO>
F 2

$$$$
=
 OpenBabel11112416503D

 31 36  0  0  1  0  0  0  0  0999 V2000
  185.9300  177.4890  142.3750 C   0  0  0  0  0  0  0  0  0  0  0  0
  188.3470  174.9410  143.8220 C   0  0  2  0  0  3  0  0  0  0  0  0
  188.5740  173.9110  142.6860 C   0  0  1  0  0  3  0  0  0  0  0  0
  188.8190  173.3220  140.2800 C   0  0  1  0  0  3  0  0  0  0  0  0
  187.7710  176.2560  143.3640 C   0  0  0  0  0  0  0  0  0  0  0  0
  186.6980  178.6560  142.3920 C   0  0  0  0  0  3  0  0  0  0  0  0
  188.7870  174.4790  141.2820 C   0  0  0  0  0  2  0  0  0  0  0  0
  190.5630  176.0910  144.1290 C   0  0  2  0  0  3  0  0  0  0  0  0
  184.6350  177.5180  141.8770 O   0  0  0  0  0  1  0  0  0  0  0  0
  189.6940  172.6430  144.3630 O   0  0  0  0  0  0  0  0  0  0  0  0
  189.0810  173.8610  138.8900 C   0  0  0  0  0  1  0  0  0  0  0  0
  189.9110  177.4710  144.0040 C   0  0  0  0  0  2  0  0  0  0  0  0
  189.5660  175.1040  144.7590 C   0  0  2  0  0  3  0  0  0  0  0  0
  186.4650  176.2930  142.8610 C   0  0  0  0  0  3  0  0  0  0  0  0
  189.9010  172.2950  140.6440 C   0  0  0  0  0  2  0  0  0  0  0  0
  188.5480  177.4330  143.3730 C   0  0  0  0  0  0  0  0  0  0  0  0
  188.0000  178.6280  142.8960 C   0  0  0  0  0  3  0  0  0  0  0  0
  190.2290  173.7360  145.0800 C   0  0  0  0  0  2  0  0  0  0  0  0
  189.7530  173.0040  143.0130 C   0  0  1  0  0  3  0  0  0  0  0  0
  189.7380  171.8000  142.0850 C   0  0  0  0  0  2  0  0  0  0  0  0
  192.5470  177.1900  144.3090 O   0  0  0  0  0  0  0  0  0  0  0  0
  192.9020  175.9020  144.0760 C   0  0  2  0  0  3  0  0  0  0  0  0
  191.7790  176.2160  144.9280 N   0  0  2  0  0  0  0  0  0  0  0  0
  196.2810  175.1010  143.0720 C   0  0  1  0  0  3  0  0  0  0  0  0
  195.2750  176.5540  144.4950 C   0  0  0  0  0  2  0  0  0  0  0  0
  193.6850  173.2070  144.9500 O   0  0  0  0  0  1  0  0  0  0  0  0
  196.9010  174.9360  141.7000 C   0  0  0  0  0  1  0  0  0  0  0  0
  195.6380  176.3510  143.1470 O   0  0  0  0  0  0  0  0  0  0  0  0
  194.6740  174.1600  144.7030 C   0  0  2  0  0  3  0  0  0  0  0  0
  194.1530  175.5900  144.8990 C   0  0  2  0  0  3  0  0  0  0  0  0
  195.2780  173.9740  143.3140 C   0  0  0  0  0  2  0  0  0  0  0  0
  1  6  2  0  0  0  0
  1 14  1  0  0  0  0
  2  5  1  6  0  0  0
  2 13  1  0  0  0  0
  3  7  1  6  0  0  0
  3 19  1  0  0  0  0
  3  2  1  0  0  0  0
  4 11  1  6  0  0  0
  4 15  1  0  0  0  0
  4  7  1  0  0  0  0
  5 16  1  0  0  0  0
  6 17  1  0  0  0  0
  8 12  1  1  0  0  0
  8 13  1  0  0  0  0
  8 23  1  0  0  0  0
  9  1  1  0  0  0  0
 10 18  1  0  0  0  0
 13 18  1  6  0  0  0
 14  5  2  0  0  0  0
 15 20  1  0  0  0  0
 16 12  1  0  0  0  0
 17 16  2  0  0  0  0
 19 20  1  6  0  0  0
 19 10  1  0  0  0  0
 22 21  1  6  0  0  0
 22 30  1  0  0  0  0
 22 23  1  0  0  0  0
 23 21  1  6  0  0  0
 24 27  1  6  0  0  0
 24 28  1  0  0  0  0
 24 31  1  0  0  0  0
 28 25  1  0  0  0  0
 29 30  1  0  0  0  0
 29 26  1  6  0  0  0
 30 25  1  6  0  0  0
 31 29  1  0  0  0  0
M  END
>  <MODEL>
7

>  <REMARK>
 VINA RESULT:      -7.1      2.789      5.539
  Name = 
  2 active torsions:
  status: ('A' for Active; 'I' for Inactive)
    1  A    between atoms: C_5  and  C_30
    2  A    between atoms: C_10  and  N_16
                            x       y       z     vdW  Elec       q    Type
                         _______ _______ _______ _____ _____    ______ ____

>  <TORSDO>
F 2

$$$$
=
 OpenBabel11112416503D

 31 36  0  0  1  0  0  0  0  0999 V2000
  186.0860  178.0470  144.0540 C   0  0  0  0  0  0  0  0  0  0  0  0
  189.8190  177.3710  143.8730 C   0  0  2  0  0  3  0  0  0  0  0  0
  190.2040  176.8580  145.2840 C   0  0  1  0  0  3  0  0  0  0  0  0
  189.7040  175.5860  147.3640 C   0  0  1  0  0  3  0  0  0  0  0  0
  188.3450  177.3070  143.5680 C   0  0  0  0  0  0  0  0  0  0  0  0
  185.5840  177.1390  143.1190 C   0  0  0  0  0  3  0  0  0  0  0  0
  189.2580  175.8400  145.9220 C   0  0  0  0  0  2  0  0  0  0  0  0
  190.1590  175.4100  142.3350 C   0  0  2  0  0  3  0  0  0  0  0  0
  185.2170  178.8660  144.7620 O   0  0  0  0  0  1  0  0  0  0  0  0
  192.4460  177.0720  144.5060 O   0  0  0  0  0  0  0  0  0  0  0  0
  188.8080  174.5410  147.9960 C   0  0  0  0  0  1  0  0  0  0  0  0
  188.7460  175.5610  141.7640 C   0  0  0  0  0  2  0  0  0  0  0  0
  190.7010  176.7900  142.7440 C   0  0  2  0  0  3  0  0  0  0  0  0
  187.4620  178.1310  144.2770 C   0  0  0  0  0  3  0  0  0  0  0  0
  191.1640  175.1140  147.4250 C   0  0  0  0  0  2  0  0  0  0  0  0
  187.8370  176.3850  142.6300 C   0  0  0  0  0  0  0  0  0  0  0  0
  186.4580  176.3160  142.4050 C   0  0  0  0  0  3  0  0  0  0  0  0
  192.1970  176.7270  143.1590 C   0  0  0  0  0  2  0  0  0  0  0  0
  191.6050  176.2590  145.2720 C   0  0  1  0  0  3  0  0  0  0  0  0
  192.0960  176.0920  146.7010 C   0  0  0  0  0  2  0  0  0  0  0  0
  190.2830  173.6930  140.8490 O   0  0  0  0  0  0  0  0  0  0  0  0
  191.2490  173.4120  141.7590 C   0  0  2  0  0  3  0  0  0  0  0  0
  191.0070  174.7710  141.3330 N   0  0  2  0  0  0  0  0  0  0  0  0
  192.9220  170.2310  142.1430 C   0  0  1  0  0  3  0  0  0  0  0  0
  192.0380  171.4440  140.4420 C   0  0  0  0  0  2  0  0  0  0  0  0
  194.0510  173.7510  142.5780 O   0  0  0  0  0  1  0  0  0  0  0  0
  192.6820  169.0890  143.1080 C   0  0  0  0  0  1  0  0  0  0  0  0
  191.7200  170.5400  141.4780 O   0  0  0  0  0  0  0  0  0  0  0  0
  193.6680  172.5810  141.9210 C   0  0  2  0  0  3  0  0  0  0  0  0
  192.4430  172.8040  141.0220 C   0  0  2  0  0  3  0  0  0  0  0  0
  193.4280  171.4490  142.9150 C   0  0  0  0  0  2  0  0  0  0  0  0
  1 14  1  0  0  0  0
  1  9  1  0  0  0  0
  2  5  1  6  0  0  0
  2  3  1  0  0  0  0
  3  7  1  6  0  0  0
  4 15  1  0  0  0  0
  4 11  1  6  0  0  0
  5 14  2  0  0  0  0
  6  1  2  0  0  0  0
  7  4  1  0  0  0  0
  8 12  1  6  0  0  0
  8 13  1  0  0  0  0
 10 19  1  0  0  0  0
 12 16  1  0  0  0  0
 13 18  1  1  0  0  0
 13  2  1  0  0  0  0
 16  5  1  0  0  0  0
 17 16  2  0  0  0  0
 17  6  1  0  0  0  0
 18 10  1  0  0  0  0
 19  3  1  0  0  0  0
 19 20  1  1  0  0  0
 20 15  1  0  0  0  0
 22 21  1  6  0  0  0
 23 21  1  6  0  0  0
 23 22  1  0  0  0  0
 23  8  1  0  0  0  0
 24 31  1  0  0  0  0
 24 27  1  1  0  0  0
 25 28  1  0  0  0  0
 28 24  1  0  0  0  0
 29 26  1  1  0  0  0
 29 31  1  0  0  0  0
 30 25  1  1  0  0  0
 30 22  1  0  0  0  0
 30 29  1  0  0  0  0
M  END
>  <MODEL>
8

>  <REMARK>
 VINA RESULT:      -7.0      1.668      2.120
  Name = 
  2 active torsions:
  status: ('A' for Active; 'I' for Inactive)
    1  A    between atoms: C_5  and  C_30
    2  A    between atoms: C_10  and  N_16
                            x       y       z     vdW  Elec       q    Type
                         _______ _______ _______ _____ _____    ______ ____

>  <TORSDO>
F 2

$$$$
=
 OpenBabel11112416503D

 31 36  0  0  1  0  0  0  0  0999 V2000
  187.8660  176.4270  146.8830 C   0  0  0  0  0  0  0  0  0  0  0  0
  190.7040  174.1520  145.7880 C   0  0  2  0  0  3  0  0  0  0  0  0
  190.2740  173.6110  144.4000 C   0  0  1  0  0  3  0  0  0  0  0  0
  189.1530  173.8820  142.1950 C   0  0  1  0  0  3  0  0  0  0  0  0
  189.9580  175.3830  146.2350 C   0  0  0  0  0  0  0  0  0  0  0  0
  188.5040  177.6670  146.9550 C   0  0  0  0  0  3  0  0  0  0  0  0
  189.6700  174.6260  143.4290 C   0  0  0  0  0  2  0  0  0  0  0  0
  192.7090  175.6050  145.3440 C   0  0  2  0  0  3  0  0  0  0  0  0
  186.5110  176.3250  147.1670 O   0  0  0  0  0  1  0  0  0  0  0  0
  192.1470  172.1570  144.6350 O   0  0  0  0  0  0  0  0  0  0  0  0
  188.5960  174.8780  141.1990 C   0  0  0  0  0  1  0  0  0  0  0  0
  192.0840  176.7730  146.1110 C   0  0  0  0  0  2  0  0  0  0  0  0
  192.2360  174.2750  145.9540 C   0  0  2  0  0  3  0  0  0  0  0  0
  188.5910  175.2880  146.5240 C   0  0  0  0  0  3  0  0  0  0  0  0
  190.2650  173.0580  141.5300 C   0  0  0  0  0  2  0  0  0  0  0  0
  190.6000  176.6370  146.3010 C   0  0  0  0  0  0  0  0  0  0  0  0
  189.8680  177.7700  146.6720 C   0  0  0  0  0  3  0  0  0  0  0  0
  192.9790  173.0570  145.3380 C   0  0  0  0  0  2  0  0  0  0  0  0
  191.4460  172.9300  143.7040 C   0  0  1  0  0  3  0  0  0  0  0  0
  190.9310  172.1100  142.5330 C   0  0  0  0  0  2  0  0  0  0  0  0
  194.4540  176.9720  144.8370 O   0  0  0  0  0  0  0  0  0  0  0  0
  194.6360  175.8940  144.0350 C   0  0  2  0  0  3  0  0  0  0  0  0
  194.1620  175.7350  145.3900 N   0  0  2  0  0  0  0  0  0  0  0  0
  196.8210  175.5880  141.1710 C   0  0  1  0  0  3  0  0  0  0  0  0
  196.8050  176.7340  143.1290 C   0  0  0  0  0  2  0  0  0  0  0  0
  195.8150  173.2080  143.8500 O   0  0  0  0  0  1  0  0  0  0  0  0
  196.5350  175.6640  139.6860 C   0  0  0  0  0  1  0  0  0  0  0  0
  196.3230  176.7430  141.8030 O   0  0  0  0  0  0  0  0  0  0  0  0
  196.4660  174.2830  143.2450 C   0  0  2  0  0  3  0  0  0  0  0  0
  196.1360  175.6140  143.9350 C   0  0  2  0  0  3  0  0  0  0  0  0
  196.1570  174.3390  141.7520 C   0  0  0  0  0  2  0  0  0  0  0  0
  1  6  1  0  0  0  0
  1  9  1  0  0  0  0
  2 13  1  0  0  0  0
  2  5  1  6  0  0  0
  3  7  1  6  0  0  0
  3  2  1  0  0  0  0
  4 11  1  6  0  0  0
  4  7  1  0  0  0  0
  5 16  2  0  0  0  0
  5 14  1  0  0  0  0
  8 23  1  0  0  0  0
  8 13  1  0  0  0  0
  8 12  1  1  0  0  0
 10 18  1  0  0  0  0
 12 16  1  0  0  0  0
 13 18  1  6  0  0  0
 14  1  2  0  0  0  0
 15  4  1  0  0  0  0
 15 20  1  0  0  0  0
 16 17  1  0  0  0  0
 17  6  2  0  0  0  0
 19 20  1  6  0  0  0
 19  3  1  0  0  0  0
 19 10  1  0  0  0  0
 22 21  1  1  0  0  0
 22 23  1  0  0  0  0
 23 21  1  1  0  0  0
 24 27  1  6  0  0  0
 24 31  1  0  0  0  0
 24 28  1  0  0  0  0
 28 25  1  0  0  0  0
 29 26  1  1  0  0  0
 29 30  1  0  0  0  0
 30 25  1  6  0  0  0
 30 22  1  0  0  0  0
 31 29  1  0  0  0  0
M  END
>  <MODEL>
9

>  <REMARK>
 VINA RESULT:      -7.0      3.247      5.613
  Name = 
  2 active torsions:
  status: ('A' for Active; 'I' for Inactive)
    1  A    between atoms: C_5  and  C_30
    2  A    between atoms: C_10  and  N_16
                            x       y       z     vdW  Elec       q    Type
                         _______ _______ _______ _____ _____    ______ ____

>  <TORSDO>
F 2

$$$$
