=
 OpenBabel11112418073D

 34 40  0  0  1  0  0  0  0  0999 V2000
  189.4790  174.4910  143.0490 N   0  0  1  0  0  0  0  0  0  0  0  0
  191.8190  173.5690  143.1790 C   0  0  0  0  0  2  0  0  0  0  0  0
  185.4360  179.1920  144.9580 C   0  0  1  0  0  3  0  0  0  0  0  0
  187.3220  175.6800  142.8980 C   0  0  2  0  0  3  0  0  0  0  0  0
  186.4610  176.7750  144.9880 C   0  0  2  0  0  3  0  0  0  0  0  0
  185.7930  177.9940  147.1480 C   0  0  0  0  0  1  0  0  0  0  0  0
  186.6710  179.6640  144.5010 O   0  0  0  0  0  1  0  0  0  0  0  0
  184.8290  178.4230  142.5770 C   0  0  0  0  0  2  0  0  0  0  0  0
  190.7300  174.3990  145.0850 C   0  0  2  0  0  3  0  0  0  0  0  0
  192.2940  176.0470  147.3310 C   0  0  0  0  0  2  0  0  0  0  0  0
  187.8960  176.7820  145.5110 C   0  0  0  0  0  2  0  0  0  0  0  0
  185.1380  176.9540  142.8330 C   0  0  0  0  0  2  0  0  0  0  0  0
  189.9230  175.5470  145.6870 C   0  0  1  0  0  3  0  0  0  0  0  0
  192.8640  173.5920  144.2960 C   0  0  0  0  0  2  0  0  0  0  0  0
  186.5190  176.8520  143.4600 C   0  0  2  0  0  3  0  0  0  0  0  0
  184.3880  179.1610  143.8430 C   0  0  0  0  0  2  0  0  0  0  0  0
  192.8770  175.4670  146.0250 C   0  0  1  0  0  3  0  0  0  0  0  0
  188.7100  175.6370  143.5810 C   0  0  1  0  0  3  0  0  0  0  0  0
  185.5530  177.8340  145.6550 C   0  0  1  0  0  3  0  0  0  0  0  0
  188.5840  175.5680  145.0620 N   0  0  2  0  0  0  0  0  0  0  0  0
  188.1450  174.7050  141.0170 C   0  0  0  0  0  2  0  0  0  0  0  0
  191.1560  175.2220  147.9390 C   0  0  0  0  0  2  0  0  0  0  0  0
  187.4910  175.8510  141.5090 O   0  0  0  0  0  0  0  0  0  0  0  0
  189.8160  175.4130  147.2180 C   0  0  0  0  0  2  0  0  0  0  0  0
  192.1730  174.1850  145.5270 C   0  0  1  0  0  3  0  0  0  0  0  0
  189.5600  174.6340  141.5940 C   0  0  0  0  0  2  0  0  0  0  0  0
  190.8200  174.6200  143.6090 C   0  0  2  0  0  3  0  0  0  0  0  0
  192.8830  176.4570  145.0370 O   0  0  0  0  0  0  0  0  0  0  0  0
  194.2100  176.8860  144.9580 C   0  0  0  0  0  2  0  0  0  0  0  0
  195.1820  176.5520  141.5580 C   0  0  0  0  0  2  0  0  0  0  0  0
  196.3070  176.7050  143.6490 C   0  0  0  0  0  2  0  0  0  0  0  0
  194.9270  176.1330  143.8510 C   0  0  2  0  0  3  0  0  0  0  0  0
  196.5590  176.5210  142.1820 C   0  0  0  0  0  2  0  0  0  0  0  0
  194.1970  176.2610  142.5940 N   0  0  0  0  0  2  0  0  0  0  0  0
  1 26  1  6  0  0  0
  1 18  1  0  0  0  0
  1 27  1  0  0  0  0
  2 27  1  0  0  0  0
  2 14  1  0  0  0  0
  3  7  1  6  0  0  0
  3 19  1  0  0  0  0
  4 23  1  6  0  0  0
  4 15  1  0  0  0  0
  4 18  1  0  0  0  0
  5 11  1  1  0  0  0
  5 19  1  0  0  0  0
  8 12  1  0  0  0  0
  8 16  1  0  0  0  0
  9 25  1  0  0  0  0
  9 13  1  0  0  0  0
 10 22  1  0  0  0  0
 12 15  1  0  0  0  0
 13 24  1  0  0  0  0
 14 25  1  0  0  0  0
 15  5  1  0  0  0  0
 16  3  1  0  0  0  0
 17 10  1  0  0  0  0
 18 20  1  0  0  0  0
 19  6  1  0  0  0  0
 20 11  1  0  0  0  0
 20 13  1  0  0  0  0
 21 23  1  0  0  0  0
 21 26  1  0  0  0  0
 24 22  1  0  0  0  0
 25 17  1  0  0  0  0
 27  9  1  0  0  0  0
 28 17  1  0  0  0  0
 29 28  1  0  0  0  0
 30 33  1  0  0  0  0
 30 34  1  0  0  0  0
 31 32  1  0  0  0  0
 32 29  1  0  0  0  0
 33 31  1  0  0  0  0
 34 32  1  0  0  0  0
M  END
>  <MODEL>
1

>  <REMARK>
 VINA RESULT:      -8.3      0.000      0.000
  Name = 
  3 active torsions:
  status: ('A' for Active; 'I' for Inactive)
    1  A    between atoms: C_17  and  O_28
    2  A    between atoms: O_28  and  C_29
    3  A    between atoms: C_29  and  C_32
                            x       y       z     vdW  Elec       q    Type
                         _______ _______ _______ _____ _____    ______ ____

>  <TORSDO>
F 3

$$$$
=
 OpenBabel11112418073D

 34 40  0  0  1  0  0  0  0  0999 V2000
  192.2020  173.4720  142.6310 N   0  0  1  0  0  0  0  0  0  0  0  0
  194.5970  172.9410  143.2010 C   0  0  0  0  0  2  0  0  0  0  0  0
  187.6180  178.0570  142.3970 C   0  0  1  0  0  3  0  0  0  0  0  0
  189.9660  174.2600  141.9450 C   0  0  2  0  0  3  0  0  0  0  0  0
  188.8480  175.9690  143.4080 C   0  0  2  0  0  3  0  0  0  0  0  0
  187.9040  177.8390  144.8940 C   0  0  0  0  0  1  0  0  0  0  0  0
  188.8370  178.4530  141.8420 O   0  0  0  0  0  1  0  0  0  0  0  0
  187.2720  176.3690  140.4840 C   0  0  0  0  0  2  0  0  0  0  0  0
  193.2900  174.3100  144.5880 C   0  0  2  0  0  3  0  0  0  0  0  0
  194.5180  176.8590  146.0730 C   0  0  0  0  0  2  0  0  0  0  0  0
  190.2300  176.3370  143.9420 C   0  0  0  0  0  2  0  0  0  0  0  0
  187.6900  175.1560  141.3040 C   0  0  0  0  0  2  0  0  0  0  0  0
  192.3390  175.5020  144.6630 C   0  0  1  0  0  3  0  0  0  0  0  0
  195.5430  173.5090  144.2600 C   0  0  0  0  0  2  0  0  0  0  0  0
  189.0200  175.4590  141.9740 C   0  0  2  0  0  3  0  0  0  0  0  0
  186.6680  177.4810  141.3430 C   0  0  0  0  0  2  0  0  0  0  0  0
  195.2520  175.8920  145.1200 C   0  0  1  0  0  3  0  0  0  0  0  0
  191.2940  174.6400  142.6440 C   0  0  1  0  0  3  0  0  0  0  0  0
  187.7990  177.0920  143.5730 C   0  0  1  0  0  3  0  0  0  0  0  0
  191.0570  175.1300  144.0280 N   0  0  2  0  0  0  0  0  0  0  0  0
  191.0200  172.7380  140.6270 C   0  0  0  0  0  2  0  0  0  0  0  0
  193.4130  176.2070  146.9100 C   0  0  0  0  0  2  0  0  0  0  0  0
  190.2290  173.9030  140.6070 O   0  0  0  0  0  0  0  0  0  0  0  0
  192.1230  175.9550  146.1200 C   0  0  0  0  0  2  0  0  0  0  0  0
  194.7070  174.4460  145.1350 C   0  0  1  0  0  3  0  0  0  0  0  0
  192.3850  173.0540  141.2400 C   0  0  0  0  0  2  0  0  0  0  0  0
  193.4770  173.9560  143.1480 C   0  0  2  0  0  3  0  0  0  0  0  0
  195.2490  176.4210  143.8250 O   0  0  0  0  0  0  0  0  0  0  0  0
  196.5790  176.7560  143.5640 C   0  0  0  0  0  2  0  0  0  0  0  0
  197.0290  174.5430  140.8220 C   0  0  0  0  0  2  0  0  0  0  0  0
  195.6130  176.3920  141.3110 C   0  0  0  0  0  2  0  0  0  0  0  0
  196.8930  176.5050  142.0990 C   0  0  2  0  0  3  0  0  0  0  0  0
  195.9490  175.4160  140.2230 C   0  0  0  0  0  2  0  0  0  0  0  0
  197.6300  175.2560  141.9450 N   0  0  0  0  0  2  0  0  0  0  0  0
  1 26  1  6  0  0  0
  1 18  1  0  0  0  0
  1 27  1  0  0  0  0
  2 14  1  0  0  0  0
  3  7  1  6  0  0  0
  3 19  1  0  0  0  0
  4 23  1  6  0  0  0
  4 15  1  0  0  0  0
  4 18  1  0  0  0  0
  5 19  1  0  0  0  0
  5 11  1  6  0  0  0
  8 12  1  0  0  0  0
  8 16  1  0  0  0  0
  9 13  1  0  0  0  0
  9 25  1  0  0  0  0
 10 22  1  0  0  0  0
 11 20  1  0  0  0  0
 12 15  1  0  0  0  0
 13 24  1  0  0  0  0
 14 25  1  0  0  0  0
 15  5  1  0  0  0  0
 16  3  1  0  0  0  0
 17 25  1  0  0  0  0
 17 10  1  0  0  0  0
 18 20  1  0  0  0  0
 19  6  1  0  0  0  0
 20 13  1  0  0  0  0
 21 26  1  0  0  0  0
 23 21  1  0  0  0  0
 24 22  1  0  0  0  0
 27  2  1  0  0  0  0
 27  9  1  0  0  0  0
 28 17  1  0  0  0  0
 29 28  1  0  0  0  0
 30 34  1  0  0  0  0
 31 32  1  0  0  0  0
 32 29  1  0  0  0  0
 33 30  1  0  0  0  0
 33 31  1  0  0  0  0
 34 32  1  0  0  0  0
M  END
>  <MODEL>
2

>  <REMARK>
 VINA RESULT:      -8.1      2.037      3.013
  Name = 
  3 active torsions:
  status: ('A' for Active; 'I' for Inactive)
    1  A    between atoms: C_17  and  O_28
    2  A    between atoms: O_28  and  C_29
    3  A    between atoms: C_29  and  C_32
                            x       y       z     vdW  Elec       q    Type
                         _______ _______ _______ _____ _____    ______ ____

>  <TORSDO>
F 3

$$$$
=
 OpenBabel11112418073D

 34 40  0  0  1  0  0  0  0  0999 V2000
  192.4840  176.2720  146.3230 N   0  0  1  0  0  0  0  0  0  0  0  0
  194.7800  175.2390  146.3750 C   0  0  0  0  0  2  0  0  0  0  0  0
  186.8760  176.7570  143.0980 C   0  0  1  0  0  3  0  0  0  0  0  0
  190.1310  177.0010  146.1770 C   0  0  2  0  0  3  0  0  0  0  0  0
  189.2410  177.5710  143.8980 C   0  0  2  0  0  3  0  0  0  0  0  0
  188.4170  177.9480  141.4950 C   0  0  0  0  0  1  0  0  0  0  0  0
  187.3240  175.4420  143.2520 O   0  0  0  0  0  1  0  0  0  0  0  0
  186.4510  176.9300  145.6310 C   0  0  0  0  0  2  0  0  0  0  0  0
  193.8690  176.0810  144.3830 C   0  0  2  0  0  3  0  0  0  0  0  0
  194.3410  174.6330  141.5750 C   0  0  0  0  0  2  0  0  0  0  0  0
  190.3580  176.7140  143.3070 C   0  0  0  0  0  2  0  0  0  0  0  0
  187.7200  177.7200  145.9220 C   0  0  0  0  0  2  0  0  0  0  0  0
  192.6560  176.1140  143.4570 C   0  0  1  0  0  3  0  0  0  0  0  0
  195.7420  174.8340  145.2570 C   0  0  0  0  0  2  0  0  0  0  0  0
  188.8950  177.0030  145.2780 C   0  0  2  0  0  3  0  0  0  0  0  0
  185.9180  177.1710  144.2170 C   0  0  0  0  0  2  0  0  0  0  0  0
  194.8580  174.1790  142.9560 C   0  0  1  0  0  3  0  0  0  0  0  0
  191.2830  176.2580  145.4590 C   0  0  1  0  0  3  0  0  0  0  0  0
  188.0310  177.7530  142.9530 C   0  0  1  0  0  3  0  0  0  0  0  0
  191.5650  176.8550  144.1260 N   0  0  2  0  0  0  0  0  0  0  0  0
  190.9580  176.4460  148.2190 C   0  0  0  0  0  2  0  0  0  0  0  0
  194.2350  176.1520  141.4060 C   0  0  0  0  0  2  0  0  0  0  0  0
  189.8300  176.3380  147.3840 O   0  0  0  0  0  0  0  0  0  0  0  0
  193.0060  176.7540  142.1000 C   0  0  0  0  0  2  0  0  0  0  0  0
  195.1240  175.3340  143.9480 C   0  0  1  0  0  3  0  0  0  0  0  0
  192.1260  175.6690  147.6090 C   0  0  0  0  0  2  0  0  0  0  0  0
  193.4610  175.4160  145.6580 C   0  0  2  0  0  3  0  0  0  0  0  0
  193.9760  173.2390  143.4980 O   0  0  0  0  0  0  0  0  0  0  0  0
  193.3390  172.6590  142.3990 C   0  0  0  0  0  2  0  0  0  0  0  0
  190.5310  172.7680  144.5710 C   0  0  0  0  0  2  0  0  0  0  0  0
  190.9090  173.1210  142.2480 C   0  0  0  0  0  2  0  0  0  0  0  0
  191.9530  172.1850  142.8000 C   0  0  2  0  0  3  0  0  0  0  0  0
  189.8170  173.0840  143.2760 C   0  0  0  0  0  2  0  0  0  0  0  0
  191.8230  172.1690  144.2530 N   0  0  0  0  0  2  0  0  0  0  0  0
  1 26  1  1  0  0  0
  3  7  1  1  0  0  0
  3 16  1  0  0  0  0
  4 23  1  1  0  0  0
  5 11  1  6  0  0  0
  5 15  1  0  0  0  0
  6 19  1  0  0  0  0
  8 12  1  0  0  0  0
  9 27  1  0  0  0  0
 10 17  1  0  0  0  0
 11 20  1  0  0  0  0
 13 20  1  0  0  0  0
 13  9  1  0  0  0  0
 14  2  1  0  0  0  0
 15 12  1  0  0  0  0
 15  4  1  0  0  0  0
 16  8  1  0  0  0  0
 17 28  1  0  0  0  0
 17 25  1  0  0  0  0
 18  4  1  0  0  0  0
 18  1  1  0  0  0  0
 19  3  1  0  0  0  0
 19  5  1  0  0  0  0
 20 18  1  0  0  0  0
 22 10  1  0  0  0  0
 22 24  1  0  0  0  0
 23 21  1  0  0  0  0
 24 13  1  0  0  0  0
 25  9  1  0  0  0  0
 25 14  1  0  0  0  0
 26 21  1  0  0  0  0
 27  1  1  0  0  0  0
 27  2  1  0  0  0  0
 29 32  1  0  0  0  0
 29 28  1  0  0  0  0
 31 32  1  0  0  0  0
 31 33  1  0  0  0  0
 32 34  1  0  0  0  0
 33 30  1  0  0  0  0
 34 30  1  0  0  0  0
M  END
>  <MODEL>
3

>  <REMARK>
 VINA RESULT:      -8.0      2.115      4.935
  Name = 
  3 active torsions:
  status: ('A' for Active; 'I' for Inactive)
    1  A    between atoms: C_17  and  O_28
    2  A    between atoms: O_28  and  C_29
    3  A    between atoms: C_29  and  C_32
                            x       y       z     vdW  Elec       q    Type
                         _______ _______ _______ _____ _____    ______ ____

>  <TORSDO>
F 3

$$$$
=
 OpenBabel11112418073D

 34 40  0  0  1  0  0  0  0  0999 V2000
  189.0470  174.6640  141.0990 N   0  0  1  0  0  0  0  0  0  0  0  0
  187.2150  176.3620  141.4220 C   0  0  0  0  0  2  0  0  0  0  0  0
  193.8670  171.3520  143.9070 C   0  0  1  0  0  3  0  0  0  0  0  0
  190.7520  172.8800  141.0620 C   0  0  2  0  0  3  0  0  0  0  0  0
  192.8360  173.2500  142.4150 C   0  0  2  0  0  3  0  0  0  0  0  0
  194.8270  173.6830  143.9790 C   0  0  0  0  0  1  0  0  0  0  0  0
  192.6760  171.3380  144.6370 O   0  0  0  0  0  1  0  0  0  0  0  0
  192.7760  169.9230  142.0630 C   0  0  0  0  0  2  0  0  0  0  0  0
  189.3340  176.6580  142.3880 C   0  0  2  0  0  3  0  0  0  0  0  0
  189.6920  177.9230  145.2990 C   0  0  0  0  0  2  0  0  0  0  0  0
  192.0490  174.2560  143.2520 C   0  0  0  0  0  2  0  0  0  0  0  0
  192.5400  171.0930  141.1170 C   0  0  0  0  0  2  0  0  0  0  0  0
  190.4550  176.0230  143.2060 C   0  0  1  0  0  3  0  0  0  0  0  0
  187.1030  177.5780  142.3430 C   0  0  0  0  0  2  0  0  0  0  0  0
  191.8480  172.2060  141.8860 C   0  0  2  0  0  3  0  0  0  0  0  0
  193.9830  170.1410  142.9780 C   0  0  0  0  0  2  0  0  0  0  0  0
  188.3660  177.6530  144.5580 C   0  0  1  0  0  3  0  0  0  0  0  0
  190.0960  174.0010  141.9040 C   0  0  1  0  0  3  0  0  0  0  0  0
  194.0670  172.6640  143.1440 C   0  0  1  0  0  3  0  0  0  0  0  0
  191.1070  174.9770  142.3910 N   0  0  2  0  0  0  0  0  0  0  0  0
  188.8410  172.5640  139.8740 C   0  0  0  0  0  2  0  0  0  0  0  0
  190.8660  178.2900  144.3870 C   0  0  0  0  0  2  0  0  0  0  0  0
  189.7750  171.9270  140.7130 O   0  0  0  0  0  0  0  0  0  0  0  0
  191.4770  177.0790  143.6690 C   0  0  0  0  0  2  0  0  0  0  0  0
  188.4670  177.7420  143.0180 C   0  0  1  0  0  3  0  0  0  0  0  0
  188.0940  173.6420  140.6630 C   0  0  0  0  0  2  0  0  0  0  0  0
  188.3690  175.5800  142.0100 C   0  0  2  0  0  3  0  0  0  0  0  0
  187.8510  176.4160  144.9600 O   0  0  0  0  0  0  0  0  0  0  0  0
  187.9700  176.4060  146.3520 C   0  0  0  0  0  2  0  0  0  0  0  0
  185.4740  178.7680  147.2470 C   0  0  0  0  0  2  0  0  0  0  0  0
  185.5600  176.7910  145.9260 C   0  0  0  0  0  2  0  0  0  0  0  0
  186.6320  176.7460  146.9840 C   0  0  2  0  0  3  0  0  0  0  0  0
  184.6100  177.8390  146.4240 C   0  0  0  0  0  2  0  0  0  0  0  0
  186.6910  178.0570  147.6220 N   0  0  0  0  0  2  0  0  0  0  0  0
  1 26  1  1  0  0  0
  1 18  1  0  0  0  0
  1 27  1  0  0  0  0
  2 27  1  0  0  0  0
  2 14  1  0  0  0  0
  3  7  1  6  0  0  0
  4 23  1  1  0  0  0
  4 15  1  0  0  0  0
  4 18  1  0  0  0  0
  5 19  1  0  0  0  0
  5 11  1  1  0  0  0
  8 16  1  0  0  0  0
  9 25  1  0  0  0  0
  9 13  1  0  0  0  0
 12 15  1  0  0  0  0
 12  8  1  0  0  0  0
 13 24  1  0  0  0  0
 14 25  1  0  0  0  0
 15  5  1  0  0  0  0
 16  3  1  0  0  0  0
 17 28  1  0  0  0  0
 17 10  1  0  0  0  0
 18 20  1  0  0  0  0
 19  3  1  0  0  0  0
 19  6  1  0  0  0  0
 20 13  1  0  0  0  0
 20 11  1  0  0  0  0
 21 26  1  0  0  0  0
 21 23  1  0  0  0  0
 22 10  1  0  0  0  0
 24 22  1  0  0  0  0
 25 17  1  0  0  0  0
 27  9  1  0  0  0  0
 28 29  1  0  0  0  0
 29 32  1  0  0  0  0
 30 34  1  0  0  0  0
 31 33  1  0  0  0  0
 31 32  1  0  0  0  0
 32 34  1  0  0  0  0
 33 30  1  0  0  0  0
M  END
>  <MODEL>
4

>  <REMARK>
 VINA RESULT:      -7.8      2.619      7.578
  Name = 
  3 active torsions:
  status: ('A' for Active; 'I' for Inactive)
    1  A    between atoms: C_17  and  O_28
    2  A    between atoms: O_28  and  C_29
    3  A    between atoms: C_29  and  C_32
                            x       y       z     vdW  Elec       q    Type
                         _______ _______ _______ _____ _____    ______ ____

>  <TORSDO>
F 3

$$$$
=
 OpenBabel11112418073D

 34 40  0  0  1  0  0  0  0  0999 V2000
  192.6710  176.0280  146.1940 N   0  0  1  0  0  0  0  0  0  0  0  0
  194.9610  174.9820  146.1120 C   0  0  0  0  0  2  0  0  0  0  0  0
  187.0340  176.8810  143.1010 C   0  0  1  0  0  3  0  0  0  0  0  0
  190.3220  176.7810  146.1520 C   0  0  2  0  0  3  0  0  0  0  0  0
  189.4120  177.5930  143.9560 C   0  0  2  0  0  3  0  0  0  0  0  0
  188.5660  178.2250  141.6150 C   0  0  0  0  0  1  0  0  0  0  0  0
  187.4740  175.5550  143.1110 O   0  0  0  0  0  1  0  0  0  0  0  0
  186.6360  176.7890  145.6420 C   0  0  0  0  0  2  0  0  0  0  0  0
  194.0350  176.0340  144.2300 C   0  0  2  0  0  3  0  0  0  0  0  0
  194.4680  174.8870  141.2800 C   0  0  0  0  0  2  0  0  0  0  0  0
  190.5170  176.7960  143.2650 C   0  0  0  0  0  2  0  0  0  0  0  0
  187.9140  177.5370  146.0010 C   0  0  0  0  0  2  0  0  0  0  0  0
  192.8120  176.1710  143.3260 C   0  0  1  0  0  3  0  0  0  0  0  0
  195.9080  174.6910  144.9470 C   0  0  0  0  0  2  0  0  0  0  0  0
  189.0770  176.8850  145.2720 C   0  0  2  0  0  3  0  0  0  0  0  0
  186.0900  177.1810  144.2680 C   0  0  0  0  0  2  0  0  0  0  0  0
  194.9960  174.2870  142.6000 C   0  0  1  0  0  3  0  0  0  0  0  0
  191.4620  176.1120  145.3470 C   0  0  1  0  0  3  0  0  0  0  0  0
  188.1930  177.8800  143.0480 C   0  0  1  0  0  3  0  0  0  0  0  0
  191.7340  176.8430  144.0810 N   0  0  2  0  0  0  0  0  0  0  0  0
  191.1670  176.0100  148.1150 C   0  0  0  0  0  2  0  0  0  0  0  0
  194.3690  176.4150  141.2720 C   0  0  0  0  0  2  0  0  0  0  0  0
  190.0300  175.9970  147.2860 O   0  0  0  0  0  0  0  0  0  0  0  0
  193.1520  176.9480  142.0400 C   0  0  0  0  0  2  0  0  0  0  0  0
  195.2800  175.3290  143.7050 C   0  0  1  0  0  3  0  0  0  0  0  0
  192.3230  175.2950  147.4130 C   0  0  0  0  0  2  0  0  0  0  0  0
  193.6350  175.2410  145.4330 C   0  0  2  0  0  3  0  0  0  0  0  0
  194.1130  173.3000  143.0500 O   0  0  0  0  0  0  0  0  0  0  0  0
  194.5900  172.1060  142.5050 C   0  0  0  0  0  2  0  0  0  0  0  0
  196.1730  171.0070  145.4880 C   0  0  0  0  0  2  0  0  0  0  0  0
  193.9370  171.4460  144.8020 C   0  0  0  0  0  2  0  0  0  0  0  0
  194.7760  171.0770  143.6060 C   0  0  2  0  0  3  0  0  0  0  0  0
  194.7400  170.9500  145.9680 C   0  0  0  0  0  2  0  0  0  0  0  0
  196.1710  171.0340  144.0290 N   0  0  0  0  0  2  0  0  0  0  0  0
  1 26  1  1  0  0  0
  3  7  1  1  0  0  0
  3 16  1  0  0  0  0
  4 23  1  1  0  0  0
  5 11  1  6  0  0  0
  5 15  1  0  0  0  0
  6 19  1  0  0  0  0
  8 12  1  0  0  0  0
  9 27  1  0  0  0  0
 10 17  1  0  0  0  0
 11 20  1  0  0  0  0
 13 20  1  0  0  0  0
 13  9  1  0  0  0  0
 14  2  1  0  0  0  0
 15 12  1  0  0  0  0
 15  4  1  0  0  0  0
 16  8  1  0  0  0  0
 17 28  1  0  0  0  0
 17 25  1  0  0  0  0
 18  4  1  0  0  0  0
 18  1  1  0  0  0  0
 19  3  1  0  0  0  0
 19  5  1  0  0  0  0
 20 18  1  0  0  0  0
 22 10  1  0  0  0  0
 22 24  1  0  0  0  0
 23 21  1  0  0  0  0
 24 13  1  0  0  0  0
 25  9  1  0  0  0  0
 25 14  1  0  0  0  0
 26 21  1  0  0  0  0
 27  2  1  0  0  0  0
 27  1  1  0  0  0  0
 29 28  1  0  0  0  0
 29 32  1  0  0  0  0
 30 33  1  0  0  0  0
 31 33  1  0  0  0  0
 32 34  1  0  0  0  0
 32 31  1  0  0  0  0
 34 30  1  0  0  0  0
M  END
>  <MODEL>
5

>  <REMARK>
 VINA RESULT:      -7.7      2.476      4.976
  Name = 
  3 active torsions:
  status: ('A' for Active; 'I' for Inactive)
    1  A    between atoms: C_17  and  O_28
    2  A    between atoms: O_28  and  C_29
    3  A    between atoms: C_29  and  C_32
                            x       y       z     vdW  Elec       q    Type
                         _______ _______ _______ _____ _____    ______ ____

>  <TORSDO>
F 3

$$$$
=
 OpenBabel11112418073D

 34 40  0  0  1  0  0  0  0  0999 V2000
  191.3020  175.8660  145.8840 N   0  0  1  0  0  0  0  0  0  0  0  0
  188.9260  176.2520  146.6250 C   0  0  0  0  0  2  0  0  0  0  0  0
  195.4820  176.0160  140.9250 C   0  0  1  0  0  3  0  0  0  0  0  0
  193.5990  175.7530  144.9900 C   0  0  2  0  0  3  0  0  0  0  0  0
  193.8860  174.8600  142.6600 C   0  0  2  0  0  3  0  0  0  0  0  0
  194.0110  174.0960  140.2100 C   0  0  0  0  0  1  0  0  0  0  0  0
  194.6940  177.1660  141.0310 O   0  0  0  0  0  1  0  0  0  0  0  0
  196.6930  176.6220  143.1150 C   0  0  0  0  0  2  0  0  0  0  0  0
  189.4090  175.1850  144.5910 C   0  0  2  0  0  3  0  0  0  0  0  0
  187.6490  175.6830  141.9720 C   0  0  0  0  0  2  0  0  0  0  0  0
  192.4240  175.2170  142.4010 C   0  0  0  0  0  2  0  0  0  0  0  0
  195.9110  175.6360  143.9720 C   0  0  0  0  0  2  0  0  0  0  0  0
  190.2200  175.2250  143.2980 C   0  0  1  0  0  3  0  0  0  0  0  0
  187.5910  176.0920  145.8950 C   0  0  0  0  0  2  0  0  0  0  0  0
  194.4270  175.8350  143.7090 C   0  0  2  0  0  3  0  0  0  0  0  0
  196.8170  176.1670  141.6590 C   0  0  0  0  0  2  0  0  0  0  0  0
  187.4600  176.3310  143.3590 C   0  0  1  0  0  3  0  0  0  0  0  0
  192.1050  175.9630  144.6450 C   0  0  1  0  0  3  0  0  0  0  0  0
  194.7370  174.7560  141.3730 C   0  0  1  0  0  3  0  0  0  0  0  0
  191.6430  174.9890  143.6200 N   0  0  2  0  0  0  0  0  0  0  0  0
  193.3010  176.5870  147.0820 C   0  0  0  0  0  2  0  0  0  0  0  0
  188.1960  174.2530  142.0100 C   0  0  0  0  0  2  0  0  0  0  0  0
  194.0170  176.7610  145.8830 O   0  0  0  0  0  0  0  0  0  0  0  0
  189.7040  174.1870  142.2830 C   0  0  0  0  0  2  0  0  0  0  0  0
  187.9080  175.4460  144.5440 C   0  0  1  0  0  3  0  0  0  0  0  0
  191.8150  176.8530  146.8370 C   0  0  0  0  0  2  0  0  0  0  0  0
  189.9430  176.2400  145.5060 C   0  0  2  0  0  3  0  0  0  0  0  0
  188.1020  177.5740  143.3850 O   0  0  0  0  0  0  0  0  0  0  0  0
  187.5700  178.2830  142.3050 C   0  0  0  0  0  2  0  0  0  0  0  0
  184.1560  178.3470  143.2830 C   0  0  0  0  0  2  0  0  0  0  0  0
  186.2240  179.0160  144.2520 C   0  0  0  0  0  2  0  0  0  0  0  0
  186.3310  179.0410  142.7490 C   0  0  2  0  0  3  0  0  0  0  0  0
  184.7450  179.0160  144.5050 C   0  0  0  0  0  2  0  0  0  0  0  0
  185.1310  178.4180  142.2000 N   0  0  0  0  0  2  0  0  0  0  0  0
  1 26  1  1  0  0  0
  3  7  1  1  0  0  0
  3 19  1  0  0  0  0
  3 16  1  0  0  0  0
  4 23  1  1  0  0  0
  5 11  1  6  0  0  0
  5 15  1  0  0  0  0
  6 19  1  0  0  0  0
  8 12  1  0  0  0  0
  9 27  1  0  0  0  0
 10 22  1  0  0  0  0
 10 17  1  0  0  0  0
 11 20  1  0  0  0  0
 13 20  1  0  0  0  0
 13  9  1  0  0  0  0
 14  2  1  0  0  0  0
 15 12  1  0  0  0  0
 15  4  1  0  0  0  0
 16  8  1  0  0  0  0
 17 28  1  0  0  0  0
 17 25  1  0  0  0  0
 18  4  1  0  0  0  0
 18  1  1  0  0  0  0
 19  5  1  0  0  0  0
 20 18  1  0  0  0  0
 22 24  1  0  0  0  0
 23 21  1  0  0  0  0
 24 13  1  0  0  0  0
 25  9  1  0  0  0  0
 25 14  1  0  0  0  0
 26 21  1  0  0  0  0
 27  1  1  0  0  0  0
 27  2  1  0  0  0  0
 29 32  1  0  0  0  0
 29 28  1  0  0  0  0
 30 33  1  0  0  0  0
 31 33  1  0  0  0  0
 32 31  1  0  0  0  0
 34 32  1  0  0  0  0
 34 30  1  0  0  0  0
M  END
>  <MODEL>
6

>  <REMARK>
 VINA RESULT:      -7.6      1.891      8.024
  Name = 
  3 active torsions:
  status: ('A' for Active; 'I' for Inactive)
    1  A    between atoms: C_17  and  O_28
    2  A    between atoms: O_28  and  C_29
    3  A    between atoms: C_29  and  C_32
                            x       y       z     vdW  Elec       q    Type
                         _______ _______ _______ _____ _____    ______ ____

>  <TORSDO>
F 3

$$$$
=
 OpenBabel11112418073D

 34 40  0  0  1  0  0  0  0  0999 V2000
  190.0150  173.5240  141.9390 N   0  0  1  0  0  0  0  0  0  0  0  0
  187.8030  174.7280  142.0190 C   0  0  0  0  0  2  0  0  0  0  0  0
  195.6850  172.4880  144.9140 C   0  0  1  0  0  3  0  0  0  0  0  0
  192.1410  172.2930  142.1700 C   0  0  2  0  0  3  0  0  0  0  0  0
  194.1030  173.5490  143.1080 C   0  0  2  0  0  3  0  0  0  0  0  0
  195.9690  174.9020  144.2420 C   0  0  0  0  0  1  0  0  0  0  0  0
  194.5790  172.3890  145.7630 O   0  0  0  0  0  1  0  0  0  0  0  0
  194.9440  170.3600  143.6690 C   0  0  0  0  0  2  0  0  0  0  0  0
  189.8010  175.8120  142.6030 C   0  0  2  0  0  3  0  0  0  0  0  0
  189.9330  177.9160  145.0030 C   0  0  0  0  0  2  0  0  0  0  0  0
  193.1100  174.5240  143.7370 C   0  0  0  0  0  2  0  0  0  0  0  0
  194.3510  171.1060  142.4800 C   0  0  0  0  0  2  0  0  0  0  0  0
  191.0920  175.7440  143.4170 C   0  0  1  0  0  3  0  0  0  0  0  0
  187.4040  176.0900  142.5890 C   0  0  0  0  0  2  0  0  0  0  0  0
  193.4170  172.1840  143.0030 C   0  0  2  0  0  3  0  0  0  0  0  0
  196.0860  171.1290  144.3360 C   0  0  0  0  0  2  0  0  0  0  0  0
  188.7000  177.1190  144.5290 C   0  0  1  0  0  3  0  0  0  0  0  0
  191.2420  173.4080  142.7570 C   0  0  1  0  0  3  0  0  0  0  0  0
  195.4810  173.5280  143.8100 C   0  0  1  0  0  3  0  0  0  0  0  0
  191.9670  174.7040  142.8360 N   0  0  2  0  0  0  0  0  0  0  0  0
  190.3370  171.1770  141.3550 C   0  0  0  0  0  2  0  0  0  0  0  0
  190.9170  178.2830  143.8880 C   0  0  0  0  0  2  0  0  0  0  0  0
  191.4480  171.0660  142.2120 O   0  0  0  0  0  0  0  0  0  0  0  0
  191.8040  177.1100  143.4510 C   0  0  0  0  0  2  0  0  0  0  0  0
  188.7010  176.7790  143.0220 C   0  0  1  0  0  3  0  0  0  0  0  0
  189.3600  172.2150  141.9130 C   0  0  0  0  0  2  0  0  0  0  0  0
  189.1540  174.4650  142.6480 C   0  0  2  0  0  3  0  0  0  0  0  0
  188.5650  175.9640  145.3080 O   0  0  0  0  0  0  0  0  0  0  0  0
  187.9390  176.3870  146.4830 C   0  0  0  0  0  2  0  0  0  0  0  0
  184.5650  177.4970  146.5130 C   0  0  0  0  0  2  0  0  0  0  0  0
  186.6380  178.3080  147.3550 C   0  0  0  0  0  2  0  0  0  0  0  0
  186.8820  177.4270  146.1560 C   0  0  2  0  0  3  0  0  0  0  0  0
  185.1860  178.6660  147.2450 C   0  0  0  0  0  2  0  0  0  0  0  0
  185.6230  176.7780  145.8090 N   0  0  0  0  0  2  0  0  0  0  0  0
  1 26  1  1  0  0  0
  1 27  1  0  0  0  0
  1 18  1  0  0  0  0
  2 14  1  0  0  0  0
  2 27  1  0  0  0  0
  3  7  1  6  0  0  0
  4 23  1  1  0  0  0
  4 18  1  0  0  0  0
  4 15  1  0  0  0  0
  5 11  1  1  0  0  0
  5 19  1  0  0  0  0
  8 16  1  0  0  0  0
  9 27  1  0  0  0  0
  9 25  1  0  0  0  0
  9 13  1  0  0  0  0
 12 15  1  0  0  0  0
 12  8  1  0  0  0  0
 13 24  1  0  0  0  0
 14 25  1  0  0  0  0
 15  5  1  0  0  0  0
 16  3  1  0  0  0  0
 17 10  1  0  0  0  0
 17 28  1  0  0  0  0
 18 20  1  0  0  0  0
 19  6  1  0  0  0  0
 19  3  1  0  0  0  0
 20 13  1  0  0  0  0
 20 11  1  0  0  0  0
 21 26  1  0  0  0  0
 21 23  1  0  0  0  0
 22 10  1  0  0  0  0
 24 22  1  0  0  0  0
 25 17  1  0  0  0  0
 28 29  1  0  0  0  0
 30 33  1  0  0  0  0
 32 29  1  0  0  0  0
 32 31  1  0  0  0  0
 33 31  1  0  0  0  0
 34 32  1  0  0  0  0
 34 30  1  0  0  0  0
M  END
>  <MODEL>
7

>  <REMARK>
 VINA RESULT:      -7.6      2.579      7.888
  Name = 
  3 active torsions:
  status: ('A' for Active; 'I' for Inactive)
    1  A    between atoms: C_17  and  O_28
    2  A    between atoms: O_28  and  C_29
    3  A    between atoms: C_29  and  C_32
                            x       y       z     vdW  Elec       q    Type
                         _______ _______ _______ _____ _____    ______ ____

>  <TORSDO>
F 3

$$$$
=
 OpenBabel11112418073D

 34 40  0  0  1  0  0  0  0  0999 V2000
  190.8690  172.9510  142.3570 N   0  0  1  0  0  0  0  0  0  0  0  0
  188.3950  173.3980  142.1970 C   0  0  0  0  0  2  0  0  0  0  0  0
  196.4430  174.5390  145.2710 C   0  0  1  0  0  3  0  0  0  0  0  0
  193.2550  172.5380  142.8280 C   0  0  2  0  0  3  0  0  0  0  0  0
  194.6980  174.5370  143.3090 C   0  0  2  0  0  3  0  0  0  0  0  0
  196.0100  176.6480  143.9570 C   0  0  0  0  0  1  0  0  0  0  0  0
  195.3820  174.3410  146.1580 O   0  0  0  0  0  1  0  0  0  0  0  0
  196.4420  172.0330  144.6810 C   0  0  0  0  0  2  0  0  0  0  0  0
  189.9400  175.1550  142.3830 C   0  0  2  0  0  3  0  0  0  0  0  0
  189.3150  177.7660  144.1140 C   0  0  0  0  0  2  0  0  0  0  0  0
  193.4270  175.2950  143.6890 C   0  0  0  0  0  2  0  0  0  0  0  0
  195.7060  172.2110  143.3590 C   0  0  0  0  0  2  0  0  0  0  0  0
  191.1510  175.7060  143.1320 C   0  0  1  0  0  3  0  0  0  0  0  0
  187.5740  174.6740  142.3910 C   0  0  0  0  0  2  0  0  0  0  0  0
  194.4640  173.0530  143.6070 C   0  0  2  0  0  3  0  0  0  0  0  0
  197.2650  173.2640  145.0670 C   0  0  0  0  0  2  0  0  0  0  0  0
  188.4060  176.5340  143.9250 C   0  0  1  0  0  3  0  0  0  0  0  0
  192.0340  173.4410  143.1250 C   0  0  1  0  0  3  0  0  0  0  0  0
  195.9830  175.1280  143.9340 C   0  0  1  0  0  3  0  0  0  0  0  0
  192.3270  174.8670  142.8210 N   0  0  2  0  0  0  0  0  0  0  0  0
  191.9150  170.7480  142.4200 C   0  0  0  0  0  2  0  0  0  0  0  0
  190.1910  178.0990  142.9020 C   0  0  0  0  0  2  0  0  0  0  0  0
  192.9670  171.2180  143.2290 O   0  0  0  0  0  0  0  0  0  0  0  0
  191.4110  177.1800  142.7650 C   0  0  0  0  0  2  0  0  0  0  0  0
  188.5790  175.8160  142.5680 C   0  0  1  0  0  3  0  0  0  0  0  0
  190.6450  171.5490  142.7140 C   0  0  0  0  0  2  0  0  0  0  0  0
  189.7310  173.7400  142.8180 C   0  0  2  0  0  3  0  0  0  0  0  0
  188.5920  175.6490  144.9930 O   0  0  0  0  0  0  0  0  0  0  0  0
  188.5290  176.4430  146.1400 C   0  0  0  0  0  2  0  0  0  0  0  0
  191.7850  175.2630  146.9300 C   0  0  0  0  0  2  0  0  0  0  0  0
  190.4380  177.1180  147.5690 C   0  0  0  0  0  2  0  0  0  0  0  0
  189.5600  175.9680  147.1500 C   0  0  2  0  0  3  0  0  0  0  0  0
  191.7670  176.4740  147.8360 C   0  0  0  0  0  2  0  0  0  0  0  0
  190.4110  174.9400  146.5610 N   0  0  0  0  0  2  0  0  0  0  0  0
  1 26  1  1  0  0  0
  1 27  1  0  0  0  0
  1 18  1  0  0  0  0
  2 14  1  0  0  0  0
  2 27  1  0  0  0  0
  3  7  1  1  0  0  0
  4 18  1  0  0  0  0
  4 23  1  1  0  0  0
  4 15  1  0  0  0  0
  5 15  1  0  0  0  0
  5 11  1  1  0  0  0
  5 19  1  0  0  0  0
  8 16  1  0  0  0  0
  9 25  1  0  0  0  0
  9 27  1  0  0  0  0
  9 13  1  0  0  0  0
 12 15  1  0  0  0  0
 12  8  1  0  0  0  0
 14 25  1  0  0  0  0
 16  3  1  0  0  0  0
 17 10  1  0  0  0  0
 17 28  1  0  0  0  0
 19  6  1  0  0  0  0
 19  3  1  0  0  0  0
 20 18  1  0  0  0  0
 20 13  1  0  0  0  0
 20 11  1  0  0  0  0
 21 26  1  0  0  0  0
 21 23  1  0  0  0  0
 22 10  1  0  0  0  0
 24 22  1  0  0  0  0
 24 13  1  0  0  0  0
 25 17  1  0  0  0  0
 28 29  1  0  0  0  0
 29 32  1  0  0  0  0
 30 33  1  0  0  0  0
 31 33  1  0  0  0  0
 32 31  1  0  0  0  0
 34 30  1  0  0  0  0
 34 32  1  0  0  0  0
M  END
>  <MODEL>
8

>  <REMARK>
 VINA RESULT:      -7.6      2.447      7.363
  Name = 
  3 active torsions:
  status: ('A' for Active; 'I' for Inactive)
    1  A    between atoms: C_17  and  O_28
    2  A    between atoms: O_28  and  C_29
    3  A    between atoms: C_29  and  C_32
                            x       y       z     vdW  Elec       q    Type
                         _______ _______ _______ _____ _____    ______ ____

>  <TORSDO>
F 3

$$$$
=
 OpenBabel11112418073D

 34 40  0  0  1  0  0  0  0  0999 V2000
  192.1660  175.9760  144.9480 N   0  0  1  0  0  0  0  0  0  0  0  0
  190.0850  177.0450  144.0150 C   0  0  0  0  0  2  0  0  0  0  0  0
  196.3260  171.0180  144.5060 C   0  0  1  0  0  3  0  0  0  0  0  0
  194.2870  174.8730  145.5610 C   0  0  2  0  0  3  0  0  0  0  0  0
  194.3250  172.3620  145.5470 C   0  0  2  0  0  3  0  0  0  0  0  0
  194.2700  169.8040  145.3180 C   0  0  0  0  0  1  0  0  0  0  0  0
  196.0340  171.6180  143.2780 O   0  0  0  0  0  1  0  0  0  0  0  0
  197.5670  173.1410  145.2690 C   0  0  0  0  0  2  0  0  0  0  0  0
  190.2230  174.7240  144.3340 C   0  0  2  0  0  3  0  0  0  0  0  0
  188.9210  172.6640  142.2690 C   0  0  0  0  0  2  0  0  0  0  0  0
  193.1260  172.4020  144.6020 C   0  0  0  0  0  2  0  0  0  0  0  0
  196.4250  173.6530  146.1380 C   0  0  0  0  0  2  0  0  0  0  0  0
  191.0510  173.4600  144.1140 C   0  0  1  0  0  3  0  0  0  0  0  0
  188.8290  176.4480  143.3790 C   0  0  0  0  0  2  0  0  0  0  0  0
  195.1460  173.6340  145.3170 C   0  0  2  0  0  3  0  0  0  0  0  0
  197.5790  171.6160  145.1520 C   0  0  0  0  0  2  0  0  0  0  0  0
  188.9250  174.2040  142.1710 C   0  0  1  0  0  3  0  0  0  0  0  0
  193.0050  174.7840  144.6980 C   0  0  1  0  0  3  0  0  0  0  0  0
  195.1340  171.0470  145.4670 C   0  0  1  0  0  3  0  0  0  0  0  0
  192.2570  173.5260  144.9650 N   0  0  2  0  0  0  0  0  0  0  0  0
  194.2270  177.1450  145.5320 C   0  0  0  0  0  2  0  0  0  0  0  0
  188.8760  172.1190  143.6990 C   0  0  0  0  0  2  0  0  0  0  0  0
  195.0130  176.0260  145.1990 O   0  0  0  0  0  0  0  0  0  0  0  0
  190.2290  172.1930  144.4190 C   0  0  0  0  0  2  0  0  0  0  0  0
  188.9410  174.9290  143.5360 C   0  0  1  0  0  3  0  0  0  0  0  0
  192.9690  177.1660  144.6610 C   0  0  0  0  0  2  0  0  0  0  0  0
  191.0740  175.9020  143.9830 C   0  0  2  0  0  3  0  0  0  0  0  0
  189.9910  174.6170  141.3660 O   0  0  0  0  0  0  0  0  0  0  0  0
  190.2090  173.5620  140.4770 C   0  0  0  0  0  2  0  0  0  0  0  0
  193.6400  173.8940  141.3320 C   0  0  0  0  0  2  0  0  0  0  0  0
  192.2480  172.1560  140.4920 C   0  0  0  0  0  2  0  0  0  0  0  0
  191.6800  173.4970  140.1070 C   0  0  2  0  0  3  0  0  0  0  0  0
  193.6730  172.4610  140.8500 C   0  0  0  0  0  2  0  0  0  0  0  0
  192.4280  174.5260  140.8200 N   0  0  0  0  0  2  0  0  0  0  0  0
  1 26  1  6  0  0  0
  3  7  1  6  0  0  0
  3 16  1  0  0  0  0
  3 19  1  0  0  0  0
  4 23  1  6  0  0  0
  5 11  1  6  0  0  0
  6 19  1  0  0  0  0
  8 12  1  0  0  0  0
 10 22  1  0  0  0  0
 11 20  1  0  0  0  0
 13  9  1  0  0  0  0
 13 24  1  0  0  0  0
 13 20  1  0  0  0  0
 14 25  1  0  0  0  0
 14  2  1  0  0  0  0
 15  5  1  0  0  0  0
 15  4  1  0  0  0  0
 15 12  1  0  0  0  0
 16  8  1  0  0  0  0
 17 10  1  0  0  0  0
 17 25  1  0  0  0  0
 18  1  1  0  0  0  0
 18 20  1  0  0  0  0
 18  4  1  0  0  0  0
 19  5  1  0  0  0  0
 22 24  1  0  0  0  0
 23 21  1  0  0  0  0
 25  9  1  0  0  0  0
 26 21  1  0  0  0  0
 27  2  1  0  0  0  0
 27  9  1  0  0  0  0
 27  1  1  0  0  0  0
 28 17  1  0  0  0  0
 29 28  1  0  0  0  0
 31 33  1  0  0  0  0
 32 29  1  0  0  0  0
 32 31  1  0  0  0  0
 32 34  1  0  0  0  0
 33 30  1  0  0  0  0
 34 30  1  0  0  0  0
M  END
>  <MODEL>
9

>  <REMARK>
 VINA RESULT:      -7.5      3.106      7.821
  Name = 
  3 active torsions:
  status: ('A' for Active; 'I' for Inactive)
    1  A    between atoms: C_17  and  O_28
    2  A    between atoms: O_28  and  C_29
    3  A    between atoms: C_29  and  C_32
                            x       y       z     vdW  Elec       q    Type
                         _______ _______ _______ _____ _____    ______ ____

>  <TORSDO>
F 3

$$$$
