=
 OpenBabel11112417573D

 34 40  0  0  1  0  0  0  0  0999 V2000
  186.3940  177.6040  144.6140 C   0  0  0  0  0  0  0  0  0  0  0  0
  184.3910  178.3280  143.1700 C   0  0  0  0  0  2  0  0  0  0  0  0
  192.7260  176.6350  145.8820 C   0  0  2  0  0  3  0  0  0  0  0  0
  188.2780  176.6480  145.8390 C   0  0  0  0  0  0  0  0  0  0  0  0
  190.5730  176.7250  144.7580 C   0  0  1  0  0  3  0  0  0  0  0  0
  192.9900  176.4520  143.7780 C   0  0  0  0  0  2  0  0  0  0  0  0
  193.9020  176.8060  144.9490 C   0  0  0  0  0  2  0  0  0  0  0  0
  191.4440  175.2190  147.5350 C   0  0  0  0  0  2  0  0  0  0  0  0
  186.2620  177.2370  142.2210 C   0  0  2  0  0  3  0  0  0  0  0  0
  189.8920  176.5190  143.4130 C   0  0  0  0  0  2  0  0  0  0  0  0
  190.3260  176.2520  147.2890 C   0  0  0  0  0  2  0  0  0  0  0  0
  187.7840  177.1530  142.0190 C   0  0  1  0  0  3  0  0  0  0  0  0
  184.1600  178.2400  141.6600 C   0  0  0  0  0  2  0  0  0  0  0  0
  189.6960  176.1120  145.8810 C   0  0  1  0  0  3  0  0  0  0  0  0
  192.8410  175.6370  147.0200 C   0  0  0  0  0  2  0  0  0  0  0  0
  187.7250  177.1410  144.6340 C   0  0  0  0  0  0  0  0  0  0  0  0
  191.9200  176.0250  144.7680 C   0  0  1  0  0  3  0  0  0  0  0  0
  188.5690  177.2850  143.3670 C   0  0  1  0  0  3  0  0  0  0  0  0
  186.1330  176.9990  146.9440 C   0  0  0  0  0  3  0  0  0  0  0  0
  187.4560  176.5530  146.9750 C   0  0  0  0  0  3  0  0  0  0  0  0
  185.4600  177.7320  141.0410 C   0  0  0  0  0  2  0  0  0  0  0  0
  185.6050  177.5350  145.7680 C   0  0  0  0  0  3  0  0  0  0  0  0
  185.8870  178.1810  143.3280 C   0  0  2  0  0  3  0  0  0  0  0  0
  188.1200  175.8600  141.2700 C   0  0  0  0  0  2  0  0  0  0  0  0
  187.5440  174.6390  141.9710 C   0  0  0  0  0  2  0  0  0  0  0  0
  188.2870  173.3850  141.5450 C   0  0  0  0  0  2  0  0  0  0  0  0
  189.5150  173.3260  142.2050 O   0  0  0  0  0  0  0  0  0  0  0  0
  189.2830  172.4980  143.3040 C   0  0  0  0  0  2  0  0  0  0  0  0
  190.3990  172.6570  144.3260 C   0  0  0  0  0  2  0  0  0  0  0  0
  193.5150  171.2820  144.7620 C   0  0  0  0  0  2  0  0  0  0  0  0
  191.9410  171.0480  143.2050 C   0  0  0  0  0  2  0  0  0  0  0  0
  191.7660  172.4750  143.6830 C   0  0  2  0  0  3  0  0  0  0  0  0
  192.6620  170.3360  144.1750 O   0  0  0  0  0  0  0  0  0  0  0  0
  192.8270  172.6270  144.7330 C   0  0  0  0  0  2  0  0  0  0  0  0
  1 16  2  0  0  0  0
  1 22  1  0  0  0  0
  3  7  1  6  0  0  0
  3 15  1  0  0  0  0
  4 14  1  0  0  0  0
  4 20  2  0  0  0  0
  5 10  1  6  0  0  0
  5 17  1  0  0  0  0
  5 14  1  0  0  0  0
  6  7  1  0  0  0  0
  9 21  1  6  0  0  0
  9 23  1  0  0  0  0
 11  8  1  0  0  0  0
 12 24  1  1  0  0  0
 12  9  1  0  0  0  0
 12 18  1  0  0  0  0
 13  2  1  0  0  0  0
 14 11  1  1  0  0  0
 15  8  1  0  0  0  0
 16  4  1  0  0  0  0
 17  6  1  6  0  0  0
 17  3  1  0  0  0  0
 18 10  1  6  0  0  0
 18 16  1  0  0  0  0
 19 20  1  0  0  0  0
 21 13  1  0  0  0  0
 22 19  2  0  0  0  0
 23  2  1  1  0  0  0
 23  1  1  0  0  0  0
 24 25  1  0  0  0  0
 26 25  1  0  0  0  0
 26 27  1  0  0  0  0
 27 28  1  0  0  0  0
 28 29  1  0  0  0  0
 31 32  1  0  0  0  0
 31 33  1  0  0  0  0
 32 29  1  1  0  0  0
 32 34  1  0  0  0  0
 33 30  1  0  0  0  0
 34 30  1  0  0  0  0
M  END
>  <MODEL>
1

>  <REMARK>
 VINA RESULT:      -8.1      0.000      0.000
  Name = 
  7 active torsions:
  status: ('A' for Active; 'I' for Inactive)
    1  A    between atoms: C_10  and  O_17
    2  A    between atoms: C_10  and  C_22
    3  A    between atoms: C_13  and  C_24
    4  A    between atoms: O_17  and  C_28
    5  A    between atoms: C_22  and  C_24
    6  A    between atoms: C_28  and  C_29
    7  A    between atoms: C_29  and  C_32
                            x       y       z     vdW  Elec       q    Type
                         _______ _______ _______ _____ _____    ______ ____

>  <TORSDO>
F 7

$$$$
=
 OpenBabel11112417573D

 34 40  0  0  1  0  0  0  0  0999 V2000
  191.0990  177.3130  144.5320 C   0  0  0  0  0  0  0  0  0  0  0  0
  193.4220  176.5460  145.3310 C   0  0  0  0  0  2  0  0  0  0  0  0
  184.7470  178.6510  145.2410 C   0  0  2  0  0  3  0  0  0  0  0  0
  188.8320  177.7430  143.7330 C   0  0  0  0  0  0  0  0  0  0  0  0
  186.9230  177.5810  145.3970 C   0  0  1  0  0  3  0  0  0  0  0  0
  184.7570  177.2430  146.8370 C   0  0  0  0  0  2  0  0  0  0  0  0
  183.8750  178.4280  146.4550 C   0  0  0  0  0  2  0  0  0  0  0  0
  185.1430  178.3710  142.7620 C   0  0  0  0  0  2  0  0  0  0  0  0
  191.4470  175.5050  146.1100 C   0  0  2  0  0  3  0  0  0  0  0  0
  187.6740  176.4440  146.0730 C   0  0  0  0  0  2  0  0  0  0  0  0
  186.5880  178.7690  143.1240 C   0  0  0  0  0  2  0  0  0  0  0  0
  190.0520  175.6200  146.7490 C   0  0  1  0  0  3  0  0  0  0  0  0
  193.8300  175.4840  146.3540 C   0  0  0  0  0  2  0  0  0  0  0  0
  187.3280  177.6510  143.9020 C   0  0  1  0  0  3  0  0  0  0  0  0
  184.0980  178.6420  143.8690 C   0  0  0  0  0  2  0  0  0  0  0  0
  189.7040  177.2440  144.7280 C   0  0  0  0  0  0  0  0  0  0  0  0
  185.4280  177.3320  145.4770 C   0  0  1  0  0  3  0  0  0  0  0  0
  189.1780  176.7240  146.0660 C   0  0  1  0  0  3  0  0  0  0  0  0
  190.7580  178.2720  142.3360 C   0  0  0  0  0  3  0  0  0  0  0  0
  189.3760  178.2220  142.5290 C   0  0  0  0  0  3  0  0  0  0  0  0
  192.5440  174.9740  147.0010 C   0  0  0  0  0  2  0  0  0  0  0  0
  191.6200  177.8280  143.3400 C   0  0  0  0  0  3  0  0  0  0  0  0
  191.9720  176.8350  145.6510 C   0  0  2  0  0  3  0  0  0  0  0  0
  189.3780  174.2450  146.7300 C   0  0  0  0  0  2  0  0  0  0  0  0
  189.2910  173.6790  145.3210 C   0  0  0  0  0  2  0  0  0  0  0  0
  189.7530  172.2330  145.3010 C   0  0  0  0  0  2  0  0  0  0  0  0
  190.6060  172.0330  144.2150 O   0  0  0  0  0  0  0  0  0  0  0  0
  190.1430  172.9160  143.2380 C   0  0  0  0  0  2  0  0  0  0  0  0
  189.4810  172.1450  142.1060 C   0  0  0  0  0  2  0  0  0  0  0  0
  188.3180  175.0980  140.7950 C   0  0  0  0  0  2  0  0  0  0  0  0
  188.2720  172.9860  140.0920 C   0  0  0  0  0  2  0  0  0  0  0  0
  188.2380  172.8650  141.6020 C   0  0  2  0  0  3  0  0  0  0  0  0
  188.7510  174.2610  139.7560 O   0  0  0  0  0  0  0  0  0  0  0  0
  188.2710  174.2900  142.0700 C   0  0  0  0  0  2  0  0  0  0  0  0
  1 16  1  0  0  0  0
  1 23  1  0  0  0  0
  2 13  1  0  0  0  0
  3 15  1  6  0  0  0
  3 17  1  0  0  0  0
  3  7  1  0  0  0  0
  4 14  1  0  0  0  0
  4 16  2  0  0  0  0
  5 17  1  0  0  0  0
  5 10  1  6  0  0  0
  7  6  1  0  0  0  0
  8 11  1  0  0  0  0
  8 15  1  0  0  0  0
  9 12  1  0  0  0  0
  9 21  1  1  0  0  0
 12 24  1  6  0  0  0
 13 21  1  0  0  0  0
 14 11  1  1  0  0  0
 14  5  1  0  0  0  0
 16 18  1  0  0  0  0
 17  6  1  1  0  0  0
 18 10  1  6  0  0  0
 18 12  1  0  0  0  0
 19 20  2  0  0  0  0
 19 22  1  0  0  0  0
 20  4  1  0  0  0  0
 22  1  2  0  0  0  0
 23  2  1  6  0  0  0
 23  9  1  0  0  0  0
 25 24  1  0  0  0  0
 26 25  1  0  0  0  0
 27 26  1  0  0  0  0
 28 27  1  0  0  0  0
 29 28  1  0  0  0  0
 30 34  1  0  0  0  0
 31 32  1  0  0  0  0
 32 34  1  0  0  0  0
 32 29  1  1  0  0  0
 33 31  1  0  0  0  0
 33 30  1  0  0  0  0
M  END
>  <MODEL>
2

>  <REMARK>
 VINA RESULT:      -7.7      1.572      6.371
  Name = 
  7 active torsions:
  status: ('A' for Active; 'I' for Inactive)
    1  A    between atoms: C_10  and  O_17
    2  A    between atoms: C_10  and  C_22
    3  A    between atoms: C_13  and  C_24
    4  A    between atoms: O_17  and  C_28
    5  A    between atoms: C_22  and  C_24
    6  A    between atoms: C_28  and  C_29
    7  A    between atoms: C_29  and  C_32
                            x       y       z     vdW  Elec       q    Type
                         _______ _______ _______ _____ _____    ______ ____

>  <TORSDO>
F 7

$$$$
=
 OpenBabel11112417573D

 34 40  0  0  1  0  0  0  0  0999 V2000
  188.2580  176.7860  145.8260 C   0  0  0  0  0  0  0  0  0  0  0  0
  186.1160  178.2090  145.9170 C   0  0  0  0  0  2  0  0  0  0  0  0
  194.2460  175.2400  143.7290 C   0  0  2  0  0  3  0  0  0  0  0  0
  190.1650  175.2960  145.4970 C   0  0  0  0  0  0  0  0  0  0  0  0
  191.9260  175.9600  143.7950 C   0  0  1  0  0  3  0  0  0  0  0  0
  193.7500  176.2790  141.9380 C   0  0  0  0  0  2  0  0  0  0  0  0
  195.0540  175.9040  142.6370 C   0  0  0  0  0  2  0  0  0  0  0  0
  193.2920  173.1430  144.7630 C   0  0  0  0  0  2  0  0  0  0  0  0
  187.2620  177.8380  143.8810 C   0  0  2  0  0  3  0  0  0  0  0  0
  190.8120  176.5540  142.9470 C   0  0  0  0  0  2  0  0  0  0  0  0
  192.4270  174.1400  145.5630 C   0  0  0  0  0  2  0  0  0  0  0  0
  188.5690  177.8760  143.0720 C   0  0  1  0  0  3  0  0  0  0  0  0
  185.3860  178.9920  144.8240 C   0  0  0  0  0  2  0  0  0  0  0  0
  191.3520  174.8240  144.6800 C   0  0  1  0  0  3  0  0  0  0  0  0
  194.4970  173.7740  144.0270 C   0  0  0  0  0  2  0  0  0  0  0  0
  189.3760  176.3870  145.0650 C   0  0  0  0  0  0  0  0  0  0  0  0
  193.0000  175.3720  142.8980 C   0  0  1  0  0  3  0  0  0  0  0  0
  189.7620  177.2180  143.8420 C   0  0  1  0  0  3  0  0  0  0  0  0
  188.6500  174.9700  147.3790 C   0  0  0  0  0  3  0  0  0  0  0  0
  189.7670  174.5790  146.6390 C   0  0  0  0  0  3  0  0  0  0  0  0
  186.2540  178.9170  143.5690 C   0  0  0  0  0  2  0  0  0  0  0  0
  187.9010  176.0790  146.9800 C   0  0  0  0  0  3  0  0  0  0  0  0
  187.5040  177.9910  145.3570 C   0  0  2  0  0  3  0  0  0  0  0  0
  188.3290  177.2320  141.7030 C   0  0  0  0  0  2  0  0  0  0  0  0
  187.3360  176.0820  141.7880 C   0  0  0  0  0  2  0  0  0  0  0  0
  188.0450  174.7540  141.5890 C   0  0  0  0  0  2  0  0  0  0  0  0
  188.4570  174.6430  140.2610 O   0  0  0  0  0  0  0  0  0  0  0  0
  189.5690  173.8010  140.3080 C   0  0  0  0  0  2  0  0  0  0  0  0
  189.7820  173.2920  141.7250 C   0  0  0  0  0  2  0  0  0  0  0  0
  190.8640  170.0370  141.8930 C   0  0  0  0  0  2  0  0  0  0  0  0
  191.2720  171.7170  140.4900 C   0  0  0  0  0  2  0  0  0  0  0  0
  191.0170  172.4070  141.8140 C   0  0  2  0  0  3  0  0  0  0  0  0
  190.7370  170.4210  140.5500 O   0  0  0  0  0  0  0  0  0  0  0  0
  190.7410  171.2710  142.7560 C   0  0  0  0  0  2  0  0  0  0  0  0
  1 22  1  0  0  0  0
  3  7  1  6  0  0  0
  3 15  1  0  0  0  0
  4 20  2  0  0  0  0
  5 10  1  6  0  0  0
  5 14  1  0  0  0  0
  6  7  1  0  0  0  0
  8 11  1  0  0  0  0
  9 21  1  6  0  0  0
  9 23  1  0  0  0  0
 12 24  1  6  0  0  0
 12 18  1  0  0  0  0
 12  9  1  0  0  0  0
 13  2  1  0  0  0  0
 14  4  1  0  0  0  0
 14 11  1  1  0  0  0
 15  8  1  0  0  0  0
 16  4  1  0  0  0  0
 16  1  2  0  0  0  0
 17  6  1  6  0  0  0
 17  3  1  0  0  0  0
 17  5  1  0  0  0  0
 18 10  1  6  0  0  0
 18 16  1  0  0  0  0
 20 19  1  0  0  0  0
 21 13  1  0  0  0  0
 22 19  2  0  0  0  0
 23  1  1  0  0  0  0
 23  2  1  1  0  0  0
 24 25  1  0  0  0  0
 26 25  1  0  0  0  0
 27 28  1  0  0  0  0
 27 26  1  0  0  0  0
 28 29  1  0  0  0  0
 30 34  1  0  0  0  0
 31 33  1  0  0  0  0
 31 32  1  0  0  0  0
 32 29  1  6  0  0  0
 32 34  1  0  0  0  0
 33 30  1  0  0  0  0
M  END
>  <MODEL>
3

>  <REMARK>
 VINA RESULT:      -7.6      1.720      2.737
  Name = 
  7 active torsions:
  status: ('A' for Active; 'I' for Inactive)
    1  A    between atoms: C_10  and  O_17
    2  A    between atoms: C_10  and  C_22
    3  A    between atoms: C_13  and  C_24
    4  A    between atoms: O_17  and  C_28
    5  A    between atoms: C_22  and  C_24
    6  A    between atoms: C_28  and  C_29
    7  A    between atoms: C_29  and  C_32
                            x       y       z     vdW  Elec       q    Type
                         _______ _______ _______ _____ _____    ______ ____

>  <TORSDO>
F 7

$$$$
=
 OpenBabel11112417573D

 34 40  0  0  1  0  0  0  0  0999 V2000
  186.0660  177.3680  142.5380 C   0  0  0  0  0  0  0  0  0  0  0  0
  184.7240  178.9810  144.0280 C   0  0  0  0  0  2  0  0  0  0  0  0
  189.7600  172.1190  141.3340 C   0  0  2  0  0  3  0  0  0  0  0  0
  187.5870  175.9980  141.2060 C   0  0  0  0  0  0  0  0  0  0  0  0
  188.8310  174.1140  142.3640 C   0  0  1  0  0  3  0  0  0  0  0  0
  190.4150  172.2730  143.3530 C   0  0  0  0  0  2  0  0  0  0  0  0
  190.3520  171.1460  142.3270 C   0  0  0  0  0  2  0  0  0  0  0  0
  190.0540  173.6650  139.3580 C   0  0  0  0  0  2  0  0  0  0  0  0
  186.7370  177.9940  144.7830 C   0  0  2  0  0  3  0  0  0  0  0  0
  188.9120  174.9950  143.6020 C   0  0  0  0  0  2  0  0  0  0  0  0
  188.6680  174.1910  139.7840 C   0  0  0  0  0  2  0  0  0  0  0  0
  187.5870  176.7350  145.0200 C   0  0  1  0  0  3  0  0  0  0  0  0
  184.9530  179.4370  145.4710 C   0  0  0  0  0  2  0  0  0  0  0  0
  188.7290  175.0070  141.1010 C   0  0  1  0  0  3  0  0  0  0  0  0
  190.4680  172.3240  140.0070 C   0  0  0  0  0  2  0  0  0  0  0  0
  187.1070  176.4200  142.4680 C   0  0  0  0  0  0  0  0  0  0  0  0
  190.0840  173.2660  142.2510 C   0  0  1  0  0  3  0  0  0  0  0  0
  187.6190  175.7970  143.7660 C   0  0  1  0  0  3  0  0  0  0  0  0
  186.0450  177.5470  140.1240 C   0  0  0  0  0  3  0  0  0  0  0  0
  187.0660  176.5980  140.0460 C   0  0  0  0  0  3  0  0  0  0  0  0
  186.1310  178.6290  146.0110 C   0  0  0  0  0  2  0  0  0  0  0  0
  185.5370  177.9240  141.3680 C   0  0  0  0  0  3  0  0  0  0  0  0
  185.5520  177.7220  143.9000 C   0  0  2  0  0  3  0  0  0  0  0  0
  188.9880  177.1540  145.4740 C   0  0  0  0  0  2  0  0  0  0  0  0
  189.2540  176.7570  146.9180 C   0  0  0  0  0  2  0  0  0  0  0  0
  189.7840  175.3350  146.9870 C   0  0  0  0  0  2  0  0  0  0  0  0
  190.8210  175.2710  147.9190 O   0  0  0  0  0  0  0  0  0  0  0  0
  191.9320  175.7780  147.2430 C   0  0  0  0  0  2  0  0  0  0  0  0
  192.3230  174.8480  146.1050 C   0  0  0  0  0  2  0  0  0  0  0  0
  192.6070  175.8820  142.8430 C   0  0  0  0  0  2  0  0  0  0  0  0
  192.7180  176.9370  144.8000 C   0  0  0  0  0  2  0  0  0  0  0  0
  193.2370  175.5480  145.1090 C   0  0  2  0  0  3  0  0  0  0  0  0
  191.9890  176.8870  143.6020 O   0  0  0  0  0  0  0  0  0  0  0  0
  193.1580  174.8400  143.7880 C   0  0  0  0  0  2  0  0  0  0  0  0
  1 23  1  0  0  0  0
  2 13  1  0  0  0  0
  3 15  1  6  0  0  0
  3 17  1  0  0  0  0
  3  7  1  0  0  0  0
  4 16  2  0  0  0  0
  5 10  1  1  0  0  0
  7  6  1  0  0  0  0
  8 11  1  0  0  0  0
  8 15  1  0  0  0  0
  9 12  1  0  0  0  0
  9 21  1  1  0  0  0
 12 24  1  6  0  0  0
 13 21  1  0  0  0  0
 14 11  1  6  0  0  0
 14  4  1  0  0  0  0
 14  5  1  0  0  0  0
 16  1  1  0  0  0  0
 16 18  1  0  0  0  0
 17  5  1  0  0  0  0
 17  6  1  1  0  0  0
 18 10  1  6  0  0  0
 18 12  1  0  0  0  0
 19 22  1  0  0  0  0
 20 19  2  0  0  0  0
 20  4  1  0  0  0  0
 22  1  2  0  0  0  0
 23  2  1  6  0  0  0
 23  9  1  0  0  0  0
 24 25  1  0  0  0  0
 25 26  1  0  0  0  0
 26 27  1  0  0  0  0
 28 27  1  0  0  0  0
 29 28  1  0  0  0  0
 30 33  1  0  0  0  0
 30 34  1  0  0  0  0
 31 32  1  0  0  0  0
 32 29  1  1  0  0  0
 33 31  1  0  0  0  0
 34 32  1  0  0  0  0
M  END
>  <MODEL>
4

>  <REMARK>
 VINA RESULT:      -7.5      1.938      5.133
  Name = 
  7 active torsions:
  status: ('A' for Active; 'I' for Inactive)
    1  A    between atoms: C_10  and  O_17
    2  A    between atoms: C_10  and  C_22
    3  A    between atoms: C_13  and  C_24
    4  A    between atoms: O_17  and  C_28
    5  A    between atoms: C_22  and  C_24
    6  A    between atoms: C_28  and  C_29
    7  A    between atoms: C_29  and  C_32
                            x       y       z     vdW  Elec       q    Type
                         _______ _______ _______ _____ _____    ______ ____

>  <TORSDO>
F 7

$$$$
=
 OpenBabel11112417573D

 34 40  0  0  1  0  0  0  0  0999 V2000
  190.0220  176.9540  145.8810 C   0  0  0  0  0  0  0  0  0  0  0  0
  187.5150  177.5320  145.9390 C   0  0  0  0  0  2  0  0  0  0  0  0
  195.9030  176.4140  143.0950 C   0  0  2  0  0  3  0  0  0  0  0  0
  192.3160  176.1350  145.7110 C   0  0  0  0  0  0  0  0  0  0  0  0
  193.5040  176.3520  143.4790 C   0  0  1  0  0  3  0  0  0  0  0  0
  194.8690  176.2300  141.2430 C   0  0  0  0  0  2  0  0  0  0  0  0
  196.2780  176.6530  141.6500 C   0  0  0  0  0  2  0  0  0  0  0  0
  195.9460  174.9320  145.1390 C   0  0  0  0  0  2  0  0  0  0  0  0
  188.5100  176.5570  144.0270 C   0  0  2  0  0  3  0  0  0  0  0  0
  192.1690  176.0900  142.7980 C   0  0  0  0  0  2  0  0  0  0  0  0
  194.8440  175.8880  145.6420 C   0  0  0  0  0  2  0  0  0  0  0  0
  189.6130  176.5720  142.9550 C   0  0  1  0  0  3  0  0  0  0  0  0
  186.4350  177.4150  144.8610 C   0  0  0  0  0  2  0  0  0  0  0  0
  193.5070  175.6940  144.8820 C   0  0  1  0  0  3  0  0  0  0  0  0
  196.7320  175.4370  143.9080 C   0  0  0  0  0  2  0  0  0  0  0  0
  191.1260  176.5800  145.0890 C   0  0  0  0  0  0  0  0  0  0  0  0
  194.6290  175.7430  142.6620 C   0  0  1  0  0  3  0  0  0  0  0  0
  191.0370  176.7670  143.5740 C   0  0  1  0  0  3  0  0  0  0  0  0
  191.2380  176.3550  147.8860 C   0  0  0  0  0  3  0  0  0  0  0  0
  192.3420  175.9970  147.1090 C   0  0  0  0  0  3  0  0  0  0  0  0
  187.1360  176.9880  143.5740 C   0  0  0  0  0  2  0  0  0  0  0  0
  190.0830  176.8430  147.2750 C   0  0  0  0  0  3  0  0  0  0  0  0
  188.8160  177.4850  145.1690 C   0  0  2  0  0  3  0  0  0  0  0  0
  189.5100  175.2970  142.1130 C   0  0  0  0  0  2  0  0  0  0  0  0
  188.9480  174.1340  142.9190 C   0  0  0  0  0  2  0  0  0  0  0  0
  189.9650  173.0090  143.0040 C   0  0  0  0  0  2  0  0  0  0  0  0
  190.0580  172.5680  144.3240 O   0  0  0  0  0  0  0  0  0  0  0  0
  191.4120  172.6920  144.6400 C   0  0  0  0  0  2  0  0  0  0  0  0
  192.2620  172.5010  143.3930 C   0  0  0  0  0  2  0  0  0  0  0  0
  194.3290  170.6220  145.3900 C   0  0  0  0  0  2  0  0  0  0  0  0
  194.1620  170.8970  143.1860 C   0  0  0  0  0  2  0  0  0  0  0  0
  193.7160  172.2300  143.7520 C   0  0  2  0  0  3  0  0  0  0  0  0
  194.0700  169.9290  144.1980 O   0  0  0  0  0  0  0  0  0  0  0  0
  193.8280  172.0390  145.2360 C   0  0  0  0  0  2  0  0  0  0  0  0
  1 22  1  0  0  0  0
  3  7  1  6  0  0  0
  3 15  1  0  0  0  0
  4 20  2  0  0  0  0
  5 10  1  6  0  0  0
  5 14  1  0  0  0  0
  6  7  1  0  0  0  0
  8 11  1  0  0  0  0
  9 21  1  6  0  0  0
  9 23  1  0  0  0  0
 12 24  1  1  0  0  0
 12 18  1  0  0  0  0
 12  9  1  0  0  0  0
 13  2  1  0  0  0  0
 14 11  1  1  0  0  0
 14  4  1  0  0  0  0
 15  8  1  0  0  0  0
 16  4  1  0  0  0  0
 16  1  2  0  0  0  0
 17  6  1  6  0  0  0
 17  3  1  0  0  0  0
 17  5  1  0  0  0  0
 18 10  1  6  0  0  0
 18 16  1  0  0  0  0
 20 19  1  0  0  0  0
 21 13  1  0  0  0  0
 22 19  2  0  0  0  0
 23  1  1  0  0  0  0
 23  2  1  1  0  0  0
 24 25  1  0  0  0  0
 25 26  1  0  0  0  0
 26 27  1  0  0  0  0
 27 28  1  0  0  0  0
 29 28  1  0  0  0  0
 31 32  1  0  0  0  0
 31 33  1  0  0  0  0
 32 29  1  1  0  0  0
 32 34  1  0  0  0  0
 33 30  1  0  0  0  0
 34 30  1  0  0  0  0
M  END
>  <MODEL>
5

>  <REMARK>
 VINA RESULT:      -7.5      1.676      3.421
  Name = 
  7 active torsions:
  status: ('A' for Active; 'I' for Inactive)
    1  A    between atoms: C_10  and  O_17
    2  A    between atoms: C_10  and  C_22
    3  A    between atoms: C_13  and  C_24
    4  A    between atoms: O_17  and  C_28
    5  A    between atoms: C_22  and  C_24
    6  A    between atoms: C_28  and  C_29
    7  A    between atoms: C_29  and  C_32
                            x       y       z     vdW  Elec       q    Type
                         _______ _______ _______ _____ _____    ______ ____

>  <TORSDO>
F 7

$$$$
=
 OpenBabel11112417573D

 34 40  0  0  1  0  0  0  0  0999 V2000
  186.2960  177.3110  142.6820 C   0  0  0  0  0  0  0  0  0  0  0  0
  185.1250  178.9070  144.3250 C   0  0  0  0  0  2  0  0  0  0  0  0
  189.7310  172.0130  141.0190 C   0  0  2  0  0  3  0  0  0  0  0  0
  187.6660  175.9490  141.1880 C   0  0  0  0  0  0  0  0  0  0  0  0
  188.9450  173.9950  142.1830 C   0  0  1  0  0  3  0  0  0  0  0  0
  190.5500  172.0820  142.9820 C   0  0  0  0  0  2  0  0  0  0  0  0
  190.3730  170.9910  141.9300 C   0  0  0  0  0  2  0  0  0  0  0  0
  189.9110  173.6160  139.0760 C   0  0  0  0  0  2  0  0  0  0  0  0
  187.1620  177.8450  144.8830 C   0  0  2  0  0  3  0  0  0  0  0  0
  189.1490  174.8320  143.4370 C   0  0  0  0  0  2  0  0  0  0  0  0
  188.5790  174.1630  139.6280 C   0  0  0  0  0  2  0  0  0  0  0  0
  187.9920  176.5560  145.0120 C   0  0  1  0  0  3  0  0  0  0  0  0
  185.4810  179.3090  145.7580 C   0  0  0  0  0  2  0  0  0  0  0  0
  188.7680  174.9320  140.9610 C   0  0  1  0  0  3  0  0  0  0  0  0
  190.3370  172.2440  139.6470 C   0  0  0  0  0  2  0  0  0  0  0  0
  187.3020  176.3400  142.4980 C   0  0  0  0  0  0  0  0  0  0  0  0
  190.1600  173.1190  141.9430 C   0  0  1  0  0  3  0  0  0  0  0  0
  187.8970  175.6610  143.7310 C   0  0  1  0  0  3  0  0  0  0  0  0
  186.0880  177.5720  140.2840 C   0  0  0  0  0  3  0  0  0  0  0  0
  187.0720  176.6000  140.0940 C   0  0  0  0  0  3  0  0  0  0  0  0
  186.6740  178.4530  146.1760 C   0  0  0  0  0  2  0  0  0  0  0  0
  185.6920  177.9210  141.5760 C   0  0  0  0  0  3  0  0  0  0  0  0
  185.9030  177.6330  144.0910 C   0  0  2  0  0  3  0  0  0  0  0  0
  189.4370  176.9240  145.3640 C   0  0  0  0  0  2  0  0  0  0  0  0
  189.9830  178.0040  144.4430 C   0  0  0  0  0  2  0  0  0  0  0  0
  191.4700  177.8000  144.2120 C   0  0  0  0  0  2  0  0  0  0  0  0
  191.6570  176.9620  143.1120 O   0  0  0  0  0  0  0  0  0  0  0  0
  192.8840  176.3410  143.3500 C   0  0  0  0  0  2  0  0  0  0  0  0
  192.6700  175.0030  144.0390 C   0  0  0  0  0  2  0  0  0  0  0  0
  194.0590  176.7610  146.6420 C   0  0  0  0  0  2  0  0  0  0  0  0
  192.6810  175.0150  146.5340 C   0  0  0  0  0  2  0  0  0  0  0  0
  193.5320  174.8810  145.2880 C   0  0  2  0  0  3  0  0  0  0  0  0
  192.7690  176.3370  146.9960 O   0  0  0  0  0  0  0  0  0  0  0  0
  194.4570  176.0600  145.3640 C   0  0  0  0  0  2  0  0  0  0  0  0
  1 23  1  0  0  0  0
  2 13  1  0  0  0  0
  3 15  1  6  0  0  0
  3  7  1  0  0  0  0
  3 17  1  0  0  0  0
  4 16  2  0  0  0  0
  5 10  1  1  0  0  0
  7  6  1  0  0  0  0
  8 11  1  0  0  0  0
  8 15  1  0  0  0  0
  9 12  1  0  0  0  0
  9 21  1  1  0  0  0
 12 24  1  6  0  0  0
 13 21  1  0  0  0  0
 14 11  1  6  0  0  0
 14  4  1  0  0  0  0
 14  5  1  0  0  0  0
 16  1  1  0  0  0  0
 16 18  1  0  0  0  0
 17  5  1  0  0  0  0
 17  6  1  1  0  0  0
 18 10  1  6  0  0  0
 18 12  1  0  0  0  0
 19 22  1  0  0  0  0
 20 19  2  0  0  0  0
 20  4  1  0  0  0  0
 22  1  2  0  0  0  0
 23  2  1  6  0  0  0
 23  9  1  0  0  0  0
 25 24  1  0  0  0  0
 26 25  1  0  0  0  0
 27 28  1  0  0  0  0
 27 26  1  0  0  0  0
 28 29  1  0  0  0  0
 30 33  1  0  0  0  0
 31 33  1  0  0  0  0
 32 29  1  6  0  0  0
 32 34  1  0  0  0  0
 32 31  1  0  0  0  0
 34 30  1  0  0  0  0
M  END
>  <MODEL>
6

>  <REMARK>
 VINA RESULT:      -7.3      2.005      5.139
  Name = 
  7 active torsions:
  status: ('A' for Active; 'I' for Inactive)
    1  A    between atoms: C_10  and  O_17
    2  A    between atoms: C_10  and  C_22
    3  A    between atoms: C_13  and  C_24
    4  A    between atoms: O_17  and  C_28
    5  A    between atoms: C_22  and  C_24
    6  A    between atoms: C_28  and  C_29
    7  A    between atoms: C_29  and  C_32
                            x       y       z     vdW  Elec       q    Type
                         _______ _______ _______ _____ _____    ______ ____

>  <TORSDO>
F 7

$$$$
=
 OpenBabel11112417573D

 34 40  0  0  1  0  0  0  0  0999 V2000
  190.9820  177.4760  144.5770 C   0  0  0  0  0  0  0  0  0  0  0  0
  193.3060  176.7760  145.4330 C   0  0  0  0  0  2  0  0  0  0  0  0
  184.6160  178.8050  145.1690 C   0  0  2  0  0  3  0  0  0  0  0  0
  188.7170  177.8400  143.7410 C   0  0  0  0  0  0  0  0  0  0  0  0
  186.7990  177.7620  145.4010 C   0  0  1  0  0  3  0  0  0  0  0  0
  184.6270  177.4940  146.8460 C   0  0  0  0  0  2  0  0  0  0  0  0
  183.7380  178.6480  146.3900 C   0  0  0  0  0  2  0  0  0  0  0  0
  185.0290  178.3820  142.7140 C   0  0  0  0  0  2  0  0  0  0  0  0
  191.3340  175.7670  146.2620 C   0  0  2  0  0  3  0  0  0  0  0  0
  187.5540  176.6730  146.1470 C   0  0  0  0  0  2  0  0  0  0  0  0
  186.4700  178.8110  143.0600 C   0  0  0  0  0  2  0  0  0  0  0  0
  189.9340  175.9090  146.8840 C   0  0  1  0  0  3  0  0  0  0  0  0
  193.7150  175.7800  146.5190 C   0  0  0  0  0  2  0  0  0  0  0  0
  187.2120  177.7470  143.9070 C   0  0  1  0  0  3  0  0  0  0  0  0
  183.9750  178.7090  143.7970 C   0  0  0  0  0  2  0  0  0  0  0  0
  189.5870  177.4090  144.7690 C   0  0  0  0  0  0  0  0  0  0  0  0
  185.3050  177.5070  145.4870 C   0  0  1  0  0  3  0  0  0  0  0  0
  189.0560  176.9650  146.1320 C   0  0  1  0  0  3  0  0  0  0  0  0
  190.6480  178.3010  142.3260 C   0  0  0  0  0  3  0  0  0  0  0  0
  189.2650  178.2520  142.5140 C   0  0  0  0  0  3  0  0  0  0  0  0
  192.4300  175.2980  147.1880 C   0  0  0  0  0  2  0  0  0  0  0  0
  191.5070  177.9250  143.3590 C   0  0  0  0  0  3  0  0  0  0  0  0
  191.8520  177.0720  145.7270 C   0  0  2  0  0  3  0  0  0  0  0  0
  189.2710  174.5300  146.9430 C   0  0  0  0  0  2  0  0  0  0  0  0
  189.8670  173.5740  145.9210 C   0  0  0  0  0  2  0  0  0  0  0  0
  189.1480  173.7070  144.5900 C   0  0  0  0  0  2  0  0  0  0  0  0
  190.0010  173.3080  143.5600 O   0  0  0  0  0  0  0  0  0  0  0  0
  189.9860  174.3750  142.6600 C   0  0  0  0  0  2  0  0  0  0  0  0
  191.2680  174.3890  141.8410 C   0  0  0  0  0  2  0  0  0  0  0  0
  194.5410  173.4180  142.2090 C   0  0  0  0  0  2  0  0  0  0  0  0
  193.5330  175.4010  142.1030 C   0  0  0  0  0  2  0  0  0  0  0  0
  192.4930  174.5000  142.7370 C   0  0  2  0  0  3  0  0  0  0  0  0
  194.4830  174.5980  141.4530 O   0  0  0  0  0  0  0  0  0  0  0  0
  193.1760  173.1660  142.8050 C   0  0  0  0  0  2  0  0  0  0  0  0
  1 16  1  0  0  0  0
  1 23  1  0  0  0  0
  2 13  1  0  0  0  0
  3 15  1  6  0  0  0
  3 17  1  0  0  0  0
  3  7  1  0  0  0  0
  4 14  1  0  0  0  0
  4 16  2  0  0  0  0
  5 17  1  0  0  0  0
  5 10  1  1  0  0  0
  7  6  1  0  0  0  0
  8 11  1  0  0  0  0
  8 15  1  0  0  0  0
  9 12  1  0  0  0  0
  9 21  1  1  0  0  0
 12 24  1  6  0  0  0
 13 21  1  0  0  0  0
 14 11  1  6  0  0  0
 14  5  1  0  0  0  0
 16 18  1  0  0  0  0
 17  6  1  1  0  0  0
 18 10  1  6  0  0  0
 18 12  1  0  0  0  0
 19 20  2  0  0  0  0
 19 22  1  0  0  0  0
 20  4  1  0  0  0  0
 22  1  2  0  0  0  0
 23  2  1  6  0  0  0
 23  9  1  0  0  0  0
 25 24  1  0  0  0  0
 26 25  1  0  0  0  0
 27 26  1  0  0  0  0
 28 27  1  0  0  0  0
 29 28  1  0  0  0  0
 30 34  1  0  0  0  0
 31 32  1  0  0  0  0
 32 29  1  6  0  0  0
 32 34  1  0  0  0  0
 33 31  1  0  0  0  0
 33 30  1  0  0  0  0
M  END
>  <MODEL>
7

>  <REMARK>
 VINA RESULT:      -7.3      1.787      6.144
  Name = 
  7 active torsions:
  status: ('A' for Active; 'I' for Inactive)
    1  A    between atoms: C_10  and  O_17
    2  A    between atoms: C_10  and  C_22
    3  A    between atoms: C_13  and  C_24
    4  A    between atoms: O_17  and  C_28
    5  A    between atoms: C_22  and  C_24
    6  A    between atoms: C_28  and  C_29
    7  A    between atoms: C_29  and  C_32
                            x       y       z     vdW  Elec       q    Type
                         _______ _______ _______ _____ _____    ______ ____

>  <TORSDO>
F 7

$$$$
=
 OpenBabel11112417573D

 34 40  0  0  1  0  0  0  0  0999 V2000
  186.3420  177.6830  144.4940 C   0  0  0  0  0  0  0  0  0  0  0  0
  184.3910  178.4010  142.9780 C   0  0  0  0  0  2  0  0  0  0  0  0
  192.6210  176.6550  145.9610 C   0  0  2  0  0  3  0  0  0  0  0  0
  188.1770  176.7290  145.7930 C   0  0  0  0  0  0  0  0  0  0  0  0
  190.5020  176.7480  144.7760 C   0  0  1  0  0  3  0  0  0  0  0  0
  192.9410  176.4190  143.8700 C   0  0  0  0  0  2  0  0  0  0  0  0
  193.8260  176.7870  145.0580 C   0  0  0  0  0  2  0  0  0  0  0  0
  191.2740  175.2960  147.6100 C   0  0  0  0  0  2  0  0  0  0  0  0
  186.2710  177.2610  142.1070 C   0  0  2  0  0  3  0  0  0  0  0  0
  189.8560  176.5210  143.4180 C   0  0  0  0  0  2  0  0  0  0  0  0
  190.1780  176.3390  147.3090 C   0  0  0  0  0  2  0  0  0  0  0  0
  187.7970  177.1520  141.9500 C   0  0  1  0  0  3  0  0  0  0  0  0
  184.2010  178.2810  141.4640 C   0  0  0  0  0  2  0  0  0  0  0  0
  189.5850  176.1750  145.8870 C   0  0  1  0  0  3  0  0  0  0  0  0
  192.6900  175.6830  147.1250 C   0  0  0  0  0  2  0  0  0  0  0  0
  187.6650  177.2020  144.5620 C   0  0  0  0  0  0  0  0  0  0  0  0
  191.8380  176.0310  144.8400 C   0  0  1  0  0  3  0  0  0  0  0  0
  188.5460  177.3040  143.3160 C   0  0  1  0  0  3  0  0  0  0  0  0
  186.0080  177.1360  146.8280 C   0  0  0  0  0  3  0  0  0  0  0  0
  187.3220  176.6730  146.9070 C   0  0  0  0  0  3  0  0  0  0  0  0
  185.5100  177.7400  140.8940 C   0  0  0  0  0  2  0  0  0  0  0  0
  185.5200  177.6510  145.6260 C   0  0  0  0  0  3  0  0  0  0  0  0
  185.8800  178.2360  143.1810 C   0  0  2  0  0  3  0  0  0  0  0  0
  188.1340  175.8370  141.2410 C   0  0  0  0  0  2  0  0  0  0  0  0
  187.4340  174.6520  141.8890 C   0  0  0  0  0  2  0  0  0  0  0  0
  188.2590  173.3890  141.7130 C   0  0  0  0  0  2  0  0  0  0  0  0
  188.9440  173.1130  142.8970 O   0  0  0  0  0  0  0  0  0  0  0  0
  189.7770  172.0400  142.5780 C   0  0  0  0  0  2  0  0  0  0  0  0
  190.1850  172.1090  141.1140 C   0  0  0  0  0  2  0  0  0  0  0  0
  192.6850  173.9640  139.6640 C   0  0  0  0  0  2  0  0  0  0  0  0
  192.2020  173.4240  141.7690 C   0  0  0  0  0  2  0  0  0  0  0  0
  191.6940  172.2430  140.9680 C   0  0  2  0  0  3  0  0  0  0  0  0
  192.3480  174.5200  140.9070 O   0  0  0  0  0  0  0  0  0  0  0  0
  192.0200  172.6120  139.5500 C   0  0  0  0  0  2  0  0  0  0  0  0
  1 16  2  0  0  0  0
  1 22  1  0  0  0  0
  3  7  1  6  0  0  0
  3 15  1  0  0  0  0
  4 14  1  0  0  0  0
  4 20  2  0  0  0  0
  5 10  1  6  0  0  0
  5 17  1  0  0  0  0
  5 14  1  0  0  0  0
  6  7  1  0  0  0  0
  9 21  1  6  0  0  0
  9 23  1  0  0  0  0
 11  8  1  0  0  0  0
 12 24  1  1  0  0  0
 12  9  1  0  0  0  0
 12 18  1  0  0  0  0
 13  2  1  0  0  0  0
 14 11  1  1  0  0  0
 15  8  1  0  0  0  0
 16  4  1  0  0  0  0
 17  6  1  6  0  0  0
 17  3  1  0  0  0  0
 18 10  1  1  0  0  0
 18 16  1  0  0  0  0
 19 20  1  0  0  0  0
 21 13  1  0  0  0  0
 22 19  2  0  0  0  0
 23  2  1  1  0  0  0
 23  1  1  0  0  0  0
 24 25  1  0  0  0  0
 26 25  1  0  0  0  0
 26 27  1  0  0  0  0
 28 27  1  0  0  0  0
 29 28  1  0  0  0  0
 30 33  1  0  0  0  0
 32 29  1  6  0  0  0
 32 31  1  0  0  0  0
 33 31  1  0  0  0  0
 34 30  1  0  0  0  0
 34 32  1  0  0  0  0
M  END
>  <MODEL>
8

>  <REMARK>
 VINA RESULT:      -7.3      1.386      1.863
  Name = 
  7 active torsions:
  status: ('A' for Active; 'I' for Inactive)
    1  A    between atoms: C_10  and  O_17
    2  A    between atoms: C_10  and  C_22
    3  A    between atoms: C_13  and  C_24
    4  A    between atoms: O_17  and  C_28
    5  A    between atoms: C_22  and  C_24
    6  A    between atoms: C_28  and  C_29
    7  A    between atoms: C_29  and  C_32
                            x       y       z     vdW  Elec       q    Type
                         _______ _______ _______ _____ _____    ______ ____

>  <TORSDO>
F 7

$$$$
=
 OpenBabel11112417573D

 34 40  0  0  1  0  0  0  0  0999 V2000
  193.2610  172.8970  144.0610 C   0  0  0  0  0  0  0  0  0  0  0  0
  195.6110  172.4520  145.0120 C   0  0  0  0  0  2  0  0  0  0  0  0
  188.4330  176.6280  141.7350 C   0  0  2  0  0  3  0  0  0  0  0  0
  190.9480  173.3830  143.4470 C   0  0  0  0  0  0  0  0  0  0  0  0
  190.2930  175.8050  143.0650 C   0  0  1  0  0  3  0  0  0  0  0  0
  189.2940  178.2200  142.8540 C   0  0  0  0  0  2  0  0  0  0  0  0
  188.3830  178.1350  141.6330 C   0  0  0  0  0  2  0  0  0  0  0  0
  187.3670  174.4580  142.4640 C   0  0  0  0  0  2  0  0  0  0  0  0
  194.3810  174.3770  145.6220 C   0  0  2  0  0  3  0  0  0  0  0  0
  191.2600  176.1900  144.1740 C   0  0  0  0  0  2  0  0  0  0  0  0
  188.7790  173.8840  142.2240 C   0  0  0  0  0  2  0  0  0  0  0  0
  193.5850  175.6270  145.2080 C   0  0  1  0  0  3  0  0  0  0  0  0
  196.4900  173.2890  145.9420 C   0  0  0  0  0  2  0  0  0  0  0  0
  189.7940  174.3550  143.2950 C   0  0  1  0  0  3  0  0  0  0  0  0
  187.1280  175.8660  141.8730 C   0  0  0  0  0  2  0  0  0  0  0  0
  192.2140  173.8260  143.8970 C   0  0  0  0  0  0  0  0  0  0  0  0
  189.0920  176.7320  143.0830 C   0  0  1  0  0  3  0  0  0  0  0  0
  192.5110  175.3100  144.1150 C   0  0  1  0  0  3  0  0  0  0  0  0
  191.7780  171.0910  143.4290 C   0  0  0  0  0  3  0  0  0  0  0  0
  190.7400  172.0070  143.2500 C   0  0  0  0  0  3  0  0  0  0  0  0
  195.7730  174.6210  146.1540 C   0  0  0  0  0  2  0  0  0  0  0  0
  193.0410  171.5350  143.8240 C   0  0  0  0  0  3  0  0  0  0  0  0
  194.5970  173.4360  144.4710 C   0  0  2  0  0  3  0  0  0  0  0  0
  192.9770  176.2700  146.4580 C   0  0  0  0  0  2  0  0  0  0  0  0
  192.2650  175.2460  147.3280 C   0  0  0  0  0  2  0  0  0  0  0  0
  190.8100  175.6370  147.5230 C   0  0  0  0  0  2  0  0  0  0  0  0
  189.9920  174.7290  146.8500 O   0  0  0  0  0  0  0  0  0  0  0  0
  188.7340  175.3330  146.8370 C   0  0  0  0  0  2  0  0  0  0  0  0
  188.8760  176.8430  146.9480 C   0  0  0  0  0  2  0  0  0  0  0  0
  185.4690  176.7740  146.5250 C   0  0  0  0  0  2  0  0  0  0  0  0
  186.8820  178.2900  147.3410 C   0  0  0  0  0  2  0  0  0  0  0  0
  187.7000  177.5580  146.2970 C   0  0  2  0  0  3  0  0  0  0  0  0
  185.7830  177.4900  147.6900 O   0  0  0  0  0  0  0  0  0  0  0  0
  186.7450  176.5370  145.7520 C   0  0  0  0  0  2  0  0  0  0  0  0
  1 23  1  0  0  0  0
  2 13  1  0  0  0  0
  3  7  1  1  0  0  0
  3 15  1  0  0  0  0
  3 17  1  0  0  0  0
  4 16  2  0  0  0  0
  5 17  1  0  0  0  0
  5 14  1  0  0  0  0
  5 10  1  1  0  0  0
  7  6  1  0  0  0  0
  9 21  1  6  0  0  0
 11  8  1  0  0  0  0
 12  9  1  0  0  0  0
 12 24  1  1  0  0  0
 13 21  1  0  0  0  0
 14 11  1  6  0  0  0
 14  4  1  0  0  0  0
 15  8  1  0  0  0  0
 16  1  1  0  0  0  0
 16 18  1  0  0  0  0
 17  6  1  6  0  0  0
 18 10  1  1  0  0  0
 18 12  1  0  0  0  0
 19 22  1  0  0  0  0
 20 19  2  0  0  0  0
 20  4  1  0  0  0  0
 22  1  2  0  0  0  0
 23  2  1  1  0  0  0
 23  9  1  0  0  0  0
 24 25  1  0  0  0  0
 25 26  1  0  0  0  0
 27 26  1  0  0  0  0
 28 27  1  0  0  0  0
 28 29  1  0  0  0  0
 30 33  1  0  0  0  0
 31 33  1  0  0  0  0
 32 29  1  1  0  0  0
 32 31  1  0  0  0  0
 34 32  1  0  0  0  0
 34 30  1  0  0  0  0
M  END
>  <MODEL>
9

>  <REMARK>
 VINA RESULT:      -7.2      2.164      7.638
  Name = 
  7 active torsions:
  status: ('A' for Active; 'I' for Inactive)
    1  A    between atoms: C_10  and  O_17
    2  A    between atoms: C_10  and  C_22
    3  A    between atoms: C_13  and  C_24
    4  A    between atoms: O_17  and  C_28
    5  A    between atoms: C_22  and  C_24
    6  A    between atoms: C_28  and  C_29
    7  A    between atoms: C_29  and  C_32
                            x       y       z     vdW  Elec       q    Type
                         _______ _______ _______ _____ _____    ______ ____

>  <TORSDO>
F 7

$$$$
