=
 OpenBabel11112417573D

 34 42  0  0  1  0  0  0  0  0999 V2000
  190.2330  176.9720  146.3670 C   0  0  2  0  0  3  0  0  0  0  0  0
  187.6870  177.4440  146.8030 C   0  0  0  0  0  2  0  0  0  0  0  0
  195.4820  176.1720  142.6090 C   0  0  2  0  0  0  0  0  0  0  0  0
  192.4260  175.9980  145.7620 C   0  0  1  0  0  3  0  0  0  0  0  0
  193.2340  176.2620  143.3730 C   0  0  1  0  0  3  0  0  0  0  0  0
  194.7350  176.5000  141.2850 C   0  0  1  0  0  3  0  0  0  0  0  0
  196.2280  176.6060  141.3710 C   0  0  0  0  0  2  0  0  0  0  0  0
  195.6130  174.2930  144.3370 C   0  0  0  0  0  2  0  0  0  0  0  0
  188.4250  176.8720  144.6070 C   0  0  2  0  0  3  0  0  0  0  0  0
  187.1020  178.1350  141.9930 C   0  0  0  0  0  2  0  0  0  0  0  0
  191.7970  176.3260  142.8710 C   0  0  0  0  0  2  0  0  0  0  0  0
  194.7700  175.2690  145.1810 C   0  0  0  0  0  2  0  0  0  0  0  0
  189.4180  177.1920  143.4720 C   0  0  1  0  0  3  0  0  0  0  0  0
  186.4960  177.6350  145.8670 C   0  0  0  0  0  2  0  0  0  0  0  0
  193.3200  175.4060  144.6620 C   0  0  1  0  0  3  0  0  0  0  0  0
  196.1770  174.8810  143.0200 C   0  0  0  0  0  2  0  0  0  0  0  0
  186.7480  178.4560  143.4630 C   0  0  2  0  0  3  0  0  0  0  0  0
  190.9950  176.2230  145.2640 C   0  0  2  0  0  3  0  0  0  0  0  0
  194.1030  175.6220  142.3110 C   0  0  1  0  0  3  0  0  0  0  0  0
  190.9010  176.9800  143.9230 C   0  0  1  0  0  3  0  0  0  0  0  0
  191.2310  175.3400  147.9380 C   0  0  0  0  0  3  0  0  0  0  0  0
  187.5810  176.7020  141.7450 C   0  0  0  0  0  2  0  0  0  0  0  0
  192.3770  175.0600  146.9840 C   0  0  0  0  0  2  0  0  0  0  0  0
  189.0400  176.4920  142.1580 C   0  0  0  0  0  2  0  0  0  0  0  0
  186.9590  177.2810  144.4460 C   0  0  1  0  0  3  0  0  0  0  0  0
  190.2200  176.1740  147.6430 C   0  0  0  0  0  3  0  0  0  0  0  0
  188.8800  177.5280  145.8840 C   0  0  2  0  0  3  0  0  0  0  0  0
  185.3100  178.9560  143.5160 C   0  0  0  0  0  2  0  0  0  0  0  0
  184.3930  178.0110  142.7560 C   0  0  0  0  0  2  0  0  0  0  0  0
  182.3370  177.7670  140.0130 N   0  0  0  0  0  2  0  0  0  0  0  0
  182.0970  178.6130  142.0320 C   0  0  0  0  0  2  0  0  0  0  0  0
  183.5640  178.7830  141.7430 C   0  0  2  0  0  3  0  0  0  0  0  0
  181.6060  177.6350  141.1560 O   0  0  0  0  0  0  0  0  0  0  0  0
  183.6890  178.1270  140.4080 C   0  0  0  0  0  2  0  0  0  0  0  0
  1 26  1  1  0  0  0
  3  7  1  1  0  0  0
  3 16  1  0  0  0  0
  4 23  1  1  0  0  0
  5 11  1  6  0  0  0
  5 15  1  0  0  0  0
  6  7  1  6  0  0  0
  6 19  1  0  0  0  0
  6  3  1  0  0  0  0
  8 12  1  0  0  0  0
  9 27  1  0  0  0  0
 10 17  1  0  0  0  0
 11 20  1  0  0  0  0
 13 20  1  0  0  0  0
 13  9  1  0  0  0  0
 14  2  1  0  0  0  0
 15 12  1  0  0  0  0
 15  4  1  0  0  0  0
 16  8  1  0  0  0  0
 17 28  1  0  0  0  0
 17 25  1  0  0  0  0
 18  4  1  0  0  0  0
 18  1  1  0  0  0  0
 19  3  1  0  0  0  0
 19  5  1  0  0  0  0
 20 18  1  0  0  0  0
 22 10  1  0  0  0  0
 22 24  1  0  0  0  0
 23 21  1  0  0  0  0
 24 13  1  0  0  0  0
 25  9  1  0  0  0  0
 25 14  1  0  0  0  0
 26 21  2  0  0  0  0
 27  1  1  0  0  0  0
 27  2  1  0  0  0  0
 29 28  1  0  0  0  0
 30 34  1  0  0  0  0
 30 33  1  0  0  0  0
 32 31  1  0  0  0  0
 32 29  1  0  0  0  0
 33 31  1  0  0  0  0
 34 32  1  0  0  0  0
M  END
>  <MODEL>
1

>  <REMARK>
 VINA RESULT:      -9.3      0.000      0.000
  Name = 
  3 active torsions:
  status: ('A' for Active; 'I' for Inactive)
    1  A    between atoms: C_17  and  C_28
    2  A    between atoms: C_28  and  C_29
    3  A    between atoms: C_29  and  C_32
                            x       y       z     vdW  Elec       q    Type
                         _______ _______ _______ _____ _____    ______ ____

>  <TORSDO>
F 3

$$$$
=
 OpenBabel11112417573D

 34 42  0  0  1  0  0  0  0  0999 V2000
  189.8300  176.1780  142.7590 C   0  0  2  0  0  3  0  0  0  0  0  0
  192.0570  175.0940  141.8850 C   0  0  0  0  0  2  0  0  0  0  0  0
  186.0710  179.0410  147.2300 C   0  0  2  0  0  0  0  0  0  0  0  0
  187.6900  176.6850  143.8920 C   0  0  1  0  0  3  0  0  0  0  0  0
  187.7760  177.7520  146.1900 C   0  0  1  0  0  3  0  0  0  0  0  0
  187.1970  179.1260  148.3000 C   0  0  1  0  0  3  0  0  0  0  0  0
  185.9940  180.0170  148.3790 C   0  0  0  0  0  2  0  0  0  0  0  0
  184.5750  177.2800  146.1380 C   0  0  0  0  0  2  0  0  0  0  0  0
  191.7330  175.4050  144.2280 C   0  0  2  0  0  3  0  0  0  0  0  0
  194.1380  176.1600  146.1850 C   0  0  0  0  0  2  0  0  0  0  0  0
  189.1260  177.1020  146.4650 C   0  0  0  0  0  2  0  0  0  0  0  0
  185.5400  177.4720  144.9500 C   0  0  0  0  0  2  0  0  0  0  0  0
  191.3680  176.4050  145.3430 C   0  0  1  0  0  3  0  0  0  0  0  0
  193.3800  174.7570  142.5670 C   0  0  0  0  0  2  0  0  0  0  0  0
  186.9420  176.8780  145.2190 C   0  0  1  0  0  3  0  0  0  0  0  0
  184.7460  178.2940  147.2950 C   0  0  0  0  0  2  0  0  0  0  0  0
  194.2080  175.9780  144.6510 C   0  0  2  0  0  3  0  0  0  0  0  0
  189.1150  176.1700  144.1170 C   0  0  2  0  0  3  0  0  0  0  0  0
  187.0150  177.8850  147.4930 C   0  0  1  0  0  3  0  0  0  0  0  0
  189.9190  176.9670  145.1650 C   0  0  1  0  0  3  0  0  0  0  0  0
  187.7820  175.1200  141.8570 C   0  0  0  0  0  3  0  0  0  0  0  0
  193.0920  175.2920  146.8880 C   0  0  0  0  0  2  0  0  0  0  0  0
  186.9430  175.6820  142.9900 C   0  0  0  0  0  2  0  0  0  0  0  0
  191.6730  175.8490  146.7430 C   0  0  0  0  0  2  0  0  0  0  0  0
  193.1910  174.9640  144.0770 C   0  0  1  0  0  3  0  0  0  0  0  0
  189.1100  175.2990  141.7720 C   0  0  0  0  0  3  0  0  0  0  0  0
  191.3520  175.9730  142.8870 C   0  0  2  0  0  3  0  0  0  0  0  0
  195.6320  175.5900  144.2750 C   0  0  0  0  0  2  0  0  0  0  0  0
  196.1660  174.5410  145.2360 C   0  0  0  0  0  2  0  0  0  0  0  0
  197.4560  171.3580  145.3500 N   0  0  0  0  0  2  0  0  0  0  0  0
  195.4140  172.1800  145.3880 C   0  0  0  0  0  2  0  0  0  0  0  0
  196.1880  173.1770  144.5670 C   0  0  2  0  0  3  0  0  0  0  0  0
  196.3420  171.4360  146.1300 O   0  0  0  0  0  0  0  0  0  0  0  0
  197.5720  172.6200  144.6380 C   0  0  0  0  0  2  0  0  0  0  0  0
  1 26  1  6  0  0  0
  1 27  1  0  0  0  0
  1 18  1  0  0  0  0
  2 14  1  0  0  0  0
  2 27  1  0  0  0  0
  3 16  1  1  0  0  0
  3 19  1  0  0  0  0
  3  6  1  0  0  0  0
  3  7  1  0  0  0  0
  4 23  1  6  0  0  0
  4 18  1  0  0  0  0
  4 15  1  0  0  0  0
  5 11  1  1  0  0  0
  5 19  1  0  0  0  0
  6  7  1  1  0  0  0
  8 16  1  0  0  0  0
  9 13  1  0  0  0  0
 10 22  1  0  0  0  0
 12 15  1  0  0  0  0
 12  8  1  0  0  0  0
 13 24  1  0  0  0  0
 14 25  1  0  0  0  0
 15  5  1  0  0  0  0
 17 10  1  0  0  0  0
 18 20  1  0  0  0  0
 19  6  1  0  0  0  0
 20 13  1  0  0  0  0
 20 11  1  0  0  0  0
 21 23  1  0  0  0  0
 24 22  1  0  0  0  0
 25  9  1  0  0  0  0
 25 17  1  0  0  0  0
 26 21  2  0  0  0  0
 27  9  1  0  0  0  0
 28 17  1  0  0  0  0
 28 29  1  0  0  0  0
 30 33  1  0  0  0  0
 31 33  1  0  0  0  0
 32 34  1  0  0  0  0
 32 29  1  0  0  0  0
 32 31  1  0  0  0  0
 34 30  1  0  0  0  0
M  END
>  <MODEL>
2

>  <REMARK>
 VINA RESULT:      -9.1      4.566      9.532
  Name = 
  3 active torsions:
  status: ('A' for Active; 'I' for Inactive)
    1  A    between atoms: C_17  and  C_28
    2  A    between atoms: C_28  and  C_29
    3  A    between atoms: C_29  and  C_32
                            x       y       z     vdW  Elec       q    Type
                         _______ _______ _______ _____ _____    ______ ____

>  <TORSDO>
F 3

$$$$
=
 OpenBabel11112417573D

 34 42  0  0  1  0  0  0  0  0999 V2000
  189.6110  176.1270  142.7620 C   0  0  2  0  0  3  0  0  0  0  0  0
  191.7750  174.9240  141.8860 C   0  0  0  0  0  2  0  0  0  0  0  0
  186.0180  179.1900  147.2360 C   0  0  2  0  0  0  0  0  0  0  0  0
  187.5020  176.7510  143.8960 C   0  0  1  0  0  3  0  0  0  0  0  0
  187.6490  177.8100  146.1950 C   0  0  1  0  0  3  0  0  0  0  0  0
  187.1470  179.2130  148.3050 C   0  0  1  0  0  3  0  0  0  0  0  0
  185.9950  180.1680  148.3860 C   0  0  0  0  0  2  0  0  0  0  0  0
  184.4270  177.5140  146.1450 C   0  0  0  0  0  2  0  0  0  0  0  0
  191.4700  175.2510  144.2290 C   0  0  2  0  0  3  0  0  0  0  0  0
  193.9140  175.8730  146.1840 C   0  0  0  0  0  2  0  0  0  0  0  0
  188.9610  177.0880  146.4680 C   0  0  0  0  0  2  0  0  0  0  0  0
  185.4000  177.6540  144.9560 C   0  0  0  0  0  2  0  0  0  0  0  0
  191.1610  176.2690  145.3450 C   0  0  1  0  0  3  0  0  0  0  0  0
  193.0780  174.5150  142.5670 C   0  0  0  0  0  2  0  0  0  0  0  0
  186.7680  176.9840  145.2240 C   0  0  1  0  0  3  0  0  0  0  0  0
  184.6530  178.5170  147.3020 C   0  0  0  0  0  2  0  0  0  0  0  0
  193.9730  175.6880  144.6510 C   0  0  2  0  0  3  0  0  0  0  0  0
  188.8970  176.1590  144.1210 C   0  0  2  0  0  3  0  0  0  0  0  0
  186.8970  177.9850  147.4980 C   0  0  1  0  0  3  0  0  0  0  0  0
  189.7450  176.9100  145.1680 C   0  0  1  0  0  3  0  0  0  0  0  0
  187.5070  175.1840  141.8610 C   0  0  0  0  0  3  0  0  0  0  0  0
  192.8220  175.0630  146.8880 C   0  0  0  0  0  2  0  0  0  0  0  0
  186.7020  175.7900  142.9950 C   0  0  0  0  0  2  0  0  0  0  0  0
  191.4360  175.6970  146.7440 C   0  0  0  0  0  2  0  0  0  0  0  0
  192.9020  174.7310  144.0770 C   0  0  1  0  0  3  0  0  0  0  0  0
  188.8440  175.2900  141.7740 C   0  0  0  0  0  3  0  0  0  0  0  0
  191.1200  175.8400  142.8880 C   0  0  2  0  0  3  0  0  0  0  0  0
  195.3730  175.2230  144.2730 C   0  0  0  0  0  2  0  0  0  0  0  0
  196.2380  176.4100  143.8820 C   0  0  0  0  0  2  0  0  0  0  0  0
  196.2780  174.6550  140.9280 N   0  0  0  0  0  2  0  0  0  0  0  0
  196.4420  176.7910  141.4380 C   0  0  0  0  0  2  0  0  0  0  0  0
  197.0360  176.0900  142.6300 C   0  0  2  0  0  3  0  0  0  0  0  0
  195.6590  175.8560  140.7470 O   0  0  0  0  0  0  0  0  0  0  0  0
  196.8300  174.6540  142.2720 C   0  0  0  0  0  2  0  0  0  0  0  0
  1 26  1  6  0  0  0
  1 27  1  0  0  0  0
  1 18  1  0  0  0  0
  2 14  1  0  0  0  0
  2 27  1  0  0  0  0
  3 16  1  1  0  0  0
  3 19  1  0  0  0  0
  3  6  1  0  0  0  0
  3  7  1  0  0  0  0
  4 23  1  6  0  0  0
  4 18  1  0  0  0  0
  4 15  1  0  0  0  0
  5 11  1  1  0  0  0
  5 19  1  0  0  0  0
  6  7  1  1  0  0  0
  8 16  1  0  0  0  0
  9 13  1  0  0  0  0
 10 22  1  0  0  0  0
 12 15  1  0  0  0  0
 12  8  1  0  0  0  0
 13 24  1  0  0  0  0
 14 25  1  0  0  0  0
 15  5  1  0  0  0  0
 17 10  1  0  0  0  0
 18 20  1  0  0  0  0
 19  6  1  0  0  0  0
 20 13  1  0  0  0  0
 20 11  1  0  0  0  0
 21 23  1  0  0  0  0
 24 22  1  0  0  0  0
 25  9  1  0  0  0  0
 25 17  1  0  0  0  0
 26 21  2  0  0  0  0
 27  9  1  0  0  0  0
 28 17  1  0  0  0  0
 29 28  1  0  0  0  0
 30 34  1  0  0  0  0
 31 32  1  0  0  0  0
 32 29  1  0  0  0  0
 33 30  1  0  0  0  0
 33 31  1  0  0  0  0
 34 32  1  0  0  0  0
M  END
>  <MODEL>
3

>  <REMARK>
 VINA RESULT:      -9.0      3.890      9.131
  Name = 
  3 active torsions:
  status: ('A' for Active; 'I' for Inactive)
    1  A    between atoms: C_17  and  C_28
    2  A    between atoms: C_28  and  C_29
    3  A    between atoms: C_29  and  C_32
                            x       y       z     vdW  Elec       q    Type
                         _______ _______ _______ _____ _____    ______ ____

>  <TORSDO>
F 3

$$$$
=
 OpenBabel11112417573D

 34 42  0  0  1  0  0  0  0  0999 V2000
  192.9600  175.5740  142.8350 C   0  0  2  0  0  3  0  0  0  0  0  0
  191.1850  177.5010  143.0050 C   0  0  0  0  0  2  0  0  0  0  0  0
  196.0810  170.2800  144.9670 C   0  0  2  0  0  0  0  0  0  0  0  0
  194.9160  174.0810  143.0950 C   0  0  1  0  0  3  0  0  0  0  0  0
  194.8290  172.2990  144.8970 C   0  0  1  0  0  3  0  0  0  0  0  0
  195.2030  170.1260  146.2430 C   0  0  1  0  0  3  0  0  0  0  0  0
  195.9820  168.9650  145.7020 C   0  0  0  0  0  2  0  0  0  0  0  0
  197.9170  171.8090  144.0610 C   0  0  0  0  0  2  0  0  0  0  0  0
  191.7620  176.2480  144.9530 C   0  0  2  0  0  3  0  0  0  0  0  0
  189.6170  175.5400  147.2070 C   0  0  0  0  0  2  0  0  0  0  0  0
  193.8860  173.1570  145.7300 C   0  0  0  0  0  2  0  0  0  0  0  0
  196.7640  172.3670  143.2030 C   0  0  0  0  0  2  0  0  0  0  0  0
  191.9100  174.8420  145.5660 C   0  0  1  0  0  3  0  0  0  0  0  0
  190.2190  177.9220  144.1090 C   0  0  0  0  0  2  0  0  0  0  0  0
  195.7510  173.1940  144.0300 C   0  0  1  0  0  3  0  0  0  0  0  0
  197.5790  170.5280  144.8640 C   0  0  0  0  0  2  0  0  0  0  0  0
  189.3610  176.3000  145.8850 C   0  0  2  0  0  3  0  0  0  0  0  0
  193.8460  174.8600  143.8660 C   0  0  2  0  0  3  0  0  0  0  0  0
  195.6950  171.4700  145.8220 C   0  0  1  0  0  3  0  0  0  0  0  0
  192.9930  173.9960  144.8170 C   0  0  1  0  0  3  0  0  0  0  0  0
  195.0710  176.2530  141.7330 C   0  0  0  0  0  3  0  0  0  0  0  0
  191.0140  175.7360  147.8000 C   0  0  0  0  0  2  0  0  0  0  0  0
  195.8180  175.0890  142.3550 C   0  0  0  0  0  2  0  0  0  0  0  0
  192.0770  174.8910  147.0920 C   0  0  0  0  0  2  0  0  0  0  0  0
  190.5690  177.1150  145.3680 C   0  0  1  0  0  3  0  0  0  0  0  0
  193.7770  176.5120  141.9870 C   0  0  0  0  0  3  0  0  0  0  0  0
  191.6700  176.1460  143.4530 C   0  0  2  0  0  3  0  0  0  0  0  0
  188.1430  177.1950  146.0700 C   0  0  0  0  0  2  0  0  0  0  0  0
  186.9570  176.6410  145.2990 C   0  0  0  0  0  2  0  0  0  0  0  0
  185.2770  178.6300  147.5410 N   0  0  0  0  0  2  0  0  0  0  0  0
  184.8350  177.9120  145.5070 C   0  0  0  0  0  2  0  0  0  0  0  0
  185.6780  176.8150  146.1010 C   0  0  2  0  0  3  0  0  0  0  0  0
  185.0500  179.0680  146.2710 O   0  0  0  0  0  0  0  0  0  0  0  0
  186.0160  177.3830  147.4410 C   0  0  0  0  0  2  0  0  0  0  0  0
  1 26  1  1  0  0  0
  1 27  1  0  0  0  0
  1 18  1  0  0  0  0
  2 27  1  0  0  0  0
  2 14  1  0  0  0  0
  3 16  1  1  0  0  0
  3  7  1  0  0  0  0
  3 19  1  0  0  0  0
  3  6  1  0  0  0  0
  4 23  1  1  0  0  0
  4 18  1  0  0  0  0
  4 15  1  0  0  0  0
  5 11  1  1  0  0  0
  5 19  1  0  0  0  0
  6  7  1  1  0  0  0
  8 16  1  0  0  0  0
  9 25  1  0  0  0  0
  9 13  1  0  0  0  0
 10 22  1  0  0  0  0
 12 15  1  0  0  0  0
 12  8  1  0  0  0  0
 13 24  1  0  0  0  0
 14 25  1  0  0  0  0
 15  5  1  0  0  0  0
 17 28  1  0  0  0  0
 17 10  1  0  0  0  0
 18 20  1  0  0  0  0
 19  6  1  0  0  0  0
 20 13  1  0  0  0  0
 20 11  1  0  0  0  0
 21 26  2  0  0  0  0
 21 23  1  0  0  0  0
 24 22  1  0  0  0  0
 25 17  1  0  0  0  0
 27  9  1  0  0  0  0
 29 28  1  0  0  0  0
 29 32  1  0  0  0  0
 31 32  1  0  0  0  0
 31 33  1  0  0  0  0
 32 34  1  0  0  0  0
 33 30  1  0  0  0  0
 34 30  1  0  0  0  0
M  END
>  <MODEL>
4

>  <REMARK>
 VINA RESULT:      -9.0      2.759      5.435
  Name = 
  3 active torsions:
  status: ('A' for Active; 'I' for Inactive)
    1  A    between atoms: C_17  and  C_28
    2  A    between atoms: C_28  and  C_29
    3  A    between atoms: C_29  and  C_32
                            x       y       z     vdW  Elec       q    Type
                         _______ _______ _______ _____ _____    ______ ____

>  <TORSDO>
F 3

$$$$
=
 OpenBabel11112417573D

 34 42  0  0  1  0  0  0  0  0999 V2000
  192.0620  176.8140  145.0900 C   0  0  2  0  0  3  0  0  0  0  0  0
  189.5820  177.0070  145.9310 C   0  0  0  0  0  2  0  0  0  0  0  0
  196.6710  175.4480  140.7080 C   0  0  2  0  0  0  0  0  0  0  0  0
  194.2960  176.0430  144.3560 C   0  0  1  0  0  3  0  0  0  0  0  0
  194.6200  175.4720  141.9070 C   0  0  1  0  0  3  0  0  0  0  0  0
  195.6630  175.1060  139.5730 C   0  0  1  0  0  3  0  0  0  0  0  0
  197.0810  175.4740  139.2550 C   0  0  0  0  0  2  0  0  0  0  0  0
  197.5240  174.4460  142.8980 C   0  0  0  0  0  2  0  0  0  0  0  0
  190.0700  175.7440  143.9660 C   0  0  2  0  0  3  0  0  0  0  0  0
  188.0780  175.6510  141.4750 C   0  0  0  0  0  2  0  0  0  0  0  0
  193.1470  175.1050  141.7760 C   0  0  0  0  0  2  0  0  0  0  0  0
  196.6200  175.5280  143.5230 C   0  0  0  0  0  2  0  0  0  0  0  0
  190.7600  175.7470  142.5880 C   0  0  1  0  0  3  0  0  0  0  0  0
  188.2450  176.6230  145.3030 C   0  0  0  0  0  2  0  0  0  0  0  0
  195.1150  175.2170  143.3540 C   0  0  1  0  0  3  0  0  0  0  0  0
  197.7110  174.5510  141.3640 C   0  0  0  0  0  2  0  0  0  0  0  0
  187.9010  176.4630  142.7780 C   0  0  2  0  0  3  0  0  0  0  0  0
  192.7910  175.8240  144.1710 C   0  0  2  0  0  3  0  0  0  0  0  0
  195.4320  174.6140  140.9610 C   0  0  1  0  0  3  0  0  0  0  0  0
  192.3040  175.9670  142.7140 C   0  0  1  0  0  3  0  0  0  0  0  0
  193.6610  176.1110  146.8440 C   0  0  0  0  0  3  0  0  0  0  0  0
  188.8390  174.3320  141.6380 C   0  0  0  0  0  2  0  0  0  0  0  0
  194.6710  175.6650  145.8030 C   0  0  0  0  0  2  0  0  0  0  0  0
  190.3530  174.5360  141.7340 C   0  0  0  0  0  2  0  0  0  0  0  0
  188.5420  175.8190  144.0290 C   0  0  1  0  0  3  0  0  0  0  0  0
  192.4460  176.5900  146.5280 C   0  0  0  0  0  3  0  0  0  0  0  0
  190.5550  176.9120  144.7830 C   0  0  2  0  0  3  0  0  0  0  0  0
  186.4130  176.7070  142.9960 C   0  0  0  0  0  2  0  0  0  0  0  0
  186.0270  178.0930  142.5050 C   0  0  0  0  0  2  0  0  0  0  0  0
  185.0580  178.6280  145.7590 N   0  0  0  0  0  2  0  0  0  0  0  0
  185.4800  179.9540  144.0530 C   0  0  0  0  0  2  0  0  0  0  0  0
  184.9650  178.6950  143.4100 C   0  0  2  0  0  3  0  0  0  0  0  0
  185.8920  179.6260  145.3520 O   0  0  0  0  0  0  0  0  0  0  0  0
  184.7710  177.8060  144.5940 C   0  0  0  0  0  2  0  0  0  0  0  0
  1 26  1  1  0  0  0
  3  7  1  1  0  0  0
  3 19  1  0  0  0  0
  3 16  1  0  0  0  0
  4 23  1  1  0  0  0
  5 11  1  1  0  0  0
  5 15  1  0  0  0  0
  6  7  1  6  0  0  0
  6  3  1  0  0  0  0
  6 19  1  0  0  0  0
  8 12  1  0  0  0  0
  9 25  1  0  0  0  0
  9 27  1  0  0  0  0
 10 22  1  0  0  0  0
 10 17  1  0  0  0  0
 11 20  1  0  0  0  0
 13 20  1  0  0  0  0
 13  9  1  0  0  0  0
 14  2  1  0  0  0  0
 15 12  1  0  0  0  0
 15  4  1  0  0  0  0
 16  8  1  0  0  0  0
 17 28  1  0  0  0  0
 17 25  1  0  0  0  0
 18  4  1  0  0  0  0
 18  1  1  0  0  0  0
 19  5  1  0  0  0  0
 20 18  1  0  0  0  0
 22 24  1  0  0  0  0
 23 21  1  0  0  0  0
 24 13  1  0  0  0  0
 25 14  1  0  0  0  0
 26 21  2  0  0  0  0
 27  1  1  0  0  0  0
 27  2  1  0  0  0  0
 29 28  1  0  0  0  0
 29 32  1  0  0  0  0
 31 33  1  0  0  0  0
 32 31  1  0  0  0  0
 32 34  1  0  0  0  0
 33 30  1  0  0  0  0
 34 30  1  0  0  0  0
M  END
>  <MODEL>
5

>  <REMARK>
 VINA RESULT:      -8.9      2.126      2.864
  Name = 
  3 active torsions:
  status: ('A' for Active; 'I' for Inactive)
    1  A    between atoms: C_17  and  C_28
    2  A    between atoms: C_28  and  C_29
    3  A    between atoms: C_29  and  C_32
                            x       y       z     vdW  Elec       q    Type
                         _______ _______ _______ _____ _____    ______ ____

>  <TORSDO>
F 3

$$$$
=
 OpenBabel11112417573D

 34 42  0  0  1  0  0  0  0  0999 V2000
  188.4140  175.7720  146.1920 C   0  0  2  0  0  3  0  0  0  0  0  0
  190.4310  175.3110  147.8100 C   0  0  0  0  0  2  0  0  0  0  0  0
  185.7290  177.2970  140.4680 C   0  0  2  0  0  0  0  0  0  0  0  0
  186.6960  176.7760  144.7220 C   0  0  1  0  0  3  0  0  0  0  0  0
  187.2620  177.1070  142.2730 C   0  0  1  0  0  3  0  0  0  0  0  0
  187.0850  177.3560  139.7080 C   0  0  1  0  0  3  0  0  0  0  0  0
  185.7970  177.1670  138.9650 C   0  0  0  0  0  2  0  0  0  0  0  0
  184.4220  178.6550  142.1930 C   0  0  0  0  0  2  0  0  0  0  0  0
  190.8140  176.4020  145.7230 C   0  0  2  0  0  3  0  0  0  0  0  0
  193.4700  175.9170  144.0220 C   0  0  0  0  0  2  0  0  0  0  0  0
  188.7420  177.2360  142.6100 C   0  0  0  0  0  2  0  0  0  0  0  0
  184.8790  177.5300  143.1430 C   0  0  0  0  0  2  0  0  0  0  0  0
  190.6020  176.3450  144.1970 C   0  0  1  0  0  3  0  0  0  0  0  0
  191.9430  175.4200  147.6350 C   0  0  0  0  0  2  0  0  0  0  0  0
  186.3920  177.5940  143.4590 C   0  0  1  0  0  3  0  0  0  0  0  0
  184.7110  178.4070  140.6920 C   0  0  0  0  0  2  0  0  0  0  0  0
  193.0840  175.2410  145.3570 C   0  0  2  0  0  3  0  0  0  0  0  0
  188.1970  176.7480  145.0280 C   0  0  2  0  0  3  0  0  0  0  0  0
  186.9520  177.9630  141.0630 C   0  0  1  0  0  3  0  0  0  0  0  0
  189.0830  176.3700  143.8230 C   0  0  1  0  0  3  0  0  0  0  0  0
  186.4960  176.8970  147.2800 C   0  0  0  0  0  3  0  0  0  0  0  0
  192.9420  177.3430  143.8480 C   0  0  0  0  0  2  0  0  0  0  0  0
  185.9590  177.3660  145.9410 C   0  0  0  0  0  2  0  0  0  0  0  0
  191.4630  177.3780  143.4540 C   0  0  0  0  0  2  0  0  0  0  0  0
  192.2070  176.1100  146.2880 C   0  0  1  0  0  3  0  0  0  0  0  0
  187.6440  176.2110  147.4080 C   0  0  0  0  0  3  0  0  0  0  0  0
  189.8990  175.4180  146.4040 C   0  0  2  0  0  3  0  0  0  0  0  0
  194.3600  174.8060  146.0660 C   0  0  0  0  0  2  0  0  0  0  0  0
  195.5380  174.8450  145.1060 C   0  0  0  0  0  2  0  0  0  0  0  0
  197.4800  172.0120  144.9930 N   0  0  0  0  0  2  0  0  0  0  0  0
  197.8980  174.1610  144.7570 C   0  0  0  0  0  2  0  0  0  0  0  0
  196.7320  174.1250  145.7080 C   0  0  2  0  0  3  0  0  0  0  0  0
  197.9390  172.9270  144.0930 O   0  0  0  0  0  0  0  0  0  0  0  0
  196.4390  172.6620  145.7720 C   0  0  0  0  0  2  0  0  0  0  0  0
  1 27  1  0  0  0  0
  1 26  1  1  0  0  0
  3  7  1  1  0  0  0
  3 16  1  0  0  0  0
  3 19  1  0  0  0  0
  4 18  1  0  0  0  0
  4 23  1  1  0  0  0
  5 11  1  1  0  0  0
  5 15  1  0  0  0  0
  6  7  1  6  0  0  0
  6  3  1  0  0  0  0
  6 19  1  0  0  0  0
  8 12  1  0  0  0  0
  9 25  1  0  0  0  0
  9 27  1  0  0  0  0
 10 17  1  0  0  0  0
 11 20  1  0  0  0  0
 12 15  1  0  0  0  0
 13  9  1  0  0  0  0
 14  2  1  0  0  0  0
 15  4  1  0  0  0  0
 16  8  1  0  0  0  0
 17 28  1  0  0  0  0
 17 25  1  0  0  0  0
 18  1  1  0  0  0  0
 19  5  1  0  0  0  0
 20 13  1  0  0  0  0
 20 18  1  0  0  0  0
 21 26  2  0  0  0  0
 22 10  1  0  0  0  0
 23 21  1  0  0  0  0
 24 22  1  0  0  0  0
 24 13  1  0  0  0  0
 25 14  1  0  0  0  0
 27  2  1  0  0  0  0
 29 32  1  0  0  0  0
 29 28  1  0  0  0  0
 30 34  1  0  0  0  0
 31 32  1  0  0  0  0
 32 34  1  0  0  0  0
 33 31  1  0  0  0  0
 33 30  1  0  0  0  0
M  END
>  <MODEL>
6

>  <REMARK>
 VINA RESULT:      -8.7      4.378      9.005
  Name = 
  3 active torsions:
  status: ('A' for Active; 'I' for Inactive)
    1  A    between atoms: C_17  and  C_28
    2  A    between atoms: C_28  and  C_29
    3  A    between atoms: C_29  and  C_32
                            x       y       z     vdW  Elec       q    Type
                         _______ _______ _______ _____ _____    ______ ____

>  <TORSDO>
F 3

$$$$
=
 OpenBabel11112417573D

 34 42  0  0  1  0  0  0  0  0999 V2000
  190.7000  173.6650  141.8150 C   0  0  2  0  0  3  0  0  0  0  0  0
  188.2510  174.5510  141.4840 C   0  0  0  0  0  2  0  0  0  0  0  0
  196.4540  173.3420  144.8320 C   0  0  2  0  0  0  0  0  0  0  0  0
  193.1550  173.3780  141.9290 C   0  0  1  0  0  3  0  0  0  0  0  0
  194.3480  174.1110  144.0430 C   0  0  1  0  0  3  0  0  0  0  0  0
  196.0430  174.3040  145.9830 C   0  0  1  0  0  3  0  0  0  0  0  0
  197.1940  173.3580  146.1470 C   0  0  0  0  0  2  0  0  0  0  0  0
  197.0180  173.4420  142.3410 C   0  0  0  0  0  2  0  0  0  0  0  0
  189.7490  175.7250  142.9230 C   0  0  2  0  0  3  0  0  0  0  0  0
  188.7550  177.1630  145.5920 C   0  0  0  0  0  2  0  0  0  0  0  0
  193.2730  175.1550  144.3130 C   0  0  0  0  0  2  0  0  0  0  0  0
  195.6060  172.8420  142.1920 C   0  0  0  0  0  2  0  0  0  0  0  0
  190.7200  175.6150  144.1150 C   0  0  1  0  0  3  0  0  0  0  0  0
  187.4350  175.6260  142.1970 C   0  0  0  0  0  2  0  0  0  0  0  0
  194.4880  173.8590  142.5200 C   0  0  1  0  0  3  0  0  0  0  0  0
  197.5540  173.5110  143.7930 C   0  0  0  0  0  2  0  0  0  0  0  0
  187.8980  176.3380  144.6060 C   0  0  2  0  0  3  0  0  0  0  0  0
  192.0030  174.3180  142.2970 C   0  0  2  0  0  3  0  0  0  0  0  0
  195.6750  174.6150  144.5720 C   0  0  1  0  0  3  0  0  0  0  0  0
  191.9210  174.6640  143.7980 C   0  0  1  0  0  3  0  0  0  0  0  0
  191.8980  173.2200  139.6950 C   0  0  0  0  0  3  0  0  0  0  0  0
  189.9290  177.9100  144.9540 C   0  0  0  0  0  2  0  0  0  0  0  0
  193.2440  173.2890  140.3920 C   0  0  0  0  0  2  0  0  0  0  0  0
  191.1200  176.9930  144.6650 C   0  0  0  0  0  2  0  0  0  0  0  0
  188.3840  176.3830  143.1380 C   0  0  1  0  0  3  0  0  0  0  0  0
  190.7330  173.4410  140.3270 C   0  0  0  0  0  3  0  0  0  0  0  0
  189.4440  174.3520  142.3830 C   0  0  2  0  0  3  0  0  0  0  0  0
  186.4520  176.8050  144.7130 C   0  0  0  0  0  2  0  0  0  0  0  0
  186.1520  177.2790  146.1250 C   0  0  0  0  0  2  0  0  0  0  0  0
  184.5510  179.6520  144.2240 N   0  0  0  0  0  2  0  0  0  0  0  0
  184.0930  178.6650  146.1380 C   0  0  0  0  0  2  0  0  0  0  0  0
  185.5980  178.6930  146.1000 C   0  0  2  0  0  3  0  0  0  0  0  0
  183.6350  178.8420  144.8260 O   0  0  0  0  0  0  0  0  0  0  0  0
  185.8560  179.2950  144.7570 C   0  0  0  0  0  2  0  0  0  0  0  0
  1 26  1  6  0  0  0
  1 18  1  0  0  0  0
  1 27  1  0  0  0  0
  2 14  1  0  0  0  0
  2 27  1  0  0  0  0
  3 16  1  1  0  0  0
  3  6  1  0  0  0  0
  3  7  1  0  0  0  0
  4 23  1  6  0  0  0
  4 18  1  0  0  0  0
  4 15  1  0  0  0  0
  5 11  1  6  0  0  0
  5 19  1  0  0  0  0
  6  7  1  6  0  0  0
  8 16  1  0  0  0  0
  9 25  1  0  0  0  0
  9 13  1  0  0  0  0
 12  8  1  0  0  0  0
 12 15  1  0  0  0  0
 13 24  1  0  0  0  0
 14 25  1  0  0  0  0
 15  5  1  0  0  0  0
 17 28  1  0  0  0  0
 17 10  1  0  0  0  0
 18 20  1  0  0  0  0
 19  3  1  0  0  0  0
 19  6  1  0  0  0  0
 20 13  1  0  0  0  0
 20 11  1  0  0  0  0
 21 26  2  0  0  0  0
 21 23  1  0  0  0  0
 22 10  1  0  0  0  0
 24 22  1  0  0  0  0
 25 17  1  0  0  0  0
 27  9  1  0  0  0  0
 28 29  1  0  0  0  0
 30 34  1  0  0  0  0
 30 33  1  0  0  0  0
 32 29  1  0  0  0  0
 32 31  1  0  0  0  0
 33 31  1  0  0  0  0
 34 32  1  0  0  0  0
M  END
>  <MODEL>
7

>  <REMARK>
 VINA RESULT:      -8.6      2.476      4.436
  Name = 
  3 active torsions:
  status: ('A' for Active; 'I' for Inactive)
    1  A    between atoms: C_17  and  C_28
    2  A    between atoms: C_28  and  C_29
    3  A    between atoms: C_29  and  C_32
                            x       y       z     vdW  Elec       q    Type
                         _______ _______ _______ _____ _____    ______ ____

>  <TORSDO>
F 3

$$$$
=
 OpenBabel11112417573D

 34 42  0  0  1  0  0  0  0  0999 V2000
  194.0810  175.9640  145.1150 C   0  0  2  0  0  3  0  0  0  0  0  0
  192.3840  176.4300  147.0640 C   0  0  0  0  0  2  0  0  0  0  0  0
  195.7290  174.8880  138.9150 C   0  0  2  0  0  0  0  0  0  0  0  0
  195.4400  174.9750  143.2990 C   0  0  1  0  0  3  0  0  0  0  0  0
  194.4990  175.0130  140.9450 C   0  0  1  0  0  3  0  0  0  0  0  0
  194.2820  175.0670  138.3710 C   0  0  1  0  0  3  0  0  0  0  0  0
  195.4670  175.2100  137.4640 C   0  0  0  0  0  2  0  0  0  0  0  0
  197.0880  173.1950  140.2640 C   0  0  0  0  0  2  0  0  0  0  0  0
  191.5810  175.6540  144.9550 C   0  0  2  0  0  3  0  0  0  0  0  0
  188.7920  176.6240  143.7450 C   0  0  0  0  0  2  0  0  0  0  0  0
  193.0770  175.0000  141.4900 C   0  0  0  0  0  2  0  0  0  0  0  0
  196.9110  174.2350  141.3880 C   0  0  0  0  0  2  0  0  0  0  0  0
  191.5820  175.8780  143.4300 C   0  0  1  0  0  3  0  0  0  0  0  0
  190.8610  176.5040  147.1120 C   0  0  0  0  0  2  0  0  0  0  0  0
  195.4610  174.2930  141.9240 C   0  0  1  0  0  3  0  0  0  0  0  0
  196.6240  173.6580  138.8600 C   0  0  0  0  0  2  0  0  0  0  0  0
  189.4420  177.0850  145.0700 C   0  0  2  0  0  3  0  0  0  0  0  0
  194.0120  175.1230  143.8330 C   0  0  2  0  0  3  0  0  0  0  0  0
  194.5290  174.2860  139.6170 C   0  0  1  0  0  3  0  0  0  0  0  0
  193.0190  175.7390  142.8260 C   0  0  1  0  0  3  0  0  0  0  0  0
  195.9810  174.5170  145.7680 C   0  0  0  0  0  3  0  0  0  0  0  0
  189.1110  175.1830  143.3400 C   0  0  0  0  0  2  0  0  0  0  0  0
  196.2630  174.1640  144.3200 C   0  0  0  0  0  2  0  0  0  0  0  0
  190.5050  175.0420  142.7220 C   0  0  0  0  0  2  0  0  0  0  0  0
  190.3270  176.0190  145.7560 C   0  0  1  0  0  3  0  0  0  0  0  0
  194.9550  175.2980  146.1440 C   0  0  0  0  0  3  0  0  0  0  0  0
  192.6960  176.4440  145.5890 C   0  0  2  0  0  3  0  0  0  0  0  0
  188.3400  177.5600  146.0090 C   0  0  0  0  0  2  0  0  0  0  0  0
  187.2740  176.4880  146.1600 C   0  0  0  0  0  2  0  0  0  0  0  0
  185.3360  179.0940  147.2850 N   0  0  0  0  0  2  0  0  0  0  0  0
  184.8900  177.0800  146.5140 C   0  0  0  0  0  2  0  0  0  0  0  0
  186.2320  176.9220  147.1770 C   0  0  2  0  0  3  0  0  0  0  0  0
  184.7010  178.4460  146.2670 O   0  0  0  0  0  0  0  0  0  0  0  0
  186.5240  178.3210  147.6090 C   0  0  0  0  0  2  0  0  0  0  0  0
  1 27  1  0  0  0  0
  1 26  1  1  0  0  0
  2 14  1  0  0  0  0
  3  7  1  1  0  0  0
  3 19  1  0  0  0  0
  4 18  1  0  0  0  0
  4 23  1  1  0  0  0
  5 11  1  1  0  0  0
  5 15  1  0  0  0  0
  6  7  1  6  0  0  0
  6  3  1  0  0  0  0
  6 19  1  0  0  0  0
  8 12  1  0  0  0  0
  9 27  1  0  0  0  0
  9 25  1  0  0  0  0
 10 17  1  0  0  0  0
 11 20  1  0  0  0  0
 12 15  1  0  0  0  0
 13  9  1  0  0  0  0
 15  4  1  0  0  0  0
 16  3  1  0  0  0  0
 16  8  1  0  0  0  0
 17 25  1  0  0  0  0
 17 28  1  0  0  0  0
 18  1  1  0  0  0  0
 19  5  1  0  0  0  0
 20 13  1  0  0  0  0
 20 18  1  0  0  0  0
 21 26  2  0  0  0  0
 22 10  1  0  0  0  0
 23 21  1  0  0  0  0
 24 22  1  0  0  0  0
 24 13  1  0  0  0  0
 25 14  1  0  0  0  0
 27  2  1  0  0  0  0
 28 29  1  0  0  0  0
 29 32  1  0  0  0  0
 30 34  1  0  0  0  0
 31 32  1  0  0  0  0
 32 34  1  0  0  0  0
 33 31  1  0  0  0  0
 33 30  1  0  0  0  0
M  END
>  <MODEL>
8

>  <REMARK>
 VINA RESULT:      -8.5      2.882      4.420
  Name = 
  3 active torsions:
  status: ('A' for Active; 'I' for Inactive)
    1  A    between atoms: C_17  and  C_28
    2  A    between atoms: C_28  and  C_29
    3  A    between atoms: C_29  and  C_32
                            x       y       z     vdW  Elec       q    Type
                         _______ _______ _______ _____ _____    ______ ____

>  <TORSDO>
F 3

$$$$
=
 OpenBabel11112417573D

 34 42  0  0  1  0  0  0  0  0999 V2000
  188.4680  175.8820  146.1260 C   0  0  2  0  0  3  0  0  0  0  0  0
  190.5050  175.4720  147.7310 C   0  0  0  0  0  2  0  0  0  0  0  0
  185.7090  177.3830  140.4290 C   0  0  2  0  0  0  0  0  0  0  0  0
  186.7100  176.8430  144.6740 C   0  0  1  0  0  3  0  0  0  0  0  0
  187.2550  177.2240  142.2270 C   0  0  1  0  0  3  0  0  0  0  0  0
  187.0600  177.4990  139.6660 C   0  0  1  0  0  3  0  0  0  0  0  0
  185.7760  177.2750  138.9250 C   0  0  0  0  0  2  0  0  0  0  0  0
  184.3620  178.6720  142.1770 C   0  0  0  0  0  2  0  0  0  0  0  0
  190.8420  176.6020  145.6570 C   0  0  2  0  0  3  0  0  0  0  0  0
  193.5070  176.2330  143.9410 C   0  0  0  0  0  2  0  0  0  0  0  0
  188.7300  177.4010  142.5620 C   0  0  0  0  0  2  0  0  0  0  0  0
  184.8620  177.5520  143.1110 C   0  0  0  0  0  2  0  0  0  0  0  0
  190.6260  176.5570  144.1310 C   0  0  1  0  0  3  0  0  0  0  0  0
  192.0120  175.6370  147.5520 C   0  0  0  0  0  2  0  0  0  0  0  0
  186.3720  177.6660  143.4220 C   0  0  1  0  0  3  0  0  0  0  0  0
  184.6540  178.4530  140.6710 C   0  0  0  0  0  2  0  0  0  0  0  0
  193.1500  175.5270  145.2690 C   0  0  2  0  0  3  0  0  0  0  0  0
  188.2120  176.8640  144.9740 C   0  0  2  0  0  3  0  0  0  0  0  0
  186.9100  178.0840  141.0300 C   0  0  1  0  0  3  0  0  0  0  0  0
  189.1060  176.5330  143.7620 C   0  0  1  0  0  3  0  0  0  0  0  0
  186.5150  176.9250  147.2340 C   0  0  0  0  0  3  0  0  0  0  0  0
  192.9280  177.6420  143.7870 C   0  0  0  0  0  2  0  0  0  0  0  0
  185.9570  177.3910  145.9030 C   0  0  0  0  0  2  0  0  0  0  0  0
  191.4480  177.6290  143.3980 C   0  0  0  0  0  2  0  0  0  0  0  0
  192.2460  176.3530  146.2130 C   0  0  1  0  0  3  0  0  0  0  0  0
  187.6870  176.2780  147.3500 C   0  0  0  0  0  3  0  0  0  0  0  0
  189.9650  175.5780  146.3280 C   0  0  2  0  0  3  0  0  0  0  0  0
  194.4440  175.1290  145.9680 C   0  0  0  0  0  2  0  0  0  0  0  0
  195.0060  173.8570  145.3550 C   0  0  0  0  0  2  0  0  0  0  0  0
  194.0740  171.0990  143.5290 N   0  0  0  0  0  2  0  0  0  0  0  0
  194.1870  171.5370  145.6830 C   0  0  0  0  0  2  0  0  0  0  0  0
  193.8860  172.8740  145.0600 C   0  0  2  0  0  3  0  0  0  0  0  0
  194.6980  170.7090  144.6750 O   0  0  0  0  0  0  0  0  0  0  0  0
  193.8990  172.5400  143.6050 C   0  0  0  0  0  2  0  0  0  0  0  0
  1 27  1  0  0  0  0
  1 26  1  1  0  0  0
  3  7  1  1  0  0  0
  3 16  1  0  0  0  0
  3 19  1  0  0  0  0
  4 18  1  0  0  0  0
  4 23  1  1  0  0  0
  5 11  1  1  0  0  0
  5 15  1  0  0  0  0
  6  7  1  6  0  0  0
  6  3  1  0  0  0  0
  6 19  1  0  0  0  0
  8 12  1  0  0  0  0
  9 25  1  0  0  0  0
  9 27  1  0  0  0  0
 10 17  1  0  0  0  0
 11 20  1  0  0  0  0
 12 15  1  0  0  0  0
 13  9  1  0  0  0  0
 14  2  1  0  0  0  0
 15  4  1  0  0  0  0
 16  8  1  0  0  0  0
 17 28  1  0  0  0  0
 17 25  1  0  0  0  0
 18  1  1  0  0  0  0
 19  5  1  0  0  0  0
 20 13  1  0  0  0  0
 20 18  1  0  0  0  0
 21 26  2  0  0  0  0
 22 10  1  0  0  0  0
 23 21  1  0  0  0  0
 24 22  1  0  0  0  0
 24 13  1  0  0  0  0
 25 14  1  0  0  0  0
 27  2  1  0  0  0  0
 29 28  1  0  0  0  0
 30 34  1  0  0  0  0
 30 33  1  0  0  0  0
 32 29  1  0  0  0  0
 32 31  1  0  0  0  0
 33 31  1  0  0  0  0
 34 32  1  0  0  0  0
M  END
>  <MODEL>
9

>  <REMARK>
 VINA RESULT:      -8.2      3.810      8.396
  Name = 
  3 active torsions:
  status: ('A' for Active; 'I' for Inactive)
    1  A    between atoms: C_17  and  C_28
    2  A    between atoms: C_28  and  C_29
    3  A    between atoms: C_29  and  C_32
                            x       y       z     vdW  Elec       q    Type
                         _______ _______ _______ _____ _____    ______ ____

>  <TORSDO>
F 3

$$$$
