=
 OpenBabel11112416173D

 30 35  0  0  1  0  0  0  0  0999 V2000
  187.7130  176.5780  145.3270 C   0  0  0  0  0  0  0  0  0  0  0  0
  185.8730  177.7320  146.5590 C   0  0  0  0  0  0  0  0  0  0  0  0
  185.9480  177.5040  141.6270 N   0  0  0  0  0  2  0  0  0  0  0  0
  188.2810  176.1650  144.0930 C   0  0  0  0  0  0  0  0  0  0  0  0
  188.3680  176.2060  146.5470 N   0  0  0  0  0  2  0  0  0  0  0  0
  191.1780  174.1640  145.3890 O   0  0  0  0  0  1  0  0  0  0  0  0
  188.6800  173.8790  142.2250 C   0  0  1  0  0  3  0  0  0  0  0  0
  189.8770  174.6760  145.3810 C   0  0  1  0  0  3  0  0  0  0  0  0
  187.8950  174.7120  141.2890 N   0  0  2  0  0  0  0  0  0  0  0  0
  186.9010  176.8790  140.7740 C   0  0  0  0  0  0  0  0  0  0  0  0
  189.6990  175.6120  146.5720 C   0  0  2  0  0  3  0  0  0  0  0  0
  189.6260  175.4490  144.0820 C   0  0  1  0  0  3  0  0  0  0  0  0
  184.6770  178.4560  146.5210 C   0  0  0  0  0  3  0  0  0  0  0  0
  188.4070  174.3780  139.9670 C   0  0  0  0  0  2  0  0  0  0  0  0
  189.1140  172.6380  141.4680 C   0  0  0  0  0  2  0  0  0  0  0  0
  186.4220  177.4460  147.8040 O   0  0  0  0  0  1  0  0  0  0  0  0
  186.4480  177.2400  142.9270 C   0  0  0  0  0  0  0  0  0  0  0  0
  184.0760  178.7770  145.3060 C   0  0  0  0  0  3  0  0  0  0  0  0
  186.4900  177.3110  145.3540 C   0  0  0  0  0  0  0  0  0  0  0  0
  187.6200  176.5160  142.9100 C   0  0  0  0  0  0  0  0  0  0  0  0
  186.8210  176.9430  139.5190 O   0  0  0  0  0  0  0  0  0  0  0  0
  188.0040  176.1640  141.5060 C   0  0  1  0  0  3  0  0  0  0  0  0
  188.8360  172.9290  140.0100 C   0  0  0  0  0  2  0  0  0  0  0  0
  190.8630  175.2270  141.8780 C   0  0  0  0  0  1  0  0  0  0  0  0
  184.6650  178.3750  144.1100 C   0  0  0  0  0  3  0  0  0  0  0  0
  185.8600  177.6470  144.1220 C   0  0  0  0  0  0  0  0  0  0  0  0
  189.9140  174.5560  142.8630 C   0  0  2  0  0  3  0  0  0  0  0  0
  189.8720  174.9110  147.7670 O   0  0  0  0  0  0  0  0  0  0  0  0
  191.3010  176.7810  148.1080 C   0  0  0  0  0  1  0  0  0  0  0  0
  191.1420  175.2790  148.2160 C   0  0  0  0  0  2  0  0  0  0  0  0
  1 19  1  0  0  0  0
  1  5  1  0  0  0  0
  2 16  1  0  0  0  0
  3 17  1  0  0  0  0
  4  1  2  0  0  0  0
  5 11  1  0  0  0  0
  7 15  1  6  0  0  0
  7 27  1  0  0  0  0
  8  6  1  6  0  0  0
  8 11  1  0  0  0  0
  9 14  1  6  0  0  0
  9 22  1  0  0  0  0
  9  7  1  0  0  0  0
 10  3  1  0  0  0  0
 11 28  1  1  0  0  0
 12  4  1  1  0  0  0
 12  8  1  0  0  0  0
 13  2  1  0  0  0  0
 14 23  1  0  0  0  0
 17 26  1  0  0  0  0
 18 13  2  0  0  0  0
 19  2  2  0  0  0  0
 20 17  2  0  0  0  0
 20  4  1  0  0  0  0
 21 10  2  0  0  0  0
 22 10  1  6  0  0  0
 22 20  1  0  0  0  0
 23 15  1  0  0  0  0
 25 26  2  0  0  0  0
 25 18  1  0  0  0  0
 26 19  1  0  0  0  0
 27 24  1  6  0  0  0
 27 12  1  0  0  0  0
 28 30  1  0  0  0  0
 29 30  1  0  0  0  0
M  END
>  <MODEL>
1

>  <REMARK>
 VINA RESULT:      -8.9      0.000      0.000
  Name = 
  2 active torsions:
  status: ('A' for Active; 'I' for Inactive)
    1  A    between atoms: C_11  and  O_28
    2  A    between atoms: O_28  and  C_30
                            x       y       z     vdW  Elec       q    Type
                         _______ _______ _______ _____ _____    ______ ____

>  <TORSDO>
F 2

$$$$
=
 OpenBabel11112416173D

 30 35  0  0  1  0  0  0  0  0999 V2000
  186.2920  177.1550  143.9220 C   0  0  0  0  0  0  0  0  0  0  0  0
  184.6120  178.4160  145.2730 C   0  0  0  0  0  0  0  0  0  0  0  0
  188.4220  176.0900  147.3850 N   0  0  0  0  0  2  0  0  0  0  0  0
  187.4810  176.3810  143.8700 C   0  0  0  0  0  0  0  0  0  0  0  0
  185.6340  177.4910  142.6930 N   0  0  0  0  0  2  0  0  0  0  0  0
  187.8500  176.0660  140.1510 O   0  0  0  0  0  1  0  0  0  0  0  0
  190.3990  176.4150  143.2680 C   0  0  1  0  0  3  0  0  0  0  0  0
  187.5190  176.6930  141.3560 C   0  0  1  0  0  3  0  0  0  0  0  0
  190.5370  176.0620  144.6970 N   0  0  2  0  0  0  0  0  0  0  0  0
  189.4700  175.3480  146.7700 C   0  0  0  0  0  0  0  0  0  0  0  0
  186.0080  176.8960  141.4160 C   0  0  2  0  0  3  0  0  0  0  0  0
  187.9640  175.8240  142.5380 C   0  0  1  0  0  3  0  0  0  0  0  0
  184.1590  178.8410  146.5250 C   0  0  0  0  0  3  0  0  0  0  0  0
  191.7390  175.2420  144.7680 C   0  0  0  0  0  2  0  0  0  0  0  0
  191.7910  176.4060  142.6650 C   0  0  0  0  0  2  0  0  0  0  0  0
  183.8780  178.7910  144.1530 O   0  0  0  0  0  1  0  0  0  0  0  0
  187.6330  176.5150  146.2860 C   0  0  0  0  0  0  0  0  0  0  0  0
  184.8480  178.4980  147.6870 C   0  0  0  0  0  3  0  0  0  0  0  0
  185.7850  177.6270  145.1690 C   0  0  0  0  0  0  0  0  0  0  0  0
  188.1260  176.0790  145.0760 C   0  0  0  0  0  0  0  0  0  0  0  0
  190.3580  174.7600  147.4420 O   0  0  0  0  0  0  0  0  0  0  0  0
  189.4010  175.3180  145.2680 C   0  0  1  0  0  3  0  0  0  0  0  0
  192.6770  175.7360  143.6910 C   0  0  0  0  0  2  0  0  0  0  0  0
  189.7410  174.0140  142.5520 C   0  0  0  0  0  1  0  0  0  0  0  0
  186.0020  177.7230  147.6090 C   0  0  0  0  0  3  0  0  0  0  0  0
  186.4760  177.2860  146.3670 C   0  0  0  0  0  0  0  0  0  0  0  0
  189.4660  175.5080  142.4340 C   0  0  2  0  0  3  0  0  0  0  0  0
  185.5910  177.7290  140.3760 O   0  0  0  0  0  0  0  0  0  0  0  0
  183.2310  177.9630  140.2190 C   0  0  0  0  0  1  0  0  0  0  0  0
  184.5020  178.4310  140.8950 C   0  0  0  0  0  2  0  0  0  0  0  0
  1 19  1  0  0  0  0
  2 13  1  0  0  0  0
  4  1  2  0  0  0  0
  4 20  1  0  0  0  0
  5  1  1  0  0  0  0
  7 15  1  6  0  0  0
  7  9  1  0  0  0  0
  8  6  1  6  0  0  0
  8 11  1  0  0  0  0
  8 12  1  0  0  0  0
  9 14  1  6  0  0  0
  9 22  1  0  0  0  0
 10  3  1  0  0  0  0
 10 21  2  0  0  0  0
 11 28  1  6  0  0  0
 11  5  1  0  0  0  0
 12  4  1  1  0  0  0
 13 18  2  0  0  0  0
 15 23  1  0  0  0  0
 16  2  1  0  0  0  0
 17 26  1  0  0  0  0
 17  3  1  0  0  0  0
 19  2  2  0  0  0  0
 19 26  1  0  0  0  0
 20 17  2  0  0  0  0
 22 20  1  1  0  0  0
 22 10  1  0  0  0  0
 23 14  1  0  0  0  0
 25 18  1  0  0  0  0
 26 25  2  0  0  0  0
 27 12  1  0  0  0  0
 27 24  1  1  0  0  0
 27  7  1  0  0  0  0
 28 30  1  0  0  0  0
 29 30  1  0  0  0  0
M  END
>  <MODEL>
2

>  <REMARK>
 VINA RESULT:      -8.7      1.758      5.307
  Name = 
  2 active torsions:
  status: ('A' for Active; 'I' for Inactive)
    1  A    between atoms: C_11  and  O_28
    2  A    between atoms: O_28  and  C_30
                            x       y       z     vdW  Elec       q    Type
                         _______ _______ _______ _____ _____    ______ ____

>  <TORSDO>
F 2

$$$$
=
 OpenBabel11112416173D

 30 35  0  0  1  0  0  0  0  0999 V2000
  188.3850  176.0060  143.4540 C   0  0  0  0  0  0  0  0  0  0  0  0
  186.2340  177.2740  143.3840 C   0  0  0  0  0  0  0  0  0  0  0  0
  189.2790  177.5420  147.2630 N   0  0  0  0  0  2  0  0  0  0  0  0
  189.5840  175.6790  144.1390 C   0  0  0  0  0  0  0  0  0  0  0  0
  188.1630  175.4540  142.1490 N   0  0  0  0  0  2  0  0  0  0  0  0
  191.2400  173.5760  141.5110 O   0  0  0  0  0  1  0  0  0  0  0  0
  192.5150  176.1850  144.3210 C   0  0  1  0  0  3  0  0  0  0  0  0
  190.4580  174.6220  142.0070 C   0  0  1  0  0  3  0  0  0  0  0  0
  192.1840  176.6860  145.6720 N   0  0  2  0  0  0  0  0  0  0  0  0
  190.5380  176.9070  147.4580 C   0  0  0  0  0  0  0  0  0  0  0  0
  189.0070  174.4070  141.5880 C   0  0  2  0  0  3  0  0  0  0  0  0
  190.5460  174.6620  143.5370 C   0  0  1  0  0  3  0  0  0  0  0  0
  185.3410  178.1500  144.0070 C   0  0  0  0  0  3  0  0  0  0  0  0
  193.3580  176.3900  146.4820 C   0  0  0  0  0  2  0  0  0  0  0  0
  194.0240  176.2410  144.1770 C   0  0  0  0  0  2  0  0  0  0  0  0
  185.9010  176.7900  142.1240 O   0  0  0  0  0  1  0  0  0  0  0  0
  188.8810  177.0940  145.9770 C   0  0  0  0  0  0  0  0  0  0  0  0
  185.6160  178.6700  145.2700 C   0  0  0  0  0  3  0  0  0  0  0  0
  187.4390  176.9030  144.0340 C   0  0  0  0  0  0  0  0  0  0  0  0
  189.7990  176.2430  145.4030 C   0  0  0  0  0  0  0  0  0  0  0  0
  191.1900  177.0260  148.5280 O   0  0  0  0  0  0  0  0  0  0  0  0
  190.9940  176.0760  146.2890 C   0  0  1  0  0  3  0  0  0  0  0  0
  194.5600  176.4800  145.5710 C   0  0  0  0  0  2  0  0  0  0  0  0
  192.3670  173.6940  145.0140 C   0  0  0  0  0  1  0  0  0  0  0  0
  186.7910  178.3180  145.9280 C   0  0  0  0  0  3  0  0  0  0  0  0
  187.7020  177.4440  145.3240 C   0  0  0  0  0  0  0  0  0  0  0  0
  192.0140  174.7620  143.9860 C   0  0  2  0  0  3  0  0  0  0  0  0
  188.9000  174.4200  140.1960 O   0  0  0  0  0  0  0  0  0  0  0  0
  189.0270  172.3910  138.9640 C   0  0  0  0  0  1  0  0  0  0  0  0
  188.1920  173.2590  139.8810 C   0  0  0  0  0  2  0  0  0  0  0  0
  1 19  2  0  0  0  0
  1  4  1  0  0  0  0
  2 13  2  0  0  0  0
  2 19  1  0  0  0  0
  3 10  1  0  0  0  0
  4 20  2  0  0  0  0
  5  1  1  0  0  0  0
  7 15  1  1  0  0  0
  7  9  1  0  0  0  0
  8  6  1  1  0  0  0
  8 12  1  0  0  0  0
  9 22  1  0  0  0  0
  9 14  1  1  0  0  0
 10 21  2  0  0  0  0
 11 28  1  6  0  0  0
 11  8  1  0  0  0  0
 11  5  1  0  0  0  0
 12 27  1  0  0  0  0
 12  4  1  6  0  0  0
 13 18  1  0  0  0  0
 15 23  1  0  0  0  0
 16  2  1  0  0  0  0
 17  3  1  0  0  0  0
 18 25  2  0  0  0  0
 19 26  1  0  0  0  0
 20 17  1  0  0  0  0
 22 20  1  6  0  0  0
 22 10  1  0  0  0  0
 23 14  1  0  0  0  0
 26 25  1  0  0  0  0
 26 17  2  0  0  0  0
 27  7  1  0  0  0  0
 27 24  1  1  0  0  0
 29 30  1  0  0  0  0
 30 28  1  0  0  0  0
M  END
>  <MODEL>
3

>  <REMARK>
 VINA RESULT:      -8.3      2.172      5.585
  Name = 
  2 active torsions:
  status: ('A' for Active; 'I' for Inactive)
    1  A    between atoms: C_11  and  O_28
    2  A    between atoms: O_28  and  C_30
                            x       y       z     vdW  Elec       q    Type
                         _______ _______ _______ _____ _____    ______ ____

>  <TORSDO>
F 2

$$$$
=
 OpenBabel11112416173D

 30 35  0  0  1  0  0  0  0  0999 V2000
  187.8420  176.2220  141.7890 C   0  0  0  0  0  0  0  0  0  0  0  0
  189.3220  174.2840  141.2510 C   0  0  0  0  0  0  0  0  0  0  0  0
  189.1510  176.2370  145.7840 N   0  0  0  0  0  2  0  0  0  0  0  0
  187.3420  177.1440  142.7460 C   0  0  0  0  0  0  0  0  0  0  0  0
  187.3310  176.2720  140.4510 N   0  0  0  0  0  2  0  0  0  0  0  0
  184.7890  178.9000  140.6320 O   0  0  0  0  0  1  0  0  0  0  0  0
  185.0480  177.8280  144.5200 C   0  0  1  0  0  3  0  0  0  0  0  0
  185.5480  177.8190  141.0880 C   0  0  1  0  0  3  0  0  0  0  0  0
  186.0330  177.6320  145.6050 N   0  0  2  0  0  0  0  0  0  0  0  0
  188.3610  177.3190  146.2620 C   0  0  0  0  0  0  0  0  0  0  0  0
  186.4850  177.3590  139.9750 C   0  0  2  0  0  3  0  0  0  0  0  0
  186.3740  178.2370  142.3100 C   0  0  1  0  0  3  0  0  0  0  0  0
  190.2690  173.3470  141.6750 C   0  0  0  0  0  3  0  0  0  0  0  0
  185.6220  178.5510  146.6570 C   0  0  0  0  0  2  0  0  0  0  0  0
  183.7560  178.2950  145.1640 C   0  0  0  0  0  2  0  0  0  0  0  0
  188.9150  174.2440  139.9220 O   0  0  0  0  0  1  0  0  0  0  0  0
  188.7750  176.1340  144.4200 C   0  0  0  0  0  0  0  0  0  0  0  0
  190.7190  173.3350  142.9940 C   0  0  0  0  0  3  0  0  0  0  0  0
  188.8040  175.2370  142.1640 C   0  0  0  0  0  0  0  0  0  0  0  0
  187.8340  177.0710  144.0550 C   0  0  0  0  0  0  0  0  0  0  0  0
  188.4570  177.7480  147.4420 O   0  0  0  0  0  0  0  0  0  0  0  0
  187.4320  177.9030  145.2330 C   0  0  1  0  0  3  0  0  0  0  0  0
  184.1170  178.6650  146.5850 C   0  0  0  0  0  2  0  0  0  0  0  0
  185.9420  180.1750  143.8880 C   0  0  0  0  0  1  0  0  0  0  0  0
  190.2250  174.2620  143.9070 C   0  0  0  0  0  3  0  0  0  0  0  0
  189.2750  175.2080  143.5070 C   0  0  0  0  0  0  0  0  0  0  0  0
  185.4590  178.8140  143.4030 C   0  0  2  0  0  3  0  0  0  0  0  0
  185.7470  176.9250  138.8720 O   0  0  0  0  0  0  0  0  0  0  0  0
  186.0260  176.0410  136.6830 C   0  0  0  0  0  1  0  0  0  0  0  0
  186.6950  176.3980  137.9940 C   0  0  0  0  0  2  0  0  0  0  0  0
  1 19  2  0  0  0  0
  1  4  1  0  0  0  0
  2 13  2  0  0  0  0
  2 19  1  0  0  0  0
  3 10  1  0  0  0  0
  4 20  2  0  0  0  0
  5  1  1  0  0  0  0
  7 15  1  1  0  0  0
  7  9  1  0  0  0  0
  8  6  1  6  0  0  0
  8 12  1  0  0  0  0
  9 14  1  1  0  0  0
 10 21  2  0  0  0  0
 11 28  1  6  0  0  0
 11  5  1  0  0  0  0
 11  8  1  0  0  0  0
 12  4  1  1  0  0  0
 12 27  1  0  0  0  0
 13 18  1  0  0  0  0
 15 23  1  0  0  0  0
 16  2  1  0  0  0  0
 17  3  1  0  0  0  0
 18 25  2  0  0  0  0
 19 26  1  0  0  0  0
 20 17  1  0  0  0  0
 22 20  1  6  0  0  0
 22  9  1  0  0  0  0
 22 10  1  0  0  0  0
 23 14  1  0  0  0  0
 26 25  1  0  0  0  0
 26 17  2  0  0  0  0
 27 24  1  1  0  0  0
 27  7  1  0  0  0  0
 29 30  1  0  0  0  0
 30 28  1  0  0  0  0
M  END
>  <MODEL>
4

>  <REMARK>
 VINA RESULT:      -8.1      1.907      7.258
  Name = 
  2 active torsions:
  status: ('A' for Active; 'I' for Inactive)
    1  A    between atoms: C_11  and  O_28
    2  A    between atoms: O_28  and  C_30
                            x       y       z     vdW  Elec       q    Type
                         _______ _______ _______ _____ _____    ______ ____

>  <TORSDO>
F 2

$$$$
=
 OpenBabel11112416173D

 30 35  0  0  1  0  0  0  0  0999 V2000
  188.7800  176.8440  145.6420 C   0  0  0  0  0  0  0  0  0  0  0  0
  186.6820  177.9740  146.3880 C   0  0  0  0  0  0  0  0  0  0  0  0
  187.1010  175.9930  141.8840 N   0  0  0  0  0  2  0  0  0  0  0  0
  189.4910  176.1350  144.6390 C   0  0  0  0  0  0  0  0  0  0  0  0
  189.4190  177.0790  146.9050 N   0  0  0  0  0  2  0  0  0  0  0  0
  192.6310  175.3610  146.5410 O   0  0  0  0  0  1  0  0  0  0  0  0
  190.4320  173.4550  143.7370 C   0  0  1  0  0  3  0  0  0  0  0  0
  191.2590  175.5640  146.3630 C   0  0  1  0  0  3  0  0  0  0  0  0
  189.5610  173.7180  142.5710 N   0  0  2  0  0  0  0  0  0  0  0  0
  188.2060  175.3050  141.3090 C   0  0  0  0  0  0  0  0  0  0  0  0
  190.8340  176.8130  147.1290 C   0  0  2  0  0  3  0  0  0  0  0  0
  190.9460  175.7470  144.8730 C   0  0  1  0  0  3  0  0  0  0  0  0
  185.3750  178.3810  146.1030 C   0  0  0  0  0  3  0  0  0  0  0  0
  190.2080  173.0360  141.4570 C   0  0  0  0  0  2  0  0  0  0  0  0
  191.1390  172.1380  143.4830 C   0  0  0  0  0  2  0  0  0  0  0  0
  187.1990  178.2750  147.6440 O   0  0  0  0  0  1  0  0  0  0  0  0
  187.5620  176.3240  143.1840 C   0  0  0  0  0  0  0  0  0  0  0  0
  184.7990  178.1120  144.8630 C   0  0  0  0  0  3  0  0  0  0  0  0
  187.4400  177.2770  145.4140 C   0  0  0  0  0  0  0  0  0  0  0  0
  188.8490  175.8930  143.4190 C   0  0  0  0  0  0  0  0  0  0  0  0
  188.1930  174.8920  140.1190 O   0  0  0  0  0  0  0  0  0  0  0  0
  189.3780  175.1400  142.2370 C   0  0  1  0  0  3  0  0  0  0  0  0
  190.9010  171.8190  142.0240 C   0  0  0  0  0  2  0  0  0  0  0  0
  192.3350  174.9930  142.8900 C   0  0  0  0  0  1  0  0  0  0  0  0
  185.5260  177.4310  143.8910 C   0  0  0  0  0  3  0  0  0  0  0  0
  186.8350  177.0110  144.1530 C   0  0  0  0  0  0  0  0  0  0  0  0
  191.4720  174.5500  144.0640 C   0  0  2  0  0  3  0  0  0  0  0  0
  191.0640  176.6430  148.4950 O   0  0  0  0  0  0  0  0  0  0  0  0
  191.5690  177.9150  150.4390 C   0  0  0  0  0  1  0  0  0  0  0  0
  191.5790  177.8670  148.9260 C   0  0  0  0  0  2  0  0  0  0  0  0
  1  5  1  0  0  0  0
  2 16  1  0  0  0  0
  3 17  1  0  0  0  0
  4  1  2  0  0  0  0
  5 11  1  0  0  0  0
  7 15  1  6  0  0  0
  7 27  1  0  0  0  0
  8  6  1  6  0  0  0
  8 11  1  0  0  0  0
  9 14  1  6  0  0  0
  9  7  1  0  0  0  0
 10  3  1  0  0  0  0
 11 28  1  1  0  0  0
 12  4  1  1  0  0  0
 12  8  1  0  0  0  0
 13  2  1  0  0  0  0
 14 23  1  0  0  0  0
 17 20  2  0  0  0  0
 17 26  1  0  0  0  0
 18 13  2  0  0  0  0
 19  1  1  0  0  0  0
 19  2  2  0  0  0  0
 20  4  1  0  0  0  0
 21 10  2  0  0  0  0
 22 10  1  6  0  0  0
 22  9  1  0  0  0  0
 22 20  1  0  0  0  0
 23 15  1  0  0  0  0
 25 26  2  0  0  0  0
 25 18  1  0  0  0  0
 26 19  1  0  0  0  0
 27 24  1  6  0  0  0
 27 12  1  0  0  0  0
 28 30  1  0  0  0  0
 30 29  1  0  0  0  0
M  END
>  <MODEL>
5

>  <REMARK>
 VINA RESULT:      -8.0      1.573      1.930
  Name = 
  2 active torsions:
  status: ('A' for Active; 'I' for Inactive)
    1  A    between atoms: C_11  and  O_28
    2  A    between atoms: O_28  and  C_30
                            x       y       z     vdW  Elec       q    Type
                         _______ _______ _______ _____ _____    ______ ____

>  <TORSDO>
F 2

$$$$
=
 OpenBabel11112416173D

 30 35  0  0  1  0  0  0  0  0999 V2000
  187.9990  175.8070  142.0310 C   0  0  0  0  0  0  0  0  0  0  0  0
  186.5420  176.9860  140.3810 C   0  0  0  0  0  0  0  0  0  0  0  0
  186.3280  177.9860  145.2120 N   0  0  0  0  0  2  0  0  0  0  0  0
  188.4250  175.6320  143.3740 C   0  0  0  0  0  0  0  0  0  0  0  0
  188.6320  175.0360  141.0010 N   0  0  0  0  0  2  0  0  0  0  0  0
  191.1920  173.1600  142.8250 O   0  0  0  0  0  1  0  0  0  0  0  0
  190.5570  176.2390  145.3640 C   0  0  1  0  0  3  0  0  0  0  0  0
  190.3760  174.2540  142.5260 C   0  0  1  0  0  3  0  0  0  0  0  0
  189.4730  176.9520  146.0720 N   0  0  2  0  0  0  0  0  0  0  0  0
  187.0890  177.4270  146.2770 C   0  0  0  0  0  0  0  0  0  0  0  0
  189.5380  173.9320  141.2920 C   0  0  2  0  0  3  0  0  0  0  0  0
  189.4480  174.5540  143.7090 C   0  0  1  0  0  3  0  0  0  0  0  0
  185.5430  177.9310  140.1270 C   0  0  0  0  0  3  0  0  0  0  0  0
  189.8010  176.8280  147.4860 C   0  0  0  0  0  2  0  0  0  0  0  0
  191.7920  176.3110  146.2430 C   0  0  0  0  0  2  0  0  0  0  0  0
  187.0690  176.2880  139.3000 O   0  0  0  0  0  1  0  0  0  0  0  0
  186.8260  177.3180  144.0650 C   0  0  0  0  0  0  0  0  0  0  0  0
  184.9730  178.6640  141.1660 C   0  0  0  0  0  3  0  0  0  0  0  0
  186.9900  176.7620  141.7070 C   0  0  0  0  0  0  0  0  0  0  0  0
  187.8140  176.4060  144.3680 C   0  0  0  0  0  0  0  0  0  0  0  0
  186.8930  177.7420  147.4800 O   0  0  0  0  0  0  0  0  0  0  0  0
  188.1190  176.4240  145.8330 C   0  0  1  0  0  3  0  0  0  0  0  0
  191.3080  176.7950  147.5910 C   0  0  0  0  0  2  0  0  0  0  0  0
  189.7670  173.8970  146.1380 C   0  0  0  0  0  1  0  0  0  0  0  0
  185.3970  178.4590  142.4770 C   0  0  0  0  0  3  0  0  0  0  0  0
  186.3970  177.5210  142.7560 C   0  0  0  0  0  0  0  0  0  0  0  0
  190.2690  174.7670  144.9920 C   0  0  2  0  0  3  0  0  0  0  0  0
  190.3660  173.7080  140.1910 O   0  0  0  0  0  0  0  0  0  0  0  0
  189.3160  171.9220  139.0240 C   0  0  0  0  0  1  0  0  0  0  0  0
  189.4940  173.4220  139.1400 C   0  0  0  0  0  2  0  0  0  0  0  0
  1  4  1  0  0  0  0
  2 19  1  0  0  0  0
  3 10  1  0  0  0  0
  4 20  2  0  0  0  0
  5 11  1  0  0  0  0
  5  1  1  0  0  0  0
  7  9  1  0  0  0  0
  7 15  1  1  0  0  0
  8  6  1  1  0  0  0
  8 12  1  0  0  0  0
  9 14  1  1  0  0  0
 10 21  2  0  0  0  0
 11 28  1  6  0  0  0
 11  8  1  0  0  0  0
 12  4  1  6  0  0  0
 12 27  1  0  0  0  0
 13  2  2  0  0  0  0
 13 18  1  0  0  0  0
 14 23  1  0  0  0  0
 15 23  1  0  0  0  0
 16  2  1  0  0  0  0
 17 20  1  0  0  0  0
 17  3  1  0  0  0  0
 18 25  2  0  0  0  0
 19  1  2  0  0  0  0
 19 26  1  0  0  0  0
 22 20  1  6  0  0  0
 22  9  1  0  0  0  0
 22 10  1  0  0  0  0
 25 26  1  0  0  0  0
 26 17  2  0  0  0  0
 27  7  1  0  0  0  0
 27 24  1  1  0  0  0
 29 30  1  0  0  0  0
 30 28  1  0  0  0  0
M  END
>  <MODEL>
6

>  <REMARK>
 VINA RESULT:      -7.9      1.681      5.581
  Name = 
  2 active torsions:
  status: ('A' for Active; 'I' for Inactive)
    1  A    between atoms: C_11  and  O_28
    2  A    between atoms: O_28  and  C_30
                            x       y       z     vdW  Elec       q    Type
                         _______ _______ _______ _____ _____    ______ ____

>  <TORSDO>
F 2

$$$$
=
 OpenBabel11112416173D

 30 35  0  0  1  0  0  0  0  0999 V2000
  187.7440  176.0650  143.8820 C   0  0  0  0  0  0  0  0  0  0  0  0
  185.7550  177.3680  144.6440 C   0  0  0  0  0  0  0  0  0  0  0  0
  189.5000  176.3310  147.6910 N   0  0  0  0  0  2  0  0  0  0  0  0
  189.0150  175.5020  144.1700 C   0  0  0  0  0  0  0  0  0  0  0  0
  187.2220  175.9460  142.5510 N   0  0  0  0  0  2  0  0  0  0  0  0
  189.9200  174.2460  140.7530 O   0  0  0  0  0  1  0  0  0  0  0  0
  191.9610  175.8250  143.8640 C   0  0  1  0  0  3  0  0  0  0  0  0
  189.3540  175.1180  141.6880 C   0  0  1  0  0  3  0  0  0  0  0  0
  191.9470  175.9010  145.3400 N   0  0  2  0  0  0  0  0  0  0  0  0
  190.7040  175.6220  147.4200 C   0  0  0  0  0  0  0  0  0  0  0  0
  187.8360  175.0920  141.5430 C   0  0  2  0  0  3  0  0  0  0  0  0
  189.7390  174.6850  143.1080 C   0  0  1  0  0  3  0  0  0  0  0  0
  185.0880  178.0430  145.6710 C   0  0  0  0  0  3  0  0  0  0  0  0
  193.2200  175.3300  145.7590 C   0  0  0  0  0  2  0  0  0  0  0  0
  193.4120  175.8700  143.4250 C   0  0  0  0  0  2  0  0  0  0  0  0
  185.1390  177.3050  143.3990 O   0  0  0  0  0  1  0  0  0  0  0  0
  188.8200  176.3120  146.4470 C   0  0  0  0  0  0  0  0  0  0  0  0
  185.6500  178.1420  146.9430 C   0  0  0  0  0  3  0  0  0  0  0  0
  187.0190  176.7740  144.8860 C   0  0  0  0  0  0  0  0  0  0  0  0
  189.5230  175.6450  145.4670 C   0  0  0  0  0  0  0  0  0  0  0  0
  191.5580  175.3860  148.3150 O   0  0  0  0  0  0  0  0  0  0  0  0
  190.8440  175.1740  145.9910 C   0  0  1  0  0  3  0  0  0  0  0  0
  194.2270  175.6520  144.6800 C   0  0  0  0  0  2  0  0  0  0  0  0
  191.7060  173.2480  143.8140 C   0  0  0  0  0  1  0  0  0  0  0  0
  186.8900  177.5640  147.2030 C   0  0  0  0  0  3  0  0  0  0  0  0
  187.5770  176.8860  146.1910 C   0  0  0  0  0  0  0  0  0  0  0  0
  191.2680  174.5910  143.2430 C   0  0  2  0  0  3  0  0  0  0  0  0
  187.4650  175.5330  140.2720 O   0  0  0  0  0  0  0  0  0  0  0  0
  186.3160  177.4670  139.5030 C   0  0  0  0  0  1  0  0  0  0  0  0
  187.4290  176.9250  140.3740 C   0  0  0  0  0  2  0  0  0  0  0  0
  1  4  2  0  0  0  0
  1 19  1  0  0  0  0
  2 19  2  0  0  0  0
  2 13  1  0  0  0  0
  4 20  1  0  0  0  0
  5  1  1  0  0  0  0
  7 15  1  1  0  0  0
  7  9  1  0  0  0  0
  8  6  1  6  0  0  0
  8 12  1  0  0  0  0
  9 14  1  1  0  0  0
  9 22  1  0  0  0  0
 10  3  1  0  0  0  0
 10 21  2  0  0  0  0
 11 28  1  6  0  0  0
 11  8  1  0  0  0  0
 11  5  1  0  0  0  0
 12 27  1  0  0  0  0
 12  4  1  1  0  0  0
 13 18  2  0  0  0  0
 15 23  1  0  0  0  0
 16  2  1  0  0  0  0
 17  3  1  0  0  0  0
 18 25  1  0  0  0  0
 19 26  1  0  0  0  0
 20 17  2  0  0  0  0
 22 20  1  6  0  0  0
 22 10  1  0  0  0  0
 23 14  1  0  0  0  0
 26 17  1  0  0  0  0
 26 25  2  0  0  0  0
 27 24  1  1  0  0  0
 27  7  1  0  0  0  0
 28 30  1  0  0  0  0
 29 30  1  0  0  0  0
M  END
>  <MODEL>
7

>  <REMARK>
 VINA RESULT:      -7.9      2.098      5.373
  Name = 
  2 active torsions:
  status: ('A' for Active; 'I' for Inactive)
    1  A    between atoms: C_11  and  O_28
    2  A    between atoms: O_28  and  C_30
                            x       y       z     vdW  Elec       q    Type
                         _______ _______ _______ _____ _____    ______ ____

>  <TORSDO>
F 2

$$$$
=
 OpenBabel11112416173D

 30 35  0  0  1  0  0  0  0  0999 V2000
  188.2110  175.7130  141.9590 C   0  0  0  0  0  0  0  0  0  0  0  0
  186.5990  177.5620  141.4900 C   0  0  0  0  0  0  0  0  0  0  0  0
  188.4750  176.8380  146.0000 N   0  0  0  0  0  2  0  0  0  0  0  0
  189.0470  175.0310  142.8810 C   0  0  0  0  0  0  0  0  0  0  0  0
  188.1910  175.2770  140.5930 N   0  0  0  0  0  2  0  0  0  0  0  0
  190.6700  172.5840  140.5460 O   0  0  0  0  0  1  0  0  0  0  0  0
  191.8490  174.6410  143.8200 C   0  0  1  0  0  3  0  0  0  0  0  0
  190.1130  173.8060  140.9350 C   0  0  1  0  0  3  0  0  0  0  0  0
  191.3320  175.1910  145.0900 N   0  0  2  0  0  0  0  0  0  0  0  0
  189.4070  175.8540  146.4340 C   0  0  0  0  0  0  0  0  0  0  0  0
  188.8220  174.0380  140.1570 C   0  0  2  0  0  3  0  0  0  0  0  0
  189.8070  173.7870  142.4370 C   0  0  1  0  0  3  0  0  0  0  0  0
  185.8580  178.6510  141.9570 C   0  0  0  0  0  3  0  0  0  0  0  0
  192.1210  174.5440  146.1300 C   0  0  0  0  0  2  0  0  0  0  0  0
  193.2960  174.2510  144.0530 C   0  0  0  0  0  2  0  0  0  0  0  0
  186.4840  177.2240  140.1460 O   0  0  0  0  0  1  0  0  0  0  0  0
  188.3170  176.5540  144.6200 C   0  0  0  0  0  0  0  0  0  0  0  0
  185.9280  179.0400  143.2930 C   0  0  0  0  0  3  0  0  0  0  0  0
  187.4370  176.8370  142.3750 C   0  0  0  0  0  0  0  0  0  0  0  0
  189.0750  175.4800  144.2070 C   0  0  0  0  0  0  0  0  0  0  0  0
  189.7640  175.7530  147.6380 O   0  0  0  0  0  0  0  0  0  0  0  0
  189.9000  174.9490  145.3380 C   0  0  1  0  0  3  0  0  0  0  0  0
  193.4940  174.2920  145.5520 C   0  0  0  0  0  2  0  0  0  0  0  0
  190.8310  172.2930  144.2130 C   0  0  0  0  0  1  0  0  0  0  0  0
  186.7430  178.3420  144.1800 C   0  0  0  0  0  3  0  0  0  0  0  0
  187.4960  177.2500  143.7360 C   0  0  0  0  0  0  0  0  0  0  0  0
  191.0730  173.4380  143.2380 C   0  0  2  0  0  3  0  0  0  0  0  0
  189.0900  174.1100  138.7890 O   0  0  0  0  0  0  0  0  0  0  0  0
  188.1350  174.9150  136.7650 C   0  0  0  0  0  1  0  0  0  0  0  0
  187.8930  174.5390  138.2120 C   0  0  0  0  0  2  0  0  0  0  0  0
  1 19  2  0  0  0  0
  1  4  1  0  0  0  0
  2 13  2  0  0  0  0
  2 19  1  0  0  0  0
  3 10  1  0  0  0  0
  4 20  2  0  0  0  0
  5  1  1  0  0  0  0
  7 15  1  1  0  0  0
  7  9  1  0  0  0  0
  8  6  1  6  0  0  0
  8 12  1  0  0  0  0
  9 22  1  0  0  0  0
  9 14  1  1  0  0  0
 10 21  2  0  0  0  0
 11 28  1  6  0  0  0
 11  5  1  0  0  0  0
 11  8  1  0  0  0  0
 12  4  1  1  0  0  0
 12 27  1  0  0  0  0
 13 18  1  0  0  0  0
 15 23  1  0  0  0  0
 16  2  1  0  0  0  0
 17  3  1  0  0  0  0
 18 25  2  0  0  0  0
 19 26  1  0  0  0  0
 20 17  1  0  0  0  0
 22 20  1  6  0  0  0
 22 10  1  0  0  0  0
 23 14  1  0  0  0  0
 26 25  1  0  0  0  0
 26 17  2  0  0  0  0
 27  7  1  0  0  0  0
 27 24  1  1  0  0  0
 29 30  1  0  0  0  0
 30 28  1  0  0  0  0
M  END
>  <MODEL>
8

>  <REMARK>
 VINA RESULT:      -7.8      2.086      5.710
  Name = 
  2 active torsions:
  status: ('A' for Active; 'I' for Inactive)
    1  A    between atoms: C_11  and  O_28
    2  A    between atoms: O_28  and  C_30
                            x       y       z     vdW  Elec       q    Type
                         _______ _______ _______ _____ _____    ______ ____

>  <TORSDO>
F 2

$$$$
=
 OpenBabel11112416173D

 30 35  0  0  1  0  0  0  0  0999 V2000
  187.4600  177.1160  143.8340 C   0  0  0  0  0  0  0  0  0  0  0  0
  185.5170  178.3690  142.8890 C   0  0  0  0  0  0  0  0  0  0  0  0
  188.2000  175.2760  140.1280 N   0  0  0  0  0  2  0  0  0  0  0  0
  188.5100  176.1790  143.6510 C   0  0  0  0  0  0  0  0  0  0  0  0
  187.2630  177.6870  145.1340 N   0  0  0  0  0  2  0  0  0  0  0  0
  189.7830  175.9870  147.1740 O   0  0  0  0  0  1  0  0  0  0  0  0
  189.3950  173.3720  144.1170 C   0  0  1  0  0  3  0  0  0  0  0  0
  188.8250  176.1130  146.1650 C   0  0  1  0  0  3  0  0  0  0  0  0
  189.4230  173.3030  142.6410 N   0  0  2  0  0  0  0  0  0  0  0  0
  189.3170  174.4780  140.5060 C   0  0  0  0  0  0  0  0  0  0  0  0
  188.2200  177.5130  146.2190 C   0  0  2  0  0  3  0  0  0  0  0  0
  189.4750  175.8910  144.7940 C   0  0  1  0  0  3  0  0  0  0  0  0
  184.7030  178.6650  141.7910 C   0  0  0  0  0  3  0  0  0  0  0  0
  190.4910  172.3630  142.3280 C   0  0  0  0  0  2  0  0  0  0  0  0
  189.9140  172.0460  144.6400 C   0  0  0  0  0  2  0  0  0  0  0  0
  185.2370  178.9990  144.0960 O   0  0  0  0  0  1  0  0  0  0  0  0
  187.8540  175.9460  141.3290 C   0  0  0  0  0  0  0  0  0  0  0  0
  184.9310  178.0680  140.5530 C   0  0  0  0  0  3  0  0  0  0  0  0
  186.5900  177.4520  142.7540 C   0  0  0  0  0  0  0  0  0  0  0  0
  188.6780  175.6130  142.3810 C   0  0  0  0  0  0  0  0  0  0  0  0
  189.9430  173.7660  139.6780 O   0  0  0  0  0  0  0  0  0  0  0  0
  189.6820  174.5840  141.9620 C   0  0  1  0  0  3  0  0  0  0  0  0
  190.5320  171.3500  143.4490 C   0  0  0  0  0  2  0  0  0  0  0  0
  191.6340  174.6630  144.2800 C   0  0  0  0  0  1  0  0  0  0  0  0
  185.9800  177.1660  140.3970 C   0  0  0  0  0  3  0  0  0  0  0  0
  186.8070  176.8520  141.4810 C   0  0  0  0  0  0  0  0  0  0  0  0
  190.1930  174.5310  144.7560 C   0  0  2  0  0  3  0  0  0  0  0  0
  187.5780  177.7130  147.4420 O   0  0  0  0  0  0  0  0  0  0  0  0
  185.3050  178.3720  147.6720 C   0  0  0  0  0  1  0  0  0  0  0  0
  186.2650  177.2880  147.2300 C   0  0  0  0  0  2  0  0  0  0  0  0
  1  5  1  0  0  0  0
  2 16  1  0  0  0  0
  3 10  1  0  0  0  0
  3 17  1  0  0  0  0
  4  1  1  0  0  0  0
  5 11  1  0  0  0  0
  7 15  1  1  0  0  0
  7 27  1  0  0  0  0
  8 11  1  0  0  0  0
  8  6  1  1  0  0  0
  9 14  1  1  0  0  0
  9  7  1  0  0  0  0
 11 28  1  1  0  0  0
 12  4  1  6  0  0  0
 12  8  1  0  0  0  0
 13  2  2  0  0  0  0
 14 23  1  0  0  0  0
 17 26  2  0  0  0  0
 17 20  1  0  0  0  0
 18 13  1  0  0  0  0
 19  2  1  0  0  0  0
 19  1  2  0  0  0  0
 20  4  2  0  0  0  0
 21 10  2  0  0  0  0
 22 10  1  6  0  0  0
 22 20  1  0  0  0  0
 22  9  1  0  0  0  0
 23 15  1  0  0  0  0
 25 18  2  0  0  0  0
 25 26  1  0  0  0  0
 26 19  1  0  0  0  0
 27 24  1  6  0  0  0
 27 12  1  0  0  0  0
 30 28  1  0  0  0  0
 30 29  1  0  0  0  0
M  END
>  <MODEL>
9

>  <REMARK>
 VINA RESULT:      -7.4      1.883      3.360
  Name = 
  2 active torsions:
  status: ('A' for Active; 'I' for Inactive)
    1  A    between atoms: C_11  and  O_28
    2  A    between atoms: O_28  and  C_30
                            x       y       z     vdW  Elec       q    Type
                         _______ _______ _______ _____ _____    ______ ____

>  <TORSDO>
F 2

$$$$
