=
 OpenBabel11112417193D

 37 43  0  0  1  0  0  0  0  0999 V2000
  189.9080  173.0640  142.6570 C   0  0  0  0  0  2  0  0  0  0  0  0
  194.5690  175.7580  144.0840 S   0  0  0  0  0  0  0  0  0  0  0  0
  190.4620  175.2580  145.3900 C   0  0  0  0  0  0  0  0  0  0  0  0
  190.3970  171.8840  141.8080 C   0  0  1  0  0  3  0  0  0  0  0  0
  187.7180  176.1440  142.8240 C   0  0  0  0  0  2  0  0  0  0  0  0
  192.7720  175.1700  146.0700 C   0  0  0  0  0  0  0  0  0  0  0  0
  189.6750  175.4680  144.2250 N   0  0  0  0  0  0  0  0  0  0  0  0
  188.8630  172.7650  140.0200 C   0  0  0  0  0  0  0  0  0  0  0  0
  191.7850  175.1700  145.0840 C   0  0  0  0  0  0  0  0  0  0  0  0
  188.2490  175.8470  144.2350 C   0  0  1  0  0  3  0  0  0  0  0  0
  192.3690  175.1590  147.4150 C   0  0  0  0  0  3  0  0  0  0  0  0
  190.1170  172.0070  140.3070 C   0  0  0  0  0  2  0  0  0  0  0  0
  191.9920  175.1600  143.6150 C   0  0  2  0  0  3  0  0  0  0  0  0
  195.2500  174.6050  143.4010 O   0  0  0  0  0  0  0  0  0  0  0  0
  188.5770  175.2890  147.0560 C   0  0  0  0  0  2  0  0  0  0  0  0
  190.9970  175.1840  147.7390 C   0  0  0  0  0  3  0  0  0  0  0  0
  193.0590  176.1680  143.2150 C   0  0  0  0  0  2  0  0  0  0  0  0
  188.9330  174.2600  139.9070 C   0  0  0  0  0  2  0  0  0  0  0  0
  187.7970  174.9240  141.9230 C   0  0  0  0  0  2  0  0  0  0  0  0
  190.0280  175.2520  146.7200 C   0  0  0  0  0  0  0  0  0  0  0  0
  190.5870  175.4880  143.0620 C   0  0  1  0  0  3  0  0  0  0  0  0
  194.1480  175.3130  145.7100 N   0  0  0  0  0  2  0  0  0  0  0  0
  188.0260  177.0320  145.2120 C   0  0  2  0  0  3  0  0  0  0  0  0
  195.4780  176.9530  144.1010 O   0  0  0  0  0  0  0  0  0  0  0  0
  189.0680  174.9410  141.2020 N   0  0  1  0  0  0  0  0  0  0  0  0
  187.7920  172.1870  139.9420 O   0  0  0  0  0  0  0  0  0  0  0  0
  190.1900  174.4390  142.0170 C   0  0  2  0  0  3  0  0  0  0  0  0
  187.9460  176.6320  146.6980 C   0  0  0  0  0  2  0  0  0  0  0  0
  186.8900  178.7700  143.7650 C   0  0  0  0  0  3  0  0  0  0  0  0
  186.8580  177.9170  144.8790 C   0  0  0  0  0  0  0  0  0  0  0  0
  185.7250  177.8920  145.7000 C   0  0  0  0  0  3  0  0  0  0  0  0
  183.5100  178.6860  146.2290 O   0  0  0  0  0  1  0  0  0  0  0  0
  184.6660  179.5620  144.3010 C   0  0  0  0  0  3  0  0  0  0  0  0
  184.6310  178.7130  145.4120 C   0  0  0  0  0  0  0  0  0  0  0  0
  185.7950  179.5910  143.4780 C   0  0  0  0  0  3  0  0  0  0  0  0
  191.8860  171.3790  143.3670 C   0  0  0  0  0  1  0  0  0  0  0  0
  191.7650  171.6890  142.0120 O   0  0  0  0  0  0  0  0  0  0  0  0
  2 24  2  0  0  0  0
  2 22  1  0  0  0  0
  3 20  1  0  0  0  0
  4 37  1  6  0  0  0
  4  1  1  0  0  0  0
  6 11  2  0  0  0  0
  7 10  1  0  0  0  0
  7  3  1  0  0  0  0
  8 12  1  0  0  0  0
  9  3  2  0  0  0  0
  9  6  1  0  0  0  0
 10  5  1  6  0  0  0
 10 23  1  0  0  0  0
 11 16  1  0  0  0  0
 12  4  1  0  0  0  0
 13 17  1  1  0  0  0
 13  9  1  0  0  0  0
 14  2  2  0  0  0  0
 17  2  1  0  0  0  0
 18  8  1  0  0  0  0
 19  5  1  0  0  0  0
 20 15  1  0  0  0  0
 20 16  2  0  0  0  0
 21 13  1  0  0  0  0
 21  7  1  1  0  0  0
 22  6  1  0  0  0  0
 23 30  1  6  0  0  0
 23 28  1  0  0  0  0
 25 18  1  6  0  0  0
 25 19  1  0  0  0  0
 25 27  1  0  0  0  0
 26  8  2  0  0  0  0
 27  1  1  1  0  0  0
 27 21  1  0  0  0  0
 28 15  1  0  0  0  0
 29 30  1  0  0  0  0
 30 31  2  0  0  0  0
 33 34  2  0  0  0  0
 34 31  1  0  0  0  0
 34 32  1  0  0  0  0
 35 29  2  0  0  0  0
 35 33  1  0  0  0  0
 37 36  1  0  0  0  0
M  END
>  <MODEL>
1

>  <REMARK>
 VINA RESULT:      -9.8      0.000      0.000
  Name = 
  2 active torsions:
  status: ('A' for Active; 'I' for Inactive)
    1  A    between atoms: C_4  and  O_37
    2  A    between atoms: C_23  and  C_30
                            x       y       z     vdW  Elec       q    Type
                         _______ _______ _______ _____ _____    ______ ____

>  <TORSDO>
F 2

$$$$
=
 OpenBabel11112417193D

 37 43  0  0  1  0  0  0  0  0999 V2000
  192.7190  175.9380  143.1940 C   0  0  0  0  0  2  0  0  0  0  0  0
  191.1850  170.7660  141.8100 S   0  0  0  0  0  0  0  0  0  0  0  0
  189.5690  174.7860  142.0390 C   0  0  0  0  0  0  0  0  0  0  0  0
  194.2460  175.9320  143.0500 C   0  0  1  0  0  3  0  0  0  0  0  0
  189.7620  176.5280  145.4770 C   0  0  0  0  0  2  0  0  0  0  0  0
  189.8570  172.8540  140.6280 C   0  0  0  0  0  0  0  0  0  0  0  0
  189.9250  175.2550  143.3320 N   0  0  0  0  0  0  0  0  0  0  0  0
  194.2960  176.6930  145.4470 C   0  0  0  0  0  0  0  0  0  0  0  0
  190.1980  173.6150  141.7450 C   0  0  0  0  0  0  0  0  0  0  0  0
  189.2410  176.3530  144.0430 C   0  0  1  0  0  3  0  0  0  0  0  0
  188.9080  173.3730  139.7330 C   0  0  0  0  0  3  0  0  0  0  0  0
  195.0210  175.9510  144.3720 C   0  0  0  0  0  2  0  0  0  0  0  0
  191.1860  173.2660  142.7960 C   0  0  2  0  0  3  0  0  0  0  0  0
  192.6420  170.5970  141.4830 O   0  0  0  0  0  0  0  0  0  0  0  0
  187.9680  176.6390  141.4590 C   0  0  0  0  0  2  0  0  0  0  0  0
  188.2990  174.6180  139.9970 C   0  0  0  0  0  3  0  0  0  0  0  0
  191.0070  171.8220  143.2440 C   0  0  0  0  0  2  0  0  0  0  0  0
  193.3030  175.9500  146.2920 C   0  0  0  0  0  2  0  0  0  0  0  0
  191.2350  176.8970  145.5030 C   0  0  0  0  0  2  0  0  0  0  0  0
  188.6150  175.3280  141.1700 C   0  0  0  0  0  0  0  0  0  0  0  0
  190.8980  174.3020  143.9050 C   0  0  1  0  0  3  0  0  0  0  0  0
  190.3690  171.5270  140.4780 N   0  0  0  0  0  2  0  0  0  0  0  0
  187.7050  176.1360  143.9930 C   0  0  2  0  0  3  0  0  0  0  0  0
  190.5640  169.4290  142.0930 O   0  0  0  0  0  0  0  0  0  0  0  0
  192.0340  175.6780  145.6030 N   0  0  1  0  0  0  0  0  0  0  0  0
  194.4620  177.8920  145.5940 O   0  0  0  0  0  0  0  0  0  0  0  0
  192.2030  175.0010  144.3040 C   0  0  2  0  0  3  0  0  0  0  0  0
  187.0410  176.5580  142.6690 C   0  0  0  0  0  2  0  0  0  0  0  0
  187.2180  176.3720  146.4650 C   0  0  0  0  0  3  0  0  0  0  0  0
  186.9430  176.7390  145.1390 C   0  0  0  0  0  0  0  0  0  0  0  0
  185.9380  177.6750  144.8730 C   0  0  0  0  0  3  0  0  0  0  0  0
  184.2150  179.1710  145.6570 O   0  0  0  0  0  1  0  0  0  0  0  0
  185.4880  177.8750  147.2450 C   0  0  0  0  0  3  0  0  0  0  0  0
  185.2110  178.2430  145.9250 C   0  0  0  0  0  0  0  0  0  0  0  0
  186.4910  176.9400  147.5150 C   0  0  0  0  0  3  0  0  0  0  0  0
  194.0440  175.0100  141.0470 C   0  0  0  0  0  1  0  0  0  0  0  0
  194.6460  174.8290  142.2920 O   0  0  0  0  0  0  0  0  0  0  0  0
  2 24  2  0  0  0  0
  2 17  1  0  0  0  0
  3  7  1  0  0  0  0
  4 37  1  1  0  0  0
  4  1  1  0  0  0  0
  4 12  1  0  0  0  0
  5 19  1  0  0  0  0
  6  9  2  0  0  0  0
  7 10  1  0  0  0  0
  8 26  2  0  0  0  0
  8 18  1  0  0  0  0
  9  3  1  0  0  0  0
  9 13  1  0  0  0  0
 10  5  1  1  0  0  0
 11 16  2  0  0  0  0
 11  6  1  0  0  0  0
 12  8  1  0  0  0  0
 13 17  1  1  0  0  0
 13 21  1  0  0  0  0
 14  2  2  0  0  0  0
 15 28  1  0  0  0  0
 16 20  1  0  0  0  0
 20 15  1  0  0  0  0
 20  3  2  0  0  0  0
 21  7  1  6  0  0  0
 21 27  1  0  0  0  0
 22  6  1  0  0  0  0
 22  2  1  0  0  0  0
 23 10  1  0  0  0  0
 23 30  1  1  0  0  0
 25 19  1  6  0  0  0
 25 18  1  0  0  0  0
 27  1  1  6  0  0  0
 27 25  1  0  0  0  0
 28 23  1  0  0  0  0
 29 35  1  0  0  0  0
 30 29  2  0  0  0  0
 31 30  1  0  0  0  0
 31 34  2  0  0  0  0
 32 34  1  0  0  0  0
 33 35  2  0  0  0  0
 34 33  1  0  0  0  0
 36 37  1  0  0  0  0
M  END
>  <MODEL>
2

>  <REMARK>
 VINA RESULT:      -9.0      1.895      5.365
  Name = 
  2 active torsions:
  status: ('A' for Active; 'I' for Inactive)
    1  A    between atoms: C_4  and  O_37
    2  A    between atoms: C_23  and  C_30
                            x       y       z     vdW  Elec       q    Type
                         _______ _______ _______ _____ _____    ______ ____

>  <TORSDO>
F 2

$$$$
=
 OpenBabel11112417193D

 37 43  0  0  1  0  0  0  0  0999 V2000
  190.9200  172.7030  143.9200 C   0  0  0  0  0  2  0  0  0  0  0  0
  194.5320  176.6090  145.5680 S   0  0  0  0  0  0  0  0  0  0  0  0
  190.2650  175.8310  145.4610 C   0  0  0  0  0  0  0  0  0  0  0  0
  191.7480  171.4130  143.8820 C   0  0  1  0  0  3  0  0  0  0  0  0
  188.7310  175.1130  141.9930 C   0  0  0  0  0  2  0  0  0  0  0  0
  192.1180  176.4720  146.8620 C   0  0  0  0  0  0  0  0  0  0  0  0
  189.9960  175.4230  144.1260 N   0  0  0  0  0  0  0  0  0  0  0  0
  191.0160  171.2260  141.4830 C   0  0  0  0  0  0  0  0  0  0  0  0
  191.6030  175.9000  145.6980 C   0  0  0  0  0  0  0  0  0  0  0  0
  188.6700  175.4850  143.4820 C   0  0  1  0  0  3  0  0  0  0  0  0
  191.2160  176.8900  147.8530 C   0  0  0  0  0  3  0  0  0  0  0  0
  192.0810  170.9000  142.4770 C   0  0  0  0  0  2  0  0  0  0  0  0
  192.3750  175.3760  144.5440 C   0  0  2  0  0  3  0  0  0  0  0  0
  195.4690  175.4450  145.7220 O   0  0  0  0  0  0  0  0  0  0  0  0
  187.8740  176.1140  146.1920 C   0  0  0  0  0  2  0  0  0  0  0  0
  189.8280  176.7610  147.6410 C   0  0  0  0  0  3  0  0  0  0  0  0
  193.4750  176.3490  144.1460 C   0  0  0  0  0  2  0  0  0  0  0  0
  191.0710  172.5480  140.7750 C   0  0  0  0  0  2  0  0  0  0  0  0
  189.2060  173.6840  141.7870 C   0  0  0  0  0  2  0  0  0  0  0  0
  189.3400  176.2430  146.4270 C   0  0  0  0  0  0  0  0  0  0  0  0
  191.2930  175.1830  143.4590 C   0  0  1  0  0  3  0  0  0  0  0  0
  193.5180  176.7390  146.9730 N   0  0  0  0  0  2  0  0  0  0  0  0
  188.0350  176.8810  143.7170 C   0  0  2  0  0  3  0  0  0  0  0  0
  195.3150  177.8780  145.3850 O   0  0  0  0  0  0  0  0  0  0  0  0
  190.6560  173.6810  141.6130 N   0  0  1  0  0  0  0  0  0  0  0  0
  190.0860  170.4600  141.2950 O   0  0  0  0  0  0  0  0  0  0  0  0
  191.3810  173.7600  142.8950 C   0  0  2  0  0  3  0  0  0  0  0  0
  187.3880  177.0660  145.1030 C   0  0  0  0  0  2  0  0  0  0  0  0
  187.4720  177.4980  141.3280 C   0  0  0  0  0  3  0  0  0  0  0  0
  187.0630  177.3210  142.6590 C   0  0  0  0  0  0  0  0  0  0  0  0
  185.7310  177.5650  143.0130 C   0  0  0  0  0  3  0  0  0  0  0  0
  183.4930  178.2230  142.4010 O   0  0  0  0  0  1  0  0  0  0  0  0
  185.2230  178.1580  140.7210 C   0  0  0  0  0  3  0  0  0  0  0  0
  184.8120  177.9820  142.0450 C   0  0  0  0  0  0  0  0  0  0  0  0
  186.5520  177.9160  140.3620 C   0  0  0  0  0  3  0  0  0  0  0  0
  193.5650  170.3450  144.5620 C   0  0  0  0  0  1  0  0  0  0  0  0
  192.9300  171.5870  144.6060 O   0  0  0  0  0  0  0  0  0  0  0  0
  2 14  2  0  0  0  0
  2 22  1  0  0  0  0
  3  9  2  0  0  0  0
  3 20  1  0  0  0  0
  4  1  1  0  0  0  0
  4 37  1  1  0  0  0
  6 22  1  0  0  0  0
  6 11  2  0  0  0  0
  7  3  1  0  0  0  0
  8 12  1  0  0  0  0
  9  6  1  0  0  0  0
 10  5  1  6  0  0  0
 10 23  1  0  0  0  0
 10  7  1  0  0  0  0
 12  4  1  0  0  0  0
 13 17  1  6  0  0  0
 13  9  1  0  0  0  0
 15 20  1  0  0  0  0
 16 11  1  0  0  0  0
 17  2  1  0  0  0  0
 18  8  1  0  0  0  0
 19  5  1  0  0  0  0
 20 16  2  0  0  0  0
 21  7  1  1  0  0  0
 21 13  1  0  0  0  0
 23 30  1  6  0  0  0
 23 28  1  0  0  0  0
 24  2  2  0  0  0  0
 25 18  1  1  0  0  0
 25 19  1  0  0  0  0
 25 27  1  0  0  0  0
 26  8  2  0  0  0  0
 27 21  1  0  0  0  0
 27  1  1  1  0  0  0
 28 15  1  0  0  0  0
 29 30  1  0  0  0  0
 30 31  2  0  0  0  0
 33 34  2  0  0  0  0
 34 32  1  0  0  0  0
 34 31  1  0  0  0  0
 35 33  1  0  0  0  0
 35 29  2  0  0  0  0
 36 37  1  0  0  0  0
M  END
>  <MODEL>
3

>  <REMARK>
 VINA RESULT:      -8.8      1.767      2.261
  Name = 
  2 active torsions:
  status: ('A' for Active; 'I' for Inactive)
    1  A    between atoms: C_4  and  O_37
    2  A    between atoms: C_23  and  C_30
                            x       y       z     vdW  Elec       q    Type
                         _______ _______ _______ _____ _____    ______ ____

>  <TORSDO>
F 2

$$$$
=
 OpenBabel11112417193D

 37 43  0  0  1  0  0  0  0  0999 V2000
  192.7380  176.0350  143.1010 C   0  0  0  0  0  2  0  0  0  0  0  0
  191.0400  170.8630  141.9220 S   0  0  0  0  0  0  0  0  0  0  0  0
  189.5540  174.9390  141.9840 C   0  0  0  0  0  0  0  0  0  0  0  0
  194.2640  175.9740  142.9620 C   0  0  1  0  0  3  0  0  0  0  0  0
  189.7980  176.8110  145.3510 C   0  0  0  0  0  2  0  0  0  0  0  0
  189.7820  172.9440  140.6530 C   0  0  0  0  0  0  0  0  0  0  0  0
  189.9230  175.4480  143.2590 N   0  0  0  0  0  0  0  0  0  0  0  0
  194.3350  176.8290  145.3270 C   0  0  0  0  0  0  0  0  0  0  0  0
  190.1460  173.7380  141.7400 C   0  0  0  0  0  0  0  0  0  0  0  0
  189.2740  176.5950  143.9230 C   0  0  1  0  0  3  0  0  0  0  0  0
  188.8510  173.4570  139.7360 C   0  0  0  0  0  3  0  0  0  0  0  0
  195.0370  176.0210  144.2840 C   0  0  0  0  0  2  0  0  0  0  0  0
  191.1200  173.4000  142.8070 C   0  0  2  0  0  3  0  0  0  0  0  0
  192.4920  170.6350  141.6060 O   0  0  0  0  0  0  0  0  0  0  0  0
  188.0140  176.8180  141.3270 C   0  0  0  0  0  2  0  0  0  0  0  0
  188.2820  174.7300  139.9470 C   0  0  0  0  0  3  0  0  0  0  0  0
  190.8940  171.9820  143.3120 C   0  0  0  0  0  2  0  0  0  0  0  0
  193.3170  176.1530  146.1980 C   0  0  0  0  0  2  0  0  0  0  0  0
  191.2820  177.1330  145.3650 C   0  0  0  0  0  2  0  0  0  0  0  0
  188.6190  175.4760  141.0920 C   0  0  0  0  0  0  0  0  0  0  0  0
  190.8640  174.4880  143.8720 C   0  0  1  0  0  3  0  0  0  0  0  0
  190.2500  171.5960  140.5590 N   0  0  0  0  0  2  0  0  0  0  0  0
  187.7320  176.4260  143.8780 C   0  0  2  0  0  3  0  0  0  0  0  0
  190.3760  169.5590  142.2560 O   0  0  0  0  0  0  0  0  0  0  0  0
  192.0410  175.8940  145.5170 N   0  0  1  0  0  0  0  0  0  0  0  0
  194.5390  178.0270  145.4260 O   0  0  0  0  0  0  0  0  0  0  0  0
  192.1900  175.1600  144.2470 C   0  0  2  0  0  3  0  0  0  0  0  0
  187.0830  176.8150  142.5360 C   0  0  0  0  0  2  0  0  0  0  0  0
  186.4500  178.3860  144.8380 C   0  0  0  0  0  3  0  0  0  0  0  0
  186.9880  177.0990  144.9960 C   0  0  0  0  0  0  0  0  0  0  0  0
  186.8390  176.4320  146.2170 C   0  0  0  0  0  3  0  0  0  0  0  0
  186.0130  176.3780  148.4830 O   0  0  0  0  0  1  0  0  0  0  0  0
  185.6230  178.3250  147.1120 C   0  0  0  0  0  3  0  0  0  0  0  0
  186.1580  177.0440  147.2740 C   0  0  0  0  0  0  0  0  0  0  0  0
  185.7690  178.9960  145.8950 C   0  0  0  0  0  3  0  0  0  0  0  0
  194.0310  174.9770  140.9990 C   0  0  0  0  0  1  0  0  0  0  0  0
  194.6290  174.8290  142.2500 O   0  0  0  0  0  0  0  0  0  0  0  0
  2 24  2  0  0  0  0
  2 17  1  0  0  0  0
  3  7  1  0  0  0  0
  4 37  1  1  0  0  0
  4  1  1  0  0  0  0
  4 12  1  0  0  0  0
  5 19  1  0  0  0  0
  6  9  2  0  0  0  0
  7 10  1  0  0  0  0
  8 26  2  0  0  0  0
  8 18  1  0  0  0  0
  9  3  1  0  0  0  0
  9 13  1  0  0  0  0
 10  5  1  1  0  0  0
 11 16  2  0  0  0  0
 11  6  1  0  0  0  0
 12  8  1  0  0  0  0
 13 17  1  1  0  0  0
 13 21  1  0  0  0  0
 14  2  2  0  0  0  0
 15 28  1  0  0  0  0
 16 20  1  0  0  0  0
 20 15  1  0  0  0  0
 20  3  2  0  0  0  0
 21  7  1  6  0  0  0
 21 27  1  0  0  0  0
 22  6  1  0  0  0  0
 22  2  1  0  0  0  0
 23 10  1  0  0  0  0
 23 30  1  1  0  0  0
 25 19  1  6  0  0  0
 25 18  1  0  0  0  0
 27  1  1  6  0  0  0
 27 25  1  0  0  0  0
 28 23  1  0  0  0  0
 29 30  2  0  0  0  0
 29 35  1  0  0  0  0
 30 31  1  0  0  0  0
 31 34  2  0  0  0  0
 33 34  1  0  0  0  0
 34 32  1  0  0  0  0
 35 33  2  0  0  0  0
 36 37  1  0  0  0  0
M  END
>  <MODEL>
4

>  <REMARK>
 VINA RESULT:      -8.6      2.017      5.357
  Name = 
  2 active torsions:
  status: ('A' for Active; 'I' for Inactive)
    1  A    between atoms: C_4  and  O_37
    2  A    between atoms: C_23  and  C_30
                            x       y       z     vdW  Elec       q    Type
                         _______ _______ _______ _____ _____    ______ ____

>  <TORSDO>
F 2

$$$$
=
 OpenBabel11112417193D

 37 43  0  0  1  0  0  0  0  0999 V2000
  192.1380  172.0400  143.7630 C   0  0  0  0  0  2  0  0  0  0  0  0
  196.1000  175.9520  143.6400 S   0  0  0  0  0  0  0  0  0  0  0  0
  192.0610  175.3260  145.0970 C   0  0  0  0  0  0  0  0  0  0  0  0
  192.9000  170.7220  143.5780 C   0  0  1  0  0  3  0  0  0  0  0  0
  189.4170  174.3270  142.4690 C   0  0  0  0  0  2  0  0  0  0  0  0
  194.2860  176.0320  145.6950 C   0  0  0  0  0  0  0  0  0  0  0  0
  191.3450  174.7990  143.9880 N   0  0  0  0  0  0  0  0  0  0  0  0
  191.3790  170.3260  141.6130 C   0  0  0  0  0  0  0  0  0  0  0  0
  193.3990  175.3680  144.8480 C   0  0  0  0  0  0  0  0  0  0  0  0
  189.8780  174.8460  143.8390 C   0  0  1  0  0  3  0  0  0  0  0  0
  193.7850  176.5790  146.8870 C   0  0  0  0  0  3  0  0  0  0  0  0
  192.7240  170.0600  142.2070 C   0  0  0  0  0  2  0  0  0  0  0  0
  193.7200  174.7050  143.5610 C   0  0  2  0  0  3  0  0  0  0  0  0
  197.0310  174.7740  143.5830 O   0  0  0  0  0  0  0  0  0  0  0  0
  190.0740  175.7690  146.5750 C   0  0  0  0  0  2  0  0  0  0  0  0
  192.4100  176.4820  147.1830 C   0  0  0  0  0  3  0  0  0  0  0  0
  194.6150  175.5920  142.7070 C   0  0  0  0  0  2  0  0  0  0  0  0
  191.1850  171.5690  140.7950 C   0  0  0  0  0  2  0  0  0  0  0  0
  189.7890  172.8690  142.2630 C   0  0  0  0  0  2  0  0  0  0  0  0
  191.5300  175.8660  146.2740 C   0  0  0  0  0  0  0  0  0  0  0  0
  192.3290  174.4460  142.9430 C   0  0  1  0  0  3  0  0  0  0  0  0
  195.6380  176.2570  145.2870 N   0  0  0  0  0  2  0  0  0  0  0  0
  189.3640  176.2810  144.1310 C   0  0  2  0  0  3  0  0  0  0  0  0
  196.7710  177.1660  143.0650 O   0  0  0  0  0  0  0  0  0  0  0  0
  191.0890  172.7940  141.6010 N   0  0  1  0  0  0  0  0  0  0  0  0
  190.4410  169.5810  141.8410 O   0  0  0  0  0  0  0  0  0  0  0  0
  192.2150  172.9720  142.5370 C   0  0  2  0  0  3  0  0  0  0  0  0
  189.2400  176.6260  145.6280 C   0  0  0  0  0  2  0  0  0  0  0  0
  186.8460  176.5280  144.0810 C   0  0  0  0  0  3  0  0  0  0  0  0
  188.0860  176.6500  143.4340 C   0  0  0  0  0  0  0  0  0  0  0  0
  188.1350  177.1150  142.1150 C   0  0  0  0  0  3  0  0  0  0  0  0
  187.0100  177.9160  140.1370 O   0  0  0  0  0  1  0  0  0  0  0  0
  185.7240  177.3330  142.0940 C   0  0  0  0  0  3  0  0  0  0  0  0
  186.9560  177.4560  141.4460 C   0  0  0  0  0  0  0  0  0  0  0  0
  185.6680  176.8700  143.4110 C   0  0  0  0  0  3  0  0  0  0  0  0
  194.3250  171.3310  145.1580 C   0  0  0  0  0  1  0  0  0  0  0  0
  194.2600  170.9220  143.8260 O   0  0  0  0  0  0  0  0  0  0  0  0
  2 22  1  0  0  0  0
  3 20  1  0  0  0  0
  4  1  1  0  0  0  0
  4 37  1  6  0  0  0
  6 11  2  0  0  0  0
  7  3  1  0  0  0  0
  8 26  2  0  0  0  0
  8 12  1  0  0  0  0
  9  3  2  0  0  0  0
  9  6  1  0  0  0  0
 10  5  1  6  0  0  0
 10  7  1  0  0  0  0
 10 23  1  0  0  0  0
 11 16  1  0  0  0  0
 12  4  1  0  0  0  0
 13 17  1  6  0  0  0
 13  9  1  0  0  0  0
 14  2  2  0  0  0  0
 17  2  1  0  0  0  0
 18  8  1  0  0  0  0
 19  5  1  0  0  0  0
 20 15  1  0  0  0  0
 20 16  2  0  0  0  0
 21 13  1  0  0  0  0
 21  7  1  1  0  0  0
 22  6  1  0  0  0  0
 23 30  1  6  0  0  0
 23 28  1  0  0  0  0
 24  2  2  0  0  0  0
 25 18  1  1  0  0  0
 25 19  1  0  0  0  0
 25 27  1  0  0  0  0
 27 21  1  0  0  0  0
 27  1  1  1  0  0  0
 28 15  1  0  0  0  0
 30 29  1  0  0  0  0
 31 30  2  0  0  0  0
 32 34  1  0  0  0  0
 33 35  1  0  0  0  0
 34 33  2  0  0  0  0
 34 31  1  0  0  0  0
 35 29  2  0  0  0  0
 37 36  1  0  0  0  0
M  END
>  <MODEL>
5

>  <REMARK>
 VINA RESULT:      -8.6      2.200      2.873
  Name = 
  2 active torsions:
  status: ('A' for Active; 'I' for Inactive)
    1  A    between atoms: C_4  and  O_37
    2  A    between atoms: C_23  and  C_30
                            x       y       z     vdW  Elec       q    Type
                         _______ _______ _______ _____ _____    ______ ____

>  <TORSDO>
F 2

$$$$
=
 OpenBabel11112417193D

 37 43  0  0  1  0  0  0  0  0999 V2000
  191.3060  172.4400  141.9510 C   0  0  0  0  0  2  0  0  0  0  0  0
  195.7090  175.6270  143.1670 S   0  0  0  0  0  0  0  0  0  0  0  0
  191.6290  174.9220  144.4660 C   0  0  0  0  0  0  0  0  0  0  0  0
  191.9040  171.2280  141.2270 C   0  0  1  0  0  3  0  0  0  0  0  0
  188.8750  175.3340  141.7940 C   0  0  0  0  0  2  0  0  0  0  0  0
  193.9250  175.0870  145.1790 C   0  0  0  0  0  0  0  0  0  0  0  0
  190.8510  174.9550  143.2770 N   0  0  0  0  0  0  0  0  0  0  0  0
  190.3400  171.8070  139.3440 C   0  0  0  0  0  0  0  0  0  0  0  0
  192.9620  174.9120  144.1860 C   0  0  0  0  0  0  0  0  0  0  0  0
  189.4000  175.2170  143.2330 C   0  0  1  0  0  3  0  0  0  0  0  0
  193.4980  175.1710  146.5140 C   0  0  0  0  0  3  0  0  0  0  0  0
  191.6450  171.1840  139.7170 C   0  0  0  0  0  2  0  0  0  0  0  0
  193.1970  174.7790  142.7280 C   0  0  2  0  0  3  0  0  0  0  0  0
  196.4920  174.4730  142.6070 O   0  0  0  0  0  0  0  0  0  0  0  0
  189.7150  174.9590  146.0980 C   0  0  0  0  0  2  0  0  0  0  0  0
  192.1220  175.1150  146.8180 C   0  0  0  0  0  3  0  0  0  0  0  0
  194.1880  175.8280  142.2440 C   0  0  0  0  0  2  0  0  0  0  0  0
  190.2940  173.2850  139.0880 C   0  0  0  0  0  2  0  0  0  0  0  0
  189.0690  174.0440  141.0160 C   0  0  0  0  0  2  0  0  0  0  0  0
  191.1710  175.0080  145.7850 C   0  0  0  0  0  0  0  0  0  0  0  0
  191.7820  174.9380  142.1290 C   0  0  1  0  0  3  0  0  0  0  0  0
  195.2930  175.3060  144.8240 N   0  0  0  0  0  2  0  0  0  0  0  0
  189.0640  176.4680  144.0890 C   0  0  2  0  0  3  0  0  0  0  0  0
  196.5190  176.8880  143.0800 O   0  0  0  0  0  0  0  0  0  0  0  0
  190.3480  174.0950  140.3120 N   0  0  1  0  0  0  0  0  0  0  0  0
  189.3200  171.1400  139.3090 O   0  0  0  0  0  0  0  0  0  0  0  0
  191.4900  173.7660  141.1850 C   0  0  2  0  0  3  0  0  0  0  0  0
  188.9870  176.2060  145.6050 C   0  0  0  0  0  2  0  0  0  0  0  0
  187.8070  177.9230  142.4440 C   0  0  0  0  0  3  0  0  0  0  0  0
  187.8360  177.2190  143.6570 C   0  0  0  0  0  0  0  0  0  0  0  0
  186.7090  177.2200  144.4860 C   0  0  0  0  0  3  0  0  0  0  0  0
  184.4440  177.9180  144.9330 O   0  0  0  0  0  1  0  0  0  0  0  0
  185.5330  178.6200  142.8980 C   0  0  0  0  0  3  0  0  0  0  0  0
  185.5590  177.9190  144.1070 C   0  0  0  0  0  0  0  0  0  0  0  0
  186.6560  178.6220  142.0660 C   0  0  0  0  0  3  0  0  0  0  0  0
  193.3950  170.7910  142.8040 C   0  0  0  0  0  1  0  0  0  0  0  0
  193.2790  171.1640  141.4650 O   0  0  0  0  0  0  0  0  0  0  0  0
  2 22  1  0  0  0  0
  3 20  1  0  0  0  0
  4 37  1  6  0  0  0
  4  1  1  0  0  0  0
  6 11  2  0  0  0  0
  7  3  1  0  0  0  0
  8 12  1  0  0  0  0
  9  3  2  0  0  0  0
  9  6  1  0  0  0  0
 10  5  1  6  0  0  0
 10  7  1  0  0  0  0
 10 23  1  0  0  0  0
 11 16  1  0  0  0  0
 12  4  1  0  0  0  0
 13 17  1  6  0  0  0
 13  9  1  0  0  0  0
 14  2  2  0  0  0  0
 17  2  1  0  0  0  0
 18  8  1  0  0  0  0
 19  5  1  0  0  0  0
 20 15  1  0  0  0  0
 20 16  2  0  0  0  0
 21 13  1  0  0  0  0
 21  7  1  1  0  0  0
 22  6  1  0  0  0  0
 23 30  1  6  0  0  0
 23 28  1  0  0  0  0
 24  2  2  0  0  0  0
 25 18  1  6  0  0  0
 25 19  1  0  0  0  0
 25 27  1  0  0  0  0
 26  8  2  0  0  0  0
 27  1  1  1  0  0  0
 27 21  1  0  0  0  0
 28 15  1  0  0  0  0
 29 30  1  0  0  0  0
 30 31  2  0  0  0  0
 33 34  2  0  0  0  0
 34 31  1  0  0  0  0
 34 32  1  0  0  0  0
 35 29  2  0  0  0  0
 35 33  1  0  0  0  0
 37 36  1  0  0  0  0
M  END
>  <MODEL>
6

>  <REMARK>
 VINA RESULT:      -8.3      1.416      1.666
  Name = 
  2 active torsions:
  status: ('A' for Active; 'I' for Inactive)
    1  A    between atoms: C_4  and  O_37
    2  A    between atoms: C_23  and  C_30
                            x       y       z     vdW  Elec       q    Type
                         _______ _______ _______ _____ _____    ______ ____

>  <TORSDO>
F 2

$$$$
=
 OpenBabel11112417193D

 37 43  0  0  1  0  0  0  0  0999 V2000
  192.0990  174.9030  144.9840 C   0  0  0  0  0  2  0  0  0  0  0  0
  187.6730  177.6510  143.0160 S   0  0  0  0  0  0  0  0  0  0  0  0
  190.1780  174.2340  142.0780 C   0  0  0  0  0  0  0  0  0  0  0  0
  192.1320  175.2570  146.4760 C   0  0  1  0  0  3  0  0  0  0  0  0
  193.9550  174.9230  141.6890 C   0  0  0  0  0  2  0  0  0  0  0  0
  187.9110  174.9920  142.3880 C   0  0  0  0  0  0  0  0  0  0  0  0
  191.5120  174.7170  142.1720 N   0  0  0  0  0  0  0  0  0  0  0  0
  194.4770  176.0610  146.0500 C   0  0  0  0  0  0  0  0  0  0  0  0
  189.2870  175.1450  142.5590 C   0  0  0  0  0  0  0  0  0  0  0  0
  192.6770  174.0870  141.5220 C   0  0  1  0  0  3  0  0  0  0  0  0
  187.4410  173.8110  141.7910 C   0  0  0  0  0  3  0  0  0  0  0  0
  193.2510  176.2200  146.8880 C   0  0  0  0  0  2  0  0  0  0  0  0
  189.9870  176.2950  143.1810 C   0  0  2  0  0  3  0  0  0  0  0  0
  187.4560  178.0060  144.4600 O   0  0  0  0  0  0  0  0  0  0  0  0
  190.7140  172.0250  141.0000 C   0  0  0  0  0  2  0  0  0  0  0  0
  188.3570  172.8340  141.3490 C   0  0  0  0  0  3  0  0  0  0  0  0
  189.4270  177.6110  142.6610 C   0  0  0  0  0  2  0  0  0  0  0  0
  194.5810  176.8360  144.7690 C   0  0  0  0  0  2  0  0  0  0  0  0
  194.3470  175.0700  143.1490 C   0  0  0  0  0  2  0  0  0  0  0  0
  189.7420  173.0500  141.4740 C   0  0  0  0  0  0  0  0  0  0  0  0
  191.4640  176.0540  142.8000 C   0  0  1  0  0  3  0  0  0  0  0  0
  187.0250  176.0710  142.6950 N   0  0  0  0  0  2  0  0  0  0  0  0
  192.3540  173.7910  140.0330 C   0  0  2  0  0  3  0  0  0  0  0  0
  187.0060  178.6660  142.1320 O   0  0  0  0  0  0  0  0  0  0  0  0
  193.7510  176.2910  143.6850 N   0  0  1  0  0  0  0  0  0  0  0  0
  195.3500  175.2710  146.3680 O   0  0  0  0  0  0  0  0  0  0  0  0
  192.3350  176.1140  144.0600 C   0  0  2  0  0  3  0  0  0  0  0  0
  191.5170  172.5190  139.7990 C   0  0  0  0  0  2  0  0  0  0  0  0
  194.4960  172.7380  139.1920 C   0  0  0  0  0  3  0  0  0  0  0  0
  193.5460  173.7690  139.1190 C   0  0  0  0  0  0  0  0  0  0  0  0
  193.7130  174.8000  138.1880 C   0  0  0  0  0  3  0  0  0  0  0  0
  194.9800  175.8270  136.4110 O   0  0  0  0  0  1  0  0  0  0  0  0
  195.7630  173.7740  137.4080 C   0  0  0  0  0  3  0  0  0  0  0  0
  194.8200  174.8020  137.3330 C   0  0  0  0  0  0  0  0  0  0  0  0
  195.6020  172.7420  138.3360 C   0  0  0  0  0  3  0  0  0  0  0  0
  191.1910  176.6320  147.9340 C   0  0  0  0  0  1  0  0  0  0  0  0
  190.8990  175.7840  146.8660 O   0  0  0  0  0  0  0  0  0  0  0  0
  1  4  1  0  0  0  0
  2 14  2  0  0  0  0
  3  7  1  0  0  0  0
  3  9  1  0  0  0  0
  4 37  1  6  0  0  0
  4 12  1  0  0  0  0
  5 19  1  0  0  0  0
  6  9  2  0  0  0  0
  6 22  1  0  0  0  0
  8 26  2  0  0  0  0
  8 12  1  0  0  0  0
  9 13  1  0  0  0  0
 10  5  1  6  0  0  0
 10  7  1  0  0  0  0
 11  6  1  0  0  0  0
 13 17  1  6  0  0  0
 15 20  1  0  0  0  0
 16 20  1  0  0  0  0
 16 11  2  0  0  0  0
 17  2  1  0  0  0  0
 18  8  1  0  0  0  0
 20  3  2  0  0  0  0
 21  7  1  1  0  0  0
 21 13  1  0  0  0  0
 21 27  1  0  0  0  0
 22  2  1  0  0  0  0
 23 30  1  6  0  0  0
 23 10  1  0  0  0  0
 24  2  2  0  0  0  0
 25 19  1  1  0  0  0
 25 27  1  0  0  0  0
 25 18  1  0  0  0  0
 27  1  1  6  0  0  0
 28 23  1  0  0  0  0
 28 15  1  0  0  0  0
 30 29  1  0  0  0  0
 31 30  2  0  0  0  0
 32 34  1  0  0  0  0
 33 35  1  0  0  0  0
 34 33  2  0  0  0  0
 34 31  1  0  0  0  0
 35 29  2  0  0  0  0
 37 36  1  0  0  0  0
M  END
>  <MODEL>
7

>  <REMARK>
 VINA RESULT:      -8.0      3.456      8.116
  Name = 
  2 active torsions:
  status: ('A' for Active; 'I' for Inactive)
    1  A    between atoms: C_4  and  O_37
    2  A    between atoms: C_23  and  C_30
                            x       y       z     vdW  Elec       q    Type
                         _______ _______ _______ _____ _____    ______ ____

>  <TORSDO>
F 2

$$$$
=
 OpenBabel11112417193D

 37 43  0  0  1  0  0  0  0  0999 V2000
  192.0750  174.9130  145.0050 C   0  0  0  0  0  2  0  0  0  0  0  0
  187.6400  177.6480  143.0390 S   0  0  0  0  0  0  0  0  0  0  0  0
  190.1740  174.2570  142.0830 C   0  0  0  0  0  0  0  0  0  0  0  0
  192.0990  175.2530  146.5000 C   0  0  1  0  0  3  0  0  0  0  0  0
  193.9480  174.9750  141.7190 C   0  0  0  0  0  2  0  0  0  0  0  0
  187.9000  174.9970  142.3880 C   0  0  0  0  0  0  0  0  0  0  0  0
  191.5040  174.7480  142.1880 N   0  0  0  0  0  0  0  0  0  0  0  0
  194.4400  176.0780  146.0930 C   0  0  0  0  0  0  0  0  0  0  0  0
  189.2740  175.1570  142.5680 C   0  0  0  0  0  0  0  0  0  0  0  0
  192.6770  174.1320  141.5380 C   0  0  1  0  0  3  0  0  0  0  0  0
  187.4410  173.8180  141.7780 C   0  0  0  0  0  3  0  0  0  0  0  0
  193.2090  176.2200  146.9260 C   0  0  0  0  0  2  0  0  0  0  0  0
  189.9630  176.3070  143.2040 C   0  0  2  0  0  3  0  0  0  0  0  0
  187.4140  177.9880  144.4850 O   0  0  0  0  0  0  0  0  0  0  0  0
  190.7310  172.0620  140.9880 C   0  0  0  0  0  2  0  0  0  0  0  0
  188.3660  172.8510  141.3320 C   0  0  0  0  0  3  0  0  0  0  0  0
  189.3970  177.6240  142.6920 C   0  0  0  0  0  2  0  0  0  0  0  0
  194.5440  176.8640  144.8190 C   0  0  0  0  0  2  0  0  0  0  0  0
  194.3310  175.1120  143.1820 C   0  0  0  0  0  2  0  0  0  0  0  0
  189.7490  173.0750  141.4670 C   0  0  0  0  0  0  0  0  0  0  0  0
  191.4440  176.0790  142.8280 C   0  0  1  0  0  3  0  0  0  0  0  0
  187.0050  176.0670  142.7000 N   0  0  0  0  0  2  0  0  0  0  0  0
  192.3630  173.8470  140.0450 C   0  0  2  0  0  3  0  0  0  0  0  0
  186.9710  178.6660  142.1610 O   0  0  0  0  0  0  0  0  0  0  0  0
  193.7240  176.3240  143.7270 N   0  0  1  0  0  0  0  0  0  0  0  0
  195.3160  175.2900  146.4090 O   0  0  0  0  0  0  0  0  0  0  0  0
  192.3080  176.1340  144.0930 C   0  0  2  0  0  3  0  0  0  0  0  0
  191.5360  172.5720  139.7960 C   0  0  0  0  0  2  0  0  0  0  0  0
  193.8170  174.9160  138.2710 C   0  0  0  0  0  3  0  0  0  0  0  0
  193.5600  173.8420  139.1370 C   0  0  0  0  0  0  0  0  0  0  0  0
  194.4240  172.7410  139.1520 C   0  0  0  0  0  3  0  0  0  0  0  0
  196.3940  171.6190  138.3270 O   0  0  0  0  0  1  0  0  0  0  0  0
  195.7930  173.7840  137.4480 C   0  0  0  0  0  3  0  0  0  0  0  0
  195.5390  172.7130  138.3080 C   0  0  0  0  0  0  0  0  0  0  0  0
  194.9320  174.8860  137.4280 C   0  0  0  0  0  3  0  0  0  0  0  0
  191.1530  176.6920  147.8920 C   0  0  0  0  0  1  0  0  0  0  0  0
  190.8600  175.7680  146.8880 O   0  0  0  0  0  0  0  0  0  0  0  0
  1  4  1  0  0  0  0
  2 14  2  0  0  0  0
  3  7  1  0  0  0  0
  3  9  1  0  0  0  0
  4 37  1  6  0  0  0
  4 12  1  0  0  0  0
  5 19  1  0  0  0  0
  6  9  2  0  0  0  0
  6 22  1  0  0  0  0
  8 26  2  0  0  0  0
  8 12  1  0  0  0  0
  9 13  1  0  0  0  0
 10  5  1  6  0  0  0
 10  7  1  0  0  0  0
 11  6  1  0  0  0  0
 13 17  1  6  0  0  0
 15 20  1  0  0  0  0
 16 20  1  0  0  0  0
 16 11  2  0  0  0  0
 17  2  1  0  0  0  0
 18  8  1  0  0  0  0
 20  3  2  0  0  0  0
 21  7  1  1  0  0  0
 21 13  1  0  0  0  0
 21 27  1  0  0  0  0
 22  2  1  0  0  0  0
 23 30  1  6  0  0  0
 23 10  1  0  0  0  0
 24  2  2  0  0  0  0
 25 19  1  1  0  0  0
 25 27  1  0  0  0  0
 25 18  1  0  0  0  0
 27  1  1  6  0  0  0
 28 23  1  0  0  0  0
 28 15  1  0  0  0  0
 29 30  1  0  0  0  0
 30 31  2  0  0  0  0
 33 34  2  0  0  0  0
 34 32  1  0  0  0  0
 34 31  1  0  0  0  0
 35 33  1  0  0  0  0
 35 29  2  0  0  0  0
 37 36  1  0  0  0  0
M  END
>  <MODEL>
8

>  <REMARK>
 VINA RESULT:      -7.9      3.397      8.167
  Name = 
  2 active torsions:
  status: ('A' for Active; 'I' for Inactive)
    1  A    between atoms: C_4  and  O_37
    2  A    between atoms: C_23  and  C_30
                            x       y       z     vdW  Elec       q    Type
                         _______ _______ _______ _____ _____    ______ ____

>  <TORSDO>
F 2

$$$$
=
 OpenBabel11112417193D

 37 43  0  0  1  0  0  0  0  0999 V2000
  191.9440  173.2530  141.9190 C   0  0  0  0  0  2  0  0  0  0  0  0
  189.8790  175.9390  146.3400 S   0  0  0  0  0  0  0  0  0  0  0  0
  193.6610  174.5220  144.7520 C   0  0  0  0  0  0  0  0  0  0  0  0
  190.8950  173.4690  140.8210 C   0  0  1  0  0  3  0  0  0  0  0  0
  193.8980  170.7500  143.9750 C   0  0  0  0  0  2  0  0  0  0  0  0
  192.4880  176.4270  145.6500 C   0  0  0  0  0  0  0  0  0  0  0  0
  193.4250  173.1690  144.3870 N   0  0  0  0  0  0  0  0  0  0  0  0
  190.8170  170.9610  140.6510 C   0  0  0  0  0  0  0  0  0  0  0  0
  192.5000  175.1600  145.0660 C   0  0  0  0  0  0  0  0  0  0  0  0
  194.4790  172.1480  144.2300 C   0  0  1  0  0  3  0  0  0  0  0  0
  193.7130  177.0930  145.8190 C   0  0  0  0  0  3  0  0  0  0  0  0
  190.0570  172.2340  140.4750 C   0  0  0  0  0  2  0  0  0  0  0  0
  191.3270  174.2990  144.7780 C   0  0  2  0  0  3  0  0  0  0  0  0
  188.8140  176.3730  145.3730 O   0  0  0  0  0  0  0  0  0  0  0  0
  196.1650  174.4830  144.5150 C   0  0  0  0  0  2  0  0  0  0  0  0
  194.9150  176.4640  145.4350 C   0  0  0  0  0  3  0  0  0  0  0  0
  190.3820  174.2610  145.9720 C   0  0  0  0  0  2  0  0  0  0  0  0
  190.8250  170.3060  142.0010 C   0  0  0  0  0  2  0  0  0  0  0  0
  193.1000  170.6970  142.6830 C   0  0  0  0  0  2  0  0  0  0  0  0
  194.8980  175.1580  144.9120 C   0  0  0  0  0  0  0  0  0  0  0  0
  191.9670  172.9330  144.4480 C   0  0  1  0  0  3  0  0  0  0  0  0
  191.2730  176.9640  146.1770 N   0  0  0  0  0  2  0  0  0  0  0  0
  195.4290  172.1790  145.4570 C   0  0  2  0  0  3  0  0  0  0  0  0
  189.3560  176.0080  147.7460 O   0  0  0  0  0  0  0  0  0  0  0  0
  191.6960  170.9790  142.9740 N   0  0  1  0  0  0  0  0  0  0  0  0
  191.4690  170.4950  139.7320 O   0  0  0  0  0  0  0  0  0  0  0  0
  191.4230  172.4220  143.1100 C   0  0  2  0  0  3  0  0  0  0  0  0
  196.4860  173.2990  145.4220 C   0  0  0  0  0  2  0  0  0  0  0  0
  197.1430  170.3860  144.9570 C   0  0  0  0  0  3  0  0  0  0  0  0
  196.1060  170.8740  145.7670 C   0  0  0  0  0  0  0  0  0  0  0  0
  195.6860  170.1320  146.8760 C   0  0  0  0  0  3  0  0  0  0  0  0
  195.8770  168.1780  148.2780 O   0  0  0  0  0  1  0  0  0  0  0  0
  197.3310  168.4280  146.3680 C   0  0  0  0  0  3  0  0  0  0  0  0
  196.2970  168.9110  147.1770 C   0  0  0  0  0  0  0  0  0  0  0  0
  197.7540  169.1650  145.2590 C   0  0  0  0  0  3  0  0  0  0  0  0
  188.7830  174.1280  140.7390 C   0  0  0  0  0  1  0  0  0  0  0  0
  190.0490  174.5220  141.1750 O   0  0  0  0  0  0  0  0  0  0  0  0
  2 24  2  0  0  0  0
  3 20  2  0  0  0  0
  3  9  1  0  0  0  0
  4 37  1  1  0  0  0
  4  1  1  0  0  0  0
  6 11  1  0  0  0  0
  6 22  1  0  0  0  0
  7  3  1  0  0  0  0
  8 18  1  0  0  0  0
  9  6  2  0  0  0  0
 10  5  1  1  0  0  0
 10  7  1  0  0  0  0
 10 23  1  0  0  0  0
 12  8  1  0  0  0  0
 12  4  1  0  0  0  0
 13  9  1  0  0  0  0
 13 17  1  1  0  0  0
 14  2  2  0  0  0  0
 15 20  1  0  0  0  0
 15 28  1  0  0  0  0
 16 11  2  0  0  0  0
 17  2  1  0  0  0  0
 19 25  1  0  0  0  0
 19  5  1  0  0  0  0
 20 16  1  0  0  0  0
 21  7  1  6  0  0  0
 21 13  1  0  0  0  0
 22  2  1  0  0  0  0
 23 30  1  6  0  0  0
 25 18  1  6  0  0  0
 25 27  1  0  0  0  0
 26  8  2  0  0  0  0
 27  1  1  6  0  0  0
 27 21  1  0  0  0  0
 28 23  1  0  0  0  0
 29 35  2  0  0  0  0
 29 30  1  0  0  0  0
 30 31  2  0  0  0  0
 31 34  1  0  0  0  0
 33 34  2  0  0  0  0
 34 32  1  0  0  0  0
 35 33  1  0  0  0  0
 36 37  1  0  0  0  0
M  END
>  <MODEL>
9

>  <REMARK>
 VINA RESULT:      -7.3      3.854      7.886
  Name = 
  2 active torsions:
  status: ('A' for Active; 'I' for Inactive)
    1  A    between atoms: C_4  and  O_37
    2  A    between atoms: C_23  and  C_30
                            x       y       z     vdW  Elec       q    Type
                         _______ _______ _______ _____ _____    ______ ____

>  <TORSDO>
F 2

$$$$
