=
 OpenBabel11112416213D

 30 35  0  0  1  0  0  0  0  0999 V2000
  186.1820  177.2030  143.7180 C   0  0  0  0  0  0  0  0  0  0  0  0
  184.7880  178.3180  145.4850 C   0  0  0  0  0  0  0  0  0  0  0  0
  188.8560  175.8510  146.5420 N   0  0  0  0  0  2  0  0  0  0  0  0
  187.3170  176.4100  143.3760 C   0  0  0  0  0  0  0  0  0  0  0  0
  185.2240  177.5700  142.6150 C   0  0  0  0  0  2  0  0  0  0  0  0
  187.1930  176.5760  139.7460 O   0  0  0  0  0  0  0  0  0  0  0  0
  189.7670  175.0960  141.8620 C   0  0  1  0  0  3  0  0  0  0  0  0
  186.8950  176.7900  140.9530 C   0  0  0  0  0  0  0  0  0  0  0  0
  190.2560  174.9360  143.2810 C   0  0  2  0  0  3  0  0  0  0  0  0
  189.7190  175.2600  145.6890 C   0  0  0  0  0  0  0  0  0  0  0  0
  185.9490  177.9010  141.3140 C   0  0  1  0  0  3  0  0  0  0  0  0
  187.5130  176.0240  142.0010 N   0  0  0  0  0  0  0  0  0  0  0  0
  184.5770  178.6010  146.8370 C   0  0  0  0  0  3  0  0  0  0  0  0
  190.6940  173.4910  143.3680 C   0  0  0  0  0  2  0  0  0  0  0  0
  190.5790  174.0740  141.0910 C   0  0  0  0  0  2  0  0  0  0  0  0
  183.8750  178.8290  144.5700 O   0  0  0  0  0  1  0  0  0  0  0  0
  187.9020  176.3210  145.7220 C   0  0  0  0  0  0  0  0  0  0  0  0
  185.4560  178.1320  147.8110 C   0  0  0  0  0  3  0  0  0  0  0  0
  185.9080  177.5380  145.0810 C   0  0  0  0  0  0  0  0  0  0  0  0
  188.1820  176.0100  144.4140 C   0  0  0  0  0  0  0  0  0  0  0  0
  190.7920  174.7290  146.0820 O   0  0  0  0  0  0  0  0  0  0  0  0
  189.3510  175.3180  144.3810 N   0  0  0  0  0  0  0  0  0  0  0  0
  191.0820  173.0690  142.0270 N   0  0  0  0  0  2  0  0  0  0  0  0
  187.7170  173.5750  142.2670 C   0  0  0  0  0  1  0  0  0  0  0  0
  186.5610  177.3720  147.4420 C   0  0  0  0  0  3  0  0  0  0  0  0
  186.7930  177.0720  146.0940 C   0  0  0  0  0  0  0  0  0  0  0  0
  188.2830  174.8460  141.6350 C   0  0  2  0  0  3  0  0  0  0  0  0
  184.9510  178.2350  140.2010 C   0  0  0  0  0  2  0  0  0  0  0  0
  182.6700  177.6140  139.9120 O   0  0  0  0  0  1  0  0  0  0  0  0
  183.5240  178.3650  140.7170 C   0  0  0  0  0  2  0  0  0  0  0  0
  1 19  1  0  0  0  0
  2 13  1  0  0  0  0
  4  1  2  0  0  0  0
  4 20  1  0  0  0  0
  5  1  1  0  0  0  0
  6  8  2  0  0  0  0
  7 15  1  6  0  0  0
  7  9  1  0  0  0  0
  8 11  1  0  0  0  0
  8 12  1  0  0  0  0
  9 14  1  1  0  0  0
  9 22  1  0  0  0  0
 10 21  2  0  0  0  0
 10  3  1  0  0  0  0
 11 28  1  6  0  0  0
 11  5  1  0  0  0  0
 12  4  1  0  0  0  0
 13 18  2  0  0  0  0
 15 23  1  0  0  0  0
 16  2  1  0  0  0  0
 17 26  1  0  0  0  0
 17  3  1  0  0  0  0
 19  2  2  0  0  0  0
 19 26  1  0  0  0  0
 20 17  2  0  0  0  0
 22 20  1  0  0  0  0
 22 10  1  0  0  0  0
 23 14  1  0  0  0  0
 25 18  1  0  0  0  0
 26 25  2  0  0  0  0
 27  7  1  0  0  0  0
 27 12  1  0  0  0  0
 27 24  1  1  0  0  0
 28 30  1  0  0  0  0
 29 30  1  0  0  0  0
M  END
>  <MODEL>
1

>  <REMARK>
 VINA RESULT:      -8.9      0.000      0.000
  Name = 
  2 active torsions:
  status: ('A' for Active; 'I' for Inactive)
    1  A    between atoms: C_11  and  C_28
    2  A    between atoms: C_28  and  C_30
                            x       y       z     vdW  Elec       q    Type
                         _______ _______ _______ _____ _____    ______ ____

>  <TORSDO>
F 2

$$$$
=
 OpenBabel11112416213D

 30 35  0  0  1  0  0  0  0  0999 V2000
  187.4300  176.7870  144.2570 C   0  0  0  0  0  0  0  0  0  0  0  0
  185.3540  177.9500  145.0600 C   0  0  0  0  0  0  0  0  0  0  0  0
  189.3220  177.4750  147.8490 N   0  0  0  0  0  2  0  0  0  0  0  0
  188.7560  176.3340  144.5200 C   0  0  0  0  0  0  0  0  0  0  0  0
  186.8040  176.4050  142.9410 C   0  0  0  0  0  2  0  0  0  0  0  0
  189.7290  175.1360  141.2280 O   0  0  0  0  0  0  0  0  0  0  0  0
  191.7750  175.4260  144.2310 C   0  0  1  0  0  3  0  0  0  0  0  0
  189.0340  175.6620  142.1400 C   0  0  0  0  0  0  0  0  0  0  0  0
  191.8230  175.9520  145.6450 C   0  0  2  0  0  3  0  0  0  0  0  0
  190.5110  176.9270  147.5220 C   0  0  0  0  0  0  0  0  0  0  0  0
  187.8090  176.4610  141.7940 C   0  0  1  0  0  3  0  0  0  0  0  0
  189.4450  175.5650  143.5140 N   0  0  0  0  0  0  0  0  0  0  0  0
  184.6790  178.6160  146.0880 C   0  0  0  0  0  3  0  0  0  0  0  0
  192.5100  174.8570  146.4310 C   0  0  0  0  0  2  0  0  0  0  0  0
  192.9840  174.5140  144.1520 C   0  0  0  0  0  2  0  0  0  0  0  0
  184.6820  177.7770  143.8560 O   0  0  0  0  0  1  0  0  0  0  0  0
  188.5920  177.2860  146.7380 C   0  0  0  0  0  0  0  0  0  0  0  0
  185.2920  178.8370  147.3190 C   0  0  0  0  0  3  0  0  0  0  0  0
  186.6820  177.4820  145.2600 C   0  0  0  0  0  0  0  0  0  0  0  0
  189.3210  176.6330  145.7760 C   0  0  0  0  0  0  0  0  0  0  0  0
  191.4970  176.9480  148.3050 O   0  0  0  0  0  0  0  0  0  0  0  0
  190.5630  176.3900  146.2730 N   0  0  0  0  0  0  0  0  0  0  0  0
  193.3750  174.1310  145.5080 N   0  0  0  0  0  2  0  0  0  0  0  0
  190.0740  173.5800  144.8460 C   0  0  0  0  0  1  0  0  0  0  0  0
  186.5920  178.3930  147.5370 C   0  0  0  0  0  3  0  0  0  0  0  0
  187.2880  177.7210  146.5250 C   0  0  0  0  0  0  0  0  0  0  0  0
  190.5230  174.6480  143.8500 C   0  0  2  0  0  3  0  0  0  0  0  0
  187.1570  176.0330  140.4750 C   0  0  0  0  0  2  0  0  0  0  0  0
  185.4960  177.6970  140.0920 O   0  0  0  0  0  1  0  0  0  0  0  0
  186.7210  177.2210  139.6280 C   0  0  0  0  0  2  0  0  0  0  0  0
  1  4  2  0  0  0  0
  1 19  1  0  0  0  0
  2 19  2  0  0  0  0
  2 13  1  0  0  0  0
  4 20  1  0  0  0  0
  5  1  1  0  0  0  0
  6  8  2  0  0  0  0
  7 15  1  1  0  0  0
  7  9  1  0  0  0  0
  8 12  1  0  0  0  0
  9 22  1  0  0  0  0
  9 14  1  1  0  0  0
 10  3  1  0  0  0  0
 10 21  2  0  0  0  0
 11 28  1  6  0  0  0
 11  8  1  0  0  0  0
 11  5  1  0  0  0  0
 12 27  1  0  0  0  0
 12  4  1  0  0  0  0
 13 18  2  0  0  0  0
 15 23  1  0  0  0  0
 16  2  1  0  0  0  0
 17  3  1  0  0  0  0
 18 25  1  0  0  0  0
 19 26  1  0  0  0  0
 20 22  1  0  0  0  0
 20 17  2  0  0  0  0
 22 10  1  0  0  0  0
 23 14  1  0  0  0  0
 26 17  1  0  0  0  0
 26 25  2  0  0  0  0
 27  7  1  0  0  0  0
 27 24  1  1  0  0  0
 30 29  1  0  0  0  0
 30 28  1  0  0  0  0
M  END
>  <MODEL>
2

>  <REMARK>
 VINA RESULT:      -8.1      1.865      2.581
  Name = 
  2 active torsions:
  status: ('A' for Active; 'I' for Inactive)
    1  A    between atoms: C_11  and  C_28
    2  A    between atoms: C_28  and  C_30
                            x       y       z     vdW  Elec       q    Type
                         _______ _______ _______ _____ _____    ______ ____

>  <TORSDO>
F 2

$$$$
=
 OpenBabel11112416213D

 30 35  0  0  1  0  0  0  0  0999 V2000
  186.5200  177.1690  143.9750 C   0  0  0  0  0  0  0  0  0  0  0  0
  184.6860  178.3970  142.7760 C   0  0  0  0  0  0  0  0  0  0  0  0
  187.9260  175.6110  140.4320 N   0  0  0  0  0  2  0  0  0  0  0  0
  187.6610  176.3180  143.9160 C   0  0  0  0  0  0  0  0  0  0  0  0
  186.1440  177.7510  145.3130 C   0  0  0  0  0  2  0  0  0  0  0  0
  188.2770  175.7610  147.4560 O   0  0  0  0  0  0  0  0  0  0  0  0
  189.9300  174.2170  144.5970 C   0  0  1  0  0  3  0  0  0  0  0  0
  187.7230  176.1730  146.4000 C   0  0  0  0  0  0  0  0  0  0  0  0
  189.9060  174.0570  143.0970 C   0  0  2  0  0  3  0  0  0  0  0  0
  188.9150  174.8600  140.9590 C   0  0  0  0  0  0  0  0  0  0  0  0
  186.3350  176.7470  146.4460 C   0  0  1  0  0  3  0  0  0  0  0  0
  188.3830  176.0290  145.1310 N   0  0  0  0  0  0  0  0  0  0  0  0
  184.0610  178.7300  141.5700 C   0  0  0  0  0  3  0  0  0  0  0  0
  191.3600  174.1410  142.6850 C   0  0  0  0  0  2  0  0  0  0  0  0
  191.2880  173.6690  144.9890 C   0  0  0  0  0  2  0  0  0  0  0  0
  184.1490  178.9210  143.9450 O   0  0  0  0  0  1  0  0  0  0  0  0
  187.3940  176.2030  141.5150 C   0  0  0  0  0  0  0  0  0  0  0  0
  184.5360  178.2340  140.3580 C   0  0  0  0  0  3  0  0  0  0  0  0
  185.8250  177.5450  142.7820 C   0  0  0  0  0  0  0  0  0  0  0  0
  188.0540  175.8230  142.6560 C   0  0  0  0  0  0  0  0  0  0  0  0
  189.6330  174.1040  140.2510 O   0  0  0  0  0  0  0  0  0  0  0  0
  189.0450  174.9590  142.3090 N   0  0  0  0  0  0  0  0  0  0  0  0
  192.1620  173.6910  143.8170 N   0  0  0  0  0  2  0  0  0  0  0  0
  190.6630  176.6910  144.4440 C   0  0  0  0  0  1  0  0  0  0  0  0
  185.6460  177.3950  140.3380 C   0  0  0  0  0  3  0  0  0  0  0  0
  186.2910  177.0490  141.5310 C   0  0  0  0  0  0  0  0  0  0  0  0
  189.7840  175.6400  145.1190 C   0  0  2  0  0  3  0  0  0  0  0  0
  185.9820  177.3750  147.7980 C   0  0  0  0  0  2  0  0  0  0  0  0
  187.2200  179.2550  148.5760 O   0  0  0  0  0  1  0  0  0  0  0  0
  186.1270  178.8910  147.7920 C   0  0  0  0  0  2  0  0  0  0  0  0
  1  5  1  0  0  0  0
  2 19  1  0  0  0  0
  2 16  1  0  0  0  0
  3 10  1  0  0  0  0
  3 17  1  0  0  0  0
  4  1  1  0  0  0  0
  4 12  1  0  0  0  0
  5 11  1  0  0  0  0
  7 15  1  6  0  0  0
  7 27  1  0  0  0  0
  8 11  1  0  0  0  0
  8  6  2  0  0  0  0
  9 14  1  6  0  0  0
  9  7  1  0  0  0  0
 10 22  1  0  0  0  0
 11 28  1  1  0  0  0
 12  8  1  0  0  0  0
 13  2  2  0  0  0  0
 14 23  1  0  0  0  0
 17 26  2  0  0  0  0
 17 20  1  0  0  0  0
 18 13  1  0  0  0  0
 19  1  2  0  0  0  0
 20  4  2  0  0  0  0
 21 10  2  0  0  0  0
 22 20  1  0  0  0  0
 22  9  1  0  0  0  0
 23 15  1  0  0  0  0
 25 18  2  0  0  0  0
 25 26  1  0  0  0  0
 26 19  1  0  0  0  0
 27 24  1  6  0  0  0
 27 12  1  0  0  0  0
 30 28  1  0  0  0  0
 30 29  1  0  0  0  0
M  END
>  <MODEL>
3

>  <REMARK>
 VINA RESULT:      -8.1      1.696      4.886
  Name = 
  2 active torsions:
  status: ('A' for Active; 'I' for Inactive)
    1  A    between atoms: C_11  and  C_28
    2  A    between atoms: C_28  and  C_30
                            x       y       z     vdW  Elec       q    Type
                         _______ _______ _______ _____ _____    ______ ____

>  <TORSDO>
F 2

$$$$
=
 OpenBabel11112416213D

 30 35  0  0  1  0  0  0  0  0999 V2000
  189.4400  175.2770  144.0590 C   0  0  0  0  0  0  0  0  0  0  0  0
  190.8370  173.5520  142.8840 C   0  0  0  0  0  0  0  0  0  0  0  0
  187.4410  176.1750  140.5730 N   0  0  0  0  0  2  0  0  0  0  0  0
  188.4000  176.2500  144.0060 C   0  0  0  0  0  0  0  0  0  0  0  0
  190.0440  174.9660  145.4040 C   0  0  0  0  0  2  0  0  0  0  0  0
  188.6370  177.6830  147.3390 O   0  0  0  0  0  0  0  0  0  0  0  0
  186.5480  178.7600  144.5520 C   0  0  1  0  0  3  0  0  0  0  0  0
  188.9020  176.9650  146.3360 C   0  0  0  0  0  0  0  0  0  0  0  0
  186.2560  178.5680  143.0840 C   0  0  2  0  0  3  0  0  0  0  0  0
  186.6690  177.1640  141.0710 C   0  0  0  0  0  0  0  0  0  0  0  0
  190.2050  176.2190  146.2600 C   0  0  1  0  0  3  0  0  0  0  0  0
  187.9950  176.9100  145.2220 N   0  0  0  0  0  0  0  0  0  0  0  0
  191.1450  172.8660  141.7060 C   0  0  0  0  0  3  0  0  0  0  0  0
  184.7460  178.6070  142.9920 C   0  0  0  0  0  2  0  0  0  0  0  0
  185.3690  179.5760  145.0440 C   0  0  0  0  0  2  0  0  0  0  0  0
  191.5670  173.2360  144.0230 O   0  0  0  0  0  1  0  0  0  0  0  0
  188.1400  175.7750  141.6480 C   0  0  0  0  0  0  0  0  0  0  0  0
  190.4640  173.1370  140.5210 C   0  0  0  0  0  3  0  0  0  0  0  0
  189.8140  174.5410  142.8910 C   0  0  0  0  0  0  0  0  0  0  0  0
  187.7870  176.4960  142.7610 C   0  0  0  0  0  0  0  0  0  0  0  0
  185.8880  177.8350  140.3450 O   0  0  0  0  0  0  0  0  0  0  0  0
  186.8310  177.3940  142.4010 N   0  0  0  0  0  0  0  0  0  0  0  0
  184.2600  179.4160  144.1040 N   0  0  0  0  0  2  0  0  0  0  0  0
  185.5670  176.4520  145.1740 C   0  0  0  0  0  1  0  0  0  0  0  0
  189.4630  174.1020  140.5010 C   0  0  0  0  0  3  0  0  0  0  0  0
  189.1330  174.8020  141.6680 C   0  0  0  0  0  0  0  0  0  0  0  0
  186.6700  177.4880  145.3800 C   0  0  2  0  0  3  0  0  0  0  0  0
  190.7860  175.8710  147.6340 C   0  0  0  0  0  2  0  0  0  0  0  0
  191.5660  177.5450  149.1380 O   0  0  0  0  0  1  0  0  0  0  0  0
  191.9370  176.7860  148.0290 C   0  0  0  0  0  2  0  0  0  0  0  0
  1  5  1  0  0  0  0
  2 19  1  0  0  0  0
  2 16  1  0  0  0  0
  3 10  1  0  0  0  0
  3 17  1  0  0  0  0
  4  1  1  0  0  0  0
  4 12  1  0  0  0  0
  5 11  1  0  0  0  0
  7 15  1  1  0  0  0
  7 27  1  0  0  0  0
  8  6  2  0  0  0  0
  9 14  1  1  0  0  0
  9  7  1  0  0  0  0
 10 22  1  0  0  0  0
 11  8  1  0  0  0  0
 11 28  1  1  0  0  0
 12 27  1  0  0  0  0
 12  8  1  0  0  0  0
 13  2  2  0  0  0  0
 14 23  1  0  0  0  0
 17 26  2  0  0  0  0
 17 20  1  0  0  0  0
 18 13  1  0  0  0  0
 19  1  2  0  0  0  0
 20  4  2  0  0  0  0
 21 10  2  0  0  0  0
 22 20  1  0  0  0  0
 22  9  1  0  0  0  0
 23 15  1  0  0  0  0
 25 18  2  0  0  0  0
 25 26  1  0  0  0  0
 26 19  1  0  0  0  0
 27 24  1  6  0  0  0
 28 30  1  0  0  0  0
 30 29  1  0  0  0  0
M  END
>  <MODEL>
4

>  <REMARK>
 VINA RESULT:      -8.0      2.058      7.266
  Name = 
  2 active torsions:
  status: ('A' for Active; 'I' for Inactive)
    1  A    between atoms: C_11  and  C_28
    2  A    between atoms: C_28  and  C_30
                            x       y       z     vdW  Elec       q    Type
                         _______ _______ _______ _____ _____    ______ ____

>  <TORSDO>
F 2

$$$$
=
 OpenBabel11112416213D

 30 35  0  0  1  0  0  0  0  0999 V2000
  189.8110  175.4570  143.8760 C   0  0  0  0  0  0  0  0  0  0  0  0
  191.7580  174.8000  145.3220 C   0  0  0  0  0  0  0  0  0  0  0  0
  187.8940  177.1940  147.0790 N   0  0  0  0  0  2  0  0  0  0  0  0
  188.5450  176.0990  143.7500 C   0  0  0  0  0  0  0  0  0  0  0  0
  190.4610  174.9300  142.6230 C   0  0  0  0  0  2  0  0  0  0  0  0
  187.6730  175.2150  140.3330 O   0  0  0  0  0  0  0  0  0  0  0  0
  185.6390  176.9410  142.8180 C   0  0  1  0  0  3  0  0  0  0  0  0
  188.3170  175.2650  141.4160 C   0  0  0  0  0  0  0  0  0  0  0  0
  185.5490  177.3550  144.2670 C   0  0  2  0  0  3  0  0  0  0  0  0
  186.7670  177.5530  146.4280 C   0  0  0  0  0  0  0  0  0  0  0  0
  189.4440  174.3040  141.6730 C   0  0  1  0  0  3  0  0  0  0  0  0
  187.9320  176.1890  142.4480 N   0  0  0  0  0  0  0  0  0  0  0  0
  192.3670  174.8070  146.5800 C   0  0  0  0  0  3  0  0  0  0  0  0
  184.9920  178.7610  144.2230 C   0  0  0  0  0  2  0  0  0  0  0  0
  184.5350  177.7400  142.1530 C   0  0  0  0  0  2  0  0  0  0  0  0
  192.4320  174.1690  144.2840 O   0  0  0  0  0  1  0  0  0  0  0  0
  188.6280  176.6240  146.1100 C   0  0  0  0  0  0  0  0  0  0  0  0
  191.7460  175.4110  147.6710 C   0  0  0  0  0  3  0  0  0  0  0  0
  190.4900  175.4180  145.1350 C   0  0  0  0  0  0  0  0  0  0  0  0
  187.9640  176.6500  144.9100 C   0  0  0  0  0  0  0  0  0  0  0  0
  185.7920  178.0890  147.0190 O   0  0  0  0  0  0  0  0  0  0  0  0
  186.7610  177.2540  145.1010 N   0  0  0  0  0  0  0  0  0  0  0  0
  184.2020  178.8820  143.0040 N   0  0  0  0  0  2  0  0  0  0  0  0
  187.5360  178.6260  142.3270 C   0  0  0  0  0  1  0  0  0  0  0  0
  190.5040  176.0180  147.5160 C   0  0  0  0  0  3  0  0  0  0  0  0
  189.8740  176.0270  146.2650 C   0  0  0  0  0  0  0  0  0  0  0  0
  186.9640  177.2240  142.1240 C   0  0  2  0  0  3  0  0  0  0  0  0
  190.1240  173.8110  140.3920 C   0  0  0  0  0  2  0  0  0  0  0  0
  188.7140  172.2850  139.2280 O   0  0  0  0  0  1  0  0  0  0  0  0
  189.8080  172.3530  140.0880 C   0  0  0  0  0  2  0  0  0  0  0  0
  1 19  1  0  0  0  0
  2 13  1  0  0  0  0
  4  1  2  0  0  0  0
  4 20  1  0  0  0  0
  5  1  1  0  0  0  0
  6  8  2  0  0  0  0
  7 15  1  6  0  0  0
  7  9  1  0  0  0  0
  8 11  1  0  0  0  0
  8 12  1  0  0  0  0
  9 14  1  6  0  0  0
  9 22  1  0  0  0  0
 10 21  2  0  0  0  0
 10  3  1  0  0  0  0
 11 28  1  6  0  0  0
 11  5  1  0  0  0  0
 12  4  1  0  0  0  0
 13 18  2  0  0  0  0
 15 23  1  0  0  0  0
 16  2  1  0  0  0  0
 17 26  1  0  0  0  0
 17  3  1  0  0  0  0
 19  2  2  0  0  0  0
 19 26  1  0  0  0  0
 20 22  1  0  0  0  0
 20 17  2  0  0  0  0
 22 10  1  0  0  0  0
 23 14  1  0  0  0  0
 25 18  1  0  0  0  0
 26 25  2  0  0  0  0
 27 24  1  1  0  0  0
 27 12  1  0  0  0  0
 27  7  1  0  0  0  0
 29 30  1  0  0  0  0
 30 28  1  0  0  0  0
M  END
>  <MODEL>
5

>  <REMARK>
 VINA RESULT:      -7.9      1.994      5.625
  Name = 
  2 active torsions:
  status: ('A' for Active; 'I' for Inactive)
    1  A    between atoms: C_11  and  C_28
    2  A    between atoms: C_28  and  C_30
                            x       y       z     vdW  Elec       q    Type
                         _______ _______ _______ _____ _____    ______ ____

>  <TORSDO>
F 2

$$$$
=
 OpenBabel11112416213D

 30 35  0  0  1  0  0  0  0  0999 V2000
  189.6500  175.7050  144.3040 C   0  0  0  0  0  0  0  0  0  0  0  0
  190.5950  174.3050  142.4450 C   0  0  0  0  0  0  0  0  0  0  0  0
  186.2100  176.4100  142.1540 N   0  0  0  0  0  2  0  0  0  0  0  0
  188.5760  176.4860  144.8200 C   0  0  0  0  0  0  0  0  0  0  0  0
  190.8250  175.4410  145.2100 C   0  0  0  0  0  2  0  0  0  0  0  0
  190.0770  177.7800  147.8680 O   0  0  0  0  0  0  0  0  0  0  0  0
  186.8440  178.6120  146.4040 C   0  0  1  0  0  3  0  0  0  0  0  0
  189.9620  177.1660  146.7720 C   0  0  0  0  0  0  0  0  0  0  0  0
  185.9570  178.4420  145.1940 C   0  0  2  0  0  3  0  0  0  0  0  0
  185.6150  177.2270  143.0500 C   0  0  0  0  0  0  0  0  0  0  0  0
  191.1820  176.6600  146.0540 C   0  0  1  0  0  3  0  0  0  0  0  0
  188.6700  177.0090  146.1600 N   0  0  0  0  0  0  0  0  0  0  0  0
  190.4360  173.7380  141.1780 C   0  0  0  0  0  3  0  0  0  0  0  0
  184.5740  178.2250  145.7680 C   0  0  0  0  0  2  0  0  0  0  0  0
  185.9090  179.1890  147.4490 C   0  0  0  0  0  2  0  0  0  0  0  0
  191.7910  174.0650  143.1120 O   0  0  0  0  0  1  0  0  0  0  0  0
  187.3610  176.0860  142.7670 C   0  0  0  0  0  0  0  0  0  0  0  0
  189.2700  173.9430  140.4440 C   0  0  0  0  0  3  0  0  0  0  0  0
  189.5600  175.1010  143.0100 C   0  0  0  0  0  0  0  0  0  0  0  0
  187.4460  176.6830  144.0000 C   0  0  0  0  0  0  0  0  0  0  0  0
  184.5110  177.7870  142.8160 O   0  0  0  0  0  0  0  0  0  0  0  0
  186.3200  177.4190  144.1970 N   0  0  0  0  0  0  0  0  0  0  0  0
  184.5310  178.8840  147.0680 N   0  0  0  0  0  2  0  0  0  0  0  0
  186.5590  176.1420  147.1100 C   0  0  0  0  0  1  0  0  0  0  0  0
  188.2460  174.7220  140.9720 C   0  0  0  0  0  3  0  0  0  0  0  0
  188.3790  175.2990  142.2410 C   0  0  0  0  0  0  0  0  0  0  0  0
  187.4900  177.3420  146.9410 C   0  0  2  0  0  3  0  0  0  0  0  0
  192.3530  176.3530  146.9910 C   0  0  0  0  0  2  0  0  0  0  0  0
  194.6070  175.6860  146.6040 O   0  0  0  0  0  1  0  0  0  0  0  0
  193.6990  176.7200  146.3810 C   0  0  0  0  0  2  0  0  0  0  0  0
  1  4  1  0  0  0  0
  1  5  1  0  0  0  0
  2 19  1  0  0  0  0
  2 16  1  0  0  0  0
  3 17  1  0  0  0  0
  3 10  1  0  0  0  0
  4 12  1  0  0  0  0
  5 11  1  0  0  0  0
  7 27  1  0  0  0  0
  7 15  1  1  0  0  0
  8  6  2  0  0  0  0
  9 14  1  1  0  0  0
  9  7  1  0  0  0  0
 10 22  1  0  0  0  0
 11  8  1  0  0  0  0
 11 28  1  1  0  0  0
 12  8  1  0  0  0  0
 12 27  1  0  0  0  0
 13  2  2  0  0  0  0
 14 23  1  0  0  0  0
 17 20  1  0  0  0  0
 18 25  2  0  0  0  0
 18 13  1  0  0  0  0
 19  1  2  0  0  0  0
 20 22  1  0  0  0  0
 20  4  2  0  0  0  0
 21 10  2  0  0  0  0
 22  9  1  0  0  0  0
 23 15  1  0  0  0  0
 25 26  1  0  0  0  0
 26 17  2  0  0  0  0
 26 19  1  0  0  0  0
 27 24  1  6  0  0  0
 30 29  1  0  0  0  0
 30 28  1  0  0  0  0
M  END
>  <MODEL>
6

>  <REMARK>
 VINA RESULT:      -7.9      2.152      7.393
  Name = 
  2 active torsions:
  status: ('A' for Active; 'I' for Inactive)
    1  A    between atoms: C_11  and  C_28
    2  A    between atoms: C_28  and  C_30
                            x       y       z     vdW  Elec       q    Type
                         _______ _______ _______ _____ _____    ______ ____

>  <TORSDO>
F 2

$$$$
=
 OpenBabel11112416213D

 30 35  0  0  1  0  0  0  0  0999 V2000
  189.0390  176.7010  145.7740 C   0  0  0  0  0  0  0  0  0  0  0  0
  186.9460  177.8920  146.4880 C   0  0  0  0  0  0  0  0  0  0  0  0
  187.2380  175.4130  142.3020 N   0  0  0  0  0  2  0  0  0  0  0  0
  189.7270  175.9170  144.8030 C   0  0  0  0  0  0  0  0  0  0  0  0
  189.8200  177.1890  146.9660 C   0  0  0  0  0  2  0  0  0  0  0  0
  192.8210  175.2040  146.5760 O   0  0  0  0  0  0  0  0  0  0  0  0
  191.7020  173.9070  143.3580 C   0  0  1  0  0  3  0  0  0  0  0  0
  191.6600  175.6420  146.3480 C   0  0  0  0  0  0  0  0  0  0  0  0
  190.5410  173.8270  142.3970 C   0  0  2  0  0  3  0  0  0  0  0  0
  188.2760  174.6880  141.8320 C   0  0  0  0  0  0  0  0  0  0  0  0
  190.8000  176.1380  147.4760 C   0  0  1  0  0  3  0  0  0  0  0  0
  191.1190  175.6020  145.0160 N   0  0  0  0  0  0  0  0  0  0  0  0
  185.6240  178.2550  146.2110 C   0  0  0  0  0  3  0  0  0  0  0  0
  191.1690  174.0100  141.0320 C   0  0  0  0  0  2  0  0  0  0  0  0
  192.8760  173.4120  142.5370 C   0  0  0  0  0  2  0  0  0  0  0  0
  187.4930  178.3230  147.6900 O   0  0  0  0  0  1  0  0  0  0  0  0
  187.7230  175.9160  143.4490 C   0  0  0  0  0  0  0  0  0  0  0  0
  185.0050  177.8510  145.0300 C   0  0  0  0  0  3  0  0  0  0  0  0
  187.6820  177.1030  145.5610 C   0  0  0  0  0  0  0  0  0  0  0  0
  189.0180  175.5120  143.6550 C   0  0  0  0  0  0  0  0  0  0  0  0
  188.1950  174.0110  140.7730 O   0  0  0  0  0  0  0  0  0  0  0  0
  189.3890  174.7220  142.6120 N   0  0  0  0  0  0  0  0  0  0  0  0
  192.5470  173.5430  141.1180 N   0  0  0  0  0  2  0  0  0  0  0  0
  192.0750  176.4200  142.8890 C   0  0  0  0  0  1  0  0  0  0  0  0
  185.7020  177.0750  144.1100 C   0  0  0  0  0  3  0  0  0  0  0  0
  187.0270  176.7000  144.3630 C   0  0  0  0  0  0  0  0  0  0  0  0
  192.0140  175.2890  143.9140 C   0  0  2  0  0  3  0  0  0  0  0  0
  191.6060  176.6720  148.6640 C   0  0  0  0  0  2  0  0  0  0  0  0
  191.5590  178.2890  150.4120 O   0  0  0  0  0  1  0  0  0  0  0  0
  191.1540  178.0590  149.0990 C   0  0  0  0  0  2  0  0  0  0  0  0
  1  5  1  0  0  0  0
  2 16  1  0  0  0  0
  3 17  1  0  0  0  0
  4 12  1  0  0  0  0
  4  1  2  0  0  0  0
  5 11  1  0  0  0  0
  7 15  1  6  0  0  0
  7 27  1  0  0  0  0
  8  6  2  0  0  0  0
  8 11  1  0  0  0  0
  9 14  1  6  0  0  0
  9 22  1  0  0  0  0
  9  7  1  0  0  0  0
 10  3  1  0  0  0  0
 10 22  1  0  0  0  0
 11 28  1  1  0  0  0
 12  8  1  0  0  0  0
 13  2  1  0  0  0  0
 14 23  1  0  0  0  0
 17 20  2  0  0  0  0
 17 26  1  0  0  0  0
 18 13  2  0  0  0  0
 19  1  1  0  0  0  0
 19  2  2  0  0  0  0
 20  4  1  0  0  0  0
 21 10  2  0  0  0  0
 22 20  1  0  0  0  0
 23 15  1  0  0  0  0
 25 26  2  0  0  0  0
 25 18  1  0  0  0  0
 26 19  1  0  0  0  0
 27 24  1  6  0  0  0
 27 12  1  0  0  0  0
 28 30  1  0  0  0  0
 30 29  1  0  0  0  0
M  END
>  <MODEL>
7

>  <REMARK>
 VINA RESULT:      -7.8      2.367      5.574
  Name = 
  2 active torsions:
  status: ('A' for Active; 'I' for Inactive)
    1  A    between atoms: C_11  and  C_28
    2  A    between atoms: C_28  and  C_30
                            x       y       z     vdW  Elec       q    Type
                         _______ _______ _______ _____ _____    ______ ____

>  <TORSDO>
F 2

$$$$
=
 OpenBabel11112416213D

 30 35  0  0  1  0  0  0  0  0999 V2000
  191.2870  175.3320  143.3540 C   0  0  0  0  0  0  0  0  0  0  0  0
  193.5890  174.9580  144.2870 C   0  0  0  0  0  0  0  0  0  0  0  0
  190.0780  177.1940  146.8220 N   0  0  0  0  0  2  0  0  0  0  0  0
  189.9740  175.8610  143.5170 C   0  0  0  0  0  0  0  0  0  0  0  0
  191.6480  174.7480  142.0130 C   0  0  0  0  0  2  0  0  0  0  0  0
  188.3600  174.6130  140.5080 O   0  0  0  0  0  0  0  0  0  0  0  0
  186.8590  176.3910  143.3140 C   0  0  1  0  0  3  0  0  0  0  0  0
  189.2470  174.8080  141.3820 C   0  0  0  0  0  0  0  0  0  0  0  0
  187.0970  176.9240  144.7070 C   0  0  2  0  0  3  0  0  0  0  0  0
  188.7950  177.4060  146.4610 C   0  0  0  0  0  0  0  0  0  0  0  0
  190.4910  173.9640  141.4010 C   0  0  1  0  0  3  0  0  0  0  0  0
  189.0470  175.7880  142.4150 N   0  0  0  0  0  0  0  0  0  0  0  0
  194.4910  175.1230  145.3420 C   0  0  0  0  0  3  0  0  0  0  0  0
  186.4130  178.2740  144.7160 C   0  0  0  0  0  2  0  0  0  0  0  0
  185.5510  177.0410  142.9060 C   0  0  0  0  0  2  0  0  0  0  0  0
  194.0380  174.2900  143.1540 O   0  0  0  0  0  1  0  0  0  0  0  0
  190.5970  176.5980  145.7350 C   0  0  0  0  0  0  0  0  0  0  0  0
  194.1100  175.7720  146.5140 C   0  0  0  0  0  3  0  0  0  0  0  0
  192.2610  175.4570  144.3940 C   0  0  0  0  0  0  0  0  0  0  0  0
  189.6520  176.4670  144.7480 C   0  0  0  0  0  0  0  0  0  0  0  0
  187.9530  177.9160  147.2480 O   0  0  0  0  0  0  0  0  0  0  0  0
  188.4840  176.9910  145.2040 N   0  0  0  0  0  0  0  0  0  0  0  0
  185.3340  178.2250  143.7370 N   0  0  0  0  0  2  0  0  0  0  0  0
  188.3990  178.1670  142.2400 C   0  0  0  0  0  1  0  0  0  0  0  0
  192.8160  176.2650  146.6450 C   0  0  0  0  0  3  0  0  0  0  0  0
  191.8940  176.1150  145.6020 C   0  0  0  0  0  0  0  0  0  0  0  0
  187.9330  176.7130  142.2840 C   0  0  2  0  0  3  0  0  0  0  0  0
  190.8710  173.4130  140.0240 C   0  0  0  0  0  2  0  0  0  0  0  0
  190.2150  171.4140  141.1410 O   0  0  0  0  0  1  0  0  0  0  0  0
  190.7510  171.8970  139.9480 C   0  0  0  0  0  2  0  0  0  0  0  0
  1  4  2  0  0  0  0
  1 19  1  0  0  0  0
  2 19  2  0  0  0  0
  2 13  1  0  0  0  0
  4 20  1  0  0  0  0
  5  1  1  0  0  0  0
  6  8  2  0  0  0  0
  7 15  1  6  0  0  0
  7  9  1  0  0  0  0
  8 11  1  0  0  0  0
  8 12  1  0  0  0  0
  9 14  1  6  0  0  0
  9 22  1  0  0  0  0
 10  3  1  0  0  0  0
 10 21  2  0  0  0  0
 11 28  1  6  0  0  0
 11  5  1  0  0  0  0
 12  4  1  0  0  0  0
 13 18  2  0  0  0  0
 15 23  1  0  0  0  0
 16  2  1  0  0  0  0
 17  3  1  0  0  0  0
 18 25  1  0  0  0  0
 19 26  1  0  0  0  0
 20 22  1  0  0  0  0
 20 17  2  0  0  0  0
 22 10  1  0  0  0  0
 23 14  1  0  0  0  0
 26 17  1  0  0  0  0
 26 25  2  0  0  0  0
 27 24  1  1  0  0  0
 27 12  1  0  0  0  0
 27  7  1  0  0  0  0
 30 28  1  0  0  0  0
 30 29  1  0  0  0  0
M  END
>  <MODEL>
8

>  <REMARK>
 VINA RESULT:      -7.8      2.637      6.204
  Name = 
  2 active torsions:
  status: ('A' for Active; 'I' for Inactive)
    1  A    between atoms: C_11  and  C_28
    2  A    between atoms: C_28  and  C_30
                            x       y       z     vdW  Elec       q    Type
                         _______ _______ _______ _____ _____    ______ ____

>  <TORSDO>
F 2

$$$$
=
 OpenBabel11112416213D

 30 35  0  0  1  0  0  0  0  0999 V2000
  188.1480  176.4010  144.4770 C   0  0  0  0  0  0  0  0  0  0  0  0
  186.7100  178.3380  145.1730 C   0  0  0  0  0  0  0  0  0  0  0  0
  186.8750  176.7320  140.5750 N   0  0  0  0  0  2  0  0  0  0  0  0
  188.6260  175.5430  143.4440 C   0  0  0  0  0  0  0  0  0  0  0  0
  188.7460  176.2460  145.8510 C   0  0  0  0  0  2  0  0  0  0  0  0
  190.5280  173.1300  145.3880 O   0  0  0  0  0  0  0  0  0  0  0  0
  189.7730  173.0780  141.8210 C   0  0  1  0  0  3  0  0  0  0  0  0
  189.7830  174.1120  145.1190 C   0  0  0  0  0  0  0  0  0  0  0  0
  188.9760  173.7320  140.7190 C   0  0  2  0  0  3  0  0  0  0  0  0
  187.5560  175.6750  140.0850 C   0  0  0  0  0  0  0  0  0  0  0  0
  188.9900  174.7820  146.2060 C   0  0  1  0  0  3  0  0  0  0  0  0
  189.6270  174.5550  143.7600 N   0  0  0  0  0  0  0  0  0  0  0  0
  185.8060  179.3440  144.8180 C   0  0  0  0  0  3  0  0  0  0  0  0
  189.9320  173.7950  139.5480 C   0  0  0  0  0  2  0  0  0  0  0  0
  190.7610  172.2050  141.0720 C   0  0  0  0  0  2  0  0  0  0  0  0
  187.0790  178.2480  146.5100 O   0  0  0  0  0  1  0  0  0  0  0  0
  187.2360  176.7430  141.8690 C   0  0  0  0  0  0  0  0  0  0  0  0
  185.3820  179.4890  143.4990 C   0  0  0  0  0  3  0  0  0  0  0  0
  187.2160  177.4460  144.1870 C   0  0  0  0  0  0  0  0  0  0  0  0
  188.1170  175.7270  142.1420 C   0  0  0  0  0  0  0  0  0  0  0  0
  187.4420  175.3020  138.8870 O   0  0  0  0  0  0  0  0  0  0  0  0
  188.3360  175.0320  140.9940 N   0  0  0  0  0  0  0  0  0  0  0  0
  190.8860  172.7030  139.7030 N   0  0  0  0  0  2  0  0  0  0  0  0
  191.3380  175.1190  142.0690 C   0  0  0  0  0  1  0  0  0  0  0  0
  185.8580  178.6260  142.5170 C   0  0  0  0  0  3  0  0  0  0  0  0
  186.7660  177.6130  142.8470 C   0  0  0  0  0  0  0  0  0  0  0  0
  190.5260  174.0200  142.7500 C   0  0  2  0  0  3  0  0  0  0  0  0
  189.6320  174.6550  147.5910 C   0  0  0  0  0  2  0  0  0  0  0  0
  191.9410  175.2380  147.6120 O   0  0  0  0  0  1  0  0  0  0  0  0
  190.6650  175.7420  147.8570 C   0  0  0  0  0  2  0  0  0  0  0  0
  1  5  1  0  0  0  0
  2 16  1  0  0  0  0
  3 17  1  0  0  0  0
  4 12  1  0  0  0  0
  4  1  2  0  0  0  0
  5 11  1  0  0  0  0
  7 15  1  6  0  0  0
  7 27  1  0  0  0  0
  8  6  2  0  0  0  0
  8 11  1  0  0  0  0
  9 14  1  6  0  0  0
  9 22  1  0  0  0  0
  9  7  1  0  0  0  0
 10  3  1  0  0  0  0
 10 22  1  0  0  0  0
 11 28  1  1  0  0  0
 12  8  1  0  0  0  0
 13  2  1  0  0  0  0
 14 23  1  0  0  0  0
 17 20  2  0  0  0  0
 17 26  1  0  0  0  0
 18 13  2  0  0  0  0
 19  1  1  0  0  0  0
 19  2  2  0  0  0  0
 20  4  1  0  0  0  0
 21 10  2  0  0  0  0
 22 20  1  0  0  0  0
 23 15  1  0  0  0  0
 25 26  2  0  0  0  0
 25 18  1  0  0  0  0
 26 19  1  0  0  0  0
 27 24  1  6  0  0  0
 27 12  1  0  0  0  0
 28 30  1  0  0  0  0
 29 30  1  0  0  0  0
M  END
>  <MODEL>
9

>  <REMARK>
 VINA RESULT:      -7.6      2.094      5.291
  Name = 
  2 active torsions:
  status: ('A' for Active; 'I' for Inactive)
    1  A    between atoms: C_11  and  C_28
    2  A    between atoms: C_28  and  C_30
                            x       y       z     vdW  Elec       q    Type
                         _______ _______ _______ _____ _____    ______ ____

>  <TORSDO>
F 2

$$$$
