=
 OpenBabel11112417213D

 37 42  0  0  1  0  0  0  0  0999 V2000
  190.0480  172.5850  140.1400 C   0  0  1  0  0  0  0  0  0  0  0  0
  187.8070  175.8980  141.1860 C   0  0  0  0  0  0  0  0  0  0  0  0
  189.5210  178.1200  143.2060 C   0  0  0  0  0  2  0  0  0  0  0  0
  188.2480  174.2690  139.4770 C   0  0  0  0  0  0  0  0  0  0  0  0
  188.2420  176.0790  142.4760 C   0  0  0  0  0  0  0  0  0  0  0  0
  188.2840  174.7010  140.7830 C   0  0  0  0  0  0  0  0  0  0  0  0
  188.2670  177.3750  143.1010 N   0  0  0  0  0  0  0  0  0  0  0  0
  187.6200  175.1110  138.5360 C   0  0  0  0  0  3  0  0  0  0  0  0
  188.9740  174.1440  141.8060 C   0  0  0  0  0  0  0  0  0  0  0  0
  191.2790  173.3920  139.7670 C   0  0  0  0  0  1  0  0  0  0  0  0
  186.5650  177.9640  140.7860 N   0  0  0  0  0  2  0  0  0  0  0  0
  187.0770  176.3590  138.9540 C   0  0  0  0  0  3  0  0  0  0  0  0
  189.7090  172.8450  141.6370 C   0  0  0  0  0  2  0  0  0  0  0  0
  190.0860  176.8950  145.3690 C   0  0  1  0  0  3  0  0  0  0  0  0
  190.5900  177.3930  144.0130 C   0  0  0  0  0  2  0  0  0  0  0  0
  187.1730  176.7620  140.3060 C   0  0  0  0  0  0  0  0  0  0  0  0
  188.9530  174.9780  142.8770 N   0  0  0  0  0  0  0  0  0  0  0  0
  188.8900  172.9430  139.1580 C   0  0  0  0  0  2  0  0  0  0  0  0
  187.0520  178.1810  143.2520 C   0  0  1  0  0  3  0  0  0  0  0  0
  190.3510  171.2330  139.9870 O   0  0  0  0  0  1  0  0  0  0  0  0
  189.1740  175.6680  145.2570 C   0  0  0  0  0  2  0  0  0  0  0  0
  189.6160  174.7050  144.1550 C   0  0  0  0  0  2  0  0  0  0  0  0
  186.0000  178.0220  142.1350 C   0  0  0  0  0  2  0  0  0  0  0  0
  185.6910  176.8020  144.8310 C   0  0  0  0  0  3  0  0  0  0  0  0
  186.4450  177.9580  144.6000 C   0  0  0  0  0  0  0  0  0  0  0  0
  186.5830  178.9120  145.6190 C   0  0  0  0  0  3  0  0  0  0  0  0
  186.1250  179.7170  147.9380 C   0  0  0  0  0  1  0  0  0  0  0  0
  185.2290  177.5450  147.0890 C   0  0  0  0  0  3  0  0  0  0  0  0
  185.9780  178.7040  146.8620 C   0  0  0  0  0  0  0  0  0  0  0  0
  185.0860  176.5940  146.0740 C   0  0  0  0  0  3  0  0  0  0  0  0
  191.2350  176.6110  146.2790 C   0  0  0  0  0  0  0  0  0  0  0  0
  192.5550  176.5570  145.7350 N   0  0  0  0  0  2  0  0  0  0  0  0
  191.0450  176.4300  147.5120 O   0  0  0  0  0  0  0  0  0  0  0  0
  194.5130  177.4720  146.6290 O   0  0  0  0  0  1  0  0  0  0  0  0
  193.7330  176.3160  146.5580 C   0  0  2  0  0  3  0  0  0  0  0  0
  193.6730  173.9660  145.6430 C   0  0  0  0  0  1  0  0  0  0  0  0
  194.5490  175.1580  145.9940 C   0  0  0  0  0  2  0  0  0  0  0  0
  1 10  1  6  0  0  0
  1 13  1  0  0  0  0
  2  5  2  0  0  0  0
  3 15  1  0  0  0  0
  4  6  1  0  0  0  0
  5 17  1  0  0  0  0
  5  7  1  0  0  0  0
  6  2  1  0  0  0  0
  6  9  2  0  0  0  0
  7  3  1  0  0  0  0
  7 19  1  0  0  0  0
  8 12  1  0  0  0  0
  8  4  2  0  0  0  0
  9 17  1  0  0  0  0
 11 23  1  0  0  0  0
 12 16  2  0  0  0  0
 13  9  1  0  0  0  0
 14 31  1  1  0  0  0
 15 14  1  0  0  0  0
 16 11  1  0  0  0  0
 16  2  1  0  0  0  0
 17 22  1  0  0  0  0
 18  4  1  0  0  0  0
 18  1  1  0  0  0  0
 19 25  1  1  0  0  0
 20  1  1  0  0  0  0
 21 14  1  0  0  0  0
 22 21  1  0  0  0  0
 23 19  1  0  0  0  0
 24 30  1  0  0  0  0
 25 24  2  0  0  0  0
 25 26  1  0  0  0  0
 26 29  2  0  0  0  0
 29 28  1  0  0  0  0
 29 27  1  0  0  0  0
 30 28  2  0  0  0  0
 31 33  2  0  0  0  0
 32 31  1  0  0  0  0
 32 35  1  0  0  0  0
 35 34  1  6  0  0  0
 36 37  1  0  0  0  0
 37 35  1  0  0  0  0
M  END
>  <MODEL>
1

>  <REMARK>
 VINA RESULT:      -8.9      0.000      0.000
  Name = 
  4 active torsions:
  status: ('A' for Active; 'I' for Inactive)
    1  A    between atoms: C_4  and  N_12
    2  A    between atoms: C_4  and  C_37
    3  A    between atoms: C_8  and  C_18
    4  A    between atoms: C_23  and  C_30
                            x       y       z     vdW  Elec       q    Type
                         _______ _______ _______ _____ _____    ______ ____

>  <TORSDO>
F 4

$$$$
=
 OpenBabel11112417213D

 37 42  0  0  1  0  0  0  0  0999 V2000
  195.1590  175.6110  142.1710 C   0  0  1  0  0  0  0  0  0  0  0  0
  192.3570  176.1760  145.1580 C   0  0  0  0  0  0  0  0  0  0  0  0
  189.8150  173.8320  145.1040 C   0  0  0  0  0  2  0  0  0  0  0  0
  194.6740  176.3720  144.5590 C   0  0  0  0  0  0  0  0  0  0  0  0
  191.2150  175.8280  144.4790 C   0  0  0  0  0  0  0  0  0  0  0  0
  193.3410  176.2640  144.2380 C   0  0  0  0  0  0  0  0  0  0  0  0
  190.0670  175.2710  145.1450 N   0  0  0  0  0  0  0  0  0  0  0  0
  195.0040  176.4560  145.9280 C   0  0  0  0  0  3  0  0  0  0  0  0
  192.8160  176.0020  143.0180 C   0  0  0  0  0  0  0  0  0  0  0  0
  195.2910  174.1180  142.4190 C   0  0  0  0  0  1  0  0  0  0  0  0
  191.5480  176.2930  147.4610 N   0  0  0  0  0  2  0  0  0  0  0  0
  193.9730  176.4050  146.9090 C   0  0  0  0  0  3  0  0  0  0  0  0
  193.6830  175.9300  141.7940 C   0  0  0  0  0  2  0  0  0  0  0  0
  188.5930  174.0910  142.8820 C   0  0  1  0  0  3  0  0  0  0  0  0
  189.6160  173.2920  143.6930 C   0  0  0  0  0  2  0  0  0  0  0  0
  192.6210  176.2600  146.5170 C   0  0  0  0  0  0  0  0  0  0  0  0
  191.4900  175.7390  143.1390 N   0  0  0  0  0  0  0  0  0  0  0  0
  195.6710  176.3810  143.4280 C   0  0  0  0  0  2  0  0  0  0  0  0
  189.3740  175.9920  146.2170 C   0  0  1  0  0  3  0  0  0  0  0  0
  195.9720  175.9460  141.0900 O   0  0  0  0  0  1  0  0  0  0  0  0
  189.1290  175.4490  142.4110 C   0  0  0  0  0  2  0  0  0  0  0  0
  190.6060  175.3960  142.0210 C   0  0  0  0  0  2  0  0  0  0  0  0
  190.2620  176.8920  147.1020 C   0  0  0  0  0  2  0  0  0  0  0  0
  188.4030  177.5780  144.5470 C   0  0  0  0  0  3  0  0  0  0  0  0
  188.2140  176.7560  145.6630 C   0  0  0  0  0  0  0  0  0  0  0  0
  186.9530  176.6950  146.2760 C   0  0  0  0  0  3  0  0  0  0  0  0
  184.5560  177.3780  146.4180 C   0  0  0  0  0  1  0  0  0  0  0  0
  186.0820  178.2610  144.6480 C   0  0  0  0  0  3  0  0  0  0  0  0
  185.8890  177.4440  145.7670 C   0  0  0  0  0  0  0  0  0  0  0  0
  187.3380  178.3270  144.0380 C   0  0  0  0  0  3  0  0  0  0  0  0
  188.1080  173.2890  141.7200 C   0  0  0  0  0  0  0  0  0  0  0  0
  188.6600  173.5370  140.4260 N   0  0  0  0  0  2  0  0  0  0  0  0
  187.2300  172.3990  141.8800 O   0  0  0  0  0  0  0  0  0  0  0  0
  189.1100  171.6810  139.0770 O   0  0  0  0  0  1  0  0  0  0  0  0
  188.2650  172.7790  139.2470 C   0  0  2  0  0  3  0  0  0  0  0  0
  189.7040  173.8520  137.4750 C   0  0  0  0  0  1  0  0  0  0  0  0
  188.2920  173.6680  138.0080 C   0  0  0  0  0  2  0  0  0  0  0  0
  1 10  1  1  0  0  0
  1 18  1  0  0  0  0
  2 16  1  0  0  0  0
  3  7  1  0  0  0  0
  4  8  2  0  0  0  0
  5  7  1  0  0  0  0
  5  2  2  0  0  0  0
  6  4  1  0  0  0  0
  6  2  1  0  0  0  0
  7 19  1  0  0  0  0
  8 12  1  0  0  0  0
  9 17  1  0  0  0  0
  9  6  2  0  0  0  0
 13  1  1  0  0  0  0
 13  9  1  0  0  0  0
 14 31  1  6  0  0  0
 14 15  1  0  0  0  0
 15  3  1  0  0  0  0
 16 12  2  0  0  0  0
 16 11  1  0  0  0  0
 17  5  1  0  0  0  0
 18  4  1  0  0  0  0
 19 25  1  6  0  0  0
 19 23  1  0  0  0  0
 20  1  1  0  0  0  0
 21 14  1  0  0  0  0
 22 21  1  0  0  0  0
 22 17  1  0  0  0  0
 23 11  1  0  0  0  0
 24 25  1  0  0  0  0
 25 26  2  0  0  0  0
 28 29  2  0  0  0  0
 29 26  1  0  0  0  0
 29 27  1  0  0  0  0
 30 24  2  0  0  0  0
 30 28  1  0  0  0  0
 31 33  2  0  0  0  0
 32 31  1  0  0  0  0
 35 34  1  6  0  0  0
 35 32  1  0  0  0  0
 36 37  1  0  0  0  0
 37 35  1  0  0  0  0
M  END
>  <MODEL>
2

>  <REMARK>
 VINA RESULT:      -8.4      2.554      6.423
  Name = 
  4 active torsions:
  status: ('A' for Active; 'I' for Inactive)
    1  A    between atoms: C_4  and  N_12
    2  A    between atoms: C_4  and  C_37
    3  A    between atoms: C_8  and  C_18
    4  A    between atoms: C_23  and  C_30
                            x       y       z     vdW  Elec       q    Type
                         _______ _______ _______ _____ _____    ______ ____

>  <TORSDO>
F 4

$$$$
=
 OpenBabel11112417213D

 37 42  0  0  1  0  0  0  0  0999 V2000
  189.1420  172.8350  138.9930 C   0  0  1  0  0  0  0  0  0  0  0  0
  191.5590  172.3150  142.3060 C   0  0  0  0  0  0  0  0  0  0  0  0
  190.1250  173.4640  145.2350 C   0  0  0  0  0  2  0  0  0  0  0  0
  190.9000  171.4150  140.1800 C   0  0  0  0  0  0  0  0  0  0  0  0
  191.2690  173.4680  142.9930 C   0  0  0  0  0  0  0  0  0  0  0  0
  191.0140  172.4490  141.0780 C   0  0  0  0  0  0  0  0  0  0  0  0
  191.3420  173.5430  144.4280 N   0  0  0  0  0  0  0  0  0  0  0  0
  191.4440  170.1690  140.5570 C   0  0  0  0  0  3  0  0  0  0  0  0
  190.4240  173.6650  141.0000 C   0  0  0  0  0  0  0  0  0  0  0  0
  187.8970  172.2900  139.6730 C   0  0  0  0  0  1  0  0  0  0  0  0
  192.8010  171.0380  143.9810 N   0  0  0  0  0  2  0  0  0  0  0  0
  192.0580  170.0220  141.8330 C   0  0  0  0  0  3  0  0  0  0  0  0
  189.6450  174.0770  139.7830 C   0  0  0  0  0  2  0  0  0  0  0  0
  189.7650  175.9740  144.9670 C   0  0  1  0  0  3  0  0  0  0  0  0
  189.1310  174.5820  144.9400 C   0  0  0  0  0  2  0  0  0  0  0  0
  192.1160  171.1170  142.7270 C   0  0  0  0  0  0  0  0  0  0  0  0
  190.5790  174.3250  142.1760 N   0  0  0  0  0  0  0  0  0  0  0  0
  190.1960  171.6910  138.8760 C   0  0  0  0  0  2  0  0  0  0  0  0
  192.5860  173.2630  145.1530 C   0  0  1  0  0  3  0  0  0  0  0  0
  188.7910  173.2430  137.7080 O   0  0  0  0  0  1  0  0  0  0  0  0
  190.6300  176.2630  143.7340 C   0  0  0  0  0  2  0  0  0  0  0  0
  190.0500  175.6630  142.4540 C   0  0  0  0  0  2  0  0  0  0  0  0
  193.5080  172.2040  144.5130 C   0  0  0  0  0  2  0  0  0  0  0  0
  192.9880  175.3000  146.5430 C   0  0  0  0  0  3  0  0  0  0  0  0
  193.3270  174.5320  145.4230 C   0  0  0  0  0  0  0  0  0  0  0  0
  194.3230  174.9850  144.5450 C   0  0  0  0  0  3  0  0  0  0  0  0
  196.0340  176.6710  143.8620 C   0  0  0  0  0  1  0  0  0  0  0  0
  194.6420  176.9550  145.9170 C   0  0  0  0  0  3  0  0  0  0  0  0
  194.9810  176.1930  144.7940 C   0  0  0  0  0  0  0  0  0  0  0  0
  193.6460  176.5080  146.7910 C   0  0  0  0  0  3  0  0  0  0  0  0
  188.7130  177.0220  145.1250 C   0  0  0  0  0  0  0  0  0  0  0  0
  187.7250  176.8660  146.1440 N   0  0  0  0  0  2  0  0  0  0  0  0
  188.7020  178.0350  144.3740 O   0  0  0  0  0  0  0  0  0  0  0  0
  186.6950  178.2480  147.7250 O   0  0  0  0  0  1  0  0  0  0  0  0
  186.6830  177.8560  146.3850 C   0  0  2  0  0  3  0  0  0  0  0  0
  184.2130  178.3260  146.1830 C   0  0  0  0  0  1  0  0  0  0  0  0
  185.3170  177.2940  146.0080 C   0  0  0  0  0  2  0  0  0  0  0  0
  1 10  1  1  0  0  0
  1 13  1  0  0  0  0
  2 16  1  0  0  0  0
  2  5  2  0  0  0  0
  4  8  2  0  0  0  0
  4  6  1  0  0  0  0
  5  7  1  0  0  0  0
  6  2  1  0  0  0  0
  7 19  1  0  0  0  0
  7  3  1  0  0  0  0
  8 12  1  0  0  0  0
  9  6  2  0  0  0  0
  9 17  1  0  0  0  0
 11 23  1  0  0  0  0
 12 16  2  0  0  0  0
 13  9  1  0  0  0  0
 14 31  1  6  0  0  0
 15 14  1  0  0  0  0
 15  3  1  0  0  0  0
 16 11  1  0  0  0  0
 17 22  1  0  0  0  0
 17  5  1  0  0  0  0
 18  1  1  0  0  0  0
 18  4  1  0  0  0  0
 19 25  1  6  0  0  0
 20  1  1  0  0  0  0
 21 14  1  0  0  0  0
 22 21  1  0  0  0  0
 23 19  1  0  0  0  0
 24 30  1  0  0  0  0
 25 24  2  0  0  0  0
 26 29  2  0  0  0  0
 26 25  1  0  0  0  0
 27 29  1  0  0  0  0
 28 30  2  0  0  0  0
 29 28  1  0  0  0  0
 31 32  1  0  0  0  0
 32 35  1  0  0  0  0
 33 31  2  0  0  0  0
 35 34  1  1  0  0  0
 37 36  1  0  0  0  0
 37 35  1  0  0  0  0
M  END
>  <MODEL>
3

>  <REMARK>
 VINA RESULT:      -7.6      2.538      6.482
  Name = 
  4 active torsions:
  status: ('A' for Active; 'I' for Inactive)
    1  A    between atoms: C_4  and  N_12
    2  A    between atoms: C_4  and  C_37
    3  A    between atoms: C_8  and  C_18
    4  A    between atoms: C_23  and  C_30
                            x       y       z     vdW  Elec       q    Type
                         _______ _______ _______ _____ _____    ______ ____

>  <TORSDO>
F 4

$$$$
=
 OpenBabel11112417213D

 37 42  0  0  1  0  0  0  0  0999 V2000
  189.3450  176.1730  146.2950 C   0  0  1  0  0  0  0  0  0  0  0  0
  193.1770  174.7120  145.7750 C   0  0  0  0  0  0  0  0  0  0  0  0
  193.7620  173.5250  142.5800 C   0  0  0  0  0  2  0  0  0  0  0  0
  191.8190  176.3440  146.8970 C   0  0  0  0  0  0  0  0  0  0  0  0
  192.9140  173.6480  144.9460 C   0  0  0  0  0  0  0  0  0  0  0  0
  191.9840  175.1560  146.2230 C   0  0  0  0  0  0  0  0  0  0  0  0
  193.8750  173.1640  143.9920 N   0  0  0  0  0  0  0  0  0  0  0  0
  192.9820  177.0920  147.1780 C   0  0  0  0  0  3  0  0  0  0  0  0
  191.0090  174.3720  145.7060 C   0  0  0  0  0  0  0  0  0  0  0  0
  189.3560  176.9830  145.0100 C   0  0  0  0  0  1  0  0  0  0  0  0
  195.6140  174.8430  145.6540 N   0  0  0  0  0  2  0  0  0  0  0  0
  194.2520  176.6160  146.7460 C   0  0  0  0  0  3  0  0  0  0  0  0
  189.5570  174.6710  145.9460 C   0  0  0  0  0  2  0  0  0  0  0  0
  192.1660  171.5750  142.1930 C   0  0  1  0  0  3  0  0  0  0  0  0
  192.4610  173.0540  141.9390 C   0  0  0  0  0  2  0  0  0  0  0  0
  194.3530  175.4010  146.0290 C   0  0  0  0  0  0  0  0  0  0  0  0
  191.5630  173.4170  144.9160 N   0  0  0  0  0  0  0  0  0  0  0  0
  190.4170  176.7530  147.2690 C   0  0  0  0  0  2  0  0  0  0  0  0
  195.1990  172.6890  144.4060 C   0  0  1  0  0  3  0  0  0  0  0  0
  188.0910  176.3140  146.8870 O   0  0  0  0  0  1  0  0  0  0  0  0
  191.6950  171.2940  143.6250 C   0  0  0  0  0  2  0  0  0  0  0  0
  190.8010  172.4040  144.1790 C   0  0  0  0  0  2  0  0  0  0  0  0
  195.8080  173.3920  145.6370 C   0  0  0  0  0  2  0  0  0  0  0  0
  195.4090  170.3790  143.4760 C   0  0  0  0  0  3  0  0  0  0  0  0
  195.1870  171.2040  144.5830 C   0  0  0  0  0  0  0  0  0  0  0  0
  194.9090  170.6310  145.8330 C   0  0  0  0  0  3  0  0  0  0  0  0
  194.5710  168.6370  147.2970 C   0  0  0  0  0  1  0  0  0  0  0  0
  195.0930  168.4200  144.8640 C   0  0  0  0  0  3  0  0  0  0  0  0
  194.8650  169.2410  145.9730 C   0  0  0  0  0  0  0  0  0  0  0  0
  195.3650  168.9890  143.6160 C   0  0  0  0  0  3  0  0  0  0  0  0
  191.1680  171.0660  141.2060 C   0  0  0  0  0  0  0  0  0  0  0  0
  190.6320  171.9650  140.2340 N   0  0  0  0  0  2  0  0  0  0  0  0
  190.8110  169.8570  141.2230 O   0  0  0  0  0  0  0  0  0  0  0  0
  190.3380  171.3130  138.0070 O   0  0  0  0  0  1  0  0  0  0  0  0
  189.6780  171.5420  139.2170 C   0  0  2  0  0  3  0  0  0  0  0  0
  188.7060  173.7100  140.0640 C   0  0  0  0  0  1  0  0  0  0  0  0
  188.5890  172.5950  139.0370 C   0  0  0  0  0  2  0  0  0  0  0  0
  1 10  1  6  0  0  0
  1 20  1  0  0  0  0
  1 18  1  0  0  0  0
  2 16  1  0  0  0  0
  2  6  1  0  0  0  0
  3  7  1  0  0  0  0
  4  8  2  0  0  0  0
  4 18  1  0  0  0  0
  5  2  2  0  0  0  0
  6  4  1  0  0  0  0
  7 19  1  0  0  0  0
  7  5  1  0  0  0  0
  9 13  1  0  0  0  0
  9  6  2  0  0  0  0
 11 16  1  0  0  0  0
 12  8  1  0  0  0  0
 13  1  1  0  0  0  0
 14 31  1  6  0  0  0
 14 21  1  0  0  0  0
 15 14  1  0  0  0  0
 15  3  1  0  0  0  0
 16 12  2  0  0  0  0
 17  5  1  0  0  0  0
 17  9  1  0  0  0  0
 19 25  1  1  0  0  0
 19 23  1  0  0  0  0
 21 22  1  0  0  0  0
 22 17  1  0  0  0  0
 23 11  1  0  0  0  0
 24 30  2  0  0  0  0
 24 25  1  0  0  0  0
 25 26  2  0  0  0  0
 26 29  1  0  0  0  0
 28 29  2  0  0  0  0
 29 27  1  0  0  0  0
 30 28  1  0  0  0  0
 31 33  2  0  0  0  0
 32 31  1  0  0  0  0
 35 34  1  6  0  0  0
 35 32  1  0  0  0  0
 37 35  1  0  0  0  0
 37 36  1  0  0  0  0
M  END
>  <MODEL>
4

>  <REMARK>
 VINA RESULT:      -7.5      3.231      9.056
  Name = 
  4 active torsions:
  status: ('A' for Active; 'I' for Inactive)
    1  A    between atoms: C_4  and  N_12
    2  A    between atoms: C_4  and  C_37
    3  A    between atoms: C_8  and  C_18
    4  A    between atoms: C_23  and  C_30
                            x       y       z     vdW  Elec       q    Type
                         _______ _______ _______ _____ _____    ______ ____

>  <TORSDO>
F 4

$$$$
=
 OpenBabel11112417213D

 37 42  0  0  1  0  0  0  0  0999 V2000
  185.1350  178.3810  146.7330 C   0  0  1  0  0  0  0  0  0  0  0  0
  188.7520  176.8060  145.4990 C   0  0  0  0  0  0  0  0  0  0  0  0
  189.5380  177.5960  142.2250 C   0  0  0  0  0  2  0  0  0  0  0  0
  187.5180  177.7090  147.3500 C   0  0  0  0  0  0  0  0  0  0  0  0
  188.4400  176.4870  144.2000 C   0  0  0  0  0  0  0  0  0  0  0  0
  187.5900  177.1220  146.1080 C   0  0  0  0  0  0  0  0  0  0  0  0
  189.4290  176.4730  143.1550 N   0  0  0  0  0  0  0  0  0  0  0  0
  188.7340  177.9260  148.0320 C   0  0  0  0  0  3  0  0  0  0  0  0
  186.5820  176.9790  145.2160 C   0  0  0  0  0  0  0  0  0  0  0  0
  185.4150  179.7650  146.1710 C   0  0  0  0  0  1  0  0  0  0  0  0
  191.1800  176.5270  145.5080 N   0  0  0  0  0  2  0  0  0  0  0  0
  189.9660  177.5600  147.4190 C   0  0  0  0  0  3  0  0  0  0  0  0
  185.1690  177.3480  145.5690 C   0  0  0  0  0  2  0  0  0  0  0  0
  187.7370  176.5650  140.7440 C   0  0  1  0  0  3  0  0  0  0  0  0
  188.2690  177.8340  141.4140 C   0  0  0  0  0  2  0  0  0  0  0  0
  189.9760  176.9890  146.1240 C   0  0  0  0  0  0  0  0  0  0  0  0
  187.0840  176.5720  144.0220 N   0  0  0  0  0  0  0  0  0  0  0  0
  186.1550  178.0810  147.8740 C   0  0  0  0  0  2  0  0  0  0  0  0
  190.6130  175.6100  143.2260 C   0  0  1  0  0  3  0  0  0  0  0  0
  183.8530  178.3840  147.2790 O   0  0  0  0  0  1  0  0  0  0  0  0
  187.0630  175.6040  141.7310 C   0  0  0  0  0  2  0  0  0  0  0  0
  186.2780  176.3330  142.8210 C   0  0  0  0  0  2  0  0  0  0  0  0
  191.1640  175.3460  144.6420 C   0  0  0  0  0  2  0  0  0  0  0  0
  189.7770  173.2560  143.1710 C   0  0  0  0  0  3  0  0  0  0  0  0
  190.3670  174.3300  142.4950 C   0  0  0  0  0  0  0  0  0  0  0  0
  190.7620  174.1770  141.1580 C   0  0  0  0  0  3  0  0  0  0  0  0
  190.9770  172.8010  139.0850 C   0  0  0  0  0  1  0  0  0  0  0  0
  189.9630  171.8910  141.1790 C   0  0  0  0  0  3  0  0  0  0  0  0
  190.5570  172.9600  140.5000 C   0  0  0  0  0  0  0  0  0  0  0  0
  189.5720  172.0400  142.5130 C   0  0  0  0  0  3  0  0  0  0  0  0
  186.8020  176.9150  139.6340 C   0  0  0  0  0  0  0  0  0  0  0  0
  186.9960  176.3220  138.3500 N   0  0  0  0  0  2  0  0  0  0  0  0
  185.8480  177.7170  139.8310 O   0  0  0  0  0  0  0  0  0  0  0  0
  184.9470  175.8230  137.3370 O   0  0  0  0  0  1  0  0  0  0  0  0
  186.1110  176.5860  137.2220 C   0  0  2  0  0  3  0  0  0  0  0  0
  185.8580  176.2980  134.7290 C   0  0  0  0  0  1  0  0  0  0  0  0
  186.8200  176.2810  135.9070 C   0  0  0  0  0  2  0  0  0  0  0  0
  1 10  1  6  0  0  0
  1 20  1  0  0  0  0
  1 18  1  0  0  0  0
  2  6  1  0  0  0  0
  2 16  1  0  0  0  0
  3  7  1  0  0  0  0
  4 18  1  0  0  0  0
  4  8  2  0  0  0  0
  5  2  2  0  0  0  0
  6  4  1  0  0  0  0
  7 19  1  0  0  0  0
  7  5  1  0  0  0  0
  9 13  1  0  0  0  0
  9  6  2  0  0  0  0
 11 16  1  0  0  0  0
 12  8  1  0  0  0  0
 13  1  1  0  0  0  0
 14 31  1  6  0  0  0
 14 15  1  0  0  0  0
 14 21  1  0  0  0  0
 15  3  1  0  0  0  0
 16 12  2  0  0  0  0
 17  5  1  0  0  0  0
 17  9  1  0  0  0  0
 19 25  1  1  0  0  0
 19 23  1  0  0  0  0
 21 22  1  0  0  0  0
 22 17  1  0  0  0  0
 23 11  1  0  0  0  0
 25 24  2  0  0  0  0
 26 25  1  0  0  0  0
 27 29  1  0  0  0  0
 28 30  2  0  0  0  0
 29 26  2  0  0  0  0
 29 28  1  0  0  0  0
 30 24  1  0  0  0  0
 31 33  2  0  0  0  0
 32 31  1  0  0  0  0
 35 34  1  1  0  0  0
 35 32  1  0  0  0  0
 36 37  1  0  0  0  0
 37 35  1  0  0  0  0
M  END
>  <MODEL>
5

>  <REMARK>
 VINA RESULT:      -7.2      3.010      8.255
  Name = 
  4 active torsions:
  status: ('A' for Active; 'I' for Inactive)
    1  A    between atoms: C_4  and  N_12
    2  A    between atoms: C_4  and  C_37
    3  A    between atoms: C_8  and  C_18
    4  A    between atoms: C_23  and  C_30
                            x       y       z     vdW  Elec       q    Type
                         _______ _______ _______ _____ _____    ______ ____

>  <TORSDO>
F 4

$$$$
=
 OpenBabel11112417213D

 37 42  0  0  1  0  0  0  0  0999 V2000
  196.2950  173.7920  142.4160 C   0  0  1  0  0  0  0  0  0  0  0  0
  193.0240  175.3090  144.4370 C   0  0  0  0  0  0  0  0  0  0  0  0
  190.1670  173.4020  144.0340 C   0  0  0  0  0  2  0  0  0  0  0  0
  195.4100  175.0420  144.4570 C   0  0  0  0  0  0  0  0  0  0  0  0
  192.0310  175.0170  143.5340 C   0  0  0  0  0  0  0  0  0  0  0  0
  194.1970  175.0780  143.8100 C   0  0  0  0  0  0  0  0  0  0  0  0
  190.6740  174.7700  143.9400 N   0  0  0  0  0  0  0  0  0  0  0  0
  195.4130  175.3260  145.8390 C   0  0  0  0  0  3  0  0  0  0  0  0
  193.9380  174.6780  142.5430 C   0  0  0  0  0  0  0  0  0  0  0  0
  196.0750  172.3670  142.8960 C   0  0  0  0  0  1  0  0  0  0  0  0
  191.7270  175.9680  146.4020 N   0  0  0  0  0  2  0  0  0  0  0  0
  194.1880  175.6110  146.5070 C   0  0  0  0  0  3  0  0  0  0  0  0
  195.0410  174.2540  141.6180 C   0  0  0  0  0  2  0  0  0  0  0  0
  189.5830  173.4290  141.5530 C   0  0  1  0  0  3  0  0  0  0  0  0
  190.2100  172.6490  142.7100 C   0  0  0  0  0  2  0  0  0  0  0  0
  192.9670  175.6010  145.7920 C   0  0  0  0  0  0  0  0  0  0  0  0
  192.5950  174.6430  142.3420 N   0  0  0  0  0  0  0  0  0  0  0  0
  196.6300  174.6940  143.6440 C   0  0  0  0  0  2  0  0  0  0  0  0
  189.8960  175.7720  144.6760 C   0  0  1  0  0  3  0  0  0  0  0  0
  197.3910  173.7970  141.5550 O   0  0  0  0  0  1  0  0  0  0  0  0
  190.4660  174.5810  141.0580 C   0  0  0  0  0  2  0  0  0  0  0  0
  191.9550  174.2370  141.0880 C   0  0  0  0  0  2  0  0  0  0  0  0
  190.7030  176.6750  145.6320 C   0  0  0  0  0  2  0  0  0  0  0  0
  189.7010  177.4940  142.8760 C   0  0  0  0  0  3  0  0  0  0  0  0
  189.0700  176.5860  143.7330 C   0  0  0  0  0  0  0  0  0  0  0  0
  187.6710  176.4840  143.7280 C   0  0  0  0  0  3  0  0  0  0  0  0
  185.4310  177.1690  142.8630 C   0  0  0  0  0  1  0  0  0  0  0  0
  187.5480  178.1820  142.0070 C   0  0  0  0  0  3  0  0  0  0  0  0
  186.9120  177.2790  142.8650 C   0  0  0  0  0  0  0  0  0  0  0  0
  188.9420  178.2900  142.0130 C   0  0  0  0  0  3  0  0  0  0  0  0
  189.2450  172.5090  140.4270 C   0  0  0  0  0  0  0  0  0  0  0  0
  190.2120  171.5490  140.0000 N   0  0  0  0  0  2  0  0  0  0  0  0
  188.1170  172.5720  139.8670 O   0  0  0  0  0  0  0  0  0  0  0  0
  190.4230  169.3300  139.2910 O   0  0  0  0  0  1  0  0  0  0  0  0
  189.9510  170.5940  138.9310 C   0  0  2  0  0  3  0  0  0  0  0  0
  189.6970  170.8350  136.4330 C   0  0  0  0  0  1  0  0  0  0  0  0
  190.6040  171.0550  137.6330 C   0  0  0  0  0  2  0  0  0  0  0  0
  1 10  1  1  0  0  0
  1 18  1  0  0  0  0
  2 16  1  0  0  0  0
  4  8  2  0  0  0  0
  5  7  1  0  0  0  0
  5  2  2  0  0  0  0
  6  2  1  0  0  0  0
  6  4  1  0  0  0  0
  7  3  1  0  0  0  0
  7 19  1  0  0  0  0
  8 12  1  0  0  0  0
  9  6  2  0  0  0  0
 13  1  1  0  0  0  0
 13  9  1  0  0  0  0
 14 31  1  6  0  0  0
 14 15  1  0  0  0  0
 15  3  1  0  0  0  0
 16 11  1  0  0  0  0
 16 12  2  0  0  0  0
 17  9  1  0  0  0  0
 17  5  1  0  0  0  0
 18  4  1  0  0  0  0
 19 25  1  6  0  0  0
 19 23  1  0  0  0  0
 20  1  1  0  0  0  0
 21 22  1  0  0  0  0
 21 14  1  0  0  0  0
 22 17  1  0  0  0  0
 23 11  1  0  0  0  0
 24 25  1  0  0  0  0
 26 25  2  0  0  0  0
 27 29  1  0  0  0  0
 28 30  1  0  0  0  0
 28 29  2  0  0  0  0
 29 26  1  0  0  0  0
 30 24  2  0  0  0  0
 32 31  1  0  0  0  0
 33 31  2  0  0  0  0
 35 34  1  1  0  0  0
 35 32  1  0  0  0  0
 36 37  1  0  0  0  0
 37 35  1  0  0  0  0
M  END
>  <MODEL>
6

>  <REMARK>
 VINA RESULT:      -6.9      3.085      6.984
  Name = 
  4 active torsions:
  status: ('A' for Active; 'I' for Inactive)
    1  A    between atoms: C_4  and  N_12
    2  A    between atoms: C_4  and  C_37
    3  A    between atoms: C_8  and  C_18
    4  A    between atoms: C_23  and  C_30
                            x       y       z     vdW  Elec       q    Type
                         _______ _______ _______ _____ _____    ______ ____

>  <TORSDO>
F 4

$$$$
=
 OpenBabel11112417213D

 37 42  0  0  1  0  0  0  0  0999 V2000
  187.6450  176.1010  142.9240 C   0  0  1  0  0  0  0  0  0  0  0  0
  191.1230  175.7330  145.1270 C   0  0  0  0  0  0  0  0  0  0  0  0
  193.9880  176.0910  143.2240 C   0  0  0  0  0  2  0  0  0  0  0  0
  188.8390  176.4750  145.1490 C   0  0  0  0  0  0  0  0  0  0  0  0
  191.9110  175.0730  144.2170 C   0  0  0  0  0  0  0  0  0  0  0  0
  189.8670  175.7210  144.6320 C   0  0  0  0  0  0  0  0  0  0  0  0
  193.3430  175.2120  144.1980 N   0  0  0  0  0  0  0  0  0  0  0  0
  189.1190  177.2480  146.2960 C   0  0  0  0  0  3  0  0  0  0  0  0
  189.8730  175.0490  143.4570 C   0  0  0  0  0  0  0  0  0  0  0  0
  188.1030  177.3530  142.1950 C   0  0  0  0  0  1  0  0  0  0  0  0
  192.7570  176.3600  146.8340 N   0  0  0  0  0  2  0  0  0  0  0  0
  190.4290  177.2390  146.8540 C   0  0  0  0  0  3  0  0  0  0  0  0
  188.6360  174.9440  142.6120 C   0  0  0  0  0  2  0  0  0  0  0  0
  193.9950  174.2070  141.5060 C   0  0  1  0  0  3  0  0  0  0  0  0
  193.7220  175.6880  141.7780 C   0  0  0  0  0  2  0  0  0  0  0  0
  191.4530  176.4670  146.2570 C   0  0  0  0  0  0  0  0  0  0  0  0
  191.1330  174.6240  143.1810 N   0  0  0  0  0  0  0  0  0  0  0  0
  187.5080  176.4230  144.4450 C   0  0  0  0  0  2  0  0  0  0  0  0
  194.1650  174.8690  145.3630 C   0  0  1  0  0  3  0  0  0  0  0  0
  186.3880  175.7480  142.4350 O   0  0  0  0  0  1  0  0  0  0  0  0
  192.9160  173.2820  142.0830 C   0  0  0  0  0  2  0  0  0  0  0  0
  191.5120  173.8780  141.9780 C   0  0  0  0  0  2  0  0  0  0  0  0
  193.5090  175.1070  146.7390 C   0  0  0  0  0  2  0  0  0  0  0  0
  193.7950  172.3990  145.4390 C   0  0  0  0  0  3  0  0  0  0  0  0
  194.6750  173.4690  145.2440 C   0  0  0  0  0  0  0  0  0  0  0  0
  196.0310  173.2160  144.9860 C   0  0  0  0  0  3  0  0  0  0  0  0
  197.9340  171.6360  144.6420 C   0  0  0  0  0  1  0  0  0  0  0  0
  195.6130  170.8340  145.1050 C   0  0  0  0  0  3  0  0  0  0  0  0
  196.4980  171.9000  144.9140 C   0  0  0  0  0  0  0  0  0  0  0  0
  194.2630  171.0830  145.3670 C   0  0  0  0  0  3  0  0  0  0  0  0
  194.1600  173.9680  140.0420 C   0  0  0  0  0  0  0  0  0  0  0  0
  194.5980  175.0420  139.2080 N   0  0  0  0  0  2  0  0  0  0  0  0
  193.9250  172.8320  139.5490 O   0  0  0  0  0  0  0  0  0  0  0  0
  196.1080  175.2870  137.4390 O   0  0  0  0  0  1  0  0  0  0  0  0
  194.8140  174.8860  137.7760 C   0  0  2  0  0  3  0  0  0  0  0  0
  192.4940  174.9180  136.7860 C   0  0  0  0  0  1  0  0  0  0  0  0
  193.7860  175.6930  136.9900 C   0  0  0  0  0  2  0  0  0  0  0  0
  1 10  1  6  0  0  0
  1 18  1  0  0  0  0
  2 16  1  0  0  0  0
  3  7  1  0  0  0  0
  4  8  2  0  0  0  0
  5  2  2  0  0  0  0
  6  2  1  0  0  0  0
  6  4  1  0  0  0  0
  7  5  1  0  0  0  0
  7 19  1  0  0  0  0
  8 12  1  0  0  0  0
  9  6  2  0  0  0  0
 13  1  1  0  0  0  0
 13  9  1  0  0  0  0
 14 31  1  6  0  0  0
 14 15  1  0  0  0  0
 14 21  1  0  0  0  0
 15  3  1  0  0  0  0
 16 11  1  0  0  0  0
 16 12  2  0  0  0  0
 17  9  1  0  0  0  0
 17  5  1  0  0  0  0
 18  4  1  0  0  0  0
 19 25  1  6  0  0  0
 19 23  1  0  0  0  0
 20  1  1  0  0  0  0
 22 21  1  0  0  0  0
 22 17  1  0  0  0  0
 23 11  1  0  0  0  0
 25 24  2  0  0  0  0
 26 25  1  0  0  0  0
 27 29  1  0  0  0  0
 28 30  2  0  0  0  0
 29 26  2  0  0  0  0
 29 28  1  0  0  0  0
 30 24  1  0  0  0  0
 32 31  1  0  0  0  0
 33 31  2  0  0  0  0
 35 34  1  1  0  0  0
 35 32  1  0  0  0  0
 36 37  1  0  0  0  0
 37 35  1  0  0  0  0
M  END
>  <MODEL>
7

>  <REMARK>
 VINA RESULT:      -6.9      3.167      7.882
  Name = 
  4 active torsions:
  status: ('A' for Active; 'I' for Inactive)
    1  A    between atoms: C_4  and  N_12
    2  A    between atoms: C_4  and  C_37
    3  A    between atoms: C_8  and  C_18
    4  A    between atoms: C_23  and  C_30
                            x       y       z     vdW  Elec       q    Type
                         _______ _______ _______ _____ _____    ______ ____

>  <TORSDO>
F 4

$$$$
=
 OpenBabel11112417213D

 37 42  0  0  1  0  0  0  0  0999 V2000
  190.8060  170.8540  140.5130 C   0  0  1  0  0  0  0  0  0  0  0  0
  188.9220  174.4380  141.3480 C   0  0  0  0  0  0  0  0  0  0  0  0
  191.0450  176.8120  142.6960 C   0  0  0  0  0  2  0  0  0  0  0  0
  189.0010  172.5430  139.8760 C   0  0  0  0  0  0  0  0  0  0  0  0
  189.5710  174.7810  142.5090 C   0  0  0  0  0  0  0  0  0  0  0  0
  189.2700  173.1630  141.0730 C   0  0  0  0  0  0  0  0  0  0  0  0
  189.7580  176.1510  142.9070 N   0  0  0  0  0  0  0  0  0  0  0  0
  188.2660  173.2770  138.9200 C   0  0  0  0  0  3  0  0  0  0  0  0
  190.0930  172.7200  142.0530 C   0  0  0  0  0  0  0  0  0  0  0  0
  191.9950  171.5070  139.8280 C   0  0  0  0  0  1  0  0  0  0  0  0
  187.7270  176.5040  140.8200 N   0  0  0  0  0  2  0  0  0  0  0  0
  187.8570  174.6090  139.2120 C   0  0  0  0  0  3  0  0  0  0  0  0
  190.7290  171.3610  141.9820 C   0  0  0  0  0  2  0  0  0  0  0  0
  191.9010  175.8900  144.9130 C   0  0  1  0  0  3  0  0  0  0  0  0
  192.1970  176.1410  143.4340 C   0  0  0  0  0  2  0  0  0  0  0  0
  188.1920  175.2040  140.4510 C   0  0  0  0  0  0  0  0  0  0  0  0
  190.2870  173.7050  142.9660 N   0  0  0  0  0  0  0  0  0  0  0  0
  189.5200  171.1420  139.6770 C   0  0  0  0  0  2  0  0  0  0  0  0
  188.6220  177.0550  143.1140 C   0  0  1  0  0  3  0  0  0  0  0  0
  191.0170  169.4770  140.5330 O   0  0  0  0  0  1  0  0  0  0  0  0
  190.9270  174.7280  145.1420 C   0  0  0  0  0  2  0  0  0  0  0  0
  191.1370  173.5810  144.1540 C   0  0  0  0  0  2  0  0  0  0  0  0
  187.3950  176.8050  142.2130 C   0  0  0  0  0  2  0  0  0  0  0  0
  186.9340  176.7240  144.9270 C   0  0  0  0  0  3  0  0  0  0  0  0
  188.2350  177.0810  144.5580 C   0  0  0  0  0  0  0  0  0  0  0  0
  189.1450  177.5030  145.5390 C   0  0  0  0  0  3  0  0  0  0  0  0
  189.7200  178.0030  147.9170 C   0  0  0  0  0  1  0  0  0  0  0  0
  187.4540  177.1940  147.2450 C   0  0  0  0  0  3  0  0  0  0  0  0
  188.7550  177.5560  146.8810 C   0  0  0  0  0  0  0  0  0  0  0  0
  186.5440  176.7780  146.2680 C   0  0  0  0  0  3  0  0  0  0  0  0
  193.1690  175.6660  145.6680 C   0  0  0  0  0  0  0  0  0  0  0  0
  194.2000  174.8750  145.0740 N   0  0  0  0  0  2  0  0  0  0  0  0
  193.3320  176.1740  146.8100 O   0  0  0  0  0  0  0  0  0  0  0  0
  196.4960  175.3210  145.0640 O   0  0  0  0  0  1  0  0  0  0  0  0
  195.4790  174.6330  145.7280 C   0  0  2  0  0  3  0  0  0  0  0  0
  194.8270  172.3440  144.8920 C   0  0  0  0  0  1  0  0  0  0  0  0
  195.7840  173.1400  145.7650 C   0  0  0  0  0  2  0  0  0  0  0  0
  1 10  1  6  0  0  0
  1 20  1  0  0  0  0
  1 13  1  0  0  0  0
  2  5  2  0  0  0  0
  3  7  1  0  0  0  0
  3 15  1  0  0  0  0
  4  6  1  0  0  0  0
  5  7  1  0  0  0  0
  5 17  1  0  0  0  0
  6  2  1  0  0  0  0
  6  9  2  0  0  0  0
  7 19  1  0  0  0  0
  8 12  1  0  0  0  0
  8  4  2  0  0  0  0
  9 17  1  0  0  0  0
 11 23  1  0  0  0  0
 12 16  2  0  0  0  0
 13  9  1  0  0  0  0
 14 21  1  0  0  0  0
 14 31  1  1  0  0  0
 15 14  1  0  0  0  0
 16 11  1  0  0  0  0
 16  2  1  0  0  0  0
 17 22  1  0  0  0  0
 18  4  1  0  0  0  0
 18  1  1  0  0  0  0
 19 25  1  1  0  0  0
 22 21  1  0  0  0  0
 23 19  1  0  0  0  0
 24 30  1  0  0  0  0
 25 24  2  0  0  0  0
 25 26  1  0  0  0  0
 26 29  2  0  0  0  0
 29 28  1  0  0  0  0
 29 27  1  0  0  0  0
 30 28  2  0  0  0  0
 31 33  2  0  0  0  0
 32 31  1  0  0  0  0
 32 35  1  0  0  0  0
 35 34  1  6  0  0  0
 35 37  1  0  0  0  0
 36 37  1  0  0  0  0
M  END
>  <MODEL>
8

>  <REMARK>
 VINA RESULT:      -6.9      1.697      2.186
  Name = 
  4 active torsions:
  status: ('A' for Active; 'I' for Inactive)
    1  A    between atoms: C_4  and  N_12
    2  A    between atoms: C_4  and  C_37
    3  A    between atoms: C_8  and  C_18
    4  A    between atoms: C_23  and  C_30
                            x       y       z     vdW  Elec       q    Type
                         _______ _______ _______ _____ _____    ______ ____

>  <TORSDO>
F 4

$$$$
=
 OpenBabel11112417213D

 37 42  0  0  1  0  0  0  0  0999 V2000
  191.7890  172.0480  138.2750 C   0  0  1  0  0  0  0  0  0  0  0  0
  193.0490  171.8810  142.2080 C   0  0  0  0  0  0  0  0  0  0  0  0
  190.5040  172.4400  144.4810 C   0  0  0  0  0  2  0  0  0  0  0  0
  193.3610  171.0060  139.9940 C   0  0  0  0  0  0  0  0  0  0  0  0
  192.2750  172.8780  142.7480 C   0  0  0  0  0  0  0  0  0  0  0  0
  192.9170  171.9700  140.8680 C   0  0  0  0  0  0  0  0  0  0  0  0
  191.8560  172.8650  144.1240 N   0  0  0  0  0  0  0  0  0  0  0  0
  194.0460  169.9020  140.5450 C   0  0  0  0  0  3  0  0  0  0  0  0
  192.1010  173.0130  140.5840 C   0  0  0  0  0  0  0  0  0  0  0  0
  190.5680  171.1750  138.5090 C   0  0  0  0  0  1  0  0  0  0  0  0
  193.9560  170.8190  144.2140 N   0  0  0  0  0  2  0  0  0  0  0  0
  194.2290  169.8140  141.9540 C   0  0  0  0  0  3  0  0  0  0  0  0
  191.6820  173.3140  139.1740 C   0  0  0  0  0  2  0  0  0  0  0  0
  189.6370  174.8040  144.0810 C   0  0  1  0  0  3  0  0  0  0  0  0
  189.4140  173.3060  143.8600 C   0  0  0  0  0  2  0  0  0  0  0  0
  193.7190  170.8230  142.8040 C   0  0  0  0  0  0  0  0  0  0  0  0
  191.6960  173.6030  141.7380 N   0  0  0  0  0  0  0  0  0  0  0  0
  193.0740  171.2010  138.5270 C   0  0  0  0  0  2  0  0  0  0  0  0
  192.8260  172.8370  145.2240 C   0  0  1  0  0  3  0  0  0  0  0  0
  191.7840  172.4540  136.9420 O   0  0  0  0  0  1  0  0  0  0  0  0
  190.7550  175.3800  143.2030 C   0  0  0  0  0  2  0  0  0  0  0  0
  190.7900  174.7530  141.8090 C   0  0  0  0  0  2  0  0  0  0  0  0
  194.1390  172.0780  144.9390 C   0  0  0  0  0  2  0  0  0  0  0  0
  194.2760  174.8700  145.3180 C   0  0  0  0  0  3  0  0  0  0  0  0
  193.0990  174.2240  145.7110 C   0  0  0  0  0  0  0  0  0  0  0  0
  192.2150  174.8650  146.5910 C   0  0  0  0  0  3  0  0  0  0  0  0
  191.5670  176.8230  147.9990 C   0  0  0  0  0  1  0  0  0  0  0  0
  193.6800  176.7910  146.6670 C   0  0  0  0  0  3  0  0  0  0  0  0
  192.5040  176.1470  147.0660 C   0  0  0  0  0  0  0  0  0  0  0  0
  194.5650  176.1530  145.7930 C   0  0  0  0  0  3  0  0  0  0  0  0
  188.3660  175.5560  143.8680 C   0  0  0  0  0  0  0  0  0  0  0  0
  187.8740  176.3990  144.9120 N   0  0  0  0  0  2  0  0  0  0  0  0
  187.7380  175.4570  142.7790 O   0  0  0  0  0  0  0  0  0  0  0  0
  186.9800  178.5440  144.6470 O   0  0  0  0  0  1  0  0  0  0  0  0
  186.6590  177.1900  144.7750 C   0  0  2  0  0  3  0  0  0  0  0  0
  186.5310  176.7920  147.2630 C   0  0  0  0  0  1  0  0  0  0  0  0
  185.7430  176.9730  145.9750 C   0  0  0  0  0  2  0  0  0  0  0  0
  1 10  1  1  0  0  0
  1 18  1  0  0  0  0
  1 13  1  0  0  0  0
  2  5  2  0  0  0  0
  2 16  1  0  0  0  0
  4  8  2  0  0  0  0
  4  6  1  0  0  0  0
  5  7  1  0  0  0  0
  6  2  1  0  0  0  0
  7  3  1  0  0  0  0
  7 19  1  0  0  0  0
  8 12  1  0  0  0  0
  9  6  2  0  0  0  0
  9 17  1  0  0  0  0
 11 23  1  0  0  0  0
 12 16  2  0  0  0  0
 13  9  1  0  0  0  0
 14 31  1  6  0  0  0
 15 14  1  0  0  0  0
 15  3  1  0  0  0  0
 16 11  1  0  0  0  0
 17 22  1  0  0  0  0
 17  5  1  0  0  0  0
 18  4  1  0  0  0  0
 19 25  1  6  0  0  0
 20  1  1  0  0  0  0
 21 14  1  0  0  0  0
 22 21  1  0  0  0  0
 23 19  1  0  0  0  0
 24 25  2  0  0  0  0
 24 30  1  0  0  0  0
 25 26  1  0  0  0  0
 26 29  2  0  0  0  0
 28 29  1  0  0  0  0
 29 27  1  0  0  0  0
 30 28  2  0  0  0  0
 31 32  1  0  0  0  0
 33 31  2  0  0  0  0
 35 34  1  1  0  0  0
 35 32  1  0  0  0  0
 35 37  1  0  0  0  0
 37 36  1  0  0  0  0
M  END
>  <MODEL>
9

>  <REMARK>
 VINA RESULT:      -6.9      2.942      6.665
  Name = 
  4 active torsions:
  status: ('A' for Active; 'I' for Inactive)
    1  A    between atoms: C_4  and  N_12
    2  A    between atoms: C_4  and  C_37
    3  A    between atoms: C_8  and  C_18
    4  A    between atoms: C_23  and  C_30
                            x       y       z     vdW  Elec       q    Type
                         _______ _______ _______ _____ _____    ______ ____

>  <TORSDO>
F 4

$$$$
