=
 OpenBabel11112416373D

 32 37  0  0  1  0  0  0  0  0999 V2000
  185.7710  179.2140  143.2040 C   0  0  0  0  0  2  0  0  0  0  0  0
  189.2750  176.0020  144.3090 C   0  0  0  0  0  0  0  0  0  0  0  0
  190.0910  173.0130  140.5790 C   0  0  0  0  0  2  0  0  0  0  0  0
  191.3640  173.7910  140.2600 C   0  0  0  0  0  2  0  0  0  0  0  0
  191.1860  176.1550  146.0420 C   0  0  0  0  0  0  0  0  0  0  0  0
  192.5340  175.7010  146.5290 C   0  0  2  0  0  3  0  0  0  0  0  0
  187.0750  177.0110  144.9120 C   0  0  2  0  0  3  0  0  0  0  0  0
  187.4340  175.8920  142.7710 N   0  0  0  0  0  0  0  0  0  0  0  0
  194.6310  174.8480  146.0690 C   0  0  2  0  0  3  0  0  0  0  0  0
  185.1910  176.7010  143.1730 C   0  0  0  0  0  2  0  0  0  0  0  0
  189.1090  173.8160  141.4450 C   0  0  0  0  0  2  0  0  0  0  0  0
  188.8170  175.6750  143.0900 C   0  0  0  0  0  0  0  0  0  0  0  0
  189.7150  175.0980  142.0320 C   0  0  1  0  0  3  0  0  0  0  0  0
  191.5470  175.2340  143.8000 C   0  0  0  0  0  0  0  0  0  0  0  0
  194.7100  176.2940  146.5130 C   0  0  0  0  0  2  0  0  0  0  0  0
  185.8020  179.0330  144.5930 O   0  0  0  0  0  0  0  0  0  0  0  0
  186.6020  176.4500  143.5960 C   0  0  0  0  0  0  0  0  0  0  0  0
  193.4050  176.7910  146.7090 O   0  0  0  0  0  0  0  0  0  0  0  0
  187.0870  178.5390  144.8630 C   0  0  0  0  0  2  0  0  0  0  0  0
  185.0190  178.0740  142.5020 C   0  0  1  0  0  3  0  0  0  0  0  0
  192.0430  174.2180  141.5590 C   0  0  0  0  0  2  0  0  0  0  0  0
  191.0950  174.8550  142.4840 N   0  0  0  0  0  0  0  0  0  0  0  0
  193.0060  175.0970  144.1480 C   0  0  0  0  0  2  0  0  0  0  0  0
  188.3800  176.5340  145.2490 O   0  0  0  0  0  0  0  0  0  0  0  0
  190.4780  176.8540  146.8140 O   0  0  0  0  0  0  0  0  0  0  0  0
  195.6850  174.5180  145.0220 C   0  0  0  0  0  1  0  0  0  0  0  0
  190.6950  175.7890  144.6840 C   0  0  0  0  0  0  0  0  0  0  0  0
  193.2030  174.6890  145.6170 C   0  0  2  0  0  3  0  0  0  0  0  0
  183.6040  178.4060  142.4160 N   0  0  0  0  0  2  0  0  0  0  0  0
  182.8560  178.2910  141.2040 C   0  0  0  0  0  0  0  0  0  0  0  0
  183.4130  177.9160  140.1380 O   0  0  0  0  0  0  0  0  0  0  0  0
  181.4080  178.6240  141.2000 C   0  0  0  0  0  1  0  0  0  0  0  0
  1 16  1  0  0  0  0
  2 27  1  0  0  0  0
  2 24  1  0  0  0  0
  3 11  1  0  0  0  0
  4  3  1  0  0  0  0
  4 21  1  0  0  0  0
  5 25  2  0  0  0  0
  6  5  1  6  0  0  0
  6 18  1  0  0  0  0
  7 19  1  6  0  0  0
  7 24  1  0  0  0  0
  8 12  1  0  0  0  0
  8 17  2  0  0  0  0
  9 26  1  6  0  0  0
  9 15  1  0  0  0  0
 10 17  1  0  0  0  0
 12  2  2  0  0  0  0
 13 11  1  1  0  0  0
 13 22  1  0  0  0  0
 13 12  1  0  0  0  0
 14 23  1  0  0  0  0
 14 27  2  0  0  0  0
 15 18  1  0  0  0  0
 16 19  1  0  0  0  0
 17  7  1  0  0  0  0
 20 29  1  1  0  0  0
 20 10  1  0  0  0  0
 20  1  1  0  0  0  0
 21 22  1  0  0  0  0
 22 14  1  0  0  0  0
 27  5  1  0  0  0  0
 28 23  1  6  0  0  0
 28  9  1  0  0  0  0
 28  6  1  0  0  0  0
 30 29  1  0  0  0  0
 31 30  2  0  0  0  0
 32 30  1  0  0  0  0
M  END
>  <MODEL>
1

>  <REMARK>
 VINA RESULT:      -8.1      0.000      0.000
  Name = 
  1 active torsions:
  status: ('A' for Active; 'I' for Inactive)
    1  A    between atoms: C_20  and  N_29
                            x       y       z     vdW  Elec       q    Type
                         _______ _______ _______ _____ _____    ______ ____

>  <TORSDO>
F 1

$$$$
=
 OpenBabel11112416373D

 32 37  0  0  1  0  0  0  0  0999 V2000
  193.9950  174.1290  140.6860 C   0  0  0  0  0  2  0  0  0  0  0  0
  189.9990  174.9140  143.3760 C   0  0  0  0  0  0  0  0  0  0  0  0
  191.1850  175.6740  148.0160 C   0  0  0  0  0  2  0  0  0  0  0  0
  190.9390  177.1660  147.8150 C   0  0  0  0  0  2  0  0  0  0  0  0
  187.6650  175.7750  142.6760 C   0  0  0  0  0  0  0  0  0  0  0  0
  186.3570  176.4190  143.0430 C   0  0  2  0  0  3  0  0  0  0  0  0
  191.2120  173.4200  141.7890 C   0  0  2  0  0  3  0  0  0  0  0  0
  192.1650  174.0500  143.9480 N   0  0  0  0  0  0  0  0  0  0  0  0
  185.1560  177.8480  144.4040 C   0  0  2  0  0  3  0  0  0  0  0  0
  193.4790  172.5090  142.6250 C   0  0  0  0  0  2  0  0  0  0  0  0
  191.4160  174.9280  146.6930 C   0  0  0  0  0  2  0  0  0  0  0  0
  191.0420  174.9000  144.2220 C   0  0  0  0  0  0  0  0  0  0  0  0
  191.0800  175.7640  145.4520 C   0  0  1  0  0  3  0  0  0  0  0  0
  188.7620  176.5410  144.7300 C   0  0  0  0  0  0  0  0  0  0  0  0
  185.2940  178.4080  143.0030 C   0  0  0  0  0  2  0  0  0  0  0  0
  192.9020  173.5020  140.0740 O   0  0  0  0  0  0  0  0  0  0  0  0
  192.2520  173.3230  142.8760 C   0  0  0  0  0  0  0  0  0  0  0  0
  186.0940  177.5390  142.2330 O   0  0  0  0  0  0  0  0  0  0  0  0
  191.7760  174.1660  140.5810 C   0  0  0  0  0  2  0  0  0  0  0  0
  194.5500  173.2920  141.8490 C   0  0  1  0  0  3  0  0  0  0  0  0
  189.7440  177.3670  146.8860 C   0  0  0  0  0  2  0  0  0  0  0  0
  189.8530  176.5470  145.6720 N   0  0  0  0  0  0  0  0  0  0  0  0
  187.5990  177.4770  144.9390 C   0  0  0  0  0  2  0  0  0  0  0  0
  190.0300  174.0800  142.2490 O   0  0  0  0  0  0  0  0  0  0  0  0
  187.7660  175.2340  141.5430 O   0  0  0  0  0  0  0  0  0  0  0  0
  185.1810  178.9460  145.4580 C   0  0  0  0  0  1  0  0  0  0  0  0
  188.8150  175.7740  143.6230 C   0  0  0  0  0  0  0  0  0  0  0  0
  186.2720  176.8410  144.4990 C   0  0  2  0  0  3  0  0  0  0  0  0
  195.5630  172.3750  141.3460 N   0  0  0  0  0  2  0  0  0  0  0  0
  196.9630  172.6460  141.4370 C   0  0  0  0  0  0  0  0  0  0  0  0
  197.3780  173.7230  141.9420 O   0  0  0  0  0  0  0  0  0  0  0  0
  197.9380  171.6500  140.9250 C   0  0  0  0  0  1  0  0  0  0  0  0
  1 20  1  0  0  0  0
  2 27  1  0  0  0  0
  2 12  2  0  0  0  0
  4  3  1  0  0  0  0
  5  6  1  0  0  0  0
  5 27  1  0  0  0  0
  6 18  1  6  0  0  0
  6 28  1  0  0  0  0
  7 19  1  6  0  0  0
  7 24  1  0  0  0  0
  7 17  1  0  0  0  0
  8 12  1  0  0  0  0
  9 28  1  0  0  0  0
  9 26  1  1  0  0  0
 10 17  1  0  0  0  0
 11  3  1  0  0  0  0
 12 13  1  0  0  0  0
 13 22  1  0  0  0  0
 13 11  1  1  0  0  0
 14 23  1  0  0  0  0
 14 22  1  0  0  0  0
 15  9  1  0  0  0  0
 16 19  1  0  0  0  0
 16  1  1  0  0  0  0
 17  8  2  0  0  0  0
 18 15  1  0  0  0  0
 20 29  1  6  0  0  0
 20 10  1  0  0  0  0
 21  4  1  0  0  0  0
 22 21  1  0  0  0  0
 24  2  1  0  0  0  0
 25  5  2  0  0  0  0
 27 14  2  0  0  0  0
 28 23  1  6  0  0  0
 29 30  1  0  0  0  0
 30 31  2  0  0  0  0
 32 30  1  0  0  0  0
M  END
>  <MODEL>
2

>  <REMARK>
 VINA RESULT:      -7.7      3.009      8.685
  Name = 
  1 active torsions:
  status: ('A' for Active; 'I' for Inactive)
    1  A    between atoms: C_20  and  N_29
                            x       y       z     vdW  Elec       q    Type
                         _______ _______ _______ _____ _____    ______ ____

>  <TORSDO>
F 1

$$$$
=
 OpenBabel11112416373D

 32 37  0  0  1  0  0  0  0  0999 V2000
  186.7600  178.6750  143.0460 C   0  0  0  0  0  2  0  0  0  0  0  0
  190.0170  175.1650  143.9870 C   0  0  0  0  0  0  0  0  0  0  0  0
  190.2480  172.0160  140.3070 C   0  0  0  0  0  2  0  0  0  0  0  0
  191.5600  172.6560  139.8660 C   0  0  0  0  0  2  0  0  0  0  0  0
  192.0650  175.1740  145.5640 C   0  0  0  0  0  0  0  0  0  0  0  0
  193.3970  174.6020  145.9620 C   0  0  2  0  0  3  0  0  0  0  0  0
  187.9780  176.3990  144.7210 C   0  0  2  0  0  3  0  0  0  0  0  0
  188.0590  175.1960  142.5970 N   0  0  0  0  0  0  0  0  0  0  0  0
  195.3600  173.5360  145.3730 C   0  0  2  0  0  3  0  0  0  0  0  0
  185.9420  176.2310  143.1410 C   0  0  0  0  0  2  0  0  0  0  0  0
  189.4170  172.9330  141.2170 C   0  0  0  0  0  2  0  0  0  0  0  0
  189.4350  174.8520  142.8180 C   0  0  0  0  0  0  0  0  0  0  0  0
  190.1880  174.1630  141.7140 C   0  0  1  0  0  3  0  0  0  0  0  0
  192.1580  174.1650  143.3320 C   0  0  0  0  0  0  0  0  0  0  0  0
  195.6120  174.9790  145.7610 C   0  0  0  0  0  2  0  0  0  0  0  0
  186.8840  178.5270  144.4330 O   0  0  0  0  0  0  0  0  0  0  0  0
  187.3510  175.8530  143.4640 C   0  0  0  0  0  0  0  0  0  0  0  0
  194.3800  175.6060  146.0390 O   0  0  0  0  0  0  0  0  0  0  0  0
  188.1320  177.9170  144.6200 C   0  0  0  0  0  2  0  0  0  0  0  0
  185.8490  177.5960  142.4400 C   0  0  1  0  0  3  0  0  0  0  0  0
  192.3760  173.0480  141.0950 C   0  0  0  0  0  2  0  0  0  0  0  0
  191.5700  173.7990  142.0680 N   0  0  0  0  0  0  0  0  0  0  0  0
  193.6200  173.8940  143.5730 C   0  0  0  0  0  2  0  0  0  0  0  0
  189.2540  175.8060  144.9740 O   0  0  0  0  0  0  0  0  0  0  0  0
  191.4900  175.9580  146.3640 O   0  0  0  0  0  0  0  0  0  0  0  0
  196.2920  173.0780  144.2600 C   0  0  0  0  0  1  0  0  0  0  0  0
  191.4350  174.8230  144.2600 C   0  0  0  0  0  0  0  0  0  0  0  0
  193.8920  173.5070  145.0350 C   0  0  2  0  0  3  0  0  0  0  0  0
  184.4700  178.0630  142.4510 N   0  0  0  0  0  2  0  0  0  0  0  0
  183.6890  178.1890  141.2620 C   0  0  0  0  0  0  0  0  0  0  0  0
  184.1850  177.9210  140.1350 O   0  0  0  0  0  0  0  0  0  0  0  0
  182.2790  178.6480  141.3550 C   0  0  0  0  0  1  0  0  0  0  0  0
  1 16  1  0  0  0  0
  2 27  1  0  0  0  0
  2 24  1  0  0  0  0
  3 11  1  0  0  0  0
  4  3  1  0  0  0  0
  4 21  1  0  0  0  0
  5 25  2  0  0  0  0
  6  5  1  6  0  0  0
  6 18  1  0  0  0  0
  7 19  1  6  0  0  0
  7 24  1  0  0  0  0
  8 12  1  0  0  0  0
  8 17  2  0  0  0  0
  9 26  1  6  0  0  0
  9 15  1  0  0  0  0
 10 17  1  0  0  0  0
 12  2  2  0  0  0  0
 13 11  1  1  0  0  0
 13 22  1  0  0  0  0
 13 12  1  0  0  0  0
 14 23  1  0  0  0  0
 14 27  2  0  0  0  0
 15 18  1  0  0  0  0
 16 19  1  0  0  0  0
 17  7  1  0  0  0  0
 20 29  1  1  0  0  0
 20  1  1  0  0  0  0
 20 10  1  0  0  0  0
 21 22  1  0  0  0  0
 22 14  1  0  0  0  0
 27  5  1  0  0  0  0
 28 23  1  6  0  0  0
 28  9  1  0  0  0  0
 28  6  1  0  0  0  0
 30 32  1  0  0  0  0
 30 29  1  0  0  0  0
 31 30  2  0  0  0  0
M  END
>  <MODEL>
3

>  <REMARK>
 VINA RESULT:      -7.7      1.129      1.243
  Name = 
  1 active torsions:
  status: ('A' for Active; 'I' for Inactive)
    1  A    between atoms: C_20  and  N_29
                            x       y       z     vdW  Elec       q    Type
                         _______ _______ _______ _____ _____    ______ ____

>  <TORSDO>
F 1

$$$$
=
 OpenBabel11112416373D

 32 37  0  0  1  0  0  0  0  0999 V2000
  190.0640  171.2140  141.4520 C   0  0  0  0  0  2  0  0  0  0  0  0
  188.6220  175.4830  143.3250 C   0  0  0  0  0  0  0  0  0  0  0  0
  186.1080  178.0240  140.0480 C   0  0  0  0  0  2  0  0  0  0  0  0
  184.8190  177.6480  140.7730 C   0  0  0  0  0  2  0  0  0  0  0  0
  188.2520  176.1810  145.7860 C   0  0  0  0  0  0  0  0  0  0  0  0
  187.6140  177.0990  146.7910 C   0  0  2  0  0  3  0  0  0  0  0  0
  190.5090  173.9300  142.8270 C   0  0  2  0  0  3  0  0  0  0  0  0
  189.0550  174.7940  141.0660 N   0  0  0  0  0  0  0  0  0  0  0  0
  185.8700  178.4920  147.3860 C   0  0  2  0  0  3  0  0  0  0  0  0
  190.8780  173.3880  140.3290 C   0  0  0  0  0  2  0  0  0  0  0  0
  187.2740  177.0830  140.3860 C   0  0  0  0  0  2  0  0  0  0  0  0
  188.2460  175.4770  142.0360 C   0  0  0  0  0  0  0  0  0  0  0  0
  186.9860  176.1520  141.5710 C   0  0  1  0  0  3  0  0  0  0  0  0
  186.7010  176.8450  144.0080 C   0  0  0  0  0  0  0  0  0  0  0  0
  185.8640  177.2210  148.2090 C   0  0  0  0  0  2  0  0  0  0  0  0
  190.9500  171.5880  142.4700 O   0  0  0  0  0  0  0  0  0  0  0  0
  190.1200  174.1250  141.3840 C   0  0  0  0  0  0  0  0  0  0  0  0
  186.8970  176.3730  147.7600 O   0  0  0  0  0  0  0  0  0  0  0  0
  190.2280  172.4920  143.2620 C   0  0  0  0  0  2  0  0  0  0  0  0
  190.3660  171.9500  140.1390 C   0  0  1  0  0  3  0  0  0  0  0  0
  185.0640  177.6410  142.2810 C   0  0  0  0  0  2  0  0  0  0  0  0
  186.2670  176.8750  142.6330 N   0  0  0  0  0  0  0  0  0  0  0  0
  185.8400  177.4810  145.0690 C   0  0  0  0  0  2  0  0  0  0  0  0
  189.8120  174.8340  143.6870 O   0  0  0  0  0  0  0  0  0  0  0  0
  189.1670  175.4110  146.1790 O   0  0  0  0  0  0  0  0  0  0  0  0
  184.4610  178.9860  147.0950 C   0  0  0  0  0  1  0  0  0  0  0  0
  187.8190  176.1810  144.3600 C   0  0  0  0  0  0  0  0  0  0  0  0
  186.6880  178.1300  146.1740 C   0  0  2  0  0  3  0  0  0  0  0  0
  191.3300  171.1830  139.3620 N   0  0  0  0  0  2  0  0  0  0  0  0
  190.9390  170.2370  138.3660 C   0  0  0  0  0  0  0  0  0  0  0  0
  189.7210  170.0080  138.1390 O   0  0  0  0  0  0  0  0  0  0  0  0
  191.9800  169.5090  137.5960 C   0  0  0  0  0  1  0  0  0  0  0  0
  1 16  1  0  0  0  0
  2 24  1  0  0  0  0
  2 27  1  0  0  0  0
  3 11  1  0  0  0  0
  3  4  1  0  0  0  0
  4 21  1  0  0  0  0
  5 25  2  0  0  0  0
  6  5  1  6  0  0  0
  6 18  1  0  0  0  0
  7 19  1  1  0  0  0
  7 24  1  0  0  0  0
  8 17  2  0  0  0  0
  8 12  1  0  0  0  0
  9 26  1  6  0  0  0
  9 15  1  0  0  0  0
 10 17  1  0  0  0  0
 12  2  2  0  0  0  0
 13 11  1  6  0  0  0
 13 12  1  0  0  0  0
 13 22  1  0  0  0  0
 14 27  2  0  0  0  0
 14 23  1  0  0  0  0
 16 19  1  0  0  0  0
 17  7  1  0  0  0  0
 18 15  1  0  0  0  0
 20 29  1  1  0  0  0
 20 10  1  0  0  0  0
 20  1  1  0  0  0  0
 21 22  1  0  0  0  0
 22 14  1  0  0  0  0
 27  5  1  0  0  0  0
 28 23  1  6  0  0  0
 28  6  1  0  0  0  0
 28  9  1  0  0  0  0
 30 29  1  0  0  0  0
 31 30  2  0  0  0  0
 32 30  1  0  0  0  0
M  END
>  <MODEL>
4

>  <REMARK>
 VINA RESULT:      -7.6      3.172      7.392
  Name = 
  1 active torsions:
  status: ('A' for Active; 'I' for Inactive)
    1  A    between atoms: C_20  and  N_29
                            x       y       z     vdW  Elec       q    Type
                         _______ _______ _______ _____ _____    ______ ____

>  <TORSDO>
F 1

$$$$
=
 OpenBabel11112416373D

 32 37  0  0  1  0  0  0  0  0999 V2000
  190.3130  173.8350  138.8920 C   0  0  0  0  0  2  0  0  0  0  0  0
  188.6050  174.9630  143.3220 C   0  0  0  0  0  0  0  0  0  0  0  0
  192.1320  174.6720  146.6380 C   0  0  0  0  0  2  0  0  0  0  0  0
  192.2220  176.1950  146.6480 C   0  0  0  0  0  2  0  0  0  0  0  0
  186.5620  176.3910  144.0040 C   0  0  0  0  0  0  0  0  0  0  0  0
  185.8450  177.2190  145.0340 C   0  0  2  0  0  3  0  0  0  0  0  0
  188.4020  173.5390  141.2850 C   0  0  2  0  0  3  0  0  0  0  0  0
  190.4450  173.5880  142.6220 N   0  0  0  0  0  0  0  0  0  0  0  0
  185.9270  178.6160  146.8720 C   0  0  2  0  0  3  0  0  0  0  0  0
  190.4460  172.0540  140.7530 C   0  0  0  0  0  2  0  0  0  0  0  0
  191.4540  174.1280  145.3720 C   0  0  0  0  0  2  0  0  0  0  0  0
  189.8860  174.5930  143.4820 C   0  0  0  0  0  0  0  0  0  0  0  0
  190.7690  175.2120  144.5290 C   0  0  1  0  0  3  0  0  0  0  0  0
  188.7060  176.5590  145.1810 C   0  0  0  0  0  0  0  0  0  0  0  0
  185.4770  179.3630  145.6330 C   0  0  0  0  0  2  0  0  0  0  0  0
  188.9400  173.5580  138.9370 O   0  0  0  0  0  0  0  0  0  0  0  0
  189.7800  173.0490  141.6460 C   0  0  0  0  0  0  0  0  0  0  0  0
  185.5140  178.4900  144.5270 O   0  0  0  0  0  0  0  0  0  0  0  0
  188.4480  174.3450  139.9870 C   0  0  0  0  0  2  0  0  0  0  0  0
  191.1370  172.7180  139.5510 C   0  0  1  0  0  3  0  0  0  0  0  0
  190.8230  176.7910  146.5080 C   0  0  0  0  0  2  0  0  0  0  0  0
  190.0800  176.1810  145.3960 N   0  0  0  0  0  0  0  0  0  0  0  0
  188.1050  177.6650  146.0090 C   0  0  0  0  0  2  0  0  0  0  0  0
  187.8390  174.3410  142.3260 O   0  0  0  0  0  0  0  0  0  0  0  0
  185.9280  176.0390  142.9750 O   0  0  0  0  0  0  0  0  0  0  0  0
  186.7710  179.4920  147.7860 C   0  0  0  0  0  1  0  0  0  0  0  0
  187.9860  175.9940  144.1920 C   0  0  0  0  0  0  0  0  0  0  0  0
  186.6250  177.3990  146.3230 C   0  0  2  0  0  3  0  0  0  0  0  0
  191.4710  171.7100  138.5550 N   0  0  0  0  0  2  0  0  0  0  0  0
  192.7930  171.5430  138.0400 C   0  0  0  0  0  0  0  0  0  0  0  0
  193.7300  172.2960  138.4170 O   0  0  0  0  0  0  0  0  0  0  0  0
  193.0640  170.4750  137.0440 C   0  0  0  0  0  1  0  0  0  0  0  0
  1 16  1  0  0  0  0
  1 20  1  0  0  0  0
  2 12  2  0  0  0  0
  2 27  1  0  0  0  0
  3  4  1  0  0  0  0
  5 27  1  0  0  0  0
  6  5  1  6  0  0  0
  6 28  1  0  0  0  0
  7 19  1  6  0  0  0
  7 17  1  0  0  0  0
  7 24  1  0  0  0  0
  8 12  1  0  0  0  0
  9 26  1  6  0  0  0
 10 17  1  0  0  0  0
 11  3  1  0  0  0  0
 12 13  1  0  0  0  0
 13 11  1  1  0  0  0
 13 22  1  0  0  0  0
 14 22  1  0  0  0  0
 14 23  1  0  0  0  0
 15  9  1  0  0  0  0
 16 19  1  0  0  0  0
 17  8  2  0  0  0  0
 18  6  1  0  0  0  0
 18 15  1  0  0  0  0
 20 29  1  6  0  0  0
 20 10  1  0  0  0  0
 21  4  1  0  0  0  0
 22 21  1  0  0  0  0
 24  2  1  0  0  0  0
 25  5  2  0  0  0  0
 27 14  2  0  0  0  0
 28 23  1  6  0  0  0
 28  9  1  0  0  0  0
 30 31  2  0  0  0  0
 30 29  1  0  0  0  0
 32 30  1  0  0  0  0
M  END
>  <MODEL>
5

>  <REMARK>
 VINA RESULT:      -7.6      3.183      7.461
  Name = 
  1 active torsions:
  status: ('A' for Active; 'I' for Inactive)
    1  A    between atoms: C_20  and  N_29
                            x       y       z     vdW  Elec       q    Type
                         _______ _______ _______ _____ _____    ______ ____

>  <TORSDO>
F 1

$$$$
=
 OpenBabel11112416373D

 32 37  0  0  1  0  0  0  0  0999 V2000
  188.5830  177.8660  141.9100 C   0  0  0  0  0  2  0  0  0  0  0  0
  191.4650  174.5320  144.0060 C   0  0  0  0  0  0  0  0  0  0  0  0
  190.8170  170.1840  141.9590 C   0  0  0  0  0  2  0  0  0  0  0  0
  192.1310  170.3630  141.2060 C   0  0  0  0  0  2  0  0  0  0  0  0
  193.6850  174.8260  145.2970 C   0  0  0  0  0  0  0  0  0  0  0  0
  194.9750  174.2460  145.8060 C   0  0  2  0  0  3  0  0  0  0  0  0
  189.7110  176.2810  144.2940 C   0  0  2  0  0  3  0  0  0  0  0  0
  189.3630  174.3340  142.8620 N   0  0  0  0  0  0  0  0  0  0  0  0
  196.6940  172.7190  145.5840 C   0  0  2  0  0  3  0  0  0  0  0  0
  187.4830  175.8400  143.0660 C   0  0  0  0  0  2  0  0  0  0  0  0
  190.2340  171.5140  142.4590 C   0  0  0  0  0  2  0  0  0  0  0  0
  190.7020  173.8810  143.1130 C   0  0  0  0  0  0  0  0  0  0  0  0
  191.2120  172.6910  142.3480 C   0  0  1  0  0  3  0  0  0  0  0  0
  193.3600  173.0080  143.6840 C   0  0  0  0  0  0  0  0  0  0  0  0
  197.1750  174.1320  145.3200 C   0  0  0  0  0  2  0  0  0  0  0  0
  188.8660  178.2670  143.2220 O   0  0  0  0  0  0  0  0  0  0  0  0
  188.8620  175.3920  143.4220 C   0  0  0  0  0  0  0  0  0  0  0  0
  196.0780  175.0150  145.3940 O   0  0  0  0  0  0  0  0  0  0  0  0
  190.0410  177.5820  143.5630 C   0  0  0  0  0  2  0  0  0  0  0  0
  187.4730  176.8050  141.8690 C   0  0  1  0  0  3  0  0  0  0  0  0
  193.1430  171.0710  142.1040 C   0  0  0  0  0  2  0  0  0  0  0  0
  192.5710  172.2720  142.7290 N   0  0  0  0  0  0  0  0  0  0  0  0
  194.7950  172.6150  143.9190 C   0  0  0  0  0  2  0  0  0  0  0  0
  190.9240  175.6330  144.6860 O   0  0  0  0  0  0  0  0  0  0  0  0
  193.3230  175.9500  145.7340 O   0  0  0  0  0  0  0  0  0  0  0  0
  197.4080  171.7040  144.7030 C   0  0  0  0  0  1  0  0  0  0  0  0
  192.8520  174.0950  144.3000 C   0  0  0  0  0  0  0  0  0  0  0  0
  195.2030  172.8050  145.3870 C   0  0  2  0  0  3  0  0  0  0  0  0
  186.1770  177.4630  141.7770 N   0  0  0  0  0  2  0  0  0  0  0  0
  185.5650  177.7900  140.5280 C   0  0  0  0  0  0  0  0  0  0  0  0
  186.1500  177.5410  139.4400 O   0  0  0  0  0  0  0  0  0  0  0  0
  184.2280  178.4380  140.5130 C   0  0  0  0  0  1  0  0  0  0  0  0
  1 16  1  0  0  0  0
  2 27  1  0  0  0  0
  2 24  1  0  0  0  0
  3 11  1  0  0  0  0
  4  3  1  0  0  0  0
  4 21  1  0  0  0  0
  5 25  2  0  0  0  0
  6  5  1  6  0  0  0
  7 19  1  6  0  0  0
  7 24  1  0  0  0  0
  8 12  1  0  0  0  0
  8 17  2  0  0  0  0
  9 26  1  6  0  0  0
 10 17  1  0  0  0  0
 12  2  2  0  0  0  0
 13 11  1  1  0  0  0
 13 22  1  0  0  0  0
 13 12  1  0  0  0  0
 14 23  1  0  0  0  0
 14 27  2  0  0  0  0
 15 18  1  0  0  0  0
 15  9  1  0  0  0  0
 16 19  1  0  0  0  0
 17  7  1  0  0  0  0
 18  6  1  0  0  0  0
 20 29  1  1  0  0  0
 20  1  1  0  0  0  0
 20 10  1  0  0  0  0
 21 22  1  0  0  0  0
 22 14  1  0  0  0  0
 27  5  1  0  0  0  0
 28 23  1  6  0  0  0
 28  9  1  0  0  0  0
 28  6  1  0  0  0  0
 30 29  1  0  0  0  0
 31 30  2  0  0  0  0
 32 30  1  0  0  0  0
M  END
>  <MODEL>
6

>  <REMARK>
 VINA RESULT:      -7.5      2.201      2.995
  Name = 
  1 active torsions:
  status: ('A' for Active; 'I' for Inactive)
    1  A    between atoms: C_20  and  N_29
                            x       y       z     vdW  Elec       q    Type
                         _______ _______ _______ _____ _____    ______ ____

>  <TORSDO>
F 1

$$$$
=
 OpenBabel11112416373D

 32 37  0  0  1  0  0  0  0  0999 V2000
  189.1220  177.7210  146.3690 C   0  0  0  0  0  2  0  0  0  0  0  0
  192.3300  174.1850  145.3630 C   0  0  0  0  0  0  0  0  0  0  0  0
  190.4190  170.9710  142.2750 C   0  0  0  0  0  2  0  0  0  0  0  0
  191.2470  171.5860  141.1520 C   0  0  0  0  0  2  0  0  0  0  0  0
  194.9120  174.1930  145.4920 C   0  0  0  0  0  0  0  0  0  0  0  0
  196.2320  173.6110  145.0720 C   0  0  2  0  0  3  0  0  0  0  0  0
  191.0740  175.4590  147.1000 C   0  0  2  0  0  3  0  0  0  0  0  0
  189.9300  174.2180  145.3350 N   0  0  0  0  0  0  0  0  0  0  0  0
  197.5090  172.5100  143.4930 C   0  0  2  0  0  3  0  0  0  0  0  0
  188.5010  175.2900  146.9660 C   0  0  0  0  0  2  0  0  0  0  0  0
  190.2570  171.9140  143.4760 C   0  0  0  0  0  2  0  0  0  0  0  0
  191.1860  173.8600  144.7400 C   0  0  0  0  0  0  0  0  0  0  0  0
  191.1740  173.1430  143.4190 C   0  0  1  0  0  3  0  0  0  0  0  0
  193.7150  173.1450  143.6270 C   0  0  0  0  0  0  0  0  0  0  0  0
  197.9390  173.9550  143.6370 C   0  0  0  0  0  2  0  0  0  0  0  0
  190.0130  177.5950  147.4420 O   0  0  0  0  0  0  0  0  0  0  0  0
  189.8420  174.8990  146.4360 C   0  0  0  0  0  0  0  0  0  0  0  0
  197.0860  174.6030  144.5540 O   0  0  0  0  0  0  0  0  0  0  0  0
  191.1450  176.9720  146.8980 C   0  0  0  0  0  2  0  0  0  0  0  0
  188.0270  176.6440  146.4130 C   0  0  1  0  0  3  0  0  0  0  0  0
  192.6190  171.9890  141.6880 C   0  0  0  0  0  2  0  0  0  0  0  0
  192.5110  172.7660  142.9310 N   0  0  0  0  0  0  0  0  0  0  0  0
  195.0540  172.8590  142.9980 C   0  0  0  0  0  2  0  0  0  0  0  0
  192.2660  174.8520  146.5950 O   0  0  0  0  0  0  0  0  0  0  0  0
  194.8960  174.9990  146.4600 O   0  0  0  0  0  0  0  0  0  0  0  0
  197.6400  172.0200  142.0580 C   0  0  0  0  0  1  0  0  0  0  0  0
  193.6510  173.8290  144.7860 C   0  0  0  0  0  0  0  0  0  0  0  0
  196.1100  172.4940  144.0520 C   0  0  2  0  0  3  0  0  0  0  0  0
  186.9000  177.1300  147.1970 N   0  0  0  0  0  2  0  0  0  0  0  0
  185.8350  177.8920  146.6280 C   0  0  0  0  0  0  0  0  0  0  0  0
  185.8460  178.2010  145.4060 O   0  0  0  0  0  0  0  0  0  0  0  0
  184.7050  178.3310  147.4870 C   0  0  0  0  0  1  0  0  0  0  0  0
  1 20  1  0  0  0  0
  1 16  1  0  0  0  0
  2 24  1  0  0  0  0
  3 11  1  0  0  0  0
  4 21  1  0  0  0  0
  4  3  1  0  0  0  0
  5 25  2  0  0  0  0
  6 18  1  6  0  0  0
  6  5  1  0  0  0  0
  7 19  1  6  0  0  0
  8 17  2  0  0  0  0
  9 26  1  6  0  0  0
  9 15  1  0  0  0  0
  9 28  1  0  0  0  0
 12  8  1  0  0  0  0
 12  2  2  0  0  0  0
 13 11  1  1  0  0  0
 13 12  1  0  0  0  0
 14 27  2  0  0  0  0
 15 18  1  0  0  0  0
 17 10  1  0  0  0  0
 17  7  1  0  0  0  0
 19 16  1  0  0  0  0
 20 10  1  0  0  0  0
 20 29  1  1  0  0  0
 21 22  1  0  0  0  0
 22 13  1  0  0  0  0
 22 14  1  0  0  0  0
 23 14  1  0  0  0  0
 24  7  1  0  0  0  0
 27  2  1  0  0  0  0
 27  5  1  0  0  0  0
 28 23  1  6  0  0  0
 28  6  1  0  0  0  0
 30 29  1  0  0  0  0
 30 32  1  0  0  0  0
 31 30  2  0  0  0  0
M  END
>  <MODEL>
7

>  <REMARK>
 VINA RESULT:      -7.3      3.208      4.431
  Name = 
  1 active torsions:
  status: ('A' for Active; 'I' for Inactive)
    1  A    between atoms: C_20  and  N_29
                            x       y       z     vdW  Elec       q    Type
                         _______ _______ _______ _____ _____    ______ ____

>  <TORSDO>
F 1

$$$$
=
 OpenBabel11112416373D

 32 37  0  0  1  0  0  0  0  0999 V2000
  188.9960  177.5360  144.5600 C   0  0  0  0  0  2  0  0  0  0  0  0
  192.8560  174.6920  143.6510 C   0  0  0  0  0  0  0  0  0  0  0  0
  191.4410  170.4070  141.8770 C   0  0  0  0  0  2  0  0  0  0  0  0
  191.8680  170.8640  140.4860 C   0  0  0  0  0  2  0  0  0  0  0  0
  195.3160  175.3270  143.1770 C   0  0  0  0  0  0  0  0  0  0  0  0
  196.6600  174.9710  142.6040 C   0  0  2  0  0  3  0  0  0  0  0  0
  191.5970  176.0710  145.3050 C   0  0  2  0  0  3  0  0  0  0  0  0
  190.5720  174.1660  144.1710 N   0  0  0  0  0  0  0  0  0  0  0  0
  197.9160  173.8020  141.0580 C   0  0  2  0  0  3  0  0  0  0  0  0
  189.1880  175.2870  145.8070 C   0  0  0  0  0  2  0  0  0  0  0  0
  191.2210  171.5800  142.8440 C   0  0  0  0  0  2  0  0  0  0  0  0
  191.7620  173.9570  143.3960 C   0  0  0  0  0  0  0  0  0  0  0  0
  191.7350  172.9220  142.3060 C   0  0  1  0  0  3  0  0  0  0  0  0
  194.1720  173.5630  141.9170 C   0  0  0  0  0  0  0  0  0  0  0  0
  197.9410  175.2900  140.7750 C   0  0  0  0  0  2  0  0  0  0  0  0
  190.0510  177.9170  145.3990 O   0  0  0  0  0  0  0  0  0  0  0  0
  190.4790  175.0840  145.0830 C   0  0  0  0  0  0  0  0  0  0  0  0
  197.1040  175.9510  141.6970 O   0  0  0  0  0  0  0  0  0  0  0  0
  191.2070  177.4450  144.7610 C   0  0  0  0  0  2  0  0  0  0  0  0
  188.2700  176.2920  145.0930 C   0  0  1  0  0  3  0  0  0  0  0  0
  193.1410  171.7010  140.5890 C   0  0  0  0  0  2  0  0  0  0  0  0
  193.0250  172.7420  141.6190 N   0  0  0  0  0  0  0  0  0  0  0  0
  195.4150  173.4310  141.0760 C   0  0  0  0  0  2  0  0  0  0  0  0
  192.8110  175.6390  144.6850 O   0  0  0  0  0  0  0  0  0  0  0  0
  195.2350  176.3410  143.9190 O   0  0  0  0  0  0  0  0  0  0  0  0
  197.9410  172.9810  139.7760 C   0  0  0  0  0  1  0  0  0  0  0  0
  194.1100  174.5050  142.8790 C   0  0  0  0  0  0  0  0  0  0  0  0
  196.6890  173.6200  141.9130 C   0  0  2  0  0  3  0  0  0  0  0  0
  187.1970  176.7020  145.9880 N   0  0  0  0  0  2  0  0  0  0  0  0
  185.8650  176.9460  145.5350 C   0  0  0  0  0  0  0  0  0  0  0  0
  185.5710  176.8390  144.3140 O   0  0  0  0  0  0  0  0  0  0  0  0
  184.8170  177.3370  146.5120 C   0  0  0  0  0  1  0  0  0  0  0  0
  1 20  1  0  0  0  0
  1 16  1  0  0  0  0
  2 24  1  0  0  0  0
  3 11  1  0  0  0  0
  4 21  1  0  0  0  0
  4  3  1  0  0  0  0
  5 25  2  0  0  0  0
  6 18  1  6  0  0  0
  6  5  1  0  0  0  0
  7 19  1  6  0  0  0
  8 17  2  0  0  0  0
  9 26  1  6  0  0  0
  9 28  1  0  0  0  0
 12  2  2  0  0  0  0
 12  8  1  0  0  0  0
 13 11  1  1  0  0  0
 13 12  1  0  0  0  0
 14 27  2  0  0  0  0
 15  9  1  0  0  0  0
 15 18  1  0  0  0  0
 17  7  1  0  0  0  0
 17 10  1  0  0  0  0
 19 16  1  0  0  0  0
 20 10  1  0  0  0  0
 20 29  1  1  0  0  0
 21 22  1  0  0  0  0
 22 14  1  0  0  0  0
 22 13  1  0  0  0  0
 23 14  1  0  0  0  0
 24  7  1  0  0  0  0
 27  5  1  0  0  0  0
 27  2  1  0  0  0  0
 28 23  1  6  0  0  0
 28  6  1  0  0  0  0
 30 29  1  0  0  0  0
 30 32  1  0  0  0  0
 31 30  2  0  0  0  0
M  END
>  <MODEL>
8

>  <REMARK>
 VINA RESULT:      -7.1      2.912      4.684
  Name = 
  1 active torsions:
  status: ('A' for Active; 'I' for Inactive)
    1  A    between atoms: C_20  and  N_29
                            x       y       z     vdW  Elec       q    Type
                         _______ _______ _______ _____ _____    ______ ____

>  <TORSDO>
F 1

$$$$
=
 OpenBabel11112416373D

 32 37  0  0  1  0  0  0  0  0999 V2000
  194.1870  172.4550  145.4780 C   0  0  0  0  0  2  0  0  0  0  0  0
  191.2520  175.3580  142.8750 C   0  0  0  0  0  0  0  0  0  0  0  0
  190.1250  173.2900  138.6360 C   0  0  0  0  0  2  0  0  0  0  0  0
  188.7460  172.9480  139.1910 C   0  0  0  0  0  2  0  0  0  0  0  0
  189.6510  177.2330  143.6500 C   0  0  0  0  0  0  0  0  0  0  0  0
  188.4550  178.1060  143.3900 C   0  0  2  0  0  3  0  0  0  0  0  0
  193.4110  175.0920  144.0960 C   0  0  2  0  0  3  0  0  0  0  0  0
  192.8120  173.6560  142.2130 N   0  0  0  0  0  0  0  0  0  0  0  0
  186.4060  178.4210  142.3720 C   0  0  2  0  0  3  0  0  0  0  0  0
  194.9990  173.2780  143.1730 C   0  0  0  0  0  2  0  0  0  0  0  0
  191.1540  173.5750  139.7400 C   0  0  0  0  0  2  0  0  0  0  0  0
  191.5300  174.2940  142.1040 C   0  0  0  0  0  0  0  0  0  0  0  0
  190.5300  173.7310  141.1330 C   0  0  1  0  0  3  0  0  0  0  0  0
  189.0140  175.6290  141.9100 C   0  0  0  0  0  0  0  0  0  0  0  0
  186.2590  178.2830  143.8730 C   0  0  0  0  0  2  0  0  0  0  0  0
  194.4050  173.7850  145.8590 O   0  0  0  0  0  0  0  0  0  0  0  0
  193.7110  174.0270  143.0720 C   0  0  0  0  0  0  0  0  0  0  0  0
  187.5220  178.0190  144.4400 O   0  0  0  0  0  0  0  0  0  0  0  0
  193.2390  174.4650  145.4790 C   0  0  0  0  0  2  0  0  0  0  0  0
  194.9200  172.1120  144.1730 C   0  0  1  0  0  3  0  0  0  0  0  0
  188.2550  174.0890  140.0790 C   0  0  0  0  0  2  0  0  0  0  0  0
  189.2760  174.4980  141.0540 N   0  0  0  0  0  0  0  0  0  0  0  0
  187.6550  176.2770  141.8830 C   0  0  0  0  0  2  0  0  0  0  0  0
  192.2340  175.8310  143.7570 O   0  0  0  0  0  0  0  0  0  0  0  0
  190.4050  177.5260  144.6150 O   0  0  0  0  0  0  0  0  0  0  0  0
  185.2300  177.8040  141.6280 C   0  0  0  0  0  1  0  0  0  0  0  0
  189.9420  176.0510  142.7910 C   0  0  0  0  0  0  0  0  0  0  0  0
  187.7470  177.7970  142.0840 C   0  0  2  0  0  3  0  0  0  0  0  0
  196.2610  171.6350  144.4800 N   0  0  0  0  0  2  0  0  0  0  0  0
  196.5430  170.2680  144.7850 C   0  0  0  0  0  0  0  0  0  0  0  0
  195.6170  169.4140  144.8260 O   0  0  0  0  0  0  0  0  0  0  0  0
  197.9410  169.8510  145.0640 C   0  0  0  0  0  1  0  0  0  0  0  0
  1 16  1  0  0  0  0
  2 24  1  0  0  0  0
  3  4  1  0  0  0  0
  3 11  1  0  0  0  0
  4 21  1  0  0  0  0
  5 25  2  0  0  0  0
  6  5  1  1  0  0  0
  6 18  1  0  0  0  0
  7 19  1  1  0  0  0
  8 17  2  0  0  0  0
  9 26  1  6  0  0  0
  9 15  1  0  0  0  0
 10 20  1  0  0  0  0
 12  8  1  0  0  0  0
 12  2  2  0  0  0  0
 13 11  1  6  0  0  0
 13 12  1  0  0  0  0
 14 27  2  0  0  0  0
 15 18  1  0  0  0  0
 17 10  1  0  0  0  0
 17  7  1  0  0  0  0
 19 16  1  0  0  0  0
 20 29  1  1  0  0  0
 20  1  1  0  0  0  0
 21 22  1  0  0  0  0
 22 13  1  0  0  0  0
 22 14  1  0  0  0  0
 23 14  1  0  0  0  0
 24  7  1  0  0  0  0
 27  2  1  0  0  0  0
 27  5  1  0  0  0  0
 28 23  1  1  0  0  0
 28  9  1  0  0  0  0
 28  6  1  0  0  0  0
 29 30  1  0  0  0  0
 30 31  2  0  0  0  0
 30 32  1  0  0  0  0
M  END
>  <MODEL>
9

>  <REMARK>
 VINA RESULT:      -6.9      2.774      8.514
  Name = 
  1 active torsions:
  status: ('A' for Active; 'I' for Inactive)
    1  A    between atoms: C_20  and  N_29
                            x       y       z     vdW  Elec       q    Type
                         _______ _______ _______ _____ _____    ______ ____

>  <TORSDO>
F 1

$$$$
