=
 OpenBabel11112418063D

 34 40  0  0  1  0  0  0  0  0999 V2000
  189.0600  175.3480  142.8460 C   0  0  0  0  0  0  0  0  0  0  0  0
  191.0830  173.7750  142.7690 C   0  0  0  0  0  3  0  0  0  0  0  0
  184.4940  178.5570  146.3180 C   0  0  0  0  0  0  0  0  0  0  0  0
  187.1830  176.8960  143.1610 C   0  0  0  0  0  0  0  0  0  0  0  0
  186.7010  177.8050  145.3890 C   0  0  0  0  0  0  0  0  0  0  0  0
  186.5260  178.7650  147.7750 C   0  0  0  0  0  1  0  0  0  0  0  0
  183.8860  177.9510  147.2410 O   0  0  0  0  0  0  0  0  0  0  0  0
  184.5090  179.5420  144.0470 C   0  0  0  0  0  2  0  0  0  0  0  0
  190.3920  174.7000  144.7600 C   0  0  0  0  0  0  0  0  0  0  0  0
  192.3900  174.9080  147.0590 C   0  0  0  0  0  2  0  0  0  0  0  0
  187.7830  177.0660  145.8880 C   0  0  0  0  0  3  0  0  0  0  0  0
  185.1720  178.3680  143.3410 C   0  0  0  0  0  2  0  0  0  0  0  0
  189.6420  175.5120  145.6190 C   0  0  0  0  0  0  0  0  0  0  0  0
  191.9250  173.3350  143.7020 C   0  0  0  0  0  3  0  0  0  0  0  0
  186.3890  177.7220  143.9960 C   0  0  0  0  0  0  0  0  0  0  0  0
  183.7720  179.0540  145.1980 N   0  0  0  0  0  2  0  0  0  0  0  0
  192.6620  174.7030  145.6380 N   0  0  0  0  0  0  0  0  0  0  0  0
  188.2670  176.1660  143.6900 C   0  0  0  0  0  0  0  0  0  0  0  0
  185.9790  178.7350  146.3480 C   0  0  2  0  0  3  0  0  0  0  0  0
  188.5620  176.2460  145.0750 C   0  0  0  0  0  0  0  0  0  0  0  0
  187.6070  176.0210  140.9000 C   0  0  0  0  0  3  0  0  0  0  0  0
  191.4200  176.0600  147.2820 C   0  0  0  0  0  2  0  0  0  0  0  0
  186.8720  176.7710  141.7200 C   0  0  0  0  0  3  0  0  0  0  0  0
  189.9860  175.5900  147.0780 C   0  0  0  0  0  2  0  0  0  0  0  0
  191.5880  173.8610  145.0850 C   0  0  1  0  0  3  0  0  0  0  0  0
  188.8160  175.2600  141.3610 C   0  0  0  0  0  2  0  0  0  0  0  0
  190.1140  174.6340  143.4190 C   0  0  0  0  0  0  0  0  0  0  0  0
  193.9200  173.9660  145.6040 C   0  0  0  0  0  2  0  0  0  0  0  0
  195.0840  174.9400  145.6100 C   0  0  0  0  0  2  0  0  0  0  0  0
  197.7600  175.5810  143.3510 N   0  0  0  0  0  2  0  0  0  0  0  0
  195.5360  176.3710  143.6460 C   0  0  0  0  0  2  0  0  0  0  0  0
  195.7250  175.0010  144.2350 C   0  0  1  0  0  3  0  0  0  0  0  0
  196.9190  176.7570  143.1970 C   0  0  0  0  0  2  0  0  0  0  0  0
  197.1600  174.7820  144.3390 N   0  0  0  0  0  2  0  0  0  0  0  0
  1 27  2  0  0  0  0
  1 18  1  0  0  0  0
  2 27  1  0  0  0  0
  2 14  2  0  0  0  0
  3 19  1  0  0  0  0
  3  7  2  0  0  0  0
  4 18  2  0  0  0  0
  4 15  1  0  0  0  0
  5 11  1  0  0  0  0
  5 19  1  0  0  0  0
  8 16  1  0  0  0  0
  9 25  1  0  0  0  0
  9 13  2  0  0  0  0
 10 22  1  0  0  0  0
 12 15  1  0  0  0  0
 12  8  1  0  0  0  0
 13 24  1  0  0  0  0
 15  5  2  0  0  0  0
 16  3  1  0  0  0  0
 17 10  1  0  0  0  0
 18 20  1  0  0  0  0
 19  6  1  1  0  0  0
 20 13  1  0  0  0  0
 20 11  2  0  0  0  0
 21 26  1  0  0  0  0
 21 23  2  0  0  0  0
 23  4  1  0  0  0  0
 24 22  1  0  0  0  0
 25 14  1  6  0  0  0
 25 17  1  0  0  0  0
 26  1  1  0  0  0  0
 27  9  1  0  0  0  0
 28 29  1  0  0  0  0
 28 17  1  0  0  0  0
 30 34  1  0  0  0  0
 31 32  1  0  0  0  0
 32 34  1  0  0  0  0
 32 29  1  1  0  0  0
 33 30  1  0  0  0  0
 33 31  1  0  0  0  0
M  END
>  <MODEL>
1

>  <REMARK>
 VINA RESULT:      -9.5      0.000      0.000
  Name = 
  3 active torsions:
  status: ('A' for Active; 'I' for Inactive)
    1  A    between atoms: N_17  and  C_28
    2  A    between atoms: C_28  and  C_29
    3  A    between atoms: C_29  and  C_32
                            x       y       z     vdW  Elec       q    Type
                         _______ _______ _______ _____ _____    ______ ____

>  <TORSDO>
F 3

$$$$
=
 OpenBabel11112418063D

 34 40  0  0  1  0  0  0  0  0999 V2000
  189.0640  175.3370  142.8710 C   0  0  0  0  0  0  0  0  0  0  0  0
  191.1020  173.7830  142.7820 C   0  0  0  0  0  3  0  0  0  0  0  0
  184.5220  178.5450  146.3740 C   0  0  0  0  0  0  0  0  0  0  0  0
  187.1780  176.8710  143.1960 C   0  0  0  0  0  0  0  0  0  0  0  0
  186.7220  177.8030  145.4200 C   0  0  0  0  0  0  0  0  0  0  0  0
  186.5730  178.7900  147.7960 C   0  0  0  0  0  1  0  0  0  0  0  0
  183.9330  177.9440  147.3130 O   0  0  0  0  0  0  0  0  0  0  0  0
  184.4920  179.5020  144.0910 C   0  0  0  0  0  2  0  0  0  0  0  0
  190.4320  174.7250  144.7720 C   0  0  0  0  0  0  0  0  0  0  0  0
  192.4630  174.9800  147.0370 C   0  0  0  0  0  2  0  0  0  0  0  0
  187.8180  177.0800  145.9110 C   0  0  0  0  0  3  0  0  0  0  0  0
  185.1550  178.3260  143.3890 C   0  0  0  0  0  2  0  0  0  0  0  0
  189.6880  175.5400  145.6320 C   0  0  0  0  0  0  0  0  0  0  0  0
  191.9620  173.3620  143.7070 C   0  0  0  0  0  3  0  0  0  0  0  0
  186.3880  177.6990  144.0330 C   0  0  0  0  0  0  0  0  0  0  0  0
  183.7770  179.0210  145.2600 N   0  0  0  0  0  2  0  0  0  0  0  0
  192.7150  174.7610  145.6150 N   0  0  0  0  0  0  0  0  0  0  0  0
  188.2770  176.1580  143.7170 C   0  0  0  0  0  0  0  0  0  0  0  0
  186.0050  178.7380  146.3790 C   0  0  2  0  0  3  0  0  0  0  0  0
  188.5920  176.2570  145.0960 C   0  0  0  0  0  0  0  0  0  0  0  0
  187.5750  175.9720  140.9400 C   0  0  0  0  0  3  0  0  0  0  0  0
  191.4850  176.1260  147.2610 C   0  0  0  0  0  2  0  0  0  0  0  0
  186.8460  176.7250  141.7620 C   0  0  0  0  0  3  0  0  0  0  0  0
  190.0540  175.6400  147.0850 C   0  0  0  0  0  2  0  0  0  0  0  0
  191.6410  173.9020  145.0890 C   0  0  1  0  0  3  0  0  0  0  0  0
  188.7990  175.2280  141.3910 C   0  0  0  0  0  2  0  0  0  0  0  0
  190.1350  174.6400  143.4360 C   0  0  0  0  0  0  0  0  0  0  0  0
  193.9800  174.0350  145.5700 C   0  0  0  0  0  2  0  0  0  0  0  0
  195.1200  174.9750  145.9160 C   0  0  0  0  0  2  0  0  0  0  0  0
  197.0710  172.8180  143.8620 N   0  0  0  0  0  2  0  0  0  0  0  0
  196.9750  173.3620  146.1750 C   0  0  0  0  0  2  0  0  0  0  0  0
  196.4200  174.4650  145.3190 C   0  0  1  0  0  3  0  0  0  0  0  0
  197.2680  172.2630  145.1920 C   0  0  0  0  0  2  0  0  0  0  0  0
  196.1780  173.8950  144.0020 N   0  0  0  0  0  2  0  0  0  0  0  0
  1 27  2  0  0  0  0
  1 18  1  0  0  0  0
  2 27  1  0  0  0  0
  2 14  2  0  0  0  0
  3 19  1  0  0  0  0
  3  7  2  0  0  0  0
  4 18  2  0  0  0  0
  4 15  1  0  0  0  0
  5 11  1  0  0  0  0
  5 19  1  0  0  0  0
  8 16  1  0  0  0  0
  9 25  1  0  0  0  0
  9 13  2  0  0  0  0
 10 22  1  0  0  0  0
 12 15  1  0  0  0  0
 12  8  1  0  0  0  0
 13 24  1  0  0  0  0
 15  5  2  0  0  0  0
 16  3  1  0  0  0  0
 17 10  1  0  0  0  0
 18 20  1  0  0  0  0
 19  6  1  1  0  0  0
 20 13  1  0  0  0  0
 20 11  2  0  0  0  0
 21 26  1  0  0  0  0
 21 23  2  0  0  0  0
 23  4  1  0  0  0  0
 24 22  1  0  0  0  0
 25 14  1  6  0  0  0
 25 17  1  0  0  0  0
 26  1  1  0  0  0  0
 27  9  1  0  0  0  0
 28 17  1  0  0  0  0
 28 29  1  0  0  0  0
 30 34  1  0  0  0  0
 30 33  1  0  0  0  0
 32 29  1  1  0  0  0
 32 31  1  0  0  0  0
 33 31  1  0  0  0  0
 34 32  1  0  0  0  0
M  END
>  <MODEL>
2

>  <REMARK>
 VINA RESULT:      -9.4      0.891      1.263
  Name = 
  3 active torsions:
  status: ('A' for Active; 'I' for Inactive)
    1  A    between atoms: N_17  and  C_28
    2  A    between atoms: C_28  and  C_29
    3  A    between atoms: C_29  and  C_32
                            x       y       z     vdW  Elec       q    Type
                         _______ _______ _______ _____ _____    ______ ____

>  <TORSDO>
F 3

$$$$
=
 OpenBabel11112418063D

 34 40  0  0  1  0  0  0  0  0999 V2000
  189.5080  174.9840  142.2560 C   0  0  0  0  0  0  0  0  0  0  0  0
  187.0540  175.6660  142.5500 C   0  0  0  0  0  3  0  0  0  0  0  0
  195.8440  175.7690  143.8160 C   0  0  0  0  0  0  0  0  0  0  0  0
  191.8990  174.4370  142.1990 C   0  0  0  0  0  0  0  0  0  0  0  0
  193.3900  175.2630  143.9640 C   0  0  0  0  0  0  0  0  0  0  0  0
  194.7010  176.0840  146.0260 C   0  0  0  0  0  1  0  0  0  0  0  0
  196.3190  176.9340  143.8870 O   0  0  0  0  0  0  0  0  0  0  0  0
  195.6480  173.6040  142.6320 C   0  0  0  0  0  2  0  0  0  0  0  0
  188.6570  176.3780  144.0410 C   0  0  0  0  0  0  0  0  0  0  0  0
  187.7870  177.2290  146.8410 C   0  0  0  0  0  2  0  0  0  0  0  0
  192.2860  175.8920  144.5560 C   0  0  0  0  0  3  0  0  0  0  0  0
  194.3240  173.8910  141.9400 C   0  0  0  0  0  2  0  0  0  0  0  0
  189.9200  176.4750  144.6340 C   0  0  0  0  0  0  0  0  0  0  0  0
  186.4200  176.3960  143.4650 C   0  0  0  0  0  3  0  0  0  0  0  0
  193.1990  174.5190  142.7580 C   0  0  0  0  0  0  0  0  0  0  0  0
  196.3530  174.8530  142.8550 N   0  0  0  0  0  2  0  0  0  0  0  0
  187.0480  176.4300  145.8660 N   0  0  0  0  0  0  0  0  0  0  0  0
  190.8060  175.0760  142.8180 C   0  0  0  0  0  0  0  0  0  0  0  0
  194.7190  175.3290  144.6970 C   0  0  2  0  0  3  0  0  0  0  0  0
  191.0070  175.8220  144.0080 C   0  0  0  0  0  0  0  0  0  0  0  0
  190.4620  173.5770  140.3950 C   0  0  0  0  0  3  0  0  0  0  0  0
  189.2120  176.7210  147.0140 C   0  0  0  0  0  2  0  0  0  0  0  0
  191.6730  173.6930  140.9400 C   0  0  0  0  0  3  0  0  0  0  0  0
  190.1020  177.2580  145.9030 C   0  0  0  0  0  2  0  0  0  0  0  0
  187.3590  176.9460  144.5230 C   0  0  1  0  0  3  0  0  0  0  0  0
  189.2310  174.1700  141.0170 C   0  0  0  0  0  2  0  0  0  0  0  0
  188.4600  175.6460  142.8980 C   0  0  0  0  0  0  0  0  0  0  0  0
  185.6430  176.6820  146.1680 C   0  0  0  0  0  2  0  0  0  0  0  0
  185.5080  178.0010  146.9070 C   0  0  0  0  0  2  0  0  0  0  0  0
  183.8660  179.0980  143.9440 N   0  0  0  0  0  2  0  0  0  0  0  0
  185.6680  179.8660  145.2940 C   0  0  0  0  0  2  0  0  0  0  0  0
  184.7220  178.9940  146.0700 C   0  0  1  0  0  3  0  0  0  0  0  0
  185.1390  179.8000  143.8880 C   0  0  0  0  0  2  0  0  0  0  0  0
  183.9010  178.2910  145.0950 N   0  0  0  0  0  2  0  0  0  0  0  0
  1 18  1  0  0  0  0
  1 27  2  0  0  0  0
  2 27  1  0  0  0  0
  2 14  2  0  0  0  0
  3  7  2  0  0  0  0
  3 19  1  0  0  0  0
  4 15  1  0  0  0  0
  4 18  2  0  0  0  0
  5 11  1  0  0  0  0
  5 19  1  0  0  0  0
  8 16  1  0  0  0  0
  9 25  1  0  0  0  0
  9 13  2  0  0  0  0
 10 22  1  0  0  0  0
 12  8  1  0  0  0  0
 12 15  1  0  0  0  0
 13 24  1  0  0  0  0
 15  5  2  0  0  0  0
 16  3  1  0  0  0  0
 17 28  1  0  0  0  0
 17 10  1  0  0  0  0
 18 20  1  0  0  0  0
 19  6  1  1  0  0  0
 20 11  2  0  0  0  0
 20 13  1  0  0  0  0
 21 23  2  0  0  0  0
 21 26  1  0  0  0  0
 23  4  1  0  0  0  0
 24 22  1  0  0  0  0
 25 14  1  6  0  0  0
 25 17  1  0  0  0  0
 26  1  1  0  0  0  0
 27  9  1  0  0  0  0
 28 29  1  0  0  0  0
 30 34  1  0  0  0  0
 31 32  1  0  0  0  0
 32 29  1  6  0  0  0
 33 30  1  0  0  0  0
 33 31  1  0  0  0  0
 34 32  1  0  0  0  0
M  END
>  <MODEL>
3

>  <REMARK>
 VINA RESULT:      -9.0      2.750      8.226
  Name = 
  3 active torsions:
  status: ('A' for Active; 'I' for Inactive)
    1  A    between atoms: N_17  and  C_28
    2  A    between atoms: C_28  and  C_29
    3  A    between atoms: C_29  and  C_32
                            x       y       z     vdW  Elec       q    Type
                         _______ _______ _______ _____ _____    ______ ____

>  <TORSDO>
F 3

$$$$
=
 OpenBabel11112418063D

 34 40  0  0  1  0  0  0  0  0999 V2000
  192.2540  175.7620  145.3690 C   0  0  0  0  0  0  0  0  0  0  0  0
  190.3530  177.4730  145.1890 C   0  0  0  0  0  3  0  0  0  0  0  0
  194.3240  169.5300  145.1100 C   0  0  0  0  0  0  0  0  0  0  0  0
  193.9280  173.9690  145.4060 C   0  0  0  0  0  0  0  0  0  0  0  0
  193.3910  171.7680  144.4630 C   0  0  0  0  0  0  0  0  0  0  0  0
  192.6530  169.6220  143.2420 C   0  0  0  0  0  1  0  0  0  0  0  0
  193.6470  168.6330  145.6820 O   0  0  0  0  0  0  0  0  0  0  0  0
  196.3360  170.9710  145.0270 C   0  0  0  0  0  2  0  0  0  0  0  0
  190.0650  175.3170  144.4360 C   0  0  0  0  0  0  0  0  0  0  0  0
  187.8990  174.7600  142.3580 C   0  0  0  0  0  2  0  0  0  0  0  0
  192.1140  172.2530  144.1470 C   0  0  0  0  0  3  0  0  0  0  0  0
  195.6950  172.2160  145.6220 C   0  0  0  0  0  2  0  0  0  0  0  0
  190.4170  174.0020  144.1130 C   0  0  0  0  0  0  0  0  0  0  0  0
  189.1170  177.4070  144.6970 C   0  0  0  0  0  3  0  0  0  0  0  0
  194.3230  172.6410  145.1080 C   0  0  0  0  0  0  0  0  0  0  0  0
  195.6550  169.7930  145.5360 N   0  0  0  0  0  2  0  0  0  0  0  0
  188.5020  176.0420  142.7170 N   0  0  0  0  0  0  0  0  0  0  0  0
  192.6380  174.4300  145.0730 C   0  0  0  0  0  0  0  0  0  0  0  0
  193.7470  170.3630  144.0110 C   0  0  2  0  0  3  0  0  0  0  0  0
  191.7170  173.5540  144.4440 C   0  0  0  0  0  0  0  0  0  0  0  0
  194.5330  176.1510  146.3720 C   0  0  0  0  0  3  0  0  0  0  0  0
  188.9580  173.6940  142.1120 C   0  0  0  0  0  2  0  0  0  0  0  0
  194.8610  174.8900  146.0930 C   0  0  0  0  0  3  0  0  0  0  0  0
  189.4270  173.1000  143.4320 C   0  0  0  0  0  2  0  0  0  0  0  0
  188.7760  176.0280  144.1640 C   0  0  1  0  0  3  0  0  0  0  0  0
  193.2060  176.7470  145.9980 C   0  0  0  0  0  3  0  0  0  0  0  0
  190.9600  176.1680  145.0320 C   0  0  1  0  0  3  0  0  0  0  0  0
  187.4690  177.0310  142.4310 C   0  0  0  0  0  2  0  0  0  0  0  0
  186.1160  176.4970  142.8630 C   0  0  0  0  0  2  0  0  0  0  0  0
  185.5330  179.8290  143.9760 N   0  0  0  0  0  2  0  0  0  0  0  0
  185.3360  177.6490  144.9060 C   0  0  0  0  0  2  0  0  0  0  0  0
  185.2560  177.6250  143.4050 C   0  0  1  0  0  3  0  0  0  0  0  0
  185.6440  179.0870  145.2210 C   0  0  0  0  0  2  0  0  0  0  0  0
  185.7560  178.9090  142.9360 N   0  0  0  0  0  2  0  0  0  0  0  0
  1 26  2  0  0  0  0
  3 16  1  0  0  0  0
  3  7  2  0  0  0  0
  4 23  1  0  0  0  0
  5 15  1  0  0  0  0
  8 16  1  0  0  0  0
  8 12  1  0  0  0  0
  9 27  1  0  0  0  0
 10 17  1  0  0  0  0
 11 20  1  0  0  0  0
 11  5  2  0  0  0  0
 13  9  2  0  0  0  0
 13 20  1  0  0  0  0
 14  2  2  0  0  0  0
 15  4  2  0  0  0  0
 15 12  1  0  0  0  0
 17 25  1  0  0  0  0
 18  1  1  0  0  0  0
 18  4  1  0  0  0  0
 19  6  1  1  0  0  0
 19  5  1  0  0  0  0
 19  3  1  0  0  0  0
 20 18  2  0  0  0  0
 22 10  1  0  0  0  0
 22 24  1  0  0  0  0
 23 21  2  0  0  0  0
 24 13  1  0  0  0  0
 25  9  1  0  0  0  0
 25 14  1  6  0  0  0
 26 21  1  0  0  0  0
 27  2  1  6  0  0  0
 27  1  1  0  0  0  0
 28 17  1  0  0  0  0
 28 29  1  0  0  0  0
 30 33  1  0  0  0  0
 31 33  1  0  0  0  0
 32 29  1  6  0  0  0
 32 31  1  0  0  0  0
 34 32  1  0  0  0  0
 34 30  1  0  0  0  0
M  END
>  <MODEL>
4

>  <REMARK>
 VINA RESULT:      -9.0      3.301      9.086
  Name = 
  3 active torsions:
  status: ('A' for Active; 'I' for Inactive)
    1  A    between atoms: N_17  and  C_28
    2  A    between atoms: C_28  and  C_29
    3  A    between atoms: C_29  and  C_32
                            x       y       z     vdW  Elec       q    Type
                         _______ _______ _______ _____ _____    ______ ____

>  <TORSDO>
F 3

$$$$
=
 OpenBabel11112418063D

 34 40  0  0  1  0  0  0  0  0999 V2000
  189.8240  174.7190  144.8850 C   0  0  0  0  0  0  0  0  0  0  0  0
  191.6990  173.4220  143.7120 C   0  0  0  0  0  3  0  0  0  0  0  0
  184.9050  179.0700  144.6200 C   0  0  0  0  0  0  0  0  0  0  0  0
  187.9280  175.9920  145.7800 C   0  0  0  0  0  0  0  0  0  0  0  0
  186.3080  177.0220  144.2500 C   0  0  0  0  0  0  0  0  0  0  0  0
  184.6510  177.8340  142.4510 C   0  0  0  0  0  1  0  0  0  0  0  0
  185.0730  180.1500  143.9930 O   0  0  0  0  0  0  0  0  0  0  0  0
  184.6810  177.8460  146.7600 C   0  0  0  0  0  2  0  0  0  0  0  0
  190.0970  174.5340  142.4870 C   0  0  0  0  0  0  0  0  0  0  0  0
  189.5800  173.6640  139.6070 C   0  0  0  0  0  2  0  0  0  0  0  0
  187.0510  176.5130  143.1760 C   0  0  0  0  0  3  0  0  0  0  0  0
  186.1180  177.3500  146.8400 C   0  0  0  0  0  2  0  0  0  0  0  0
  188.9350  175.2760  142.2480 C   0  0  0  0  0  0  0  0  0  0  0  0
  191.9840  173.2030  142.4300 C   0  0  0  0  0  3  0  0  0  0  0  0
  186.7510  176.7600  145.5850 C   0  0  0  0  0  0  0  0  0  0  0  0
  184.6460  179.0930  146.0180 N   0  0  0  0  0  2  0  0  0  0  0  0
  190.2570  172.9240  140.6690 N   0  0  0  0  0  0  0  0  0  0  0  0
  188.6530  175.4910  144.6800 C   0  0  0  0  0  0  0  0  0  0  0  0
  185.0100  177.7450  143.9340 C   0  0  2  0  0  3  0  0  0  0  0  0
  188.2120  175.7660  143.3600 C   0  0  0  0  0  0  0  0  0  0  0  0
  189.5140  174.9890  147.3710 C   0  0  0  0  0  3  0  0  0  0  0  0
  188.2530  174.2390  140.0840 C   0  0  0  0  0  2  0  0  0  0  0  0
  188.4250  175.7220  147.1470 C   0  0  0  0  0  3  0  0  0  0  0  0
  188.4820  175.5390  140.8410 C   0  0  0  0  0  2  0  0  0  0  0  0
  191.0080  173.8870  141.4900 C   0  0  1  0  0  3  0  0  0  0  0  0
  190.3140  174.3620  146.2660 C   0  0  0  0  0  3  0  0  0  0  0  0
  190.5160  174.2570  143.7640 C   0  0  1  0  0  3  0  0  0  0  0  0
  191.1940  172.0480  139.9730 C   0  0  0  0  0  2  0  0  0  0  0  0
  190.6420  170.6350  139.9380 C   0  0  0  0  0  2  0  0  0  0  0  0
  191.5480  170.6910  136.4940 N   0  0  0  0  0  2  0  0  0  0  0  0
  189.6660  169.9790  137.7640 C   0  0  0  0  0  2  0  0  0  0  0  0
  190.9220  169.9960  138.5890 C   0  0  1  0  0  3  0  0  0  0  0  0
  190.1000  170.5590  136.4460 C   0  0  0  0  0  2  0  0  0  0  0  0
  191.8990  170.7850  137.8520 N   0  0  0  0  0  2  0  0  0  0  0  0
  1 26  2  0  0  0  0
  3 16  1  0  0  0  0
  4 23  1  0  0  0  0
  5 15  1  0  0  0  0
  7  3  2  0  0  0  0
  8 12  1  0  0  0  0
  9 27  1  0  0  0  0
 10 22  1  0  0  0  0
 10 17  1  0  0  0  0
 11 20  1  0  0  0  0
 11  5  2  0  0  0  0
 13  9  2  0  0  0  0
 13 20  1  0  0  0  0
 14  2  2  0  0  0  0
 15  4  2  0  0  0  0
 15 12  1  0  0  0  0
 16  8  1  0  0  0  0
 17 25  1  0  0  0  0
 18  1  1  0  0  0  0
 18  4  1  0  0  0  0
 19  6  1  6  0  0  0
 19  5  1  0  0  0  0
 19  3  1  0  0  0  0
 20 18  2  0  0  0  0
 22 24  1  0  0  0  0
 23 21  2  0  0  0  0
 24 13  1  0  0  0  0
 25 14  1  1  0  0  0
 25  9  1  0  0  0  0
 26 21  1  0  0  0  0
 27  2  1  1  0  0  0
 27  1  1  0  0  0  0
 28 17  1  0  0  0  0
 29 28  1  0  0  0  0
 30 34  1  0  0  0  0
 31 32  1  0  0  0  0
 32 29  1  1  0  0  0
 33 30  1  0  0  0  0
 33 31  1  0  0  0  0
 34 32  1  0  0  0  0
M  END
>  <MODEL>
5

>  <REMARK>
 VINA RESULT:      -8.7      3.468      5.670
  Name = 
  3 active torsions:
  status: ('A' for Active; 'I' for Inactive)
    1  A    between atoms: N_17  and  C_28
    2  A    between atoms: C_28  and  C_29
    3  A    between atoms: C_29  and  C_32
                            x       y       z     vdW  Elec       q    Type
                         _______ _______ _______ _____ _____    ______ ____

>  <TORSDO>
F 3

$$$$
=
 OpenBabel11112418063D

 34 40  0  0  1  0  0  0  0  0999 V2000
  186.1980  178.2130  145.7150 C   0  0  0  0  0  0  0  0  0  0  0  0
  183.9200  178.8560  144.7330 C   0  0  0  0  0  3  0  0  0  0  0  0
  191.7010  174.6310  145.4190 C   0  0  0  0  0  0  0  0  0  0  0  0
  188.4390  177.5120  146.4270 C   0  0  0  0  0  0  0  0  0  0  0  0
  189.8920  176.2840  144.8760 C   0  0  0  0  0  0  0  0  0  0  0  0
  191.2870  175.1860  143.0080 C   0  0  0  0  0  1  0  0  0  0  0  0
  191.6200  173.4010  145.1570 O   0  0  0  0  0  0  0  0  0  0  0  0
  192.1050  176.4550  147.0440 C   0  0  0  0  0  2  0  0  0  0  0  0
  185.4300  177.6400  143.4930 C   0  0  0  0  0  0  0  0  0  0  0  0
  185.1990  177.6690  140.4490 C   0  0  0  0  0  2  0  0  0  0  0  0
  188.8700  176.3520  143.9180 C   0  0  0  0  0  3  0  0  0  0  0  0
  190.6450  176.7680  147.3360 C   0  0  0  0  0  2  0  0  0  0  0  0
  186.6410  177.0110  143.1830 C   0  0  0  0  0  0  0  0  0  0  0  0
  183.3520  178.6460  143.5460 C   0  0  0  0  0  3  0  0  0  0  0  0
  189.6770  176.8740  146.1610 C   0  0  0  0  0  0  0  0  0  0  0  0
  192.2290  175.0580  146.6680 N   0  0  0  0  0  2  0  0  0  0  0  0
  184.6170  178.6020  141.4110 N   0  0  0  0  0  0  0  0  0  0  0  0
  187.4310  177.5680  145.4430 C   0  0  0  0  0  0  0  0  0  0  0  0
  191.2150  175.6670  144.4560 C   0  0  2  0  0  3  0  0  0  0  0  0
  187.6480  176.9690  144.1750 C   0  0  0  0  0  0  0  0  0  0  0  0
  187.0350  178.7370  148.0340 C   0  0  0  0  0  3  0  0  0  0  0  0
  186.6770  177.4330  140.7240 C   0  0  0  0  0  2  0  0  0  0  0  0
  188.1780  178.1130  147.7530 C   0  0  0  0  0  3  0  0  0  0  0  0
  186.8510  176.4000  141.8280 C   0  0  0  0  0  2  0  0  0  0  0  0
  184.2370  177.8410  142.6120 C   0  0  1  0  0  3  0  0  0  0  0  0
  185.9310  178.9010  147.0300 C   0  0  0  0  0  3  0  0  0  0  0  0
  185.2260  178.2300  144.7140 C   0  0  1  0  0  3  0  0  0  0  0  0
  183.4130  179.1060  140.7570 C   0  0  0  0  0  2  0  0  0  0  0  0
  182.5180  177.9440  140.3680 C   0  0  0  0  0  2  0  0  0  0  0  0
  179.0760  178.6720  139.8200 N   0  0  0  0  0  2  0  0  0  0  0  0
  180.8800  179.6850  140.9930 C   0  0  0  0  0  2  0  0  0  0  0  0
  181.0910  178.2080  140.8140 C   0  0  1  0  0  3  0  0  0  0  0  0
  179.6200  179.9600  140.2190 C   0  0  0  0  0  2  0  0  0  0  0  0
  180.1550  177.7710  139.7880 N   0  0  0  0  0  2  0  0  0  0  0  0
  1 26  2  0  0  0  0
  3 16  1  0  0  0  0
  4 23  1  0  0  0  0
  5 15  1  0  0  0  0
  7  3  2  0  0  0  0
  8 12  1  0  0  0  0
  9 27  1  0  0  0  0
 10 22  1  0  0  0  0
 10 17  1  0  0  0  0
 11 20  1  0  0  0  0
 11  5  2  0  0  0  0
 13  9  2  0  0  0  0
 13 20  1  0  0  0  0
 14  2  2  0  0  0  0
 15  4  2  0  0  0  0
 15 12  1  0  0  0  0
 16  8  1  0  0  0  0
 17 25  1  0  0  0  0
 18  1  1  0  0  0  0
 18  4  1  0  0  0  0
 19  6  1  6  0  0  0
 19  5  1  0  0  0  0
 19  3  1  0  0  0  0
 20 18  2  0  0  0  0
 22 24  1  0  0  0  0
 23 21  2  0  0  0  0
 24 13  1  0  0  0  0
 25  9  1  0  0  0  0
 25 14  1  1  0  0  0
 26 21  1  0  0  0  0
 27  2  1  6  0  0  0
 27  1  1  0  0  0  0
 28 17  1  0  0  0  0
 29 28  1  0  0  0  0
 30 33  1  0  0  0  0
 32 29  1  6  0  0  0
 32 31  1  0  0  0  0
 33 31  1  0  0  0  0
 34 30  1  0  0  0  0
 34 32  1  0  0  0  0
M  END
>  <MODEL>
6

>  <REMARK>
 VINA RESULT:      -8.6      3.160      9.679
  Name = 
  3 active torsions:
  status: ('A' for Active; 'I' for Inactive)
    1  A    between atoms: N_17  and  C_28
    2  A    between atoms: C_28  and  C_29
    3  A    between atoms: C_29  and  C_32
                            x       y       z     vdW  Elec       q    Type
                         _______ _______ _______ _____ _____    ______ ____

>  <TORSDO>
F 3

$$$$
=
 OpenBabel11112418063D

 34 40  0  0  1  0  0  0  0  0999 V2000
  189.9500  173.2870  142.7700 C   0  0  0  0  0  0  0  0  0  0  0  0
  187.6230  174.2450  142.2750 C   0  0  0  0  0  3  0  0  0  0  0  0
  196.1420  174.1720  144.7860 C   0  0  0  0  0  0  0  0  0  0  0  0
  192.2120  172.5710  143.3900 C   0  0  0  0  0  0  0  0  0  0  0  0
  193.6360  174.0380  144.7480 C   0  0  0  0  0  0  0  0  0  0  0  0
  194.8520  175.6680  146.3320 C   0  0  0  0  0  1  0  0  0  0  0  0
  196.7920  175.1630  144.3570 O   0  0  0  0  0  0  0  0  0  0  0  0
  195.7130  171.7340  144.7980 C   0  0  0  0  0  2  0  0  0  0  0  0
  189.1640  175.4660  143.4730 C   0  0  0  0  0  0  0  0  0  0  0  0
  188.1720  177.6960  145.3070 C   0  0  0  0  0  2  0  0  0  0  0  0
  192.5960  174.9780  144.7620 C   0  0  0  0  0  3  0  0  0  0  0  0
  194.5290  171.7500  143.8420 C   0  0  0  0  0  2  0  0  0  0  0  0
  190.3620  175.7350  144.1450 C   0  0  0  0  0  0  0  0  0  0  0  0
  187.0290  175.3940  142.5950 C   0  0  0  0  0  3  0  0  0  0  0  0
  193.4460  172.8060  144.0470 C   0  0  0  0  0  0  0  0  0  0  0  0
  196.5870  172.8530  144.4970 N   0  0  0  0  0  2  0  0  0  0  0  0
  187.4130  176.5840  144.7400 N   0  0  0  0  0  0  0  0  0  0  0  0
  191.1830  173.5330  143.4240 C   0  0  0  0  0  0  0  0  0  0  0  0
  194.8780  174.3450  145.5660 C   0  0  2  0  0  3  0  0  0  0  0  0
  191.3840  174.7580  144.1110 C   0  0  0  0  0  0  0  0  0  0  0  0
  190.8400  171.0510  142.0250 C   0  0  0  0  0  3  0  0  0  0  0  0
  189.4700  177.2180  145.9430 C   0  0  0  0  0  2  0  0  0  0  0  0
  191.9930  171.3160  142.6390 C   0  0  0  0  0  3  0  0  0  0  0  0
  190.5420  177.0320  144.8790 C   0  0  0  0  0  2  0  0  0  0  0  0
  187.9360  176.3160  143.3900 C   0  0  1  0  0  3  0  0  0  0  0  0
  189.6670  171.9870  142.0610 C   0  0  0  0  0  2  0  0  0  0  0  0
  188.9650  174.2770  142.8200 C   0  0  0  0  0  0  0  0  0  0  0  0
  186.0450  177.0820  144.6380 C   0  0  0  0  0  2  0  0  0  0  0  0
  186.0580  178.5980  144.5600 C   0  0  0  0  0  2  0  0  0  0  0  0
  183.7640  178.1470  141.8740 N   0  0  0  0  0  2  0  0  0  0  0  0
  186.0140  178.8850  142.1060 C   0  0  0  0  0  2  0  0  0  0  0  0
  185.2320  179.0690  143.3760 C   0  0  1  0  0  3  0  0  0  0  0  0
  185.0520  178.1660  141.2000 C   0  0  0  0  0  2  0  0  0  0  0  0
  184.0270  178.2620  143.2500 N   0  0  0  0  0  2  0  0  0  0  0  0
  1 27  2  0  0  0  0
  1 18  1  0  0  0  0
  2 14  2  0  0  0  0
  2 27  1  0  0  0  0
  3 19  1  0  0  0  0
  4 18  2  0  0  0  0
  4 15  1  0  0  0  0
  5 11  1  0  0  0  0
  5 19  1  0  0  0  0
  7  3  2  0  0  0  0
  9 13  2  0  0  0  0
 10 22  1  0  0  0  0
 12 15  1  0  0  0  0
 12  8  1  0  0  0  0
 13 24  1  0  0  0  0
 15  5  2  0  0  0  0
 16  3  1  0  0  0  0
 16  8  1  0  0  0  0
 17 10  1  0  0  0  0
 18 20  1  0  0  0  0
 19  6  1  6  0  0  0
 20 13  1  0  0  0  0
 20 11  2  0  0  0  0
 21 26  1  0  0  0  0
 21 23  2  0  0  0  0
 23  4  1  0  0  0  0
 24 22  1  0  0  0  0
 25 14  1  6  0  0  0
 25  9  1  0  0  0  0
 25 17  1  0  0  0  0
 26  1  1  0  0  0  0
 27  9  1  0  0  0  0
 28 17  1  0  0  0  0
 29 28  1  0  0  0  0
 30 34  1  0  0  0  0
 31 32  1  0  0  0  0
 32 29  1  1  0  0  0
 33 30  1  0  0  0  0
 33 31  1  0  0  0  0
 34 32  1  0  0  0  0
M  END
>  <MODEL>
7

>  <REMARK>
 VINA RESULT:      -8.5      2.982      8.520
  Name = 
  3 active torsions:
  status: ('A' for Active; 'I' for Inactive)
    1  A    between atoms: N_17  and  C_28
    2  A    between atoms: C_28  and  C_29
    3  A    between atoms: C_29  and  C_32
                            x       y       z     vdW  Elec       q    Type
                         _______ _______ _______ _____ _____    ______ ____

>  <TORSDO>
F 3

$$$$
=
 OpenBabel11112418063D

 34 40  0  0  1  0  0  0  0  0999 V2000
  190.5550  176.3350  146.1100 C   0  0  0  0  0  0  0  0  0  0  0  0
  188.0450  176.5840  146.5660 C   0  0  0  0  0  3  0  0  0  0  0  0
  195.4430  174.2010  142.2690 C   0  0  0  0  0  0  0  0  0  0  0  0
  192.8970  176.0640  145.4320 C   0  0  0  0  0  0  0  0  0  0  0  0
  193.4430  175.4590  143.1170 C   0  0  0  0  0  0  0  0  0  0  0  0
  193.7580  175.0140  140.5980 C   0  0  0  0  0  1  0  0  0  0  0  0
  195.3780  173.0410  141.7800 O   0  0  0  0  0  0  0  0  0  0  0  0
  196.4300  175.7930  143.8880 C   0  0  0  0  0  2  0  0  0  0  0  0
  188.8020  175.9550  144.4850 C   0  0  0  0  0  0  0  0  0  0  0  0
  186.9980  176.4040  142.0640 C   0  0  0  0  0  2  0  0  0  0  0  0
  192.0700  175.4390  142.8340 C   0  0  0  0  0  3  0  0  0  0  0  0
  195.3190  175.7140  144.9250 C   0  0  0  0  0  2  0  0  0  0  0  0
  189.7300  175.6760  143.4760 C   0  0  0  0  0  0  0  0  0  0  0  0
  186.9650  176.4370  145.8000 C   0  0  0  0  0  3  0  0  0  0  0  0
  193.8720  175.7770  144.4430 C   0  0  0  0  0  0  0  0  0  0  0  0
  196.4970  174.5370  143.1610 N   0  0  0  0  0  2  0  0  0  0  0  0
  186.9080  177.0170  143.3870 N   0  0  0  0  0  0  0  0  0  0  0  0
  191.5230  176.0400  145.1170 C   0  0  1  0  0  3  0  0  0  0  0  0
  194.4060  175.2350  141.9640 C   0  0  2  0  0  3  0  0  0  0  0  0
  191.1060  175.7120  143.8020 C   0  0  0  0  0  0  0  0  0  0  0  0
  192.4220  176.6690  147.7690 C   0  0  0  0  0  3  0  0  0  0  0  0
  188.4150  176.4730  141.5110 C   0  0  0  0  0  2  0  0  0  0  0  0
  193.3080  176.3750  146.8180 C   0  0  0  0  0  3  0  0  0  0  0  0
  189.2620  175.3480  142.0870 C   0  0  0  0  0  2  0  0  0  0  0  0
  187.3100  176.0110  144.3840 C   0  0  1  0  0  3  0  0  0  0  0  0
  190.9440  176.7300  147.5120 C   0  0  0  0  0  3  0  0  0  0  0  0
  189.2060  176.2850  145.7540 C   0  0  0  0  0  0  0  0  0  0  0  0
  185.4920  177.3270  143.5570 C   0  0  0  0  0  2  0  0  0  0  0  0
  185.2640  178.8110  143.3320 C   0  0  0  0  0  2  0  0  0  0  0  0
  185.5660  179.4160  146.8280 N   0  0  0  0  0  2  0  0  0  0  0  0
  183.8540  178.6660  145.3570 C   0  0  0  0  0  2  0  0  0  0  0  0
  184.8870  179.4870  144.6380 C   0  0  1  0  0  3  0  0  0  0  0  0
  184.4070  178.5410  146.7500 C   0  0  0  0  0  2  0  0  0  0  0  0
  186.0460  179.5670  145.5150 N   0  0  0  0  0  2  0  0  0  0  0  0
  1 26  2  0  0  0  0
  3 16  1  0  0  0  0
  4 23  1  0  0  0  0
  5 15  1  0  0  0  0
  7  3  2  0  0  0  0
  8 12  1  0  0  0  0
  9 27  2  0  0  0  0
 10 17  1  0  0  0  0
 11  5  2  0  0  0  0
 11 20  1  0  0  0  0
 13 20  2  0  0  0  0
 13  9  1  0  0  0  0
 14  2  2  0  0  0  0
 15 12  1  0  0  0  0
 15  4  2  0  0  0  0
 16  8  1  0  0  0  0
 17 28  1  0  0  0  0
 17 25  1  0  0  0  0
 18 20  1  1  0  0  0
 18  4  1  0  0  0  0
 18  1  1  0  0  0  0
 19  6  1  6  0  0  0
 19  3  1  0  0  0  0
 19  5  1  0  0  0  0
 22 10  1  0  0  0  0
 22 24  1  0  0  0  0
 23 21  2  0  0  0  0
 24 13  1  0  0  0  0
 25  9  1  0  0  0  0
 25 14  1  1  0  0  0
 26 21  1  0  0  0  0
 27  1  1  0  0  0  0
 27  2  1  0  0  0  0
 29 28  1  0  0  0  0
 31 33  1  0  0  0  0
 32 29  1  6  0  0  0
 32 31  1  0  0  0  0
 32 34  1  0  0  0  0
 33 30  1  0  0  0  0
 34 30  1  0  0  0  0
M  END
>  <MODEL>
8

>  <REMARK>
 VINA RESULT:      -8.4      2.885      8.878
  Name = 
  3 active torsions:
  status: ('A' for Active; 'I' for Inactive)
    1  A    between atoms: N_17  and  C_28
    2  A    between atoms: C_28  and  C_29
    3  A    between atoms: C_29  and  C_32
                            x       y       z     vdW  Elec       q    Type
                         _______ _______ _______ _____ _____    ______ ____

>  <TORSDO>
F 3

$$$$
=
 OpenBabel11112418063D

 34 40  0  0  1  0  0  0  0  0999 V2000
  188.6070  175.3780  141.9950 C   0  0  0  0  0  0  0  0  0  0  0  0
  190.4150  173.6390  141.4650 C   0  0  0  0  0  3  0  0  0  0  0  0
  184.8430  178.4940  146.3900 C   0  0  0  0  0  0  0  0  0  0  0  0
  186.9660  177.0430  142.7370 C   0  0  0  0  0  0  0  0  0  0  0  0
  186.8360  177.6670  145.1070 C   0  0  0  0  0  0  0  0  0  0  0  0
  187.0300  178.2880  147.6010 C   0  0  0  0  0  1  0  0  0  0  0  0
  184.2720  177.8250  147.2930 O   0  0  0  0  0  0  0  0  0  0  0  0
  184.7260  179.7870  144.2830 C   0  0  0  0  0  2  0  0  0  0  0  0
  190.0540  174.3330  143.6300 C   0  0  0  0  0  0  0  0  0  0  0  0
  192.2990  174.0100  145.6730 C   0  0  0  0  0  2  0  0  0  0  0  0
  187.8720  176.7600  145.3680 C   0  0  0  0  0  3  0  0  0  0  0  0
  185.1690  178.6670  143.3540 C   0  0  0  0  0  2  0  0  0  0  0  0
  189.5000  175.0840  144.6720 C   0  0  0  0  0  0  0  0  0  0  0  0
  191.2970  172.9880  142.2220 C   0  0  0  0  0  3  0  0  0  0  0  0
  186.3670  177.8160  143.7640 C   0  0  0  0  0  0  0  0  0  0  0  0
  184.0660  179.2150  145.4430 N   0  0  0  0  0  2  0  0  0  0  0  0
  192.3900  173.9850  144.2150 N   0  0  0  0  0  0  0  0  0  0  0  0
  188.0090  176.1410  143.0290 C   0  0  0  0  0  0  0  0  0  0  0  0
  186.3330  178.5180  146.2610 C   0  0  2  0  0  3  0  0  0  0  0  0
  188.4600  175.9920  144.3660 C   0  0  0  0  0  0  0  0  0  0  0  0
  187.0400  176.4630  140.3470 C   0  0  0  0  0  3  0  0  0  0  0  0
  191.4980  175.2090  146.1620 C   0  0  0  0  0  2  0  0  0  0  0  0
  186.4890  177.1580  141.3420 C   0  0  0  0  0  3  0  0  0  0  0  0
  190.0060  174.9180  146.0760 C   0  0  0  0  0  2  0  0  0  0  0  0
  191.1730  173.3410  143.6930 C   0  0  1  0  0  3  0  0  0  0  0  0
  188.1960  175.5280  140.5520 C   0  0  0  0  0  2  0  0  0  0  0  0
  189.6280  174.4870  142.3360 C   0  0  0  0  0  0  0  0  0  0  0  0
  193.5440  173.1390  143.9300 C   0  0  0  0  0  2  0  0  0  0  0  0
  194.5970  173.9430  143.1900 C   0  0  0  0  0  2  0  0  0  0  0  0
  196.7840  172.7530  145.7350 N   0  0  0  0  0  2  0  0  0  0  0  0
  196.0620  174.8780  144.9460 C   0  0  0  0  0  2  0  0  0  0  0  0
  195.9400  173.8190  143.8880 C   0  0  1  0  0  3  0  0  0  0  0  0
  196.4950  174.1120  146.1660 C   0  0  0  0  0  2  0  0  0  0  0  0
  196.0370  172.5340  144.5650 N   0  0  0  0  0  2  0  0  0  0  0  0
  1 27  2  0  0  0  0
  1 18  1  0  0  0  0
  2 14  2  0  0  0  0
  2 27  1  0  0  0  0
  3  7  2  0  0  0  0
  4 18  2  0  0  0  0
  4 15  1  0  0  0  0
  5 11  1  0  0  0  0
  5 19  1  0  0  0  0
  8 16  1  0  0  0  0
  9 25  1  0  0  0  0
  9 13  2  0  0  0  0
 10 22  1  0  0  0  0
 12 15  1  0  0  0  0
 12  8  1  0  0  0  0
 13 24  1  0  0  0  0
 15  5  2  0  0  0  0
 16  3  1  0  0  0  0
 17 10  1  0  0  0  0
 18 20  1  0  0  0  0
 19  3  1  0  0  0  0
 19  6  1  1  0  0  0
 20 13  1  0  0  0  0
 20 11  2  0  0  0  0
 21 26  1  0  0  0  0
 21 23  2  0  0  0  0
 23  4  1  0  0  0  0
 24 22  1  0  0  0  0
 25 14  1  6  0  0  0
 25 17  1  0  0  0  0
 26  1  1  0  0  0  0
 27  9  1  0  0  0  0
 28 17  1  0  0  0  0
 29 28  1  0  0  0  0
 30 33  1  0  0  0  0
 31 33  1  0  0  0  0
 32 29  1  1  0  0  0
 32 34  1  0  0  0  0
 32 31  1  0  0  0  0
 34 30  1  0  0  0  0
M  END
>  <MODEL>
9

>  <REMARK>
 VINA RESULT:      -8.3      1.259      1.536
  Name = 
  3 active torsions:
  status: ('A' for Active; 'I' for Inactive)
    1  A    between atoms: N_17  and  C_28
    2  A    between atoms: C_28  and  C_29
    3  A    between atoms: C_29  and  C_32
                            x       y       z     vdW  Elec       q    Type
                         _______ _______ _______ _____ _____    ______ ____

>  <TORSDO>
F 3

$$$$
