=
 OpenBabel11112416403D

 32 37  0  0  1  0  0  0  0  0999 V2000
  184.0800  178.4820  143.2770 C   0  0  0  0  0  2  0  0  0  0  0  0
  188.9010  175.8610  143.0130 C   0  0  0  0  0  0  0  0  0  0  0  0
  191.7310  176.4840  147.1060 C   0  0  0  0  0  2  0  0  0  0  0  0
  192.0990  175.1520  146.8570 O   0  0  0  0  0  0  0  0  0  0  0  0
  189.5790  174.1480  141.3370 C   0  0  0  0  0  0  0  0  0  0  0  0
  190.4110  173.1280  141.1350 C   0  0  0  0  0  0  0  0  0  0  0  0
  186.6660  176.9030  142.8440 C   0  0  1  0  0  3  0  0  0  0  0  0
  188.1410  177.5070  144.7550 C   0  0  0  0  0  2  0  0  0  0  0  0
  192.0520  171.4920  141.7010 C   0  0  2  0  0  3  0  0  0  0  0  0
  186.2080  178.9830  144.2930 C   0  0  0  0  0  2  0  0  0  0  0  0
  190.3550  176.7560  146.4930 C   0  0  0  0  0  2  0  0  0  0  0  0
  189.1550  176.5840  144.2370 N   0  0  0  0  0  0  0  0  0  0  0  0
  190.2740  176.2300  145.0770 C   0  0  0  0  0  0  0  0  0  0  0  0
  191.1880  174.9070  143.2000 C   0  0  1  0  0  3  0  0  0  0  0  0
  191.2950  171.0970  140.4080 C   0  0  0  0  0  3  0  0  0  0  0  0
  184.8460  178.5210  141.9440 C   0  0  0  0  0  2  0  0  0  0  0  0
  187.2660  178.0790  143.6450 C   0  0  2  0  0  3  0  0  0  0  0  0
  190.2780  172.1220  140.1540 N   0  0  0  0  0  0  0  0  0  0  0  0
  185.7270  177.2930  141.6940 C   0  0  0  0  0  2  0  0  0  0  0  0
  184.9380  178.2750  144.4520 N   0  0  0  0  0  0  0  0  0  0  0  0
  192.4150  175.0800  145.4880 C   0  0  0  0  0  2  0  0  0  0  0  0
  191.2010  175.3580  144.6350 C   0  0  0  0  0  0  0  0  0  0  0  0
  191.8020  173.5770  143.0380 N   0  0  0  0  0  0  0  0  0  0  0  0
  187.6970  176.0650  142.3320 O   0  0  0  0  0  0  0  0  0  0  0  0
  188.5120  174.3640  140.4710 O   0  0  0  0  0  1  0  0  0  0  0  0
  191.7360  170.4870  142.7930 C   0  0  0  0  0  1  0  0  0  0  0  0
  189.8180  175.0030  142.5340 C   0  0  0  0  0  0  0  0  0  0  0  0
  191.4710  172.8120  142.0410 C   0  0  0  0  0  0  0  0  0  0  0  0
  184.2580  178.8770  145.5870 C   0  0  0  0  0  2  0  0  0  0  0  0
  184.5490  178.0880  146.8510 C   0  0  0  0  0  3  0  0  0  0  0  0
  185.6290  178.7920  147.6430 C   0  0  0  0  0  1  0  0  0  0  0  0
  185.0210  176.6900  146.4980 C   0  0  0  0  0  1  0  0  0  0  0  0
  1 20  1  0  0  0  0
  2 12  1  0  0  0  0
  4  3  1  0  0  0  0
  5 27  1  0  0  0  0
  6  5  2  0  0  0  0
  6 28  1  0  0  0  0
  7 19  1  6  0  0  0
  7 17  1  0  0  0  0
  9 28  1  0  0  0  0
  9 26  1  1  0  0  0
 10 20  1  0  0  0  0
 11  3  1  0  0  0  0
 12  8  1  0  0  0  0
 12 13  1  0  0  0  0
 13 11  1  0  0  0  0
 14 27  1  1  0  0  0
 14 22  1  0  0  0  0
 15  9  1  0  0  0  0
 16  1  1  0  0  0  0
 17 10  1  1  0  0  0
 17  8  1  0  0  0  0
 18 15  2  0  0  0  0
 18  6  1  0  0  0  0
 19 16  1  0  0  0  0
 20 29  1  0  0  0  0
 21  4  1  0  0  0  0
 22 13  2  0  0  0  0
 22 21  1  0  0  0  0
 23 14  1  0  0  0  0
 24  7  1  0  0  0  0
 24  2  1  0  0  0  0
 25  5  1  0  0  0  0
 27  2  2  0  0  0  0
 28 23  2  0  0  0  0
 29 30  1  0  0  0  0
 30 31  1  0  0  0  0
 32 30  1  0  0  0  0
M  END
>  <MODEL>
1

>  <REMARK>
 VINA RESULT:      -8.7      0.000      0.000
  Name = 
  2 active torsions:
  status: ('A' for Active; 'I' for Inactive)
    1  A    between atoms: N_20  and  C_29
    2  A    between atoms: C_29  and  C_30
                            x       y       z     vdW  Elec       q    Type
                         _______ _______ _______ _____ _____    ______ ____

>  <TORSDO>
F 2

$$$$
=
 OpenBabel11112416403D

 32 37  0  0  1  0  0  0  0  0999 V2000
  185.2860  179.0270  145.7600 C   0  0  0  0  0  2  0  0  0  0  0  0
  189.5520  175.7710  144.5790 C   0  0  0  0  0  0  0  0  0  0  0  0
  189.1920  173.5710  140.0880 C   0  0  0  0  0  2  0  0  0  0  0  0
  190.5830  173.7660  140.0610 O   0  0  0  0  0  0  0  0  0  0  0  0
  191.7140  175.6400  145.8090 C   0  0  0  0  0  0  0  0  0  0  0  0
  192.9930  175.2940  145.6770 C   0  0  0  0  0  0  0  0  0  0  0  0
  187.7930  177.3110  145.3840 C   0  0  1  0  0  3  0  0  0  0  0  0
  187.4030  176.0140  143.2960 C   0  0  0  0  0  2  0  0  0  0  0  0
  194.9690  174.5930  144.5390 C   0  0  2  0  0  3  0  0  0  0  0  0
  185.4360  177.0580  144.3760 C   0  0  0  0  0  2  0  0  0  0  0  0
  188.5520  174.6000  141.0220 C   0  0  0  0  0  2  0  0  0  0  0  0
  188.7350  175.4190  143.4420 N   0  0  0  0  0  0  0  0  0  0  0  0
  189.3010  174.6870  142.3340 C   0  0  0  0  0  0  0  0  0  0  0  0
  191.2470  174.1520  143.7590 C   0  0  1  0  0  3  0  0  0  0  0  0
  195.3130  175.2490  145.9010 C   0  0  0  0  0  3  0  0  0  0  0  0
  185.8370  178.1300  146.8820 C   0  0  0  0  0  2  0  0  0  0  0  0
  186.7950  176.3960  144.6410 C   0  0  2  0  0  3  0  0  0  0  0  0
  194.0570  175.6930  146.5140 N   0  0  0  0  0  0  0  0  0  0  0  0
  187.3310  177.8210  146.7560 C   0  0  0  0  0  2  0  0  0  0  0  0
  185.5470  178.5160  144.4070 N   0  0  0  0  0  0  0  0  0  0  0  0
  191.0670  173.3130  141.3020 C   0  0  0  0  0  2  0  0  0  0  0  0
  190.5360  174.1590  142.4340 C   0  0  0  0  0  0  0  0  0  0  0  0
  192.7120  174.1370  143.5940 N   0  0  0  0  0  0  0  0  0  0  0  0
  189.0530  176.6650  145.5330 O   0  0  0  0  0  0  0  0  0  0  0  0
  191.2970  176.3780  146.9120 O   0  0  0  0  0  1  0  0  0  0  0  0
  195.5100  175.4580  143.4170 C   0  0  0  0  0  1  0  0  0  0  0  0
  190.7790  175.2410  144.7190 C   0  0  0  0  0  0  0  0  0  0  0  0
  193.4870  174.6090  144.5240 C   0  0  0  0  0  0  0  0  0  0  0  0
  184.4980  179.0380  143.5460 C   0  0  0  0  0  2  0  0  0  0  0  0
  184.2770  178.1080  142.3660 C   0  0  0  0  0  3  0  0  0  0  0  0
  185.2660  178.4450  141.2710 C   0  0  0  0  0  1  0  0  0  0  0  0
  182.8660  178.2700  141.8300 C   0  0  0  0  0  1  0  0  0  0  0  0
  1 16  1  0  0  0  0
  2 27  2  0  0  0  0
  2 24  1  0  0  0  0
  3 11  1  0  0  0  0
  4  3  1  0  0  0  0
  4 21  1  0  0  0  0
  5 25  1  0  0  0  0
  6  5  2  0  0  0  0
  6 18  1  0  0  0  0
  7 24  1  0  0  0  0
  7 19  1  1  0  0  0
  8 12  1  0  0  0  0
  9 26  1  6  0  0  0
  9 15  1  0  0  0  0
 10 20  1  0  0  0  0
 10 17  1  0  0  0  0
 11 13  1  0  0  0  0
 12  2  1  0  0  0  0
 13 22  2  0  0  0  0
 13 12  1  0  0  0  0
 14 22  1  6  0  0  0
 14 27  1  0  0  0  0
 15 18  2  0  0  0  0
 17  8  1  6  0  0  0
 17  7  1  0  0  0  0
 19 16  1  0  0  0  0
 20  1  1  0  0  0  0
 21 22  1  0  0  0  0
 23 14  1  0  0  0  0
 23 28  2  0  0  0  0
 27  5  1  0  0  0  0
 28  9  1  0  0  0  0
 28  6  1  0  0  0  0
 29 20  1  0  0  0  0
 30 29  1  0  0  0  0
 31 30  1  0  0  0  0
 32 30  1  0  0  0  0
M  END
>  <MODEL>
2

>  <REMARK>
 VINA RESULT:      -8.3      1.836      4.736
  Name = 
  2 active torsions:
  status: ('A' for Active; 'I' for Inactive)
    1  A    between atoms: N_20  and  C_29
    2  A    between atoms: C_29  and  C_30
                            x       y       z     vdW  Elec       q    Type
                         _______ _______ _______ _____ _____    ______ ____

>  <TORSDO>
F 2

$$$$
=
 OpenBabel11112416403D

 32 37  0  0  1  0  0  0  0  0999 V2000
  185.6840  178.8740  146.8940 C   0  0  0  0  0  2  0  0  0  0  0  0
  189.8000  176.0890  144.5510 C   0  0  0  0  0  0  0  0  0  0  0  0
  188.4800  173.7990  140.2890 C   0  0  0  0  0  2  0  0  0  0  0  0
  189.7820  174.1440  139.8900 O   0  0  0  0  0  0  0  0  0  0  0  0
  192.2150  176.2120  145.1470 C   0  0  0  0  0  0  0  0  0  0  0  0
  193.4410  176.0060  144.6680 C   0  0  0  0  0  0  0  0  0  0  0  0
  188.1670  177.4380  145.8260 C   0  0  1  0  0  3  0  0  0  0  0  0
  187.3710  176.0770  143.9010 C   0  0  0  0  0  2  0  0  0  0  0  0
  195.0990  175.5110  143.0270 C   0  0  2  0  0  3  0  0  0  0  0  0
  185.6680  176.9140  145.4900 C   0  0  0  0  0  2  0  0  0  0  0  0
  188.0080  174.7650  141.3790 C   0  0  0  0  0  2  0  0  0  0  0  0
  188.7490  175.6330  143.6710 N   0  0  0  0  0  0  0  0  0  0  0  0
  189.0700  174.9520  142.4400 C   0  0  0  0  0  0  0  0  0  0  0  0
  191.3760  174.6530  143.2760 C   0  0  1  0  0  3  0  0  0  0  0  0
  195.7250  176.2190  144.2550 C   0  0  0  0  0  3  0  0  0  0  0  0
  186.6130  178.0590  147.8100 C   0  0  0  0  0  2  0  0  0  0  0  0
  187.1120  176.4090  145.3660 C   0  0  2  0  0  3  0  0  0  0  0  0
  194.6420  176.5320  145.1920 N   0  0  0  0  0  0  0  0  0  0  0  0
  188.0420  177.9130  147.2800 C   0  0  0  0  0  2  0  0  0  0  0  0
  185.6230  178.3760  145.5130 N   0  0  0  0  0  0  0  0  0  0  0  0
  190.6310  173.7650  140.9470 C   0  0  0  0  0  2  0  0  0  0  0  0
  190.3360  174.5630  142.1930 C   0  0  0  0  0  0  0  0  0  0  0  0
  192.7340  174.7960  142.7210 N   0  0  0  0  0  0  0  0  0  0  0  0
  189.4830  176.9360  145.6180 O   0  0  0  0  0  0  0  0  0  0  0  0
  192.0340  176.9160  146.3330 O   0  0  0  0  0  1  0  0  0  0  0  0
  195.2180  176.4130  141.8140 C   0  0  0  0  0  1  0  0  0  0  0  0
  191.0690  175.6980  144.3450 C   0  0  0  0  0  0  0  0  0  0  0  0
  193.6760  175.3640  143.4130 C   0  0  0  0  0  0  0  0  0  0  0  0
  184.3300  178.7670  144.9770 C   0  0  0  0  0  2  0  0  0  0  0  0
  184.4840  179.2740  143.5530 C   0  0  0  0  0  3  0  0  0  0  0  0
  183.8400  178.2910  142.5990 C   0  0  0  0  0  1  0  0  0  0  0  0
  185.9530  179.4170  143.2050 C   0  0  0  0  0  1  0  0  0  0  0  0
  1 16  1  0  0  0  0
  2 24  1  0  0  0  0
  3 11  1  0  0  0  0
  4  3  1  0  0  0  0
  4 21  1  0  0  0  0
  5 25  1  0  0  0  0
  6  5  2  0  0  0  0
  6 18  1  0  0  0  0
  7 19  1  1  0  0  0
  9 26  1  6  0  0  0
  9 28  1  0  0  0  0
  9 15  1  0  0  0  0
 10 20  1  0  0  0  0
 11 13  1  0  0  0  0
 12  8  1  0  0  0  0
 12  2  1  0  0  0  0
 13 12  1  0  0  0  0
 14 22  1  6  0  0  0
 14 27  1  0  0  0  0
 15 18  2  0  0  0  0
 17  8  1  6  0  0  0
 17 10  1  0  0  0  0
 17  7  1  0  0  0  0
 19 16  1  0  0  0  0
 20  1  1  0  0  0  0
 21 22  1  0  0  0  0
 22 13  2  0  0  0  0
 23 14  1  0  0  0  0
 23 28  2  0  0  0  0
 24  7  1  0  0  0  0
 27  2  2  0  0  0  0
 27  5  1  0  0  0  0
 28  6  1  0  0  0  0
 29 20  1  0  0  0  0
 30 29  1  0  0  0  0
 31 30  1  0  0  0  0
 32 30  1  0  0  0  0
M  END
>  <MODEL>
3

>  <REMARK>
 VINA RESULT:      -8.3      2.006      4.765
  Name = 
  2 active torsions:
  status: ('A' for Active; 'I' for Inactive)
    1  A    between atoms: N_20  and  C_29
    2  A    between atoms: C_29  and  C_30
                            x       y       z     vdW  Elec       q    Type
                         _______ _______ _______ _____ _____    ______ ____

>  <TORSDO>
F 2

$$$$
=
 OpenBabel11112416403D

 32 37  0  0  1  0  0  0  0  0999 V2000
  184.5400  178.2420  143.3620 C   0  0  0  0  0  2  0  0  0  0  0  0
  188.9900  175.2570  142.1480 C   0  0  0  0  0  0  0  0  0  0  0  0
  192.2560  174.9210  145.9380 C   0  0  0  0  0  2  0  0  0  0  0  0
  192.4460  173.6190  145.4450 O   0  0  0  0  0  0  0  0  0  0  0  0
  189.3060  173.7910  140.1590 C   0  0  0  0  0  0  0  0  0  0  0  0
  189.9960  172.7440  139.7080 C   0  0  0  0  0  0  0  0  0  0  0  0
  186.8800  176.5190  142.3980 C   0  0  1  0  0  3  0  0  0  0  0  0
  188.5910  176.6550  144.1990 C   0  0  0  0  0  2  0  0  0  0  0  0
  191.4910  170.8890  139.8220 C   0  0  2  0  0  3  0  0  0  0  0  0
  186.8000  178.3630  144.1950 C   0  0  0  0  0  2  0  0  0  0  0  0
  190.8660  175.4190  145.5360 C   0  0  0  0  0  2  0  0  0  0  0  0
  189.4400  175.7390  143.4320 N   0  0  0  0  0  0  0  0  0  0  0  0
  190.5890  175.1460  144.0740 C   0  0  0  0  0  0  0  0  0  0  0  0
  191.1630  174.0730  141.9220 C   0  0  1  0  0  3  0  0  0  0  0  0
  190.5720  170.7880  138.5780 C   0  0  0  0  0  3  0  0  0  0  0  0
  185.1730  178.4290  141.9720 C   0  0  0  0  0  2  0  0  0  0  0  0
  187.6820  177.4830  143.2980 C   0  0  2  0  0  3  0  0  0  0  0  0
  189.6560  171.9320  138.6040 N   0  0  0  0  0  0  0  0  0  0  0  0
  185.8820  177.1820  141.4370 C   0  0  0  0  0  2  0  0  0  0  0  0
  185.4800  177.7620  144.3850 N   0  0  0  0  0  0  0  0  0  0  0  0
  192.6180  173.7460  144.0540 C   0  0  0  0  0  2  0  0  0  0  0  0
  191.3660  174.2760  143.3990 C   0  0  0  0  0  0  0  0  0  0  0  0
  191.6060  172.7370  141.4870 N   0  0  0  0  0  0  0  0  0  0  0  0
  187.7560  175.6850  141.6470 O   0  0  0  0  0  0  0  0  0  0  0  0
  188.1910  174.2480  139.4640 O   0  0  0  0  0  1  0  0  0  0  0  0
  191.1720  169.7520  140.7740 C   0  0  0  0  0  1  0  0  0  0  0  0
  189.7540  174.4080  141.4390 C   0  0  0  0  0  0  0  0  0  0  0  0
  191.0970  172.1840  140.4270 C   0  0  0  0  0  0  0  0  0  0  0  0
  184.9840  178.2280  145.6700 C   0  0  0  0  0  2  0  0  0  0  0  0
  186.1070  178.2390  146.6920 C   0  0  0  0  0  3  0  0  0  0  0  0
  186.0720  176.9520  147.4880 C   0  0  0  0  0  1  0  0  0  0  0  0
  185.9410  179.4140  147.6380 C   0  0  0  0  0  1  0  0  0  0  0  0
  1 20  1  0  0  0  0
  2 12  1  0  0  0  0
  4  3  1  0  0  0  0
  5 27  1  0  0  0  0
  6  5  2  0  0  0  0
  6 28  1  0  0  0  0
  7 19  1  6  0  0  0
  7 17  1  0  0  0  0
  9 28  1  0  0  0  0
  9 26  1  1  0  0  0
 10 20  1  0  0  0  0
 11  3  1  0  0  0  0
 12 13  1  0  0  0  0
 12  8  1  0  0  0  0
 13 11  1  0  0  0  0
 14 27  1  1  0  0  0
 14 22  1  0  0  0  0
 15 18  2  0  0  0  0
 15  9  1  0  0  0  0
 16  1  1  0  0  0  0
 17 10  1  1  0  0  0
 17  8  1  0  0  0  0
 18  6  1  0  0  0  0
 19 16  1  0  0  0  0
 20 29  1  0  0  0  0
 21  4  1  0  0  0  0
 22 21  1  0  0  0  0
 22 13  2  0  0  0  0
 23 14  1  0  0  0  0
 24  2  1  0  0  0  0
 24  7  1  0  0  0  0
 25  5  1  0  0  0  0
 27  2  2  0  0  0  0
 28 23  2  0  0  0  0
 29 30  1  0  0  0  0
 30 31  1  0  0  0  0
 30 32  1  0  0  0  0
M  END
>  <MODEL>
4

>  <REMARK>
 VINA RESULT:      -7.9      1.207      1.535
  Name = 
  2 active torsions:
  status: ('A' for Active; 'I' for Inactive)
    1  A    between atoms: N_20  and  C_29
    2  A    between atoms: C_29  and  C_30
                            x       y       z     vdW  Elec       q    Type
                         _______ _______ _______ _____ _____    ______ ____

>  <TORSDO>
F 2

$$$$
=
 OpenBabel11112416403D

 32 37  0  0  1  0  0  0  0  0999 V2000
  184.6760  178.1960  142.4420 C   0  0  0  0  0  2  0  0  0  0  0  0
  189.5010  175.5700  142.4950 C   0  0  0  0  0  0  0  0  0  0  0  0
  192.0470  176.1700  146.7740 C   0  0  0  0  0  2  0  0  0  0  0  0
  192.4290  174.8380  146.5450 O   0  0  0  0  0  0  0  0  0  0  0  0
  190.2900  173.8640  140.8610 C   0  0  0  0  0  0  0  0  0  0  0  0
  191.1330  172.8440  140.7110 C   0  0  0  0  0  0  0  0  0  0  0  0
  187.2840  176.6150  142.1790 C   0  0  1  0  0  3  0  0  0  0  0  0
  188.6260  177.2090  144.1890 C   0  0  0  0  0  2  0  0  0  0  0  0
  192.7310  171.2030  141.3800 C   0  0  2  0  0  3  0  0  0  0  0  0
  186.7300  178.6890  143.6030 C   0  0  0  0  0  2  0  0  0  0  0  0
  190.7160  176.4470  146.0700 C   0  0  0  0  0  2  0  0  0  0  0  0
  189.6720  176.2860  143.7370 N   0  0  0  0  0  0  0  0  0  0  0  0
  190.7310  175.9270  144.6490 C   0  0  0  0  0  0  0  0  0  0  0  0
  191.7690  174.6120  142.8330 C   0  0  1  0  0  3  0  0  0  0  0  0
  192.0630  170.8150  140.0360 C   0  0  0  0  0  3  0  0  0  0  0  0
  185.5310  178.2400  141.1640 C   0  0  0  0  0  2  0  0  0  0  0  0
  187.8290  177.7860  143.0250 C   0  0  2  0  0  3  0  0  0  0  0  0
  191.0660  171.8420  139.7190 N   0  0  0  0  0  0  0  0  0  0  0  0
  186.4260  177.0120  140.9700 C   0  0  0  0  0  2  0  0  0  0  0  0
  185.4520  177.9820  143.6720 N   0  0  0  0  0  0  0  0  0  0  0  0
  192.8380  174.7720  145.1990 C   0  0  0  0  0  2  0  0  0  0  0  0
  191.6850  175.0560  144.2670 C   0  0  0  0  0  0  0  0  0  0  0  0
  192.3910  173.2820  142.7070 N   0  0  0  0  0  0  0  0  0  0  0  0
  188.3470  175.7780  141.7340 O   0  0  0  0  0  0  0  0  0  0  0  0
  189.2850  174.0860  139.9250 O   0  0  0  0  0  1  0  0  0  0  0  0
  192.3400  170.1940  142.4420 C   0  0  0  0  0  1  0  0  0  0  0  0
  190.4480  174.7130  142.0750 C   0  0  0  0  0  0  0  0  0  0  0  0
  192.1290  172.5230  141.6860 C   0  0  0  0  0  0  0  0  0  0  0  0
  184.6960  178.5790  144.7600 C   0  0  0  0  0  2  0  0  0  0  0  0
  185.2860  178.1650  146.0970 C   0  0  0  0  0  3  0  0  0  0  0  0
  185.3370  176.6550  146.1760 C   0  0  0  0  0  1  0  0  0  0  0  0
  184.4310  178.6950  147.2330 C   0  0  0  0  0  1  0  0  0  0  0  0
  1 20  1  0  0  0  0
  2 12  1  0  0  0  0
  4  3  1  0  0  0  0
  5 27  1  0  0  0  0
  6  5  2  0  0  0  0
  6 28  1  0  0  0  0
  7 19  1  6  0  0  0
  7 17  1  0  0  0  0
  9 28  1  0  0  0  0
  9 26  1  1  0  0  0
 10 20  1  0  0  0  0
 11  3  1  0  0  0  0
 12  8  1  0  0  0  0
 12 13  1  0  0  0  0
 13 11  1  0  0  0  0
 14 27  1  1  0  0  0
 14 22  1  0  0  0  0
 15  9  1  0  0  0  0
 16  1  1  0  0  0  0
 17 10  1  1  0  0  0
 17  8  1  0  0  0  0
 18 15  2  0  0  0  0
 18  6  1  0  0  0  0
 19 16  1  0  0  0  0
 20 29  1  0  0  0  0
 21  4  1  0  0  0  0
 22 13  2  0  0  0  0
 22 21  1  0  0  0  0
 23 14  1  0  0  0  0
 24  7  1  0  0  0  0
 24  2  1  0  0  0  0
 25  5  1  0  0  0  0
 27  2  2  0  0  0  0
 28 23  2  0  0  0  0
 29 30  1  0  0  0  0
 30 31  1  0  0  0  0
 30 32  1  0  0  0  0
M  END
>  <MODEL>
5

>  <REMARK>
 VINA RESULT:      -7.9      0.828      1.027
  Name = 
  2 active torsions:
  status: ('A' for Active; 'I' for Inactive)
    1  A    between atoms: N_20  and  C_29
    2  A    between atoms: C_29  and  C_30
                            x       y       z     vdW  Elec       q    Type
                         _______ _______ _______ _____ _____    ______ ____

>  <TORSDO>
F 2

$$$$
=
 OpenBabel11112416403D

 32 37  0  0  1  0  0  0  0  0999 V2000
  191.5820  170.8850  142.9700 C   0  0  0  0  0  2  0  0  0  0  0  0
  188.8050  175.5940  143.5090 C   0  0  0  0  0  0  0  0  0  0  0  0
  186.6550  177.1360  139.2490 C   0  0  0  0  0  2  0  0  0  0  0  0
  185.6320  177.5660  140.1100 O   0  0  0  0  0  0  0  0  0  0  0  0
  188.1940  176.7310  145.6390 C   0  0  0  0  0  0  0  0  0  0  0  0
  187.3310  177.5920  146.1770 C   0  0  0  0  0  0  0  0  0  0  0  0
  190.1070  173.4950  143.5870 C   0  0  1  0  0  3  0  0  0  0  0  0
  189.3380  174.3600  141.3840 C   0  0  0  0  0  2  0  0  0  0  0  0
  185.4170  179.0120  146.2620 C   0  0  2  0  0  3  0  0  0  0  0  0
  191.1100  172.6320  141.3770 C   0  0  0  0  0  2  0  0  0  0  0  0
  187.4270  175.9900  139.9070 C   0  0  0  0  0  2  0  0  0  0  0  0
  188.6970  175.4850  142.0730 N   0  0  0  0  0  0  0  0  0  0  0  0
  187.7740  176.3190  141.3430 C   0  0  0  0  0  0  0  0  0  0  0  0
  187.5570  177.7380  143.3550 C   0  0  1  0  0  3  0  0  0  0  0  0
  185.9110  178.6570  147.6870 C   0  0  0  0  0  3  0  0  0  0  0  0
  192.2170  171.9990  143.8190 C   0  0  0  0  0  2  0  0  0  0  0  0
  190.5490  173.8350  142.1470 C   0  0  2  0  0  3  0  0  0  0  0  0
  187.0540  177.7490  147.5520 N   0  0  0  0  0  0  0  0  0  0  0  0
  191.2010  172.9210  144.4990 C   0  0  0  0  0  2  0  0  0  0  0  0
  190.6390  171.3730  141.9540 N   0  0  0  0  0  0  0  0  0  0  0  0
  186.2660  178.2600  141.1580 C   0  0  0  0  0  2  0  0  0  0  0  0
  187.1490  177.3390  141.9640 C   0  0  0  0  0  0  0  0  0  0  0  0
  186.4510  178.3790  144.0880 N   0  0  0  0  0  0  0  0  0  0  0  0
  189.5320  174.6340  144.2190 O   0  0  0  0  0  0  0  0  0  0  0  0
  189.0100  175.9550  146.4560 O   0  0  0  0  0  1  0  0  0  0  0  0
  184.0450  178.4030  146.0420 C   0  0  0  0  0  1  0  0  0  0  0  0
  188.2130  176.6150  144.1540 C   0  0  0  0  0  0  0  0  0  0  0  0
  186.4130  178.3510  145.3860 C   0  0  0  0  0  0  0  0  0  0  0  0
  190.6270  170.3940  140.8800 C   0  0  0  0  0  2  0  0  0  0  0  0
  190.9080  171.0710  139.5490 C   0  0  0  0  0  3  0  0  0  0  0  0
  189.7060  170.9120  138.6430 C   0  0  0  0  0  1  0  0  0  0  0  0
  192.1180  170.4410  138.8870 C   0  0  0  0  0  1  0  0  0  0  0  0
  1 16  1  0  0  0  0
  2 27  2  0  0  0  0
  2 24  1  0  0  0  0
  3 11  1  0  0  0  0
  3  4  1  0  0  0  0
  4 21  1  0  0  0  0
  5  6  2  0  0  0  0
  5 25  1  0  0  0  0
  6 18  1  0  0  0  0
  7 24  1  0  0  0  0
  7 19  1  1  0  0  0
  8 12  1  0  0  0  0
  8 17  1  0  0  0  0
  9 26  1  6  0  0  0
  9 15  1  0  0  0  0
 10 20  1  0  0  0  0
 11 13  1  0  0  0  0
 12  2  1  0  0  0  0
 13 22  2  0  0  0  0
 13 12  1  0  0  0  0
 14 22  1  6  0  0  0
 14 23  1  0  0  0  0
 14 27  1  0  0  0  0
 16 19  1  0  0  0  0
 17 10  1  6  0  0  0
 17  7  1  0  0  0  0
 18 15  2  0  0  0  0
 20  1  1  0  0  0  0
 21 22  1  0  0  0  0
 23 28  2  0  0  0  0
 27  5  1  0  0  0  0
 28  6  1  0  0  0  0
 28  9  1  0  0  0  0
 29 20  1  0  0  0  0
 30 29  1  0  0  0  0
 31 30  1  0  0  0  0
 32 30  1  0  0  0  0
M  END
>  <MODEL>
6

>  <REMARK>
 VINA RESULT:      -7.9      1.967      8.322
  Name = 
  2 active torsions:
  status: ('A' for Active; 'I' for Inactive)
    1  A    between atoms: N_20  and  C_29
    2  A    between atoms: C_29  and  C_30
                            x       y       z     vdW  Elec       q    Type
                         _______ _______ _______ _____ _____    ______ ____

>  <TORSDO>
F 2

$$$$
=
 OpenBabel11112416403D

 32 37  0  0  1  0  0  0  0  0999 V2000
  186.6290  178.1650  144.5030 C   0  0  0  0  0  2  0  0  0  0  0  0
  191.2340  175.5420  143.0500 C   0  0  0  0  0  0  0  0  0  0  0  0
  190.5820  172.3300  139.2550 C   0  0  0  0  0  2  0  0  0  0  0  0
  191.8670  172.7600  138.8840 O   0  0  0  0  0  0  0  0  0  0  0  0
  193.5540  176.0900  143.7720 C   0  0  0  0  0  0  0  0  0  0  0  0
  194.8340  175.9570  143.4290 C   0  0  0  0  0  0  0  0  0  0  0  0
  189.3480  176.8860  143.9150 C   0  0  1  0  0  3  0  0  0  0  0  0
  188.8920  175.0920  142.2520 C   0  0  0  0  0  2  0  0  0  0  0  0
  196.6820  175.3780  142.0370 C   0  0  2  0  0  3  0  0  0  0  0  0
  186.9660  175.9880  143.5220 C   0  0  0  0  0  2  0  0  0  0  0  0
  189.9050  173.4170  140.0940 C   0  0  0  0  0  2  0  0  0  0  0  0
  190.3270  174.7950  142.2110 N   0  0  0  0  0  0  0  0  0  0  0  0
  190.8360  173.9390  141.1660 C   0  0  0  0  0  0  0  0  0  0  0  0
  193.0740  174.1070  142.1990 C   0  0  1  0  0  3  0  0  0  0  0  0
  197.1070  176.3820  143.1370 C   0  0  0  0  0  3  0  0  0  0  0  0
  187.5560  177.6670  145.6250 C   0  0  0  0  0  2  0  0  0  0  0  0
  188.4640  175.6600  143.6000 C   0  0  2  0  0  3  0  0  0  0  0  0
  195.9140  176.7240  143.9170 N   0  0  0  0  0  0  0  0  0  0  0  0
  189.0360  177.6100  145.2330 C   0  0  0  0  0  2  0  0  0  0  0  0
  186.7530  177.4090  143.2480 N   0  0  0  0  0  0  0  0  0  0  0  0
  192.6530  172.7020  140.0500 C   0  0  0  0  0  2  0  0  0  0  0  0
  192.1560  173.6780  141.0880 C   0  0  0  0  0  0  0  0  0  0  0  0
  194.4520  174.3170  141.7200 N   0  0  0  0  0  0  0  0  0  0  0  0
  190.7260  176.5290  143.9020 O   0  0  0  0  0  0  0  0  0  0  0  0
  193.1860  176.9770  144.7780 O   0  0  0  0  0  1  0  0  0  0  0  0
  196.8090  176.0400  140.6780 C   0  0  0  0  0  1  0  0  0  0  0  0
  192.5530  175.2880  143.0130 C   0  0  0  0  0  0  0  0  0  0  0  0
  195.2550  175.1230  142.3470 C   0  0  0  0  0  0  0  0  0  0  0  0
  185.4780  177.5200  142.5580 C   0  0  0  0  0  2  0  0  0  0  0  0
  185.6570  178.2570  141.2420 C   0  0  0  0  0  3  0  0  0  0  0  0
  184.3320  178.3070  140.5130 C   0  0  0  0  0  1  0  0  0  0  0  0
  186.6750  177.5410  140.3760 C   0  0  0  0  0  1  0  0  0  0  0  0
  1 16  1  0  0  0  0
  2 24  1  0  0  0  0
  3 11  1  0  0  0  0
  4  3  1  0  0  0  0
  4 21  1  0  0  0  0
  5 25  1  0  0  0  0
  6  5  2  0  0  0  0
  6 18  1  0  0  0  0
  7 19  1  1  0  0  0
  9 26  1  6  0  0  0
  9 28  1  0  0  0  0
  9 15  1  0  0  0  0
 10 17  1  0  0  0  0
 11 13  1  0  0  0  0
 12  8  1  0  0  0  0
 12  2  1  0  0  0  0
 13 12  1  0  0  0  0
 14 22  1  6  0  0  0
 14 27  1  0  0  0  0
 15 18  2  0  0  0  0
 17  8  1  6  0  0  0
 17  7  1  0  0  0  0
 19 16  1  0  0  0  0
 20 10  1  0  0  0  0
 20  1  1  0  0  0  0
 21 22  1  0  0  0  0
 22 13  2  0  0  0  0
 23 14  1  0  0  0  0
 23 28  2  0  0  0  0
 24  7  1  0  0  0  0
 27  2  2  0  0  0  0
 27  5  1  0  0  0  0
 28  6  1  0  0  0  0
 29 20  1  0  0  0  0
 30 29  1  0  0  0  0
 31 30  1  0  0  0  0
 32 30  1  0  0  0  0
M  END
>  <MODEL>
7

>  <REMARK>
 VINA RESULT:      -7.7      2.795      5.356
  Name = 
  2 active torsions:
  status: ('A' for Active; 'I' for Inactive)
    1  A    between atoms: N_20  and  C_29
    2  A    between atoms: C_29  and  C_30
                            x       y       z     vdW  Elec       q    Type
                         _______ _______ _______ _____ _____    ______ ____

>  <TORSDO>
F 2

$$$$
=
 OpenBabel11112416403D

 32 37  0  0  1  0  0  0  0  0999 V2000
  194.5950  173.7690  140.5200 C   0  0  0  0  0  2  0  0  0  0  0  0
  190.1450  175.4850  143.2460 C   0  0  0  0  0  0  0  0  0  0  0  0
  191.0970  176.7770  147.9970 C   0  0  0  0  0  2  0  0  0  0  0  0
  190.1310  177.7670  147.7510 O   0  0  0  0  0  0  0  0  0  0  0  0
  187.9250  176.0550  142.2710 C   0  0  0  0  0  0  0  0  0  0  0  0
  186.8160  176.7600  142.4890 C   0  0  0  0  0  0  0  0  0  0  0  0
  191.9530  174.6910  141.7590 C   0  0  1  0  0  3  0  0  0  0  0  0
  192.4310  175.0130  144.1800 C   0  0  0  0  0  2  0  0  0  0  0  0
  185.3900  178.3140  143.6020 C   0  0  2  0  0  3  0  0  0  0  0  0
  194.0450  173.6730  142.8650 C   0  0  0  0  0  2  0  0  0  0  0  0
  191.7360  176.3500  146.6730 C   0  0  0  0  0  2  0  0  0  0  0  0
  191.0480  175.4600  144.3720 N   0  0  0  0  0  0  0  0  0  0  0  0
  190.6840  176.0950  145.6160 C   0  0  0  0  0  0  0  0  0  0  0  0
  188.3520  176.2080  144.8060 C   0  0  1  0  0  3  0  0  0  0  0  0
  184.9150  178.0640  142.1490 C   0  0  0  0  0  3  0  0  0  0  0  0
  193.2810  172.9990  140.3060 C   0  0  0  0  0  2  0  0  0  0  0  0
  192.5610  174.0350  143.0180 C   0  0  2  0  0  3  0  0  0  0  0  0
  185.8640  177.1410  141.5200 N   0  0  0  0  0  0  0  0  0  0  0  0
  192.0220  173.8540  140.4740 C   0  0  0  0  0  2  0  0  0  0  0  0
  194.6730  174.4680  141.8100 N   0  0  0  0  0  0  0  0  0  0  0  0
  189.0410  177.1110  147.1470 C   0  0  0  0  0  2  0  0  0  0  0  0
  189.4270  176.5430  145.8030 C   0  0  0  0  0  0  0  0  0  0  0  0
  187.2780  177.2180  144.7980 N   0  0  0  0  0  0  0  0  0  0  0  0
  190.5990  175.0670  141.9910 O   0  0  0  0  0  0  0  0  0  0  0  0
  188.1800  175.5210  141.0120 O   0  0  0  0  0  1  0  0  0  0  0  0
  185.8450  179.7550  143.7400 C   0  0  0  0  0  1  0  0  0  0  0  0
  188.8780  175.9040  143.4060 C   0  0  0  0  0  0  0  0  0  0  0  0
  186.5480  177.3990  143.7390 C   0  0  0  0  0  0  0  0  0  0  0  0
  196.0830  174.5800  142.1490 C   0  0  0  0  0  2  0  0  0  0  0  0
  196.2420  175.1370  143.5530 C   0  0  0  0  0  3  0  0  0  0  0  0
  196.4160  176.6380  143.4790 C   0  0  0  0  0  1  0  0  0  0  0  0
  197.4600  174.5270  144.2210 C   0  0  0  0  0  1  0  0  0  0  0  0
  1 20  1  0  0  0  0
  2 27  2  0  0  0  0
  2 12  1  0  0  0  0
  4  3  1  0  0  0  0
  5  6  2  0  0  0  0
  5 27  1  0  0  0  0
  6 28  1  0  0  0  0
  7 19  1  6  0  0  0
  7 24  1  0  0  0  0
  7 17  1  0  0  0  0
  8 12  1  0  0  0  0
  9 28  1  0  0  0  0
  9 26  1  6  0  0  0
 11  3  1  0  0  0  0
 12 13  1  0  0  0  0
 13 22  2  0  0  0  0
 13 11  1  0  0  0  0
 14 27  1  6  0  0  0
 14 22  1  0  0  0  0
 15  9  1  0  0  0  0
 16 19  1  0  0  0  0
 16  1  1  0  0  0  0
 17 10  1  6  0  0  0
 17  8  1  0  0  0  0
 18 15  2  0  0  0  0
 18  6  1  0  0  0  0
 20 29  1  0  0  0  0
 20 10  1  0  0  0  0
 21  4  1  0  0  0  0
 22 21  1  0  0  0  0
 23 14  1  0  0  0  0
 24  2  1  0  0  0  0
 25  5  1  0  0  0  0
 28 23  2  0  0  0  0
 29 30  1  0  0  0  0
 30 32  1  0  0  0  0
 31 30  1  0  0  0  0
M  END
>  <MODEL>
8

>  <REMARK>
 VINA RESULT:      -7.6      2.467      7.471
  Name = 
  2 active torsions:
  status: ('A' for Active; 'I' for Inactive)
    1  A    between atoms: N_20  and  C_29
    2  A    between atoms: C_29  and  C_30
                            x       y       z     vdW  Elec       q    Type
                         _______ _______ _______ _____ _____    ______ ____

>  <TORSDO>
F 2

$$$$
=
 OpenBabel11112416403D

 32 37  0  0  1  0  0  0  0  0999 V2000
  185.4920  178.3250  142.6250 C   0  0  0  0  0  2  0  0  0  0  0  0
  189.4520  174.6480  141.6330 C   0  0  0  0  0  0  0  0  0  0  0  0
  192.7530  174.2180  145.3830 C   0  0  0  0  0  2  0  0  0  0  0  0
  192.7480  172.8630  145.0160 O   0  0  0  0  0  0  0  0  0  0  0  0
  189.5050  172.9720  139.7920 C   0  0  0  0  0  0  0  0  0  0  0  0
  190.0300  171.8020  139.4330 C   0  0  0  0  0  0  0  0  0  0  0  0
  187.5430  176.2100  141.7940 C   0  0  1  0  0  3  0  0  0  0  0  0
  189.3100  176.2750  143.5440 C   0  0  0  0  0  2  0  0  0  0  0  0
  191.2600  169.7750  139.7020 C   0  0  2  0  0  3  0  0  0  0  0  0
  187.7710  178.2080  143.4040 C   0  0  0  0  0  2  0  0  0  0  0  0
  191.4330  174.8660  144.9570 C   0  0  0  0  0  2  0  0  0  0  0  0
  190.0030  175.1810  142.8560 N   0  0  0  0  0  0  0  0  0  0  0  0
  191.0780  174.4970  143.5330 C   0  0  0  0  0  0  0  0  0  0  0  0
  191.4350  173.1580  141.4870 C   0  0  1  0  0  3  0  0  0  0  0  0
  190.2990  169.6870  138.4890 C   0  0  0  0  0  3  0  0  0  0  0  0
  186.1020  178.2910  141.2130 C   0  0  0  0  0  2  0  0  0  0  0  0
  188.4970  177.1330  142.5830 C   0  0  2  0  0  3  0  0  0  0  0  0
  189.5500  170.9450  138.4190 N   0  0  0  0  0  0  0  0  0  0  0  0
  186.6180  176.9120  140.7900 C   0  0  0  0  0  2  0  0  0  0  0  0
  186.3870  177.8170  143.6740 N   0  0  0  0  0  0  0  0  0  0  0  0
  192.8940  172.8330  143.6160 C   0  0  0  0  0  2  0  0  0  0  0  0
  191.7080  173.4680  142.9330 C   0  0  0  0  0  0  0  0  0  0  0  0
  191.6770  171.7380  141.1770 N   0  0  0  0  0  0  0  0  0  0  0  0
  188.2740  175.1950  141.1140 O   0  0  0  0  0  0  0  0  0  0  0  0
  188.4430  173.5120  139.0740 O   0  0  0  0  0  1  0  0  0  0  0  0
  190.8170  168.7880  140.7650 C   0  0  0  0  0  1  0  0  0  0  0  0
  190.0710  173.6380  140.9980 C   0  0  0  0  0  0  0  0  0  0  0  0
  191.0650  171.1630  140.1850 C   0  0  0  0  0  0  0  0  0  0  0  0
  185.9990  178.4670  144.9150 C   0  0  0  0  0  2  0  0  0  0  0  0
  185.1910  177.5120  145.7760 C   0  0  0  0  0  3  0  0  0  0  0  0
  184.1170  178.2860  146.5090 C   0  0  0  0  0  1  0  0  0  0  0  0
  186.0930  176.8310  146.7890 C   0  0  0  0  0  1  0  0  0  0  0  0
  1 20  1  0  0  0  0
  2 12  1  0  0  0  0
  4  3  1  0  0  0  0
  5 27  1  0  0  0  0
  6  5  2  0  0  0  0
  6 28  1  0  0  0  0
  7 19  1  6  0  0  0
  7 17  1  0  0  0  0
  9 28  1  0  0  0  0
  9 26  1  1  0  0  0
 10 20  1  0  0  0  0
 11  3  1  0  0  0  0
 12 13  1  0  0  0  0
 12  8  1  0  0  0  0
 13 11  1  0  0  0  0
 14 27  1  1  0  0  0
 14 22  1  0  0  0  0
 15  9  1  0  0  0  0
 16  1  1  0  0  0  0
 17 10  1  1  0  0  0
 17  8  1  0  0  0  0
 18 15  2  0  0  0  0
 18  6  1  0  0  0  0
 19 16  1  0  0  0  0
 20 29  1  0  0  0  0
 21  4  1  0  0  0  0
 22 13  2  0  0  0  0
 22 21  1  0  0  0  0
 23 14  1  0  0  0  0
 24  2  1  0  0  0  0
 24  7  1  0  0  0  0
 25  5  1  0  0  0  0
 27  2  2  0  0  0  0
 28 23  2  0  0  0  0
 29 30  1  0  0  0  0
 30 31  1  0  0  0  0
 30 32  1  0  0  0  0
M  END
>  <MODEL>
9

>  <REMARK>
 VINA RESULT:      -7.6      1.575      2.190
  Name = 
  2 active torsions:
  status: ('A' for Active; 'I' for Inactive)
    1  A    between atoms: N_20  and  C_29
    2  A    between atoms: C_29  and  C_30
                            x       y       z     vdW  Elec       q    Type
                         _______ _______ _______ _____ _____    ______ ____

>  <TORSDO>
F 2

$$$$
