=
 OpenBabel11112417073D

 31 35  0  0  1  0  0  0  0  0999 V2000
  194.5230  176.0070  144.9060 C   0  0  0  0  0  0  0  0  0  0  0  0
  191.2670  176.8940  143.1420 C   0  0  2  0  0  3  0  0  0  0  0  0
  190.7710  175.6520  142.4200 C   0  0  0  0  0  0  0  0  0  0  0  0
  188.2700  176.1890  147.4670 O   0  0  0  0  0  0  0  0  0  0  0  0
  187.6290  176.9030  146.6480 C   0  0  0  0  0  0  0  0  0  0  0  0
  191.1940  173.4770  141.4150 C   0  0  0  0  0  0  0  0  0  0  0  0
  192.2660  176.5620  144.2200 C   0  0  0  0  0  0  0  0  0  0  0  0
  194.0720  175.7870  146.2110 C   0  0  0  0  0  3  0  0  0  0  0  0
  191.6520  174.6070  142.0980 C   0  0  0  0  0  3  0  0  0  0  0  0
  189.6070  177.1540  145.0520 C   0  0  0  0  0  0  0  0  0  0  0  0
  195.8650  175.8400  144.5980 O   0  0  0  0  0  1  0  0  0  0  0  0
  188.5350  176.6110  142.2600 O   0  0  0  0  0  0  0  0  0  0  0  0
  192.0940  172.4200  141.1080 N   0  0  0  0  0  1  0  0  0  0  0  0
  190.4420  176.5720  145.8670 N   0  0  0  0  0  0  0  0  0  0  0  0
  190.1070  177.7270  143.7380 C   0  0  2  0  0  3  0  0  0  0  0  0
  188.2480  177.3840  145.4500 N   0  0  0  0  0  2  0  0  0  0  0  0
  193.6200  176.3900  143.9090 C   0  0  0  0  0  3  0  0  0  0  0  0
  189.8530  173.3850  141.0380 C   0  0  0  0  0  3  0  0  0  0  0  0
  191.8170  176.3530  145.5350 C   0  0  0  0  0  0  0  0  0  0  0  0
  192.7220  175.9590  146.5270 C   0  0  0  0  0  3  0  0  0  0  0  0
  188.9890  177.8860  142.7070 C   0  0  0  0  0  2  0  0  0  0  0  0
  189.4270  175.5670  141.9990 C   0  0  0  0  0  0  0  0  0  0  0  0
  188.9720  174.4280  141.3270 C   0  0  0  0  0  3  0  0  0  0  0  0
  185.0740  178.7570  144.6630 C   0  0  0  0  0  0  0  0  0  0  0  0
  185.2470  176.6120  145.9110 C   0  0  0  0  0  2  0  0  0  0  0  0
  186.3420  179.3920  148.0030 O   0  0  0  0  0  0  0  0  0  0  0  0
  184.5760  179.3930  143.6990 O   0  0  0  0  0  0  0  0  0  0  0  0
  185.3070  177.2830  144.5390 C   0  0  0  0  0  2  0  0  0  0  0  0
  186.0070  178.7540  146.9710 C   0  0  0  0  0  0  0  0  0  0  0  0
  186.2020  177.2640  146.9180 C   0  0  2  0  0  3  0  0  0  0  0  0
  185.4660  179.4540  145.8470 N   0  0  0  0  0  2  0  0  0  0  0  0
  1  8  1  0  0  0  0
  2  3  1  1  0  0  0
  2 15  1  0  0  0  0
  2  7  1  0  0  0  0
  5  4  2  0  0  0  0
  6  9  2  0  0  0  0
  7 19  2  0  0  0  0
  8 20  2  0  0  0  0
  9  3  1  0  0  0  0
 10 16  1  0  0  0  0
 10 14  2  0  0  0  0
 11  1  1  0  0  0  0
 12 21  1  0  0  0  0
 13  6  1  0  0  0  0
 15 21  1  6  0  0  0
 15 10  1  0  0  0  0
 16  5  1  0  0  0  0
 17  7  1  0  0  0  0
 17  1  2  0  0  0  0
 18 23  2  0  0  0  0
 18  6  1  0  0  0  0
 19 14  1  0  0  0  0
 19 20  1  0  0  0  0
 22 12  1  0  0  0  0
 22  3  2  0  0  0  0
 23 22  1  0  0  0  0
 24 31  1  0  0  0  0
 25 30  1  0  0  0  0
 27 24  2  0  0  0  0
 28 24  1  0  0  0  0
 28 25  1  0  0  0  0
 29 26  2  0  0  0  0
 30  5  1  6  0  0  0
 30 29  1  0  0  0  0
 31 29  1  0  0  0  0
M  END
>  <MODEL>
1

>  <REMARK>
 VINA RESULT:      -9.1      0.000      0.000
  Name = 
  1 active torsions:
  status: ('A' for Active; 'I' for Inactive)
    1  A    between atoms: C_5  and  C_30
                            x       y       z     vdW  Elec       q    Type
                         _______ _______ _______ _____ _____    ______ ____

>  <TORSDO>
F 1

$$$$
=
 OpenBabel11112417073D

 31 35  0  0  1  0  0  0  0  0999 V2000
  194.6910  175.5240  145.1060 C   0  0  0  0  0  0  0  0  0  0  0  0
  191.5320  175.3450  142.9890 C   0  0  2  0  0  3  0  0  0  0  0  0
  191.1670  173.8800  142.8140 C   0  0  0  0  0  0  0  0  0  0  0  0
  188.2620  176.1890  147.0860 O   0  0  0  0  0  0  0  0  0  0  0  0
  187.6440  176.4560  146.0190 C   0  0  0  0  0  0  0  0  0  0  0  0
  191.7920  171.5300  142.8010 C   0  0  0  0  0  0  0  0  0  0  0  0
  192.4640  175.5610  144.1530 C   0  0  0  0  0  0  0  0  0  0  0  0
  194.1570  175.8100  146.3670 C   0  0  0  0  0  3  0  0  0  0  0  0
  192.1290  172.8730  142.9850 C   0  0  0  0  0  3  0  0  0  0  0  0
  189.7190  176.2100  144.5500 C   0  0  0  0  0  0  0  0  0  0  0  0
  196.0610  175.3620  144.9550 O   0  0  0  0  0  1  0  0  0  0  0  0
  188.8960  174.5000  142.1760 O   0  0  0  0  0  0  0  0  0  0  0  0
  192.7740  170.5190  142.9930 N   0  0  0  0  0  1  0  0  0  0  0  0
  190.5220  176.0780  145.5690 N   0  0  0  0  0  0  0  0  0  0  0  0
  190.2820  176.2460  143.1410 C   0  0  2  0  0  3  0  0  0  0  0  0
  188.3220  176.4640  144.7580 N   0  0  0  0  0  2  0  0  0  0  0  0
  193.8450  175.3940  144.0000 C   0  0  0  0  0  3  0  0  0  0  0  0
  190.4920  171.1800  142.4340 C   0  0  0  0  0  3  0  0  0  0  0  0
  191.9300  175.8620  145.4180 C   0  0  0  0  0  0  0  0  0  0  0  0
  192.7780  175.9790  146.5230 C   0  0  0  0  0  3  0  0  0  0  0  0
  189.2380  175.8810  142.0850 C   0  0  0  0  0  2  0  0  0  0  0  0
  189.8660  173.5200  142.4030 C   0  0  0  0  0  0  0  0  0  0  0  0
  189.5310  172.1730  142.2330 C   0  0  0  0  0  3  0  0  0  0  0  0
  185.6520  179.3380  144.7410 C   0  0  0  0  0  0  0  0  0  0  0  0
  185.5810  176.8530  144.6460 C   0  0  0  0  0  2  0  0  0  0  0  0
  185.9030  177.9830  148.0980 O   0  0  0  0  0  0  0  0  0  0  0  0
  185.4110  180.4350  144.1750 O   0  0  0  0  0  0  0  0  0  0  0  0
  185.9860  178.1340  143.9160 C   0  0  0  0  0  2  0  0  0  0  0  0
  185.9030  178.0230  146.8400 C   0  0  0  0  0  0  0  0  0  0  0  0
  186.1810  176.7720  146.0540 C   0  0  2  0  0  3  0  0  0  0  0  0
  185.6620  179.2620  146.1680 N   0  0  0  0  0  2  0  0  0  0  0  0
  1  8  1  0  0  0  0
  2  3  1  1  0  0  0
  2 15  1  0  0  0  0
  2  7  1  0  0  0  0
  3  9  1  0  0  0  0
  5  4  2  0  0  0  0
  6  9  2  0  0  0  0
  6 13  1  0  0  0  0
  7 19  2  0  0  0  0
  8 20  2  0  0  0  0
 10 16  1  0  0  0  0
 10 14  2  0  0  0  0
 11  1  1  0  0  0  0
 12 22  1  0  0  0  0
 15 21  1  6  0  0  0
 15 10  1  0  0  0  0
 16  5  1  0  0  0  0
 17  7  1  0  0  0  0
 17  1  2  0  0  0  0
 18  6  1  0  0  0  0
 19 14  1  0  0  0  0
 19 20  1  0  0  0  0
 21 12  1  0  0  0  0
 22  3  2  0  0  0  0
 23 22  1  0  0  0  0
 23 18  2  0  0  0  0
 24 31  1  0  0  0  0
 25 30  1  0  0  0  0
 27 24  2  0  0  0  0
 28 25  1  0  0  0  0
 28 24  1  0  0  0  0
 29 26  2  0  0  0  0
 30  5  1  6  0  0  0
 30 29  1  0  0  0  0
 31 29  1  0  0  0  0
M  END
>  <MODEL>
2

>  <REMARK>
 VINA RESULT:      -8.6      1.298      1.502
  Name = 
  1 active torsions:
  status: ('A' for Active; 'I' for Inactive)
    1  A    between atoms: C_5  and  C_30
                            x       y       z     vdW  Elec       q    Type
                         _______ _______ _______ _____ _____    ______ ____

>  <TORSDO>
F 1

$$$$
=
 OpenBabel11112417073D

 31 35  0  0  1  0  0  0  0  0999 V2000
  194.4710  170.3640  144.7700 C   0  0  0  0  0  0  0  0  0  0  0  0
  194.7830  174.0500  145.6710 C   0  0  2  0  0  3  0  0  0  0  0  0
  195.5370  174.7450  144.5490 C   0  0  0  0  0  0  0  0  0  0  0  0
  189.9460  175.3060  143.8800 O   0  0  0  0  0  0  0  0  0  0  0  0
  190.3260  176.2090  144.6750 C   0  0  0  0  0  0  0  0  0  0  0  0
  197.0600  174.6640  142.6540 C   0  0  0  0  0  0  0  0  0  0  0  0
  194.2090  172.7280  145.2330 C   0  0  0  0  0  0  0  0  0  0  0  0
  193.1680  170.3180  144.2630 C   0  0  0  0  0  3  0  0  0  0  0  0
  196.3540  174.0160  143.6710 C   0  0  0  0  0  3  0  0  0  0  0  0
  192.4120  174.9300  145.4070 C   0  0  0  0  0  0  0  0  0  0  0  0
  195.2480  169.2140  144.7880 O   0  0  0  0  0  1  0  0  0  0  0  0
  194.7150  176.9110  145.3100 O   0  0  0  0  0  0  0  0  0  0  0  0
  197.8730  173.9110  141.7630 N   0  0  0  0  0  1  0  0  0  0  0  0
  192.0740  173.8500  144.7600 N   0  0  0  0  0  0  0  0  0  0  0  0
  193.6650  174.9400  146.2640 C   0  0  2  0  0  3  0  0  0  0  0  0
  191.5330  176.0650  145.4300 N   0  0  0  0  0  2  0  0  0  0  0  0
  194.9940  171.5690  145.2500 C   0  0  0  0  0  3  0  0  0  0  0  0
  196.9660  176.0490  142.5120 C   0  0  0  0  0  3  0  0  0  0  0  0
  192.8950  172.6770  144.7360 C   0  0  0  0  0  0  0  0  0  0  0  0
  192.3810  171.4730  144.2460 C   0  0  0  0  0  3  0  0  0  0  0  0
  194.1910  176.3530  146.5130 C   0  0  0  0  0  2  0  0  0  0  0  0
  195.4800  176.1490  144.4220 C   0  0  0  0  0  0  0  0  0  0  0  0
  196.1790  176.7910  143.3950 C   0  0  0  0  0  3  0  0  0  0  0  0
  186.7310  176.7910  145.4820 C   0  0  0  0  0  0  0  0  0  0  0  0
  188.9560  177.5850  146.2660 C   0  0  0  0  0  2  0  0  0  0  0  0
  188.6940  177.9110  142.6430 O   0  0  0  0  0  0  0  0  0  0  0  0
  185.5360  176.5190  145.7630 O   0  0  0  0  0  0  0  0  0  0  0  0
  187.7960  176.6220  146.5220 C   0  0  0  0  0  2  0  0  0  0  0  0
  188.4200  177.5480  143.8170 C   0  0  0  0  0  0  0  0  0  0  0  0
  189.5130  177.4550  144.8440 C   0  0  2  0  0  3  0  0  0  0  0  0
  187.0750  177.2030  144.1580 N   0  0  0  0  0  2  0  0  0  0  0  0
  1 11  1  0  0  0  0
  1 17  1  0  0  0  0
  2  3  1  6  0  0  0
  2 15  1  0  0  0  0
  4  5  2  0  0  0  0
  5 16  1  0  0  0  0
  6  9  1  0  0  0  0
  7 17  2  0  0  0  0
  7  2  1  0  0  0  0
  8  1  2  0  0  0  0
  9  3  2  0  0  0  0
 10 16  1  0  0  0  0
 10 15  1  0  0  0  0
 12 21  1  0  0  0  0
 13  6  1  0  0  0  0
 14 10  2  0  0  0  0
 15 21  1  6  0  0  0
 18  6  2  0  0  0  0
 18 23  1  0  0  0  0
 19 14  1  0  0  0  0
 19  7  1  0  0  0  0
 20  8  1  0  0  0  0
 20 19  2  0  0  0  0
 22  3  1  0  0  0  0
 22 12  1  0  0  0  0
 23 22  2  0  0  0  0
 24 27  2  0  0  0  0
 24 28  1  0  0  0  0
 25 28  1  0  0  0  0
 26 29  2  0  0  0  0
 29 31  1  0  0  0  0
 29 30  1  0  0  0  0
 30  5  1  1  0  0  0
 30 25  1  0  0  0  0
 31 24  1  0  0  0  0
M  END
>  <MODEL>
3

>  <REMARK>
 VINA RESULT:      -8.5      3.037      5.157
  Name = 
  1 active torsions:
  status: ('A' for Active; 'I' for Inactive)
    1  A    between atoms: C_5  and  C_30
                            x       y       z     vdW  Elec       q    Type
                         _______ _______ _______ _____ _____    ______ ____

>  <TORSDO>
F 1

$$$$
=
 OpenBabel11112417073D

 31 35  0  0  1  0  0  0  0  0999 V2000
  186.2630  177.9270  140.8820 C   0  0  0  0  0  0  0  0  0  0  0  0
  188.8730  177.9790  143.6540 C   0  0  2  0  0  3  0  0  0  0  0  0
  188.2330  177.4140  144.9110 C   0  0  0  0  0  0  0  0  0  0  0  0
  191.1390  173.4200  142.1510 O   0  0  0  0  0  0  0  0  0  0  0  0
  191.9570  174.0560  142.8700 C   0  0  0  0  0  0  0  0  0  0  0  0
  186.2560  176.8920  146.2290 C   0  0  0  0  0  0  0  0  0  0  0  0
  188.1140  177.5960  142.4100 C   0  0  0  0  0  0  0  0  0  0  0  0
  186.6260  176.7660  140.1900 C   0  0  0  0  0  3  0  0  0  0  0  0
  186.8380  177.3940  145.0620 C   0  0  0  0  0  3  0  0  0  0  0  0
  190.5080  176.1560  142.9670 C   0  0  0  0  0  0  0  0  0  0  0  0
  185.1640  178.6650  140.4680 O   0  0  0  0  0  1  0  0  0  0  0  0
  190.4350  177.0190  145.8800 O   0  0  0  0  0  0  0  0  0  0  0  0
  184.8410  176.8640  146.3620 N   0  0  0  0  0  1  0  0  0  0  0  0
  189.6470  175.6990  142.1010 N   0  0  0  0  0  0  0  0  0  0  0  0
  190.3570  177.5640  143.5150 C   0  0  2  0  0  3  0  0  0  0  0  0
  191.6770  175.3930  143.2980 N   0  0  0  0  0  2  0  0  0  0  0  0
  187.0030  178.3390  141.9940 C   0  0  0  0  0  3  0  0  0  0  0  0
  187.0650  176.4160  147.2630 C   0  0  0  0  0  3  0  0  0  0  0  0
  188.4850  176.4370  141.7060 C   0  0  0  0  0  0  0  0  0  0  0  0
  187.7350  176.0220  140.6010 C   0  0  0  0  0  3  0  0  0  0  0  0
  191.0850  177.7540  144.8450 C   0  0  0  0  0  2  0  0  0  0  0  0
  189.0430  176.9680  145.9770 C   0  0  0  0  0  0  0  0  0  0  0  0
  188.4550  176.4550  147.1380 C   0  0  0  0  0  3  0  0  0  0  0  0
  194.4270  174.8750  145.5420 C   0  0  0  0  0  0  0  0  0  0  0  0
  193.1770  172.8850  144.7250 C   0  0  0  0  0  2  0  0  0  0  0  0
  194.8960  174.5280  141.9600 O   0  0  0  0  0  0  0  0  0  0  0  0
  194.9410  175.4870  146.5120 O   0  0  0  0  0  0  0  0  0  0  0  0
  193.2270  174.0060  145.7630 C   0  0  0  0  0  2  0  0  0  0  0  0
  194.4100  174.3510  143.1080 C   0  0  0  0  0  0  0  0  0  0  0  0
  193.2450  173.4190  143.2900 C   0  0  2  0  0  3  0  0  0  0  0  0
  194.9550  175.0570  144.2260 N   0  0  0  0  0  2  0  0  0  0  0  0
  1 17  1  0  0  0  0
  2  7  1  6  0  0  0
  2  3  1  0  0  0  0
  3  9  2  0  0  0  0
  3 22  1  0  0  0  0
  4  5  2  0  0  0  0
  5 16  1  0  0  0  0
  6 13  1  0  0  0  0
  6 18  2  0  0  0  0
  8 20  1  0  0  0  0
  8  1  2  0  0  0  0
  9  6  1  0  0  0  0
 10 16  1  0  0  0  0
 10 15  1  0  0  0  0
 11  1  1  0  0  0  0
 12 22  1  0  0  0  0
 14 10  2  0  0  0  0
 15  2  1  0  0  0  0
 15 21  1  1  0  0  0
 17  7  2  0  0  0  0
 19 14  1  0  0  0  0
 19  7  1  0  0  0  0
 20 19  2  0  0  0  0
 21 12  1  0  0  0  0
 22 23  2  0  0  0  0
 23 18  1  0  0  0  0
 24 28  1  0  0  0  0
 24 27  2  0  0  0  0
 25 28  1  0  0  0  0
 26 29  2  0  0  0  0
 29 30  1  0  0  0  0
 29 31  1  0  0  0  0
 30  5  1  1  0  0  0
 30 25  1  0  0  0  0
 31 24  1  0  0  0  0
M  END
>  <MODEL>
4

>  <REMARK>
 VINA RESULT:      -8.4      2.435      7.579
  Name = 
  1 active torsions:
  status: ('A' for Active; 'I' for Inactive)
    1  A    between atoms: C_5  and  C_30
                            x       y       z     vdW  Elec       q    Type
                         _______ _______ _______ _____ _____    ______ ____

>  <TORSDO>
F 1

$$$$
=
 OpenBabel11112417073D

 31 35  0  0  1  0  0  0  0  0999 V2000
  190.6750  171.1470  142.3600 C   0  0  0  0  0  0  0  0  0  0  0  0
  190.1150  174.1530  144.6290 C   0  0  2  0  0  3  0  0  0  0  0  0
  191.3590  175.0240  144.5700 C   0  0  0  0  0  0  0  0  0  0  0  0
  187.4030  176.9000  140.9850 O   0  0  0  0  0  0  0  0  0  0  0  0
  187.1410  177.3770  142.1220 C   0  0  0  0  0  0  0  0  0  0  0  0
  193.7350  175.2930  144.1250 C   0  0  0  0  0  0  0  0  0  0  0  0
  190.0280  173.2070  143.4590 C   0  0  0  0  0  0  0  0  0  0  0  0
  189.9840  171.5430  141.2100 C   0  0  0  0  0  3  0  0  0  0  0  0
  192.5900  174.4920  144.1570 C   0  0  0  0  0  3  0  0  0  0  0  0
  188.3830  175.5310  143.3750 C   0  0  0  0  0  0  0  0  0  0  0  0
  191.3390  169.9290  142.3840 O   0  0  0  0  0  1  0  0  0  0  0  0
  190.1040  176.9140  145.4640 O   0  0  0  0  0  0  0  0  0  0  0  0
  194.9730  174.7450  143.6900 N   0  0  0  0  0  1  0  0  0  0  0  0
  188.5960  174.8310  142.2960 N   0  0  0  0  0  0  0  0  0  0  0  0
  188.8170  174.9910  144.7260 C   0  0  2  0  0  3  0  0  0  0  0  0
  187.6140  176.7410  143.3140 N   0  0  0  0  0  2  0  0  0  0  0  0
  190.7010  171.9800  143.4830 C   0  0  0  0  0  3  0  0  0  0  0  0
  193.6620  176.6310  144.5150 C   0  0  0  0  0  3  0  0  0  0  0  0
  189.3240  173.5980  142.3080 C   0  0  0  0  0  0  0  0  0  0  0  0
  189.3090  172.7670  141.1830 C   0  0  0  0  0  3  0  0  0  0  0  0
  188.9790  176.0940  145.7720 C   0  0  0  0  0  2  0  0  0  0  0  0
  191.3030  176.3660  145.0010 C   0  0  0  0  0  0  0  0  0  0  0  0
  192.4490  177.1660  144.9540 C   0  0  0  0  0  3  0  0  0  0  0  0
  184.6520  178.5260  144.6510 C   0  0  0  0  0  0  0  0  0  0  0  0
  186.6780  179.4160  143.5120 C   0  0  0  0  0  2  0  0  0  0  0  0
  184.3100  178.1160  141.0610 O   0  0  0  0  0  0  0  0  0  0  0  0
  183.9340  178.4990  145.6830 O   0  0  0  0  0  0  0  0  0  0  0  0
  186.1260  178.7580  144.7770 C   0  0  0  0  0  2  0  0  0  0  0  0
  184.8520  178.3340  142.1770 C   0  0  0  0  0  0  0  0  0  0  0  0
  186.3250  178.6260  142.2470 C   0  0  2  0  0  3  0  0  0  0  0  0
  184.0660  178.2800  143.3700 N   0  0  0  0  0  2  0  0  0  0  0  0
  1 11  1  0  0  0  0
  1 17  1  0  0  0  0
  2  7  1  6  0  0  0
  2 15  1  0  0  0  0
  3  2  1  0  0  0  0
  3 22  1  0  0  0  0
  4  5  2  0  0  0  0
  5 16  1  0  0  0  0
  6  9  1  0  0  0  0
  6 18  2  0  0  0  0
  7 17  2  0  0  0  0
  8  1  2  0  0  0  0
  9  3  2  0  0  0  0
 10 15  1  0  0  0  0
 12 21  1  0  0  0  0
 13  6  1  0  0  0  0
 14 19  1  0  0  0  0
 14 10  2  0  0  0  0
 15 21  1  1  0  0  0
 16 10  1  0  0  0  0
 18 23  1  0  0  0  0
 19  7  1  0  0  0  0
 20  8  1  0  0  0  0
 20 19  2  0  0  0  0
 22 12  1  0  0  0  0
 23 22  2  0  0  0  0
 24 28  1  0  0  0  0
 24 27  2  0  0  0  0
 25 28  1  0  0  0  0
 26 29  2  0  0  0  0
 29 30  1  0  0  0  0
 29 31  1  0  0  0  0
 30  5  1  1  0  0  0
 30 25  1  0  0  0  0
 31 24  1  0  0  0  0
M  END
>  <MODEL>
5

>  <REMARK>
 VINA RESULT:      -7.9      2.577      4.729
  Name = 
  1 active torsions:
  status: ('A' for Active; 'I' for Inactive)
    1  A    between atoms: C_5  and  C_30
                            x       y       z     vdW  Elec       q    Type
                         _______ _______ _______ _____ _____    ______ ____

>  <TORSDO>
F 1

$$$$
=
 OpenBabel11112417073D

 31 35  0  0  1  0  0  0  0  0999 V2000
  190.0770  171.4750  139.2510 C   0  0  0  0  0  0  0  0  0  0  0  0
  189.8870  173.7470  142.3000 C   0  0  2  0  0  3  0  0  0  0  0  0
  191.1330  174.6160  142.3160 C   0  0  0  0  0  0  0  0  0  0  0  0
  186.7940  177.3450  139.9200 O   0  0  0  0  0  0  0  0  0  0  0  0
  186.6920  177.4940  141.1690 C   0  0  0  0  0  0  0  0  0  0  0  0
  193.4380  175.0250  141.6530 C   0  0  0  0  0  0  0  0  0  0  0  0
  189.6280  173.1530  140.9410 C   0  0  0  0  0  0  0  0  0  0  0  0
  189.2540  172.1590  138.3510 C   0  0  0  0  0  3  0  0  0  0  0  0
  192.2880  174.2320  141.6180 C   0  0  0  0  0  3  0  0  0  0  0  0
  188.0410  175.3920  141.7030 C   0  0  0  0  0  0  0  0  0  0  0  0
  190.7110  170.3040  138.8580 O   0  0  0  0  0  1  0  0  0  0  0  0
  190.0500  176.1780  143.8440 O   0  0  0  0  0  0  0  0  0  0  0  0
  194.5960  174.6300  140.9290 N   0  0  0  0  0  1  0  0  0  0  0  0
  188.0970  175.0130  140.4570 N   0  0  0  0  0  0  0  0  0  0  0  0
  188.6330  174.5110  142.7890 C   0  0  2  0  0  3  0  0  0  0  0  0
  187.2990  176.5630  142.0720 N   0  0  0  0  0  2  0  0  0  0  0  0
  190.2690  171.9730  140.5440 C   0  0  0  0  0  3  0  0  0  0  0  0
  193.4480  176.2060  142.3970 C   0  0  0  0  0  3  0  0  0  0  0  0
  188.7900  173.8320  140.0400 C   0  0  0  0  0  0  0  0  0  0  0  0
  188.6100  173.3360  138.7440 C   0  0  0  0  0  3  0  0  0  0  0  0
  188.9550  175.2920  144.0630 C   0  0  0  0  0  2  0  0  0  0  0  0
  191.1660  175.7910  143.0970 C   0  0  0  0  0  0  0  0  0  0  0  0
  192.3150  176.5880  143.1190 C   0  0  0  0  0  3  0  0  0  0  0  0
  184.9760  178.0410  144.4340 C   0  0  0  0  0  0  0  0  0  0  0  0
  186.6060  179.2310  142.9780 C   0  0  0  0  0  2  0  0  0  0  0  0
  183.6720  178.2360  141.0540 O   0  0  0  0  0  0  0  0  0  0  0  0
  184.5680  177.7940  145.5970 O   0  0  0  0  0  0  0  0  0  0  0  0
  186.4270  178.3340  144.2030 C   0  0  0  0  0  2  0  0  0  0  0  0
  184.4960  178.2910  142.0040 C   0  0  0  0  0  0  0  0  0  0  0  0
  185.9290  178.6520  141.7310 C   0  0  2  0  0  3  0  0  0  0  0  0
  184.0660  177.9850  143.3340 N   0  0  0  0  0  2  0  0  0  0  0  0
  1 17  1  0  0  0  0
  2  7  1  6  0  0  0
  2  3  1  0  0  0  0
  2 15  1  0  0  0  0
  3 22  1  0  0  0  0
  4  5  2  0  0  0  0
  5 16  1  0  0  0  0
  6 18  2  0  0  0  0
  8 20  1  0  0  0  0
  8  1  2  0  0  0  0
  9  6  1  0  0  0  0
  9  3  2  0  0  0  0
 10 16  1  0  0  0  0
 10 15  1  0  0  0  0
 11  1  1  0  0  0  0
 12 21  1  0  0  0  0
 13  6  1  0  0  0  0
 14 10  2  0  0  0  0
 15 21  1  1  0  0  0
 17  7  2  0  0  0  0
 18 23  1  0  0  0  0
 19 14  1  0  0  0  0
 19  7  1  0  0  0  0
 20 19  2  0  0  0  0
 22 23  2  0  0  0  0
 22 12  1  0  0  0  0
 24 27  2  0  0  0  0
 25 28  1  0  0  0  0
 26 29  2  0  0  0  0
 28 24  1  0  0  0  0
 29 31  1  0  0  0  0
 30  5  1  1  0  0  0
 30 29  1  0  0  0  0
 30 25  1  0  0  0  0
 31 24  1  0  0  0  0
M  END
>  <MODEL>
6

>  <REMARK>
 VINA RESULT:      -7.8      2.736      5.318
  Name = 
  1 active torsions:
  status: ('A' for Active; 'I' for Inactive)
    1  A    between atoms: C_5  and  C_30
                            x       y       z     vdW  Elec       q    Type
                         _______ _______ _______ _____ _____    ______ ____

>  <TORSDO>
F 1

$$$$
=
 OpenBabel11112417073D

 31 35  0  0  1  0  0  0  0  0999 V2000
  186.7460  177.5400  140.6800 C   0  0  0  0  0  0  0  0  0  0  0  0
  189.0320  177.8140  143.7120 C   0  0  2  0  0  3  0  0  0  0  0  0
  188.2080  177.5040  144.9510 C   0  0  0  0  0  0  0  0  0  0  0  0
  190.9920  172.9100  143.1750 O   0  0  0  0  0  0  0  0  0  0  0  0
  191.7860  173.5820  143.8880 C   0  0  0  0  0  0  0  0  0  0  0  0
  186.0590  177.3530  146.0810 C   0  0  0  0  0  0  0  0  0  0  0  0
  188.3790  177.3030  142.4550 C   0  0  0  0  0  0  0  0  0  0  0  0
  187.0660  176.2610  140.2140 C   0  0  0  0  0  3  0  0  0  0  0  0
  186.8090  177.6190  144.9320 C   0  0  0  0  0  3  0  0  0  0  0  0
  190.5460  175.7810  143.5020 C   0  0  0  0  0  0  0  0  0  0  0  0
  185.7760  178.2910  140.0320 O   0  0  0  0  0  1  0  0  0  0  0  0
  190.2430  177.0900  146.2280 O   0  0  0  0  0  0  0  0  0  0  0  0
  184.6410  177.4600  146.0430 N   0  0  0  0  0  1  0  0  0  0  0  0
  189.7440  175.2660  142.6130 N   0  0  0  0  0  0  0  0  0  0  0  0
  190.4750  177.2650  143.8170 C   0  0  2  0  0  3  0  0  0  0  0  0
  191.5930  174.9870  144.0810 N   0  0  0  0  0  2  0  0  0  0  0  0
  187.3980  178.0600  141.8030 C   0  0  0  0  0  3  0  0  0  0  0  0
  186.7000  176.9810  147.2630 C   0  0  0  0  0  3  0  0  0  0  0  0
  188.7090  176.0240  141.9770 C   0  0  0  0  0  0  0  0  0  0  0  0
  188.0470  175.5030  140.8610 C   0  0  0  0  0  3  0  0  0  0  0  0
  191.0700  177.6000  145.1850 C   0  0  0  0  0  2  0  0  0  0  0  0
  188.8500  177.1660  146.1610 C   0  0  0  0  0  0  0  0  0  0  0  0
  188.0930  176.8890  147.3040 C   0  0  0  0  0  3  0  0  0  0  0  0
  195.3270  174.6280  144.4110 C   0  0  0  0  0  0  0  0  0  0  0  0
  193.4500  173.7110  145.7630 C   0  0  0  0  0  2  0  0  0  0  0  0
  193.9840  171.6750  142.7850 O   0  0  0  0  0  0  0  0  0  0  0  0
  196.3520  175.3550  144.3630 O   0  0  0  0  0  0  0  0  0  0  0  0
  194.2160  174.9700  145.3550 C   0  0  0  0  0  2  0  0  0  0  0  0
  194.0650  172.6510  143.5760 C   0  0  0  0  0  0  0  0  0  0  0  0
  192.9520  172.9170  144.5500 C   0  0  2  0  0  3  0  0  0  0  0  0
  195.2040  173.5130  143.5240 N   0  0  0  0  0  2  0  0  0  0  0  0
  1 17  1  0  0  0  0
  2  7  1  6  0  0  0
  2 15  1  0  0  0  0
  2  3  1  0  0  0  0
  3 22  1  0  0  0  0
  4  5  2  0  0  0  0
  5 16  1  0  0  0  0
  6 18  2  0  0  0  0
  8  1  2  0  0  0  0
  8 20  1  0  0  0  0
  9  3  2  0  0  0  0
  9  6  1  0  0  0  0
 10 15  1  0  0  0  0
 10 16  1  0  0  0  0
 11  1  1  0  0  0  0
 13  6  1  0  0  0  0
 14 10  2  0  0  0  0
 15 21  1  1  0  0  0
 17  7  2  0  0  0  0
 18 23  1  0  0  0  0
 19  7  1  0  0  0  0
 19 14  1  0  0  0  0
 20 19  2  0  0  0  0
 21 12  1  0  0  0  0
 22 12  1  0  0  0  0
 22 23  2  0  0  0  0
 24 28  1  0  0  0  0
 26 29  2  0  0  0  0
 27 24  2  0  0  0  0
 28 25  1  0  0  0  0
 29 30  1  0  0  0  0
 30  5  1  6  0  0  0
 30 25  1  0  0  0  0
 31 29  1  0  0  0  0
 31 24  1  0  0  0  0
M  END
>  <MODEL>
7

>  <REMARK>
 VINA RESULT:      -7.8      2.420      7.692
  Name = 
  1 active torsions:
  status: ('A' for Active; 'I' for Inactive)
    1  A    between atoms: C_5  and  C_30
                            x       y       z     vdW  Elec       q    Type
                         _______ _______ _______ _____ _____    ______ ____

>  <TORSDO>
F 1

$$$$
=
 OpenBabel11112417073D

 31 35  0  0  1  0  0  0  0  0999 V2000
  187.3010  177.6500  147.3590 C   0  0  0  0  0  0  0  0  0  0  0  0
  188.2640  175.1350  144.6680 C   0  0  2  0  0  3  0  0  0  0  0  0
  187.9190  175.7380  143.3160 C   0  0  0  0  0  0  0  0  0  0  0  0
  193.3690  176.5860  144.5780 O   0  0  0  0  0  0  0  0  0  0  0  0
  193.2720  175.4350  144.0730 C   0  0  0  0  0  0  0  0  0  0  0  0
  186.6500  177.3100  141.9610 C   0  0  0  0  0  0  0  0  0  0  0  0
  188.3580  176.1810  145.7480 C   0  0  0  0  0  0  0  0  0  0  0  0
  188.5390  178.2390  147.6350 C   0  0  0  0  0  3  0  0  0  0  0  0
  186.9780  176.7740  143.2100 C   0  0  0  0  0  3  0  0  0  0  0  0
  190.8070  175.1820  144.6910 C   0  0  0  0  0  0  0  0  0  0  0  0
  186.1620  178.0890  148.0190 O   0  0  0  0  0  1  0  0  0  0  0  0
  189.3960  174.1480  142.2050 O   0  0  0  0  0  0  0  0  0  0  0  0
  185.7050  178.3690  141.8700 N   0  0  0  0  0  1  0  0  0  0  0  0
  190.7880  176.2800  145.3930 N   0  0  0  0  0  0  0  0  0  0  0  0
  189.5690  174.3050  144.6230 C   0  0  2  0  0  3  0  0  0  0  0  0
  192.0300  174.7220  144.0990 N   0  0  0  0  0  2  0  0  0  0  0  0
  187.2080  176.6250  146.4120 C   0  0  0  0  0  3  0  0  0  0  0  0
  187.2510  176.8090  140.8060 C   0  0  0  0  0  3  0  0  0  0  0  0
  189.6030  176.7640  146.0370 C   0  0  0  0  0  0  0  0  0  0  0  0
  189.6890  177.7970  146.9760 C   0  0  0  0  0  3  0  0  0  0  0  0
  189.5700  173.3880  143.3990 C   0  0  0  0  0  2  0  0  0  0  0  0
  188.4920  175.2110  142.1400 C   0  0  0  0  0  0  0  0  0  0  0  0
  188.1700  175.7610  140.8950 C   0  0  0  0  0  3  0  0  0  0  0  0
  196.3430  173.8500  145.4740 C   0  0  0  0  0  0  0  0  0  0  0  0
  194.5760  173.3070  143.8080 C   0  0  0  0  0  2  0  0  0  0  0  0
  196.0000  176.5940  143.1240 O   0  0  0  0  0  0  0  0  0  0  0  0
  197.1560  173.4370  146.3400 O   0  0  0  0  0  0  0  0  0  0  0  0
  195.0620  173.1100  145.2450 C   0  0  0  0  0  2  0  0  0  0  0  0
  195.7300  175.5320  143.7440 C   0  0  0  0  0  0  0  0  0  0  0  0
  194.4610  174.7880  143.4330 C   0  0  2  0  0  3  0  0  0  0  0  0
  196.6200  175.0540  144.7560 N   0  0  0  0  0  2  0  0  0  0  0  0
  1  8  1  0  0  0  0
  1 11  1  0  0  0  0
  2  3  1  6  0  0  0
  2  7  1  0  0  0  0
  5 16  1  0  0  0  0
  5  4  2  0  0  0  0
  6  9  2  0  0  0  0
  7 19  2  0  0  0  0
  7 17  1  0  0  0  0
  9  3  1  0  0  0  0
 10 14  2  0  0  0  0
 12 21  1  0  0  0  0
 13  6  1  0  0  0  0
 14 19  1  0  0  0  0
 15 21  1  6  0  0  0
 15  2  1  0  0  0  0
 15 10  1  0  0  0  0
 16 10  1  0  0  0  0
 17  1  2  0  0  0  0
 18 23  2  0  0  0  0
 18  6  1  0  0  0  0
 19 20  1  0  0  0  0
 20  8  2  0  0  0  0
 22 12  1  0  0  0  0
 22  3  2  0  0  0  0
 23 22  1  0  0  0  0
 24 27  2  0  0  0  0
 25 28  1  0  0  0  0
 26 29  2  0  0  0  0
 28 24  1  0  0  0  0
 29 31  1  0  0  0  0
 30 29  1  0  0  0  0
 30 25  1  0  0  0  0
 30  5  1  1  0  0  0
 31 24  1  0  0  0  0
M  END
>  <MODEL>
8

>  <REMARK>
 VINA RESULT:      -7.7      2.480      7.326
  Name = 
  1 active torsions:
  status: ('A' for Active; 'I' for Inactive)
    1  A    between atoms: C_5  and  C_30
                            x       y       z     vdW  Elec       q    Type
                         _______ _______ _______ _____ _____    ______ ____

>  <TORSDO>
F 1

$$$$
=
 OpenBabel11112417073D

 31 35  0  0  1  0  0  0  0  0999 V2000
  186.1800  177.1080  142.8200 C   0  0  0  0  0  0  0  0  0  0  0  0
  188.5720  174.1460  142.8500 C   0  0  2  0  0  3  0  0  0  0  0  0
  189.0370  173.9040  141.4230 C   0  0  0  0  0  0  0  0  0  0  0  0
  192.7840  177.0520  144.2620 O   0  0  0  0  0  0  0  0  0  0  0  0
  193.0240  175.8430  144.5300 C   0  0  0  0  0  0  0  0  0  0  0  0
  188.7130  174.1350  139.0230 C   0  0  0  0  0  0  0  0  0  0  0  0
  188.0070  175.5300  143.0340 C   0  0  0  0  0  0  0  0  0  0  0  0
  187.0260  178.1440  143.2310 C   0  0  0  0  0  3  0  0  0  0  0  0
  188.2920  174.3800  140.3330 C   0  0  0  0  0  3  0  0  0  0  0  0
  190.6510  175.0710  143.9860 C   0  0  0  0  0  0  0  0  0  0  0  0
  184.8560  177.3790  142.5070 O   0  0  0  0  0  1  0  0  0  0  0  0
  190.9290  172.6000  142.2380 O   0  0  0  0  0  0  0  0  0  0  0  0
  187.9560  174.6360  137.9280 N   0  0  0  0  0  1  0  0  0  0  0  0
  190.2060  176.2860  143.8300 N   0  0  0  0  0  0  0  0  0  0  0  0
  189.6970  173.8950  143.8820 C   0  0  2  0  0  3  0  0  0  0  0  0
  192.0080  174.8440  144.3960 N   0  0  0  0  0  2  0  0  0  0  0  0
  186.6710  175.8030  142.7160 C   0  0  0  0  0  3  0  0  0  0  0  0
  189.8780  173.4030  138.7900 C   0  0  0  0  0  3  0  0  0  0  0  0
  188.8520  176.5690  143.4600 C   0  0  0  0  0  0  0  0  0  0  0  0
  188.3600  177.8750  143.5510 C   0  0  0  0  0  3  0  0  0  0  0  0
  190.4180  172.5840  143.5690 C   0  0  0  0  0  2  0  0  0  0  0  0
  190.1910  173.1310  141.1770 C   0  0  0  0  0  0  0  0  0  0  0  0
  190.6150  172.9000  139.8640 C   0  0  0  0  0  3  0  0  0  0  0  0
  195.9340  174.2950  142.7850 C   0  0  0  0  0  0  0  0  0  0  0  0
  195.4950  176.2220  144.2970 C   0  0  0  0  0  2  0  0  0  0  0  0
  194.0890  173.1610  145.6960 O   0  0  0  0  0  0  0  0  0  0  0  0
  196.6110  173.8130  141.8420 O   0  0  0  0  0  0  0  0  0  0  0  0
  195.6990  175.7730  142.8500 C   0  0  0  0  0  2  0  0  0  0  0  0
  194.5950  173.9490  144.8540 C   0  0  0  0  0  0  0  0  0  0  0  0
  194.3850  175.4300  144.9980 C   0  0  2  0  0  3  0  0  0  0  0  0
  195.3450  173.4270  143.7550 N   0  0  0  0  0  2  0  0  0  0  0  0
  1  8  1  0  0  0  0
  2  3  1  6  0  0  0
  2  7  1  0  0  0  0
  2 15  1  0  0  0  0
  4  5  2  0  0  0  0
  6  9  1  0  0  0  0
  7 19  2  0  0  0  0
  8 20  2  0  0  0  0
  9  3  2  0  0  0  0
 10 16  1  0  0  0  0
 11  1  1  0  0  0  0
 12 21  1  0  0  0  0
 13  6  1  0  0  0  0
 14 10  2  0  0  0  0
 15 21  1  6  0  0  0
 15 10  1  0  0  0  0
 16  5  1  0  0  0  0
 17  1  2  0  0  0  0
 17  7  1  0  0  0  0
 18  6  2  0  0  0  0
 18 23  1  0  0  0  0
 19 20  1  0  0  0  0
 19 14  1  0  0  0  0
 22  3  1  0  0  0  0
 22 12  1  0  0  0  0
 23 22  2  0  0  0  0
 24 28  1  0  0  0  0
 24 31  1  0  0  0  0
 25 30  1  0  0  0  0
 27 24  2  0  0  0  0
 28 25  1  0  0  0  0
 29 30  1  0  0  0  0
 29 26  2  0  0  0  0
 30  5  1  6  0  0  0
 31 29  1  0  0  0  0
M  END
>  <MODEL>
9

>  <REMARK>
 VINA RESULT:      -7.6      2.904      7.203
  Name = 
  1 active torsions:
  status: ('A' for Active; 'I' for Inactive)
    1  A    between atoms: C_5  and  C_30
                            x       y       z     vdW  Elec       q    Type
                         _______ _______ _______ _____ _____    ______ ____

>  <TORSDO>
F 1

$$$$
