=
 OpenBabel11112417423D

 28 32  0  0  1  0  0  0  0  0999 V2000
  190.2560  174.6280  141.8230 C   0  0  2  0  0  3  0  0  0  0  0  0
  187.7750  178.6960  142.3670 O   0  0  0  0  0  1  0  0  0  0  0  0
  188.7310  174.6820  147.7510 O   0  0  0  0  0  0  0  0  0  0  0  0
  188.1520  172.6570  142.0080 C   0  0  0  0  0  3  0  0  0  0  0  0
  187.5190  176.2940  146.5440 N   0  0  0  0  0  0  0  0  0  0  0  0
  191.8340  175.4710  142.2200 S   0  0  0  0  0  0  0  0  0  0  0  0
  187.6860  177.1230  140.5950 C   0  0  0  0  0  1  0  0  0  0  0  0
  187.1130  177.5430  141.9360 C   0  0  1  0  0  0  0  0  0  0  0  0
  184.7390  177.6330  142.9580 C   0  0  2  0  0  3  0  0  0  0  0  0
  187.2980  176.4040  142.9620 C   0  0  2  0  0  3  0  0  0  0  0  0
  193.1370  176.6260  145.5270 C   0  0  0  0  0  1  0  0  0  0  0  0
  189.0220  176.5870  144.7220 C   0  0  1  0  0  3  0  0  0  0  0  0
  185.5300  177.7500  144.2530 C   0  0  0  0  0  2  0  0  0  0  0  0
  185.6260  177.8740  141.7290 C   0  0  0  0  0  2  0  0  0  0  0  0
  191.8370  176.0420  145.0130 C   0  0  2  0  0  3  0  0  0  0  0  0
  189.2370  174.6980  142.9700 C   0  0  2  0  0  3  0  0  0  0  0  0
  188.6180  175.4320  146.7450 C   0  0  0  0  0  0  0  0  0  0  0  0
  183.6460  178.5880  142.9630 N   0  0  0  0  0  1  0  0  0  0  0  0
  190.9250  175.8170  146.1340 N   0  0  0  0  0  2  0  0  0  0  0  0
  188.1310  173.6660  142.8890 C   0  0  0  0  0  3  0  0  0  0  0  0
  190.5300  173.1800  141.4320 C   0  0  0  0  0  2  0  0  0  0  0  0
  189.2330  172.5270  140.9680 C   0  0  0  0  0  2  0  0  0  0  0  0
  192.1810  174.5030  144.0990 S   0  0  0  0  0  0  0  0  0  0  0  0
  187.6820  177.0440  145.3120 C   0  0  1  0  0  3  0  0  0  0  0  0
  189.5920  175.4780  145.6360 C   0  0  2  0  0  3  0  0  0  0  0  0
  186.6040  176.6630  144.3100 C   0  0  2  0  0  3  0  0  0  0  0  0
  186.4590  176.5260  147.5110 C   0  0  0  0  0  1  0  0  0  0  0  0
  188.7700  176.1370  143.2760 C   0  0  1  0  0  3  0  0  0  0  0  0
  1 21  1  1  0  0  0
  1  6  1  0  0  0  0
  1 16  1  0  0  0  0
  4 20  2  0  0  0  0
  5 17  1  0  0  0  0
  5 27  1  0  0  0  0
  6 23  1  0  0  0  0
  8  7  1  6  0  0  0
  8  2  1  0  0  0  0
  8 10  1  0  0  0  0
  9 18  1  1  0  0  0
  9 13  1  0  0  0  0
 10 28  1  0  0  0  0
 10 26  1  0  0  0  0
 12 24  1  0  0  0  0
 12 25  1  0  0  0  0
 13 26  1  0  0  0  0
 14  8  1  0  0  0  0
 14  9  1  0  0  0  0
 15 11  1  0  0  0  0
 15 19  1  0  0  0  0
 16 28  1  0  0  0  0
 17  3  2  0  0  0  0
 20 16  1  0  0  0  0
 22 21  1  0  0  0  0
 22  4  1  0  0  0  0
 23 15  1  0  0  0  0
 24  5  1  0  0  0  0
 25 19  1  0  0  0  0
 25 17  1  0  0  0  0
 26 24  1  0  0  0  0
 28 12  1  0  0  0  0
M  END
>  <MODEL>
1

>  <REMARK>
 VINA RESULT:      -7.8      0.000      0.000
  Name = 
  0 active torsions:
  status: ('A' for Active; 'I' for Inactive)
                            x       y       z     vdW  Elec       q    Type
                         _______ _______ _______ _____ _____    ______ ____

>  <TORSDO>
F 0

$$$$
=
 OpenBabel11112417423D

 28 32  0  0  1  0  0  0  0  0999 V2000
  191.0790  173.4290  141.8640 C   0  0  2  0  0  3  0  0  0  0  0  0
  188.7580  177.6250  141.8180 O   0  0  0  0  0  1  0  0  0  0  0  0
  192.1250  175.7910  147.4140 O   0  0  0  0  0  0  0  0  0  0  0  0
  189.3830  171.8670  143.6050 C   0  0  0  0  0  3  0  0  0  0  0  0
  190.4130  176.9540  146.3000 N   0  0  0  0  0  0  0  0  0  0  0  0
  192.6170  174.2080  141.2410 S   0  0  0  0  0  0  0  0  0  0  0  0
  188.0610  175.5280  140.9580 C   0  0  0  0  0  1  0  0  0  0  0  0
  188.0610  176.4620  142.1550 C   0  0  1  0  0  0  0  0  0  0  0  0
  186.3170  177.1400  143.9400 C   0  0  2  0  0  3  0  0  0  0  0  0
  188.7320  175.7650  143.3590 C   0  0  2  0  0  3  0  0  0  0  0  0
  195.0770  176.3670  143.0450 C   0  0  0  0  0  1  0  0  0  0  0  0
  191.0090  176.4190  144.0590 C   0  0  1  0  0  3  0  0  0  0  0  0
  187.5600  177.6480  144.6570 C   0  0  0  0  0  2  0  0  0  0  0  0
  186.6010  176.8300  142.4640 C   0  0  0  0  0  2  0  0  0  0  0  0
  193.7260  175.7600  143.3600 C   0  0  2  0  0  3  0  0  0  0  0  0
  190.6190  174.0080  143.2100 C   0  0  2  0  0  3  0  0  0  0  0  0
  191.5560  176.1270  146.3410 C   0  0  0  0  0  0  0  0  0  0  0  0
  185.2580  178.1270  144.0350 N   0  0  0  0  0  1  0  0  0  0  0  0
  193.3740  176.0470  144.7510 N   0  0  0  0  0  2  0  0  0  0  0  0
  189.6550  173.1260  143.9750 C   0  0  0  0  0  3  0  0  0  0  0  0
  191.2710  171.9190  141.9640 C   0  0  0  0  0  2  0  0  0  0  0  0
  189.9480  171.2660  142.3460 C   0  0  0  0  0  2  0  0  0  0  0  0
  193.7730  173.9670  143.0280 S   0  0  0  0  0  0  0  0  0  0  0  0
  190.0010  177.1820  144.9280 C   0  0  1  0  0  3  0  0  0  0  0  0
  191.9820  175.6740  145.0020 C   0  0  2  0  0  3  0  0  0  0  0  0
  188.6370  176.5630  144.6700 C   0  0  2  0  0  3  0  0  0  0  0  0
  189.8300  177.6210  147.4530 C   0  0  0  0  0  1  0  0  0  0  0  0
  190.2180  175.4960  143.1210 C   0  0  1  0  0  3  0  0  0  0  0  0
  1 21  1  1  0  0  0
  1 16  1  0  0  0  0
  2  8  1  0  0  0  0
  4 20  2  0  0  0  0
  5 17  1  0  0  0  0
  5 27  1  0  0  0  0
  6  1  1  0  0  0  0
  6 23  1  0  0  0  0
  8  7  1  6  0  0  0
  8 14  1  0  0  0  0
  8 10  1  0  0  0  0
  9 18  1  6  0  0  0
  9 13  1  0  0  0  0
 10 26  1  0  0  0  0
 11 15  1  0  0  0  0
 12 24  1  0  0  0  0
 12 25  1  0  0  0  0
 13 26  1  0  0  0  0
 14  9  1  0  0  0  0
 15 19  1  0  0  0  0
 16 20  1  0  0  0  0
 17  3  2  0  0  0  0
 19 25  1  0  0  0  0
 21 22  1  0  0  0  0
 22  4  1  0  0  0  0
 23 15  1  0  0  0  0
 24  5  1  0  0  0  0
 25 17  1  0  0  0  0
 26 24  1  0  0  0  0
 28 16  1  0  0  0  0
 28 10  1  0  0  0  0
 28 12  1  0  0  0  0
M  END
>  <MODEL>
2

>  <REMARK>
 VINA RESULT:      -7.5      1.788      2.251
  Name = 
  0 active torsions:
  status: ('A' for Active; 'I' for Inactive)
                            x       y       z     vdW  Elec       q    Type
                         _______ _______ _______ _____ _____    ______ ____

>  <TORSDO>
F 0

$$$$
=
 OpenBabel11112417423D

 28 32  0  0  1  0  0  0  0  0999 V2000
  190.6150  175.5970  143.9820 C   0  0  2  0  0  3  0  0  0  0  0  0
  186.2140  175.7510  145.8820 O   0  0  0  0  0  1  0  0  0  0  0  0
  187.0590  177.5410  139.3930 O   0  0  0  0  0  0  0  0  0  0  0  0
  191.2370  178.4110  143.7760 C   0  0  0  0  0  3  0  0  0  0  0  0
  185.9260  177.6390  141.4510 N   0  0  0  0  0  0  0  0  0  0  0  0
  190.3780  173.8640  143.4330 S   0  0  0  0  0  0  0  0  0  0  0  0
  188.2760  176.4170  146.8450 C   0  0  0  0  0  1  0  0  0  0  0  0
  187.0650  176.8490  146.0370 C   0  0  1  0  0  0  0  0  0  0  0  0
  185.5660  178.9550  145.9810 C   0  0  2  0  0  3  0  0  0  0  0  0
  187.5190  177.3740  144.6580 C   0  0  2  0  0  3  0  0  0  0  0  0
  188.3590  172.5370  140.5820 C   0  0  0  0  0  1  0  0  0  0  0  0
  187.1810  175.9990  142.6340 C   0  0  1  0  0  3  0  0  0  0  0  0
  185.1460  178.3620  144.6430 C   0  0  0  0  0  2  0  0  0  0  0  0
  186.3300  177.9360  146.8370 C   0  0  0  0  0  2  0  0  0  0  0  0
  188.5590  173.8870  141.2370 C   0  0  2  0  0  3  0  0  0  0  0  0
  189.5980  176.5650  143.3580 C   0  0  2  0  0  3  0  0  0  0  0  0
  186.9270  177.1500  140.5840 C   0  0  0  0  0  0  0  0  0  0  0  0
  184.3950  179.4160  146.7020 N   0  0  0  0  0  1  0  0  0  0  0  0
  187.8270  174.9090  140.4880 N   0  0  0  0  0  2  0  0  0  0  0  0
  190.0100  178.0220  143.4040 C   0  0  0  0  0  3  0  0  0  0  0  0
  192.0410  176.0430  143.6780 C   0  0  0  0  0  2  0  0  0  0  0  0
  192.2720  177.4320  144.2630 C   0  0  0  0  0  2  0  0  0  0  0  0
  190.3420  174.2610  141.3280 S   0  0  0  0  0  0  0  0  0  0  0  0
  186.0130  176.9870  142.7440 C   0  0  1  0  0  3  0  0  0  0  0  0
  187.8160  176.1670  141.2340 C   0  0  2  0  0  3  0  0  0  0  0  0
  186.3830  177.9900  143.8240 C   0  0  2  0  0  3  0  0  0  0  0  0
  184.8570  178.5410  141.0570 C   0  0  0  0  0  1  0  0  0  0  0  0
  188.1460  176.2790  143.7950 C   0  0  1  0  0  3  0  0  0  0  0  0
  1 21  1  6  0  0  0
  2  8  1  0  0  0  0
  3 17  2  0  0  0  0
  4 22  1  0  0  0  0
  5 24  1  0  0  0  0
  6  1  1  0  0  0  0
  8 14  1  0  0  0  0
  8  7  1  1  0  0  0
  9 18  1  1  0  0  0
  9 14  1  0  0  0  0
 10  8  1  0  0  0  0
 11 15  1  0  0  0  0
 12 24  1  0  0  0  0
 12 28  1  0  0  0  0
 13  9  1  0  0  0  0
 15 23  1  0  0  0  0
 16 20  1  0  0  0  0
 16 28  1  0  0  0  0
 16  1  1  0  0  0  0
 17 25  1  0  0  0  0
 17  5  1  0  0  0  0
 19 25  1  0  0  0  0
 19 15  1  0  0  0  0
 20  4  2  0  0  0  0
 21 22  1  0  0  0  0
 23  6  1  0  0  0  0
 24 26  1  0  0  0  0
 25 12  1  0  0  0  0
 26 13  1  0  0  0  0
 26 10  1  0  0  0  0
 27  5  1  0  0  0  0
 28 10  1  0  0  0  0
M  END
>  <MODEL>
3

>  <REMARK>
 VINA RESULT:      -7.4      2.253      4.913
  Name = 
  0 active torsions:
  status: ('A' for Active; 'I' for Inactive)
                            x       y       z     vdW  Elec       q    Type
                         _______ _______ _______ _____ _____    ______ ____

>  <TORSDO>
F 0

$$$$
=
 OpenBabel11112417423D

 28 32  0  0  1  0  0  0  0  0999 V2000
  189.0940  176.6310  145.1940 C   0  0  2  0  0  3  0  0  0  0  0  0
  193.2080  176.6080  142.7310 O   0  0  0  0  0  1  0  0  0  0  0  0
  188.2870  172.2910  140.9530 O   0  0  0  0  0  0  0  0  0  0  0  0
  189.3160  174.1660  146.6840 C   0  0  0  0  0  3  0  0  0  0  0  0
  190.5440  172.9300  141.1010 N   0  0  0  0  0  0  0  0  0  0  0  0
  188.3590  177.8730  144.0640 S   0  0  0  0  0  0  0  0  0  0  0  0
  192.8750  176.7920  145.0710 C   0  0  0  0  0  1  0  0  0  0  0  0
  193.1080  175.8520  143.9020 C   0  0  1  0  0  0  0  0  0  0  0  0
  194.5280  173.7230  143.5270 C   0  0  2  0  0  3  0  0  0  0  0  0
  191.9360  174.8520  143.7950 C   0  0  2  0  0  3  0  0  0  0  0  0
  187.0660  177.4400  140.5850 C   0  0  0  0  0  1  0  0  0  0  0  0
  190.2450  175.1080  142.0130 C   0  0  1  0  0  3  0  0  0  0  0  0
  193.6130  173.5810  142.3190 C   0  0  0  0  0  2  0  0  0  0  0  0
  194.4430  175.1280  144.1390 C   0  0  0  0  0  2  0  0  0  0  0  0
  187.8010  176.5750  141.5880 C   0  0  2  0  0  3  0  0  0  0  0  0
  189.4920  175.3330  144.4760 C   0  0  2  0  0  3  0  0  0  0  0  0
  189.1590  173.1420  141.2720 C   0  0  0  0  0  0  0  0  0  0  0  0
  195.8970  173.4440  143.1400 N   0  0  0  0  0  1  0  0  0  0  0  0
  187.9490  175.2220  141.0520 N   0  0  0  0  0  2  0  0  0  0  0  0
  189.6690  174.1390  145.3920 C   0  0  0  0  0  3  0  0  0  0  0  0
  188.1280  176.3400  146.3380 C   0  0  0  0  0  2  0  0  0  0  0  0
  188.8020  175.4160  147.3460 C   0  0  0  0  0  2  0  0  0  0  0  0
  186.8990  176.5830  143.1730 S   0  0  0  0  0  0  0  0  0  0  0  0
  191.2930  174.0930  141.5390 C   0  0  1  0  0  3  0  0  0  0  0  0
  188.8530  174.4440  141.8980 C   0  0  2  0  0  3  0  0  0  0  0  0
  192.1540  173.7500  142.7440 C   0  0  2  0  0  3  0  0  0  0  0  0
  191.1300  171.7830  140.4270 C   0  0  0  0  0  1  0  0  0  0  0  0
  190.6170  175.5370  143.4390 C   0  0  1  0  0  3  0  0  0  0  0  0
  1 21  1  1  0  0  0
  2  8  1  0  0  0  0
  3 17  2  0  0  0  0
  4 22  1  0  0  0  0
  5 17  1  0  0  0  0
  5 24  1  0  0  0  0
  6  1  1  0  0  0  0
  8 14  1  0  0  0  0
  8  7  1  1  0  0  0
  9 18  1  6  0  0  0
  9 14  1  0  0  0  0
 10  8  1  0  0  0  0
 11 15  1  0  0  0  0
 12 28  1  0  0  0  0
 13 26  1  0  0  0  0
 13  9  1  0  0  0  0
 15 23  1  0  0  0  0
 16  1  1  0  0  0  0
 16 20  1  0  0  0  0
 17 25  1  0  0  0  0
 19 15  1  0  0  0  0
 19 25  1  0  0  0  0
 20  4  2  0  0  0  0
 21 22  1  0  0  0  0
 23  6  1  0  0  0  0
 24 12  1  0  0  0  0
 24 26  1  0  0  0  0
 25 12  1  0  0  0  0
 26 10  1  0  0  0  0
 27  5  1  0  0  0  0
 28 10  1  0  0  0  0
 28 16  1  0  0  0  0
M  END
>  <MODEL>
4

>  <REMARK>
 VINA RESULT:      -7.1      3.217      6.753
  Name = 
  0 active torsions:
  status: ('A' for Active; 'I' for Inactive)
                            x       y       z     vdW  Elec       q    Type
                         _______ _______ _______ _____ _____    ______ ____

>  <TORSDO>
F 0

$$$$
=
 OpenBabel11112417423D

 28 32  0  0  1  0  0  0  0  0999 V2000
  188.1260  176.4870  144.3590 C   0  0  2  0  0  3  0  0  0  0  0  0
  189.4750  172.1790  142.7420 O   0  0  0  0  0  1  0  0  0  0  0  0
  194.2370  176.7910  144.1800 O   0  0  0  0  0  0  0  0  0  0  0  0
  188.6630  178.1460  142.0550 C   0  0  0  0  0  3  0  0  0  0  0  0
  193.4420  174.9120  143.0110 N   0  0  0  0  0  0  0  0  0  0  0  0
  188.2040  175.9210  146.1000 S   0  0  0  0  0  0  0  0  0  0  0  0
  187.6760  173.5430  142.0210 C   0  0  0  0  0  1  0  0  0  0  0  0
  189.1360  173.1780  141.8260 C   0  0  1  0  0  0  0  0  0  0  0  0
  190.6760  172.8480  139.7750 C   0  0  2  0  0  3  0  0  0  0  0  0
  190.0190  174.4260  142.0430 C   0  0  2  0  0  3  0  0  0  0  0  0
  191.1910  175.2910  148.2550 C   0  0  0  0  0  1  0  0  0  0  0  0
  191.3470  174.6620  144.1130 C   0  0  1  0  0  3  0  0  0  0  0  0
  191.7620  172.9730  140.8360 C   0  0  0  0  0  2  0  0  0  0  0  0
  189.2950  172.6190  140.4030 C   0  0  0  0  0  2  0  0  0  0  0  0
  190.9530  175.6290  146.7990 C   0  0  2  0  0  3  0  0  0  0  0  0
  189.4770  176.3840  143.6360 C   0  0  2  0  0  3  0  0  0  0  0  0
  193.3320  175.9390  143.9750 C   0  0  0  0  0  0  0  0  0  0  0  0
  190.9910  171.7520  138.8780 N   0  0  0  0  0  1  0  0  0  0  0  0
  192.2360  175.8290  146.1260 N   0  0  0  0  0  2  0  0  0  0  0  0
  189.5870  177.2350  142.3880 C   0  0  0  0  0  3  0  0  0  0  0  0
  187.5930  177.9160  144.3050 C   0  0  0  0  0  2  0  0  0  0  0  0
  187.3980  178.3280  142.8510 C   0  0  0  0  0  2  0  0  0  0  0  0
  189.8890  177.1070  146.6850 S   0  0  0  0  0  0  0  0  0  0  0  0
  192.2550  174.0780  143.0230 C   0  0  1  0  0  3  0  0  0  0  0  0
  192.0360  175.9250  144.6810 C   0  0  2  0  0  3  0  0  0  0  0  0
  191.5030  174.2020  141.7070 C   0  0  2  0  0  3  0  0  0  0  0  0
  194.6380  174.6260  142.2370 C   0  0  0  0  0  1  0  0  0  0  0  0
  189.9710  174.9290  143.4850 C   0  0  1  0  0  3  0  0  0  0  0  0
  1 21  1  1  0  0  0
  1  6  1  0  0  0  0
  4 20  2  0  0  0  0
  4 22  1  0  0  0  0
  5 24  1  0  0  0  0
  5 17  1  0  0  0  0
  6 23  1  0  0  0  0
  8  7  1  1  0  0  0
  8 10  1  0  0  0  0
  8  2  1  0  0  0  0
  9 18  1  6  0  0  0
  9 14  1  0  0  0  0
  9 13  1  0  0  0  0
 10 28  1  0  0  0  0
 12 25  1  0  0  0  0
 13 26  1  0  0  0  0
 14  8  1  0  0  0  0
 15 11  1  0  0  0  0
 16  1  1  0  0  0  0
 17  3  2  0  0  0  0
 17 25  1  0  0  0  0
 19 15  1  0  0  0  0
 20 16  1  0  0  0  0
 22 21  1  0  0  0  0
 23 15  1  0  0  0  0
 24 12  1  0  0  0  0
 25 19  1  0  0  0  0
 26 10  1  0  0  0  0
 26 24  1  0  0  0  0
 27  5  1  0  0  0  0
 28 16  1  0  0  0  0
 28 12  1  0  0  0  0
M  END
>  <MODEL>
5

>  <REMARK>
 VINA RESULT:      -7.1      3.261      5.743
  Name = 
  0 active torsions:
  status: ('A' for Active; 'I' for Inactive)
                            x       y       z     vdW  Elec       q    Type
                         _______ _______ _______ _____ _____    ______ ____

>  <TORSDO>
F 0

$$$$
=
 OpenBabel11112417423D

 28 32  0  0  1  0  0  0  0  0999 V2000
  193.9350  173.8990  145.3480 C   0  0  2  0  0  3  0  0  0  0  0  0
  189.3380  174.1760  146.6870 O   0  0  0  0  0  1  0  0  0  0  0  0
  190.8190  173.7660  140.0800 O   0  0  0  0  0  0  0  0  0  0  0  0
  194.3550  176.5320  144.2350 C   0  0  0  0  0  3  0  0  0  0  0  0
  189.4420  174.4190  141.8700 N   0  0  0  0  0  0  0  0  0  0  0  0
  193.9020  172.0680  145.4150 S   0  0  0  0  0  0  0  0  0  0  0  0
  191.2090  175.3580  147.5350 C   0  0  0  0  0  1  0  0  0  0  0  0
  190.0750  175.3510  146.5260 C   0  0  1  0  0  0  0  0  0  0  0  0
  188.4340  177.1300  145.6140 C   0  0  2  0  0  3  0  0  0  0  0  0
  190.6500  175.4310  145.0950 C   0  0  2  0  0  3  0  0  0  0  0  0
  192.3530  169.6370  143.0360 C   0  0  0  0  0  1  0  0  0  0  0  0
  190.6690  173.4270  143.6520 C   0  0  1  0  0  3  0  0  0  0  0  0
  188.2270  176.0780  144.5330 C   0  0  0  0  0  2  0  0  0  0  0  0
  189.1660  176.5520  146.8330 C   0  0  0  0  0  2  0  0  0  0  0  0
  192.3660  171.1430  143.1980 C   0  0  2  0  0  3  0  0  0  0  0  0
  192.9280  174.4780  144.3420 C   0  0  2  0  0  3  0  0  0  0  0  0
  190.5750  173.7850  141.3160 C   0  0  0  0  0  0  0  0  0  0  0  0
  187.1520  177.6680  146.0260 N   0  0  0  0  0  1  0  0  0  0  0  0
  191.6520  171.7620  142.0810 N   0  0  0  0  0  2  0  0  0  0  0  0
  193.2160  175.9030  143.9160 C   0  0  0  0  0  3  0  0  0  0  0  0
  195.3480  174.3780  145.0340 C   0  0  0  0  0  2  0  0  0  0  0  0
  195.3970  175.8990  145.1200 C   0  0  0  0  0  2  0  0  0  0  0  0
  194.0900  171.7270  143.3080 S   0  0  0  0  0  0  0  0  0  0  0  0
  189.4220  174.2540  143.3110 C   0  0  1  0  0  3  0  0  0  0  0  0
  191.4530  173.1870  142.3410 C   0  0  2  0  0  3  0  0  0  0  0  0
  189.5780  175.5970  144.0040 C   0  0  2  0  0  3  0  0  0  0  0  0
  188.3600  175.0070  141.0970 C   0  0  0  0  0  1  0  0  0  0  0  0
  191.4610  174.1900  144.7230 C   0  0  1  0  0  3  0  0  0  0  0  0
  1 21  1  6  0  0  0
  1  6  1  0  0  0  0
  3 17  2  0  0  0  0
  4 22  1  0  0  0  0
  5 24  1  0  0  0  0
  8  2  1  0  0  0  0
  8 14  1  0  0  0  0
  8  7  1  1  0  0  0
  9 18  1  1  0  0  0
  9 14  1  0  0  0  0
 10  8  1  0  0  0  0
 11 15  1  0  0  0  0
 12 28  1  0  0  0  0
 13  9  1  0  0  0  0
 15 23  1  0  0  0  0
 16 28  1  0  0  0  0
 16  1  1  0  0  0  0
 17  5  1  0  0  0  0
 17 25  1  0  0  0  0
 19 25  1  0  0  0  0
 19 15  1  0  0  0  0
 20  4  2  0  0  0  0
 20 16  1  0  0  0  0
 21 22  1  0  0  0  0
 23  6  1  0  0  0  0
 24 12  1  0  0  0  0
 24 26  1  0  0  0  0
 25 12  1  0  0  0  0
 26 13  1  0  0  0  0
 26 10  1  0  0  0  0
 27  5  1  0  0  0  0
 28 10  1  0  0  0  0
M  END
>  <MODEL>
6

>  <REMARK>
 VINA RESULT:      -7.0      2.755      5.636
  Name = 
  0 active torsions:
  status: ('A' for Active; 'I' for Inactive)
                            x       y       z     vdW  Elec       q    Type
                         _______ _______ _______ _____ _____    ______ ____

>  <TORSDO>
F 0

$$$$
=
 OpenBabel11112417423D

 28 32  0  0  1  0  0  0  0  0999 V2000
  189.2400  176.1520  144.4050 C   0  0  2  0  0  3  0  0  0  0  0  0
  193.8640  176.1490  143.1300 O   0  0  0  0  0  1  0  0  0  0  0  0
  190.2750  170.4280  142.4950 O   0  0  0  0  0  0  0  0  0  0  0  0
  189.3310  174.6180  146.8510 C   0  0  0  0  0  3  0  0  0  0  0  0
  192.2880  171.6010  142.8070 N   0  0  0  0  0  0  0  0  0  0  0  0
  188.7160  176.6230  142.7130 S   0  0  0  0  0  0  0  0  0  0  0  0
  192.8390  177.1630  145.0120 C   0  0  0  0  0  1  0  0  0  0  0  0
  193.5230  175.9230  144.4660 C   0  0  1  0  0  0  0  0  0  0  0  0
  195.2500  174.2350  145.3900 C   0  0  2  0  0  3  0  0  0  0  0  0
  192.5710  174.7110  144.5770 C   0  0  2  0  0  3  0  0  0  0  0  0
  188.5660  174.5410  139.6130 C   0  0  0  0  0  1  0  0  0  0  0  0
  191.4590  173.8180  142.5610 C   0  0  1  0  0  3  0  0  0  0  0  0
  194.7550  173.4060  144.2130 C   0  0  0  0  0  2  0  0  0  0  0  0
  194.8100  175.7000  145.2750 C   0  0  0  0  0  2  0  0  0  0  0  0
  189.0800  174.3540  141.0250 C   0  0  2  0  0  3  0  0  0  0  0  0
  189.9950  174.8140  144.4460 C   0  0  2  0  0  3  0  0  0  0  0  0
  190.8990  171.5200  142.5730 C   0  0  0  0  0  0  0  0  0  0  0  0
  196.6970  174.1660  145.4640 N   0  0  0  0  0  1  0  0  0  0  0  0
  189.5500  172.9790  141.1970 N   0  0  0  0  0  2  0  0  0  0  0  0
  190.0470  174.1660  145.8130 C   0  0  0  0  0  3  0  0  0  0  0  0
  188.0270  176.1160  145.3280 C   0  0  0  0  0  2  0  0  0  0  0  0
  188.4890  175.8630  146.7590 C   0  0  0  0  0  2  0  0  0  0  0  0
  187.7600  174.7730  142.2120 S   0  0  0  0  0  0  0  0  0  0  0  0
  192.7200  172.9850  142.8230 C   0  0  1  0  0  3  0  0  0  0  0  0
  190.2580  172.8470  142.4690 C   0  0  2  0  0  3  0  0  0  0  0  0
  193.2270  173.3710  144.2030 C   0  0  2  0  0  3  0  0  0  0  0  0
  193.1880  170.4600  142.8570 C   0  0  0  0  0  1  0  0  0  0  0  0
  191.3380  174.8550  143.6860 C   0  0  1  0  0  3  0  0  0  0  0  0
  1 16  1  0  0  0  0
  1 21  1  1  0  0  0
  2  8  1  0  0  0  0
  3 17  2  0  0  0  0
  5 24  1  0  0  0  0
  5 27  1  0  0  0  0
  6  1  1  0  0  0  0
  8 10  1  0  0  0  0
  8  7  1  1  0  0  0
  8 14  1  0  0  0  0
  9 18  1  6  0  0  0
 11 15  1  0  0  0  0
 12 24  1  0  0  0  0
 12 28  1  0  0  0  0
 13  9  1  0  0  0  0
 14  9  1  0  0  0  0
 15 19  1  0  0  0  0
 15 23  1  0  0  0  0
 16 20  1  0  0  0  0
 17  5  1  0  0  0  0
 19 25  1  0  0  0  0
 20  4  2  0  0  0  0
 21 22  1  0  0  0  0
 22  4  1  0  0  0  0
 23  6  1  0  0  0  0
 24 26  1  0  0  0  0
 25 12  1  0  0  0  0
 25 17  1  0  0  0  0
 26 13  1  0  0  0  0
 26 10  1  0  0  0  0
 28 16  1  0  0  0  0
 28 10  1  0  0  0  0
M  END
>  <MODEL>
7

>  <REMARK>
 VINA RESULT:      -6.9      3.677      7.029
  Name = 
  0 active torsions:
  status: ('A' for Active; 'I' for Inactive)
                            x       y       z     vdW  Elec       q    Type
                         _______ _______ _______ _____ _____    ______ ____

>  <TORSDO>
F 0

$$$$
=
 OpenBabel11112417423D

 28 32  0  0  1  0  0  0  0  0999 V2000
  196.2200  174.8190  144.8450 C   0  0  2  0  0  3  0  0  0  0  0  0
  192.1040  174.8940  147.3040 O   0  0  0  0  0  1  0  0  0  0  0  0
  192.7250  170.6330  142.0620 O   0  0  0  0  0  0  0  0  0  0  0  0
  195.4290  176.1110  142.3850 C   0  0  0  0  0  3  0  0  0  0  0  0
  191.4570  171.9720  143.5200 N   0  0  0  0  0  0  0  0  0  0  0  0
  196.9130  173.5180  145.9340 S   0  0  0  0  0  0  0  0  0  0  0  0
  193.4630  176.7120  146.6200 C   0  0  0  0  0  1  0  0  0  0  0  0
  192.2960  175.8080  146.2650 C   0  0  1  0  0  0  0  0  0  0  0  0
  189.9860  176.1600  145.1580 C   0  0  2  0  0  3  0  0  0  0  0  0
  192.5970  175.0630  144.9460 C   0  0  2  0  0  3  0  0  0  0  0  0
  196.1280  169.8670  146.0590 C   0  0  0  0  0  1  0  0  0  0  0  0
  193.2000  172.6680  144.9830 C   0  0  1  0  0  3  0  0  0  0  0  0
  190.0610  174.6460  145.0110 C   0  0  0  0  0  2  0  0  0  0  0  0
  191.0410  176.6860  146.1390 C   0  0  0  0  0  2  0  0  0  0  0  0
  195.5760  171.0740  145.3300 C   0  0  2  0  0  3  0  0  0  0  0  0
  194.9430  174.3720  144.1180 C   0  0  2  0  0  3  0  0  0  0  0  0
  192.6620  171.3960  143.0640 C   0  0  0  0  0  0  0  0  0  0  0  0
  188.6630  176.5420  145.6140 N   0  0  0  0  0  1  0  0  0  0  0  0
  194.5340  170.6470  144.3960 N   0  0  0  0  0  2  0  0  0  0  0  0
  194.5930  175.1990  142.8980 C   0  0  0  0  0  3  0  0  0  0  0  0
  197.2800  175.2710  143.8450 C   0  0  0  0  0  2  0  0  0  0  0  0
  196.7430  176.4480  143.0380 C   0  0  0  0  0  2  0  0  0  0  0  0
  196.9340  171.9450  144.4810 S   0  0  0  0  0  0  0  0  0  0  0  0
  191.6970  172.7810  144.7000 C   0  0  1  0  0  3  0  0  0  0  0  0
  193.8330  171.8130  143.8600 C   0  0  2  0  0  3  0  0  0  0  0  0
  191.4090  174.2450  144.4110 C   0  0  2  0  0  3  0  0  0  0  0  0
  190.1380  171.6660  142.9900 C   0  0  0  0  0  1  0  0  0  0  0  0
  193.7690  174.0910  145.0800 C   0  0  1  0  0  3  0  0  0  0  0  0
  1 21  1  6  0  0  0
  1  6  1  0  0  0  0
  3 17  2  0  0  0  0
  4 20  2  0  0  0  0
  4 22  1  0  0  0  0
  5 24  1  0  0  0  0
  8  7  1  1  0  0  0
  8  2  1  0  0  0  0
  9 18  1  1  0  0  0
  9 14  1  0  0  0  0
 10 28  1  0  0  0  0
 10  8  1  0  0  0  0
 12 28  1  0  0  0  0
 13  9  1  0  0  0  0
 14  8  1  0  0  0  0
 15 11  1  0  0  0  0
 16  1  1  0  0  0  0
 16 28  1  0  0  0  0
 17  5  1  0  0  0  0
 17 25  1  0  0  0  0
 19 15  1  0  0  0  0
 20 16  1  0  0  0  0
 22 21  1  0  0  0  0
 23 15  1  0  0  0  0
 23  6  1  0  0  0  0
 24 12  1  0  0  0  0
 25 19  1  0  0  0  0
 25 12  1  0  0  0  0
 26 24  1  0  0  0  0
 26 10  1  0  0  0  0
 26 13  1  0  0  0  0
 27  5  1  0  0  0  0
M  END
>  <MODEL>
8

>  <REMARK>
 VINA RESULT:      -6.8      4.053      6.724
  Name = 
  0 active torsions:
  status: ('A' for Active; 'I' for Inactive)
                            x       y       z     vdW  Elec       q    Type
                         _______ _______ _______ _____ _____    ______ ____

>  <TORSDO>
F 0

$$$$
=
 OpenBabel11112417423D

 28 32  0  0  1  0  0  0  0  0999 V2000
  190.8080  177.1490  145.6260 C   0  0  2  0  0  3  0  0  0  0  0  0
  194.4340  175.8430  142.7720 O   0  0  0  0  0  1  0  0  0  0  0  0
  189.1910  171.6140  143.5700 O   0  0  0  0  0  0  0  0  0  0  0  0
  191.2330  175.4210  147.9020 C   0  0  0  0  0  3  0  0  0  0  0  0
  191.4520  172.0660  143.1170 N   0  0  0  0  0  0  0  0  0  0  0  0
  189.9150  177.9310  144.2290 S   0  0  0  0  0  0  0  0  0  0  0  0
  194.5140  176.9260  144.8800 C   0  0  0  0  0  1  0  0  0  0  0  0
  194.5220  175.5980  144.1450 C   0  0  1  0  0  0  0  0  0  0  0  0
  195.8100  173.3720  144.4140 C   0  0  2  0  0  3  0  0  0  0  0  0
  193.3280  174.7370  144.6120 C   0  0  2  0  0  3  0  0  0  0  0  0
  188.0330  176.3260  141.4270 C   0  0  0  0  0  1  0  0  0  0  0  0
  191.3610  174.4440  143.1480 C   0  0  1  0  0  3  0  0  0  0  0  0
  194.6980  172.8630  143.5080 C   0  0  0  0  0  2  0  0  0  0  0  0
  195.8620  174.9050  144.4400 C   0  0  0  0  0  2  0  0  0  0  0  0
  188.9110  175.8460  142.5630 C   0  0  2  0  0  3  0  0  0  0  0  0
  191.0490  175.6470  145.4160 C   0  0  2  0  0  3  0  0  0  0  0  0
  190.1220  172.4450  143.4000 C   0  0  0  0  0  0  0  0  0  0  0  0
  197.0870  172.8500  143.9630 N   0  0  0  0  0  1  0  0  0  0  0  0
  188.9360  174.3830  142.5770 N   0  0  0  0  0  2  0  0  0  0  0  0
  191.3570  174.8770  146.6830 C   0  0  0  0  0  3  0  0  0  0  0  0
  190.0480  177.3970  146.9250 C   0  0  0  0  0  2  0  0  0  0  0  0
  190.8660  176.8680  148.0970 C   0  0  0  0  0  2  0  0  0  0  0  0
  188.2970  176.5300  144.1380 S   0  0  0  0  0  0  0  0  0  0  0  0
  192.2900  173.2390  142.9520 C   0  0  1  0  0  3  0  0  0  0  0  0
  189.9560  173.9080  143.5110 C   0  0  2  0  0  3  0  0  0  0  0  0
  193.3380  173.3050  144.0500 C   0  0  2  0  0  3  0  0  0  0  0  0
  191.8890  170.7040  142.8590 C   0  0  0  0  0  1  0  0  0  0  0  0
  191.9820  175.3470  144.2230 C   0  0  1  0  0  3  0  0  0  0  0  0
  1 21  1  1  0  0  0
  2  8  1  0  0  0  0
  4 22  1  0  0  0  0
  5 17  1  0  0  0  0
  6  1  1  0  0  0  0
  8 14  1  0  0  0  0
  8 10  1  0  0  0  0
  8  7  1  1  0  0  0
  9 18  1  6  0  0  0
  9 14  1  0  0  0  0
 11 15  1  0  0  0  0
 12 25  1  0  0  0  0
 12 28  1  0  0  0  0
 13 26  1  0  0  0  0
 13  9  1  0  0  0  0
 15 19  1  0  0  0  0
 15 23  1  0  0  0  0
 16  1  1  0  0  0  0
 16 20  1  0  0  0  0
 17 25  1  0  0  0  0
 17  3  2  0  0  0  0
 19 25  1  0  0  0  0
 20  4  2  0  0  0  0
 21 22  1  0  0  0  0
 23  6  1  0  0  0  0
 24  5  1  0  0  0  0
 24 12  1  0  0  0  0
 24 26  1  0  0  0  0
 26 10  1  0  0  0  0
 27  5  1  0  0  0  0
 28 10  1  0  0  0  0
 28 16  1  0  0  0  0
M  END
>  <MODEL>
9

>  <REMARK>
 VINA RESULT:      -6.7      3.462      7.216
  Name = 
  0 active torsions:
  status: ('A' for Active; 'I' for Inactive)
                            x       y       z     vdW  Elec       q    Type
                         _______ _______ _______ _____ _____    ______ ____

>  <TORSDO>
F 0

$$$$
