=
 OpenBabel11112417573D

 34 40  0  0  1  0  0  0  0  0999 V2000
  187.1680  178.1170  145.5060 C   0  0  2  0  0  3  0  0  0  0  0  0
  184.7390  178.4160  144.9600 C   0  0  0  0  0  2  0  0  0  0  0  0
  190.0670  173.3480  141.9310 O   0  0  0  0  0  0  0  0  0  0  0  0
  188.4660  176.0470  145.4410 C   0  0  2  0  0  3  0  0  0  0  0  0
  190.3510  175.8450  143.7280 C   0  0  0  0  0  0  0  0  0  0  0  0
  191.7650  175.0370  141.8890 C   0  0  0  0  0  2  0  0  0  0  0  0
  191.3830  173.6060  141.5320 C   0  0  0  0  0  2  0  0  0  0  0  0
  190.2930  172.8670  144.2960 C   0  0  0  0  0  2  0  0  0  0  0  0
  186.3630  178.3070  143.1470 C   0  0  1  0  0  3  0  0  0  0  0  0
  185.7000  178.3720  140.2570 C   0  0  0  0  0  2  0  0  0  0  0  0
  189.8950  176.9060  143.1260 N   0  0  0  0  0  0  0  0  0  0  0  0
  189.1620  173.8320  144.6210 C   0  0  0  0  0  2  0  0  0  0  0  0
  187.4630  177.3160  142.7330 C   0  0  2  0  0  3  0  0  0  0  0  0
  184.0140  178.3050  143.6960 N   0  0  0  0  0  2  0  0  0  0  0  0
  189.6700  175.2420  144.9410 C   0  0  2  0  0  3  0  0  0  0  0  0
  190.1490  172.3160  142.8760 C   0  0  0  0  0  2  0  0  0  0  0  0
  184.5860  178.4040  141.3110 C   0  0  2  0  0  3  0  0  0  0  0  0
  188.4860  177.5280  145.0540 C   0  0  1  0  0  3  0  0  0  0  0  0
  191.5310  175.2560  143.2730 O   0  0  0  0  0  0  0  0  0  0  0  0
  188.7200  177.6690  143.5450 C   0  0  1  0  0  3  0  0  0  0  0  0
  186.9520  176.5230  147.3860 C   0  0  0  0  0  2  0  0  0  0  0  0
  186.5830  177.1350  140.3500 C   0  0  0  0  0  2  0  0  0  0  0  0
  188.2810  175.8940  146.9530 C   0  0  0  0  0  2  0  0  0  0  0  0
  187.7800  177.4410  141.2390 C   0  0  0  0  0  2  0  0  0  0  0  0
  184.9820  177.8630  142.6890 C   0  0  1  0  0  3  0  0  0  0  0  0
  186.8780  177.9960  146.9750 C   0  0  0  0  0  2  0  0  0  0  0  0
  186.1810  178.3560  144.6180 C   0  0  2  0  0  3  0  0  0  0  0  0
  183.4300  177.6720  140.8200 N   0  0  0  0  0  2  0  0  0  0  0  0
  182.4280  178.6170  140.5620 N   0  0  0  0  0  2  0  0  0  0  0  0
  179.3430  179.3370  142.0290 O   0  0  0  0  0  0  0  0  0  0  0  0
  180.1040  178.0340  140.2120 C   0  0  0  0  0  2  0  0  0  0  0  0
  181.2180  178.1440  141.2130 C   0  0  2  0  0  3  0  0  0  0  0  0
  179.1010  179.0640  140.6750 C   0  0  0  0  0  2  0  0  0  0  0  0
  180.7300  179.1890  142.1880 C   0  0  0  0  0  2  0  0  0  0  0  0
  1 26  1  1  0  0  0
  3 16  1  0  0  0  0
  4 23  1  1  0  0  0
  5 15  1  0  0  0  0
  6 19  1  0  0  0  0
  7  6  1  0  0  0  0
  7  3  1  0  0  0  0
  8 12  1  0  0  0  0
  9 27  1  0  0  0  0
 10 22  1  0  0  0  0
 10 17  1  0  0  0  0
 11 20  1  0  0  0  0
 11  5  2  0  0  0  0
 12 15  1  0  0  0  0
 13  9  1  0  0  0  0
 13 20  1  0  0  0  0
 14  2  1  0  0  0  0
 15  4  1  0  0  0  0
 16  8  1  0  0  0  0
 17 25  1  0  0  0  0
 18  4  1  0  0  0  0
 18  1  1  0  0  0  0
 19  5  1  0  0  0  0
 20 18  1  0  0  0  0
 22 24  1  0  0  0  0
 23 21  1  0  0  0  0
 24 13  1  0  0  0  0
 25  9  1  0  0  0  0
 25 14  1  0  0  0  0
 26 21  1  0  0  0  0
 27  2  1  0  0  0  0
 27  1  1  0  0  0  0
 28 17  1  0  0  0  0
 29 28  1  0  0  0  0
 29 32  1  0  0  0  0
 30 34  1  0  0  0  0
 31 33  1  0  0  0  0
 31 32  1  0  0  0  0
 32 34  1  0  0  0  0
 33 30  1  0  0  0  0
M  END
>  <MODEL>
1

>  <REMARK>
 VINA RESULT:      -8.8      0.000      0.000
  Name = 
  3 active torsions:
  status: ('A' for Active; 'I' for Inactive)
    1  A    between atoms: C_17  and  N_28
    2  A    between atoms: N_28  and  N_29
    3  A    between atoms: N_29  and  C_32
                            x       y       z     vdW  Elec       q    Type
                         _______ _______ _______ _____ _____    ______ ____

>  <TORSDO>
F 3

$$$$
=
 OpenBabel11112417573D

 34 40  0  0  1  0  0  0  0  0999 V2000
  191.8770  176.3490  144.8710 C   0  0  2  0  0  3  0  0  0  0  0  0
  189.9170  177.2440  146.1530 C   0  0  0  0  0  2  0  0  0  0  0  0
  190.4290  170.9130  141.3670 O   0  0  0  0  0  0  0  0  0  0  0  0
  192.3660  174.0150  144.3320 C   0  0  2  0  0  3  0  0  0  0  0  0
  192.3250  173.2980  141.8800 C   0  0  0  0  0  0  0  0  0  0  0  0
  191.7850  172.1110  139.7980 C   0  0  0  0  0  2  0  0  0  0  0  0
  191.0470  170.8160  140.1160 C   0  0  0  0  0  2  0  0  0  0  0  0
  192.2390  170.4470  142.9120 C   0  0  0  0  0  2  0  0  0  0  0  0
  189.6440  176.6790  143.7980 C   0  0  1  0  0  3  0  0  0  0  0  0
  187.0950  176.8410  142.2910 C   0  0  0  0  0  2  0  0  0  0  0  0
  191.7460  174.4250  141.5770 N   0  0  0  0  0  0  0  0  0  0  0  0
  191.8800  171.6770  143.7350 C   0  0  0  0  0  2  0  0  0  0  0  0
  189.9140  175.4320  142.9420 C   0  0  2  0  0  3  0  0  0  0  0  0
  188.4930  177.2900  145.8290 N   0  0  0  0  0  2  0  0  0  0  0  0
  192.6700  172.9180  143.3070 C   0  0  2  0  0  3  0  0  0  0  0  0
  191.0160  169.9170  142.1610 C   0  0  0  0  0  2  0  0  0  0  0  0
  187.1370  177.1810  143.7850 C   0  0  2  0  0  3  0  0  0  0  0  0
  192.3260  175.4330  143.7550 C   0  0  1  0  0  3  0  0  0  0  0  0
  192.6800  172.4160  140.8580 O   0  0  0  0  0  0  0  0  0  0  0  0
  191.3950  175.4720  142.5360 C   0  0  1  0  0  3  0  0  0  0  0  0
  192.8650  174.9090  146.6240 C   0  0  0  0  0  2  0  0  0  0  0  0
  187.5550  175.4220  141.9820 C   0  0  0  0  0  2  0  0  0  0  0  0
  193.3290  173.9520  145.5210 C   0  0  0  0  0  2  0  0  0  0  0  0
  189.0460  175.4350  141.6790 C   0  0  0  0  0  2  0  0  0  0  0  0
  188.3250  176.5910  144.5520 C   0  0  1  0  0  3  0  0  0  0  0  0
  192.7440  176.3420  146.0980 C   0  0  0  0  0  2  0  0  0  0  0  0
  190.6100  176.8100  144.9150 C   0  0  2  0  0  3  0  0  0  0  0  0
  185.8980  176.7560  144.4160 N   0  0  0  0  0  2  0  0  0  0  0  0
  184.9480  177.7550  144.1630 N   0  0  0  0  0  2  0  0  0  0  0  0
  185.3040  177.9340  147.6310 O   0  0  0  0  0  0  0  0  0  0  0  0
  185.0350  179.4770  145.8630 C   0  0  0  0  0  2  0  0  0  0  0  0
  184.4160  178.1720  145.4500 C   0  0  2  0  0  3  0  0  0  0  0  0
  185.8230  179.1240  147.1030 C   0  0  0  0  0  2  0  0  0  0  0  0
  184.8640  177.2010  146.5180 C   0  0  0  0  0  2  0  0  0  0  0  0
  1 27  1  0  0  0  0
  1 26  1  1  0  0  0
  3 16  1  0  0  0  0
  4 23  1  1  0  0  0
  5 15  1  0  0  0  0
  6  7  1  0  0  0  0
  6 19  1  0  0  0  0
  7  3  1  0  0  0  0
  8 12  1  0  0  0  0
  9 25  1  0  0  0  0
  9 27  1  0  0  0  0
 10 17  1  0  0  0  0
 11  5  2  0  0  0  0
 11 20  1  0  0  0  0
 13  9  1  0  0  0  0
 14  2  1  0  0  0  0
 15 12  1  0  0  0  0
 15  4  1  0  0  0  0
 16  8  1  0  0  0  0
 17 28  1  0  0  0  0
 17 25  1  0  0  0  0
 18  4  1  0  0  0  0
 18  1  1  0  0  0  0
 19  5  1  0  0  0  0
 20 13  1  0  0  0  0
 20 18  1  0  0  0  0
 22 10  1  0  0  0  0
 23 21  1  0  0  0  0
 24 22  1  0  0  0  0
 24 13  1  0  0  0  0
 25 14  1  0  0  0  0
 26 21  1  0  0  0  0
 27  2  1  0  0  0  0
 29 28  1  0  0  0  0
 29 32  1  0  0  0  0
 31 33  1  0  0  0  0
 32 31  1  0  0  0  0
 32 34  1  0  0  0  0
 33 30  1  0  0  0  0
 34 30  1  0  0  0  0
M  END
>  <MODEL>
2

>  <REMARK>
 VINA RESULT:      -8.1      3.271      4.789
  Name = 
  3 active torsions:
  status: ('A' for Active; 'I' for Inactive)
    1  A    between atoms: C_17  and  N_28
    2  A    between atoms: N_28  and  N_29
    3  A    between atoms: N_29  and  C_32
                            x       y       z     vdW  Elec       q    Type
                         _______ _______ _______ _____ _____    ______ ____

>  <TORSDO>
F 3

$$$$
=
 OpenBabel11112417573D

 34 40  0  0  1  0  0  0  0  0999 V2000
  193.7410  175.6540  144.8080 C   0  0  2  0  0  3  0  0  0  0  0  0
  192.5250  176.3700  146.8810 C   0  0  0  0  0  2  0  0  0  0  0  0
  190.2100  171.5190  141.0190 O   0  0  0  0  0  0  0  0  0  0  0  0
  193.5720  173.5100  143.6450 C   0  0  2  0  0  3  0  0  0  0  0  0
  192.5840  173.4780  141.2900 C   0  0  0  0  0  0  0  0  0  0  0  0
  191.1690  172.9480  139.3520 C   0  0  0  0  0  2  0  0  0  0  0  0
  190.3480  171.6970  139.6370 C   0  0  0  0  0  2  0  0  0  0  0  0
  192.3080  170.4800  141.6510 C   0  0  0  0  0  2  0  0  0  0  0  0
  191.3840  176.4820  144.7300 C   0  0  1  0  0  3  0  0  0  0  0  0
  188.5580  177.2940  144.3400 C   0  0  0  0  0  2  0  0  0  0  0  0
  192.1620  174.6980  141.4670 N   0  0  0  0  0  0  0  0  0  0  0  0
  192.4820  171.4770  142.7880 C   0  0  0  0  0  2  0  0  0  0  0  0
  191.1120  175.4850  143.5920 C   0  0  2  0  0  3  0  0  0  0  0  0
  191.1100  176.6440  147.1220 N   0  0  0  0  0  2  0  0  0  0  0  0
  193.3050  172.7000  142.3730 C   0  0  2  0  0  3  0  0  0  0  0  0
  190.8280  170.2940  141.3090 C   0  0  0  0  0  2  0  0  0  0  0  0
  189.1580  177.2190  145.7490 C   0  0  2  0  0  3  0  0  0  0  0  0
  193.6120  175.0270  143.4380 C   0  0  1  0  0  3  0  0  0  0  0  0
  192.4060  172.8680  140.0470 O   0  0  0  0  0  0  0  0  0  0  0  0
  192.3540  175.4820  142.6860 C   0  0  1  0  0  3  0  0  0  0  0  0
  194.9640  173.7090  145.7250 C   0  0  0  0  0  2  0  0  0  0  0  0
  188.6120  175.9700  143.5900 C   0  0  0  0  0  2  0  0  0  0  0  0
  194.8450  173.0370  144.3530 C   0  0  0  0  0  2  0  0  0  0  0  0
  189.8920  175.9110  142.7690 C   0  0  0  0  0  2  0  0  0  0  0  0
  190.3990  176.3300  145.8800 C   0  0  1  0  0  3  0  0  0  0  0  0
  194.9490  175.2340  145.5980 C   0  0  0  0  0  2  0  0  0  0  0  0
  192.6720  176.2120  145.4130 C   0  0  2  0  0  3  0  0  0  0  0  0
  188.1420  176.7690  146.6870 N   0  0  0  0  0  2  0  0  0  0  0  0
  187.6770  177.9060  147.3620 N   0  0  0  0  0  2  0  0  0  0  0  0
  184.4430  178.8280  146.4250 O   0  0  0  0  0  0  0  0  0  0  0  0
  185.7030  176.8310  146.4620 C   0  0  0  0  0  2  0  0  0  0  0  0
  186.2410  177.7480  147.5220 C   0  0  2  0  0  3  0  0  0  0  0  0
  184.7970  177.7200  145.6430 C   0  0  0  0  0  2  0  0  0  0  0  0
  185.5560  179.0660  147.2460 C   0  0  0  0  0  2  0  0  0  0  0  0
  1 27  1  0  0  0  0
  1 26  1  1  0  0  0
  2 14  1  0  0  0  0
  3 16  1  0  0  0  0
  4 23  1  6  0  0  0
  5 11  2  0  0  0  0
  5 15  1  0  0  0  0
  6  7  1  0  0  0  0
  6 19  1  0  0  0  0
  7  3  1  0  0  0  0
  8 12  1  0  0  0  0
  9 27  1  0  0  0  0
  9 25  1  0  0  0  0
 10 17  1  0  0  0  0
 11 20  1  0  0  0  0
 13  9  1  0  0  0  0
 15 12  1  0  0  0  0
 15  4  1  0  0  0  0
 16  8  1  0  0  0  0
 17 25  1  0  0  0  0
 17 28  1  0  0  0  0
 18  4  1  0  0  0  0
 18  1  1  0  0  0  0
 19  5  1  0  0  0  0
 20 18  1  0  0  0  0
 20 13  1  0  0  0  0
 22 10  1  0  0  0  0
 23 21  1  0  0  0  0
 24 22  1  0  0  0  0
 24 13  1  0  0  0  0
 25 14  1  0  0  0  0
 26 21  1  0  0  0  0
 27  2  1  0  0  0  0
 28 29  1  0  0  0  0
 29 32  1  0  0  0  0
 30 34  1  0  0  0  0
 31 32  1  0  0  0  0
 33 30  1  0  0  0  0
 33 31  1  0  0  0  0
 34 32  1  0  0  0  0
M  END
>  <MODEL>
3

>  <REMARK>
 VINA RESULT:      -7.8      4.002      6.119
  Name = 
  3 active torsions:
  status: ('A' for Active; 'I' for Inactive)
    1  A    between atoms: C_17  and  N_28
    2  A    between atoms: N_28  and  N_29
    3  A    between atoms: N_29  and  C_32
                            x       y       z     vdW  Elec       q    Type
                         _______ _______ _______ _____ _____    ______ ____

>  <TORSDO>
F 3

$$$$
=
 OpenBabel11112417573D

 34 40  0  0  1  0  0  0  0  0999 V2000
  190.0820  172.9840  142.2660 C   0  0  2  0  0  3  0  0  0  0  0  0
  188.2080  174.6480  142.3460 C   0  0  0  0  0  2  0  0  0  0  0  0
  195.7780  175.3680  144.6730 O   0  0  0  0  0  0  0  0  0  0  0  0
  192.4630  173.4350  141.9450 C   0  0  2  0  0  3  0  0  0  0  0  0
  194.0680  172.9250  143.8670 C   0  0  0  0  0  0  0  0  0  0  0  0
  195.7810  173.1640  145.6110 C   0  0  0  0  0  2  0  0  0  0  0  0
  196.5530  174.4620  145.4040 C   0  0  0  0  0  2  0  0  0  0  0  0
  196.0870  174.6330  142.3830 C   0  0  0  0  0  2  0  0  0  0  0  0
  189.5720  174.2940  144.3330 C   0  0  1  0  0  3  0  0  0  0  0  0
  189.2930  175.7850  146.8810 C   0  0  0  0  0  2  0  0  0  0  0  0
  193.0460  172.7900  144.6630 N   0  0  0  0  0  0  0  0  0  0  0  0
  194.5830  174.6690  142.1470 C   0  0  0  0  0  2  0  0  0  0  0  0
  191.0790  174.3280  144.6360 C   0  0  2  0  0  3  0  0  0  0  0  0
  187.8780  175.6840  143.3220 N   0  0  0  0  0  2  0  0  0  0  0  0
  193.9180  173.3140  142.4090 C   0  0  2  0  0  3  0  0  0  0  0  0
  196.4900  175.6110  143.4890 C   0  0  0  0  0  2  0  0  0  0  0  0
  188.4030  176.1260  145.6800 C   0  0  2  0  0  3  0  0  0  0  0  0
  191.4600  172.6310  142.7780 C   0  0  1  0  0  3  0  0  0  0  0  0
  195.3510  172.6670  144.3520 O   0  0  0  0  0  0  0  0  0  0  0  0
  191.6470  172.9480  144.2670 C   0  0  1  0  0  3  0  0  0  0  0  0
  190.9050  173.4340  139.9770 C   0  0  0  0  0  2  0  0  0  0  0  0
  190.7810  175.9320  146.5910 C   0  0  0  0  0  2  0  0  0  0  0  0
  192.3190  173.0910  140.4600 C   0  0  0  0  0  2  0  0  0  0  0  0
  191.3340  174.5940  146.1230 C   0  0  0  0  0  2  0  0  0  0  0  0
  188.9520  175.6830  144.3190 C   0  0  1  0  0  3  0  0  0  0  0  0
  189.8450  172.7070  140.8080 C   0  0  0  0  0  2  0  0  0  0  0  0
  189.2910  173.8350  142.9510 C   0  0  2  0  0  3  0  0  0  0  0  0
  188.1480  177.5570  145.6530 N   0  0  0  0  0  2  0  0  0  0  0  0
  187.0470  177.7910  146.4890 N   0  0  0  0  0  2  0  0  0  0  0  0
  183.8220  178.8210  145.6390 O   0  0  0  0  0  0  0  0  0  0  0  0
  185.8760  178.5420  144.5080 C   0  0  0  0  0  2  0  0  0  0  0  0
  185.8530  177.6060  145.6810 C   0  0  2  0  0  3  0  0  0  0  0  0
  184.7030  179.4620  144.7570 C   0  0  0  0  0  2  0  0  0  0  0  0
  184.6400  178.0400  146.4710 C   0  0  0  0  0  2  0  0  0  0  0  0
  1 26  1  6  0  0  0
  1 18  1  0  0  0  0
  1 27  1  0  0  0  0
  2 27  1  0  0  0  0
  2 14  1  0  0  0  0
  3  7  1  0  0  0  0
  4 23  1  6  0  0  0
  4 15  1  0  0  0  0
  4 18  1  0  0  0  0
  5 19  1  0  0  0  0
  5 11  2  0  0  0  0
  7  6  1  0  0  0  0
  8 16  1  0  0  0  0
  9 13  1  0  0  0  0
 12  8  1  0  0  0  0
 12 15  1  0  0  0  0
 13 24  1  0  0  0  0
 14 25  1  0  0  0  0
 15  5  1  0  0  0  0
 16  3  1  0  0  0  0
 17 10  1  0  0  0  0
 18 20  1  0  0  0  0
 19  6  1  0  0  0  0
 20 13  1  0  0  0  0
 20 11  1  0  0  0  0
 21 23  1  0  0  0  0
 21 26  1  0  0  0  0
 22 10  1  0  0  0  0
 24 22  1  0  0  0  0
 25  9  1  0  0  0  0
 25 17  1  0  0  0  0
 27  9  1  0  0  0  0
 28 17  1  0  0  0  0
 28 29  1  0  0  0  0
 30 34  1  0  0  0  0
 31 33  1  0  0  0  0
 31 32  1  0  0  0  0
 32 34  1  0  0  0  0
 32 29  1  0  0  0  0
 33 30  1  0  0  0  0
M  END
>  <MODEL>
4

>  <REMARK>
 VINA RESULT:      -7.8      3.530      6.426
  Name = 
  3 active torsions:
  status: ('A' for Active; 'I' for Inactive)
    1  A    between atoms: C_17  and  N_28
    2  A    between atoms: N_28  and  N_29
    3  A    between atoms: N_29  and  C_32
                            x       y       z     vdW  Elec       q    Type
                         _______ _______ _______ _____ _____    ______ ____

>  <TORSDO>
F 3

$$$$
=
 OpenBabel11112417573D

 34 40  0  0  1  0  0  0  0  0999 V2000
  190.4580  172.7010  142.9560 C   0  0  2  0  0  3  0  0  0  0  0  0
  188.3390  173.6520  142.0130 C   0  0  0  0  0  2  0  0  0  0  0  0
  195.7080  176.6440  142.0490 O   0  0  0  0  0  0  0  0  0  0  0  0
  192.7320  172.9960  142.1070 C   0  0  2  0  0  3  0  0  0  0  0  0
  194.4120  174.2720  143.5470 C   0  0  0  0  0  0  0  0  0  0  0  0
  196.0760  175.9150  144.3010 C   0  0  0  0  0  2  0  0  0  0  0  0
  196.6250  176.6830  143.1050 C   0  0  0  0  0  2  0  0  0  0  0  0
  196.1150  174.4740  141.0460 C   0  0  0  0  0  2  0  0  0  0  0  0
  189.7580  175.0560  143.4110 C   0  0  1  0  0  3  0  0  0  0  0  0
  189.2570  177.9150  144.0200 C   0  0  0  0  0  2  0  0  0  0  0  0
  193.4320  174.6790  144.3020 N   0  0  0  0  0  0  0  0  0  0  0  0
  194.6250  174.1670  141.0560 C   0  0  0  0  0  2  0  0  0  0  0  0
  191.2400  175.4600  143.3940 C   0  0  2  0  0  3  0  0  0  0  0  0
  187.8530  175.0280  141.9300 N   0  0  0  0  0  2  0  0  0  0  0  0
  194.1910  173.4140  142.3170 C   0  0  2  0  0  3  0  0  0  0  0  0
  196.3620  175.9830  140.9990 C   0  0  0  0  0  2  0  0  0  0  0  0
  188.3160  177.1430  143.0890 C   0  0  2  0  0  3  0  0  0  0  0  0
  191.8800  172.9960  143.3790 C   0  0  1  0  0  3  0  0  0  0  0  0
  195.7230  174.6000  143.8950 O   0  0  0  0  0  0  0  0  0  0  0  0
  192.0230  174.3420  144.1010 C   0  0  1  0  0  3  0  0  0  0  0  0
  191.1810  171.3550  141.0090 C   0  0  0  0  0  2  0  0  0  0  0  0
  190.6990  177.9440  143.5310 C   0  0  0  0  0  2  0  0  0  0  0  0
  192.6350  171.6400  141.4020 C   0  0  0  0  0  2  0  0  0  0  0  0
  191.4590  176.7780  144.1440 C   0  0  0  0  0  2  0  0  0  0  0  0
  188.9190  175.8870  142.4510 C   0  0  1  0  0  3  0  0  0  0  0  0
  190.2590  171.4000  142.2300 C   0  0  0  0  0  2  0  0  0  0  0  0
  189.5440  173.6900  142.8770 C   0  0  2  0  0  3  0  0  0  0  0  0
  187.8300  178.0280  142.0430 N   0  0  0  0  0  2  0  0  0  0  0  0
  186.6500  178.6150  142.5200 N   0  0  0  0  0  2  0  0  0  0  0  0
  183.2710  178.2780  141.7110 O   0  0  0  0  0  0  0  0  0  0  0  0
  185.3310  177.9160  140.6130 C   0  0  0  0  0  2  0  0  0  0  0  0
  185.5500  177.7660  142.0910 C   0  0  2  0  0  3  0  0  0  0  0  0
  183.9560  178.5350  140.5150 C   0  0  0  0  0  2  0  0  0  0  0  0
  184.2620  178.2650  142.7040 C   0  0  0  0  0  2  0  0  0  0  0  0
  1 26  1  6  0  0  0
  1 18  1  0  0  0  0
  2 27  1  0  0  0  0
  3  7  1  0  0  0  0
  4 23  1  1  0  0  0
  4 15  1  0  0  0  0
  4 18  1  0  0  0  0
  5 19  1  0  0  0  0
  5 11  2  0  0  0  0
  7  6  1  0  0  0  0
  8 12  1  0  0  0  0
 12 15  1  0  0  0  0
 13  9  1  0  0  0  0
 13 20  1  0  0  0  0
 13 24  1  0  0  0  0
 14  2  1  0  0  0  0
 14 25  1  0  0  0  0
 15  5  1  0  0  0  0
 16  8  1  0  0  0  0
 16  3  1  0  0  0  0
 17 10  1  0  0  0  0
 18 20  1  0  0  0  0
 19  6  1  0  0  0  0
 20 11  1  0  0  0  0
 21 23  1  0  0  0  0
 21 26  1  0  0  0  0
 22 10  1  0  0  0  0
 22 24  1  0  0  0  0
 25 17  1  0  0  0  0
 25  9  1  0  0  0  0
 27  1  1  0  0  0  0
 27  9  1  0  0  0  0
 28 29  1  0  0  0  0
 28 17  1  0  0  0  0
 30 34  1  0  0  0  0
 31 32  1  0  0  0  0
 32 29  1  0  0  0  0
 32 34  1  0  0  0  0
 33 31  1  0  0  0  0
 33 30  1  0  0  0  0
M  END
>  <MODEL>
5

>  <REMARK>
 VINA RESULT:      -7.8      2.888      5.742
  Name = 
  3 active torsions:
  status: ('A' for Active; 'I' for Inactive)
    1  A    between atoms: C_17  and  N_28
    2  A    between atoms: N_28  and  N_29
    3  A    between atoms: N_29  and  C_32
                            x       y       z     vdW  Elec       q    Type
                         _______ _______ _______ _____ _____    ______ ____

>  <TORSDO>
F 3

$$$$
=
 OpenBabel11112417573D

 34 40  0  0  1  0  0  0  0  0999 V2000
  190.4180  172.7440  142.3940 C   0  0  2  0  0  3  0  0  0  0  0  0
  188.2490  173.9710  142.1190 C   0  0  0  0  0  2  0  0  0  0  0  0
  195.6840  176.7680  142.4890 O   0  0  0  0  0  0  0  0  0  0  0  0
  192.6020  173.3550  141.4800 C   0  0  2  0  0  3  0  0  0  0  0  0
  194.4650  173.9960  143.1050 C   0  0  0  0  0  0  0  0  0  0  0  0
  196.2560  175.2380  144.2410 C   0  0  0  0  0  2  0  0  0  0  0  0
  196.7060  176.4070  143.3740 C   0  0  0  0  0  2  0  0  0  0  0  0
  195.9090  175.1470  140.7000 C   0  0  0  0  0  2  0  0  0  0  0  0
  189.8520  174.7440  143.7830 C   0  0  1  0  0  3  0  0  0  0  0  0
  189.5190  177.1520  145.4820 C   0  0  0  0  0  2  0  0  0  0  0  0
  193.5830  174.0790  144.0590 N   0  0  0  0  0  0  0  0  0  0  0  0
  194.4170  174.8500  140.7530 C   0  0  0  0  0  2  0  0  0  0  0  0
  191.3390  175.1330  143.7590 C   0  0  2  0  0  3  0  0  0  0  0  0
  187.8060  175.2710  142.6180 N   0  0  0  0  0  2  0  0  0  0  0  0
  194.0890  173.6700  141.6740 C   0  0  2  0  0  3  0  0  0  0  0  0
  196.2030  176.5620  141.2030 C   0  0  0  0  0  2  0  0  0  0  0  0
  188.4600  176.7870  144.4350 C   0  0  2  0  0  3  0  0  0  0  0  0
  191.8850  172.8650  142.7410 C   0  0  1  0  0  3  0  0  0  0  0  0
  195.8160  174.1750  143.4080 O   0  0  0  0  0  0  0  0  0  0  0  0
  192.1500  173.8350  143.9000 C   0  0  1  0  0  3  0  0  0  0  0  0
  190.8890  172.2480  140.0160 C   0  0  0  0  0  2  0  0  0  0  0  0
  190.9040  177.3740  144.8870 C   0  0  0  0  0  2  0  0  0  0  0  0
  192.3850  172.3700  140.3280 C   0  0  0  0  0  2  0  0  0  0  0  0
  191.6800  176.0660  144.9250 C   0  0  0  0  0  2  0  0  0  0  0  0
  188.9500  175.8730  143.3070 C   0  0  1  0  0  3  0  0  0  0  0  0
  190.1000  171.8170  141.2550 C   0  0  0  0  0  2  0  0  0  0  0  0
  189.5370  173.6830  142.7960 C   0  0  2  0  0  3  0  0  0  0  0  0
  187.9020  178.0010  143.8630 N   0  0  0  0  0  2  0  0  0  0  0  0
  186.6340  178.1760  144.4330 N   0  0  0  0  0  2  0  0  0  0  0  0
  184.8840  178.4780  141.4270 O   0  0  0  0  0  0  0  0  0  0  0  0
  184.3960  178.7660  143.7200 C   0  0  0  0  0  2  0  0  0  0  0  0
  185.8650  179.0020  143.5170 C   0  0  2  0  0  3  0  0  0  0  0  0
  183.9470  178.1490  142.4170 C   0  0  0  0  0  2  0  0  0  0  0  0
  186.1150  178.5460  142.0980 C   0  0  0  0  0  2  0  0  0  0  0  0
  1 26  1  6  0  0  0
  1 18  1  0  0  0  0
  1 27  1  0  0  0  0
  2 14  1  0  0  0  0
  2 27  1  0  0  0  0
  3  7  1  0  0  0  0
  4 23  1  6  0  0  0
  4 15  1  0  0  0  0
  4 18  1  0  0  0  0
  5 19  1  0  0  0  0
  5 11  2  0  0  0  0
  7  6  1  0  0  0  0
  8 12  1  0  0  0  0
  8 16  1  0  0  0  0
 12 15  1  0  0  0  0
 13  9  1  0  0  0  0
 13 20  1  0  0  0  0
 13 24  1  0  0  0  0
 14 25  1  0  0  0  0
 15  5  1  0  0  0  0
 16  3  1  0  0  0  0
 17 10  1  0  0  0  0
 18 20  1  0  0  0  0
 19  6  1  0  0  0  0
 20 11  1  0  0  0  0
 21 23  1  0  0  0  0
 21 26  1  0  0  0  0
 22 24  1  0  0  0  0
 22 10  1  0  0  0  0
 25  9  1  0  0  0  0
 25 17  1  0  0  0  0
 27  9  1  0  0  0  0
 28 29  1  0  0  0  0
 28 17  1  0  0  0  0
 30 34  1  0  0  0  0
 30 33  1  0  0  0  0
 32 31  1  0  0  0  0
 32 29  1  0  0  0  0
 33 31  1  0  0  0  0
 34 32  1  0  0  0  0
M  END
>  <MODEL>
6

>  <REMARK>
 VINA RESULT:      -7.7      2.959      6.112
  Name = 
  3 active torsions:
  status: ('A' for Active; 'I' for Inactive)
    1  A    between atoms: C_17  and  N_28
    2  A    between atoms: N_28  and  N_29
    3  A    between atoms: N_29  and  C_32
                            x       y       z     vdW  Elec       q    Type
                         _______ _______ _______ _____ _____    ______ ____

>  <TORSDO>
F 3

$$$$
=
 OpenBabel11112417573D

 34 40  0  0  1  0  0  0  0  0999 V2000
  190.5390  172.4880  141.8640 C   0  0  2  0  0  3  0  0  0  0  0  0
  188.3010  173.6010  141.6610 C   0  0  0  0  0  2  0  0  0  0  0  0
  195.5250  176.7910  142.6070 O   0  0  0  0  0  0  0  0  0  0  0  0
  192.7010  173.3370  141.1020 C   0  0  2  0  0  3  0  0  0  0  0  0
  194.4750  173.8960  142.8540 C   0  0  0  0  0  0  0  0  0  0  0  0
  196.1490  175.1020  144.1870 C   0  0  0  0  0  2  0  0  0  0  0  0
  196.5450  176.3920  143.4780 C   0  0  0  0  0  2  0  0  0  0  0  0
  195.9030  175.4110  140.6500 C   0  0  0  0  0  2  0  0  0  0  0  0
  189.8060  174.2700  143.4570 C   0  0  1  0  0  3  0  0  0  0  0  0
  189.2720  176.4340  145.4130 C   0  0  0  0  0  2  0  0  0  0  0  0
  193.5640  173.8090  143.7810 N   0  0  0  0  0  0  0  0  0  0  0  0
  194.4330  175.0180  140.6170 C   0  0  0  0  0  2  0  0  0  0  0  0
  191.2640  174.7500  143.5300 C   0  0  2  0  0  3  0  0  0  0  0  0
  187.7610  174.8030  142.2930 N   0  0  0  0  0  2  0  0  0  0  0  0
  194.1580  173.7190  141.3820 C   0  0  2  0  0  3  0  0  0  0  0  0
  196.0900  176.7720  141.3240 C   0  0  0  0  0  2  0  0  0  0  0  0
  188.2660  176.1300  144.2960 C   0  0  2  0  0  3  0  0  0  0  0  0
  191.9850  172.6570  142.2730 C   0  0  1  0  0  3  0  0  0  0  0  0
  195.8030  174.1200  143.2200 O   0  0  0  0  0  0  0  0  0  0  0  0
  192.1550  173.4970  143.5450 C   0  0  1  0  0  3  0  0  0  0  0  0
  191.1040  172.3070  139.4620 C   0  0  0  0  0  2  0  0  0  0  0  0
  190.6530  176.8100  144.8960 C   0  0  0  0  0  2  0  0  0  0  0  0
  192.5800  172.4840  139.8360 C   0  0  0  0  0  2  0  0  0  0  0  0
  191.5130  175.5580  144.8080 C   0  0  0  0  0  2  0  0  0  0  0  0
  188.8450  175.3890  143.0860 C   0  0  1  0  0  3  0  0  0  0  0  0
  190.3120  171.6840  140.6150 C   0  0  0  0  0  2  0  0  0  0  0  0
  189.5870  173.3160  142.3430 C   0  0  2  0  0  3  0  0  0  0  0  0
  187.6450  177.3670  143.8510 N   0  0  0  0  0  2  0  0  0  0  0  0
  186.2720  177.2480  144.1050 N   0  0  0  0  0  2  0  0  0  0  0  0
  183.7760  179.0410  145.7620 O   0  0  0  0  0  0  0  0  0  0  0  0
  185.8910  178.1490  146.3200 C   0  0  0  0  0  2  0  0  0  0  0  0
  185.8720  178.4340  144.8460 C   0  0  2  0  0  3  0  0  0  0  0  0
  184.4420  178.2740  146.7290 C   0  0  0  0  0  2  0  0  0  0  0  0
  184.4240  178.7460  144.5520 C   0  0  0  0  0  2  0  0  0  0  0  0
  1 26  1  6  0  0  0
  1 18  1  0  0  0  0
  1 27  1  0  0  0  0
  2 14  1  0  0  0  0
  2 27  1  0  0  0  0
  3  7  1  0  0  0  0
  4 23  1  6  0  0  0
  4 15  1  0  0  0  0
  4 18  1  0  0  0  0
  5 19  1  0  0  0  0
  5 11  2  0  0  0  0
  7  6  1  0  0  0  0
  8 16  1  0  0  0  0
  9 13  1  0  0  0  0
 12  8  1  0  0  0  0
 12 15  1  0  0  0  0
 13 20  1  0  0  0  0
 13 24  1  0  0  0  0
 14 25  1  0  0  0  0
 15  5  1  0  0  0  0
 16  3  1  0  0  0  0
 17 10  1  0  0  0  0
 18 20  1  0  0  0  0
 19  6  1  0  0  0  0
 20 11  1  0  0  0  0
 21 23  1  0  0  0  0
 21 26  1  0  0  0  0
 22 10  1  0  0  0  0
 24 22  1  0  0  0  0
 25  9  1  0  0  0  0
 25 17  1  0  0  0  0
 27  9  1  0  0  0  0
 28 29  1  0  0  0  0
 28 17  1  0  0  0  0
 29 32  1  0  0  0  0
 30 33  1  0  0  0  0
 31 33  1  0  0  0  0
 32 31  1  0  0  0  0
 34 32  1  0  0  0  0
 34 30  1  0  0  0  0
M  END
>  <MODEL>
7

>  <REMARK>
 VINA RESULT:      -7.4      3.306      6.440
  Name = 
  3 active torsions:
  status: ('A' for Active; 'I' for Inactive)
    1  A    between atoms: C_17  and  N_28
    2  A    between atoms: N_28  and  N_29
    3  A    between atoms: N_29  and  C_32
                            x       y       z     vdW  Elec       q    Type
                         _______ _______ _______ _____ _____    ______ ____

>  <TORSDO>
F 3

$$$$
=
 OpenBabel11112417573D

 34 40  0  0  1  0  0  0  0  0999 V2000
  192.8090  176.7180  144.3630 C   0  0  2  0  0  3  0  0  0  0  0  0
  190.7750  177.7650  145.3880 C   0  0  0  0  0  2  0  0  0  0  0  0
  191.9570  170.3220  142.8480 O   0  0  0  0  0  0  0  0  0  0  0  0
  193.5580  174.4000  144.5710 C   0  0  2  0  0  3  0  0  0  0  0  0
  193.5700  172.9320  142.4800 C   0  0  0  0  0  0  0  0  0  0  0  0
  193.1450  171.0870  140.9140 C   0  0  0  0  0  2  0  0  0  0  0  0
  192.5660  169.8940  141.6630 C   0  0  0  0  0  2  0  0  0  0  0  0
  193.8280  170.5730  144.3690 C   0  0  0  0  0  2  0  0  0  0  0  0
  190.5400  176.4470  143.3510 C   0  0  1  0  0  3  0  0  0  0  0  0
  187.9700  175.8440  141.9980 C   0  0  0  0  0  2  0  0  0  0  0  0
  192.8610  173.8330  141.8630 N   0  0  0  0  0  0  0  0  0  0  0  0
  193.3390  171.9560  144.7740 C   0  0  0  0  0  2  0  0  0  0  0  0
  190.9410  175.0260  142.9250 C   0  0  2  0  0  3  0  0  0  0  0  0
  189.3510  177.5540  145.1360 N   0  0  0  0  0  2  0  0  0  0  0  0
  193.9750  173.0700  143.9350 C   0  0  2  0  0  3  0  0  0  0  0  0
  192.6660  169.7020  143.8870 C   0  0  0  0  0  2  0  0  0  0  0  0
  187.9910  176.6500  143.3030 C   0  0  2  0  0  3  0  0  0  0  0  0
  193.3470  175.5430  143.5750 C   0  0  1  0  0  3  0  0  0  0  0  0
  194.0110  171.8100  141.7760 O   0  0  0  0  0  0  0  0  0  0  0  0
  192.4030  175.0900  142.4550 C   0  0  1  0  0  3  0  0  0  0  0  0
  193.9790  176.0320  146.4320 C   0  0  0  0  0  2  0  0  0  0  0  0
  188.5880  174.4590  142.1350 C   0  0  0  0  0  2  0  0  0  0  0  0
  194.5370  174.8250  145.6690 C   0  0  0  0  0  2  0  0  0  0  0  0
  190.0630  174.5310  141.7710 C   0  0  0  0  0  2  0  0  0  0  0  0
  189.2500  176.4680  144.1580 C   0  0  1  0  0  3  0  0  0  0  0  0
  193.6870  177.1980  145.4840 C   0  0  0  0  0  2  0  0  0  0  0  0
  191.4980  177.0310  144.3200 C   0  0  2  0  0  3  0  0  0  0  0  0
  186.8180  176.3220  144.0960 N   0  0  0  0  0  2  0  0  0  0  0  0
  185.9780  177.4430  144.0640 N   0  0  0  0  0  2  0  0  0  0  0  0
  185.8650  177.5750  147.5510 O   0  0  0  0  0  0  0  0  0  0  0  0
  184.9490  178.8230  145.7670 C   0  0  0  0  0  2  0  0  0  0  0  0
  185.1920  177.4210  145.2870 C   0  0  2  0  0  3  0  0  0  0  0  0
  185.6860  178.8850  147.0840 C   0  0  0  0  0  2  0  0  0  0  0  0
  186.0030  176.7910  146.3950 C   0  0  0  0  0  2  0  0  0  0  0  0
  1 26  1  1  0  0  0
  3 16  1  0  0  0  0
  4 23  1  1  0  0  0
  5 15  1  0  0  0  0
  6  7  1  0  0  0  0
  6 19  1  0  0  0  0
  7  3  1  0  0  0  0
  8 12  1  0  0  0  0
  9 25  1  0  0  0  0
  9 27  1  0  0  0  0
 10 22  1  0  0  0  0
 10 17  1  0  0  0  0
 11 20  1  0  0  0  0
 11  5  2  0  0  0  0
 13  9  1  0  0  0  0
 14  2  1  0  0  0  0
 15  4  1  0  0  0  0
 15 12  1  0  0  0  0
 16  8  1  0  0  0  0
 17 28  1  0  0  0  0
 17 25  1  0  0  0  0
 18  1  1  0  0  0  0
 18  4  1  0  0  0  0
 19  5  1  0  0  0  0
 20 13  1  0  0  0  0
 20 18  1  0  0  0  0
 23 21  1  0  0  0  0
 24 22  1  0  0  0  0
 24 13  1  0  0  0  0
 25 14  1  0  0  0  0
 26 21  1  0  0  0  0
 27  1  1  0  0  0  0
 27  2  1  0  0  0  0
 29 28  1  0  0  0  0
 29 32  1  0  0  0  0
 31 33  1  0  0  0  0
 32 31  1  0  0  0  0
 32 34  1  0  0  0  0
 33 30  1  0  0  0  0
 34 30  1  0  0  0  0
M  END
>  <MODEL>
8

>  <REMARK>
 VINA RESULT:      -7.3      3.612      5.458
  Name = 
  3 active torsions:
  status: ('A' for Active; 'I' for Inactive)
    1  A    between atoms: C_17  and  N_28
    2  A    between atoms: N_28  and  N_29
    3  A    between atoms: N_29  and  C_32
                            x       y       z     vdW  Elec       q    Type
                         _______ _______ _______ _____ _____    ______ ____

>  <TORSDO>
F 3

$$$$
=
 OpenBabel11112417573D

 34 40  0  0  1  0  0  0  0  0999 V2000
  188.8320  176.7510  146.3440 C   0  0  2  0  0  3  0  0  0  0  0  0
  186.3450  176.8840  146.0630 C   0  0  0  0  0  2  0  0  0  0  0  0
  191.9080  174.1560  141.0780 O   0  0  0  0  0  0  0  0  0  0  0  0
  190.3480  175.0670  145.4250 C   0  0  2  0  0  3  0  0  0  0  0  0
  192.0720  175.8000  143.6880 C   0  0  0  0  0  0  0  0  0  0  0  0
  193.3890  175.9580  141.6200 C   0  0  0  0  0  2  0  0  0  0  0  0
  193.1420  174.7300  140.7530 C   0  0  0  0  0  2  0  0  0  0  0  0
  192.4120  172.8530  143.0590 C   0  0  0  0  0  2  0  0  0  0  0  0
  187.7910  177.7020  144.2800 C   0  0  1  0  0  3  0  0  0  0  0  0
  186.8530  178.7600  141.6730 C   0  0  0  0  0  2  0  0  0  0  0  0
  191.4420  176.9330  143.5640 N   0  0  0  0  0  0  0  0  0  0  0  0
  191.2130  173.4510  143.7820 C   0  0  0  0  0  2  0  0  0  0  0  0
  188.9530  177.1100  143.4670 C   0  0  2  0  0  3  0  0  0  0  0  0
  185.5200  177.1570  144.8870 N   0  0  0  0  0  2  0  0  0  0  0  0
  191.5840  174.6920  144.6010 C   0  0  2  0  0  3  0  0  0  0  0  0
  192.1980  172.8660  141.5440 C   0  0  0  0  0  2  0  0  0  0  0  0
  185.8480  178.2310  142.7040 C   0  0  2  0  0  3  0  0  0  0  0  0
  190.1600  176.5710  145.6430 C   0  0  1  0  0  3  0  0  0  0  0  0
  193.2640  175.6020  142.9900 O   0  0  0  0  0  0  0  0  0  0  0  0
  190.2320  177.3040  144.2970 C   0  0  1  0  0  3  0  0  0  0  0  0
  188.9810  174.5510  147.4660 C   0  0  0  0  0  2  0  0  0  0  0  0
  187.8780  177.7200  141.2410 C   0  0  0  0  0  2  0  0  0  0  0  0
  190.3260  174.3290  146.7670 C   0  0  0  0  0  2  0  0  0  0  0  0
  189.1100  177.8340  142.1260 C   0  0  0  0  0  2  0  0  0  0  0  0
  186.4320  177.2720  143.7470 C   0  0  1  0  0  3  0  0  0  0  0  0
  188.6990  176.0430  147.6630 C   0  0  0  0  0  2  0  0  0  0  0  0
  187.7450  177.1650  145.6610 C   0  0  2  0  0  3  0  0  0  0  0  0
  184.7420  177.5820  142.0190 N   0  0  0  0  0  2  0  0  0  0  0  0
  183.5620  178.0790  142.5880 N   0  0  0  0  0  2  0  0  0  0  0  0
  181.2970  177.8590  139.9410 O   0  0  0  0  0  0  0  0  0  0  0  0
  181.4230  179.0400  141.9820 C   0  0  0  0  0  2  0  0  0  0  0  0
  182.8210  178.7370  141.5240 C   0  0  2  0  0  3  0  0  0  0  0  0
  180.5580  178.1830  141.0870 C   0  0  0  0  0  2  0  0  0  0  0  0
  182.6280  177.7750  140.3760 C   0  0  0  0  0  2  0  0  0  0  0  0
  1 26  1  6  0  0  0
  3 16  1  0  0  0  0
  4 18  1  0  0  0  0
  4 23  1  1  0  0  0
  5 15  1  0  0  0  0
  6 19  1  0  0  0  0
  7  3  1  0  0  0  0
  7  6  1  0  0  0  0
  8 12  1  0  0  0  0
  9 27  1  0  0  0  0
 10 17  1  0  0  0  0
 11  5  2  0  0  0  0
 11 20  1  0  0  0  0
 12 15  1  0  0  0  0
 13  9  1  0  0  0  0
 13 20  1  0  0  0  0
 14  2  1  0  0  0  0
 15  4  1  0  0  0  0
 16  8  1  0  0  0  0
 17 25  1  0  0  0  0
 18  1  1  0  0  0  0
 19  5  1  0  0  0  0
 20 18  1  0  0  0  0
 21 26  1  0  0  0  0
 22 10  1  0  0  0  0
 22 24  1  0  0  0  0
 23 21  1  0  0  0  0
 24 13  1  0  0  0  0
 25  9  1  0  0  0  0
 25 14  1  0  0  0  0
 27  2  1  0  0  0  0
 27  1  1  0  0  0  0
 28 29  1  0  0  0  0
 28 17  1  0  0  0  0
 30 34  1  0  0  0  0
 30 33  1  0  0  0  0
 32 31  1  0  0  0  0
 32 29  1  0  0  0  0
 33 31  1  0  0  0  0
 34 32  1  0  0  0  0
M  END
>  <MODEL>
9

>  <REMARK>
 VINA RESULT:      -6.9      1.572      2.179
  Name = 
  3 active torsions:
  status: ('A' for Active; 'I' for Inactive)
    1  A    between atoms: C_17  and  N_28
    2  A    between atoms: N_28  and  N_29
    3  A    between atoms: N_29  and  C_32
                            x       y       z     vdW  Elec       q    Type
                         _______ _______ _______ _____ _____    ______ ____

>  <TORSDO>
F 3

$$$$
