=
 OpenBabel11112418033D

 34 40  0  0  1  0  0  0  0  0999 V2000
  189.5140  174.3540  142.6720 C   0  0  1  0  0  3  0  0  0  0  0  0
  191.9240  173.5490  142.3030 C   0  0  0  0  0  3  0  0  0  0  0  0
  185.0010  178.1910  145.8530 C   0  0  1  0  0  3  0  0  0  0  0  0
  187.5620  175.9680  142.9970 C   0  0  0  0  0  0  0  0  0  0  0  0
  186.9580  176.5840  145.3710 C   0  0  2  0  0  3  0  0  0  0  0  0
  186.2600  177.0140  147.7120 C   0  0  0  0  0  1  0  0  0  0  0  0
  184.2820  178.7250  146.9250 O   0  0  0  0  0  1  0  0  0  0  0  0
  185.6330  178.7400  143.4720 C   0  0  0  0  0  2  0  0  0  0  0  0
  191.3810  174.6210  144.3140 C   0  0  0  0  0  0  0  0  0  0  0  0
  193.5040  175.7200  146.3890 C   0  0  0  0  0  2  0  0  0  0  0  0
  188.3880  176.4280  145.6390 N   0  0  0  0  0  2  0  0  0  0  0  0
  186.9150  178.1860  143.5570 O   0  0  0  0  0  0  0  0  0  0  0  0
  190.5690  175.2120  145.2110 C   0  0  0  0  0  0  0  0  0  0  0  0
  193.1640  173.5390  143.2040 C   0  0  0  0  0  3  0  0  0  0  0  0
  186.6990  176.8400  143.8690 C   0  0  1  0  0  3  0  0  0  0  0  0
  185.2070  179.2990  144.8240 C   0  0  0  0  0  2  0  0  0  0  0  0
  193.6890  175.3240  144.9260 C   0  0  2  0  0  3  0  0  0  0  0  0
  188.7800  175.3450  143.5390 C   0  0  0  0  0  0  0  0  0  0  0  0
  186.3600  177.6340  146.3240 C   0  0  2  0  0  3  0  0  0  0  0  0
  189.2140  175.6370  144.7760 C   0  0  0  0  0  0  0  0  0  0  0  0
  188.2580  175.2790  140.8100 C   0  0  0  0  0  3  0  0  0  0  0  0
  192.1920  176.4550  146.6290 C   0  0  0  0  0  2  0  0  0  0  0  0
  187.3440  175.9230  141.7160 N   0  0  0  0  0  0  0  0  0  0  0  0
  191.0210  175.4840  146.6130 C   0  0  0  0  0  2  0  0  0  0  0  0
  192.7700  174.1500  144.5590 C   0  0  1  0  0  3  0  0  0  0  0  0
  189.2840  174.6070  141.2470 N   0  0  0  0  0  0  0  0  0  0  0  0
  190.9380  174.3490  142.9970 N   0  0  0  0  0  0  0  0  0  0  0  0
  195.0290  174.9710  144.7300 O   0  0  0  0  0  0  0  0  0  0  0  0
  195.5380  174.7770  146.0170 C   0  0  0  0  0  2  0  0  0  0  0  0
  196.7240  171.6550  144.6570 C   0  0  0  0  0  2  0  0  0  0  0  0
  197.5540  173.9030  144.8430 C   0  0  0  0  0  2  0  0  0  0  0  0
  196.5970  173.6910  145.9950 C   0  0  0  0  0  3  0  0  0  0  0  0
  197.9400  172.5150  144.3920 C   0  0  0  0  0  2  0  0  0  0  0  0
  195.9480  172.3380  145.7690 C   0  0  0  0  0  2  0  0  0  0  0  0
  1 26  1  6  0  0  0
  1 27  1  0  0  0  0
  1 18  1  0  0  0  0
  2 27  1  0  0  0  0
  2 14  2  0  0  0  0
  3 19  1  0  0  0  0
  3  7  1  1  0  0  0
  4 18  1  0  0  0  0
  5 11  1  6  0  0  0
  5 19  1  0  0  0  0
  8 12  1  0  0  0  0
  8 16  1  0  0  0  0
  9 25  1  0  0  0  0
  9 13  2  0  0  0  0
 10 22  1  0  0  0  0
 12 15  1  0  0  0  0
 13 24  1  0  0  0  0
 15  4  1  6  0  0  0
 15  5  1  0  0  0  0
 16  3  1  0  0  0  0
 17 28  1  1  0  0  0
 17 10  1  0  0  0  0
 18 20  2  0  0  0  0
 19  6  1  1  0  0  0
 20 13  1  0  0  0  0
 20 11  1  0  0  0  0
 21 26  2  0  0  0  0
 21 23  1  0  0  0  0
 23  4  2  0  0  0  0
 24 22  1  0  0  0  0
 25 14  1  6  0  0  0
 25 17  1  0  0  0  0
 27  9  1  0  0  0  0
 28 29  1  0  0  0  0
 30 34  1  0  0  0  0
 31 32  1  0  0  0  0
 32 29  1  0  0  0  0
 33 30  1  0  0  0  0
 33 31  1  0  0  0  0
 34 32  1  0  0  0  0
M  END
>  <MODEL>
1

>  <REMARK>
 VINA RESULT:      -9.0      0.000      0.000
  Name = 
  3 active torsions:
  status: ('A' for Active; 'I' for Inactive)
    1  A    between atoms: C_17  and  O_28
    2  A    between atoms: O_28  and  C_29
    3  A    between atoms: C_29  and  C_32
                            x       y       z     vdW  Elec       q    Type
                         _______ _______ _______ _____ _____    ______ ____

>  <TORSDO>
F 3

$$$$
=
 OpenBabel11112418033D

 34 40  0  0  1  0  0  0  0  0999 V2000
  190.0760  174.0970  142.3190 C   0  0  1  0  0  3  0  0  0  0  0  0
  187.7220  175.1180  142.4300 C   0  0  0  0  0  3  0  0  0  0  0  0
  195.9010  172.3820  145.2080 C   0  0  1  0  0  3  0  0  0  0  0  0
  192.0860  172.6600  142.9670 C   0  0  0  0  0  0  0  0  0  0  0  0
  193.8120  173.7080  144.4830 C   0  0  2  0  0  3  0  0  0  0  0  0
  195.5870  174.8250  145.8070 C   0  0  0  0  0  1  0  0  0  0  0  0
  197.0930  172.5490  145.9160 O   0  0  0  0  0  1  0  0  0  0  0  0
  194.2550  170.5760  144.5730 C   0  0  0  0  0  2  0  0  0  0  0  0
  189.2650  175.6350  144.1160 C   0  0  0  0  0  0  0  0  0  0  0  0
  188.5160  177.0080  146.8690 C   0  0  0  0  0  2  0  0  0  0  0  0
  192.6800  174.4390  145.0530 N   0  0  0  0  0  2  0  0  0  0  0  0
  193.1270  171.3950  144.6890 O   0  0  0  0  0  0  0  0  0  0  0  0
  190.4590  175.6150  144.7370 C   0  0  0  0  0  0  0  0  0  0  0  0
  187.0740  176.1310  143.3810 C   0  0  0  0  0  3  0  0  0  0  0  0
  193.3390  172.4230  143.7660 C   0  0  1  0  0  3  0  0  0  0  0  0
  195.3290  171.0120  145.5610 C   0  0  0  0  0  2  0  0  0  0  0  0
  187.6130  176.3150  145.8500 C   0  0  2  0  0  3  0  0  0  0  0  0
  191.2260  173.8200  143.2540 C   0  0  0  0  0  0  0  0  0  0  0  0
  194.8910  173.4930  145.5600 C   0  0  2  0  0  3  0  0  0  0  0  0
  191.4710  174.6170  144.3070 C   0  0  0  0  0  0  0  0  0  0  0  0
  190.3610  171.8170  141.5310 C   0  0  0  0  0  3  0  0  0  0  0  0
  189.8440  176.2850  147.0520 C   0  0  0  0  0  2  0  0  0  0  0  0
  191.6540  171.7380  142.1570 N   0  0  0  0  0  0  0  0  0  0  0  0
  190.7660  176.5460  145.8700 C   0  0  0  0  0  2  0  0  0  0  0  0
  188.1270  176.5440  144.4220 C   0  0  1  0  0  3  0  0  0  0  0  0
  189.6140  172.8780  141.6520 N   0  0  0  0  0  0  0  0  0  0  0  0
  188.9910  174.7670  143.0320 N   0  0  0  0  0  0  0  0  0  0  0  0
  186.3190  176.8270  145.9890 O   0  0  0  0  0  0  0  0  0  0  0  0
  186.4870  178.0550  146.6330 C   0  0  0  0  0  2  0  0  0  0  0  0
  184.7360  179.3690  143.7680 C   0  0  0  0  0  2  0  0  0  0  0  0
  184.1380  178.4870  145.9220 C   0  0  0  0  0  2  0  0  0  0  0  0
  185.5250  179.0770  146.0580 C   0  0  0  0  0  3  0  0  0  0  0  0
  183.5570  179.1280  144.6850 C   0  0  0  0  0  2  0  0  0  0  0  0
  185.9610  179.4700  144.6590 C   0  0  0  0  0  2  0  0  0  0  0  0
  1 26  1  1  0  0  0
  1 27  1  0  0  0  0
  1 18  1  0  0  0  0
  2 27  1  0  0  0  0
  2 14  2  0  0  0  0
  3 19  1  0  0  0  0
  3 16  1  0  0  0  0
  3  7  1  1  0  0  0
  4 18  1  0  0  0  0
  5 11  1  1  0  0  0
  5 19  1  0  0  0  0
  8 12  1  0  0  0  0
  8 16  1  0  0  0  0
  9 25  1  0  0  0  0
  9 13  2  0  0  0  0
 10 22  1  0  0  0  0
 13 24  1  0  0  0  0
 15  4  1  1  0  0  0
 15  5  1  0  0  0  0
 15 12  1  0  0  0  0
 17 28  1  6  0  0  0
 17 10  1  0  0  0  0
 18 20  2  0  0  0  0
 19  6  1  6  0  0  0
 20 13  1  0  0  0  0
 20 11  1  0  0  0  0
 21 26  2  0  0  0  0
 21 23  1  0  0  0  0
 23  4  2  0  0  0  0
 24 22  1  0  0  0  0
 25 14  1  6  0  0  0
 25 17  1  0  0  0  0
 27  9  1  0  0  0  0
 28 29  1  0  0  0  0
 30 34  1  0  0  0  0
 30 33  1  0  0  0  0
 31 32  1  0  0  0  0
 32 29  1  0  0  0  0
 33 31  1  0  0  0  0
 34 32  1  0  0  0  0
M  END
>  <MODEL>
2

>  <REMARK>
 VINA RESULT:      -8.6      1.741      8.568
  Name = 
  3 active torsions:
  status: ('A' for Active; 'I' for Inactive)
    1  A    between atoms: C_17  and  O_28
    2  A    between atoms: O_28  and  C_29
    3  A    between atoms: C_29  and  C_32
                            x       y       z     vdW  Elec       q    Type
                         _______ _______ _______ _____ _____    ______ ____

>  <TORSDO>
F 3

$$$$
=
 OpenBabel11112418033D

 34 40  0  0  1  0  0  0  0  0999 V2000
  192.0280  175.6680  146.2140 C   0  0  1  0  0  3  0  0  0  0  0  0
  190.1820  177.4170  145.8560 C   0  0  0  0  0  3  0  0  0  0  0  0
  195.3670  170.1460  144.3230 C   0  0  1  0  0  3  0  0  0  0  0  0
  194.0040  174.1410  145.6780 C   0  0  0  0  0  0  0  0  0  0  0  0
  193.4740  171.8030  144.8870 C   0  0  2  0  0  3  0  0  0  0  0  0
  192.9280  169.4540  144.3060 C   0  0  0  0  0  1  0  0  0  0  0  0
  195.5600  168.8120  143.9570 O   0  0  0  0  0  1  0  0  0  0  0  0
  196.4820  172.4000  144.1090 C   0  0  0  0  0  2  0  0  0  0  0  0
  190.0380  175.3660  144.7310 C   0  0  0  0  0  0  0  0  0  0  0  0
  188.0730  174.7810  142.3190 C   0  0  0  0  0  2  0  0  0  0  0  0
  192.2870  172.4130  144.2880 N   0  0  0  0  0  2  0  0  0  0  0  0
  195.2870  173.1120  143.9610 O   0  0  0  0  0  0  0  0  0  0  0  0
  190.4150  174.1170  144.4010 C   0  0  0  0  0  0  0  0  0  0  0  0
  188.8640  177.3880  145.0740 C   0  0  0  0  0  3  0  0  0  0  0  0
  194.5750  172.8580  145.1370 C   0  0  1  0  0  3  0  0  0  0  0  0
  196.3420  171.0030  143.5200 C   0  0  0  0  0  2  0  0  0  0  0  0
  188.5180  176.1180  142.9080 C   0  0  2  0  0  3  0  0  0  0  0  0
  192.5750  174.4510  145.5130 C   0  0  0  0  0  0  0  0  0  0  0  0
  193.9140  170.5870  144.0520 C   0  0  2  0  0  3  0  0  0  0  0  0
  191.7780  173.6610  144.7740 C   0  0  0  0  0  0  0  0  0  0  0  0
  194.3360  176.3880  146.4450 C   0  0  0  0  0  3  0  0  0  0  0  0
  189.2100  173.7700  142.2520 C   0  0  0  0  0  2  0  0  0  0  0  0
  194.8050  175.0690  146.1150 N   0  0  0  0  0  0  0  0  0  0  0  0
  189.5080  173.2040  143.6330 C   0  0  0  0  0  2  0  0  0  0  0  0
  188.7280  176.0010  144.4250 C   0  0  1  0  0  3  0  0  0  0  0  0
  193.0660  176.6770  146.4360 N   0  0  0  0  0  0  0  0  0  0  0  0
  190.8930  176.2150  145.4750 N   0  0  0  0  0  0  0  0  0  0  0  0
  187.5350  177.0730  142.6260 O   0  0  0  0  0  0  0  0  0  0  0  0
  186.3300  176.4590  142.9760 C   0  0  0  0  0  2  0  0  0  0  0  0
  185.4480  178.9000  145.4800 C   0  0  0  0  0  2  0  0  0  0  0  0
  185.8020  178.8910  143.1020 C   0  0  0  0  0  2  0  0  0  0  0  0
  185.3490  177.4990  143.4850 C   0  0  0  0  0  3  0  0  0  0  0  0
  185.3690  179.7740  144.2470 C   0  0  0  0  0  2  0  0  0  0  0  0
  185.3000  177.4670  145.0010 C   0  0  0  0  0  2  0  0  0  0  0  0
  1 18  1  6  0  0  0
  1 26  1  0  0  0  0
  3  7  1  6  0  0  0
  4 23  2  0  0  0  0
  5 11  1  6  0  0  0
  5 15  1  0  0  0  0
  9 27  1  0  0  0  0
 10 17  1  0  0  0  0
 11 20  1  0  0  0  0
 12  8  1  0  0  0  0
 13  9  2  0  0  0  0
 13 20  1  0  0  0  0
 14  2  2  0  0  0  0
 15 12  1  6  0  0  0
 15  4  1  0  0  0  0
 16  8  1  0  0  0  0
 16  3  1  0  0  0  0
 17 28  1  1  0  0  0
 17 25  1  0  0  0  0
 18  4  1  0  0  0  0
 19  6  1  1  0  0  0
 19  3  1  0  0  0  0
 19  5  1  0  0  0  0
 20 18  2  0  0  0  0
 22 10  1  0  0  0  0
 22 24  1  0  0  0  0
 23 21  1  0  0  0  0
 24 13  1  0  0  0  0
 25  9  1  0  0  0  0
 25 14  1  1  0  0  0
 26 21  2  0  0  0  0
 27  2  1  0  0  0  0
 27  1  1  0  0  0  0
 28 29  1  0  0  0  0
 29 32  1  0  0  0  0
 31 32  1  0  0  0  0
 31 33  1  0  0  0  0
 32 34  1  0  0  0  0
 33 30  1  0  0  0  0
 34 30  1  0  0  0  0
M  END
>  <MODEL>
3

>  <REMARK>
 VINA RESULT:      -8.4      2.282      9.062
  Name = 
  3 active torsions:
  status: ('A' for Active; 'I' for Inactive)
    1  A    between atoms: C_17  and  O_28
    2  A    between atoms: O_28  and  C_29
    3  A    between atoms: C_29  and  C_32
                            x       y       z     vdW  Elec       q    Type
                         _______ _______ _______ _____ _____    ______ ____

>  <TORSDO>
F 3

$$$$
=
 OpenBabel11112418033D

 34 40  0  0  1  0  0  0  0  0999 V2000
  192.5760  175.7370  145.8040 C   0  0  1  0  0  3  0  0  0  0  0  0
  190.3750  176.4240  146.9340 C   0  0  0  0  0  3  0  0  0  0  0  0
  196.1640  174.1970  140.3300 C   0  0  1  0  0  3  0  0  0  0  0  0
  194.5090  175.7600  144.1340 C   0  0  0  0  0  0  0  0  0  0  0  0
  194.2870  174.2870  142.0940 C   0  0  2  0  0  3  0  0  0  0  0  0
  194.1320  172.6860  140.2070 C   0  0  0  0  0  1  0  0  0  0  0  0
  196.5140  173.5180  139.1610 O   0  0  0  0  0  1  0  0  0  0  0  0
  196.5550  176.4070  141.4840 C   0  0  0  0  0  2  0  0  0  0  0  0
  190.3070  175.5050  144.7800 C   0  0  0  0  0  0  0  0  0  0  0  0
  187.7810  175.5920  142.8740 C   0  0  0  0  0  2  0  0  0  0  0  0
  192.8540  174.5620  142.2110 N   0  0  0  0  0  2  0  0  0  0  0  0
  195.2600  176.5020  142.0040 O   0  0  0  0  0  0  0  0  0  0  0  0
  190.8170  174.9450  143.6670 C   0  0  0  0  0  0  0  0  0  0  0  0
  188.9070  176.2830  146.5170 C   0  0  0  0  0  3  0  0  0  0  0  0
  195.1200  175.3710  142.8150 C   0  0  1  0  0  3  0  0  0  0  0  0
  196.5380  175.6660  140.1540 C   0  0  0  0  0  2  0  0  0  0  0  0
  188.0860  176.4170  144.1220 C   0  0  2  0  0  3  0  0  0  0  0  0
  193.0910  175.4760  144.4120 C   0  0  0  0  0  0  0  0  0  0  0  0
  194.6550  174.0560  140.6180 C   0  0  2  0  0  3  0  0  0  0  0  0
  192.2860  174.9810  143.4570 C   0  0  0  0  0  0  0  0  0  0  0  0
  194.5650  177.0960  146.1240 C   0  0  0  0  0  3  0  0  0  0  0  0
  189.0140  175.3760  142.0060 C   0  0  0  0  0  2  0  0  0  0  0  0
  195.1730  176.5220  144.9520 N   0  0  0  0  0  0  0  0  0  0  0  0
  189.9300  174.3310  142.6260 C   0  0  0  0  0  2  0  0  0  0  0  0
  188.8680  175.5840  145.1480 C   0  0  1  0  0  3  0  0  0  0  0  0
  193.3540  176.7780  146.4820 N   0  0  0  0  0  0  0  0  0  0  0  0
  191.1530  176.0640  145.7680 N   0  0  0  0  0  0  0  0  0  0  0  0
  186.8750  176.8510  144.6710 O   0  0  0  0  0  0  0  0  0  0  0  0
  186.7110  178.1530  144.1920 C   0  0  0  0  0  2  0  0  0  0  0  0
  183.7160  178.6630  146.1350 C   0  0  0  0  0  2  0  0  0  0  0  0
  186.0580  178.3740  146.5870 C   0  0  0  0  0  2  0  0  0  0  0  0
  185.9490  178.9850  145.2070 C   0  0  0  0  0  3  0  0  0  0  0  0
  184.7350  178.6660  147.2530 C   0  0  0  0  0  2  0  0  0  0  0  0
  184.4720  178.9990  144.8620 C   0  0  0  0  0  2  0  0  0  0  0  0
  1 18  1  6  0  0  0
  1 26  1  0  0  0  0
  3  7  1  6  0  0  0
  3 19  1  0  0  0  0
  4 18  1  0  0  0  0
  4 23  2  0  0  0  0
  5 11  1  6  0  0  0
  5 15  1  0  0  0  0
  8 12  1  0  0  0  0
  9 25  1  0  0  0  0
  9 27  1  0  0  0  0
 10 17  1  0  0  0  0
 11 20  1  0  0  0  0
 13  9  2  0  0  0  0
 14  2  2  0  0  0  0
 15 12  1  6  0  0  0
 15  4  1  0  0  0  0
 16  3  1  0  0  0  0
 16  8  1  0  0  0  0
 17 28  1  1  0  0  0
 17 25  1  0  0  0  0
 19  6  1  1  0  0  0
 19  5  1  0  0  0  0
 20 13  1  0  0  0  0
 20 18  2  0  0  0  0
 21 26  2  0  0  0  0
 22 24  1  0  0  0  0
 22 10  1  0  0  0  0
 23 21  1  0  0  0  0
 24 13  1  0  0  0  0
 25 14  1  1  0  0  0
 27  1  1  0  0  0  0
 27  2  1  0  0  0  0
 29 28  1  0  0  0  0
 29 32  1  0  0  0  0
 30 33  1  0  0  0  0
 31 33  1  0  0  0  0
 32 31  1  0  0  0  0
 34 32  1  0  0  0  0
 34 30  1  0  0  0  0
M  END
>  <MODEL>
4

>  <REMARK>
 VINA RESULT:      -8.2      2.586      9.088
  Name = 
  3 active torsions:
  status: ('A' for Active; 'I' for Inactive)
    1  A    between atoms: C_17  and  O_28
    2  A    between atoms: O_28  and  C_29
    3  A    between atoms: C_29  and  C_32
                            x       y       z     vdW  Elec       q    Type
                         _______ _______ _______ _____ _____    ______ ____

>  <TORSDO>
F 3

$$$$
=
 OpenBabel11112418033D

 34 40  0  0  1  0  0  0  0  0999 V2000
  189.7870  173.5540  143.0760 C   0  0  1  0  0  3  0  0  0  0  0  0
  192.1160  172.4730  143.0880 C   0  0  0  0  0  3  0  0  0  0  0  0
  185.5580  178.4690  144.8560 C   0  0  1  0  0  3  0  0  0  0  0  0
  187.9970  175.3610  142.8450 C   0  0  0  0  0  0  0  0  0  0  0  0
  187.3600  176.6270  144.9350 C   0  0  2  0  0  3  0  0  0  0  0  0
  186.6120  177.7150  147.0350 C   0  0  0  0  0  1  0  0  0  0  0  0
  184.8530  179.3260  145.7040 O   0  0  0  0  0  1  0  0  0  0  0  0
  186.3420  178.3180  142.4620 C   0  0  0  0  0  2  0  0  0  0  0  0
  191.6000  174.0780  144.7160 C   0  0  0  0  0  0  0  0  0  0  0  0
  193.7360  175.4930  146.5770 C   0  0  0  0  0  2  0  0  0  0  0  0
  188.7540  176.4230  145.3290 N   0  0  0  0  0  2  0  0  0  0  0  0
  187.5560  177.6960  142.7710 O   0  0  0  0  0  0  0  0  0  0  0  0
  190.8160  174.9520  145.3740 C   0  0  0  0  0  0  0  0  0  0  0  0
  193.3100  172.5920  144.0430 C   0  0  0  0  0  3  0  0  0  0  0  0
  187.1920  176.5030  143.4040 C   0  0  1  0  0  3  0  0  0  0  0  0
  185.9190  179.2460  143.5930 C   0  0  0  0  0  2  0  0  0  0  0  0
  193.9410  174.7120  145.2800 C   0  0  2  0  0  3  0  0  0  0  0  0
  189.1220  174.7980  143.6080 C   0  0  0  0  0  0  0  0  0  0  0  0
  186.8320  177.9390  145.5440 C   0  0  2  0  0  3  0  0  0  0  0  0
  189.5310  175.3650  144.7550 C   0  0  0  0  0  0  0  0  0  0  0  0
  188.7110  174.0650  140.9590 C   0  0  0  0  0  3  0  0  0  0  0  0
  192.4960  176.3760  146.5310 C   0  0  0  0  0  2  0  0  0  0  0  0
  187.8300  175.0010  141.6060 N   0  0  0  0  0  0  0  0  0  0  0  0
  191.2340  175.5410  146.6870 C   0  0  0  0  0  2  0  0  0  0  0  0
  192.9230  173.5680  145.1660 C   0  0  1  0  0  3  0  0  0  0  0  0
  189.6440  173.4440  141.6220 N   0  0  0  0  0  0  0  0  0  0  0  0
  191.1880  173.5100  143.4860 N   0  0  0  0  0  0  0  0  0  0  0  0
  195.2440  174.2050  145.2720 O   0  0  0  0  0  0  0  0  0  0  0  0
  196.0020  175.1770  144.6130 C   0  0  0  0  0  2  0  0  0  0  0  0
  196.4230  176.5640  141.3110 C   0  0  0  0  0  2  0  0  0  0  0  0
  197.1620  174.6010  142.4850 C   0  0  0  0  0  2  0  0  0  0  0  0
  195.8500  175.0210  143.1120 C   0  0  0  0  0  3  0  0  0  0  0  0
  197.1820  175.2680  141.1300 C   0  0  0  0  0  2  0  0  0  0  0  0
  195.4840  176.3530  142.4850 C   0  0  0  0  0  2  0  0  0  0  0  0
  1 26  1  6  0  0  0
  1 27  1  0  0  0  0
  1 18  1  0  0  0  0
  2 27  1  0  0  0  0
  2 14  2  0  0  0  0
  3 19  1  0  0  0  0
  3  7  1  1  0  0  0
  4 15  1  0  0  0  0
  4 18  1  0  0  0  0
  5 11  1  6  0  0  0
  5 19  1  0  0  0  0
  8 12  1  0  0  0  0
  8 16  1  0  0  0  0
  9 25  1  0  0  0  0
  9 13  2  0  0  0  0
 13 24  1  0  0  0  0
 15 12  1  6  0  0  0
 15  5  1  0  0  0  0
 16  3  1  0  0  0  0
 17 28  1  1  0  0  0
 17 10  1  0  0  0  0
 18 20  2  0  0  0  0
 19  6  1  1  0  0  0
 20 11  1  0  0  0  0
 20 13  1  0  0  0  0
 21 23  1  0  0  0  0
 21 26  2  0  0  0  0
 22 10  1  0  0  0  0
 22 24  1  0  0  0  0
 23  4  2  0  0  0  0
 25 14  1  6  0  0  0
 25 17  1  0  0  0  0
 27  9  1  0  0  0  0
 29 28  1  0  0  0  0
 30 34  1  0  0  0  0
 31 32  1  0  0  0  0
 32 29  1  0  0  0  0
 33 30  1  0  0  0  0
 33 31  1  0  0  0  0
 34 32  1  0  0  0  0
M  END
>  <MODEL>
5

>  <REMARK>
 VINA RESULT:      -8.2      1.587      1.927
  Name = 
  3 active torsions:
  status: ('A' for Active; 'I' for Inactive)
    1  A    between atoms: C_17  and  O_28
    2  A    between atoms: O_28  and  C_29
    3  A    between atoms: C_29  and  C_32
                            x       y       z     vdW  Elec       q    Type
                         _______ _______ _______ _____ _____    ______ ____

>  <TORSDO>
F 3

$$$$
=
 OpenBabel11112418033D

 34 40  0  0  1  0  0  0  0  0999 V2000
  191.8780  175.5250  144.0200 C   0  0  1  0  0  3  0  0  0  0  0  0
  190.3910  177.1010  145.3980 C   0  0  0  0  0  3  0  0  0  0  0  0
  193.2080  172.0920  138.3930 C   0  0  1  0  0  3  0  0  0  0  0  0
  193.2030  174.6300  142.0280 C   0  0  0  0  0  0  0  0  0  0  0  0
  191.9930  173.0840  140.4390 C   0  0  2  0  0  3  0  0  0  0  0  0
  190.8440  171.4150  139.0090 C   0  0  0  0  0  1  0  0  0  0  0  0
  193.0010  171.1860  137.3500 O   0  0  0  0  0  1  0  0  0  0  0  0
  194.5730  174.1420  138.9430 C   0  0  0  0  0  2  0  0  0  0  0  0
  189.4680  175.9960  143.5490 C   0  0  0  0  0  0  0  0  0  0  0  0
  186.6920  176.7400  142.2200 C   0  0  0  0  0  2  0  0  0  0  0  0
  190.8070  173.8700  140.7810 N   0  0  0  0  0  2  0  0  0  0  0  0
  193.5610  174.7660  139.6820 O   0  0  0  0  0  0  0  0  0  0  0  0
  189.4590  175.1500  142.5020 C   0  0  0  0  0  0  0  0  0  0  0  0
  188.8990  177.4460  145.3260 C   0  0  0  0  0  3  0  0  0  0  0  0
  193.2870  173.8780  140.7270 C   0  0  1  0  0  3  0  0  0  0  0  0
  193.9700  173.2910  137.8340 C   0  0  0  0  0  2  0  0  0  0  0  0
  187.5630  177.5540  143.1750 C   0  0  2  0  0  3  0  0  0  0  0  0
  191.8950  174.9160  142.6410 C   0  0  0  0  0  0  0  0  0  0  0  0
  191.8650  172.5450  139.0030 C   0  0  2  0  0  3  0  0  0  0  0  0
  190.7530  174.6240  141.9980 C   0  0  0  0  0  0  0  0  0  0  0  0
  194.2050  176.1020  143.6320 C   0  0  0  0  0  3  0  0  0  0  0  0
  187.5170  175.9820  141.1880 C   0  0  0  0  0  2  0  0  0  0  0  0
  194.2670  175.2010  142.5130 N   0  0  0  0  0  0  0  0  0  0  0  0
  188.1820  174.7670  141.8180 C   0  0  0  0  0  2  0  0  0  0  0  0
  188.2800  176.6360  144.1750 C   0  0  1  0  0  3  0  0  0  0  0  0
  193.0960  176.2930  144.2880 N   0  0  0  0  0  0  0  0  0  0  0  0
  190.6770  176.3360  144.2030 N   0  0  0  0  0  0  0  0  0  0  0  0
  186.7430  178.4640  143.8510 O   0  0  0  0  0  0  0  0  0  0  0  0
  185.5060  177.8230  143.9530 C   0  0  0  0  0  2  0  0  0  0  0  0
  185.8920  177.3300  147.5040 C   0  0  0  0  0  2  0  0  0  0  0  0
  185.5630  179.1990  146.0290 C   0  0  0  0  0  2  0  0  0  0  0  0
  184.9490  177.9910  145.3540 C   0  0  0  0  0  3  0  0  0  0  0  0
  185.6620  178.8250  147.4890 C   0  0  0  0  0  2  0  0  0  0  0  0
  185.3160  176.7920  146.2070 C   0  0  0  0  0  2  0  0  0  0  0  0
  1 18  1  6  0  0  0
  1 27  1  0  0  0  0
  1 26  1  0  0  0  0
  3  7  1  6  0  0  0
  3 19  1  0  0  0  0
  4 23  2  0  0  0  0
  4 18  1  0  0  0  0
  5 15  1  0  0  0  0
  5 11  1  6  0  0  0
  8 12  1  0  0  0  0
  9 25  1  0  0  0  0
  9 27  1  0  0  0  0
 10 17  1  0  0  0  0
 11 20  1  0  0  0  0
 13  9  2  0  0  0  0
 14  2  2  0  0  0  0
 15 12  1  6  0  0  0
 15  4  1  0  0  0  0
 16  3  1  0  0  0  0
 16  8  1  0  0  0  0
 17 28  1  1  0  0  0
 17 25  1  0  0  0  0
 19  6  1  1  0  0  0
 19  5  1  0  0  0  0
 20 13  1  0  0  0  0
 20 18  2  0  0  0  0
 21 26  2  0  0  0  0
 22 24  1  0  0  0  0
 22 10  1  0  0  0  0
 23 21  1  0  0  0  0
 24 13  1  0  0  0  0
 25 14  1  1  0  0  0
 27  2  1  0  0  0  0
 28 29  1  0  0  0  0
 29 32  1  0  0  0  0
 31 33  1  0  0  0  0
 32 31  1  0  0  0  0
 32 34  1  0  0  0  0
 33 30  1  0  0  0  0
 34 30  1  0  0  0  0
M  END
>  <MODEL>
6

>  <REMARK>
 VINA RESULT:      -8.2      2.795      8.810
  Name = 
  3 active torsions:
  status: ('A' for Active; 'I' for Inactive)
    1  A    between atoms: C_17  and  O_28
    2  A    between atoms: O_28  and  C_29
    3  A    between atoms: C_29  and  C_32
                            x       y       z     vdW  Elec       q    Type
                         _______ _______ _______ _____ _____    ______ ____

>  <TORSDO>
F 3

$$$$
=
 OpenBabel11112418033D

 34 40  0  0  1  0  0  0  0  0999 V2000
  190.0720  172.9260  143.4350 C   0  0  1  0  0  3  0  0  0  0  0  0
  192.3740  172.0090  144.1060 C   0  0  0  0  0  3  0  0  0  0  0  0
  185.6710  177.9790  142.8760 C   0  0  1  0  0  3  0  0  0  0  0  0
  188.3360  174.4720  142.3760 C   0  0  0  0  0  0  0  0  0  0  0  0
  187.4390  176.3500  143.8060 C   0  0  2  0  0  3  0  0  0  0  0  0
  186.4300  178.0590  145.2940 C   0  0  0  0  0  1  0  0  0  0  0  0
  184.8660  179.0460  143.2830 O   0  0  0  0  0  1  0  0  0  0  0  0
  186.7590  177.0500  140.7970 C   0  0  0  0  0  2  0  0  0  0  0  0
  191.6600  174.0520  145.0040 C   0  0  0  0  0  0  0  0  0  0  0  0
  193.5420  176.1030  146.5120 C   0  0  0  0  0  2  0  0  0  0  0  0
  188.7690  176.3490  144.4150 N   0  0  0  0  0  2  0  0  0  0  0  0
  187.9190  176.6210  141.4490 O   0  0  0  0  0  0  0  0  0  0  0  0
  190.8010  175.0660  145.2190 C   0  0  0  0  0  0  0  0  0  0  0  0
  193.4350  172.4950  145.1010 C   0  0  0  0  0  3  0  0  0  0  0  0
  187.4700  175.7030  142.4030 C   0  0  1  0  0  3  0  0  0  0  0  0
  186.1970  178.2910  141.4780 C   0  0  0  0  0  2  0  0  0  0  0  0
  193.9100  174.9340  145.5990 C   0  0  2  0  0  3  0  0  0  0  0  0
  189.3500  174.2490  143.4190 C   0  0  0  0  0  0  0  0  0  0  0  0
  186.8430  177.7680  143.8570 C   0  0  2  0  0  3  0  0  0  0  0  0
  189.6090  175.1910  144.3420 C   0  0  0  0  0  0  0  0  0  0  0  0
  189.2820  172.6380  141.1550 C   0  0  0  0  0  3  0  0  0  0  0  0
  192.3230  176.8670  146.0120 C   0  0  0  0  0  2  0  0  0  0  0  0
  188.3290  173.7030  141.3270 N   0  0  0  0  0  0  0  0  0  0  0  0
  191.0480  176.0850  146.2900 C   0  0  0  0  0  2  0  0  0  0  0  0
  192.9110  173.7810  145.7620 C   0  0  1  0  0  3  0  0  0  0  0  0
  190.1180  172.3200  142.1020 N   0  0  0  0  0  0  0  0  0  0  0  0
  191.4080  173.0820  144.0040 N   0  0  0  0  0  0  0  0  0  0  0  0
  195.2010  174.5080  145.9270 O   0  0  0  0  0  0  0  0  0  0  0  0
  195.9990  174.9310  144.8610 C   0  0  0  0  0  2  0  0  0  0  0  0
  197.1900  171.5410  145.1750 C   0  0  0  0  0  2  0  0  0  0  0  0
  196.7440  173.0730  143.3770 C   0  0  0  0  0  2  0  0  0  0  0  0
  197.0870  173.9080  144.5920 C   0  0  0  0  0  3  0  0  0  0  0  0
  197.2980  171.7000  143.6740 C   0  0  0  0  0  2  0  0  0  0  0  0
  197.1920  172.9430  145.7580 C   0  0  0  0  0  2  0  0  0  0  0  0
  1 26  1  6  0  0  0
  1 27  1  0  0  0  0
  2 14  2  0  0  0  0
  3  7  1  1  0  0  0
  3 19  1  0  0  0  0
  4 15  1  0  0  0  0
  4 18  1  0  0  0  0
  5 19  1  0  0  0  0
  5 11  1  6  0  0  0
  8 12  1  0  0  0  0
  8 16  1  0  0  0  0
  9 13  2  0  0  0  0
  9 25  1  0  0  0  0
 13 24  1  0  0  0  0
 15 12  1  6  0  0  0
 15  5  1  0  0  0  0
 16  3  1  0  0  0  0
 17 25  1  0  0  0  0
 17 28  1  1  0  0  0
 17 10  1  0  0  0  0
 18  1  1  0  0  0  0
 18 20  2  0  0  0  0
 19  6  1  1  0  0  0
 20 11  1  0  0  0  0
 20 13  1  0  0  0  0
 21 23  1  0  0  0  0
 21 26  2  0  0  0  0
 22 24  1  0  0  0  0
 22 10  1  0  0  0  0
 23  4  2  0  0  0  0
 25 14  1  6  0  0  0
 27  2  1  0  0  0  0
 27  9  1  0  0  0  0
 29 28  1  0  0  0  0
 30 34  1  0  0  0  0
 31 33  1  0  0  0  0
 31 32  1  0  0  0  0
 32 29  1  0  0  0  0
 32 34  1  0  0  0  0
 33 30  1  0  0  0  0
M  END
>  <MODEL>
7

>  <REMARK>
 VINA RESULT:      -8.1      1.502      2.008
  Name = 
  3 active torsions:
  status: ('A' for Active; 'I' for Inactive)
    1  A    between atoms: C_17  and  O_28
    2  A    between atoms: O_28  and  C_29
    3  A    between atoms: C_29  and  C_32
                            x       y       z     vdW  Elec       q    Type
                         _______ _______ _______ _____ _____    ______ ____

>  <TORSDO>
F 3

$$$$
=
 OpenBabel11112418033D

 34 40  0  0  1  0  0  0  0  0999 V2000
  191.0360  172.9660  142.5280 C   0  0  1  0  0  3  0  0  0  0  0  0
  189.1290  174.6820  142.6440 C   0  0  0  0  0  3  0  0  0  0  0  0
  196.1020  169.5800  145.3710 C   0  0  1  0  0  3  0  0  0  0  0  0
  192.5070  170.9860  143.1920 C   0  0  0  0  0  0  0  0  0  0  0  0
  194.5190  171.4770  144.6360 C   0  0  2  0  0  3  0  0  0  0  0  0
  196.5950  172.0130  145.8830 C   0  0  0  0  0  1  0  0  0  0  0  0
  197.3070  169.3820  146.0500 O   0  0  0  0  0  1  0  0  0  0  0  0
  193.9530  168.3710  144.8350 C   0  0  0  0  0  2  0  0  0  0  0  0
  190.8050  174.7340  144.2810 C   0  0  0  0  0  0  0  0  0  0  0  0
  190.6100  176.3550  146.9940 C   0  0  0  0  0  2  0  0  0  0  0  0
  193.6940  172.5450  145.1990 N   0  0  0  0  0  2  0  0  0  0  0  0
  193.1450  169.5080  144.9410 O   0  0  0  0  0  0  0  0  0  0  0  0
  191.9500  174.3550  144.8800 C   0  0  0  0  0  0  0  0  0  0  0  0
  188.8630  175.8760  143.5680 C   0  0  0  0  0  3  0  0  0  0  0  0
  193.6440  170.3880  143.9760 C   0  0  1  0  0  3  0  0  0  0  0  0
  195.1380  168.4720  145.7860 C   0  0  0  0  0  2  0  0  0  0  0  0
  189.5050  175.9530  146.0190 C   0  0  2  0  0  3  0  0  0  0  0  0
  192.0660  172.3660  143.4510 C   0  0  0  0  0  0  0  0  0  0  0  0
  195.5060  170.9640  145.7000 C   0  0  2  0  0  3  0  0  0  0  0  0
  192.5810  173.0750  144.4690 C   0  0  0  0  0  0  0  0  0  0  0  0
  190.5630  170.6910  141.8200 C   0  0  0  0  0  3  0  0  0  0  0  0
  191.6460  175.2540  147.1800 C   0  0  0  0  0  2  0  0  0  0  0  0
  191.7820  170.2240  142.4250 N   0  0  0  0  0  0  0  0  0  0  0  0
  192.5680  175.1740  145.9720 C   0  0  0  0  0  2  0  0  0  0  0  0
  190.0230  175.9650  144.5740 C   0  0  1  0  0  3  0  0  0  0  0  0
  190.1930  171.9360  141.9160 N   0  0  0  0  0  0  0  0  0  0  0  0
  190.2390  173.9650  143.2350 N   0  0  0  0  0  0  0  0  0  0  0  0
  188.4430  176.8530  146.1620 O   0  0  0  0  0  0  0  0  0  0  0  0
  187.7420  176.4030  147.2840 C   0  0  0  0  0  2  0  0  0  0  0  0
  185.3300  178.9920  146.5880 C   0  0  0  0  0  2  0  0  0  0  0  0
  185.8100  176.7880  145.7580 C   0  0  0  0  0  2  0  0  0  0  0  0
  186.2900  176.8320  147.1920 C   0  0  0  0  0  3  0  0  0  0  0  0
  184.8280  177.9280  145.6360 C   0  0  0  0  0  2  0  0  0  0  0  0
  186.1440  178.2720  147.6480 C   0  0  0  0  0  2  0  0  0  0  0  0
  1 26  1  1  0  0  0
  1 27  1  0  0  0  0
  1 18  1  0  0  0  0
  2 27  1  0  0  0  0
  2 14  2  0  0  0  0
  3 19  1  0  0  0  0
  3 16  1  0  0  0  0
  3  7  1  1  0  0  0
  4 18  1  0  0  0  0
  5 11  1  1  0  0  0
  5 19  1  0  0  0  0
  8 12  1  0  0  0  0
  8 16  1  0  0  0  0
  9 25  1  0  0  0  0
  9 13  2  0  0  0  0
 10 22  1  0  0  0  0
 13 24  1  0  0  0  0
 15  4  1  1  0  0  0
 15  5  1  0  0  0  0
 15 12  1  0  0  0  0
 17 28  1  6  0  0  0
 17 10  1  0  0  0  0
 18 20  2  0  0  0  0
 19  6  1  6  0  0  0
 20 13  1  0  0  0  0
 20 11  1  0  0  0  0
 21 26  2  0  0  0  0
 21 23  1  0  0  0  0
 23  4  2  0  0  0  0
 24 22  1  0  0  0  0
 25 14  1  6  0  0  0
 25 17  1  0  0  0  0
 27  9  1  0  0  0  0
 28 29  1  0  0  0  0
 30 34  1  0  0  0  0
 31 32  1  0  0  0  0
 32 29  1  0  0  0  0
 32 34  1  0  0  0  0
 33 31  1  0  0  0  0
 33 30  1  0  0  0  0
M  END
>  <MODEL>
8

>  <REMARK>
 VINA RESULT:      -7.9      2.524      8.765
  Name = 
  3 active torsions:
  status: ('A' for Active; 'I' for Inactive)
    1  A    between atoms: C_17  and  O_28
    2  A    between atoms: O_28  and  C_29
    3  A    between atoms: C_29  and  C_32
                            x       y       z     vdW  Elec       q    Type
                         _______ _______ _______ _____ _____    ______ ____

>  <TORSDO>
F 3

$$$$
=
 OpenBabel11112418033D

 34 40  0  0  1  0  0  0  0  0999 V2000
  191.1830  176.2640  144.4860 C   0  0  1  0  0  3  0  0  0  0  0  0
  192.8010  174.6350  143.3350 C   0  0  0  0  0  3  0  0  0  0  0  0
  184.9720  178.5330  145.7010 C   0  0  1  0  0  3  0  0  0  0  0  0
  189.1570  177.0750  145.8120 C   0  0  0  0  0  0  0  0  0  0  0  0
  187.0880  177.6860  144.4980 C   0  0  2  0  0  3  0  0  0  0  0  0
  185.1430  178.4660  143.1720 C   0  0  0  0  0  1  0  0  0  0  0  0
  183.7010  179.0410  145.4200 O   0  0  0  0  0  1  0  0  0  0  0  0
  186.2060  177.2770  147.5090 C   0  0  0  0  0  2  0  0  0  0  0  0
  190.6360  174.8850  142.4730 C   0  0  0  0  0  0  0  0  0  0  0  0
  189.3100  172.9310  140.3640 C   0  0  0  0  0  2  0  0  0  0  0  0
  187.5230  176.6380  143.5740 N   0  0  0  0  0  2  0  0  0  0  0  0
  186.9890  176.5300  146.6230 O   0  0  0  0  0  0  0  0  0  0  0  0
  189.3970  175.4060  142.3960 C   0  0  0  0  0  0  0  0  0  0  0  0
  192.6860  173.7830  142.0650 C   0  0  0  0  0  3  0  0  0  0  0  0
  187.7110  177.4840  145.8980 C   0  0  1  0  0  3  0  0  0  0  0  0
  184.8490  177.5820  146.8880 C   0  0  0  0  0  2  0  0  0  0  0  0
  190.5350  172.7180  141.2520 C   0  0  2  0  0  3  0  0  0  0  0  0
  189.6970  176.5020  144.5690 C   0  0  0  0  0  0  0  0  0  0  0  0
  185.5530  177.7960  144.4770 C   0  0  2  0  0  3  0  0  0  0  0  0
  188.8910  176.2170  143.5320 C   0  0  0  0  0  0  0  0  0  0  0  0
  191.1990  176.4620  146.9070 C   0  0  0  0  0  3  0  0  0  0  0  0
  188.1910  173.6670  141.0880 C   0  0  0  0  0  2  0  0  0  0  0  0
  189.8820  177.0410  146.8910 N   0  0  0  0  0  0  0  0  0  0  0  0
  188.5140  175.1480  141.2130 C   0  0  0  0  0  2  0  0  0  0  0  0
  191.3000  174.0340  141.4500 C   0  0  1  0  0  3  0  0  0  0  0  0
  191.7720  176.0540  145.8110 N   0  0  0  0  0  0  0  0  0  0  0  0
  191.4720  175.1510  143.5850 N   0  0  0  0  0  0  0  0  0  0  0  0
  191.3590  171.7640  140.6450 O   0  0  0  0  0  0  0  0  0  0  0  0
  190.5070  170.7010  140.3370 C   0  0  0  0  0  2  0  0  0  0  0  0
  190.0660  170.5050  136.7630 C   0  0  0  0  0  2  0  0  0  0  0  0
  191.8730  170.9860  138.2720 C   0  0  0  0  0  2  0  0  0  0  0  0
  190.9110  170.0820  139.0120 C   0  0  0  0  0  3  0  0  0  0  0  0
  191.5510  170.7920  136.8100 C   0  0  0  0  0  2  0  0  0  0  0  0
  189.6950  169.9290  138.1170 C   0  0  0  0  0  2  0  0  0  0  0  0
  1 18  1  1  0  0  0
  1 26  1  0  0  0  0
  2 27  1  0  0  0  0
  3  7  1  6  0  0  0
  3 16  1  0  0  0  0
  4 23  2  0  0  0  0
  5 11  1  6  0  0  0
  5 15  1  0  0  0  0
  9 27  1  0  0  0  0
 10 22  1  0  0  0  0
 10 17  1  0  0  0  0
 12  8  1  0  0  0  0
 13  9  2  0  0  0  0
 13 20  1  0  0  0  0
 14  2  2  0  0  0  0
 15  4  1  6  0  0  0
 15 12  1  0  0  0  0
 16  8  1  0  0  0  0
 17 28  1  6  0  0  0
 17 25  1  0  0  0  0
 18  4  1  0  0  0  0
 19  6  1  6  0  0  0
 19  5  1  0  0  0  0
 19  3  1  0  0  0  0
 20 11  1  0  0  0  0
 20 18  2  0  0  0  0
 22 24  1  0  0  0  0
 23 21  1  0  0  0  0
 24 13  1  0  0  0  0
 25 14  1  1  0  0  0
 25  9  1  0  0  0  0
 26 21  2  0  0  0  0
 27  1  1  0  0  0  0
 29 28  1  0  0  0  0
 30 33  1  0  0  0  0
 30 34  1  0  0  0  0
 31 32  1  0  0  0  0
 32 29  1  0  0  0  0
 33 31  1  0  0  0  0
 34 32  1  0  0  0  0
M  END
>  <MODEL>
9

>  <REMARK>
 VINA RESULT:      -7.9      2.908      5.524
  Name = 
  3 active torsions:
  status: ('A' for Active; 'I' for Inactive)
    1  A    between atoms: C_17  and  O_28
    2  A    between atoms: O_28  and  C_29
    3  A    between atoms: C_29  and  C_32
                            x       y       z     vdW  Elec       q    Type
                         _______ _______ _______ _____ _____    ______ ____

>  <TORSDO>
F 3

$$$$
