=
 OpenBabel11112417423D

 28 32  0  0  1  0  0  0  0  0999 V2000
  186.8700  178.3700  144.7190 C   0  0  2  0  0  3  0  0  0  0  0  0
  188.8590  177.6530  146.7750 O   0  0  0  0  0  0  0  0  0  0  0  0
  188.3810  174.7330  139.6000 O   0  0  0  0  0  0  0  0  0  0  0  0
  184.6900  177.2590  146.3560 C   0  0  0  0  0  2  0  0  0  0  0  0
  189.3800  174.3520  141.7090 N   0  0  0  0  0  0  0  0  0  0  0  0
  187.4230  178.9250  143.4030 C   0  0  0  0  0  2  0  0  0  0  0  0
  188.4540  175.3540  147.5660 O   0  0  0  0  0  0  0  0  0  0  0  0
  189.1700  176.2000  146.5520 S   0  0  0  0  0  0  0  0  0  0  0  0
  191.4790  174.9020  145.7550 C   0  0  0  0  0  0  0  0  0  0  0  0
  188.7350  175.7120  144.9560 N   0  0  0  0  0  0  0  0  0  0  0  0
  185.0740  177.7760  140.5650 C   0  0  0  0  0  1  0  0  0  0  0  0
  187.7590  175.3890  142.9860 C   0  0  0  0  0  0  0  0  0  0  0  0
  190.8900  174.5140  144.6150 C   0  0  0  0  0  3  0  0  0  0  0  0
  190.9340  175.9570  146.6900 C   0  0  0  0  0  2  0  0  0  0  0  0
  186.0630  177.6250  141.7040 C   0  0  1  0  0  3  0  0  0  0  0  0
  186.4760  176.8830  144.6300 C   0  0  2  0  0  3  0  0  0  0  0  0
  188.3450  174.8530  140.8530 C   0  0  0  0  0  0  0  0  0  0  0  0
  192.8340  174.3670  146.0480 C   0  0  0  0  0  1  0  0  0  0  0  0
  187.2780  176.9860  141.2170 N   0  0  0  0  0  2  0  0  0  0  0  0
  185.8580  176.3770  145.9340 C   0  0  0  0  0  2  0  0  0  0  0  0
  185.7070  179.2310  145.2200 C   0  0  0  0  0  2  0  0  0  0  0  0
  185.1650  178.6950  146.5390 C   0  0  0  0  0  2  0  0  0  0  0  0
  186.3910  178.9980  142.2740 C   0  0  0  0  0  2  0  0  0  0  0  0
  188.9310  174.7290  142.9930 C   0  0  0  0  0  0  0  0  0  0  0  0
  187.2380  175.5770  141.5930 C   0  0  2  0  0  3  0  0  0  0  0  0
  189.5560  174.9630  144.1930 C   0  0  0  0  0  0  0  0  0  0  0  0
  190.7590  174.1150  141.3190 C   0  0  0  0  0  1  0  0  0  0  0  0
  187.6250  176.0030  144.2200 C   0  0  0  0  0  0  0  0  0  0  0  0
  1  6  1  6  0  0  0
  1 21  1  0  0  0  0
  3 17  2  0  0  0  0
  4 22  1  0  0  0  0
  5 24  1  0  0  0  0
  8 14  1  0  0  0  0
  8  2  2  0  0  0  0
  8  7  2  0  0  0  0
  9 18  1  0  0  0  0
  9 14  1  0  0  0  0
 10  8  1  0  0  0  0
 12 24  1  0  0  0  0
 12 28  2  0  0  0  0
 13  9  2  0  0  0  0
 15 11  1  6  0  0  0
 15 23  1  0  0  0  0
 16  1  1  0  0  0  0
 16 20  1  1  0  0  0
 17  5  1  0  0  0  0
 19 25  1  0  0  0  0
 19 15  1  0  0  0  0
 20  4  1  0  0  0  0
 21 22  1  0  0  0  0
 23  6  1  0  0  0  0
 24 26  2  0  0  0  0
 25 17  1  6  0  0  0
 25 12  1  0  0  0  0
 26 13  1  0  0  0  0
 26 10  1  0  0  0  0
 27  5  1  0  0  0  0
 28 16  1  0  0  0  0
 28 10  1  0  0  0  0
M  END
>  <MODEL>
1

>  <REMARK>
 VINA RESULT:      -8.3      0.000      0.000
  Name = 
  0 active torsions:
  status: ('A' for Active; 'I' for Inactive)
                            x       y       z     vdW  Elec       q    Type
                         _______ _______ _______ _____ _____    ______ ____

>  <TORSDO>
F 0

$$$$
=
 OpenBabel11112417423D

 28 32  0  0  1  0  0  0  0  0999 V2000
  189.8250  174.1430  144.4410 C   0  0  2  0  0  3  0  0  0  0  0  0
  188.6380  175.2260  146.9150 O   0  0  0  0  0  0  0  0  0  0  0  0
  186.5200  176.9400  139.6470 O   0  0  0  0  0  0  0  0  0  0  0  0
  192.3930  175.4540  145.0280 C   0  0  0  0  0  2  0  0  0  0  0  0
  186.2940  177.6780  141.8820 N   0  0  0  0  0  0  0  0  0  0  0  0
  188.8720  173.3950  143.5020 C   0  0  0  0  0  2  0  0  0  0  0  0
  189.2100  177.6140  147.1410 O   0  0  0  0  0  0  0  0  0  0  0  0
  188.2190  176.6300  146.5840 S   0  0  0  0  0  0  0  0  0  0  0  0
  185.7320  177.8340  146.4360 C   0  0  0  0  0  0  0  0  0  0  0  0
  188.0620  176.8450  144.8800 N   0  0  0  0  0  0  0  0  0  0  0  0
  190.0620  174.0190  139.8840 C   0  0  0  0  0  1  0  0  0  0  0  0
  188.2900  176.8250  142.6700 C   0  0  0  0  0  0  0  0  0  0  0  0
  185.8800  178.0200  145.1160 C   0  0  0  0  0  3  0  0  0  0  0  0
  186.6030  176.9320  147.2810 C   0  0  0  0  0  2  0  0  0  0  0  0
  189.5190  174.3740  141.2550 C   0  0  1  0  0  3  0  0  0  0  0  0
  190.1110  175.5880  143.9860 C   0  0  2  0  0  3  0  0  0  0  0  0
  186.9890  177.0220  140.8130 C   0  0  0  0  0  0  0  0  0  0  0  0
  184.5430  178.4400  147.0890 C   0  0  0  0  0  1  0  0  0  0  0  0
  188.1900  174.9530  141.1220 N   0  0  0  0  0  2  0  0  0  0  0  0
  191.1220  176.2830  144.9000 C   0  0  0  0  0  2  0  0  0  0  0  0
  191.1180  173.3480  144.6400 C   0  0  0  0  0  2  0  0  0  0  0  0
  192.0600  174.0780  145.5890 C   0  0  0  0  0  2  0  0  0  0  0  0
  189.4560  173.1180  142.1140 C   0  0  0  0  0  2  0  0  0  0  0  0
  187.1700  177.5030  142.9750 C   0  0  0  0  0  0  0  0  0  0  0  0
  188.3080  176.4020  141.2320 C   0  0  2  0  0  3  0  0  0  0  0  0
  187.0030  177.4800  144.3380 C   0  0  0  0  0  0  0  0  0  0  0  0
  184.8570  177.8790  141.9590 C   0  0  0  0  0  1  0  0  0  0  0  0
  188.8610  176.4150  143.8630 C   0  0  0  0  0  0  0  0  0  0  0  0
  1  6  1  6  0  0  0
  1 21  1  0  0  0  0
  3 17  2  0  0  0  0
  4 22  1  0  0  0  0
  5 27  1  0  0  0  0
  5 24  1  0  0  0  0
  8  2  2  0  0  0  0
  8  7  2  0  0  0  0
  8 14  1  0  0  0  0
  9 18  1  0  0  0  0
  9 14  1  0  0  0  0
 10  8  1  0  0  0  0
 12 24  1  0  0  0  0
 12 28  2  0  0  0  0
 13  9  2  0  0  0  0
 15 11  1  6  0  0  0
 15 23  1  0  0  0  0
 16  1  1  0  0  0  0
 16 20  1  1  0  0  0
 17  5  1  0  0  0  0
 19 25  1  0  0  0  0
 19 15  1  0  0  0  0
 20  4  1  0  0  0  0
 21 22  1  0  0  0  0
 23  6  1  0  0  0  0
 24 26  2  0  0  0  0
 25 17  1  6  0  0  0
 25 12  1  0  0  0  0
 26 10  1  0  0  0  0
 26 13  1  0  0  0  0
 28 16  1  0  0  0  0
 28 10  1  0  0  0  0
M  END
>  <MODEL>
2

>  <REMARK>
 VINA RESULT:      -8.3      1.367      5.101
  Name = 
  0 active torsions:
  status: ('A' for Active; 'I' for Inactive)
                            x       y       z     vdW  Elec       q    Type
                         _______ _______ _______ _____ _____    ______ ____

>  <TORSDO>
F 0

$$$$
=
 OpenBabel11112417423D

 28 32  0  0  1  0  0  0  0  0999 V2000
  185.8760  177.1620  144.9120 C   0  0  2  0  0  3  0  0  0  0  0  0
  186.3780  175.3680  142.6250 O   0  0  0  0  0  0  0  0  0  0  0  0
  191.3190  176.9980  148.3850 O   0  0  0  0  0  0  0  0  0  0  0  0
  185.6860  179.4900  143.1210 C   0  0  0  0  0  2  0  0  0  0  0  0
  191.2210  176.0540  146.2190 N   0  0  0  0  0  0  0  0  0  0  0  0
  185.9890  176.5350  146.3050 C   0  0  0  0  0  2  0  0  0  0  0  0
  188.0490  176.3790  141.1200 O   0  0  0  0  0  0  0  0  0  0  0  0
  187.8430  175.4980  142.3200 S   0  0  0  0  0  0  0  0  0  0  0  0
  189.9370  173.6980  142.4930 C   0  0  0  0  0  0  0  0  0  0  0  0
  188.7040  176.1290  143.6750 N   0  0  0  0  0  0  0  0  0  0  0  0
  187.3220  179.2440  148.7080 C   0  0  0  0  0  1  0  0  0  0  0  0
  189.3920  177.2470  145.4680 C   0  0  0  0  0  0  0  0  0  0  0  0
  190.5080  174.4270  143.4630 C   0  0  0  0  0  3  0  0  0  0  0  0
  188.5160  173.8740  142.0080 C   0  0  0  0  0  2  0  0  0  0  0  0
  187.3480  178.2880  147.5320 C   0  0  1  0  0  3  0  0  0  0  0  0
  187.1250  177.9700  144.5090 C   0  0  2  0  0  3  0  0  0  0  0  0
  190.7710  176.9400  147.2520 C   0  0  0  0  0  0  0  0  0  0  0  0
  190.7020  172.5420  141.9570 C   0  0  0  0  0  1  0  0  0  0  0  0
  188.4330  177.3320  147.7000 N   0  0  0  0  0  2  0  0  0  0  0  0
  186.9530  178.6460  143.1480 C   0  0  0  0  0  2  0  0  0  0  0  0
  184.6010  178.0040  144.8030 C   0  0  0  0  0  2  0  0  0  0  0  0
  184.4740  178.6150  143.4130 C   0  0  0  0  0  2  0  0  0  0  0  0
  186.0160  177.5540  147.4470 C   0  0  0  0  0  2  0  0  0  0  0  0
  190.3140  176.3150  145.1690 C   0  0  0  0  0  0  0  0  0  0  0  0
  189.5530  177.7570  146.8680 C   0  0  2  0  0  3  0  0  0  0  0  0
  189.8710  175.5940  144.0880 C   0  0  0  0  0  0  0  0  0  0  0  0
  191.9590  174.8200  146.4250 C   0  0  0  0  0  1  0  0  0  0  0  0
  188.3800  177.1420  144.5280 C   0  0  0  0  0  0  0  0  0  0  0  0
  1 21  1  1  0  0  0
  1  6  1  0  0  0  0
  4 20  1  0  0  0  0
  4 22  1  0  0  0  0
  5 27  1  0  0  0  0
  5 17  1  0  0  0  0
  6 23  1  0  0  0  0
  7  8  2  0  0  0  0
  8  2  2  0  0  0  0
  8 10  1  0  0  0  0
  9 13  2  0  0  0  0
 10 26  1  0  0  0  0
 10 28  1  0  0  0  0
 13 26  1  0  0  0  0
 14  8  1  0  0  0  0
 14  9  1  0  0  0  0
 15 19  1  0  0  0  0
 15 11  1  1  0  0  0
 16 20  1  6  0  0  0
 16 28  1  0  0  0  0
 16  1  1  0  0  0  0
 17  3  2  0  0  0  0
 18  9  1  0  0  0  0
 22 21  1  0  0  0  0
 23 15  1  0  0  0  0
 24 12  1  0  0  0  0
 24  5  1  0  0  0  0
 25 12  1  6  0  0  0
 25 17  1  0  0  0  0
 25 19  1  0  0  0  0
 26 24  2  0  0  0  0
 28 12  2  0  0  0  0
M  END
>  <MODEL>
3

>  <REMARK>
 VINA RESULT:      -8.2      2.101      4.894
  Name = 
  0 active torsions:
  status: ('A' for Active; 'I' for Inactive)
                            x       y       z     vdW  Elec       q    Type
                         _______ _______ _______ _____ _____    ______ ____

>  <TORSDO>
F 0

$$$$
=
 OpenBabel11112417423D

 28 32  0  0  1  0  0  0  0  0999 V2000
  191.1390  175.4410  144.0350 C   0  0  2  0  0  3  0  0  0  0  0  0
  189.7370  175.4530  141.4400 O   0  0  0  0  0  0  0  0  0  0  0  0
  187.2290  178.6470  148.0550 O   0  0  0  0  0  0  0  0  0  0  0  0
  190.8880  172.5150  144.2250 C   0  0  0  0  0  2  0  0  0  0  0  0
  186.5000  177.9890  145.9040 N   0  0  0  0  0  0  0  0  0  0  0  0
  191.4620  176.8120  144.6380 C   0  0  0  0  0  2  0  0  0  0  0  0
  187.7370  174.0160  141.5630 O   0  0  0  0  0  0  0  0  0  0  0  0
  188.2710  175.4050  141.7690 S   0  0  0  0  0  0  0  0  0  0  0  0
  186.2270  177.2290  141.3840 C   0  0  0  0  0  0  0  0  0  0  0  0
  187.9840  175.9190  143.3900 N   0  0  0  0  0  0  0  0  0  0  0  0
  191.2610  176.4810  148.4780 C   0  0  0  0  0  1  0  0  0  0  0  0
  188.0480  176.3070  145.5770 C   0  0  0  0  0  0  0  0  0  0  0  0
  186.0860  177.3790  142.7090 C   0  0  0  0  0  3  0  0  0  0  0  0
  187.4030  176.5550  140.7150 C   0  0  0  0  0  2  0  0  0  0  0  0
  190.7540  176.4730  147.0490 C   0  0  1  0  0  3  0  0  0  0  0  0
  189.8970  174.7810  144.6650 C   0  0  2  0  0  3  0  0  0  0  0  0
  187.3470  177.8890  147.0560 C   0  0  0  0  0  0  0  0  0  0  0  0
  185.2340  177.8990  140.5040 C   0  0  0  0  0  1  0  0  0  0  0  0
  189.7200  177.4860  146.8900 N   0  0  0  0  0  2  0  0  0  0  0  0
  189.6440  173.3840  144.0960 C   0  0  0  0  0  2  0  0  0  0  0  0
  192.3610  174.5210  144.1030 C   0  0  0  0  0  2  0  0  0  0  0  0
  192.0510  173.1630  143.4870 C   0  0  0  0  0  2  0  0  0  0  0  0
  191.9120  176.7580  146.1010 C   0  0  0  0  0  2  0  0  0  0  0  0
  187.0070  176.9810  145.0560 C   0  0  0  0  0  0  0  0  0  0  0  0
  188.4210  176.8260  146.9330 C   0  0  2  0  0  3  0  0  0  0  0  0
  186.9910  176.7780  143.6980 C   0  0  0  0  0  0  0  0  0  0  0  0
  185.7800  179.1790  145.4840 C   0  0  0  0  0  1  0  0  0  0  0  0
  188.6620  175.6300  144.5370 C   0  0  0  0  0  0  0  0  0  0  0  0
  1 21  1  1  0  0  0
  1  6  1  0  0  0  0
  1 16  1  0  0  0  0
  2  8  2  0  0  0  0
  5 17  1  0  0  0  0
  6 23  1  0  0  0  0
  7  8  2  0  0  0  0
  8 10  1  0  0  0  0
  9 13  2  0  0  0  0
 10 26  1  0  0  0  0
 10 28  1  0  0  0  0
 13 26  1  0  0  0  0
 14  9  1  0  0  0  0
 14  8  1  0  0  0  0
 15 11  1  1  0  0  0
 16 20  1  6  0  0  0
 17  3  2  0  0  0  0
 18  9  1  0  0  0  0
 19 25  1  0  0  0  0
 19 15  1  0  0  0  0
 20  4  1  0  0  0  0
 22 21  1  0  0  0  0
 22  4  1  0  0  0  0
 23 15  1  0  0  0  0
 24 12  1  0  0  0  0
 24  5  1  0  0  0  0
 25 12  1  6  0  0  0
 25 17  1  0  0  0  0
 26 24  2  0  0  0  0
 27  5  1  0  0  0  0
 28 16  1  0  0  0  0
 28 12  2  0  0  0  0
M  END
>  <MODEL>
4

>  <REMARK>
 VINA RESULT:      -8.0      2.014      6.545
  Name = 
  0 active torsions:
  status: ('A' for Active; 'I' for Inactive)
                            x       y       z     vdW  Elec       q    Type
                         _______ _______ _______ _____ _____    ______ ____

>  <TORSDO>
F 0

$$$$
=
 OpenBabel11112417423D

 28 32  0  0  1  0  0  0  0  0999 V2000
  188.4140  175.7390  145.5440 C   0  0  2  0  0  3  0  0  0  0  0  0
  187.6950  174.6020  142.9190 O   0  0  0  0  0  0  0  0  0  0  0  0
  194.8670  176.0260  145.5240 O   0  0  0  0  0  0  0  0  0  0  0  0
  187.1160  178.2910  144.8620 C   0  0  0  0  0  2  0  0  0  0  0  0
  193.6580  175.5480  143.5490 N   0  0  0  0  0  0  0  0  0  0  0  0
  189.3160  174.8770  146.4330 C   0  0  0  0  0  2  0  0  0  0  0  0
  188.1910  176.2320  141.1380 O   0  0  0  0  0  0  0  0  0  0  0  0
  188.7390  175.1000  141.9610 S   0  0  0  0  0  0  0  0  0  0  0  0
  190.6980  173.7910  140.5110 C   0  0  0  0  0  0  0  0  0  0  0  0
  190.1590  175.6080  142.7990 N   0  0  0  0  0  0  0  0  0  0  0  0
  191.5660  177.2550  148.4770 C   0  0  0  0  0  1  0  0  0  0  0  0
  191.6420  176.4540  144.2200 C   0  0  0  0  0  0  0  0  0  0  0  0
  191.6580  174.4080  141.2140 C   0  0  0  0  0  3  0  0  0  0  0  0
  189.2360  173.7560  140.8950 C   0  0  0  0  0  2  0  0  0  0  0  0
  191.0060  176.5890  147.2360 C   0  0  1  0  0  3  0  0  0  0  0  0
  189.1790  176.8590  144.8120 C   0  0  2  0  0  3  0  0  0  0  0  0
  193.7920  176.0870  144.8710 C   0  0  0  0  0  0  0  0  0  0  0  0
  191.1170  172.9580  139.3530 C   0  0  0  0  0  1  0  0  0  0  0  0
  192.0660  175.8710  146.5430 N   0  0  0  0  0  2  0  0  0  0  0  0
  188.2430  177.7480  143.9930 C   0  0  0  0  0  2  0  0  0  0  0  0
  187.2370  176.2950  146.3510 C   0  0  0  0  0  2  0  0  0  0  0  0
  186.3260  177.1370  145.4670 C   0  0  0  0  0  2  0  0  0  0  0  0
  189.9000  175.6220  147.6380 C   0  0  0  0  0  2  0  0  0  0  0  0
  192.3080  175.8200  143.2380 C   0  0  0  0  0  0  0  0  0  0  0  0
  192.5120  176.6870  145.4180 C   0  0  2  0  0  3  0  0  0  0  0  0
  191.3930  175.2600  142.3820 C   0  0  0  0  0  0  0  0  0  0  0  0
  194.4680  174.4840  142.9830 C   0  0  0  0  0  1  0  0  0  0  0  0
  190.2900  176.3310  143.9470 C   0  0  0  0  0  0  0  0  0  0  0  0
  1 21  1  1  0  0  0
  1  6  1  0  0  0  0
  4 22  1  0  0  0  0
  5 17  1  0  0  0  0
  6 23  1  0  0  0  0
  7  8  2  0  0  0  0
  8 10  1  0  0  0  0
  8  2  2  0  0  0  0
  9 14  1  0  0  0  0
  9 13  2  0  0  0  0
 10 28  1  0  0  0  0
 13 26  1  0  0  0  0
 14  8  1  0  0  0  0
 15 23  1  0  0  0  0
 15 11  1  1  0  0  0
 16 20  1  6  0  0  0
 16  1  1  0  0  0  0
 17 25  1  0  0  0  0
 17  3  2  0  0  0  0
 18  9  1  0  0  0  0
 19 15  1  0  0  0  0
 20  4  1  0  0  0  0
 22 21  1  0  0  0  0
 24  5  1  0  0  0  0
 24 12  1  0  0  0  0
 25 12  1  6  0  0  0
 25 19  1  0  0  0  0
 26 10  1  0  0  0  0
 26 24  2  0  0  0  0
 27  5  1  0  0  0  0
 28 12  2  0  0  0  0
 28 16  1  0  0  0  0
M  END
>  <MODEL>
5

>  <REMARK>
 VINA RESULT:      -7.8      2.642      5.457
  Name = 
  0 active torsions:
  status: ('A' for Active; 'I' for Inactive)
                            x       y       z     vdW  Elec       q    Type
                         _______ _______ _______ _____ _____    ______ ____

>  <TORSDO>
F 0

$$$$
=
 OpenBabel11112417423D

 28 32  0  0  1  0  0  0  0  0999 V2000
  189.7470  176.0210  144.0600 C   0  0  2  0  0  3  0  0  0  0  0  0
  192.1450  176.8180  145.5810 O   0  0  0  0  0  0  0  0  0  0  0  0
  191.0610  170.0900  141.8660 O   0  0  0  0  0  0  0  0  0  0  0  0
  188.1140  176.0410  146.5090 C   0  0  0  0  0  2  0  0  0  0  0  0
  192.4450  171.1340  143.4740 N   0  0  0  0  0  0  0  0  0  0  0  0
  189.9620  175.6790  142.5820 C   0  0  0  0  0  2  0  0  0  0  0  0
  192.3160  175.4710  147.6380 O   0  0  0  0  0  0  0  0  0  0  0  0
  192.6840  175.5520  146.1830 S   0  0  0  0  0  0  0  0  0  0  0  0
  195.0350  174.1560  145.7630 C   0  0  0  0  0  0  0  0  0  0  0  0
  192.0940  174.1660  145.3430 N   0  0  0  0  0  0  0  0  0  0  0  0
  187.4410  172.9140  141.6380 C   0  0  0  0  0  1  0  0  0  0  0  0
  190.8880  172.6530  144.2500 C   0  0  0  0  0  0  0  0  0  0  0  0
  194.3510  173.1210  145.2540 C   0  0  0  0  0  3  0  0  0  0  0  0
  194.4600  175.5330  146.0000 C   0  0  0  0  0  2  0  0  0  0  0  0
  188.6140  173.5430  142.3640 C   0  0  1  0  0  3  0  0  0  0  0  0
  189.6320  174.7740  144.9580 C   0  0  2  0  0  3  0  0  0  0  0  0
  191.2080  170.9510  142.7720 C   0  0  0  0  0  0  0  0  0  0  0  0
  196.4960  173.9820  145.9710 C   0  0  0  0  0  1  0  0  0  0  0  0
  189.8310  172.8020  142.0650 N   0  0  0  0  0  2  0  0  0  0  0  0
  189.3420  175.1450  146.4140 C   0  0  0  0  0  2  0  0  0  0  0  0
  188.5390  176.9480  144.2260 C   0  0  0  0  0  2  0  0  0  0  0  0
  188.3320  177.3080  145.6920 C   0  0  0  0  0  2  0  0  0  0  0  0
  188.7640  174.9920  141.9200 C   0  0  0  0  0  2  0  0  0  0  0  0
  192.1490  172.1960  144.3550 C   0  0  0  0  0  0  0  0  0  0  0  0
  190.1200  171.9210  143.1910 C   0  0  2  0  0  3  0  0  0  0  0  0
  192.9060  173.1490  144.9920 C   0  0  0  0  0  0  0  0  0  0  0  0
  193.7610  170.7780  142.9740 C   0  0  0  0  0  1  0  0  0  0  0  0
  190.8430  173.8880  144.8760 C   0  0  0  0  0  0  0  0  0  0  0  0
  1  6  1  6  0  0  0
  1 21  1  0  0  0  0
  1 16  1  0  0  0  0
  2  8  2  0  0  0  0
  3 17  2  0  0  0  0
  5 24  1  0  0  0  0
  8  7  2  0  0  0  0
  9 18  1  0  0  0  0
  9 14  1  0  0  0  0
 10  8  1  0  0  0  0
 12 24  1  0  0  0  0
 12 28  2  0  0  0  0
 13  9  2  0  0  0  0
 14  8  1  0  0  0  0
 15 11  1  6  0  0  0
 16 20  1  1  0  0  0
 17 25  1  0  0  0  0
 17  5  1  0  0  0  0
 19 15  1  0  0  0  0
 20  4  1  0  0  0  0
 21 22  1  0  0  0  0
 22  4  1  0  0  0  0
 23 15  1  0  0  0  0
 23  6  1  0  0  0  0
 24 26  2  0  0  0  0
 25 19  1  6  0  0  0
 25 12  1  0  0  0  0
 26 13  1  0  0  0  0
 26 10  1  0  0  0  0
 27  5  1  0  0  0  0
 28 16  1  0  0  0  0
 28 10  1  0  0  0  0
M  END
>  <MODEL>
6

>  <REMARK>
 VINA RESULT:      -7.6      2.956      4.262
  Name = 
  0 active torsions:
  status: ('A' for Active; 'I' for Inactive)
                            x       y       z     vdW  Elec       q    Type
                         _______ _______ _______ _____ _____    ______ ____

>  <TORSDO>
F 0

$$$$
=
 OpenBabel11112417423D

 28 32  0  0  1  0  0  0  0  0999 V2000
  191.1130  175.4550  142.4540 C   0  0  2  0  0  3  0  0  0  0  0  0
  188.5380  176.5870  141.5680 O   0  0  0  0  0  0  0  0  0  0  0  0
  191.5900  177.0800  148.6870 O   0  0  0  0  0  0  0  0  0  0  0  0
  190.1270  172.7160  142.0180 C   0  0  0  0  0  2  0  0  0  0  0  0
  189.5690  177.3770  147.4970 N   0  0  0  0  0  0  0  0  0  0  0  0
  192.1380  176.4500  143.0070 C   0  0  0  0  0  2  0  0  0  0  0  0
  186.6770  175.3620  142.6240 O   0  0  0  0  0  0  0  0  0  0  0  0
  187.6290  176.5170  142.7620 S   0  0  0  0  0  0  0  0  0  0  0  0
  186.4520  178.4820  144.3120 C   0  0  0  0  0  0  0  0  0  0  0  0
  188.5360  176.3670  144.2220 N   0  0  0  0  0  0  0  0  0  0  0  0
  194.1600  174.6460  145.7540 C   0  0  0  0  0  1  0  0  0  0  0  0
  190.0010  175.8560  145.8130 C   0  0  0  0  0  0  0  0  0  0  0  0
  187.1790  178.1060  145.3740 C   0  0  0  0  0  3  0  0  0  0  0  0
  186.7190  178.0470  142.8900 C   0  0  0  0  0  2  0  0  0  0  0  0
  192.9350  175.2380  145.0860 C   0  0  1  0  0  3  0  0  0  0  0  0
  190.3580  174.6890  143.5570 C   0  0  2  0  0  3  0  0  0  0  0  0
  190.8500  176.7710  147.7160 C   0  0  0  0  0  0  0  0  0  0  0  0
  185.4020  179.5130  144.5240 C   0  0  0  0  0  1  0  0  0  0  0  0
  192.3890  176.3020  145.9180 N   0  0  0  0  0  2  0  0  0  0  0  0
  189.3970  173.6510  142.9750 C   0  0  0  0  0  2  0  0  0  0  0  0
  191.7750  174.5000  141.4560 C   0  0  0  0  0  2  0  0  0  0  0  0
  190.7560  173.5210  140.8880 C   0  0  0  0  0  2  0  0  0  0  0  0
  193.3220  175.7920  143.7220 C   0  0  0  0  0  2  0  0  0  0  0  0
  189.1290  176.7520  146.3090 C   0  0  0  0  0  0  0  0  0  0  0  0
  191.2430  175.7700  146.6470 C   0  0  2  0  0  3  0  0  0  0  0  0
  188.2490  177.1020  145.3150 C   0  0  0  0  0  0  0  0  0  0  0  0
  189.1570  178.6830  147.9800 C   0  0  0  0  0  1  0  0  0  0  0  0
  189.6300  175.6030  144.5030 C   0  0  0  0  0  0  0  0  0  0  0  0
  1 21  1  6  0  0  0
  1  6  1  0  0  0  0
  1 16  1  0  0  0  0
  2  8  2  0  0  0  0
  4 20  1  0  0  0  0
  5 17  1  0  0  0  0
  5 27  1  0  0  0  0
  6 23  1  0  0  0  0
  7  8  2  0  0  0  0
  8 14  1  0  0  0  0
  8 10  1  0  0  0  0
  9 18  1  0  0  0  0
  9 13  2  0  0  0  0
 10 28  1  0  0  0  0
 10 26  1  0  0  0  0
 12 24  1  0  0  0  0
 14  9  1  0  0  0  0
 15 11  1  1  0  0  0
 15 19  1  0  0  0  0
 16 20  1  6  0  0  0
 16 28  1  0  0  0  0
 17  3  2  0  0  0  0
 19 25  1  0  0  0  0
 22 21  1  0  0  0  0
 22  4  1  0  0  0  0
 23 15  1  0  0  0  0
 24  5  1  0  0  0  0
 25 12  1  6  0  0  0
 25 17  1  0  0  0  0
 26 13  1  0  0  0  0
 26 24  2  0  0  0  0
 28 12  2  0  0  0  0
M  END
>  <MODEL>
7

>  <REMARK>
 VINA RESULT:      -7.5      2.221      6.667
  Name = 
  0 active torsions:
  status: ('A' for Active; 'I' for Inactive)
                            x       y       z     vdW  Elec       q    Type
                         _______ _______ _______ _____ _____    ______ ____

>  <TORSDO>
F 0

$$$$
=
 OpenBabel11112417423D

 28 32  0  0  1  0  0  0  0  0999 V2000
  190.1850  176.7610  144.8170 C   0  0  2  0  0  3  0  0  0  0  0  0
  193.0110  175.9480  145.0540 O   0  0  0  0  0  0  0  0  0  0  0  0
  188.1740  174.1900  139.2440 O   0  0  0  0  0  0  0  0  0  0  0  0
  189.4650  175.1650  147.1830 C   0  0  0  0  0  2  0  0  0  0  0  0
  190.2560  173.5870  140.1890 N   0  0  0  0  0  0  0  0  0  0  0  0
  189.8160  177.5800  143.5760 C   0  0  0  0  0  2  0  0  0  0  0  0
  193.1510  173.5210  145.4590 O   0  0  0  0  0  0  0  0  0  0  0  0
  193.1000  174.5940  144.4090 S   0  0  0  0  0  0  0  0  0  0  0  0
  194.4100  173.7070  142.1400 C   0  0  0  0  0  0  0  0  0  0  0  0
  191.7670  174.3250  143.3480 N   0  0  0  0  0  0  0  0  0  0  0  0
  186.2030  176.6500  142.5890 C   0  0  0  0  0  1  0  0  0  0  0  0
  189.7810  174.2170  142.3590 C   0  0  0  0  0  0  0  0  0  0  0  0
  193.2390  173.4450  141.5430 C   0  0  0  0  0  3  0  0  0  0  0  0
  194.5700  174.5300  143.3980 C   0  0  0  0  0  2  0  0  0  0  0  0
  187.6820  176.4280  142.8370 C   0  0  1  0  0  3  0  0  0  0  0  0
  189.8020  175.2740  144.6960 C   0  0  2  0  0  3  0  0  0  0  0  0
  188.9200  174.1010  140.2550 C   0  0  0  0  0  0  0  0  0  0  0  0
  195.6520  173.2860  141.4400 C   0  0  0  0  0  1  0  0  0  0  0  0
  188.3310  176.0150  141.6000 N   0  0  0  0  0  2  0  0  0  0  0  0
  190.1140  174.4990  145.9770 C   0  0  0  0  0  2  0  0  0  0  0  0
  189.5890  177.3960  146.0770 C   0  0  0  0  0  2  0  0  0  0  0  0
  189.9700  176.5960  147.3170 C   0  0  0  0  0  2  0  0  0  0  0  0
  188.3080  177.7190  143.3470 C   0  0  0  0  0  2  0  0  0  0  0  0
  190.6990  173.6990  141.5240 C   0  0  0  0  0  0  0  0  0  0  0  0
  188.5140  174.5690  141.6390 C   0  0  2  0  0  3  0  0  0  0  0  0
  191.9340  173.8040  142.1150 C   0  0  0  0  0  0  0  0  0  0  0  0
  191.0990  173.5710  139.0050 C   0  0  0  0  0  1  0  0  0  0  0  0
  190.4430  174.6050  143.5110 C   0  0  0  0  0  0  0  0  0  0  0  0
  1  6  1  6  0  0  0
  1 21  1  0  0  0  0
  3 17  2  0  0  0  0
  4 22  1  0  0  0  0
  5 17  1  0  0  0  0
  5 24  1  0  0  0  0
  8  2  2  0  0  0  0
  8  7  2  0  0  0  0
  9 14  1  0  0  0  0
 10 28  1  0  0  0  0
 10  8  1  0  0  0  0
 12 28  2  0  0  0  0
 13 26  1  0  0  0  0
 13  9  2  0  0  0  0
 14  8  1  0  0  0  0
 15 11  1  6  0  0  0
 15 23  1  0  0  0  0
 16  1  1  0  0  0  0
 16 20  1  1  0  0  0
 18  9  1  0  0  0  0
 19 25  1  0  0  0  0
 19 15  1  0  0  0  0
 20  4  1  0  0  0  0
 21 22  1  0  0  0  0
 23  6  1  0  0  0  0
 24 26  2  0  0  0  0
 24 12  1  0  0  0  0
 25 17  1  6  0  0  0
 25 12  1  0  0  0  0
 26 10  1  0  0  0  0
 27  5  1  0  0  0  0
 28 16  1  0  0  0  0
M  END
>  <MODEL>
8

>  <REMARK>
 VINA RESULT:      -7.5      2.664      3.707
  Name = 
  0 active torsions:
  status: ('A' for Active; 'I' for Inactive)
                            x       y       z     vdW  Elec       q    Type
                         _______ _______ _______ _____ _____    ______ ____

>  <TORSDO>
F 0

$$$$
=
 OpenBabel11112417423D

 28 32  0  0  1  0  0  0  0  0999 V2000
  191.7270  174.9130  142.2060 C   0  0  2  0  0  3  0  0  0  0  0  0
  189.0600  175.3400  141.0210 O   0  0  0  0  0  0  0  0  0  0  0  0
  191.1910  176.9830  148.3020 O   0  0  0  0  0  0  0  0  0  0  0  0
  191.4530  171.9970  141.9200 C   0  0  0  0  0  2  0  0  0  0  0  0
  189.2850  176.7140  146.9290 N   0  0  0  0  0  0  0  0  0  0  0  0
  192.4320  176.1570  142.7580 C   0  0  0  0  0  2  0  0  0  0  0  0
  187.4410  173.7730  142.0190 O   0  0  0  0  0  0  0  0  0  0  0  0
  188.0790  175.1280  142.1390 S   0  0  0  0  0  0  0  0  0  0  0  0
  186.3280  176.8450  143.4190 C   0  0  0  0  0  0  0  0  0  0  0  0
  188.8460  175.2890  143.6760 N   0  0  0  0  0  0  0  0  0  0  0  0
  194.5350  175.0600  145.8020 C   0  0  0  0  0  1  0  0  0  0  0  0
  190.2240  175.2410  145.4180 C   0  0  0  0  0  0  0  0  0  0  0  0
  187.0130  176.7200  144.5640 C   0  0  0  0  0  3  0  0  0  0  0  0
  186.8290  176.4000  142.0640 C   0  0  0  0  0  2  0  0  0  0  0  0
  193.2790  175.3000  144.9890 C   0  0  1  0  0  3  0  0  0  0  0  0
  191.0650  174.0580  143.3040 C   0  0  2  0  0  3  0  0  0  0  0  0
  190.6430  176.4480  147.3020 C   0  0  0  0  0  0  0  0  0  0  0  0
  185.0520  177.6050  143.4570 C   0  0  0  0  0  1  0  0  0  0  0  0
  192.4200  176.2510  145.6820 N   0  0  0  0  0  2  0  0  0  0  0  0
  190.4350  172.7860  142.7330 C   0  0  0  0  0  2  0  0  0  0  0  0
  192.6890  174.0860  141.3490 C   0  0  0  0  0  2  0  0  0  0  0  0
  191.9870  172.8580  140.7820 C   0  0  0  0  0  2  0  0  0  0  0  0
  193.6600  175.8470  143.6190 C   0  0  0  0  0  2  0  0  0  0  0  0
  189.1230  175.9310  145.7660 C   0  0  0  0  0  0  0  0  0  0  0  0
  191.3630  175.5060  146.3560 C   0  0  2  0  0  3  0  0  0  0  0  0
  188.2890  175.9990  144.6770 C   0  0  0  0  0  0  0  0  0  0  0  0
  188.5340  177.9110  147.2670 C   0  0  0  0  0  1  0  0  0  0  0  0
  190.0540  174.8270  144.1080 C   0  0  0  0  0  0  0  0  0  0  0  0
  1 21  1  1  0  0  0
  1  6  1  0  0  0  0
  1 16  1  0  0  0  0
  2  8  2  0  0  0  0
  4 20  1  0  0  0  0
  5 27  1  0  0  0  0
  5 17  1  0  0  0  0
  6 23  1  0  0  0  0
  7  8  2  0  0  0  0
  8 10  1  0  0  0  0
  9 18  1  0  0  0  0
  9 13  2  0  0  0  0
 10 28  1  0  0  0  0
 10 26  1  0  0  0  0
 12 24  1  0  0  0  0
 13 26  1  0  0  0  0
 14  8  1  0  0  0  0
 14  9  1  0  0  0  0
 15 19  1  0  0  0  0
 15 11  1  1  0  0  0
 16 20  1  6  0  0  0
 16 28  1  0  0  0  0
 17  3  2  0  0  0  0
 19 25  1  0  0  0  0
 22 21  1  0  0  0  0
 22  4  1  0  0  0  0
 23 15  1  0  0  0  0
 24  5  1  0  0  0  0
 25 12  1  6  0  0  0
 25 17  1  0  0  0  0
 26 24  2  0  0  0  0
 28 12  2  0  0  0  0
M  END
>  <MODEL>
9

>  <REMARK>
 VINA RESULT:      -7.1      2.188      6.856
  Name = 
  0 active torsions:
  status: ('A' for Active; 'I' for Inactive)
                            x       y       z     vdW  Elec       q    Type
                         _______ _______ _______ _____ _____    ______ ____

>  <TORSDO>
F 0

$$$$
