=
 OpenBabel11112416423D

 32 37  0  0  1  0  0  0  0  0999 V2000
  192.8430  175.9570  143.6570 C   0  0  0  0  0  2  0  0  0  0  0  0
  187.9150  177.6410  143.7190 C   0  0  0  0  0  0  0  0  0  0  0  0
  185.8460  178.0400  148.2080 C   0  0  0  0  0  3  0  0  0  0  0  0
  184.6260  178.3750  147.6220 C   0  0  0  0  0  3  0  0  0  0  0  0
  186.4270  177.6550  141.7140 C   0  0  0  0  0  0  0  0  0  0  0  0
  185.0750  177.7770  141.1740 C   0  0  0  0  0  0  0  0  0  0  0  0
  190.4040  177.8660  143.6590 C   0  0  1  0  0  3  0  0  0  0  0  0
  189.3320  177.3660  145.8390 C   0  0  0  0  0  2  0  0  0  0  0  0
  182.7540  177.9980  141.3300 C   0  0  2  0  0  3  0  0  0  0  0  0
  191.7990  176.9340  145.6130 C   0  0  0  0  0  2  0  0  0  0  0  0
  186.9260  177.6700  147.4050 C   0  0  0  0  0  3  0  0  0  0  0  0
  187.9680  177.1510  145.1620 C   0  0  1  0  0  3  0  0  0  0  0  0
  186.8100  177.6480  146.0050 C   0  0  0  0  0  0  0  0  0  0  0  0
  185.3870  177.9160  143.9480 C   0  0  0  0  0  0  0  0  0  0  0  0
  183.1870  177.7890  139.8680 C   0  0  0  0  0  2  0  0  0  0  0  0
  191.7690  176.3020  142.6130 C   0  0  0  0  0  2  0  0  0  0  0  0
  190.4420  176.9460  144.8960 C   0  0  2  0  0  3  0  0  0  0  0  0
  184.6850  177.6310  139.9240 C   0  0  0  0  0  3  0  0  0  0  0  0
  191.4170  177.6660  142.6820 O   0  0  0  0  0  0  0  0  0  0  0  0
  192.9400  176.9930  144.6920 N   0  0  0  0  0  0  0  0  0  0  0  0
  184.4860  178.3320  146.2350 C   0  0  0  0  0  3  0  0  0  0  0  0
  185.5650  177.9640  145.4160 C   0  0  0  0  0  0  0  0  0  0  0  0
  184.1900  178.0430  143.4370 N   0  0  0  0  0  0  0  0  0  0  0  0
  189.0410  177.9000  143.0320 C   0  0  0  0  0  3  0  0  0  0  0  0
  187.4670  177.4320  140.8700 F   0  0  0  0  0  0  0  0  0  0  0  0
  182.0590  179.3390  141.4690 C   0  0  0  0  0  1  0  0  0  0  0  0
  186.5860  177.7330  143.0600 C   0  0  0  0  0  0  0  0  0  0  0  0
  184.0100  178.0190  142.0470 N   0  0  0  0  0  0  0  0  0  0  0  0
  194.1270  176.7030  145.4800 C   0  0  0  0  0  2  0  0  0  0  0  0
  195.0880  175.8380  144.6810 C   0  0  2  0  0  3  0  0  0  0  0  0
  195.7280  174.8190  145.5990 C   0  0  0  0  0  1  0  0  0  0  0  0
  196.0820  176.6360  144.1130 O   0  0  0  0  0  1  0  0  0  0  0  0
  1 20  1  0  0  0  0
  2 12  1  0  0  0  0
  4  3  1  0  0  0  0
  5 27  2  0  0  0  0
  6  5  1  0  0  0  0
  6 28  1  0  0  0  0
  7 24  1  6  0  0  0
  7 17  1  0  0  0  0
  9 26  1  6  0  0  0
  9 28  1  0  0  0  0
 11  3  2  0  0  0  0
 12  8  1  1  0  0  0
 12 13  1  0  0  0  0
 13 11  1  0  0  0  0
 14 22  1  0  0  0  0
 15 18  1  0  0  0  0
 15  9  1  0  0  0  0
 16 19  1  0  0  0  0
 16  1  1  0  0  0  0
 17 10  1  1  0  0  0
 17  8  1  0  0  0  0
 18  6  2  0  0  0  0
 19  7  1  0  0  0  0
 20 29  1  0  0  0  0
 20 10  1  0  0  0  0
 21  4  2  0  0  0  0
 22 13  2  0  0  0  0
 22 21  1  0  0  0  0
 23 14  2  0  0  0  0
 24  2  2  0  0  0  0
 25  5  1  0  0  0  0
 27  2  1  0  0  0  0
 27 14  1  0  0  0  0
 28 23  1  0  0  0  0
 30 29  1  0  0  0  0
 30 31  1  1  0  0  0
 32 30  1  0  0  0  0
M  END
>  <MODEL>
1

>  <REMARK>
 VINA RESULT:      -8.8      0.000      0.000
  Name = 
  2 active torsions:
  status: ('A' for Active; 'I' for Inactive)
    1  A    between atoms: N_20  and  C_29
    2  A    between atoms: C_29  and  C_30
                            x       y       z     vdW  Elec       q    Type
                         _______ _______ _______ _____ _____    ______ ____

>  <TORSDO>
F 2

$$$$
=
 OpenBabel11112416423D

 32 37  0  0  1  0  0  0  0  0999 V2000
  189.1550  172.2650  139.6550 C   0  0  0  0  0  2  0  0  0  0  0  0
  188.8210  175.5240  143.7040 C   0  0  0  0  0  0  0  0  0  0  0  0
  192.6260  175.3840  146.8810 C   0  0  0  0  0  3  0  0  0  0  0  0
  191.9670  176.2840  147.7190 C   0  0  0  0  0  3  0  0  0  0  0  0
  186.7010  176.6250  144.4280 C   0  0  0  0  0  0  0  0  0  0  0  0
  185.9790  177.3710  145.4570 C   0  0  0  0  0  0  0  0  0  0  0  0
  189.3550  174.8440  141.3580 C   0  0  1  0  0  3  0  0  0  0  0  0
  190.9370  174.1820  143.1510 C   0  0  0  0  0  2  0  0  0  0  0  0
  185.7300  178.3610  147.5590 C   0  0  2  0  0  3  0  0  0  0  0  0
  191.0750  172.9710  140.9510 C   0  0  0  0  0  2  0  0  0  0  0  0
  191.9810  174.8880  145.7480 C   0  0  0  0  0  3  0  0  0  0  0  0
  189.9650  174.6690  144.2390 C   0  0  1  0  0  3  0  0  0  0  0  0
  190.6770  175.2960  145.4220 C   0  0  0  0  0  0  0  0  0  0  0  0
  188.6150  176.6160  146.0020 C   0  0  0  0  0  0  0  0  0  0  0  0
  184.4130  178.4230  146.7640 C   0  0  0  0  0  2  0  0  0  0  0  0
  188.1130  173.2470  140.2130 C   0  0  0  0  0  2  0  0  0  0  0  0
  190.1530  173.6680  141.9590 C   0  0  2  0  0  3  0  0  0  0  0  0
  184.7110  177.7260  145.4610 C   0  0  0  0  0  3  0  0  0  0  0  0
  188.6010  174.5700  140.1850 O   0  0  0  0  0  0  0  0  0  0  0  0
  190.4920  172.8670  139.6080 N   0  0  0  0  0  0  0  0  0  0  0  0
  190.6610  176.6800  147.4240 C   0  0  0  0  0  3  0  0  0  0  0  0
  190.0030  176.1900  146.2850 C   0  0  0  0  0  0  0  0  0  0  0  0
  187.9540  177.3020  146.8970 N   0  0  0  0  0  0  0  0  0  0  0  0
  188.5200  175.5380  142.3940 C   0  0  0  0  0  3  0  0  0  0  0  0
  186.0640  176.2860  143.2770 F   0  0  0  0  0  0  0  0  0  0  0  0
  186.2030  179.7680  147.8710 C   0  0  0  0  0  1  0  0  0  0  0  0
  187.9850  176.2670  144.6830 C   0  0  0  0  0  0  0  0  0  0  0  0
  186.6440  177.7290  146.6340 N   0  0  0  0  0  0  0  0  0  0  0  0
  191.3440  171.9630  138.8530 C   0  0  0  0  0  2  0  0  0  0  0  0
  190.6490  171.5360  137.5710 C   0  0  2  0  0  3  0  0  0  0  0  0
  191.0450  170.1140  137.2360 C   0  0  0  0  0  1  0  0  0  0  0  0
  191.0270  172.3790  136.5250 O   0  0  0  0  0  1  0  0  0  0  0  0
  1 16  1  0  0  0  0
  2 12  1  0  0  0  0
  2 27  1  0  0  0  0
  3  4  1  0  0  0  0
  5 27  2  0  0  0  0
  5  6  1  0  0  0  0
  6 18  2  0  0  0  0
  6 28  1  0  0  0  0
  7 17  1  0  0  0  0
  7 24  1  1  0  0  0
  9 26  1  6  0  0  0
 11  3  2  0  0  0  0
 12  8  1  6  0  0  0
 12 13  1  0  0  0  0
 13 11  1  0  0  0  0
 13 22  2  0  0  0  0
 14 22  1  0  0  0  0
 14 23  2  0  0  0  0
 15  9  1  0  0  0  0
 17 10  1  6  0  0  0
 17  8  1  0  0  0  0
 18 15  1  0  0  0  0
 19 16  1  0  0  0  0
 19  7  1  0  0  0  0
 20  1  1  0  0  0  0
 20 10  1  0  0  0  0
 21  4  2  0  0  0  0
 22 21  1  0  0  0  0
 24  2  2  0  0  0  0
 25  5  1  0  0  0  0
 27 14  1  0  0  0  0
 28 23  1  0  0  0  0
 28  9  1  0  0  0  0
 29 20  1  0  0  0  0
 30 31  1  6  0  0  0
 30 29  1  0  0  0  0
 32 30  1  0  0  0  0
M  END
>  <MODEL>
2

>  <REMARK>
 VINA RESULT:      -8.6      3.903      6.059
  Name = 
  2 active torsions:
  status: ('A' for Active; 'I' for Inactive)
    1  A    between atoms: N_20  and  C_29
    2  A    between atoms: C_29  and  C_30
                            x       y       z     vdW  Elec       q    Type
                         _______ _______ _______ _____ _____    ______ ____

>  <TORSDO>
F 2

$$$$
=
 OpenBabel11112416423D

 32 37  0  0  1  0  0  0  0  0999 V2000
  186.0990  179.0450  143.0150 C   0  0  0  0  0  2  0  0  0  0  0  0
  189.1090  174.9020  142.0650 C   0  0  0  0  0  0  0  0  0  0  0  0
  192.6290  173.9970  145.4380 C   0  0  0  0  0  3  0  0  0  0  0  0
  193.1260  172.9600  144.6500 C   0  0  0  0  0  3  0  0  0  0  0  0
  189.2780  173.7910  139.8360 C   0  0  0  0  0  0  0  0  0  0  0  0
  189.9920  172.8580  138.9660 C   0  0  0  0  0  0  0  0  0  0  0  0
  187.0930  176.1140  142.9140 C   0  0  1  0  0  3  0  0  0  0  0  0
  189.1650  176.2020  144.2760 C   0  0  0  0  0  2  0  0  0  0  0  0
  191.7250  171.3900  138.4200 C   0  0  2  0  0  3  0  0  0  0  0  0
  187.3810  177.9160  144.7320 C   0  0  0  0  0  2  0  0  0  0  0  0
  191.5960  174.8030  144.9590 C   0  0  0  0  0  3  0  0  0  0  0  0
  189.9730  175.5200  143.1590 C   0  0  1  0  0  3  0  0  0  0  0  0
  191.0280  174.5730  143.6940 C   0  0  0  0  0  0  0  0  0  0  0  0
  191.0100  173.2830  141.5340 C   0  0  0  0  0  0  0  0  0  0  0  0
  190.7960  171.6130  137.2140 C   0  0  0  0  0  2  0  0  0  0  0  0
  186.2630  178.0220  141.8800 C   0  0  0  0  0  2  0  0  0  0  0  0
  188.0640  177.0480  143.6660 C   0  0  2  0  0  3  0  0  0  0  0  0
  189.7590  172.5940  137.6970 C   0  0  0  0  0  3  0  0  0  0  0  0
  185.9520  176.7200  142.3240 O   0  0  0  0  0  0  0  0  0  0  0  0
  186.0530  178.3900  144.3270 N   0  0  0  0  0  0  0  0  0  0  0  0
  192.5930  172.7350  143.3800 C   0  0  0  0  0  3  0  0  0  0  0  0
  191.5500  173.5360  142.8880 C   0  0  0  0  0  0  0  0  0  0  0  0
  191.6170  172.4380  140.7430 N   0  0  0  0  0  0  0  0  0  0  0  0
  187.8130  175.2360  141.9330 C   0  0  0  0  0  3  0  0  0  0  0  0
  188.1880  174.4480  139.3620 F   0  0  0  0  0  0  0  0  0  0  0  0
  191.7180  169.9230  138.8040 C   0  0  0  0  0  1  0  0  0  0  0  0
  189.7620  173.9920  141.0880 C   0  0  0  0  0  0  0  0  0  0  0  0
  191.1050  172.1750  139.4640 N   0  0  0  0  0  0  0  0  0  0  0  0
  185.6580  179.3990  145.2960 C   0  0  0  0  0  2  0  0  0  0  0  0
  185.6050  178.7950  146.6900 C   0  0  2  0  0  3  0  0  0  0  0  0
  184.2040  178.2910  146.9640 C   0  0  0  0  0  1  0  0  0  0  0  0
  185.9410  179.7620  147.6380 O   0  0  0  0  0  1  0  0  0  0  0  0
  1 20  1  0  0  0  0
  2 12  1  0  0  0  0
  4  3  2  0  0  0  0
  5 27  2  0  0  0  0
  6 28  1  0  0  0  0
  6  5  1  0  0  0  0
  7 24  1  6  0  0  0
  7 17  1  0  0  0  0
  9 26  1  1  0  0  0
  9 28  1  0  0  0  0
 11  3  1  0  0  0  0
 12 13  1  0  0  0  0
 12  8  1  1  0  0  0
 13 11  2  0  0  0  0
 14 22  1  0  0  0  0
 15 18  1  0  0  0  0
 15  9  1  0  0  0  0
 16 19  1  0  0  0  0
 16  1  1  0  0  0  0
 17  8  1  1  0  0  0
 17 10  1  0  0  0  0
 18  6  2  0  0  0  0
 19  7  1  0  0  0  0
 20 10  1  0  0  0  0
 20 29  1  0  0  0  0
 21  4  1  0  0  0  0
 22 21  2  0  0  0  0
 22 13  1  0  0  0  0
 23 14  2  0  0  0  0
 24  2  2  0  0  0  0
 25  5  1  0  0  0  0
 27 14  1  0  0  0  0
 27  2  1  0  0  0  0
 28 23  1  0  0  0  0
 29 30  1  0  0  0  0
 30 31  1  1  0  0  0
 30 32  1  0  0  0  0
M  END
>  <MODEL>
3

>  <REMARK>
 VINA RESULT:      -7.9      4.106      7.831
  Name = 
  2 active torsions:
  status: ('A' for Active; 'I' for Inactive)
    1  A    between atoms: N_20  and  C_29
    2  A    between atoms: C_29  and  C_30
                            x       y       z     vdW  Elec       q    Type
                         _______ _______ _______ _____ _____    ______ ____

>  <TORSDO>
F 2

$$$$
=
 OpenBabel11112416423D

 32 37  0  0  1  0  0  0  0  0999 V2000
  186.5130  177.1130  146.5850 C   0  0  0  0  0  2  0  0  0  0  0  0
  190.8510  175.6120  144.1240 C   0  0  0  0  0  0  0  0  0  0  0  0
  190.1690  173.4550  139.7110 C   0  0  0  0  0  3  0  0  0  0  0  0
  191.5360  173.1930  139.6210 C   0  0  0  0  0  3  0  0  0  0  0  0
  193.0670  175.3590  145.2460 C   0  0  0  0  0  0  0  0  0  0  0  0
  194.4340  174.8460  145.1910 C   0  0  0  0  0  0  0  0  0  0  0  0
  189.0610  177.2090  144.8270 C   0  0  1  0  0  3  0  0  0  0  0  0
  188.5320  175.5880  143.0260 C   0  0  0  0  0  2  0  0  0  0  0  0
  196.2030  173.6600  144.2300 C   0  0  2  0  0  3  0  0  0  0  0  0
  186.6130  176.7140  144.1980 C   0  0  0  0  0  2  0  0  0  0  0  0
  189.6420  174.0110  140.8770 C   0  0  0  0  0  3  0  0  0  0  0  0
  189.8610  174.8460  143.2520 C   0  0  1  0  0  3  0  0  0  0  0  0
  190.4720  174.3330  141.9630 C   0  0  0  0  0  0  0  0  0  0  0  0
  192.7580  174.3300  143.0130 C   0  0  0  0  0  0  0  0  0  0  0  0
  196.5800  174.1650  145.6340 C   0  0  0  0  0  2  0  0  0  0  0  0
  188.0170  177.0740  146.8990 C   0  0  0  0  0  2  0  0  0  0  0  0
  188.0380  176.1630  144.3390 C   0  0  2  0  0  3  0  0  0  0  0  0
  195.3490  174.8730  146.1380 C   0  0  0  0  0  3  0  0  0  0  0  0
  188.7380  177.9090  146.0210 O   0  0  0  0  0  0  0  0  0  0  0  0
  186.2560  177.6700  145.2520 N   0  0  0  0  0  0  0  0  0  0  0  0
  192.3710  173.4820  140.7010 C   0  0  0  0  0  3  0  0  0  0  0  0
  191.8530  174.0440  141.8790 C   0  0  0  0  0  0  0  0  0  0  0  0
  193.9930  173.8990  142.9800 N   0  0  0  0  0  0  0  0  0  0  0  0
  190.4510  176.6460  144.8840 C   0  0  0  0  0  3  0  0  0  0  0  0
  192.6440  176.0190  146.3550 F   0  0  0  0  0  0  0  0  0  0  0  0
  197.1410  174.2630  143.2020 C   0  0  0  0  0  1  0  0  0  0  0  0
  192.2530  175.1220  144.1860 C   0  0  0  0  0  0  0  0  0  0  0  0
  194.8660  174.1790  144.0410 N   0  0  0  0  0  0  0  0  0  0  0  0
  184.8220  177.8890  145.1480 C   0  0  0  0  0  2  0  0  0  0  0  0
  184.5190  178.8410  144.0030 C   0  0  2  0  0  3  0  0  0  0  0  0
  185.2010  180.1680  144.2620 C   0  0  0  0  0  1  0  0  0  0  0  0
  183.1420  179.0410  143.9060 O   0  0  0  0  0  1  0  0  0  0  0  0
  1 16  1  0  0  0  0
  2 27  1  0  0  0  0
  2 24  2  0  0  0  0
  3 11  1  0  0  0  0
  4  3  2  0  0  0  0
  4 21  1  0  0  0  0
  5 25  1  0  0  0  0
  6  5  1  0  0  0  0
  6 18  2  0  0  0  0
  7 24  1  1  0  0  0
  7 19  1  0  0  0  0
  9 26  1  6  0  0  0
  9 15  1  0  0  0  0
 10 17  1  0  0  0  0
 10 20  1  0  0  0  0
 11 13  2  0  0  0  0
 12  8  1  6  0  0  0
 12  2  1  0  0  0  0
 13 12  1  0  0  0  0
 14 27  1  0  0  0  0
 15 18  1  0  0  0  0
 17  8  1  6  0  0  0
 17  7  1  0  0  0  0
 19 16  1  0  0  0  0
 20  1  1  0  0  0  0
 21 22  2  0  0  0  0
 22 13  1  0  0  0  0
 22 14  1  0  0  0  0
 23 14  2  0  0  0  0
 23 28  1  0  0  0  0
 27  5  2  0  0  0  0
 28  9  1  0  0  0  0
 28  6  1  0  0  0  0
 29 20  1  0  0  0  0
 30 31  1  1  0  0  0
 30 29  1  0  0  0  0
 32 30  1  0  0  0  0
M  END
>  <MODEL>
4

>  <REMARK>
 VINA RESULT:      -7.8      3.101      9.243
  Name = 
  2 active torsions:
  status: ('A' for Active; 'I' for Inactive)
    1  A    between atoms: N_20  and  C_29
    2  A    between atoms: C_29  and  C_30
                            x       y       z     vdW  Elec       q    Type
                         _______ _______ _______ _____ _____    ______ ____

>  <TORSDO>
F 2

$$$$
=
 OpenBabel11112416423D

 32 37  0  0  1  0  0  0  0  0999 V2000
  185.2890  178.3620  143.0630 C   0  0  0  0  0  2  0  0  0  0  0  0
  189.5190  175.3890  142.4360 C   0  0  0  0  0  0  0  0  0  0  0  0
  193.5070  176.7650  145.0410 C   0  0  0  0  0  3  0  0  0  0  0  0
  194.2630  175.7710  144.4210 C   0  0  0  0  0  3  0  0  0  0  0  0
  189.8240  173.7910  140.5420 C   0  0  0  0  0  0  0  0  0  0  0  0
  190.7270  172.9390  139.7710 C   0  0  0  0  0  0  0  0  0  0  0  0
  187.3150  176.0460  143.4160 C   0  0  1  0  0  3  0  0  0  0  0  0
  189.3450  177.2270  144.2170 C   0  0  0  0  0  2  0  0  0  0  0  0
  192.8100  172.0470  139.2000 C   0  0  2  0  0  3  0  0  0  0  0  0
  187.1110  178.2940  144.6580 C   0  0  0  0  0  2  0  0  0  0  0  0
  192.1920  176.9950  144.6360 C   0  0  0  0  0  3  0  0  0  0  0  0
  190.2070  176.5570  143.1340 C   0  0  1  0  0  3  0  0  0  0  0  0
  191.6040  176.2230  143.6200 C   0  0  0  0  0  0  0  0  0  0  0  0
  191.8140  174.4230  141.8750 C   0  0  0  0  0  0  0  0  0  0  0  0
  191.7240  171.5760  138.2170 C   0  0  0  0  0  2  0  0  0  0  0  0
  185.6910  177.1660  142.1860 C   0  0  0  0  0  2  0  0  0  0  0  0
  187.9360  177.4310  143.6950 C   0  0  2  0  0  3  0  0  0  0  0  0
  190.4580  172.2480  138.6830 C   0  0  0  0  0  3  0  0  0  0  0  0
  185.9640  176.0300  142.9760 O   0  0  0  0  0  0  0  0  0  0  0  0
  185.6630  178.1510  144.4660 N   0  0  0  0  0  0  0  0  0  0  0  0
  193.7030  175.0130  143.3910 C   0  0  0  0  0  3  0  0  0  0  0  0
  192.3800  175.2330  142.9760 C   0  0  0  0  0  0  0  0  0  0  0  0
  192.5970  173.6370  141.1830 N   0  0  0  0  0  0  0  0  0  0  0  0
  188.1890  175.2130  142.5260 C   0  0  0  0  0  3  0  0  0  0  0  0
  188.5150  173.8710  140.1880 F   0  0  0  0  0  0  0  0  0  0  0  0
  193.4160  170.8470  139.9020 C   0  0  0  0  0  1  0  0  0  0  0  0
  190.3450  174.5050  141.5720 C   0  0  0  0  0  0  0  0  0  0  0  0
  192.0700  172.8500  140.1490 N   0  0  0  0  0  0  0  0  0  0  0  0
  185.0340  179.2080  145.2420 C   0  0  0  0  0  2  0  0  0  0  0  0
  184.5610  178.6660  146.5800 C   0  0  2  0  0  3  0  0  0  0  0  0
  185.5660  179.0310  147.6520 C   0  0  0  0  0  1  0  0  0  0  0  0
  184.4410  177.2780  146.5130 O   0  0  0  0  0  1  0  0  0  0  0  0
  1 20  1  0  0  0  0
  2 24  2  0  0  0  0
  2 12  1  0  0  0  0
  4  3  2  0  0  0  0
  5 27  2  0  0  0  0
  6 28  1  0  0  0  0
  6  5  1  0  0  0  0
  7 24  1  6  0  0  0
  7 17  1  0  0  0  0
  9 26  1  1  0  0  0
  9 28  1  0  0  0  0
 11  3  1  0  0  0  0
 12 13  1  0  0  0  0
 12  8  1  1  0  0  0
 13 11  2  0  0  0  0
 14 22  1  0  0  0  0
 15 18  1  0  0  0  0
 15  9  1  0  0  0  0
 16 19  1  0  0  0  0
 16  1  1  0  0  0  0
 17  8  1  1  0  0  0
 17 10  1  0  0  0  0
 18  6  2  0  0  0  0
 19  7  1  0  0  0  0
 20 10  1  0  0  0  0
 20 29  1  0  0  0  0
 21  4  1  0  0  0  0
 22 21  2  0  0  0  0
 22 13  1  0  0  0  0
 23 14  2  0  0  0  0
 25  5  1  0  0  0  0
 27 14  1  0  0  0  0
 27  2  1  0  0  0  0
 28 23  1  0  0  0  0
 29 30  1  0  0  0  0
 30 31  1  1  0  0  0
 32 30  1  0  0  0  0
M  END
>  <MODEL>
5

>  <REMARK>
 VINA RESULT:      -7.7      3.539      8.003
  Name = 
  2 active torsions:
  status: ('A' for Active; 'I' for Inactive)
    1  A    between atoms: N_20  and  C_29
    2  A    between atoms: C_29  and  C_30
                            x       y       z     vdW  Elec       q    Type
                         _______ _______ _______ _____ _____    ______ ____

>  <TORSDO>
F 2

$$$$
=
 OpenBabel11112416423D

 32 37  0  0  1  0  0  0  0  0999 V2000
  188.2530  176.9420  146.6610 C   0  0  0  0  0  2  0  0  0  0  0  0
  191.8180  175.8090  143.0370 C   0  0  0  0  0  0  0  0  0  0  0  0
  190.2260  172.9930  139.2780 C   0  0  0  0  0  3  0  0  0  0  0  0
  191.5210  172.9360  138.7650 C   0  0  0  0  0  3  0  0  0  0  0  0
  194.2770  176.0570  143.3840 C   0  0  0  0  0  0  0  0  0  0  0  0
  195.6310  175.7580  142.9230 C   0  0  0  0  0  0  0  0  0  0  0  0
  190.0640  177.1920  144.1610 C   0  0  1  0  0  3  0  0  0  0  0  0
  189.3220  175.2780  142.7680 C   0  0  0  0  0  2  0  0  0  0  0  0
  197.2070  174.7400  141.5300 C   0  0  2  0  0  3  0  0  0  0  0  0
  187.6830  176.2430  144.4130 C   0  0  0  0  0  2  0  0  0  0  0  0
  189.9900  173.6140  140.5050 C   0  0  0  0  0  3  0  0  0  0  0  0
  190.7710  174.7890  142.6020 C   0  0  1  0  0  3  0  0  0  0  0  0
  191.0390  174.2050  141.2290 C   0  0  0  0  0  0  0  0  0  0  0  0
  193.4940  174.6980  141.4660 C   0  0  0  0  0  0  0  0  0  0  0  0
  197.8980  175.4840  142.6880 C   0  0  0  0  0  2  0  0  0  0  0  0
  189.7580  177.1790  146.4660 C   0  0  0  0  0  2  0  0  0  0  0  0
  189.1590  175.9430  144.1210 C   0  0  2  0  0  3  0  0  0  0  0  0
  196.7720  176.0550  143.5110 C   0  0  0  0  0  3  0  0  0  0  0  0
  190.0000  177.9890  145.3360 O   0  0  0  0  0  0  0  0  0  0  0  0
  187.4950  177.2670  145.4470 N   0  0  0  0  0  0  0  0  0  0  0  0
  192.5790  173.4940  139.4840 C   0  0  0  0  0  3  0  0  0  0  0  0
  192.3540  174.1240  140.7180 C   0  0  0  0  0  0  0  0  0  0  0  0
  194.7160  174.4620  141.0630 N   0  0  0  0  0  0  0  0  0  0  0  0
  191.4830  176.8630  143.8020 C   0  0  0  0  0  3  0  0  0  0  0  0
  194.1020  176.7880  144.5150 F   0  0  0  0  0  0  0  0  0  0  0  0
  197.6480  175.3360  140.2070 C   0  0  0  0  0  1  0  0  0  0  0  0
  193.2360  175.5540  142.6730 C   0  0  0  0  0  0  0  0  0  0  0  0
  195.8050  175.0160  141.7510 N   0  0  0  0  0  0  0  0  0  0  0  0
  186.0850  177.2450  145.8030 C   0  0  0  0  0  2  0  0  0  0  0  0
  185.5760  178.6610  146.0160 C   0  0  2  0  0  3  0  0  0  0  0  0
  184.0670  178.6380  146.1380 C   0  0  0  0  0  1  0  0  0  0  0  0
  185.9390  179.4620  144.9320 O   0  0  0  0  0  1  0  0  0  0  0  0
  2 24  2  0  0  0  0
  3 11  1  0  0  0  0
  4  3  2  0  0  0  0
  4 21  1  0  0  0  0
  5 25  1  0  0  0  0
  6  5  1  0  0  0  0
  6 18  2  0  0  0  0
  7 24  1  1  0  0  0
  7 19  1  0  0  0  0
  9 26  1  6  0  0  0
  9 28  1  0  0  0  0
  9 15  1  0  0  0  0
 10 20  1  0  0  0  0
 11 13  2  0  0  0  0
 12  8  1  6  0  0  0
 12  2  1  0  0  0  0
 13 12  1  0  0  0  0
 14 27  1  0  0  0  0
 15 18  1  0  0  0  0
 16  1  1  0  0  0  0
 17  8  1  6  0  0  0
 17  7  1  0  0  0  0
 17 10  1  0  0  0  0
 19 16  1  0  0  0  0
 20 29  1  0  0  0  0
 20  1  1  0  0  0  0
 21 22  2  0  0  0  0
 22 13  1  0  0  0  0
 22 14  1  0  0  0  0
 23 14  2  0  0  0  0
 23 28  1  0  0  0  0
 27  2  1  0  0  0  0
 27  5  2  0  0  0  0
 28  6  1  0  0  0  0
 29 30  1  0  0  0  0
 30 31  1  6  0  0  0
 32 30  1  0  0  0  0
M  END
>  <MODEL>
6

>  <REMARK>
 VINA RESULT:      -7.7      3.410      9.267
  Name = 
  2 active torsions:
  status: ('A' for Active; 'I' for Inactive)
    1  A    between atoms: N_20  and  C_29
    2  A    between atoms: C_29  and  C_30
                            x       y       z     vdW  Elec       q    Type
                         _______ _______ _______ _____ _____    ______ ____

>  <TORSDO>
F 2

$$$$
=
 OpenBabel11112416423D

 32 37  0  0  1  0  0  0  0  0999 V2000
  195.7690  176.6900  145.2220 C   0  0  0  0  0  2  0  0  0  0  0  0
  190.5860  176.2120  145.0380 C   0  0  0  0  0  0  0  0  0  0  0  0
  188.7760  174.1210  140.9210 C   0  0  0  0  0  3  0  0  0  0  0  0
  187.4760  174.3630  141.3630 C   0  0  0  0  0  3  0  0  0  0  0  0
  189.0220  177.4660  146.5250 C   0  0  0  0  0  0  0  0  0  0  0  0
  187.6540  177.8940  146.8080 C   0  0  0  0  0  0  0  0  0  0  0  0
  192.9200  175.5510  145.6420 C   0  0  1  0  0  3  0  0  0  0  0  0
  192.1580  175.1400  143.3170 C   0  0  0  0  0  2  0  0  0  0  0  0
  185.3710  178.0950  146.3510 C   0  0  2  0  0  3  0  0  0  0  0  0
  194.6330  175.1230  143.7660 C   0  0  0  0  0  2  0  0  0  0  0  0
  189.8610  174.6080  141.6510 C   0  0  0  0  0  3  0  0  0  0  0  0
  190.8580  175.9240  143.5650 C   0  0  1  0  0  3  0  0  0  0  0  0
  189.6670  175.3250  142.8430 C   0  0  0  0  0  0  0  0  0  0  0  0
  188.0950  176.3740  144.5040 C   0  0  0  0  0  0  0  0  0  0  0  0
  185.7500  178.8920  147.6120 C   0  0  0  0  0  2  0  0  0  0  0  0
  194.5780  177.1150  146.0960 C   0  0  0  0  0  2  0  0  0  0  0  0
  193.2780  175.7310  144.1520 C   0  0  2  0  0  3  0  0  0  0  0  0
  187.2370  178.7000  147.7630 C   0  0  0  0  0  3  0  0  0  0  0  0
  193.8850  175.9890  146.5880 O   0  0  0  0  0  0  0  0  0  0  0  0
  195.6570  175.2880  144.8040 N   0  0  0  0  0  0  0  0  0  0  0  0
  187.2640  175.0970  142.5310 C   0  0  0  0  0  3  0  0  0  0  0  0
  188.3470  175.5890  143.2760 C   0  0  0  0  0  0  0  0  0  0  0  0
  186.8760  176.7520  144.7910 N   0  0  0  0  0  0  0  0  0  0  0  0
  191.5590  176.0980  145.9580 C   0  0  0  0  0  3  0  0  0  0  0  0
  190.0280  177.8550  147.3510 F   0  0  0  0  0  0  0  0  0  0  0  0
  184.3590  177.0240  146.7090 C   0  0  0  0  0  1  0  0  0  0  0  0
  189.2400  176.7190  145.4140 C   0  0  0  0  0  0  0  0  0  0  0  0
  186.6210  177.4800  145.9620 N   0  0  0  0  0  0  0  0  0  0  0  0
  196.9260  174.9180  144.1990 C   0  0  0  0  0  2  0  0  0  0  0  0
  197.6550  173.9180  145.0810 C   0  0  2  0  0  3  0  0  0  0  0  0
  197.8210  172.6150  144.3280 C   0  0  0  0  0  1  0  0  0  0  0  0
  196.9200  173.6890  146.2440 O   0  0  0  0  0  1  0  0  0  0  0  0
  1 16  1  0  0  0  0
  2 27  1  0  0  0  0
  2 24  2  0  0  0  0
  3  4  2  0  0  0  0
  3 11  1  0  0  0  0
  4 21  1  0  0  0  0
  5  6  1  0  0  0  0
  5 25  1  0  0  0  0
  6 18  2  0  0  0  0
  7 24  1  1  0  0  0
  7 19  1  0  0  0  0
  9 26  1  1  0  0  0
  9 15  1  0  0  0  0
 10 17  1  0  0  0  0
 10 20  1  0  0  0  0
 11 13  2  0  0  0  0
 12  8  1  1  0  0  0
 12  2  1  0  0  0  0
 13 22  1  0  0  0  0
 13 12  1  0  0  0  0
 14 23  2  0  0  0  0
 14 27  1  0  0  0  0
 15 18  1  0  0  0  0
 16 19  1  0  0  0  0
 17  8  1  6  0  0  0
 17  7  1  0  0  0  0
 20  1  1  0  0  0  0
 21 22  2  0  0  0  0
 22 14  1  0  0  0  0
 23 28  1  0  0  0  0
 27  5  2  0  0  0  0
 28  9  1  0  0  0  0
 28  6  1  0  0  0  0
 29 20  1  0  0  0  0
 29 30  1  0  0  0  0
 30 31  1  6  0  0  0
 30 32  1  0  0  0  0
M  END
>  <MODEL>
7

>  <REMARK>
 VINA RESULT:      -7.6      3.078      5.189
  Name = 
  2 active torsions:
  status: ('A' for Active; 'I' for Inactive)
    1  A    between atoms: N_20  and  C_29
    2  A    between atoms: C_29  and  C_30
                            x       y       z     vdW  Elec       q    Type
                         _______ _______ _______ _____ _____    ______ ____

>  <TORSDO>
F 2

$$$$
=
 OpenBabel11112416423D

 32 37  0  0  1  0  0  0  0  0999 V2000
  191.1830  170.6440  141.0770 C   0  0  0  0  0  2  0  0  0  0  0  0
  189.3720  174.9910  143.3010 C   0  0  0  0  0  0  0  0  0  0  0  0
  191.3200  176.1020  147.7240 C   0  0  0  0  0  3  0  0  0  0  0  0
  190.4410  177.1780  147.8470 C   0  0  0  0  0  3  0  0  0  0  0  0
  187.2630  176.1320  142.6060 C   0  0  0  0  0  0  0  0  0  0  0  0
  186.2290  177.1190  142.9080 C   0  0  0  0  0  0  0  0  0  0  0  0
  190.8350  173.6370  141.7920 C   0  0  1  0  0  3  0  0  0  0  0  0
  191.3780  173.6770  144.2120 C   0  0  0  0  0  2  0  0  0  0  0  0
  185.1570  178.7070  144.2450 C   0  0  2  0  0  3  0  0  0  0  0  0
  192.3750  171.8420  142.8110 C   0  0  0  0  0  2  0  0  0  0  0  0
  191.2080  175.2330  146.6390 C   0  0  0  0  0  3  0  0  0  0  0  0
  190.0710  174.4230  144.5310 C   0  0  1  0  0  3  0  0  0  0  0  0
  190.2320  175.4350  145.6480 C   0  0  0  0  0  0  0  0  0  0  0  0
  188.2600  176.7400  144.7910 C   0  0  0  0  0  0  0  0  0  0  0  0
  184.3470  178.4310  142.9660 C   0  0  0  0  0  2  0  0  0  0  0  0
  190.0970  171.6860  140.7670 C   0  0  0  0  0  2  0  0  0  0  0  0
  191.1670  172.7640  143.0200 C   0  0  2  0  0  3  0  0  0  0  0  0
  185.1310  177.3780  142.2270 C   0  0  0  0  0  3  0  0  0  0  0  0
  190.6640  172.9590  140.5550 O   0  0  0  0  0  0  0  0  0  0  0  0
  192.4480  171.2820  141.4570 N   0  0  0  0  0  0  0  0  0  0  0  0
  189.4480  177.3780  146.8870 C   0  0  0  0  0  3  0  0  0  0  0  0
  189.3280  176.5120  145.7880 C   0  0  0  0  0  0  0  0  0  0  0  0
  187.3330  177.6320  145.0280 N   0  0  0  0  0  0  0  0  0  0  0  0
  189.6920  174.5700  142.0650 C   0  0  0  0  0  3  0  0  0  0  0  0
  187.1810  175.4060  141.4600 F   0  0  0  0  0  0  0  0  0  0  0  0
  185.5660  180.1660  144.2850 C   0  0  0  0  0  1  0  0  0  0  0  0
  188.2580  175.9520  143.5110 C   0  0  0  0  0  0  0  0  0  0  0  0
  186.3260  177.8720  144.0820 N   0  0  0  0  0  0  0  0  0  0  0  0
  193.4610  170.2390  141.4910 C   0  0  0  0  0  2  0  0  0  0  0  0
  193.6050  169.6950  142.9030 C   0  0  2  0  0  3  0  0  0  0  0  0
  195.0740  169.6190  143.2630 C   0  0  0  0  0  1  0  0  0  0  0  0
  193.0450  168.4200  142.9780 O   0  0  0  0  0  1  0  0  0  0  0  0
  1 20  1  0  0  0  0
  2 27  1  0  0  0  0
  2 12  1  0  0  0  0
  3  4  1  0  0  0  0
  5  6  1  0  0  0  0
  5 27  2  0  0  0  0
  6 28  1  0  0  0  0
  7 24  1  1  0  0  0
  7 17  1  0  0  0  0
  9 26  1  6  0  0  0
 11  3  2  0  0  0  0
 12  8  1  6  0  0  0
 12 13  1  0  0  0  0
 13 22  2  0  0  0  0
 13 11  1  0  0  0  0
 14 23  2  0  0  0  0
 14 22  1  0  0  0  0
 15  9  1  0  0  0  0
 16  1  1  0  0  0  0
 17 10  1  6  0  0  0
 17  8  1  0  0  0  0
 18  6  2  0  0  0  0
 18 15  1  0  0  0  0
 19 16  1  0  0  0  0
 19  7  1  0  0  0  0
 20 29  1  0  0  0  0
 20 10  1  0  0  0  0
 21  4  2  0  0  0  0
 22 21  1  0  0  0  0
 24  2  2  0  0  0  0
 25  5  1  0  0  0  0
 27 14  1  0  0  0  0
 28  9  1  0  0  0  0
 28 23  1  0  0  0  0
 29 30  1  0  0  0  0
 30 32  1  0  0  0  0
 30 31  1  6  0  0  0
M  END
>  <MODEL>
8

>  <REMARK>
 VINA RESULT:      -7.5      3.738      4.800
  Name = 
  2 active torsions:
  status: ('A' for Active; 'I' for Inactive)
    1  A    between atoms: N_20  and  C_29
    2  A    between atoms: C_29  and  C_30
                            x       y       z     vdW  Elec       q    Type
                         _______ _______ _______ _____ _____    ______ ____

>  <TORSDO>
F 2

$$$$
=
 OpenBabel11112416423D

 32 37  0  0  1  0  0  0  0  0999 V2000
  186.9810  177.8610  146.0630 C   0  0  0  0  0  2  0  0  0  0  0  0
  190.1120  174.5260  143.5720 C   0  0  0  0  0  0  0  0  0  0  0  0
  188.3730  172.7620  139.2760 C   0  0  0  0  0  3  0  0  0  0  0  0
  189.4800  171.9210  139.1670 C   0  0  0  0  0  3  0  0  0  0  0  0
  192.0340  173.3540  144.6520 C   0  0  0  0  0  0  0  0  0  0  0  0
  193.0310  172.2880  144.5890 C   0  0  0  0  0  0  0  0  0  0  0  0
  189.2390  176.7700  144.2450 C   0  0  1  0  0  3  0  0  0  0  0  0
  187.9780  175.4960  142.5300 C   0  0  0  0  0  2  0  0  0  0  0  0
  194.0570  170.4160  143.6410 C   0  0  2  0  0  3  0  0  0  0  0  0
  186.7990  177.3880  143.6950 C   0  0  0  0  0  2  0  0  0  0  0  0
  188.1920  173.5280  140.4280 C   0  0  0  0  0  3  0  0  0  0  0  0
  188.8520  174.2510  142.7580 C   0  0  1  0  0  3  0  0  0  0  0  0
  189.1220  173.4820  141.4800 C   0  0  0  0  0  0  0  0  0  0  0  0
  191.2140  172.5010  142.4760 C   0  0  0  0  0  0  0  0  0  0  0  0
  194.6750  170.7440  145.0120 C   0  0  0  0  0  2  0  0  0  0  0  0
  188.3260  177.1710  146.3440 C   0  0  0  0  0  2  0  0  0  0  0  0
  187.8410  176.2680  143.8270 C   0  0  2  0  0  3  0  0  0  0  0  0
  193.9020  171.9370  145.5120 C   0  0  0  0  0  3  0  0  0  0  0  0
  189.3050  177.5750  145.4140 O   0  0  0  0  0  0  0  0  0  0  0  0
  186.9430  178.4340  144.7130 N   0  0  0  0  0  0  0  0  0  0  0  0
  190.4000  171.8430  140.2130 C   0  0  0  0  0  3  0  0  0  0  0  0
  190.2300  172.6110  141.3760 C   0  0  0  0  0  0  0  0  0  0  0  0
  192.1290  171.5680  142.4340 N   0  0  0  0  0  0  0  0  0  0  0  0
  190.2390  175.6530  144.2940 C   0  0  0  0  0  3  0  0  0  0  0  0
  191.9900  174.1660  145.7410 F   0  0  0  0  0  0  0  0  0  0  0  0
  195.1230  170.5120  142.5660 C   0  0  0  0  0  1  0  0  0  0  0  0
  191.1560  173.4690  143.6240 C   0  0  0  0  0  0  0  0  0  0  0  0
  193.0790  171.4650  143.4600 N   0  0  0  0  0  0  0  0  0  0  0  0
  185.7490  179.2600  144.6320 C   0  0  0  0  0  2  0  0  0  0  0  0
  184.5060  178.3860  144.6350 C   0  0  2  0  0  3  0  0  0  0  0  0
  183.6940  178.6670  143.3890 C   0  0  0  0  0  1  0  0  0  0  0  0
  183.7330  178.6660  145.7620 O   0  0  0  0  0  1  0  0  0  0  0  0
  1 16  1  0  0  0  0
  2 27  1  0  0  0  0
  2 24  2  0  0  0  0
  3 11  1  0  0  0  0
  4  3  2  0  0  0  0
  4 21  1  0  0  0  0
  5 25  1  0  0  0  0
  6  5  1  0  0  0  0
  6 18  2  0  0  0  0
  7 24  1  1  0  0  0
  7 19  1  0  0  0  0
  9 26  1  6  0  0  0
  9 15  1  0  0  0  0
 10 17  1  0  0  0  0
 10 20  1  0  0  0  0
 11 13  2  0  0  0  0
 12  8  1  6  0  0  0
 12  2  1  0  0  0  0
 13 12  1  0  0  0  0
 14 27  1  0  0  0  0
 15 18  1  0  0  0  0
 17  8  1  6  0  0  0
 17  7  1  0  0  0  0
 19 16  1  0  0  0  0
 20  1  1  0  0  0  0
 21 22  2  0  0  0  0
 22 13  1  0  0  0  0
 22 14  1  0  0  0  0
 23 14  2  0  0  0  0
 23 28  1  0  0  0  0
 27  5  2  0  0  0  0
 28  9  1  0  0  0  0
 28  6  1  0  0  0  0
 29 30  1  0  0  0  0
 29 20  1  0  0  0  0
 30 31  1  6  0  0  0
 30 32  1  0  0  0  0
M  END
>  <MODEL>
9

>  <REMARK>
 VINA RESULT:      -7.5      4.098      9.064
  Name = 
  2 active torsions:
  status: ('A' for Active; 'I' for Inactive)
    1  A    between atoms: N_20  and  C_29
    2  A    between atoms: C_29  and  C_30
                            x       y       z     vdW  Elec       q    Type
                         _______ _______ _______ _____ _____    ______ ____

>  <TORSDO>
F 2

$$$$
