=
 OpenBabel11112416553D

 31 35  0  0  1  0  0  0  0  0999 V2000
  184.9220  178.0720  146.8060 C   0  0  0  0  0  0  0  0  0  0  0  0
  186.8170  177.6950  143.5740 C   0  0  0  0  0  0  0  0  0  0  0  0
  185.8790  177.8570  142.5120 C   0  0  0  0  0  0  0  0  0  0  0  0
  191.4510  176.8790  145.9620 O   0  0  0  0  0  0  0  0  0  0  0  0
  191.6090  176.8260  144.7150 C   0  0  0  0  0  0  0  0  0  0  0  0
  183.6290  178.2630  141.6530 C   0  0  0  0  0  0  0  0  0  0  0  0
  186.4950  177.7660  144.9630 C   0  0  0  0  0  0  0  0  0  0  0  0
  185.9510  177.8910  147.7300 C   0  0  0  0  0  3  0  0  0  0  0  0
  184.5130  178.1100  142.7240 C   0  0  0  0  0  3  0  0  0  0  0  0
  189.1430  177.2710  144.2050 C   0  0  0  0  0  0  0  0  0  0  0  0
  183.6600  178.3080  147.2350 F   0  0  0  0  0  0  0  0  0  0  0  0
  187.6430  177.5180  140.9230 N   0  0  0  0  0  0  0  0  0  0  0  0
  181.9340  178.5780  141.9570 Cl  0  0  0  0  0  0  0  0  0  0  0  0
  188.7990  177.3470  145.5150 N   0  0  0  0  0  0  0  0  0  0  0  0
  188.1660  177.4430  143.2160 C   0  0  0  0  0  0  0  0  0  0  0  0
  190.5030  177.0180  143.8220 N   0  0  0  0  0  2  0  0  0  0  0  0
  185.1940  178.0090  145.4380 C   0  0  0  0  0  3  0  0  0  0  0  0
  184.0970  178.1660  140.3440 C   0  0  0  0  0  3  0  0  0  0  0  0
  187.5280  177.5840  145.9170 C   0  0  0  0  0  0  0  0  0  0  0  0
  187.2500  177.6470  147.2850 C   0  0  0  0  0  3  0  0  0  0  0  0
  188.5240  177.3650  141.9060 N   0  0  0  0  0  0  0  0  0  0  0  0
  186.3360  177.7610  141.1760 C   0  0  0  0  0  0  0  0  0  0  0  0
  185.4480  177.9150  140.1060 C   0  0  0  0  0  3  0  0  0  0  0  0
  194.2510  174.0440  144.8620 C   0  0  1  0  0  3  0  0  0  0  0  0
  193.0000  175.3050  143.2970 C   0  0  0  0  0  2  0  0  0  0  0  0
  194.5310  177.4930  145.6860 O   0  0  0  0  0  0  0  0  0  0  0  0
  194.3750  172.7020  145.5510 C   0  0  0  0  0  1  0  0  0  0  0  0
  192.9890  174.0980  144.1250 N   0  0  0  0  0  2  0  0  0  0  0  0
  193.9990  176.4790  145.2660 C   0  0  0  0  0  0  0  0  0  0  0  0
  192.9770  176.5690  144.1650 C   0  0  2  0  0  3  0  0  0  0  0  0
  194.3050  175.1570  145.9050 C   0  0  0  0  0  2  0  0  0  0  0  0
  1 11  1  0  0  0  0
  1  8  1  0  0  0  0
  2  7  1  0  0  0  0
  3  9  1  0  0  0  0
  3  2  2  0  0  0  0
  5  4  2  0  0  0  0
  6 13  1  0  0  0  0
  6  9  2  0  0  0  0
  7 17  1  0  0  0  0
  7 19  2  0  0  0  0
 10 14  2  0  0  0  0
 12 22  2  0  0  0  0
 12 21  1  0  0  0  0
 14 19  1  0  0  0  0
 15  2  1  0  0  0  0
 15 10  1  0  0  0  0
 16 10  1  0  0  0  0
 16  5  1  0  0  0  0
 17  1  2  0  0  0  0
 18  6  1  0  0  0  0
 19 20  1  0  0  0  0
 20  8  2  0  0  0  0
 21 15  2  0  0  0  0
 22  3  1  0  0  0  0
 23 18  2  0  0  0  0
 23 22  1  0  0  0  0
 24 27  1  1  0  0  0
 24 31  1  0  0  0  0
 25 28  1  0  0  0  0
 25 30  1  0  0  0  0
 28 24  1  0  0  0  0
 29 26  2  0  0  0  0
 29 31  1  0  0  0  0
 30  5  1  1  0  0  0
 30 29  1  0  0  0  0
M  END
>  <MODEL>
1

>  <REMARK>
 VINA RESULT:     -10.3      0.000      0.000
  Name = 
  1 active torsions:
  status: ('A' for Active; 'I' for Inactive)
    1  A    between atoms: C_5  and  C_30
                            x       y       z     vdW  Elec       q    Type
                         _______ _______ _______ _____ _____    ______ ____

>  <TORSDO>
F 1

$$$$
=
 OpenBabel11112416553D

 31 35  0  0  1  0  0  0  0  0999 V2000
  184.7120  178.4960  146.2430 C   0  0  0  0  0  0  0  0  0  0  0  0
  187.3010  177.1750  143.8500 C   0  0  0  0  0  0  0  0  0  0  0  0
  186.7700  177.3110  142.5350 C   0  0  0  0  0  0  0  0  0  0  0  0
  190.7360  175.9590  147.6670 O   0  0  0  0  0  0  0  0  0  0  0  0
  191.2250  175.6470  146.5500 C   0  0  0  0  0  0  0  0  0  0  0  0
  185.0190  177.9660  140.9630 C   0  0  0  0  0  0  0  0  0  0  0  0
  186.6240  177.5620  145.0460 C   0  0  0  0  0  0  0  0  0  0  0  0
  185.3620  178.2990  147.4620 C   0  0  0  0  0  3  0  0  0  0  0  0
  185.5000  177.8510  142.2690 C   0  0  0  0  0  3  0  0  0  0  0  0
  189.1840  176.4460  145.2340 C   0  0  0  0  0  0  0  0  0  0  0  0
  183.4730  179.0410  146.2170 F   0  0  0  0  0  0  0  0  0  0  0  0
  188.7800  176.3560  141.6410 N   0  0  0  0  0  0  0  0  0  0  0  0
  183.4320  178.6450  140.6730 Cl  0  0  0  0  0  0  0  0  0  0  0  0
  188.5100  176.8270  146.3480 N   0  0  0  0  0  0  0  0  0  0  0  0
  188.5970  176.6110  143.9730 C   0  0  0  0  0  0  0  0  0  0  0  0
  190.4960  175.8740  145.3360 N   0  0  0  0  0  2  0  0  0  0  0  0
  185.3380  178.1300  145.0500 C   0  0  0  0  0  3  0  0  0  0  0  0
  185.8030  177.5410  139.8920 C   0  0  0  0  0  3  0  0  0  0  0  0
  187.2700  177.3690  146.2930 C   0  0  0  0  0  0  0  0  0  0  0  0
  186.6380  177.7370  147.4850 C   0  0  0  0  0  3  0  0  0  0  0  0
  189.2840  176.2260  142.8640 N   0  0  0  0  0  0  0  0  0  0  0  0
  187.5510  176.8830  141.4340 C   0  0  0  0  0  0  0  0  0  0  0  0
  187.0660  177.0000  140.1270 C   0  0  0  0  0  3  0  0  0  0  0  0
  194.2930  175.7470  144.2430 C   0  0  1  0  0  3  0  0  0  0  0  0
  193.6820  176.1180  146.5000 C   0  0  0  0  0  2  0  0  0  0  0  0
  192.3970  172.9630  145.3880 O   0  0  0  0  0  0  0  0  0  0  0  0
  194.6420  176.4160  142.9310 C   0  0  0  0  0  1  0  0  0  0  0  0
  193.7970  176.7500  145.1850 N   0  0  0  0  0  2  0  0  0  0  0  0
  192.7410  174.1310  145.3090 C   0  0  0  0  0  0  0  0  0  0  0  0
  192.5920  175.0390  146.4990 C   0  0  2  0  0  3  0  0  0  0  0  0
  193.2330  174.6760  144.0010 C   0  0  0  0  0  2  0  0  0  0  0  0
  1  8  1  0  0  0  0
  2 15  1  0  0  0  0
  2  7  1  0  0  0  0
  3  2  2  0  0  0  0
  5  4  2  0  0  0  0
  6  9  2  0  0  0  0
  7 17  1  0  0  0  0
  7 19  2  0  0  0  0
  8 20  2  0  0  0  0
  9  3  1  0  0  0  0
 10 16  1  0  0  0  0
 10 14  2  0  0  0  0
 11  1  1  0  0  0  0
 12 21  1  0  0  0  0
 13  6  1  0  0  0  0
 15 10  1  0  0  0  0
 16  5  1  0  0  0  0
 17  1  2  0  0  0  0
 18 23  2  0  0  0  0
 18  6  1  0  0  0  0
 19 14  1  0  0  0  0
 19 20  1  0  0  0  0
 21 15  2  0  0  0  0
 22 12  2  0  0  0  0
 22  3  1  0  0  0  0
 23 22  1  0  0  0  0
 24 27  1  6  0  0  0
 24 28  1  0  0  0  0
 28 25  1  0  0  0  0
 29 26  2  0  0  0  0
 29 30  1  0  0  0  0
 30 25  1  0  0  0  0
 30  5  1  6  0  0  0
 31 24  1  0  0  0  0
 31 29  1  0  0  0  0
M  END
>  <MODEL>
2

>  <REMARK>
 VINA RESULT:      -9.6      1.588      2.084
  Name = 
  1 active torsions:
  status: ('A' for Active; 'I' for Inactive)
    1  A    between atoms: C_5  and  C_30
                            x       y       z     vdW  Elec       q    Type
                         _______ _______ _______ _____ _____    ______ ____

>  <TORSDO>
F 1

$$$$
=
 OpenBabel11112416553D

 31 35  0  0  1  0  0  0  0  0999 V2000
  185.1980  177.6560  146.8390 C   0  0  0  0  0  0  0  0  0  0  0  0
  186.6410  177.0890  143.4070 C   0  0  0  0  0  0  0  0  0  0  0  0
  185.6570  177.5000  142.4610 C   0  0  0  0  0  0  0  0  0  0  0  0
  191.2160  175.2080  145.2430 O   0  0  0  0  0  0  0  0  0  0  0  0
  191.2350  175.1970  143.9840 C   0  0  0  0  0  0  0  0  0  0  0  0
  183.4670  178.4050  141.8690 C   0  0  0  0  0  0  0  0  0  0  0  0
  186.4810  177.1430  144.8250 C   0  0  0  0  0  0  0  0  0  0  0  0
  186.2540  177.2160  147.6380 C   0  0  0  0  0  3  0  0  0  0  0  0
  184.4010  178.0140  142.8300 C   0  0  0  0  0  3  0  0  0  0  0  0
  188.8790  176.1640  143.7640 C   0  0  0  0  0  0  0  0  0  0  0  0
  184.0630  178.1200  147.4110 F   0  0  0  0  0  0  0  0  0  0  0  0
  187.1430  176.9010  140.6780 N   0  0  0  0  0  0  0  0  0  0  0  0
  181.9140  179.0410  142.3680 Cl  0  0  0  0  0  0  0  0  0  0  0  0
  188.6900  176.2320  145.1060 N   0  0  0  0  0  0  0  0  0  0  0  0
  187.8650  176.5880  142.8950 C   0  0  0  0  0  0  0  0  0  0  0  0
  190.1100  175.6610  143.2260 N   0  0  0  0  0  2  0  0  0  0  0  0
  185.3140  177.6190  145.4480 C   0  0  0  0  0  3  0  0  0  0  0  0
  183.7710  178.2910  140.5140 C   0  0  0  0  0  3  0  0  0  0  0  0
  187.5430  176.7000  145.6530 C   0  0  0  0  0  0  0  0  0  0  0  0
  187.4220  176.7390  147.0450 C   0  0  0  0  0  3  0  0  0  0  0  0
  188.0670  176.5150  141.5520 N   0  0  0  0  0  0  0  0  0  0  0  0
  185.9470  177.3900  141.0800 C   0  0  0  0  0  0  0  0  0  0  0  0
  185.0100  177.7830  140.1200 C   0  0  0  0  0  3  0  0  0  0  0  0
  194.8970  174.4330  144.8480 C   0  0  1  0  0  3  0  0  0  0  0  0
  192.9790  173.4050  143.9170 C   0  0  0  0  0  2  0  0  0  0  0  0
  193.5480  176.5760  142.3500 O   0  0  0  0  0  0  0  0  0  0  0  0
  195.7660  174.5410  146.0830 C   0  0  0  0  0  1  0  0  0  0  0  0
  193.6840  173.6820  145.1690 N   0  0  0  0  0  2  0  0  0  0  0  0
  193.5340  175.7480  143.2450 C   0  0  0  0  0  0  0  0  0  0  0  0
  192.4570  174.6980  143.2800 C   0  0  2  0  0  3  0  0  0  0  0  0
  194.5410  175.8320  144.3540 C   0  0  0  0  0  2  0  0  0  0  0  0
  1 11  1  0  0  0  0
  1  8  1  0  0  0  0
  2  7  1  0  0  0  0
  3  9  1  0  0  0  0
  3  2  2  0  0  0  0
  5  4  2  0  0  0  0
  6 13  1  0  0  0  0
  6  9  2  0  0  0  0
  7 17  1  0  0  0  0
  7 19  2  0  0  0  0
 10 14  2  0  0  0  0
 12 22  2  0  0  0  0
 12 21  1  0  0  0  0
 14 19  1  0  0  0  0
 15  2  1  0  0  0  0
 15 10  1  0  0  0  0
 16 10  1  0  0  0  0
 16  5  1  0  0  0  0
 17  1  2  0  0  0  0
 18  6  1  0  0  0  0
 19 20  1  0  0  0  0
 20  8  2  0  0  0  0
 21 15  2  0  0  0  0
 22  3  1  0  0  0  0
 23 18  2  0  0  0  0
 23 22  1  0  0  0  0
 24 28  1  0  0  0  0
 24 27  1  1  0  0  0
 25 28  1  0  0  0  0
 26 29  2  0  0  0  0
 29 30  1  0  0  0  0
 29 31  1  0  0  0  0
 30 25  1  0  0  0  0
 30  5  1  1  0  0  0
 31 24  1  0  0  0  0
M  END
>  <MODEL>
3

>  <REMARK>
 VINA RESULT:      -9.1      1.200      1.355
  Name = 
  1 active torsions:
  status: ('A' for Active; 'I' for Inactive)
    1  A    between atoms: C_5  and  C_30
                            x       y       z     vdW  Elec       q    Type
                         _______ _______ _______ _____ _____    ______ ____

>  <TORSDO>
F 1

$$$$
=
 OpenBabel11112416553D

 31 35  0  0  1  0  0  0  0  0999 V2000
  185.5450  178.3610  147.1110 C   0  0  0  0  0  0  0  0  0  0  0  0
  187.1260  177.7310  143.7530 C   0  0  0  0  0  0  0  0  0  0  0  0
  186.1070  177.8900  142.7690 C   0  0  0  0  0  0  0  0  0  0  0  0
  191.9100  176.7930  145.7730 O   0  0  0  0  0  0  0  0  0  0  0  0
  191.9540  176.6720  144.5210 C   0  0  0  0  0  0  0  0  0  0  0  0
  183.8110  178.3690  142.0870 C   0  0  0  0  0  0  0  0  0  0  0  0
  186.9320  177.8850  145.1580 C   0  0  0  0  0  0  0  0  0  0  0  0
  186.6420  178.1730  147.9520 C   0  0  0  0  0  3  0  0  0  0  0  0
  184.7780  178.2230  143.0840 C   0  0  0  0  0  3  0  0  0  0  0  0
  189.4770  177.2190  144.2020 C   0  0  0  0  0  0  0  0  0  0  0  0
  184.3390  178.6830  147.6340 F   0  0  0  0  0  0  0  0  0  0  0  0
  187.7050  177.3830  141.0540 N   0  0  0  0  0  0  0  0  0  0  0  0
  182.1670  178.7850  142.5180 Cl  0  0  0  0  0  0  0  0  0  0  0  0
  189.2540  177.3750  145.5320 N   0  0  0  0  0  0  0  0  0  0  0  0
  188.4250  177.3920  143.2940 C   0  0  0  0  0  0  0  0  0  0  0  0
  190.7830  176.8770  143.7180 N   0  0  0  0  0  2  0  0  0  0  0  0
  185.6920  178.2180  145.7300 C   0  0  0  0  0  3  0  0  0  0  0  0
  184.1560  178.1850  140.7490 C   0  0  0  0  0  3  0  0  0  0  0  0
  188.0360  177.6970  146.0280 C   0  0  0  0  0  0  0  0  0  0  0  0
  187.8840  177.8410  147.4110 C   0  0  0  0  0  3  0  0  0  0  0  0
  188.6620  177.2330  141.9640 N   0  0  0  0  0  0  0  0  0  0  0  0
  186.4380  177.7050  141.4050 C   0  0  0  0  0  0  0  0  0  0  0  0
  185.4680  177.8530  140.4080 C   0  0  0  0  0  3  0  0  0  0  0  0
  193.3810  173.8050  142.4020 C   0  0  1  0  0  3  0  0  0  0  0  0
  193.0920  176.1540  142.3540 C   0  0  0  0  0  2  0  0  0  0  0  0
  194.5520  175.1660  145.4740 O   0  0  0  0  0  0  0  0  0  0  0  0
  192.8630  172.4850  141.8740 C   0  0  0  0  0  1  0  0  0  0  0  0
  192.4590  174.8760  142.0280 N   0  0  0  0  0  2  0  0  0  0  0  0
  193.8500  175.0780  144.4800 C   0  0  0  0  0  0  0  0  0  0  0  0
  193.2540  176.3180  143.8700 C   0  0  2  0  0  3  0  0  0  0  0  0
  193.5160  173.7270  143.9210 C   0  0  0  0  0  2  0  0  0  0  0  0
  1 11  1  0  0  0  0
  1  8  1  0  0  0  0
  2  7  1  0  0  0  0
  3  9  1  0  0  0  0
  3  2  2  0  0  0  0
  5  4  2  0  0  0  0
  6 13  1  0  0  0  0
  6  9  2  0  0  0  0
  7 17  1  0  0  0  0
  7 19  2  0  0  0  0
 10 14  2  0  0  0  0
 12 22  2  0  0  0  0
 12 21  1  0  0  0  0
 14 19  1  0  0  0  0
 15  2  1  0  0  0  0
 15 10  1  0  0  0  0
 16 10  1  0  0  0  0
 16  5  1  0  0  0  0
 17  1  2  0  0  0  0
 18  6  1  0  0  0  0
 19 20  1  0  0  0  0
 20  8  2  0  0  0  0
 21 15  2  0  0  0  0
 22  3  1  0  0  0  0
 23 18  2  0  0  0  0
 23 22  1  0  0  0  0
 24 27  1  1  0  0  0
 24 31  1  0  0  0  0
 25 30  1  0  0  0  0
 28 25  1  0  0  0  0
 28 24  1  0  0  0  0
 29 26  2  0  0  0  0
 30 29  1  0  0  0  0
 30  5  1  1  0  0  0
 31 29  1  0  0  0  0
M  END
>  <MODEL>
4

>  <REMARK>
 VINA RESULT:      -8.9      1.054      1.273
  Name = 
  1 active torsions:
  status: ('A' for Active; 'I' for Inactive)
    1  A    between atoms: C_5  and  C_30
                            x       y       z     vdW  Elec       q    Type
                         _______ _______ _______ _____ _____    ______ ____

>  <TORSDO>
F 1

$$$$
=
 OpenBabel11112416553D

 31 35  0  0  1  0  0  0  0  0999 V2000
  190.8730  176.6750  147.3470 C   0  0  0  0  0  0  0  0  0  0  0  0
  188.3910  176.1480  144.5650 C   0  0  0  0  0  0  0  0  0  0  0  0
  187.2610  176.9720  144.8450 C   0  0  0  0  0  0  0  0  0  0  0  0
  191.4460  172.6950  142.0010 O   0  0  0  0  0  0  0  0  0  0  0  0
  190.3680  172.8470  141.3700 C   0  0  0  0  0  0  0  0  0  0  0  0
  186.0460  178.5910  146.2110 C   0  0  0  0  0  0  0  0  0  0  0  0
  189.5560  176.0600  145.3840 C   0  0  0  0  0  0  0  0  0  0  0  0
  191.9000  175.8220  146.9420 C   0  0  0  0  0  3  0  0  0  0  0  0
  187.1730  177.8000  145.9770 C   0  0  0  0  0  3  0  0  0  0  0  0
  189.4180  174.5270  143.0460 C   0  0  0  0  0  0  0  0  0  0  0  0
  190.9990  177.3910  148.4890 F   0  0  0  0  0  0  0  0  0  0  0  0
  186.2080  176.1800  142.8410 N   0  0  0  0  0  0  0  0  0  0  0  0
  185.9740  179.6100  147.6330 Cl  0  0  0  0  0  0  0  0  0  0  0  0
  190.5100  174.4700  143.8500 N   0  0  0  0  0  0  0  0  0  0  0  0
  188.3450  175.3610  143.3860 C   0  0  0  0  0  0  0  0  0  0  0  0
  189.3530  173.7390  141.8490 N   0  0  0  0  0  2  0  0  0  0  0  0
  189.7150  176.7900  146.5750 C   0  0  0  0  0  3  0  0  0  0  0  0
  184.9800  178.5690  145.3130 C   0  0  0  0  0  3  0  0  0  0  0  0
  190.6100  175.1980  144.9880 C   0  0  0  0  0  0  0  0  0  0  0  0
  191.7670  175.0860  145.7650 C   0  0  0  0  0  3  0  0  0  0  0  0
  187.2570  175.4090  142.5720 N   0  0  0  0  0  0  0  0  0  0  0  0
  186.1680  176.9620  143.9450 C   0  0  0  0  0  0  0  0  0  0  0  0
  185.0410  177.7560  144.1820 C   0  0  0  0  0  3  0  0  0  0  0  0
  190.8870  173.4120  137.6080 C   0  0  1  0  0  3  0  0  0  0  0  0
  191.4740  171.9030  139.3340 C   0  0  0  0  0  2  0  0  0  0  0  0
  187.9420  172.5080  139.3880 O   0  0  0  0  0  0  0  0  0  0  0  0
  191.3790  174.5490  136.7390 C   0  0  0  0  0  1  0  0  0  0  0  0
  191.8670  173.1380  138.6570 N   0  0  0  0  0  2  0  0  0  0  0  0
  189.1260  172.7560  139.2290 C   0  0  0  0  0  0  0  0  0  0  0  0
  190.1570  172.0880  140.0980 C   0  0  2  0  0  3  0  0  0  0  0  0
  189.5420  173.7890  138.2230 C   0  0  0  0  0  2  0  0  0  0  0  0
  1 11  1  0  0  0  0
  2  3  1  0  0  0  0
  2  7  1  0  0  0  0
  3  9  1  0  0  0  0
  5 16  1  0  0  0  0
  5  4  2  0  0  0  0
  6 13  1  0  0  0  0
  7 17  1  0  0  0  0
  8  1  1  0  0  0  0
  9  6  2  0  0  0  0
 10 15  1  0  0  0  0
 10 14  2  0  0  0  0
 12 22  1  0  0  0  0
 14 19  1  0  0  0  0
 15  2  2  0  0  0  0
 16 10  1  0  0  0  0
 17  1  2  0  0  0  0
 18  6  1  0  0  0  0
 19  7  2  0  0  0  0
 19 20  1  0  0  0  0
 20  8  2  0  0  0  0
 21 12  2  0  0  0  0
 21 15  1  0  0  0  0
 22 23  1  0  0  0  0
 22  3  2  0  0  0  0
 23 18  2  0  0  0  0
 24 27  1  6  0  0  0
 24 31  1  0  0  0  0
 24 28  1  0  0  0  0
 25 30  1  0  0  0  0
 28 25  1  0  0  0  0
 29 26  2  0  0  0  0
 29 30  1  0  0  0  0
 30  5  1  1  0  0  0
 31 29  1  0  0  0  0
M  END
>  <MODEL>
5

>  <REMARK>
 VINA RESULT:      -8.9      4.266      5.733
  Name = 
  1 active torsions:
  status: ('A' for Active; 'I' for Inactive)
    1  A    between atoms: C_5  and  C_30
                            x       y       z     vdW  Elec       q    Type
                         _______ _______ _______ _____ _____    ______ ____

>  <TORSDO>
F 1

$$$$
=
 OpenBabel11112416553D

 31 35  0  0  1  0  0  0  0  0999 V2000
  190.8010  176.7640  147.1350 C   0  0  0  0  0  0  0  0  0  0  0  0
  188.2390  176.5480  144.3840 C   0  0  0  0  0  0  0  0  0  0  0  0
  187.0880  177.2680  144.8200 C   0  0  0  0  0  0  0  0  0  0  0  0
  191.3320  173.6580  141.2340 O   0  0  0  0  0  0  0  0  0  0  0  0
  190.2260  173.8540  140.6670 C   0  0  0  0  0  0  0  0  0  0  0  0
  185.8620  178.6080  146.4530 C   0  0  0  0  0  0  0  0  0  0  0  0
  189.4370  176.3900  145.1440 C   0  0  0  0  0  0  0  0  0  0  0  0
  191.8450  176.0290  146.5740 C   0  0  0  0  0  3  0  0  0  0  0  0
  187.0100  177.9130  146.0670 C   0  0  0  0  0  3  0  0  0  0  0  0
  189.2730  175.2200  142.6070 C   0  0  0  0  0  0  0  0  0  0  0  0
  190.9410  177.3060  148.3680 F   0  0  0  0  0  0  0  0  0  0  0  0
  185.9940  176.7390  142.7530 N   0  0  0  0  0  0  0  0  0  0  0  0
  185.8030  179.3990  148.0130 Cl  0  0  0  0  0  0  0  0  0  0  0  0
  190.3960  175.0930  143.3580 N   0  0  0  0  0  0  0  0  0  0  0  0
  188.1810  175.9440  143.1020 C   0  0  0  0  0  0  0  0  0  0  0  0
  189.1940  174.6180  141.3070 N   0  0  0  0  0  2  0  0  0  0  0  0
  189.6110  176.9410  146.4260 C   0  0  0  0  0  3  0  0  0  0  0  0
  184.7650  178.6730  145.5950 C   0  0  0  0  0  3  0  0  0  0  0  0
  190.5090  175.6450  144.5900 C   0  0  0  0  0  0  0  0  0  0  0  0
  191.6970  175.4710  145.3050 C   0  0  0  0  0  3  0  0  0  0  0  0
  187.0620  176.0650  142.3390 N   0  0  0  0  0  0  0  0  0  0  0  0
  185.9640  177.3440  143.9630 C   0  0  0  0  0  0  0  0  0  0  0  0
  184.8160  178.0410  144.3530 C   0  0  0  0  0  3  0  0  0  0  0  0
  191.2430  170.7260  138.6880 C   0  0  1  0  0  3  0  0  0  0  0  0
  189.3160  171.9140  139.3770 C   0  0  0  0  0  2  0  0  0  0  0  0
  191.6710  174.1650  137.8850 O   0  0  0  0  0  0  0  0  0  0  0  0
  192.1050  169.5100  138.9490 C   0  0  0  0  0  1  0  0  0  0  0  0
  190.2680  170.8740  139.7670 N   0  0  0  0  0  2  0  0  0  0  0  0
  191.2820  173.2020  138.5240 C   0  0  0  0  0  0  0  0  0  0  0  0
  189.9970  173.2850  139.3020 C   0  0  2  0  0  3  0  0  0  0  0  0
  192.1290  171.9650  138.5980 C   0  0  0  0  0  2  0  0  0  0  0  0
  1 11  1  0  0  0  0
  2  3  1  0  0  0  0
  2  7  1  0  0  0  0
  3  9  1  0  0  0  0
  5  4  2  0  0  0  0
  5 16  1  0  0  0  0
  6 13  1  0  0  0  0
  7 17  1  0  0  0  0
  8  1  1  0  0  0  0
  9  6  2  0  0  0  0
 10 15  1  0  0  0  0
 10 14  2  0  0  0  0
 12 22  1  0  0  0  0
 14 19  1  0  0  0  0
 15  2  2  0  0  0  0
 16 10  1  0  0  0  0
 17  1  2  0  0  0  0
 18  6  1  0  0  0  0
 19  7  2  0  0  0  0
 19 20  1  0  0  0  0
 20  8  2  0  0  0  0
 21 12  2  0  0  0  0
 21 15  1  0  0  0  0
 22 23  1  0  0  0  0
 22  3  2  0  0  0  0
 23 18  2  0  0  0  0
 24 27  1  1  0  0  0
 24 28  1  0  0  0  0
 25 28  1  0  0  0  0
 26 29  2  0  0  0  0
 29 31  1  0  0  0  0
 29 30  1  0  0  0  0
 30 25  1  0  0  0  0
 30  5  1  1  0  0  0
 31 24  1  0  0  0  0
M  END
>  <MODEL>
6

>  <REMARK>
 VINA RESULT:      -8.5      4.248      5.464
  Name = 
  1 active torsions:
  status: ('A' for Active; 'I' for Inactive)
    1  A    between atoms: C_5  and  C_30
                            x       y       z     vdW  Elec       q    Type
                         _______ _______ _______ _____ _____    ______ ____

>  <TORSDO>
F 1

$$$$
=
 OpenBabel11112416553D

 31 35  0  0  1  0  0  0  0  0999 V2000
  185.4710  177.9140  141.0330 C   0  0  0  0  0  0  0  0  0  0  0  0
  187.3360  176.7030  144.0710 C   0  0  0  0  0  0  0  0  0  0  0  0
  186.5800  177.0930  145.2150 C   0  0  0  0  0  0  0  0  0  0  0  0
  191.2440  174.5410  141.2610 O   0  0  0  0  0  0  0  0  0  0  0  0
  191.4690  174.3720  142.4880 C   0  0  0  0  0  0  0  0  0  0  0  0
  184.6590  178.1620  146.2800 C   0  0  0  0  0  0  0  0  0  0  0  0
  186.9670  176.9750  142.7190 C   0  0  0  0  0  0  0  0  0  0  0  0
  186.3160  177.4680  140.0160 C   0  0  0  0  0  3  0  0  0  0  0  0
  185.3680  177.8000  145.1320 C   0  0  0  0  0  3  0  0  0  0  0  0
  189.3390  175.5790  143.2260 C   0  0  0  0  0  0  0  0  0  0  0  0
  184.3370  178.5850  140.7240 F   0  0  0  0  0  0  0  0  0  0  0  0
  188.2270  176.0780  146.6310 N   0  0  0  0  0  0  0  0  0  0  0  0
  183.1530  179.0410  146.1360 Cl  0  0  0  0  0  0  0  0  0  0  0  0
  188.9550  175.8560  141.9540 N   0  0  0  0  0  0  0  0  0  0  0  0
  188.5430  175.9940  144.3010 C   0  0  0  0  0  0  0  0  0  0  0  0
  190.5560  174.8630  143.4790 N   0  0  0  0  0  2  0  0  0  0  0  0
  185.7960  177.6690  142.3680 C   0  0  0  0  0  3  0  0  0  0  0  0
  185.1510  177.8220  147.5390 C   0  0  0  0  0  3  0  0  0  0  0  0
  187.8140  176.5290  141.6730 C   0  0  0  0  0  0  0  0  0  0  0  0
  187.4850  176.7780  140.3380 C   0  0  0  0  0  3  0  0  0  0  0  0
  188.9390  175.7100  145.5700 N   0  0  0  0  0  0  0  0  0  0  0  0
  187.0640  176.7580  146.5020 C   0  0  0  0  0  0  0  0  0  0  0  0
  186.3530  177.1210  147.6500 C   0  0  0  0  0  3  0  0  0  0  0  0
  194.2290  174.7370  145.1310 C   0  0  1  0  0  3  0  0  0  0  0  0
  192.6140  173.1840  144.3680 C   0  0  0  0  0  2  0  0  0  0  0  0
  194.4890  174.4610  141.5940 O   0  0  0  0  0  0  0  0  0  0  0  0
  194.5660  175.7380  146.2160 C   0  0  0  0  0  1  0  0  0  0  0  0
  192.8410  174.3040  145.2820 N   0  0  0  0  0  2  0  0  0  0  0  0
  193.9360  174.4720  142.6810 C   0  0  0  0  0  0  0  0  0  0  0  0
  192.7040  173.6390  142.9060 C   0  0  2  0  0  3  0  0  0  0  0  0
  194.4390  175.3820  143.7640 C   0  0  0  0  0  2  0  0  0  0  0  0
  1 17  1  0  0  0  0
  2 15  2  0  0  0  0
  2  3  1  0  0  0  0
  3 22  1  0  0  0  0
  4  5  2  0  0  0  0
  5 16  1  0  0  0  0
  6 18  2  0  0  0  0
  7  2  1  0  0  0  0
  8 20  1  0  0  0  0
  8  1  2  0  0  0  0
  9  3  2  0  0  0  0
  9  6  1  0  0  0  0
 10 16  1  0  0  0  0
 10 15  1  0  0  0  0
 11  1  1  0  0  0  0
 13  6  1  0  0  0  0
 14 10  2  0  0  0  0
 15 21  1  0  0  0  0
 17  7  2  0  0  0  0
 18 23  1  0  0  0  0
 19 14  1  0  0  0  0
 19  7  1  0  0  0  0
 20 19  2  0  0  0  0
 21 12  2  0  0  0  0
 22 12  1  0  0  0  0
 22 23  2  0  0  0  0
 24 28  1  0  0  0  0
 24 27  1  1  0  0  0
 25 28  1  0  0  0  0
 26 29  2  0  0  0  0
 29 30  1  0  0  0  0
 29 31  1  0  0  0  0
 30  5  1  1  0  0  0
 30 25  1  0  0  0  0
 31 24  1  0  0  0  0
M  END
>  <MODEL>
7

>  <REMARK>
 VINA RESULT:      -8.3      2.367      4.421
  Name = 
  1 active torsions:
  status: ('A' for Active; 'I' for Inactive)
    1  A    between atoms: C_5  and  C_30
                            x       y       z     vdW  Elec       q    Type
                         _______ _______ _______ _____ _____    ______ ____

>  <TORSDO>
F 1

$$$$
=
 OpenBabel11112416553D

 31 35  0  0  1  0  0  0  0  0999 V2000
  194.9790  175.1370  145.8220 C   0  0  0  0  0  0  0  0  0  0  0  0
  191.7530  173.5660  144.6810 C   0  0  0  0  0  0  0  0  0  0  0  0
  192.0910  172.3980  143.9370 C   0  0  0  0  0  0  0  0  0  0  0  0
  188.7320  177.2420  146.9630 O   0  0  0  0  0  0  0  0  0  0  0  0
  187.9990  176.4040  146.3770 C   0  0  0  0  0  0  0  0  0  0  0  0
  193.7000  170.8290  142.9830 C   0  0  0  0  0  0  0  0  0  0  0  0
  192.6980  174.4470  145.2870 C   0  0  0  0  0  0  0  0  0  0  0  0
  194.4950  176.2430  146.5200 C   0  0  0  0  0  3  0  0  0  0  0  0
  193.4150  171.9810  143.7180 C   0  0  0  0  0  3  0  0  0  0  0  0
  189.9660  175.0020  145.5410 C   0  0  0  0  0  0  0  0  0  0  0  0
  196.3130  174.9220  145.7340 F   0  0  0  0  0  0  0  0  0  0  0  0
  189.7590  171.9740  143.5730 N   0  0  0  0  0  0  0  0  0  0  0  0
  195.3620  170.3410  142.7310 Cl  0  0  0  0  0  0  0  0  0  0  0  0
  190.8950  175.8160  146.1040 N   0  0  0  0  0  0  0  0  0  0  0  0
  190.3750  173.8700  144.8240 C   0  0  0  0  0  0  0  0  0  0  0  0
  188.5680  175.2910  145.6740 N   0  0  0  0  0  2  0  0  0  0  0  0
  194.0880  174.2500  145.2130 C   0  0  0  0  0  3  0  0  0  0  0  0
  192.6610  170.0660  142.4500 C   0  0  0  0  0  3  0  0  0  0  0  0
  192.2240  175.5770  146.0000 C   0  0  0  0  0  0  0  0  0  0  0  0
  193.1210  176.4620  146.6070 C   0  0  0  0  0  3  0  0  0  0  0  0
  189.4340  173.0620  144.2650 N   0  0  0  0  0  0  0  0  0  0  0  0
  191.0490  171.6120  143.3880 C   0  0  0  0  0  0  0  0  0  0  0  0
  191.3380  170.4580  142.6520 C   0  0  0  0  0  3  0  0  0  0  0  0
  185.3780  178.8800  145.0580 C   0  0  1  0  0  3  0  0  0  0  0  0
  185.9020  176.5720  145.0240 C   0  0  0  0  0  2  0  0  0  0  0  0
  186.0160  177.8010  148.3880 O   0  0  0  0  0  0  0  0  0  0  0  0
  185.4050  180.1660  144.2610 C   0  0  0  0  0  1  0  0  0  0  0  0
  186.1320  177.8490  144.3480 N   0  0  0  0  0  2  0  0  0  0  0  0
  186.1340  177.8270  147.1740 C   0  0  0  0  0  0  0  0  0  0  0  0
  186.5130  176.5750  146.4300 C   0  0  2  0  0  3  0  0  0  0  0  0
  185.9840  179.1250  146.4370 C   0  0  0  0  0  2  0  0  0  0  0  0
  1  8  1  0  0  0  0
  2 15  1  0  0  0  0
  2  7  1  0  0  0  0
  3  2  2  0  0  0  0
  5  4  2  0  0  0  0
  6  9  2  0  0  0  0
  7 19  2  0  0  0  0
  8 20  2  0  0  0  0
  9  3  1  0  0  0  0
 10 16  1  0  0  0  0
 10 14  2  0  0  0  0
 11  1  1  0  0  0  0
 12 21  1  0  0  0  0
 13  6  1  0  0  0  0
 15 10  1  0  0  0  0
 16  5  1  0  0  0  0
 17  7  1  0  0  0  0
 17  1  2  0  0  0  0
 18 23  2  0  0  0  0
 18  6  1  0  0  0  0
 19 14  1  0  0  0  0
 19 20  1  0  0  0  0
 21 15  2  0  0  0  0
 22 12  2  0  0  0  0
 22  3  1  0  0  0  0
 23 22  1  0  0  0  0
 24 27  1  6  0  0  0
 24 31  1  0  0  0  0
 25 30  1  0  0  0  0
 28 25  1  0  0  0  0
 28 24  1  0  0  0  0
 29 26  2  0  0  0  0
 30  5  1  6  0  0  0
 30 29  1  0  0  0  0
 31 29  1  0  0  0  0
M  END
>  <MODEL>
8

>  <REMARK>
 VINA RESULT:      -8.2      4.575      8.581
  Name = 
  1 active torsions:
  status: ('A' for Active; 'I' for Inactive)
    1  A    between atoms: C_5  and  C_30
                            x       y       z     vdW  Elec       q    Type
                         _______ _______ _______ _____ _____    ______ ____

>  <TORSDO>
F 1

$$$$
=
 OpenBabel11112416553D

 31 35  0  0  1  0  0  0  0  0999 V2000
  194.2840  175.8630  143.8190 C   0  0  0  0  0  0  0  0  0  0  0  0
  190.6890  175.1680  142.9430 C   0  0  0  0  0  0  0  0  0  0  0  0
  190.6850  174.4520  141.7110 C   0  0  0  0  0  0  0  0  0  0  0  0
  188.7970  177.5580  147.2510 O   0  0  0  0  0  0  0  0  0  0  0  0
  187.8400  177.1220  146.5610 C   0  0  0  0  0  0  0  0  0  0  0  0
  191.8060  173.4060  139.8100 C   0  0  0  0  0  0  0  0  0  0  0  0
  191.8630  175.6210  143.6180 C   0  0  0  0  0  0  0  0  0  0  0  0
  194.1280  176.5540  145.0210 C   0  0  0  0  0  3  0  0  0  0  0  0
  191.8570  174.1090  141.0160 C   0  0  0  0  0  3  0  0  0  0  0  0
  189.3570  176.1490  144.7470 C   0  0  0  0  0  0  0  0  0  0  0  0
  195.5240  175.6390  143.3230 F   0  0  0  0  0  0  0  0  0  0  0  0
  188.2890  174.3720  141.7840 N   0  0  0  0  0  0  0  0  0  0  0  0
  193.2880  172.9950  138.9740 Cl  0  0  0  0  0  0  0  0  0  0  0  0
  190.4950  176.5640  145.3590 N   0  0  0  0  0  0  0  0  0  0  0  0
  189.4310  175.4490  143.5360 C   0  0  0  0  0  0  0  0  0  0  0  0
  188.0750  176.4230  145.3300 N   0  0  0  0  0  2  0  0  0  0  0  0
  193.1620  175.4030  143.1270 C   0  0  0  0  0  3  0  0  0  0  0  0
  190.5750  173.0300  139.2740 C   0  0  0  0  0  3  0  0  0  0  0  0
  191.7230  176.3260  144.8400 C   0  0  0  0  0  0  0  0  0  0  0  0
  192.8500  176.7840  145.5290 C   0  0  0  0  0  3  0  0  0  0  0  0
  188.2830  175.0390  142.9330 N   0  0  0  0  0  0  0  0  0  0  0  0
  189.4440  174.0630  141.1500 C   0  0  0  0  0  0  0  0  0  0  0  0
  189.3960  173.3590  139.9430 C   0  0  0  0  0  3  0  0  0  0  0  0
  184.5200  178.4490  145.1610 C   0  0  1  0  0  3  0  0  0  0  0  0
  185.4340  176.5330  146.2070 C   0  0  0  0  0  2  0  0  0  0  0  0
  186.3510  179.4770  148.0320 O   0  0  0  0  0  0  0  0  0  0  0  0
  184.0550  179.0360  143.8450 C   0  0  0  0  0  1  0  0  0  0  0  0
  185.1970  177.1770  144.9150 N   0  0  0  0  0  2  0  0  0  0  0  0
  186.0800  178.7930  147.0590 C   0  0  0  0  0  0  0  0  0  0  0  0
  186.4390  177.3320  147.0450 C   0  0  2  0  0  3  0  0  0  0  0  0
  185.4660  179.4300  145.8470 C   0  0  0  0  0  2  0  0  0  0  0  0
  1  8  1  0  0  0  0
  2 15  1  0  0  0  0
  2  7  1  0  0  0  0
  3  2  2  0  0  0  0
  5  4  2  0  0  0  0
  6  9  2  0  0  0  0
  7 19  2  0  0  0  0
  8 20  2  0  0  0  0
  9  3  1  0  0  0  0
 10 16  1  0  0  0  0
 10 14  2  0  0  0  0
 11  1  1  0  0  0  0
 12 21  1  0  0  0  0
 13  6  1  0  0  0  0
 15 10  1  0  0  0  0
 16  5  1  0  0  0  0
 17  7  1  0  0  0  0
 17  1  2  0  0  0  0
 18  6  1  0  0  0  0
 18 23  2  0  0  0  0
 19 14  1  0  0  0  0
 19 20  1  0  0  0  0
 21 15  2  0  0  0  0
 22  3  1  0  0  0  0
 22 12  2  0  0  0  0
 23 22  1  0  0  0  0
 24 27  1  6  0  0  0
 24 31  1  0  0  0  0
 25 30  1  0  0  0  0
 28 24  1  0  0  0  0
 28 25  1  0  0  0  0
 29 26  2  0  0  0  0
 30  5  1  6  0  0  0
 30 29  1  0  0  0  0
 31 29  1  0  0  0  0
M  END
>  <MODEL>
9

>  <REMARK>
 VINA RESULT:      -8.2      4.193      7.599
  Name = 
  1 active torsions:
  status: ('A' for Active; 'I' for Inactive)
    1  A    between atoms: C_5  and  C_30
                            x       y       z     vdW  Elec       q    Type
                         _______ _______ _______ _____ _____    ______ ____

>  <TORSDO>
F 1

$$$$
