=
 OpenBabel11112416203D

 30 35  0  0  1  0  0  0  0  0999 V2000
  186.2760  177.2470  143.6990 C   0  0  0  0  0  0  0  0  0  0  0  0
  184.6770  178.3210  145.3270 C   0  0  0  0  0  0  0  0  0  0  0  0
  188.7060  175.9710  146.7630 N   0  0  0  0  0  0  0  0  0  0  0  0
  187.4610  176.5040  143.4750 C   0  0  0  0  0  0  0  0  0  0  0  0
  185.4800  177.6060  142.5590 N   0  0  0  0  0  0  0  0  0  0  0  0
  188.0900  177.9870  140.7340 O   0  0  0  0  0  1  0  0  0  0  0  0
  190.0350  175.2190  142.1780 C   0  0  1  0  0  3  0  0  0  0  0  0
  187.2380  176.9160  141.0100 C   0  0  2  0  0  3  0  0  0  0  0  0
  190.3780  175.0030  143.6440 C   0  0  2  0  0  3  0  0  0  0  0  0
  189.6560  175.3840  146.0030 C   0  0  0  0  0  0  0  0  0  0  0  0
  185.8670  177.4410  141.3260 C   0  0  0  0  0  0  0  0  0  0  0  0
  187.7770  176.1370  142.1230 N   0  0  0  0  0  0  0  0  0  0  0  0
  184.3420  178.5940  146.6570 C   0  0  0  0  0  3  0  0  0  0  0  0
  190.7500  173.5390  143.7650 C   0  0  0  0  0  2  0  0  0  0  0  0
  190.9230  174.2370  141.4290 C   0  0  0  0  0  2  0  0  0  0  0  0
  183.5640  178.9660  144.1280 Cl  0  0  0  0  0  0  0  0  0  0  0  0
  187.8210  176.4160  145.8560 C   0  0  0  0  0  0  0  0  0  0  0  0
  185.1430  178.1540  147.7060 C   0  0  0  0  0  3  0  0  0  0  0  0
  185.8560  177.5760  145.0280 C   0  0  0  0  0  0  0  0  0  0  0  0
  188.2270  176.1050  144.5860 C   0  0  0  0  0  0  0  0  0  0  0  0
  190.8950  174.8080  146.6040 C   0  0  0  0  0  1  0  0  0  0  0  0
  189.4040  175.4320  144.6650 N   0  0  0  0  0  0  0  0  0  0  0  0
  191.3770  173.1830  142.4310 C   0  0  0  0  0  2  0  0  0  0  0  0
  187.9590  173.6890  142.3240 C   0  0  0  0  0  1  0  0  0  0  0  0
  186.2990  177.4300  147.4390 C   0  0  0  0  0  3  0  0  0  0  0  0
  186.6590  177.1370  146.1210 C   0  0  0  0  0  0  0  0  0  0  0  0
  188.5810  174.9780  141.7910 C   0  0  2  0  0  3  0  0  0  0  0  0
  185.0290  177.7930  140.2660 O   0  0  0  0  0  0  0  0  0  0  0  0
  182.6350  177.8460  140.3710 C   0  0  0  0  0  1  0  0  0  0  0  0
  183.9130  178.6560  140.4350 C   0  0  0  0  0  2  0  0  0  0  0  0
  1 19  1  0  0  0  0
  2 13  1  0  0  0  0
  4  1  2  0  0  0  0
  4 20  1  0  0  0  0
  5  1  1  0  0  0  0
  7 15  1  6  0  0  0
  7  9  1  0  0  0  0
  8  6  1  1  0  0  0
  8 11  1  0  0  0  0
  8 12  1  0  0  0  0
  9 14  1  6  0  0  0
  9 22  1  0  0  0  0
 10 21  1  0  0  0  0
 10  3  2  0  0  0  0
 11  5  2  0  0  0  0
 12  4  1  0  0  0  0
 13 18  2  0  0  0  0
 15 23  1  0  0  0  0
 16  2  1  0  0  0  0
 17 26  1  0  0  0  0
 17  3  1  0  0  0  0
 19  2  2  0  0  0  0
 19 26  1  0  0  0  0
 20 22  1  0  0  0  0
 20 17  2  0  0  0  0
 22 10  1  0  0  0  0
 23 14  1  0  0  0  0
 25 18  1  0  0  0  0
 26 25  2  0  0  0  0
 27 12  1  0  0  0  0
 27  7  1  0  0  0  0
 27 24  1  1  0  0  0
 28 30  1  0  0  0  0
 28 11  1  0  0  0  0
 29 30  1  0  0  0  0
M  END
>  <MODEL>
1

>  <REMARK>
 VINA RESULT:      -8.7      0.000      0.000
  Name = 
  2 active torsions:
  status: ('A' for Active; 'I' for Inactive)
    1  A    between atoms: C_11  and  O_28
    2  A    between atoms: O_28  and  C_30
                            x       y       z     vdW  Elec       q    Type
                         _______ _______ _______ _____ _____    ______ ____

>  <TORSDO>
F 2

$$$$
=
 OpenBabel11112416203D

 30 35  0  0  1  0  0  0  0  0999 V2000
  186.7260  177.5300  143.9920 C   0  0  0  0  0  0  0  0  0  0  0  0
  184.8620  178.4090  145.4450 C   0  0  0  0  0  0  0  0  0  0  0  0
  189.1570  176.9740  147.2640 N   0  0  0  0  0  0  0  0  0  0  0  0
  188.0390  177.0070  143.8890 C   0  0  0  0  0  0  0  0  0  0  0  0
  185.9500  177.6440  142.7890 N   0  0  0  0  0  0  0  0  0  0  0  0
  188.5530  178.3650  141.0600 O   0  0  0  0  0  1  0  0  0  0  0  0
  190.8790  176.1300  142.8280 C   0  0  1  0  0  3  0  0  0  0  0  0
  187.8950  177.1780  141.3890 C   0  0  2  0  0  3  0  0  0  0  0  0
  191.1650  176.0970  144.3220 C   0  0  2  0  0  3  0  0  0  0  0  0
  190.2420  176.5180  146.6020 C   0  0  0  0  0  0  0  0  0  0  0  0
  186.4350  177.4590  141.5950 C   0  0  0  0  0  0  0  0  0  0  0  0
  188.4980  176.6030  142.5900 N   0  0  0  0  0  0  0  0  0  0  0  0
  184.4020  178.7180  146.7290 C   0  0  0  0  0  3  0  0  0  0  0  0
  191.7910  174.7430  144.5880 C   0  0  0  0  0  2  0  0  0  0  0  0
  191.9750  175.2770  142.2100 C   0  0  0  0  0  2  0  0  0  0  0  0
  183.7240  178.7400  144.1440 Cl  0  0  0  0  0  0  0  0  0  0  0  0
  188.2620  177.1740  146.2820 C   0  0  0  0  0  0  0  0  0  0  0  0
  185.2030  178.5180  147.8480 C   0  0  0  0  0  3  0  0  0  0  0  0
  186.1730  177.8780  145.2660 C   0  0  0  0  0  0  0  0  0  0  0  0
  188.7950  176.8470  145.0650 C   0  0  0  0  0  0  0  0  0  0  0  0
  191.5260  176.2330  147.3080 C   0  0  0  0  0  1  0  0  0  0  0  0
  190.0680  176.4140  145.2560 N   0  0  0  0  0  0  0  0  0  0  0  0
  192.5520  174.4080  143.3200 C   0  0  0  0  0  2  0  0  0  0  0  0
  189.1130  174.2550  143.0130 C   0  0  0  0  0  1  0  0  0  0  0  0
  186.4860  178.0040  147.6990 C   0  0  0  0  0  3  0  0  0  0  0  0
  186.9740  177.6830  146.4290 C   0  0  0  0  0  0  0  0  0  0  0  0
  189.5200  175.5920  142.3980 C   0  0  2  0  0  3  0  0  0  0  0  0
  185.6130  177.5660  140.4710 O   0  0  0  0  0  0  0  0  0  0  0  0
  183.2560  177.9930  140.3900 C   0  0  0  0  0  1  0  0  0  0  0  0
  184.6440  178.5950  140.3340 C   0  0  0  0  0  2  0  0  0  0  0  0
  1 19  1  0  0  0  0
  2 13  1  0  0  0  0
  4  1  2  0  0  0  0
  4 20  1  0  0  0  0
  5  1  1  0  0  0  0
  7 15  1  6  0  0  0
  7  9  1  0  0  0  0
  8  6  1  1  0  0  0
  8 11  1  0  0  0  0
  8 12  1  0  0  0  0
  9 14  1  1  0  0  0
  9 22  1  0  0  0  0
 10  3  2  0  0  0  0
 10 21  1  0  0  0  0
 11  5  2  0  0  0  0
 12  4  1  0  0  0  0
 13 18  2  0  0  0  0
 15 23  1  0  0  0  0
 16  2  1  0  0  0  0
 17 26  1  0  0  0  0
 17  3  1  0  0  0  0
 19  2  2  0  0  0  0
 19 26  1  0  0  0  0
 20 22  1  0  0  0  0
 20 17  2  0  0  0  0
 22 10  1  0  0  0  0
 23 14  1  0  0  0  0
 25 18  1  0  0  0  0
 26 25  2  0  0  0  0
 27 12  1  0  0  0  0
 27  7  1  0  0  0  0
 27 24  1  1  0  0  0
 28 11  1  0  0  0  0
 30 29  1  0  0  0  0
 30 28  1  0  0  0  0
M  END
>  <MODEL>
2

>  <REMARK>
 VINA RESULT:      -8.6      1.052      1.074
  Name = 
  2 active torsions:
  status: ('A' for Active; 'I' for Inactive)
    1  A    between atoms: C_11  and  O_28
    2  A    between atoms: O_28  and  C_30
                            x       y       z     vdW  Elec       q    Type
                         _______ _______ _______ _____ _____    ______ ____

>  <TORSDO>
F 2

$$$$
=
 OpenBabel11112416203D

 30 35  0  0  1  0  0  0  0  0999 V2000
  189.6570  175.5180  144.0410 C   0  0  0  0  0  0  0  0  0  0  0  0
  191.7230  174.9400  145.3660 C   0  0  0  0  0  0  0  0  0  0  0  0
  188.0620  177.5780  147.2250 N   0  0  0  0  0  0  0  0  0  0  0  0
  188.3990  176.1660  143.9780 C   0  0  0  0  0  0  0  0  0  0  0  0
  190.1370  174.8630  142.8570 N   0  0  0  0  0  0  0  0  0  0  0  0
  187.1680  173.9840  142.0210 O   0  0  0  0  0  1  0  0  0  0  0  0
  185.4720  177.0350  143.1810 C   0  0  1  0  0  3  0  0  0  0  0  0
  187.9720  175.0930  141.7510 C   0  0  2  0  0  3  0  0  0  0  0  0
  185.5270  177.6440  144.5740 C   0  0  2  0  0  3  0  0  0  0  0  0
  186.8960  177.9290  146.6410 C   0  0  0  0  0  0  0  0  0  0  0  0
  189.4160  174.6810  141.7880 C   0  0  0  0  0  0  0  0  0  0  0  0
  187.6970  176.1450  142.7260 N   0  0  0  0  0  0  0  0  0  0  0  0
  192.4310  175.0440  146.5690 C   0  0  0  0  0  3  0  0  0  0  0  0
  185.0830  179.0830  144.4080 C   0  0  0  0  0  2  0  0  0  0  0  0
  184.3360  177.7690  142.4870 C   0  0  0  0  0  2  0  0  0  0  0  0
  192.5150  173.9930  144.1130 Cl  0  0  0  0  0  0  0  0  0  0  0  0
  188.6990  176.9040  146.2530 C   0  0  0  0  0  0  0  0  0  0  0  0
  191.9150  175.7520  147.6490 C   0  0  0  0  0  3  0  0  0  0  0  0
  190.4510  175.5680  145.2320 C   0  0  0  0  0  0  0  0  0  0  0  0
  187.9370  176.8520  145.1170 C   0  0  0  0  0  0  0  0  0  0  0  0
  185.8260  178.6440  147.3980 C   0  0  0  0  0  1  0  0  0  0  0  0
  186.7750  177.5170  145.3490 N   0  0  0  0  0  0  0  0  0  0  0  0
  184.0880  179.0560  143.2640 C   0  0  0  0  0  2  0  0  0  0  0  0
  187.3760  178.5540  142.3210 C   0  0  0  0  0  1  0  0  0  0  0  0
  190.6740  176.3710  147.5430 C   0  0  0  0  0  3  0  0  0  0  0  0
  189.9440  176.2880  146.3540 C   0  0  0  0  0  0  0  0  0  0  0  0
  186.7400  177.1660  142.3460 C   0  0  2  0  0  3  0  0  0  0  0  0
  189.9580  174.0530  140.6640 O   0  0  0  0  0  0  0  0  0  0  0  0
  190.2820  171.7110  141.0550 C   0  0  0  0  0  1  0  0  0  0  0  0
  190.9480  173.0400  140.7640 C   0  0  0  0  0  2  0  0  0  0  0  0
  1 19  1  0  0  0  0
  2 13  1  0  0  0  0
  4  1  2  0  0  0  0
  4 20  1  0  0  0  0
  5  1  1  0  0  0  0
  7 15  1  6  0  0  0
  7  9  1  0  0  0  0
  8 11  1  0  0  0  0
  8  6  1  1  0  0  0
  8 12  1  0  0  0  0
  9 14  1  6  0  0  0
  9 22  1  0  0  0  0
 10  3  2  0  0  0  0
 10 21  1  0  0  0  0
 11  5  2  0  0  0  0
 12  4  1  0  0  0  0
 13 18  2  0  0  0  0
 15 23  1  0  0  0  0
 16  2  1  0  0  0  0
 17 26  1  0  0  0  0
 17  3  1  0  0  0  0
 19  2  2  0  0  0  0
 19 26  1  0  0  0  0
 20 22  1  0  0  0  0
 20 17  2  0  0  0  0
 22 10  1  0  0  0  0
 23 14  1  0  0  0  0
 25 18  1  0  0  0  0
 26 25  2  0  0  0  0
 27 24  1  1  0  0  0
 27 12  1  0  0  0  0
 27  7  1  0  0  0  0
 28 30  1  0  0  0  0
 28 11  1  0  0  0  0
 30 29  1  0  0  0  0
M  END
>  <MODEL>
3

>  <REMARK>
 VINA RESULT:      -8.3      2.618      5.853
  Name = 
  2 active torsions:
  status: ('A' for Active; 'I' for Inactive)
    1  A    between atoms: C_11  and  O_28
    2  A    between atoms: O_28  and  C_30
                            x       y       z     vdW  Elec       q    Type
                         _______ _______ _______ _____ _____    ______ ____

>  <TORSDO>
F 2

$$$$
=
 OpenBabel11112416203D

 30 35  0  0  1  0  0  0  0  0999 V2000
  189.2780  175.2160  143.8410 C   0  0  0  0  0  0  0  0  0  0  0  0
  190.5350  173.4880  142.5020 C   0  0  0  0  0  0  0  0  0  0  0  0
  187.0360  176.2810  140.5600 N   0  0  0  0  0  0  0  0  0  0  0  0
  188.2770  176.2180  143.8920 C   0  0  0  0  0  0  0  0  0  0  0  0
  189.9720  174.8950  145.0560 N   0  0  0  0  0  0  0  0  0  0  0  0
  189.8590  177.9450  146.0420 O   0  0  0  0  0  1  0  0  0  0  0  0
  186.5170  178.7070  144.7080 C   0  0  1  0  0  3  0  0  0  0  0  0
  189.0300  176.8330  146.2050 C   0  0  2  0  0  3  0  0  0  0  0  0
  186.0410  178.5430  143.2720 C   0  0  2  0  0  3  0  0  0  0  0  0
  186.3130  177.2570  141.1500 C   0  0  0  0  0  0  0  0  0  0  0  0
  189.8600  175.5830  146.1560 C   0  0  0  0  0  0  0  0  0  0  0  0
  188.0070  176.8300  145.1620 N   0  0  0  0  0  0  0  0  0  0  0  0
  190.7250  172.8440  141.2750 C   0  0  0  0  0  3  0  0  0  0  0  0
  184.5270  178.5260  143.3430 C   0  0  0  0  0  2  0  0  0  0  0  0
  185.4320  179.5350  145.3780 C   0  0  0  0  0  2  0  0  0  0  0  0
  191.5960  172.9530  143.7990 Cl  0  0  0  0  0  0  0  0  0  0  0  0
  187.8080  175.8270  141.5610 C   0  0  0  0  0  0  0  0  0  0  0  0
  189.9630  173.1780  140.1610 C   0  0  0  0  0  3  0  0  0  0  0  0
  189.5440  174.5050  142.6260 C   0  0  0  0  0  0  0  0  0  0  0  0
  187.5570  176.5110  142.7190 C   0  0  0  0  0  0  0  0  0  0  0  0
  185.3580  178.1010  140.3730 C   0  0  0  0  0  1  0  0  0  0  0  0
  186.5880  177.4300  142.4720 N   0  0  0  0  0  0  0  0  0  0  0  0
  184.1810  179.4250  144.5150 C   0  0  0  0  0  2  0  0  0  0  0  0
  185.5930  176.3950  145.3950 C   0  0  0  0  0  1  0  0  0  0  0  0
  188.9930  174.1690  140.2560 C   0  0  0  0  0  3  0  0  0  0  0  0
  188.7770  174.8300  141.4690 C   0  0  0  0  0  0  0  0  0  0  0  0
  186.7230  177.4170  145.4930 C   0  0  2  0  0  3  0  0  0  0  0  0
  190.5510  175.1980  147.3080 O   0  0  0  0  0  0  0  0  0  0  0  0
  192.7070  176.1590  146.8950 C   0  0  0  0  0  1  0  0  0  0  0  0
  191.9430  174.9160  147.2990 C   0  0  0  0  0  2  0  0  0  0  0  0
  1  4  1  0  0  0  0
  1  5  1  0  0  0  0
  2 19  1  0  0  0  0
  2 16  1  0  0  0  0
  3 10  2  0  0  0  0
  3 17  1  0  0  0  0
  4 12  1  0  0  0  0
  5 11  2  0  0  0  0
  7 15  1  1  0  0  0
  7 27  1  0  0  0  0
  8  6  1  6  0  0  0
  9 14  1  1  0  0  0
  9  7  1  0  0  0  0
 10 22  1  0  0  0  0
 11  8  1  0  0  0  0
 11 28  1  0  0  0  0
 12 27  1  0  0  0  0
 12  8  1  0  0  0  0
 13  2  2  0  0  0  0
 14 23  1  0  0  0  0
 17 20  1  0  0  0  0
 18 25  2  0  0  0  0
 18 13  1  0  0  0  0
 19  1  2  0  0  0  0
 20  4  2  0  0  0  0
 21 10  1  0  0  0  0
 22 20  1  0  0  0  0
 22  9  1  0  0  0  0
 23 15  1  0  0  0  0
 25 26  1  0  0  0  0
 26 17  2  0  0  0  0
 26 19  1  0  0  0  0
 27 24  1  6  0  0  0
 29 30  1  0  0  0  0
 30 28  1  0  0  0  0
M  END
>  <MODEL>
4

>  <REMARK>
 VINA RESULT:      -7.9      2.848      7.223
  Name = 
  2 active torsions:
  status: ('A' for Active; 'I' for Inactive)
    1  A    between atoms: C_11  and  O_28
    2  A    between atoms: O_28  and  C_30
                            x       y       z     vdW  Elec       q    Type
                         _______ _______ _______ _____ _____    ______ ____

>  <TORSDO>
F 2

$$$$
=
 OpenBabel11112416203D

 30 35  0  0  1  0  0  0  0  0999 V2000
  187.5680  177.2310  144.0920 C   0  0  0  0  0  0  0  0  0  0  0  0
  185.8040  178.2420  142.6010 C   0  0  0  0  0  0  0  0  0  0  0  0
  189.1700  175.1220  140.9440 N   0  0  0  0  0  0  0  0  0  0  0  0
  188.6940  176.3830  144.2340 C   0  0  0  0  0  0  0  0  0  0  0  0
  187.1170  177.9510  145.2490 N   0  0  0  0  0  0  0  0  0  0  0  0
  187.8990  175.5220  147.1900 O   0  0  0  0  0  1  0  0  0  0  0  0
  190.9420  174.4980  145.3960 C   0  0  1  0  0  3  0  0  0  0  0  0
  188.5660  176.6560  146.7250 C   0  0  2  0  0  3  0  0  0  0  0  0
  191.0620  174.1280  143.9260 C   0  0  2  0  0  3  0  0  0  0  0  0
  190.1430  174.4880  141.6330 C   0  0  0  0  0  0  0  0  0  0  0  0
  187.5680  177.7440  146.4520 C   0  0  0  0  0  0  0  0  0  0  0  0
  189.3240  176.3180  145.5220 N   0  0  0  0  0  0  0  0  0  0  0  0
  185.2550  178.3570  141.3190 C   0  0  0  0  0  3  0  0  0  0  0  0
  192.5350  174.2550  143.5910 C   0  0  0  0  0  2  0  0  0  0  0  0
  192.2590  174.0510  146.0120 C   0  0  0  0  0  2  0  0  0  0  0  0
  184.9850  179.1720  143.8500 Cl  0  0  0  0  0  0  0  0  0  0  0  0
  188.5770  175.8800  141.8800 C   0  0  0  0  0  0  0  0  0  0  0  0
  185.7960  177.6660  140.2400 C   0  0  0  0  0  3  0  0  0  0  0  0
  186.9390  177.4070  142.8170 C   0  0  0  0  0  0  0  0  0  0  0  0
  189.1760  175.7050  143.0990 C   0  0  0  0  0  0  0  0  0  0  0  0
  191.0200  173.4660  140.9890 C   0  0  0  0  0  1  0  0  0  0  0  0
  190.1930  174.8170  142.9540 N   0  0  0  0  0  0  0  0  0  0  0  0
  193.2600  173.8940  144.8730 C   0  0  0  0  0  2  0  0  0  0  0  0
  191.6370  176.9450  144.9520 C   0  0  0  0  0  1  0  0  0  0  0  0
  186.9010  176.8440  140.4270 C   0  0  0  0  0  3  0  0  0  0  0  0
  187.4740  176.7090  141.6950 C   0  0  0  0  0  0  0  0  0  0  0  0
  190.7220  175.9760  145.6960 C   0  0  2  0  0  3  0  0  0  0  0  0
  187.0970  178.5000  147.5280 O   0  0  0  0  0  0  0  0  0  0  0  0
  184.7140  178.2740  147.4100 C   0  0  0  0  0  1  0  0  0  0  0  0
  185.8830  179.2350  147.4640 C   0  0  0  0  0  2  0  0  0  0  0  0
  1  4  1  0  0  0  0
  1  5  1  0  0  0  0
  2 19  1  0  0  0  0
  2 16  1  0  0  0  0
  3 10  2  0  0  0  0
  3 17  1  0  0  0  0
  4 12  1  0  0  0  0
  5 11  2  0  0  0  0
  7 27  1  0  0  0  0
  7 15  1  1  0  0  0
  8  6  1  6  0  0  0
  9 14  1  6  0  0  0
  9  7  1  0  0  0  0
 10 22  1  0  0  0  0
 11  8  1  0  0  0  0
 11 28  1  0  0  0  0
 12 27  1  0  0  0  0
 12  8  1  0  0  0  0
 13  2  2  0  0  0  0
 14 23  1  0  0  0  0
 17 20  1  0  0  0  0
 18 25  2  0  0  0  0
 18 13  1  0  0  0  0
 19  1  2  0  0  0  0
 20  4  2  0  0  0  0
 21 10  1  0  0  0  0
 22 20  1  0  0  0  0
 22  9  1  0  0  0  0
 23 15  1  0  0  0  0
 25 26  1  0  0  0  0
 26 17  2  0  0  0  0
 26 19  1  0  0  0  0
 27 24  1  6  0  0  0
 29 30  1  0  0  0  0
 30 28  1  0  0  0  0
M  END
>  <MODEL>
5

>  <REMARK>
 VINA RESULT:      -7.7      2.378      4.801
  Name = 
  2 active torsions:
  status: ('A' for Active; 'I' for Inactive)
    1  A    between atoms: C_11  and  O_28
    2  A    between atoms: O_28  and  C_30
                            x       y       z     vdW  Elec       q    Type
                         _______ _______ _______ _____ _____    ______ ____

>  <TORSDO>
F 2

$$$$
=
 OpenBabel11112416203D

 30 35  0  0  1  0  0  0  0  0999 V2000
  188.8060  176.0560  144.3270 C   0  0  0  0  0  0  0  0  0  0  0  0
  189.4090  176.9530  146.6060 C   0  0  0  0  0  0  0  0  0  0  0  0
  192.4710  174.2240  143.9630 N   0  0  0  0  0  0  0  0  0  0  0  0
  189.1710  175.2980  143.1880 C   0  0  0  0  0  0  0  0  0  0  0  0
  187.4860  176.6190  144.3670 N   0  0  0  0  0  0  0  0  0  0  0  0
  187.5040  177.1390  141.2030 O   0  0  0  0  0  1  0  0  0  0  0  0
  189.3510  174.0960  140.2750 C   0  0  1  0  0  3  0  0  0  0  0  0
  187.0950  176.0820  142.0180 C   0  0  2  0  0  3  0  0  0  0  0  0
  190.7080  173.6490  140.7980 C   0  0  2  0  0  3  0  0  0  0  0  0
  192.2900  173.7110  142.7270 C   0  0  0  0  0  0  0  0  0  0  0  0
  186.6690  176.6200  143.3530 C   0  0  0  0  0  0  0  0  0  0  0  0
  188.1880  175.1220  142.1570 N   0  0  0  0  0  0  0  0  0  0  0  0
  190.3500  177.0430  147.6360 C   0  0  0  0  0  3  0  0  0  0  0  0
  190.7940  172.1670  140.4940 C   0  0  0  0  0  2  0  0  0  0  0  0
  189.0860  173.1950  139.0800 C   0  0  0  0  0  2  0  0  0  0  0  0
  187.9060  177.8230  146.8900 Cl  0  0  0  0  0  0  0  0  0  0  0  0
  191.3050  174.8410  144.2120 C   0  0  0  0  0  0  0  0  0  0  0  0
  191.5870  176.4130  147.5380 C   0  0  0  0  0  3  0  0  0  0  0  0
  189.7080  176.2050  145.4300 C   0  0  0  0  0  0  0  0  0  0  0  0
  190.4460  174.7030  143.1550 C   0  0  0  0  0  0  0  0  0  0  0  0
  193.3840  172.9930  142.0100 C   0  0  0  0  0  1  0  0  0  0  0  0
  191.0640  173.9680  142.1930 N   0  0  0  0  0  0  0  0  0  0  0  0
  189.9990  171.9830  139.2160 C   0  0  0  0  0  2  0  0  0  0  0  0
  188.0850  172.6650  142.0130 C   0  0  0  0  0  1  0  0  0  0  0  0
  191.9030  175.6810  146.4000 C   0  0  0  0  0  3  0  0  0  0  0  0
  190.9830  175.5710  145.3530 C   0  0  0  0  0  0  0  0  0  0  0  0
  188.1900  173.9870  141.2560 C   0  0  2  0  0  3  0  0  0  0  0  0
  185.3890  177.1670  143.4730 O   0  0  0  0  0  0  0  0  0  0  0  0
  185.5640  179.5210  143.8850 C   0  0  0  0  0  1  0  0  0  0  0  0
  185.0850  178.1860  144.4140 C   0  0  0  0  0  2  0  0  0  0  0  0
  1  5  1  0  0  0  0
  1 19  1  0  0  0  0
  2 16  1  0  0  0  0
  2 13  1  0  0  0  0
  3 17  1  0  0  0  0
  4  1  2  0  0  0  0
  7 15  1  6  0  0  0
  7  9  1  0  0  0  0
  7 27  1  0  0  0  0
  8  6  1  6  0  0  0
  8 12  1  0  0  0  0
  8 11  1  0  0  0  0
  9 14  1  1  0  0  0
  9 22  1  0  0  0  0
 10  3  2  0  0  0  0
 11 28  1  0  0  0  0
 11  5  2  0  0  0  0
 12  4  1  0  0  0  0
 15 23  1  0  0  0  0
 17 26  1  0  0  0  0
 18 13  2  0  0  0  0
 19  2  2  0  0  0  0
 20  4  1  0  0  0  0
 20 17  2  0  0  0  0
 21 10  1  0  0  0  0
 22 10  1  0  0  0  0
 22 20  1  0  0  0  0
 23 14  1  0  0  0  0
 25 18  1  0  0  0  0
 26 19  1  0  0  0  0
 26 25  2  0  0  0  0
 27 24  1  1  0  0  0
 27 12  1  0  0  0  0
 28 30  1  0  0  0  0
 29 30  1  0  0  0  0
M  END
>  <MODEL>
6

>  <REMARK>
 VINA RESULT:      -7.5      2.268      3.925
  Name = 
  2 active torsions:
  status: ('A' for Active; 'I' for Inactive)
    1  A    between atoms: C_11  and  O_28
    2  A    between atoms: O_28  and  C_30
                            x       y       z     vdW  Elec       q    Type
                         _______ _______ _______ _____ _____    ______ ____

>  <TORSDO>
F 2

$$$$
=
 OpenBabel11112416203D

 30 35  0  0  1  0  0  0  0  0999 V2000
  191.2790  175.1240  143.3850 C   0  0  0  0  0  0  0  0  0  0  0  0
  193.5940  174.8040  144.3300 C   0  0  0  0  0  0  0  0  0  0  0  0
  190.0770  177.1780  146.7400 N   0  0  0  0  0  0  0  0  0  0  0  0
  189.9710  175.6480  143.5320 C   0  0  0  0  0  0  0  0  0  0  0  0
  191.6030  174.4590  142.1540 N   0  0  0  0  0  0  0  0  0  0  0  0
  188.6360  173.2690  141.8990 O   0  0  0  0  0  1  0  0  0  0  0  0
  186.8770  176.2020  143.2530 C   0  0  1  0  0  3  0  0  0  0  0  0
  189.2650  174.4330  141.4530 C   0  0  2  0  0  3  0  0  0  0  0  0
  187.1170  176.8810  144.5930 C   0  0  2  0  0  3  0  0  0  0  0  0
  188.7970  177.3910  146.3670 C   0  0  0  0  0  0  0  0  0  0  0  0
  190.7250  174.1590  141.2400 C   0  0  0  0  0  0  0  0  0  0  0  0
  189.0630  175.5020  142.4300 N   0  0  0  0  0  0  0  0  0  0  0  0
  194.4910  175.0320  145.3800 C   0  0  0  0  0  3  0  0  0  0  0  0
  186.5090  178.2620  144.4660 C   0  0  0  0  0  2  0  0  0  0  0  0
  185.5670  176.7930  142.7540 C   0  0  0  0  0  2  0  0  0  0  0  0
  194.2420  173.8760  142.9830 Cl  0  0  0  0  0  0  0  0  0  0  0  0
  190.5950  176.5200  145.6900 C   0  0  0  0  0  0  0  0  0  0  0  0
  194.1060  175.7410  146.5140 C   0  0  0  0  0  3  0  0  0  0  0  0
  192.2620  175.3050  144.4100 C   0  0  0  0  0  0  0  0  0  0  0  0
  189.6520  176.3430  144.7130 C   0  0  0  0  0  0  0  0  0  0  0  0
  187.8120  178.0390  147.2840 C   0  0  0  0  0  1  0  0  0  0  0  0
  188.4900  176.9070  145.1320 N   0  0  0  0  0  0  0  0  0  0  0  0
  185.3340  178.0880  143.5230 C   0  0  0  0  0  2  0  0  0  0  0  0
  188.4350  177.8470  142.0150 C   0  0  0  0  0  1  0  0  0  0  0  0
  192.8120  176.2360  146.6160 C   0  0  0  0  0  3  0  0  0  0  0  0
  191.8930  176.0280  145.5830 C   0  0  0  0  0  0  0  0  0  0  0  0
  187.9570  176.4090  142.1980 C   0  0  2  0  0  3  0  0  0  0  0  0
  191.1190  173.5310  140.0560 O   0  0  0  0  0  0  0  0  0  0  0  0
  190.2180  172.0000  138.4470 C   0  0  0  0  0  1  0  0  0  0  0  0
  190.2630  173.4360  138.9270 C   0  0  0  0  0  2  0  0  0  0  0  0
  1  4  2  0  0  0  0
  1 19  1  0  0  0  0
  2 19  2  0  0  0  0
  2 13  1  0  0  0  0
  4 20  1  0  0  0  0
  5  1  1  0  0  0  0
  7 15  1  6  0  0  0
  7  9  1  0  0  0  0
  8  6  1  1  0  0  0
  8 12  1  0  0  0  0
  9 14  1  6  0  0  0
  9 22  1  0  0  0  0
 10  3  2  0  0  0  0
 10 21  1  0  0  0  0
 11  8  1  0  0  0  0
 11  5  2  0  0  0  0
 12  4  1  0  0  0  0
 13 18  2  0  0  0  0
 15 23  1  0  0  0  0
 16  2  1  0  0  0  0
 17  3  1  0  0  0  0
 18 25  1  0  0  0  0
 19 26  1  0  0  0  0
 20 22  1  0  0  0  0
 20 17  2  0  0  0  0
 22 10  1  0  0  0  0
 23 14  1  0  0  0  0
 26 17  1  0  0  0  0
 26 25  2  0  0  0  0
 27 24  1  1  0  0  0
 27 12  1  0  0  0  0
 27  7  1  0  0  0  0
 28 11  1  0  0  0  0
 29 30  1  0  0  0  0
 30 28  1  0  0  0  0
M  END
>  <MODEL>
7

>  <REMARK>
 VINA RESULT:      -7.5      3.213      6.227
  Name = 
  2 active torsions:
  status: ('A' for Active; 'I' for Inactive)
    1  A    between atoms: C_11  and  O_28
    2  A    between atoms: O_28  and  C_30
                            x       y       z     vdW  Elec       q    Type
                         _______ _______ _______ _____ _____    ______ ____

>  <TORSDO>
F 2

$$$$
=
 OpenBabel11112416203D

 30 35  0  0  1  0  0  0  0  0999 V2000
  187.8160  175.8400  141.0810 C   0  0  0  0  0  0  0  0  0  0  0  0
  187.8450  174.9010  138.7410 C   0  0  0  0  0  0  0  0  0  0  0  0
  190.5840  173.0700  142.3400 N   0  0  0  0  0  0  0  0  0  0  0  0
  188.3020  175.7960  142.4110 C   0  0  0  0  0  0  0  0  0  0  0  0
  186.8820  176.8750  140.7390 N   0  0  0  0  0  0  0  0  0  0  0  0
  185.5350  176.7560  143.6470 O   0  0  0  0  0  1  0  0  0  0  0  0
  188.6310  176.1290  145.5320 C   0  0  1  0  0  3  0  0  0  0  0  0
  186.5790  177.4910  143.0820 C   0  0  2  0  0  3  0  0  0  0  0  0
  189.6320  175.0040  145.3080 C   0  0  2  0  0  3  0  0  0  0  0  0
  190.6410  173.4530  143.6340 C   0  0  0  0  0  0  0  0  0  0  0  0
  186.3260  177.6650  141.6130 C   0  0  0  0  0  0  0  0  0  0  0  0
  187.8460  176.8050  143.3240 N   0  0  0  0  0  0  0  0  0  0  0  0
  188.3660  173.9620  137.8440 C   0  0  0  0  0  3  0  0  0  0  0  0
  190.9100  175.4550  145.9850 C   0  0  0  0  0  2  0  0  0  0  0  0
  189.0210  176.7260  146.8740 C   0  0  0  0  0  2  0  0  0  0  0  0
  186.6410  175.9920  138.0650 Cl  0  0  0  0  0  0  0  0  0  0  0  0
  189.7100  173.9370  141.8040 C   0  0  0  0  0  0  0  0  0  0  0  0
  189.3160  173.0310  138.2480 C   0  0  0  0  0  3  0  0  0  0  0  0
  188.2900  174.9160  140.0950 C   0  0  0  0  0  0  0  0  0  0  0  0
  189.2540  174.8160  142.7480 C   0  0  0  0  0  0  0  0  0  0  0  0
  191.4520  172.7020  144.6380 C   0  0  0  0  0  1  0  0  0  0  0  0
  189.8520  174.5220  143.9320 N   0  0  0  0  0  0  0  0  0  0  0  0
  190.4550  176.2970  147.1610 C   0  0  0  0  0  2  0  0  0  0  0  0
  189.9850  177.7730  144.0710 C   0  0  0  0  0  1  0  0  0  0  0  0
  189.7630  173.0230  139.5640 C   0  0  0  0  0  3  0  0  0  0  0  0
  189.2640  173.9500  140.4840 C   0  0  0  0  0  0  0  0  0  0  0  0
  188.6180  177.2280  144.4760 C   0  0  2  0  0  3  0  0  0  0  0  0
  185.4410  178.6660  141.2030 O   0  0  0  0  0  0  0  0  0  0  0  0
  183.0940  178.2910  141.5050 C   0  0  0  0  0  1  0  0  0  0  0  0
  184.2340  178.3760  140.5130 C   0  0  0  0  0  2  0  0  0  0  0  0
  1  4  1  0  0  0  0
  2 19  1  0  0  0  0
  3 10  2  0  0  0  0
  4 20  2  0  0  0  0
  4 12  1  0  0  0  0
  5  1  1  0  0  0  0
  5 11  2  0  0  0  0
  7 15  1  1  0  0  0
  8 12  1  0  0  0  0
  8  6  1  6  0  0  0
  9  7  1  0  0  0  0
  9 14  1  6  0  0  0
 10 22  1  0  0  0  0
 10 21  1  0  0  0  0
 11  8  1  0  0  0  0
 12 27  1  0  0  0  0
 13 18  1  0  0  0  0
 13  2  2  0  0  0  0
 14 23  1  0  0  0  0
 15 23  1  0  0  0  0
 16  2  1  0  0  0  0
 17  3  1  0  0  0  0
 17 20  1  0  0  0  0
 18 25  2  0  0  0  0
 19 26  1  0  0  0  0
 19  1  2  0  0  0  0
 20 22  1  0  0  0  0
 22  9  1  0  0  0  0
 25 26  1  0  0  0  0
 26 17  2  0  0  0  0
 27 24  1  6  0  0  0
 27  7  1  0  0  0  0
 28 11  1  0  0  0  0
 30 28  1  0  0  0  0
 30 29  1  0  0  0  0
M  END
>  <MODEL>
8

>  <REMARK>
 VINA RESULT:      -7.5      2.380      5.208
  Name = 
  2 active torsions:
  status: ('A' for Active; 'I' for Inactive)
    1  A    between atoms: C_11  and  O_28
    2  A    between atoms: O_28  and  C_30
                            x       y       z     vdW  Elec       q    Type
                         _______ _______ _______ _____ _____    ______ ____

>  <TORSDO>
F 2

$$$$
=
 OpenBabel11112416203D

 30 35  0  0  1  0  0  0  0  0999 V2000
  187.5440  176.8980  142.5880 C   0  0  0  0  0  0  0  0  0  0  0  0
  186.5820  176.9830  140.2590 C   0  0  0  0  0  0  0  0  0  0  0  0
  189.9810  173.7400  141.5780 N   0  0  0  0  0  0  0  0  0  0  0  0
  188.4410  176.3000  143.5080 C   0  0  0  0  0  0  0  0  0  0  0  0
  186.7700  178.0210  143.0350 N   0  0  0  0  0  0  0  0  0  0  0  0
  186.5120  176.7940  145.9870 O   0  0  0  0  0  1  0  0  0  0  0  0
  189.8830  175.3290  146.1420 C   0  0  1  0  0  3  0  0  0  0  0  0
  187.4190  177.6500  145.3600 C   0  0  2  0  0  3  0  0  0  0  0  0
  190.5060  174.3490  145.1580 C   0  0  2  0  0  3  0  0  0  0  0  0
  190.5530  173.5650  142.7890 C   0  0  0  0  0  0  0  0  0  0  0  0
  186.7140  178.4130  144.2760 C   0  0  0  0  0  0  0  0  0  0  0  0
  188.5330  176.8720  144.8210 N   0  0  0  0  0  0  0  0  0  0  0  0
  186.5680  176.4650  138.9590 C   0  0  0  0  0  3  0  0  0  0  0  0
  192.0010  174.4340  145.3890 C   0  0  0  0  0  2  0  0  0  0  0  0
  190.8200  175.3160  147.3390 C   0  0  0  0  0  2  0  0  0  0  0  0
  185.4550  178.3030  140.5490 Cl  0  0  0  0  0  0  0  0  0  0  0  0
  189.1620  174.7860  141.7770 C   0  0  0  0  0  0  0  0  0  0  0  0
  187.3990  175.4110  138.5960 C   0  0  0  0  0  3  0  0  0  0  0  0
  187.4600  176.4310  141.2360 C   0  0  0  0  0  0  0  0  0  0  0  0
  189.2400  175.2270  143.0700 C   0  0  0  0  0  0  0  0  0  0  0  0
  191.4970  172.4390  143.0530 C   0  0  0  0  0  1  0  0  0  0  0  0
  190.1400  174.4550  143.7330 N   0  0  0  0  0  0  0  0  0  0  0  0
  192.1510  174.7470  146.8650 C   0  0  0  0  0  2  0  0  0  0  0  0
  190.9430  177.3640  144.9570 C   0  0  0  0  0  1  0  0  0  0  0  0
  188.2610  174.8530  139.5330 C   0  0  0  0  0  3  0  0  0  0  0  0
  188.3010  175.3500  140.8390 C   0  0  0  0  0  0  0  0  0  0  0  0
  189.7210  176.7600  145.6450 C   0  0  2  0  0  3  0  0  0  0  0  0
  185.9560  179.5300  144.6340 O   0  0  0  0  0  0  0  0  0  0  0  0
  183.8510  178.8650  145.5680 C   0  0  0  0  0  1  0  0  0  0  0  0
  184.5500  179.5880  144.4360 C   0  0  0  0  0  2  0  0  0  0  0  0
  1  5  1  0  0  0  0
  1  4  1  0  0  0  0
  2 16  1  0  0  0  0
  2 19  1  0  0  0  0
  3 17  1  0  0  0  0
  3 10  2  0  0  0  0
  4 12  1  0  0  0  0
  5 11  2  0  0  0  0
  7 15  1  1  0  0  0
  8  6  1  6  0  0  0
  9 14  1  6  0  0  0
  9  7  1  0  0  0  0
 10 21  1  0  0  0  0
 10 22  1  0  0  0  0
 11 28  1  0  0  0  0
 11  8  1  0  0  0  0
 12  8  1  0  0  0  0
 12 27  1  0  0  0  0
 13  2  2  0  0  0  0
 14 23  1  0  0  0  0
 17 20  1  0  0  0  0
 18 13  1  0  0  0  0
 18 25  2  0  0  0  0
 19  1  2  0  0  0  0
 20  4  2  0  0  0  0
 20 22  1  0  0  0  0
 22  9  1  0  0  0  0
 23 15  1  0  0  0  0
 25 26  1  0  0  0  0
 26 19  1  0  0  0  0
 26 17  2  0  0  0  0
 27 24  1  6  0  0  0
 27  7  1  0  0  0  0
 30 28  1  0  0  0  0
 30 29  1  0  0  0  0
M  END
>  <MODEL>
9

>  <REMARK>
 VINA RESULT:      -7.5      2.164      4.858
  Name = 
  2 active torsions:
  status: ('A' for Active; 'I' for Inactive)
    1  A    between atoms: C_11  and  O_28
    2  A    between atoms: O_28  and  C_30
                            x       y       z     vdW  Elec       q    Type
                         _______ _______ _______ _____ _____    ______ ____

>  <TORSDO>
F 2

$$$$
