=
 OpenBabel11112416333D

 32 38  0  0  1  0  0  0  0  0999 V2000
  192.5380  175.3930  144.3900 C   0  0  1  0  0  3  0  0  0  0  0  0
  187.6320  177.1660  143.6700 C   0  0  0  0  0  0  0  0  0  0  0  0
  186.0270  178.2730  148.1510 C   0  0  0  0  0  3  0  0  0  0  0  0
  184.7770  178.6020  147.6310 C   0  0  0  0  0  3  0  0  0  0  0  0
  186.0730  177.4050  141.7130 C   0  0  0  0  0  0  0  0  0  0  0  0
  184.8020  177.7510  141.2690 C   0  0  0  0  0  0  0  0  0  0  0  0
  189.9630  176.3790  143.3890 C   0  0  0  0  0  0  0  0  0  0  0  0
  189.2050  176.9390  145.6740 C   0  0  0  0  0  3  0  0  0  0  0  0
  182.6940  178.4220  141.2740 C   0  0  0  0  0  0  0  0  0  0  0  0
  191.6060  176.1320  145.2650 C   0  0  2  0  0  3  0  0  0  0  0  0
  187.0420  177.8380  147.3000 C   0  0  0  0  0  3  0  0  0  0  0  0
  187.8560  177.2810  145.0650 C   0  0  0  0  0  0  0  0  0  0  0  0
  186.8240  177.7220  145.9140 C   0  0  0  0  0  0  0  0  0  0  0  0
  185.3170  177.9480  144.0020 C   0  0  0  0  0  0  0  0  0  0  0  0
  183.0320  178.1540  140.0530 N   0  0  0  0  0  0  0  0  0  0  0  0
  191.9770  174.9860  143.0130 C   0  0  0  0  0  2  0  0  0  0  0  0
  190.2450  176.4740  144.6970 C   0  0  0  0  0  0  0  0  0  0  0  0
  184.3730  177.7260  140.0480 N   0  0  0  0  0  0  0  0  0  0  0  0
  191.0170  176.0010  142.4030 C   0  0  0  0  0  2  0  0  0  0  0  0
  192.6600  176.8560  144.5280 N   0  0  0  0  0  0  0  0  0  0  0  0
  184.5440  178.4930  146.2600 C   0  0  0  0  0  3  0  0  0  0  0  0
  185.5560  178.0550  145.3850 C   0  0  0  0  0  0  0  0  0  0  0  0
  184.0440  178.2860  143.4880 C   0  0  0  0  0  3  0  0  0  0  0  0
  188.6330  176.7430  142.8840 C   0  0  0  0  0  2  0  0  0  0  0  0
  187.0150  176.9810  140.7780 O   0  0  0  0  0  1  0  0  0  0  0  0
  181.3480  178.9060  141.6840 C   0  0  0  0  0  1  0  0  0  0  0  0
  186.3610  177.4990  143.1180 C   0  0  0  0  0  0  0  0  0  0  0  0
  183.8330  178.1720  142.1260 C   0  0  0  0  0  0  0  0  0  0  0  0
  193.7380  177.0980  145.4730 C   0  0  0  0  0  2  0  0  0  0  0  0
  194.9940  176.3760  145.0750 C   0  0  0  0  0  0  0  0  0  0  0  0
  195.4590  175.1460  145.7860 C   0  0  0  0  0  1  0  0  0  0  0  0
  195.6530  176.8050  144.1440 O   0  0  0  0  0  0  0  0  0  0  0  0
  1 16  1  6  0  0  0
  1 20  1  0  0  0  0
  1 10  1  0  0  0  0
  2 12  1  0  0  0  0
  4  3  1  0  0  0  0
  5 27  1  0  0  0  0
  6  5  2  0  0  0  0
  6 28  1  0  0  0  0
  7 17  2  0  0  0  0
  9 26  1  0  0  0  0
  9 28  2  0  0  0  0
 10 17  1  6  0  0  0
 11  3  2  0  0  0  0
 12  8  2  0  0  0  0
 12 13  1  0  0  0  0
 13 11  1  0  0  0  0
 14 22  1  0  0  0  0
 15  9  1  0  0  0  0
 17  8  1  0  0  0  0
 18 15  2  0  0  0  0
 18  6  1  0  0  0  0
 19 16  1  0  0  0  0
 19  7  1  0  0  0  0
 20 10  1  0  0  0  0
 20 29  1  0  0  0  0
 21  4  2  0  0  0  0
 22 13  2  0  0  0  0
 22 21  1  0  0  0  0
 23 14  2  0  0  0  0
 24  7  1  0  0  0  0
 24  2  1  0  0  0  0
 25  5  1  0  0  0  0
 27  2  2  0  0  0  0
 27 14  1  0  0  0  0
 28 23  1  0  0  0  0
 30 29  1  0  0  0  0
 30 31  1  0  0  0  0
 32 30  2  0  0  0  0
M  END
>  <MODEL>
1

>  <REMARK>
 VINA RESULT:      -9.8      0.000      0.000
  Name = 
  2 active torsions:
  status: ('A' for Active; 'I' for Inactive)
    1  A    between atoms: N_20  and  C_29
    2  A    between atoms: C_29  and  C_30
                            x       y       z     vdW  Elec       q    Type
                         _______ _______ _______ _____ _____    ______ ____

>  <TORSDO>
F 2

$$$$
=
 OpenBabel11112416333D

 32 38  0  0  1  0  0  0  0  0999 V2000
  184.9360  177.5660  146.5200 C   0  0  1  0  0  3  0  0  0  0  0  0
  189.6810  175.9630  144.8960 C   0  0  0  0  0  0  0  0  0  0  0  0
  188.8800  173.8640  140.5560 C   0  0  0  0  0  3  0  0  0  0  0  0
  190.2250  173.5110  140.4700 C   0  0  0  0  0  3  0  0  0  0  0  0
  192.0020  175.9430  145.8610 C   0  0  0  0  0  0  0  0  0  0  0  0
  193.3290  175.5560  145.7020 C   0  0  0  0  0  0  0  0  0  0  0  0
  187.7850  177.0160  146.0910 C   0  0  0  0  0  0  0  0  0  0  0  0
  187.3290  175.9810  143.8930 C   0  0  0  0  0  3  0  0  0  0  0  0
  195.1640  174.6790  144.8320 C   0  0  0  0  0  0  0  0  0  0  0  0
  185.4420  177.1160  145.2080 C   0  0  2  0  0  3  0  0  0  0  0  0
  188.4140  174.5580  141.6720 C   0  0  0  0  0  3  0  0  0  0  0  0
  188.8010  175.6100  143.8420 C   0  0  0  0  0  0  0  0  0  0  0  0
  189.2840  174.9110  142.7210 C   0  0  0  0  0  0  0  0  0  0  0  0
  191.5360  174.8960  143.6710 C   0  0  0  0  0  0  0  0  0  0  0  0
  195.4690  175.2110  145.9730 N   0  0  0  0  0  0  0  0  0  0  0  0
  185.9490  177.5060  147.6800 C   0  0  0  0  0  2  0  0  0  0  0  0
  186.9010  176.7220  145.1260 C   0  0  0  0  0  0  0  0  0  0  0  0
  194.3020  175.7690  146.5280 N   0  0  0  0  0  2  0  0  0  0  0  0
  187.3840  177.8280  147.2760 C   0  0  0  0  0  2  0  0  0  0  0  0
  185.3210  178.5580  145.4990 N   0  0  0  0  0  0  0  0  0  0  0  0
  191.1010  173.8520  141.5000 C   0  0  0  0  0  3  0  0  0  0  0  0
  190.6480  174.5520  142.6350 C   0  0  0  0  0  0  0  0  0  0  0  0
  192.8990  174.5320  143.5700 C   0  0  0  0  0  3  0  0  0  0  0  0
  189.1950  176.6300  145.9530 C   0  0  0  0  0  3  0  0  0  0  0  0
  191.6410  176.6330  147.0150 O   0  0  0  0  0  1  0  0  0  0  0  0
  196.1350  173.9900  143.9420 C   0  0  0  0  0  1  0  0  0  0  0  0
  191.0620  175.6120  144.8260 C   0  0  0  0  0  0  0  0  0  0  0  0
  193.7510  174.8800  144.6010 C   0  0  0  0  0  0  0  0  0  0  0  0
  184.0900  179.0090  144.8700 C   0  0  0  0  0  2  0  0  0  0  0  0
  184.1370  178.8320  143.3790 C   0  0  0  0  0  0  0  0  0  0  0  0
  185.4110  178.9500  142.6070 C   0  0  0  0  0  1  0  0  0  0  0  0
  183.1030  178.5860  142.7800 O   0  0  0  0  0  0  0  0  0  0  0  0
  1 16  1  1  0  0  0
  2 24  1  0  0  0  0
  3 11  1  0  0  0  0
  4  3  2  0  0  0  0
  4 21  1  0  0  0  0
  5 25  1  0  0  0  0
  6  5  1  0  0  0  0
  6 18  1  0  0  0  0
  7 19  1  0  0  0  0
  8 17  2  0  0  0  0
  9 15  2  0  0  0  0
 10 17  1  1  0  0  0
 10 20  1  0  0  0  0
 10  1  1  0  0  0  0
 11 13  2  0  0  0  0
 12  8  1  0  0  0  0
 12  2  2  0  0  0  0
 13 12  1  0  0  0  0
 14 27  1  0  0  0  0
 15 18  1  0  0  0  0
 17  7  1  0  0  0  0
 19 16  1  0  0  0  0
 20  1  1  0  0  0  0
 21 22  2  0  0  0  0
 22 13  1  0  0  0  0
 22 14  1  0  0  0  0
 23 14  2  0  0  0  0
 23 28  1  0  0  0  0
 24  7  2  0  0  0  0
 26  9  1  0  0  0  0
 27  2  1  0  0  0  0
 27  5  2  0  0  0  0
 28  9  1  0  0  0  0
 28  6  2  0  0  0  0
 29 20  1  0  0  0  0
 30 29  1  0  0  0  0
 31 30  1  0  0  0  0
 32 30  2  0  0  0  0
M  END
>  <MODEL>
2

>  <REMARK>
 VINA RESULT:      -8.9      2.367      8.834
  Name = 
  2 active torsions:
  status: ('A' for Active; 'I' for Inactive)
    1  A    between atoms: N_20  and  C_29
    2  A    between atoms: C_29  and  C_30
                            x       y       z     vdW  Elec       q    Type
                         _______ _______ _______ _____ _____    ______ ____

>  <TORSDO>
F 2

$$$$
=
 OpenBabel11112416333D

 32 38  0  0  1  0  0  0  0  0999 V2000
  185.5110  179.2310  143.8830 C   0  0  1  0  0  3  0  0  0  0  0  0
  189.0150  175.3810  143.0950 C   0  0  0  0  0  0  0  0  0  0  0  0
  192.3080  175.9290  146.6640 C   0  0  0  0  0  3  0  0  0  0  0  0
  193.0640  174.8840  146.1380 C   0  0  0  0  0  3  0  0  0  0  0  0
  189.3680  173.5950  141.3620 C   0  0  0  0  0  0  0  0  0  0  0  0
  190.1770  172.5630  140.8960 C   0  0  0  0  0  0  0  0  0  0  0  0
  187.0420  176.8750  143.0390 C   0  0  0  0  0  0  0  0  0  0  0  0
  188.6700  177.1850  144.8740 C   0  0  0  0  0  3  0  0  0  0  0  0
  191.8500  171.1250  140.7360 C   0  0  0  0  0  0  0  0  0  0  0  0
  186.5800  178.6660  144.7310 C   0  0  2  0  0  3  0  0  0  0  0  0
  191.1190  176.3090  146.0420 C   0  0  0  0  0  3  0  0  0  0  0  0
  189.4660  176.0450  144.2630 C   0  0  0  0  0  0  0  0  0  0  0  0
  190.6670  175.6520  144.8820 C   0  0  0  0  0  0  0  0  0  0  0  0
  191.0000  173.9200  143.1890 C   0  0  0  0  0  0  0  0  0  0  0  0
  191.0310  170.9070  139.7560 N   0  0  0  0  0  0  0  0  0  0  0  0
  185.4150  178.6520  142.4580 C   0  0  0  0  0  2  0  0  0  0  0  0
  187.4050  177.5400  144.1470 C   0  0  0  0  0  0  0  0  0  0  0  0
  189.9660  171.8210  139.8570 N   0  0  0  0  0  0  0  0  0  0  0  0
  185.7440  177.1660  142.3630 C   0  0  0  0  0  2  0  0  0  0  0  0
  185.1820  178.2290  144.9130 N   0  0  0  0  0  0  0  0  0  0  0  0
  192.6310  174.2220  144.9890 C   0  0  0  0  0  3  0  0  0  0  0  0
  191.4340  174.5920  144.3470 C   0  0  0  0  0  0  0  0  0  0  0  0
  191.7780  172.8610  142.6660 C   0  0  0  0  0  3  0  0  0  0  0  0
  187.8670  175.7760  142.5250 C   0  0  0  0  0  2  0  0  0  0  0  0
  188.2010  173.8950  140.6640 O   0  0  0  0  0  1  0  0  0  0  0  0
  193.1020  170.3560  140.9690 C   0  0  0  0  0  1  0  0  0  0  0  0
  189.7740  174.3080  142.5410 C   0  0  0  0  0  0  0  0  0  0  0  0
  191.3310  172.2170  141.5270 C   0  0  0  0  0  0  0  0  0  0  0  0
  184.6610  178.9600  146.0570 C   0  0  0  0  0  2  0  0  0  0  0  0
  185.5410  178.7960  147.2630 C   0  0  0  0  0  0  0  0  0  0  0  0
  185.9410  177.4490  147.7730 C   0  0  0  0  0  1  0  0  0  0  0  0
  185.9410  179.7910  147.8430 O   0  0  0  0  0  0  0  0  0  0  0  0
  1 16  1  6  0  0  0
  1 10  1  0  0  0  0
  1 20  1  0  0  0  0
  2 12  1  0  0  0  0
  4  3  1  0  0  0  0
  5 27  1  0  0  0  0
  6  5  2  0  0  0  0
  6 28  1  0  0  0  0
  7 17  2  0  0  0  0
  9 26  1  0  0  0  0
  9 28  2  0  0  0  0
 10 17  1  6  0  0  0
 10 20  1  0  0  0  0
 11  3  2  0  0  0  0
 12  8  2  0  0  0  0
 12 13  1  0  0  0  0
 13 11  1  0  0  0  0
 14 22  1  0  0  0  0
 15 18  2  0  0  0  0
 15  9  1  0  0  0  0
 17  8  1  0  0  0  0
 18  6  1  0  0  0  0
 19 16  1  0  0  0  0
 19  7  1  0  0  0  0
 20 29  1  0  0  0  0
 21  4  2  0  0  0  0
 22 13  2  0  0  0  0
 22 21  1  0  0  0  0
 23 14  2  0  0  0  0
 24  7  1  0  0  0  0
 24  2  1  0  0  0  0
 25  5  1  0  0  0  0
 27  2  2  0  0  0  0
 27 14  1  0  0  0  0
 28 23  1  0  0  0  0
 29 30  1  0  0  0  0
 30 31  1  0  0  0  0
 30 32  2  0  0  0  0
M  END
>  <MODEL>
3

>  <REMARK>
 VINA RESULT:      -8.9      3.201      7.619
  Name = 
  2 active torsions:
  status: ('A' for Active; 'I' for Inactive)
    1  A    between atoms: N_20  and  C_29
    2  A    between atoms: C_29  and  C_30
                            x       y       z     vdW  Elec       q    Type
                         _______ _______ _______ _____ _____    ______ ____

>  <TORSDO>
F 2

$$$$
=
 OpenBabel11112416333D

 32 38  0  0  1  0  0  0  0  0999 V2000
  190.1100  172.2970  139.1410 C   0  0  1  0  0  3  0  0  0  0  0  0
  188.7160  175.3910  143.1670 C   0  0  0  0  0  0  0  0  0  0  0  0
  192.3600  174.9680  146.3950 C   0  0  0  0  0  3  0  0  0  0  0  0
  191.6720  175.7840  147.2910 C   0  0  0  0  0  3  0  0  0  0  0  0
  186.7090  176.7840  143.7560 C   0  0  0  0  0  0  0  0  0  0  0  0
  186.0830  177.5900  144.7020 C   0  0  0  0  0  0  0  0  0  0  0  0
  188.8950  174.2210  140.9920 C   0  0  0  0  0  0  0  0  0  0  0  0
  190.7720  173.9860  142.5840 C   0  0  0  0  0  2  0  0  0  0  0  0
  185.6980  178.7130  146.5680 C   0  0  0  0  0  0  0  0  0  0  0  0
  190.8600  172.8320  140.2940 C   0  0  2  0  0  3  0  0  0  0  0  0
  191.7990  174.6710  145.1540 C   0  0  0  0  0  3  0  0  0  0  0  0
  189.9840  174.8730  143.5320 C   0  0  0  0  0  0  0  0  0  0  0  0
  190.5400  175.1820  144.7870 C   0  0  0  0  0  0  0  0  0  0  0  0
  188.5810  176.5320  145.3490 C   0  0  0  0  0  0  0  0  0  0  0  0
  184.6880  178.8820  145.7760 N   0  0  0  0  0  0  0  0  0  0  0  0
  188.6060  172.6350  139.1100 C   0  0  0  0  0  2  0  0  0  0  0  0
  190.1020  173.7060  141.2700 C   0  0  0  0  0  0  0  0  0  0  0  0
  184.9310  178.1680  144.5880 N   0  0  0  0  0  0  0  0  0  0  0  0
  188.2640  174.0170  139.6560 C   0  0  0  0  0  2  0  0  0  0  0  0
  190.9510  173.4970  138.9800 N   0  0  0  0  0  0  0  0  0  0  0  0
  190.4230  176.3000  146.9440 C   0  0  0  0  0  3  0  0  0  0  0  0
  189.8410  176.0090  145.6950 C   0  0  0  0  0  0  0  0  0  0  0  0
  187.8940  177.3590  146.2670 C   0  0  0  0  0  3  0  0  0  0  0  0
  188.2100  175.0810  141.9640 C   0  0  0  0  0  3  0  0  0  0  0  0
  186.0600  176.5490  142.5460 O   0  0  0  0  0  1  0  0  0  0  0  0
  185.8110  179.3150  147.9240 C   0  0  0  0  0  1  0  0  0  0  0  0
  187.9960  176.2290  144.0690 C   0  0  0  0  0  0  0  0  0  0  0  0
  186.6580  177.8610  145.9040 C   0  0  0  0  0  0  0  0  0  0  0  0
  192.1970  173.0570  138.3740 C   0  0  0  0  0  2  0  0  0  0  0  0
  193.2140  174.1620  138.3370 C   0  0  0  0  0  0  0  0  0  0  0  0
  194.1820  174.3840  139.4540 C   0  0  0  0  0  1  0  0  0  0  0  0
  193.2500  174.8990  137.3670 O   0  0  0  0  0  0  0  0  0  0  0  0
  1 16  1  1  0  0  0
  1 10  1  0  0  0  0
  2 12  1  0  0  0  0
  2 27  1  0  0  0  0
  3  4  1  0  0  0  0
  5 27  2  0  0  0  0
  5  6  1  0  0  0  0
  6 28  1  0  0  0  0
  7 17  2  0  0  0  0
  7 24  1  0  0  0  0
  8 12  1  0  0  0  0
  9 26  1  0  0  0  0
 10 17  1  1  0  0  0
 11  3  2  0  0  0  0
 12 13  2  0  0  0  0
 13 11  1  0  0  0  0
 13 22  1  0  0  0  0
 14 22  2  0  0  0  0
 14 23  1  0  0  0  0
 15  9  2  0  0  0  0
 16 19  1  0  0  0  0
 17  8  1  0  0  0  0
 18  6  2  0  0  0  0
 18 15  1  0  0  0  0
 19  7  1  0  0  0  0
 20  1  1  0  0  0  0
 20 10  1  0  0  0  0
 21  4  2  0  0  0  0
 22 21  1  0  0  0  0
 24  2  2  0  0  0  0
 25  5  1  0  0  0  0
 27 14  1  0  0  0  0
 28 23  2  0  0  0  0
 28  9  1  0  0  0  0
 29 20  1  0  0  0  0
 30 29  1  0  0  0  0
 30 31  1  0  0  0  0
 32 30  2  0  0  0  0
M  END
>  <MODEL>
4

>  <REMARK>
 VINA RESULT:      -8.8      3.365      5.422
  Name = 
  2 active torsions:
  status: ('A' for Active; 'I' for Inactive)
    1  A    between atoms: N_20  and  C_29
    2  A    between atoms: C_29  and  C_30
                            x       y       z     vdW  Elec       q    Type
                         _______ _______ _______ _____ _____    ______ ____

>  <TORSDO>
F 2

$$$$
=
 OpenBabel11112416333D

 32 38  0  0  1  0  0  0  0  0999 V2000
  195.3780  175.0920  145.1440 C   0  0  1  0  0  3  0  0  0  0  0  0
  190.2480  176.2760  145.1020 C   0  0  0  0  0  0  0  0  0  0  0  0
  188.6280  174.6930  140.7720 C   0  0  0  0  0  3  0  0  0  0  0  0
  187.3630  175.2050  141.0490 C   0  0  0  0  0  3  0  0  0  0  0  0
  188.6660  177.4820  146.6390 C   0  0  0  0  0  0  0  0  0  0  0  0
  187.3780  177.9650  146.8440 C   0  0  0  0  0  0  0  0  0  0  0  0
  192.6100  175.8730  145.7230 C   0  0  0  0  0  0  0  0  0  0  0  0
  191.8380  175.0390  143.5280 C   0  0  0  0  0  3  0  0  0  0  0  0
  185.2440  178.4450  146.5080 C   0  0  0  0  0  0  0  0  0  0  0  0
  194.2610  174.6600  144.2800 C   0  0  2  0  0  3  0  0  0  0  0  0
  189.6540  174.8310  141.7070 C   0  0  0  0  0  3  0  0  0  0  0  0
  190.4760  175.6180  143.8680 C   0  0  0  0  0  0  0  0  0  0  0  0
  189.4320  175.4840  142.9340 C   0  0  0  0  0  0  0  0  0  0  0  0
  187.9040  176.6600  144.4370 C   0  0  0  0  0  0  0  0  0  0  0  0
  185.5850  178.8980  147.6730 N   0  0  0  0  0  0  0  0  0  0  0  0
  195.0240  176.1450  146.2120 C   0  0  0  0  0  2  0  0  0  0  0  0
  192.8920  175.2310  144.5800 C   0  0  0  0  0  0  0  0  0  0  0  0
  186.9420  178.5930  147.8880 N   0  0  0  0  0  2  0  0  0  0  0  0
  193.6290  175.9890  146.8070 C   0  0  0  0  0  2  0  0  0  0  0  0
  194.7090  173.8020  145.3950 N   0  0  0  0  0  0  0  0  0  0  0  0
  187.1250  175.8550  142.2600 C   0  0  0  0  0  3  0  0  0  0  0  0
  188.1490  176.0040  143.2160 C   0  0  0  0  0  0  0  0  0  0  0  0
  186.6150  177.1740  144.7050 C   0  0  0  0  0  3  0  0  0  0  0  0
  191.2600  176.3890  145.9750 C   0  0  0  0  0  3  0  0  0  0  0  0
  189.6170  177.6730  147.6380 O   0  0  0  0  0  1  0  0  0  0  0  0
  183.8830  178.5730  145.9240 C   0  0  0  0  0  1  0  0  0  0  0  0
  188.9590  176.8060  145.4060 C   0  0  0  0  0  0  0  0  0  0  0  0
  186.4000  177.8140  145.9110 C   0  0  0  0  0  0  0  0  0  0  0  0
  195.5560  172.7720  144.8150 C   0  0  0  0  0  2  0  0  0  0  0  0
  195.5030  171.5000  145.6120 C   0  0  0  0  0  0  0  0  0  0  0  0
  196.7410  170.8280  146.1130 C   0  0  0  0  0  1  0  0  0  0  0  0
  194.4180  171.0020  145.8590 O   0  0  0  0  0  0  0  0  0  0  0  0
  1 20  1  0  0  0  0
  1 16  1  1  0  0  0
  2 27  1  0  0  0  0
  2 24  1  0  0  0  0
  3  4  2  0  0  0  0
  3 11  1  0  0  0  0
  4 21  1  0  0  0  0
  5  6  1  0  0  0  0
  5 25  1  0  0  0  0
  6 18  1  0  0  0  0
  7 24  2  0  0  0  0
  7 19  1  0  0  0  0
  8 12  1  0  0  0  0
  8 17  2  0  0  0  0
  9 15  2  0  0  0  0
 10 17  1  1  0  0  0
 10  1  1  0  0  0  0
 10 20  1  0  0  0  0
 11 13  2  0  0  0  0
 12  2  2  0  0  0  0
 13 22  1  0  0  0  0
 13 12  1  0  0  0  0
 14 23  2  0  0  0  0
 14 27  1  0  0  0  0
 15 18  1  0  0  0  0
 16 19  1  0  0  0  0
 17  7  1  0  0  0  0
 21 22  2  0  0  0  0
 22 14  1  0  0  0  0
 23 28  1  0  0  0  0
 26  9  1  0  0  0  0
 27  5  2  0  0  0  0
 28  9  1  0  0  0  0
 28  6  2  0  0  0  0
 29 20  1  0  0  0  0
 29 30  1  0  0  0  0
 30 32  2  0  0  0  0
 30 31  1  0  0  0  0
M  END
>  <MODEL>
5

>  <REMARK>
 VINA RESULT:      -8.7      3.258      5.229
  Name = 
  2 active torsions:
  status: ('A' for Active; 'I' for Inactive)
    1  A    between atoms: N_20  and  C_29
    2  A    between atoms: C_29  and  C_30
                            x       y       z     vdW  Elec       q    Type
                         _______ _______ _______ _____ _____    ______ ____

>  <TORSDO>
F 2

$$$$
=
 OpenBabel11112416333D

 32 38  0  0  1  0  0  0  0  0999 V2000
  185.8090  178.7580  143.6820 C   0  0  1  0  0  3  0  0  0  0  0  0
  189.3940  174.9020  143.6970 C   0  0  0  0  0  0  0  0  0  0  0  0
  192.8540  176.4150  146.7990 C   0  0  0  0  0  3  0  0  0  0  0  0
  193.6150  175.2840  146.5130 C   0  0  0  0  0  3  0  0  0  0  0  0
  189.7140  172.7360  142.4610 C   0  0  0  0  0  0  0  0  0  0  0  0
  190.5310  171.6350  142.2280 C   0  0  0  0  0  0  0  0  0  0  0  0
  187.3710  176.2930  143.3800 C   0  0  0  0  0  0  0  0  0  0  0  0
  189.0840  177.0970  144.9710 C   0  0  0  0  0  3  0  0  0  0  0  0
  192.2410  170.2360  142.3410 C   0  0  0  0  0  0  0  0  0  0  0  0
  186.9400  178.4510  144.5800 C   0  0  2  0  0  3  0  0  0  0  0  0
  191.6210  176.5990  146.1730 C   0  0  0  0  0  3  0  0  0  0  0  0
  189.8850  175.8540  144.6250 C   0  0  0  0  0  0  0  0  0  0  0  0
  191.1290  175.6560  145.2510 C   0  0  0  0  0  0  0  0  0  0  0  0
  191.4300  173.5530  144.0410 C   0  0  0  0  0  0  0  0  0  0  0  0
  191.3790  169.7570  141.5010 N   0  0  0  0  0  0  0  0  0  0  0  0
  185.6560  177.8280  142.4620 C   0  0  0  0  0  2  0  0  0  0  0  0
  187.7710  177.2280  144.2550 C   0  0  0  0  0  0  0  0  0  0  0  0
  190.2900  170.6460  141.4290 N   0  0  0  0  0  0  0  0  0  0  0  0
  186.0300  176.3750  142.7320 C   0  0  0  0  0  2  0  0  0  0  0  0
  185.5690  178.0490  144.9520 N   0  0  0  0  0  0  0  0  0  0  0  0
  193.1440  174.3400  145.6020 C   0  0  0  0  0  3  0  0  0  0  0  0
  191.9020  174.5090  144.9590 C   0  0  0  0  0  0  0  0  0  0  0  0
  192.2140  172.4100  143.7610 C   0  0  0  0  0  3  0  0  0  0  0  0
  188.2040  175.1140  143.1150 C   0  0  0  0  0  2  0  0  0  0  0  0
  188.5010  172.8240  141.7830 O   0  0  0  0  0  1  0  0  0  0  0  0
  193.5290  169.5770  142.6870 C   0  0  0  0  0  1  0  0  0  0  0  0
  190.1580  173.7370  143.3920 C   0  0  0  0  0  0  0  0  0  0  0  0
  191.7280  171.4850  142.8550 C   0  0  0  0  0  0  0  0  0  0  0  0
  185.0870  179.0410  145.9000 C   0  0  0  0  0  2  0  0  0  0  0  0
  185.6740  178.8300  147.2660 C   0  0  0  0  0  0  0  0  0  0  0  0
  185.9380  177.4630  147.8120 C   0  0  0  0  0  1  0  0  0  0  0  0
  185.9440  179.8020  147.9500 O   0  0  0  0  0  0  0  0  0  0  0  0
  1 16  1  6  0  0  0
  1 10  1  0  0  0  0
  1 20  1  0  0  0  0
  2 12  1  0  0  0  0
  4  3  1  0  0  0  0
  5 27  1  0  0  0  0
  6  5  2  0  0  0  0
  6 28  1  0  0  0  0
  7 17  2  0  0  0  0
  9 26  1  0  0  0  0
  9 28  2  0  0  0  0
 10 17  1  6  0  0  0
 10 20  1  0  0  0  0
 11  3  2  0  0  0  0
 12  8  2  0  0  0  0
 12 13  1  0  0  0  0
 13 11  1  0  0  0  0
 14 22  1  0  0  0  0
 15  9  1  0  0  0  0
 16 19  1  0  0  0  0
 17  8  1  0  0  0  0
 18 15  2  0  0  0  0
 18  6  1  0  0  0  0
 19  7  1  0  0  0  0
 20 29  1  0  0  0  0
 21  4  2  0  0  0  0
 22 13  2  0  0  0  0
 22 21  1  0  0  0  0
 23 14  2  0  0  0  0
 24  7  1  0  0  0  0
 24  2  1  0  0  0  0
 25  5  1  0  0  0  0
 27  2  2  0  0  0  0
 27 14  1  0  0  0  0
 28 23  1  0  0  0  0
 29 30  1  0  0  0  0
 30 31  1  0  0  0  0
 30 32  2  0  0  0  0
M  END
>  <MODEL>
6

>  <REMARK>
 VINA RESULT:      -8.6      3.344      7.938
  Name = 
  2 active torsions:
  status: ('A' for Active; 'I' for Inactive)
    1  A    between atoms: N_20  and  C_29
    2  A    between atoms: C_29  and  C_30
                            x       y       z     vdW  Elec       q    Type
                         _______ _______ _______ _____ _____    ______ ____

>  <TORSDO>
F 2

$$$$
=
 OpenBabel11112416333D

 32 38  0  0  1  0  0  0  0  0999 V2000
  186.1630  178.2910  141.4030 C   0  0  1  0  0  3  0  0  0  0  0  0
  189.9270  175.4750  143.7740 C   0  0  0  0  0  0  0  0  0  0  0  0
  190.5760  177.6410  148.1060 C   0  0  0  0  0  3  0  0  0  0  0  0
  191.6120  176.7580  148.4010 C   0  0  0  0  0  3  0  0  0  0  0  0
  191.3920  173.5330  143.1400 C   0  0  0  0  0  0  0  0  0  0  0  0
  192.4350  172.6890  143.5060 C   0  0  0  0  0  0  0  0  0  0  0  0
  188.1640  176.3240  142.2570 C   0  0  0  0  0  0  0  0  0  0  0  0
  188.4410  177.4460  144.4420 C   0  0  0  0  0  3  0  0  0  0  0  0
  194.0660  171.7650  144.6820 C   0  0  0  0  0  0  0  0  0  0  0  0
  186.6330  178.2310  142.8010 C   0  0  2  0  0  3  0  0  0  0  0  0
  189.9030  177.5410  146.8890 C   0  0  0  0  0  3  0  0  0  0  0  0
  189.5690  176.4670  144.7210 C   0  0  0  0  0  0  0  0  0  0  0  0
  190.2550  176.5570  145.9460 C   0  0  0  0  0  0  0  0  0  0  0  0
  191.6740  174.6690  145.3160 C   0  0  0  0  0  0  0  0  0  0  0  0
  193.9650  171.1300  143.5570 N   0  0  0  0  0  0  0  0  0  0  0  0
  186.9460  177.4220  140.4000 C   0  0  0  0  0  2  0  0  0  0  0  0
  187.7680  177.2790  143.1110 C   0  0  0  0  0  0  0  0  0  0  0  0
  192.9280  171.7170  142.8090 N   0  0  0  0  0  0  0  0  0  0  0  0
  187.4420  176.0980  140.9720 C   0  0  0  0  0  2  0  0  0  0  0  0
  185.4330  177.4760  142.3910 N   0  0  0  0  0  0  0  0  0  0  0  0
  191.9740  175.7770  147.4790 C   0  0  0  0  0  3  0  0  0  0  0  0
  191.3070  175.6610  146.2440 C   0  0  0  0  0  0  0  0  0  0  0  0
  192.7280  173.7790  145.6300 C   0  0  0  0  0  3  0  0  0  0  0  0
  189.2560  175.4110  142.6140 C   0  0  0  0  0  2  0  0  0  0  0  0
  190.7870  173.3470  141.9000 O   0  0  0  0  0  1  0  0  0  0  0  0
  195.0530  171.4360  145.7450 C   0  0  0  0  0  1  0  0  0  0  0  0
  190.9840  174.5600  144.0580 C   0  0  0  0  0  0  0  0  0  0  0  0
  193.0710  172.8130  144.7020 C   0  0  0  0  0  0  0  0  0  0  0  0
  184.2820  178.2590  142.8110 C   0  0  0  0  0  2  0  0  0  0  0  0
  184.3790  178.6480  144.2590 C   0  0  0  0  0  0  0  0  0  0  0  0
  184.7990  177.6750  145.3140 C   0  0  0  0  0  1  0  0  0  0  0  0
  184.1070  179.7910  144.5830 O   0  0  0  0  0  0  0  0  0  0  0  0
  1 16  1  6  0  0  0
  1 20  1  0  0  0  0
  1 10  1  0  0  0  0
  2 27  2  0  0  0  0
  2 12  1  0  0  0  0
  3  4  1  0  0  0  0
  5  6  2  0  0  0  0
  5 27  1  0  0  0  0
  6 28  1  0  0  0  0
  7 24  1  0  0  0  0
  7 17  2  0  0  0  0
  8 12  2  0  0  0  0
  9 28  2  0  0  0  0
  9 26  1  0  0  0  0
 10 17  1  6  0  0  0
 11  3  2  0  0  0  0
 12 13  1  0  0  0  0
 13 22  2  0  0  0  0
 13 11  1  0  0  0  0
 14 23  2  0  0  0  0
 14 22  1  0  0  0  0
 15  9  1  0  0  0  0
 16 19  1  0  0  0  0
 17  8  1  0  0  0  0
 18  6  1  0  0  0  0
 18 15  2  0  0  0  0
 19  7  1  0  0  0  0
 20 10  1  0  0  0  0
 20 29  1  0  0  0  0
 21  4  2  0  0  0  0
 22 21  1  0  0  0  0
 24  2  1  0  0  0  0
 25  5  1  0  0  0  0
 27 14  1  0  0  0  0
 28 23  1  0  0  0  0
 29 30  1  0  0  0  0
 30 32  2  0  0  0  0
 30 31  1  0  0  0  0
M  END
>  <MODEL>
7

>  <REMARK>
 VINA RESULT:      -8.4      2.667      8.141
  Name = 
  2 active torsions:
  status: ('A' for Active; 'I' for Inactive)
    1  A    between atoms: N_20  and  C_29
    2  A    between atoms: C_29  and  C_30
                            x       y       z     vdW  Elec       q    Type
                         _______ _______ _______ _____ _____    ______ ____

>  <TORSDO>
F 2

$$$$
=
 OpenBabel11112416333D

 32 38  0  0  1  0  0  0  0  0999 V2000
  194.0230  171.3060  144.4580 C   0  0  1  0  0  3  0  0  0  0  0  0
  190.3900  175.0980  144.8430 C   0  0  0  0  0  0  0  0  0  0  0  0
  191.5530  177.5420  148.9120 C   0  0  0  0  0  3  0  0  0  0  0  0
  190.4270  178.3480  148.7590 C   0  0  0  0  0  3  0  0  0  0  0  0
  188.3250  175.7490  143.5670 C   0  0  0  0  0  0  0  0  0  0  0  0
  187.2230  176.5930  143.4810 C   0  0  0  0  0  0  0  0  0  0  0  0
  191.8510  173.2450  144.0950 C   0  0  0  0  0  0  0  0  0  0  0  0
  192.4920  174.4570  146.1510 C   0  0  0  0  0  3  0  0  0  0  0  0
  185.7720  178.1950  143.9530 C   0  0  0  0  0  0  0  0  0  0  0  0
  193.9440  172.5330  145.2750 C   0  0  2  0  0  3  0  0  0  0  0  0
  191.8210  176.5390  147.9810 C   0  0  0  0  0  3  0  0  0  0  0  0
  191.2510  175.3090  145.9490 C   0  0  0  0  0  0  0  0  0  0  0  0
  190.9690  176.3250  146.8810 C   0  0  0  0  0  0  0  0  0  0  0  0
  188.9620  176.9470  145.6320 C   0  0  0  0  0  0  0  0  0  0  0  0
  185.3870  177.6050  142.8660 N   0  0  0  0  0  0  0  0  0  0  0  0
  192.7890  171.0090  143.5830 C   0  0  0  0  0  2  0  0  0  0  0  0
  192.7130  173.3970  145.1120 C   0  0  0  0  0  0  0  0  0  0  0  0
  186.3090  176.5860  142.5650 N   0  0  0  0  0  0  0  0  0  0  0  0
  192.1120  172.2510  143.0130 C   0  0  0  0  0  2  0  0  0  0  0  0
  194.7290  172.5250  144.0250 N   0  0  0  0  0  0  0  0  0  0  0  0
  189.5720  178.1510  147.6750 C   0  0  0  0  0  3  0  0  0  0  0  0
  189.8270  177.1420  146.7250 C   0  0  0  0  0  0  0  0  0  0  0  0
  187.8240  177.7740  145.4890 C   0  0  0  0  0  3  0  0  0  0  0  0
  190.6820  174.1230  143.9690 C   0  0  0  0  0  2  0  0  0  0  0  0
  188.5010  174.7790  142.5830 O   0  0  0  0  0  1  0  0  0  0  0  0
  185.0520  179.3290  144.5920 C   0  0  0  0  0  1  0  0  0  0  0  0
  189.2340  175.9140  144.6670 C   0  0  0  0  0  0  0  0  0  0  0  0
  186.9890  177.5620  144.4070 C   0  0  0  0  0  0  0  0  0  0  0  0
  196.1220  172.3600  144.4070 C   0  0  0  0  0  2  0  0  0  0  0  0
  196.6770  173.6130  145.0220 C   0  0  0  0  0  0  0  0  0  0  0  0
  196.6220  174.9310  144.3200 C   0  0  0  0  0  1  0  0  0  0  0  0
  197.1890  173.5530  146.1270 O   0  0  0  0  0  0  0  0  0  0  0  0
  1 16  1  6  0  0  0
  1 10  1  0  0  0  0
  2 12  1  0  0  0  0
  4  3  1  0  0  0  0
  5 27  1  0  0  0  0
  6  5  2  0  0  0  0
  6 28  1  0  0  0  0
  7 17  2  0  0  0  0
  9 28  2  0  0  0  0
  9 26  1  0  0  0  0
 10 17  1  6  0  0  0
 11  3  2  0  0  0  0
 12  8  2  0  0  0  0
 12 13  1  0  0  0  0
 13 11  1  0  0  0  0
 14 22  1  0  0  0  0
 15  9  1  0  0  0  0
 17  8  1  0  0  0  0
 18 15  2  0  0  0  0
 18  6  1  0  0  0  0
 19 16  1  0  0  0  0
 19  7  1  0  0  0  0
 20 29  1  0  0  0  0
 20  1  1  0  0  0  0
 20 10  1  0  0  0  0
 21  4  2  0  0  0  0
 22 13  2  0  0  0  0
 22 21  1  0  0  0  0
 23 14  2  0  0  0  0
 24  7  1  0  0  0  0
 24  2  1  0  0  0  0
 25  5  1  0  0  0  0
 27  2  2  0  0  0  0
 27 14  1  0  0  0  0
 28 23  1  0  0  0  0
 29 30  1  0  0  0  0
 30 32  2  0  0  0  0
 31 30  1  0  0  0  0
M  END
>  <MODEL>
8

>  <REMARK>
 VINA RESULT:      -8.4      2.587      4.191
  Name = 
  2 active torsions:
  status: ('A' for Active; 'I' for Inactive)
    1  A    between atoms: N_20  and  C_29
    2  A    between atoms: C_29  and  C_30
                            x       y       z     vdW  Elec       q    Type
                         _______ _______ _______ _____ _____    ______ ____

>  <TORSDO>
F 2

$$$$
=
 OpenBabel11112416333D

 32 38  0  0  1  0  0  0  0  0999 V2000
  185.5510  177.1780  144.5260 C   0  0  1  0  0  3  0  0  0  0  0  0
  190.3660  175.6570  143.0360 C   0  0  0  0  0  0  0  0  0  0  0  0
  189.6060  172.3100  139.5570 C   0  0  0  0  0  3  0  0  0  0  0  0
  190.9770  172.0850  139.4620 C   0  0  0  0  0  3  0  0  0  0  0  0
  192.7180  176.1540  143.7680 C   0  0  0  0  0  0  0  0  0  0  0  0
  194.0720  175.8750  143.6160 C   0  0  0  0  0  0  0  0  0  0  0  0
  188.4200  176.8160  144.0350 C   0  0  0  0  0  0  0  0  0  0  0  0
  187.9810  175.1420  142.2690 C   0  0  0  0  0  3  0  0  0  0  0  0
  195.9530  174.9720  142.8820 C   0  0  0  0  0  0  0  0  0  0  0  0
  186.0400  176.4160  143.3590 C   0  0  2  0  0  3  0  0  0  0  0  0
  189.1160  173.2500  140.4640 C   0  0  0  0  0  3  0  0  0  0  0  0
  189.4830  174.9240  142.2030 C   0  0  0  0  0  0  0  0  0  0  0  0
  189.9890  173.9800  141.2920 C   0  0  0  0  0  0  0  0  0  0  0  0
  192.2720  174.4710  142.0150 C   0  0  0  0  0  0  0  0  0  0  0  0
  196.2500  175.8420  143.7940 N   0  0  0  0  0  0  0  0  0  0  0  0
  186.6200  177.5620  145.5670 C   0  0  0  0  0  2  0  0  0  0  0  0
  187.5290  176.1650  143.2710 C   0  0  0  0  0  0  0  0  0  0  0  0
  195.0540  176.4170  144.2620 N   0  0  0  0  0  2  0  0  0  0  0  0
  187.9840  177.8940  144.9690 C   0  0  0  0  0  2  0  0  0  0  0  0
  185.7600  177.8610  143.2370 N   0  0  0  0  0  0  0  0  0  0  0  0
  191.8570  172.8000  140.2750 C   0  0  0  0  0  3  0  0  0  0  0  0
  191.3810  173.7510  141.1970 C   0  0  0  0  0  0  0  0  0  0  0  0
  193.6620  174.2330  141.9080 C   0  0  0  0  0  3  0  0  0  0  0  0
  189.8570  176.5510  143.8950 C   0  0  0  0  0  3  0  0  0  0  0  0
  192.3350  177.1120  144.7040 O   0  0  0  0  0  1  0  0  0  0  0  0
  196.9550  174.1530  142.1470 C   0  0  0  0  0  1  0  0  0  0  0  0
  191.7740  175.4420  142.9530 C   0  0  0  0  0  0  0  0  0  0  0  0
  194.5170  174.9520  142.7220 C   0  0  0  0  0  0  0  0  0  0  0  0
  184.4540  177.9810  142.6100 C   0  0  0  0  0  2  0  0  0  0  0  0
  184.5710  178.1970  141.1280 C   0  0  0  0  0  0  0  0  0  0  0  0
  185.8370  177.9160  140.3850 C   0  0  0  0  0  1  0  0  0  0  0  0
  183.6040  178.6130  140.5130 O   0  0  0  0  0  0  0  0  0  0  0  0
  1 16  1  1  0  0  0
  2 24  1  0  0  0  0
  3 11  1  0  0  0  0
  4  3  2  0  0  0  0
  4 21  1  0  0  0  0
  5 25  1  0  0  0  0
  6  5  1  0  0  0  0
  6 18  1  0  0  0  0
  7 19  1  0  0  0  0
  8 17  2  0  0  0  0
  9 15  2  0  0  0  0
 10 17  1  1  0  0  0
 10  1  1  0  0  0  0
 11 13  2  0  0  0  0
 12  8  1  0  0  0  0
 12  2  2  0  0  0  0
 13 12  1  0  0  0  0
 14 27  1  0  0  0  0
 15 18  1  0  0  0  0
 17  7  1  0  0  0  0
 19 16  1  0  0  0  0
 20 10  1  0  0  0  0
 20  1  1  0  0  0  0
 21 22  2  0  0  0  0
 22 13  1  0  0  0  0
 22 14  1  0  0  0  0
 23 14  2  0  0  0  0
 23 28  1  0  0  0  0
 24  7  2  0  0  0  0
 26  9  1  0  0  0  0
 27  2  1  0  0  0  0
 27  5  2  0  0  0  0
 28  9  1  0  0  0  0
 28  6  2  0  0  0  0
 29 20  1  0  0  0  0
 30 29  1  0  0  0  0
 31 30  1  0  0  0  0
 32 30  2  0  0  0  0
M  END
>  <MODEL>
9

>  <REMARK>
 VINA RESULT:      -8.3      2.498      9.111
  Name = 
  2 active torsions:
  status: ('A' for Active; 'I' for Inactive)
    1  A    between atoms: N_20  and  C_29
    2  A    between atoms: C_29  and  C_30
                            x       y       z     vdW  Elec       q    Type
                         _______ _______ _______ _____ _____    ______ ____

>  <TORSDO>
F 2

$$$$
