=
 OpenBabel11112417313D

 37 44  0  0  1  0  0  0  0  0999 V2000
  186.9400  177.6570  147.1120 C   0  0  1  0  0  0  0  0  0  0  0  0
  189.5680  176.2040  144.8560 C   0  0  1  0  0  3  0  0  0  0  0  0
  188.9920  176.1900  141.5920 O   0  0  0  0  0  0  0  0  0  0  0  0
  189.2330  177.5410  147.0650 C   0  0  2  0  0  3  0  0  0  0  0  0
  188.3990  175.9840  143.8960 C   0  0  2  0  0  3  0  0  0  0  0  0
  189.2010  177.5300  145.5330 C   0  0  2  0  0  3  0  0  0  0  0  0
  188.7500  175.2480  142.6020 C   0  0  2  0  0  3  0  0  0  0  0  0
  190.4620  176.7900  147.5470 C   0  0  0  0  0  2  0  0  0  0  0  0
  187.8290  177.9040  144.9760 C   0  0  2  0  0  3  0  0  0  0  0  0
  187.0200  179.0340  147.3000 F   0  0  0  0  0  0  0  0  0  0  0  0
  190.4190  173.8380  145.1390 C   0  0  0  0  0  2  0  0  0  0  0  0
  190.4630  175.3200  147.1110 C   0  0  0  0  0  2  0  0  0  0  0  0
  186.7840  177.3300  145.7490 O   0  0  0  0  0  0  0  0  0  0  0  0
  186.6920  175.6600  141.1450 O   0  0  0  0  0  0  0  0  0  0  0  0
  187.8540  176.3620  140.7540 C   0  0  1  0  0  3  0  0  0  0  0  0
  189.6990  175.0060  145.8140 C   0  0  1  0  0  3  0  0  0  0  0  0
  187.8400  177.3120  143.6330 N   0  0  2  0  0  0  0  0  0  0  0  0
  188.0670  176.9920  147.6380 O   0  0  0  0  0  0  0  0  0  0  0  0
  189.8950  174.2330  142.7200 C   0  0  1  0  0  3  0  0  0  0  0  0
  185.7150  177.1650  147.8530 C   0  0  0  0  0  1  0  0  0  0  0  0
  186.6830  177.0440  141.4190 C   0  0  2  0  0  3  0  0  0  0  0  0
  186.5320  177.2080  142.9540 C   0  0  2  0  0  3  0  0  0  0  0  0
  189.6920  173.2990  143.9120 C   0  0  0  0  0  2  0  0  0  0  0  0
  188.8620  172.6730  140.9390 C   0  0  0  0  0  2  0  0  0  0  0  0
  190.0530  173.4420  141.4560 C   0  0  0  0  0  0  0  0  0  0  0  0
  191.2420  173.3510  140.8430 C   0  0  0  0  0  3  0  0  0  0  0  0
  192.4970  172.3550  139.0970 O   0  0  0  0  0  0  0  0  0  0  0  0
  190.1810  172.1160  138.9500 N   0  0  0  0  0  2  0  0  0  0  0  0
  191.3640  172.5910  139.5930 C   0  0  0  0  0  0  0  0  0  0  0  0
  188.8770  172.5860  139.4120 C   0  0  0  0  0  2  0  0  0  0  0  0
  185.6590  178.4500  143.1890 C   0  0  1  0  0  3  0  0  0  0  0  0
  184.3300  178.2890  142.5140 N   0  0  0  0  0  0  0  0  0  0  0  0
  184.5670  178.1380  143.9760 C   0  0  2  0  0  3  0  0  0  0  0  0
  184.0680  179.3750  144.6920 C   0  0  0  0  0  2  0  0  0  0  0  0
  183.6900  179.0410  145.9790 F   0  0  0  0  0  0  0  0  0  0  0  0
  182.1630  178.2910  141.5240 C   0  0  0  0  0  2  0  0  0  0  0  0
  183.4770  178.2910  141.3730 C   0  0  0  0  0  3  0  0  0  0  0  0
  1 10  1  0  0  0  0
  1 18  1  0  0  0  0
  1 20  1  1  0  0  0
  2  6  1  0  0  0  0
  2 16  1  0  0  0  0
  3  7  1  0  0  0  0
  4  8  1  0  0  0  0
  4 18  1  0  0  0  0
  5  2  1  0  0  0  0
  6  4  1  0  0  0  0
  7 19  1  0  0  0  0
  7  5  1  0  0  0  0
  9  6  1  0  0  0  0
  9 13  1  0  0  0  0
 11 16  1  0  0  0  0
 12  8  1  0  0  0  0
 13  1  1  0  0  0  0
 14 21  1  0  0  0  0
 15 14  1  0  0  0  0
 15 21  1  0  0  0  0
 15  3  1  0  0  0  0
 16 12  1  0  0  0  0
 17  5  1  0  0  0  0
 17  9  1  0  0  0  0
 19 23  1  0  0  0  0
 21 22  1  0  0  0  0
 22 31  1  0  0  0  0
 22 17  1  0  0  0  0
 23 11  1  0  0  0  0
 24 25  1  0  0  0  0
 25 19  1  0  0  0  0
 26 25  2  0  0  0  0
 27 29  2  0  0  0  0
 28 30  1  0  0  0  0
 28 29  1  0  0  0  0
 29 26  1  0  0  0  0
 30 24  1  0  0  0  0
 31 33  1  0  0  0  0
 32 31  1  0  0  0  0
 32 33  1  0  0  0  0
 33 34  1  0  0  0  0
 34 35  1  0  0  0  0
 37 36  2  0  0  0  0
 37 32  1  0  0  0  0
M  END
>  <MODEL>
1

>  <REMARK>
 VINA RESULT:      -8.0      0.000      0.000
  Name = 
  4 active torsions:
  status: ('A' for Active; 'I' for Inactive)
    1  A    between atoms: C_1  and  C_27
    2  A    between atoms: N_4  and  C_37
    3  A    between atoms: C_8  and  C_12
    4  A    between atoms: C_23  and  C_30
                            x       y       z     vdW  Elec       q    Type
                         _______ _______ _______ _____ _____    ______ ____

>  <TORSDO>
F 4

$$$$
=
 OpenBabel11112417313D

 37 44  0  0  1  0  0  0  0  0999 V2000
  194.0850  174.3910  142.9940 C   0  0  1  0  0  0  0  0  0  0  0  0
  190.9170  175.2140  144.8370 C   0  0  1  0  0  3  0  0  0  0  0  0
  188.0320  174.7460  143.2720 O   0  0  0  0  0  0  0  0  0  0  0  0
  193.3300  174.2910  145.1610 C   0  0  2  0  0  3  0  0  0  0  0  0
  190.3300  175.3780  143.4360 C   0  0  2  0  0  3  0  0  0  0  0  0
  191.9040  174.0550  144.6530 C   0  0  2  0  0  3  0  0  0  0  0  0
  188.8780  175.8590  143.3910 C   0  0  2  0  0  3  0  0  0  0  0  0
  193.2740  174.9980  146.5050 C   0  0  0  0  0  2  0  0  0  0  0  0
  191.8640  173.7190  143.1630 C   0  0  2  0  0  3  0  0  0  0  0  0
  194.4890  173.0620  143.0810 F   0  0  0  0  0  0  0  0  0  0  0  0
  190.4930  177.5080  145.8150 C   0  0  0  0  0  2  0  0  0  0  0  0
  192.5960  176.3700  146.4210 C   0  0  0  0  0  2  0  0  0  0  0  0
  192.7960  174.5040  142.4320 O   0  0  0  0  0  0  0  0  0  0  0  0
  188.2090  175.4010  140.9670 O   0  0  0  0  0  0  0  0  0  0  0  0
  187.6220  174.5420  141.9240 C   0  0  1  0  0  3  0  0  0  0  0  0
  191.5550  176.5360  145.3020 C   0  0  1  0  0  3  0  0  0  0  0  0
  190.4950  174.0810  142.7760 N   0  0  2  0  0  0  0  0  0  0  0  0
  194.1170  175.0300  144.2520 O   0  0  0  0  0  0  0  0  0  0  0  0
  188.4580  176.7730  144.5500 C   0  0  1  0  0  3  0  0  0  0  0  0
  195.0570  175.1060  142.0800 C   0  0  0  0  0  1  0  0  0  0  0  0
  188.7210  174.0860  140.9960 C   0  0  2  0  0  3  0  0  0  0  0  0
  190.2340  174.1900  141.3260 C   0  0  2  0  0  3  0  0  0  0  0  0
  189.4640  177.9030  144.7620 C   0  0  0  0  0  2  0  0  0  0  0  0
  186.7580  177.9320  142.9890 C   0  0  0  0  0  2  0  0  0  0  0  0
  187.0830  177.3290  144.3330 C   0  0  0  0  0  0  0  0  0  0  0  0
  186.1880  177.3650  145.3320 C   0  0  0  0  0  3  0  0  0  0  0  0
  184.0480  178.0900  146.0450 O   0  0  0  0  0  0  0  0  0  0  0  0
  184.4420  178.1840  143.7470 N   0  0  0  0  0  2  0  0  0  0  0  0
  184.8400  177.8920  145.0870 C   0  0  0  0  0  0  0  0  0  0  0  0
  185.2810  177.7420  142.6370 C   0  0  0  0  0  2  0  0  0  0  0  0
  190.9440  173.0860  140.5260 C   0  0  1  0  0  3  0  0  0  0  0  0
  190.4770  171.7350  140.9750 N   0  0  0  0  0  0  0  0  0  0  0  0
  190.0460  172.4120  139.7220 C   0  0  2  0  0  3  0  0  0  0  0  0
  190.7660  171.7870  138.5450 C   0  0  0  0  0  2  0  0  0  0  0  0
  190.2730  170.5140  138.3260 F   0  0  0  0  0  0  0  0  0  0  0  0
  190.8390  169.4330  141.4750 C   0  0  0  0  0  2  0  0  0  0  0  0
  190.4570  170.6340  141.8790 C   0  0  0  0  0  3  0  0  0  0  0  0
  1 20  1  6  0  0  0
  1 10  1  0  0  0  0
  1 18  1  0  0  0  0
  2 16  1  0  0  0  0
  3  7  1  0  0  0  0
  4  8  1  0  0  0  0
  5  2  1  0  0  0  0
  6  2  1  0  0  0  0
  6  4  1  0  0  0  0
  7  5  1  0  0  0  0
  7 19  1  0  0  0  0
  9  6  1  0  0  0  0
 12  8  1  0  0  0  0
 13  1  1  0  0  0  0
 13  9  1  0  0  0  0
 14 21  1  0  0  0  0
 14 15  1  0  0  0  0
 15  3  1  0  0  0  0
 16 11  1  0  0  0  0
 16 12  1  0  0  0  0
 17  9  1  0  0  0  0
 17  5  1  0  0  0  0
 18  4  1  0  0  0  0
 19 23  1  0  0  0  0
 21 22  1  0  0  0  0
 21 15  1  0  0  0  0
 22 17  1  0  0  0  0
 23 11  1  0  0  0  0
 24 25  1  0  0  0  0
 25 19  1  0  0  0  0
 25 26  2  0  0  0  0
 28 29  1  0  0  0  0
 29 26  1  0  0  0  0
 29 27  2  0  0  0  0
 30 24  1  0  0  0  0
 30 28  1  0  0  0  0
 31 32  1  0  0  0  0
 31 22  1  0  0  0  0
 32 37  1  0  0  0  0
 33 31  1  0  0  0  0
 33 32  1  0  0  0  0
 34 33  1  0  0  0  0
 35 34  1  0  0  0  0
 36 37  2  0  0  0  0
M  END
>  <MODEL>
2

>  <REMARK>
 VINA RESULT:      -7.9      3.587      7.331
  Name = 
  4 active torsions:
  status: ('A' for Active; 'I' for Inactive)
    1  A    between atoms: C_1  and  C_27
    2  A    between atoms: N_4  and  C_37
    3  A    between atoms: C_8  and  C_12
    4  A    between atoms: C_23  and  C_30
                            x       y       z     vdW  Elec       q    Type
                         _______ _______ _______ _____ _____    ______ ____

>  <TORSDO>
F 4

$$$$
=
 OpenBabel11112417313D

 37 44  0  0  1  0  0  0  0  0999 V2000
  193.9000  174.1650  142.9880 C   0  0  1  0  0  0  0  0  0  0  0  0
  190.7440  175.0970  144.7990 C   0  0  1  0  0  3  0  0  0  0  0  0
  187.8720  174.8460  143.1630 O   0  0  0  0  0  0  0  0  0  0  0  0
  193.0960  174.0300  145.1350 C   0  0  2  0  0  3  0  0  0  0  0  0
  190.1960  175.3430  143.3940 C   0  0  2  0  0  3  0  0  0  0  0  0
  191.6690  173.8920  144.5920 C   0  0  2  0  0  3  0  0  0  0  0  0
  188.7750  175.9050  143.3390 C   0  0  2  0  0  3  0  0  0  0  0  0
  193.0490  174.6910  146.5030 C   0  0  0  0  0  2  0  0  0  0  0  0
  191.6420  173.6120  143.0910 C   0  0  2  0  0  3  0  0  0  0  0  0
  194.2290  172.8120  143.0350 F   0  0  0  0  0  0  0  0  0  0  0  0
  190.4250  177.3750  145.8520 C   0  0  0  0  0  2  0  0  0  0  0  0
  192.4500  176.1010  146.4560 C   0  0  0  0  0  2  0  0  0  0  0  0
  192.6310  174.3690  142.4070 O   0  0  0  0  0  0  0  0  0  0  0  0
  188.1330  175.5700  140.8880 O   0  0  0  0  0  0  0  0  0  0  0  0
  187.4790  174.7130  141.8010 C   0  0  1  0  0  3  0  0  0  0  0  0
  191.4430  176.3640  145.3240 C   0  0  1  0  0  3  0  0  0  0  0  0
  190.3040  174.0620  142.6910 N   0  0  2  0  0  0  0  0  0  0  0  0
  193.9400  174.7560  144.2690 O   0  0  0  0  0  0  0  0  0  0  0  0
  188.3810  176.7990  144.5220 C   0  0  1  0  0  3  0  0  0  0  0  0
  194.9290  174.8560  142.1200 C   0  0  0  0  0  1  0  0  0  0  0  0
  188.5710  174.2290  140.8790 C   0  0  2  0  0  3  0  0  0  0  0  0
  190.0800  174.2370  141.2400 C   0  0  2  0  0  3  0  0  0  0  0  0
  189.4420  177.8630  144.7940 C   0  0  0  0  0  2  0  0  0  0  0  0
  186.7930  178.1360  142.9860 C   0  0  0  0  0  2  0  0  0  0  0  0
  187.0430  177.4380  144.3000 C   0  0  0  0  0  0  0  0  0  0  0  0
  186.1200  177.4620  145.2720 C   0  0  0  0  0  3  0  0  0  0  0  0
  183.9970  178.2550  145.9650 O   0  0  0  0  0  0  0  0  0  0  0  0
  184.4690  178.4640  143.6890 N   0  0  0  0  0  2  0  0  0  0  0  0
  184.8080  178.0730  145.0200 C   0  0  0  0  0  0  0  0  0  0  0  0
  185.3200  178.0440  142.5800 C   0  0  0  0  0  2  0  0  0  0  0  0
  190.7450  173.1240  140.4150 C   0  0  1  0  0  3  0  0  0  0  0  0
  190.3860  173.2640  138.9670 N   0  0  0  0  0  0  0  0  0  0  0  0
  191.6940  173.6510  139.5620 C   0  0  2  0  0  3  0  0  0  0  0  0
  192.7290  172.6010  139.2170 C   0  0  0  0  0  2  0  0  0  0  0  0
  192.6760  171.5790  140.1460 F   0  0  0  0  0  0  0  0  0  0  0  0
  189.4380  174.0700  136.9350 C   0  0  0  0  0  2  0  0  0  0  0  0
  189.5010  173.1260  137.8590 C   0  0  0  0  0  3  0  0  0  0  0  0
  1 20  1  6  0  0  0
  1 10  1  0  0  0  0
  1 18  1  0  0  0  0
  2 16  1  0  0  0  0
  3  7  1  0  0  0  0
  4  8  1  0  0  0  0
  5  2  1  0  0  0  0
  6  2  1  0  0  0  0
  6  4  1  0  0  0  0
  7  5  1  0  0  0  0
  7 19  1  0  0  0  0
  9  6  1  0  0  0  0
 12  8  1  0  0  0  0
 13  1  1  0  0  0  0
 13  9  1  0  0  0  0
 14 15  1  0  0  0  0
 15  3  1  0  0  0  0
 16 11  1  0  0  0  0
 16 12  1  0  0  0  0
 17  9  1  0  0  0  0
 17  5  1  0  0  0  0
 18  4  1  0  0  0  0
 19 23  1  0  0  0  0
 21 14  1  0  0  0  0
 21 22  1  0  0  0  0
 21 15  1  0  0  0  0
 22 17  1  0  0  0  0
 23 11  1  0  0  0  0
 24 25  1  0  0  0  0
 25 19  1  0  0  0  0
 25 26  2  0  0  0  0
 28 29  1  0  0  0  0
 29 26  1  0  0  0  0
 29 27  2  0  0  0  0
 30 24  1  0  0  0  0
 30 28  1  0  0  0  0
 31 22  1  0  0  0  0
 32 33  1  0  0  0  0
 32 31  1  0  0  0  0
 33 31  1  0  0  0  0
 34 33  1  0  0  0  0
 34 35  1  0  0  0  0
 36 37  2  0  0  0  0
 37 32  1  0  0  0  0
M  END
>  <MODEL>
3

>  <REMARK>
 VINA RESULT:      -7.7      3.397      7.163
  Name = 
  4 active torsions:
  status: ('A' for Active; 'I' for Inactive)
    1  A    between atoms: C_1  and  C_27
    2  A    between atoms: N_4  and  C_37
    3  A    between atoms: C_8  and  C_12
    4  A    between atoms: C_23  and  C_30
                            x       y       z     vdW  Elec       q    Type
                         _______ _______ _______ _____ _____    ______ ____

>  <TORSDO>
F 4

$$$$
=
 OpenBabel11112417313D

 37 44  0  0  1  0  0  0  0  0999 V2000
  191.4040  176.1750  147.1940 C   0  0  1  0  0  0  0  0  0  0  0  0
  191.9420  175.7350  143.5030 C   0  0  1  0  0  3  0  0  0  0  0  0
  189.2950  175.8660  141.5110 O   0  0  0  0  0  0  0  0  0  0  0  0
  193.0260  176.7110  145.6600 C   0  0  2  0  0  3  0  0  0  0  0  0
  190.4810  175.2880  143.5020 C   0  0  2  0  0  3  0  0  0  0  0  0
  191.9560  176.8350  144.5700 C   0  0  2  0  0  3  0  0  0  0  0  0
  189.9500  174.8030  142.1520 C   0  0  2  0  0  3  0  0  0  0  0  0
  194.3420  176.2930  145.0240 C   0  0  0  0  0  2  0  0  0  0  0  0
  190.5400  176.8600  145.1460 C   0  0  2  0  0  3  0  0  0  0  0  0
  191.3950  177.4960  147.6350 F   0  0  0  0  0  0  0  0  0  0  0  0
  193.0800  173.6860  142.5490 C   0  0  0  0  0  2  0  0  0  0  0  0
  194.2530  174.9300  144.3280 C   0  0  0  0  0  2  0  0  0  0  0  0
  190.4050  175.9460  146.2250 O   0  0  0  0  0  0  0  0  0  0  0  0
  187.4220  174.7570  142.5270 O   0  0  0  0  0  0  0  0  0  0  0  0
  187.8840  175.7900  141.6810 C   0  0  1  0  0  3  0  0  0  0  0  0
  192.8630  174.5370  143.8000 C   0  0  1  0  0  3  0  0  0  0  0  0
  189.7130  176.4240  144.0150 N   0  0  2  0  0  0  0  0  0  0  0  0
  192.6650  175.8060  146.6790 O   0  0  0  0  0  0  0  0  0  0  0  0
  190.9920  174.1430  141.2400 C   0  0  1  0  0  3  0  0  0  0  0  0
  191.1080  175.2920  148.3880 C   0  0  0  0  0  1  0  0  0  0  0  0
  187.4070  176.0520  143.0880 C   0  0  2  0  0  3  0  0  0  0  0  0
  188.3270  176.0210  144.3370 C   0  0  2  0  0  3  0  0  0  0  0  0
  191.7970  173.0830  141.9890 C   0  0  0  0  0  2  0  0  0  0  0  0
  189.1490  172.6600  140.2060 C   0  0  0  0  0  2  0  0  0  0  0  0
  190.3520  173.5510  140.0210 C   0  0  0  0  0  0  0  0  0  0  0  0
  190.8800  173.7390  138.8030 C   0  0  0  0  0  3  0  0  0  0  0  0
  190.7870  173.1900  136.5000 O   0  0  0  0  0  0  0  0  0  0  0  0
  188.9250  172.5810  137.7670 N   0  0  0  0  0  2  0  0  0  0  0  0
  190.2190  173.1680  137.6230 C   0  0  0  0  0  0  0  0  0  0  0  0
  188.1910  172.7640  139.0170 C   0  0  0  0  0  2  0  0  0  0  0  0
  187.6880  176.9420  145.3880 C   0  0  1  0  0  3  0  0  0  0  0  0
  186.7190  177.8820  144.7380 N   0  0  0  0  0  0  0  0  0  0  0  0
  186.3400  176.6720  145.5180 C   0  0  2  0  0  3  0  0  0  0  0  0
  185.8510  177.0940  146.8870 C   0  0  0  0  0  2  0  0  0  0  0  0
  184.5280  177.4860  146.8040 F   0  0  0  0  0  0  0  0  0  0  0  0
  185.3000  179.7360  144.2630 C   0  0  0  0  0  2  0  0  0  0  0  0
  186.3900  179.0410  143.9790 C   0  0  0  0  0  3  0  0  0  0  0  0
  1 10  1  0  0  0  0
  1 20  1  1  0  0  0
  2 16  1  0  0  0  0
  2  6  1  0  0  0  0
  3 15  1  0  0  0  0
  3  7  1  0  0  0  0
  4 18  1  0  0  0  0
  5  2  1  0  0  0  0
  5 17  1  0  0  0  0
  6  9  1  0  0  0  0
  6  4  1  0  0  0  0
  7  5  1  0  0  0  0
  8  4  1  0  0  0  0
  9 13  1  0  0  0  0
 11 16  1  0  0  0  0
 12  8  1  0  0  0  0
 13  1  1  0  0  0  0
 14 21  1  0  0  0  0
 15 14  1  0  0  0  0
 15 21  1  0  0  0  0
 16 12  1  0  0  0  0
 17 22  1  0  0  0  0
 17  9  1  0  0  0  0
 18  1  1  0  0  0  0
 19 23  1  0  0  0  0
 19  7  1  0  0  0  0
 21 22  1  0  0  0  0
 22 31  1  0  0  0  0
 23 11  1  0  0  0  0
 25 24  1  0  0  0  0
 25 19  1  0  0  0  0
 26 25  2  0  0  0  0
 27 29  2  0  0  0  0
 28 30  1  0  0  0  0
 29 28  1  0  0  0  0
 29 26  1  0  0  0  0
 30 24  1  0  0  0  0
 31 33  1  0  0  0  0
 32 31  1  0  0  0  0
 32 33  1  0  0  0  0
 33 34  1  0  0  0  0
 35 34  1  0  0  0  0
 37 36  2  0  0  0  0
 37 32  1  0  0  0  0
M  END
>  <MODEL>
4

>  <REMARK>
 VINA RESULT:      -7.7      2.263      3.191
  Name = 
  4 active torsions:
  status: ('A' for Active; 'I' for Inactive)
    1  A    between atoms: C_1  and  C_27
    2  A    between atoms: N_4  and  C_37
    3  A    between atoms: C_8  and  C_12
    4  A    between atoms: C_23  and  C_30
                            x       y       z     vdW  Elec       q    Type
                         _______ _______ _______ _____ _____    ______ ____

>  <TORSDO>
F 4

$$$$
=
 OpenBabel11112417313D

 37 44  0  0  1  0  0  0  0  0999 V2000
  193.2890  173.9670  145.1900 C   0  0  1  0  0  0  0  0  0  0  0  0
  189.7860  175.3180  145.0970 C   0  0  1  0  0  3  0  0  0  0  0  0
  187.8650  174.5040  142.5200 O   0  0  0  0  0  0  0  0  0  0  0  0
  191.6440  174.4690  146.7110 C   0  0  2  0  0  3  0  0  0  0  0  0
  189.9140  175.1110  143.5880 C   0  0  2  0  0  3  0  0  0  0  0  0
  190.5750  174.1340  145.6660 C   0  0  2  0  0  3  0  0  0  0  0  0
  188.7190  175.5910  142.7620 C   0  0  2  0  0  3  0  0  0  0  0  0
  191.0960  175.5120  147.6710 C   0  0  0  0  0  2  0  0  0  0  0  0
  191.1540  173.4100  144.4520 C   0  0  2  0  0  3  0  0  0  0  0  0
  193.4180  172.7020  145.7580 F   0  0  0  0  0  0  0  0  0  0  0  0
  189.3030  177.8000  145.2090 C   0  0  0  0  0  2  0  0  0  0  0  0
  190.7310  176.8250  146.9690 C   0  0  0  0  0  2  0  0  0  0  0  0
  192.4160  173.9500  144.0830 O   0  0  0  0  0  0  0  0  0  0  0  0
  189.1400  174.5110  140.4850 O   0  0  0  0  0  0  0  0  0  0  0  0
  188.0730  173.9540  141.2240 C   0  0  1  0  0  3  0  0  0  0  0  0
  190.3310  176.7040  145.4890 C   0  0  1  0  0  3  0  0  0  0  0  0
  190.1680  173.6810  143.3990 N   0  0  2  0  0  0  0  0  0  0  0  0
  192.8490  174.9200  146.1330 O   0  0  0  0  0  0  0  0  0  0  0  0
  187.9620  176.7910  143.3460 C   0  0  1  0  0  3  0  0  0  0  0  0
  194.6580  174.3900  144.6990 C   0  0  0  0  0  1  0  0  0  0  0  0
  189.3920  173.2430  141.0490 C   0  0  2  0  0  3  0  0  0  0  0  0
  190.5980  173.4010  142.0130 C   0  0  2  0  0  3  0  0  0  0  0  0
  188.9180  177.9160  143.7380 C   0  0  0  0  0  2  0  0  0  0  0  0
  187.3660  177.7500  141.0240 C   0  0  0  0  0  2  0  0  0  0  0  0
  186.9220  177.2960  142.3920 C   0  0  0  0  0  0  0  0  0  0  0  0
  185.6410  177.4190  142.7690 C   0  0  0  0  0  3  0  0  0  0  0  0
  183.4720  178.1730  142.1880 O   0  0  0  0  0  0  0  0  0  0  0  0
  185.0050  178.0360  140.4350 N   0  0  0  0  0  2  0  0  0  0  0  0
  184.6380  177.8920  141.8070 C   0  0  0  0  0  0  0  0  0  0  0  0
  186.2820  177.4970  139.9750 C   0  0  0  0  0  2  0  0  0  0  0  0
  191.4240  172.1090  141.9150 C   0  0  1  0  0  3  0  0  0  0  0  0
  191.7290  171.7930  140.4820 N   0  0  0  0  0  0  0  0  0  0  0  0
  192.6970  172.3770  141.4500 C   0  0  2  0  0  3  0  0  0  0  0  0
  193.6580  171.3000  141.9060 C   0  0  0  0  0  2  0  0  0  0  0  0
  194.4090  170.8660  140.8300 F   0  0  0  0  0  0  0  0  0  0  0  0
  192.2020  171.4960  138.1650 C   0  0  0  0  0  2  0  0  0  0  0  0
  191.3870  171.3010  139.1900 C   0  0  0  0  0  3  0  0  0  0  0  0
  1 20  1  6  0  0  0
  1 10  1  0  0  0  0
  1 18  1  0  0  0  0
  2 16  1  0  0  0  0
  2  6  1  0  0  0  0
  3  7  1  0  0  0  0
  4  8  1  0  0  0  0
  5  2  1  0  0  0  0
  6  4  1  0  0  0  0
  7 19  1  0  0  0  0
  7  5  1  0  0  0  0
  9  6  1  0  0  0  0
 11 16  1  0  0  0  0
 12  8  1  0  0  0  0
 13  9  1  0  0  0  0
 13  1  1  0  0  0  0
 14 21  1  0  0  0  0
 14 15  1  0  0  0  0
 15  3  1  0  0  0  0
 16 12  1  0  0  0  0
 17  5  1  0  0  0  0
 17  9  1  0  0  0  0
 18  4  1  0  0  0  0
 19 23  1  0  0  0  0
 21 15  1  0  0  0  0
 21 22  1  0  0  0  0
 22 17  1  0  0  0  0
 23 11  1  0  0  0  0
 24 25  1  0  0  0  0
 25 26  2  0  0  0  0
 25 19  1  0  0  0  0
 28 29  1  0  0  0  0
 29 27  2  0  0  0  0
 29 26  1  0  0  0  0
 30 28  1  0  0  0  0
 30 24  1  0  0  0  0
 31 22  1  0  0  0  0
 32 33  1  0  0  0  0
 32 31  1  0  0  0  0
 33 34  1  0  0  0  0
 33 31  1  0  0  0  0
 35 34  1  0  0  0  0
 36 37  2  0  0  0  0
 37 32  1  0  0  0  0
M  END
>  <MODEL>
5

>  <REMARK>
 VINA RESULT:      -7.5      3.395      7.090
  Name = 
  4 active torsions:
  status: ('A' for Active; 'I' for Inactive)
    1  A    between atoms: C_1  and  C_27
    2  A    between atoms: N_4  and  C_37
    3  A    between atoms: C_8  and  C_12
    4  A    between atoms: C_23  and  C_30
                            x       y       z     vdW  Elec       q    Type
                         _______ _______ _______ _____ _____    ______ ____

>  <TORSDO>
F 4

$$$$
=
 OpenBabel11112417313D

 37 44  0  0  1  0  0  0  0  0999 V2000
  193.0100  171.6600  143.1770 C   0  0  1  0  0  0  0  0  0  0  0  0
  190.6070  173.8100  141.2520 C   0  0  1  0  0  3  0  0  0  0  0  0
  189.9840  176.8620  142.3870 O   0  0  0  0  0  0  0  0  0  0  0  0
  192.4380  171.9800  140.9760 C   0  0  2  0  0  3  0  0  0  0  0  0
  190.4140  174.5210  142.5910 C   0  0  2  0  0  3  0  0  0  0  0  0
  192.0940  173.4430  141.2780 C   0  0  2  0  0  3  0  0  0  0  0  0
  189.3550  175.6250  142.5940 C   0  0  2  0  0  3  0  0  0  0  0  0
  191.5860  171.4940  139.8170 C   0  0  0  0  0  2  0  0  0  0  0  0
  192.5990  173.8890  142.6500 C   0  0  2  0  0  3  0  0  0  0  0  0
  194.3520  171.8340  142.8470 F   0  0  0  0  0  0  0  0  0  0  0  0
  188.2410  173.0610  140.7530 C   0  0  0  0  0  2  0  0  0  0  0  0
  190.0850  171.5450  140.1270 C   0  0  0  0  0  2  0  0  0  0  0  0
  192.4260  172.8660  143.6200 O   0  0  0  0  0  0  0  0  0  0  0  0
  189.8310  176.8530  144.7840 O   0  0  0  0  0  0  0  0  0  0  0  0
  190.1860  177.5580  143.6120 C   0  0  1  0  0  3  0  0  0  0  0  0
  189.6480  172.6090  141.1470 C   0  0  1  0  0  3  0  0  0  0  0  0
  191.7340  175.0310  142.9680 N   0  0  2  0  0  0  0  0  0  0  0  0
  192.2690  171.1390  142.0960 O   0  0  0  0  0  0  0  0  0  0  0  0
  188.1860  175.4110  141.6240 C   0  0  1  0  0  3  0  0  0  0  0  0
  192.9450  170.6640  144.3150 C   0  0  0  0  0  1  0  0  0  0  0  0
  191.2150  176.9350  144.5240 C   0  0  2  0  0  3  0  0  0  0  0  0
  191.7410  175.4830  144.3760 C   0  0  2  0  0  3  0  0  0  0  0  0
  187.5980  174.0070  141.7600 C   0  0  0  0  0  2  0  0  0  0  0  0
  186.9160  177.4760  140.7350 C   0  0  0  0  0  2  0  0  0  0  0  0
  187.1200  176.4460  141.8180 C   0  0  0  0  0  0  0  0  0  0  0  0
  186.4190  176.5090  142.9600 C   0  0  0  0  0  3  0  0  0  0  0  0
  184.8140  177.7000  144.2330 O   0  0  0  0  0  0  0  0  0  0  0  0
  184.9710  178.2930  141.9810 N   0  0  0  0  0  2  0  0  0  0  0  0
  185.3630  177.5170  143.1150 C   0  0  0  0  0  0  0  0  0  0  0  0
  185.4530  177.9170  140.6550 C   0  0  0  0  0  2  0  0  0  0  0  0
  193.1520  175.4520  144.9850 C   0  0  1  0  0  3  0  0  0  0  0  0
  194.1040  176.2390  144.1360 N   0  0  0  0  0  0  0  0  0  0  0  0
  193.5220  176.7080  145.4220 C   0  0  2  0  0  3  0  0  0  0  0  0
  194.5670  176.5950  146.5120 C   0  0  0  0  0  2  0  0  0  0  0  0
  195.2390  175.3940  146.3850 F   0  0  0  0  0  0  0  0  0  0  0  0
  196.1450  175.8710  142.9620 C   0  0  0  0  0  2  0  0  0  0  0  0
  194.9390  176.4160  142.9960 C   0  0  0  0  0  3  0  0  0  0  0  0
  1 13  1  0  0  0  0
  1 20  1  1  0  0  0
  2  6  1  0  0  0  0
  2  5  1  0  0  0  0
  3  7  1  0  0  0  0
  3 15  1  0  0  0  0
  4  6  1  0  0  0  0
  4 18  1  0  0  0  0
  5  7  1  0  0  0  0
  5 17  1  0  0  0  0
  6  9  1  0  0  0  0
  8 12  1  0  0  0  0
  8  4  1  0  0  0  0
  9 17  1  0  0  0  0
  9 13  1  0  0  0  0
 10  1  1  0  0  0  0
 11 16  1  0  0  0  0
 11 23  1  0  0  0  0
 12 16  1  0  0  0  0
 15 21  1  0  0  0  0
 15 14  1  0  0  0  0
 16  2  1  0  0  0  0
 17 22  1  0  0  0  0
 18  1  1  0  0  0  0
 19 23  1  0  0  0  0
 19 25  1  0  0  0  0
 19  7  1  0  0  0  0
 21 14  1  0  0  0  0
 22 21  1  0  0  0  0
 22 31  1  0  0  0  0
 24 25  1  0  0  0  0
 25 26  2  0  0  0  0
 26 29  1  0  0  0  0
 28 29  1  0  0  0  0
 29 27  2  0  0  0  0
 30 24  1  0  0  0  0
 30 28  1  0  0  0  0
 31 33  1  0  0  0  0
 32 31  1  0  0  0  0
 32 33  1  0  0  0  0
 33 34  1  0  0  0  0
 35 34  1  0  0  0  0
 36 37  2  0  0  0  0
 37 32  1  0  0  0  0
M  END
>  <MODEL>
6

>  <REMARK>
 VINA RESULT:      -7.4      3.645      7.793
  Name = 
  4 active torsions:
  status: ('A' for Active; 'I' for Inactive)
    1  A    between atoms: C_1  and  C_27
    2  A    between atoms: N_4  and  C_37
    3  A    between atoms: C_8  and  C_12
    4  A    between atoms: C_23  and  C_30
                            x       y       z     vdW  Elec       q    Type
                         _______ _______ _______ _____ _____    ______ ____

>  <TORSDO>
F 4

$$$$
=
 OpenBabel11112417313D

 37 44  0  0  1  0  0  0  0  0999 V2000
  193.0380  172.1370  143.0880 C   0  0  1  0  0  0  0  0  0  0  0  0
  190.5150  174.1880  141.2070 C   0  0  1  0  0  3  0  0  0  0  0  0
  189.7480  177.1900  142.3860 O   0  0  0  0  0  0  0  0  0  0  0  0
  192.4350  172.4570  140.8950 C   0  0  2  0  0  3  0  0  0  0  0  0
  190.2960  174.8710  142.5560 C   0  0  2  0  0  3  0  0  0  0  0  0
  192.0200  173.8960  141.2180 C   0  0  2  0  0  3  0  0  0  0  0  0
  189.1830  175.9200  142.5810 C   0  0  2  0  0  3  0  0  0  0  0  0
  191.5990  171.9430  139.7350 C   0  0  0  0  0  2  0  0  0  0  0  0
  192.5110  174.3490  142.5920 C   0  0  2  0  0  3  0  0  0  0  0  0
  194.3660  172.3830  142.7510 F   0  0  0  0  0  0  0  0  0  0  0  0
  188.1870  173.3270  140.7130 C   0  0  0  0  0  2  0  0  0  0  0  0
  190.1000  171.9140  140.0550 C   0  0  0  0  0  2  0  0  0  0  0  0
  192.3970  173.3060  143.5500 O   0  0  0  0  0  0  0  0  0  0  0  0
  189.6130  177.1420  144.7840 O   0  0  0  0  0  0  0  0  0  0  0  0
  189.9240  177.8790  143.6190 C   0  0  1  0  0  3  0  0  0  0  0  0
  189.6170  172.9420  141.0920 C   0  0  1  0  0  3  0  0  0  0  0  0
  191.5920  175.4420  142.9320 N   0  0  2  0  0  0  0  0  0  0  0  0
  192.3160  171.5930  142.0040 O   0  0  0  0  0  0  0  0  0  0  0  0
  188.0200  175.6600  141.6150 C   0  0  1  0  0  3  0  0  0  0  0  0
  193.0310  171.1240  144.2130 C   0  0  0  0  0  1  0  0  0  0  0  0
  190.9890  177.2970  144.5160 C   0  0  2  0  0  3  0  0  0  0  0  0
  191.5870  175.8750  144.3450 C   0  0  2  0  0  3  0  0  0  0  0  0
  187.5040  174.2270  141.7370 C   0  0  0  0  0  2  0  0  0  0  0  0
  186.5400  177.5680  140.7000 C   0  0  0  0  0  2  0  0  0  0  0  0
  186.9050  176.6380  141.8300 C   0  0  0  0  0  0  0  0  0  0  0  0
  186.2980  176.7420  143.0220 C   0  0  0  0  0  3  0  0  0  0  0  0
  184.7270  177.9220  144.3450 O   0  0  0  0  0  0  0  0  0  0  0  0
  184.6540  178.3530  142.0530 N   0  0  0  0  0  2  0  0  0  0  0  0
  185.1920  177.6910  143.1990 C   0  0  0  0  0  0  0  0  0  0  0  0
  185.0490  177.9090  140.7190 C   0  0  0  0  0  2  0  0  0  0  0  0
  193.0010  175.9070  144.9440 C   0  0  1  0  0  3  0  0  0  0  0  0
  192.9330  176.0480  146.4340 N   0  0  0  0  0  0  0  0  0  0  0  0
  193.2320  174.7820  145.7110 C   0  0  2  0  0  3  0  0  0  0  0  0
  194.7170  174.5000  145.7930 C   0  0  0  0  0  2  0  0  0  0  0  0
  195.3070  175.3870  146.6740 F   0  0  0  0  0  0  0  0  0  0  0  0
  191.5750  176.7930  148.2460 C   0  0  0  0  0  2  0  0  0  0  0  0
  192.7470  176.7970  147.6320 C   0  0  0  0  0  3  0  0  0  0  0  0
  1 13  1  0  0  0  0
  1 20  1  1  0  0  0
  2  6  1  0  0  0  0
  2  5  1  0  0  0  0
  3  7  1  0  0  0  0
  3 15  1  0  0  0  0
  4  6  1  0  0  0  0
  4 18  1  0  0  0  0
  5  7  1  0  0  0  0
  5 17  1  0  0  0  0
  6  9  1  0  0  0  0
  8 12  1  0  0  0  0
  8  4  1  0  0  0  0
  9 17  1  0  0  0  0
  9 13  1  0  0  0  0
 10  1  1  0  0  0  0
 11 16  1  0  0  0  0
 11 23  1  0  0  0  0
 12 16  1  0  0  0  0
 15 21  1  0  0  0  0
 15 14  1  0  0  0  0
 16  2  1  0  0  0  0
 17 22  1  0  0  0  0
 18  1  1  0  0  0  0
 19 23  1  0  0  0  0
 19 25  1  0  0  0  0
 19  7  1  0  0  0  0
 21 14  1  0  0  0  0
 22 21  1  0  0  0  0
 22 31  1  0  0  0  0
 24 30  1  0  0  0  0
 24 25  1  0  0  0  0
 25 26  2  0  0  0  0
 26 29  1  0  0  0  0
 28 29  1  0  0  0  0
 29 27  2  0  0  0  0
 30 28  1  0  0  0  0
 31 33  1  0  0  0  0
 31 32  1  0  0  0  0
 32 37  1  0  0  0  0
 33 34  1  0  0  0  0
 33 32  1  0  0  0  0
 34 35  1  0  0  0  0
 37 36  2  0  0  0  0
M  END
>  <MODEL>
7

>  <REMARK>
 VINA RESULT:      -7.1      3.417      7.636
  Name = 
  4 active torsions:
  status: ('A' for Active; 'I' for Inactive)
    1  A    between atoms: C_1  and  C_27
    2  A    between atoms: N_4  and  C_37
    3  A    between atoms: C_8  and  C_12
    4  A    between atoms: C_23  and  C_30
                            x       y       z     vdW  Elec       q    Type
                         _______ _______ _______ _____ _____    ______ ____

>  <TORSDO>
F 4

$$$$
=
 OpenBabel11112417313D

 37 44  0  0  1  0  0  0  0  0999 V2000
  190.5080  177.4480  144.4270 C   0  0  1  0  0  0  0  0  0  0  0  0
  189.4970  174.0540  143.1760 C   0  0  1  0  0  3  0  0  0  0  0  0
  191.6140  171.5380  143.5980 O   0  0  0  0  0  0  0  0  0  0  0  0
  188.5630  176.2420  144.2330 C   0  0  2  0  0  3  0  0  0  0  0  0
  191.0020  173.7980  143.1230 C   0  0  2  0  0  3  0  0  0  0  0  0
  189.3510  174.9410  144.4170 C   0  0  2  0  0  3  0  0  0  0  0  0
  191.4110  172.4420  142.5440 C   0  0  2  0  0  3  0  0  0  0  0  0
  187.3350  175.9690  143.3820 C   0  0  0  0  0  2  0  0  0  0  0  0
  190.7760  175.1880  144.9100 C   0  0  2  0  0  3  0  0  0  0  0  0
  190.2130  177.6950  145.7650 F   0  0  0  0  0  0  0  0  0  0  0  0
  188.8480  173.6530  140.7630 C   0  0  0  0  0  2  0  0  0  0  0  0
  187.6900  175.4600  141.9800 C   0  0  0  0  0  2  0  0  0  0  0  0
  191.3490  176.3250  144.2810 O   0  0  0  0  0  0  0  0  0  0  0  0
  193.8710  172.2650  143.2140 O   0  0  0  0  0  0  0  0  0  0  0  0
  192.9950  171.4070  143.9170 C   0  0  1  0  0  3  0  0  0  0  0  0
  189.0230  174.7020  141.8610 C   0  0  1  0  0  3  0  0  0  0  0  0
  191.4880  173.9740  144.4930 N   0  0  2  0  0  0  0  0  0  0  0  0
  189.3370  177.2720  143.6590 O   0  0  0  0  0  0  0  0  0  0  0  0
  190.4620  171.8740  141.4800 C   0  0  1  0  0  3  0  0  0  0  0  0
  191.2440  178.6570  143.8900 C   0  0  0  0  0  1  0  0  0  0  0  0
  193.6100  172.6300  144.5510 C   0  0  2  0  0  3  0  0  0  0  0  0
  192.9640  174.0400  144.5240 C   0  0  2  0  0  3  0  0  0  0  0  0
  190.1360  172.9150  140.4110 C   0  0  0  0  0  2  0  0  0  0  0  0
  190.8160  169.3170  141.5500 C   0  0  0  0  0  2  0  0  0  0  0  0
  191.0280  170.6370  140.8510 C   0  0  0  0  0  0  0  0  0  0  0  0
  191.7740  170.7080  139.7380 C   0  0  0  0  0  3  0  0  0  0  0  0
  193.1310  169.5370  138.1890 O   0  0  0  0  0  0  0  0  0  0  0  0
  191.8470  168.2150  139.6190 N   0  0  0  0  0  2  0  0  0  0  0  0
  192.2950  169.4780  139.1280 C   0  0  0  0  0  0  0  0  0  0  0  0
  190.7190  168.1660  140.5470 C   0  0  0  0  0  2  0  0  0  0  0  0
  193.4820  174.7950  145.7580 C   0  0  1  0  0  3  0  0  0  0  0  0
  194.9810  174.7840  145.7850 N   0  0  0  0  0  0  0  0  0  0  0  0
  194.1450  175.9480  145.3830 C   0  0  2  0  0  3  0  0  0  0  0  0
  194.1190  176.9570  146.5110 C   0  0  0  0  0  2  0  0  0  0  0  0
  192.9620  176.7940  147.2500 F   0  0  0  0  0  0  0  0  0  0  0  0
  197.1460  174.1050  145.0580 C   0  0  0  0  0  2  0  0  0  0  0  0
  196.2420  174.1660  146.0220 C   0  0  0  0  0  3  0  0  0  0  0  0
  1 20  1  6  0  0  0
  1 10  1  0  0  0  0
  2  6  1  0  0  0  0
  3 15  1  0  0  0  0
  4  6  1  0  0  0  0
  5  2  1  0  0  0  0
  5 17  1  0  0  0  0
  6  9  1  0  0  0  0
  7  5  1  0  0  0  0
  7  3  1  0  0  0  0
  8  4  1  0  0  0  0
 11 16  1  0  0  0  0
 12  8  1  0  0  0  0
 13  1  1  0  0  0  0
 13  9  1  0  0  0  0
 14 15  1  0  0  0  0
 14 21  1  0  0  0  0
 15 21  1  0  0  0  0
 16 12  1  0  0  0  0
 16  2  1  0  0  0  0
 17 22  1  0  0  0  0
 17  9  1  0  0  0  0
 18  4  1  0  0  0  0
 18  1  1  0  0  0  0
 19  7  1  0  0  0  0
 22 21  1  0  0  0  0
 22 31  1  0  0  0  0
 23 11  1  0  0  0  0
 23 19  1  0  0  0  0
 25 19  1  0  0  0  0
 25 24  1  0  0  0  0
 26 25  2  0  0  0  0
 27 29  2  0  0  0  0
 28 30  1  0  0  0  0
 29 28  1  0  0  0  0
 29 26  1  0  0  0  0
 30 24  1  0  0  0  0
 31 32  1  0  0  0  0
 32 37  1  0  0  0  0
 33 31  1  0  0  0  0
 33 32  1  0  0  0  0
 33 34  1  0  0  0  0
 34 35  1  0  0  0  0
 36 37  2  0  0  0  0
M  END
>  <MODEL>
8

>  <REMARK>
 VINA RESULT:      -7.0      3.559      6.780
  Name = 
  4 active torsions:
  status: ('A' for Active; 'I' for Inactive)
    1  A    between atoms: C_1  and  C_27
    2  A    between atoms: N_4  and  C_37
    3  A    between atoms: C_8  and  C_12
    4  A    between atoms: C_23  and  C_30
                            x       y       z     vdW  Elec       q    Type
                         _______ _______ _______ _____ _____    ______ ____

>  <TORSDO>
F 4

$$$$
=
 OpenBabel11112417313D

 37 44  0  0  1  0  0  0  0  0999 V2000
  195.5080  174.2560  142.1630 C   0  0  1  0  0  0  0  0  0  0  0  0
  192.8480  174.5630  144.7970 C   0  0  1  0  0  3  0  0  0  0  0  0
  189.6880  174.1590  143.8820 O   0  0  0  0  0  0  0  0  0  0  0  0
  195.2930  173.7630  144.3950 C   0  0  2  0  0  3  0  0  0  0  0  0
  191.9400  174.9090  143.6180 C   0  0  2  0  0  3  0  0  0  0  0  0
  193.7940  173.5160  144.1970 C   0  0  2  0  0  3  0  0  0  0  0  0
  190.5070  175.2930  143.9900 C   0  0  2  0  0  3  0  0  0  0  0  0
  195.5390  174.2410  145.8170 C   0  0  0  0  0  2  0  0  0  0  0  0
  193.4100  173.4200  142.7220 C   0  0  2  0  0  3  0  0  0  0  0  0
  195.9570  172.9590  141.9270 F   0  0  0  0  0  0  0  0  0  0  0  0
  192.6070  176.6390  146.2230 C   0  0  0  0  0  2  0  0  0  0  0  0
  194.8240  175.5620  146.1260 C   0  0  0  0  0  2  0  0  0  0  0  0
  194.1200  174.3710  141.9410 O   0  0  0  0  0  0  0  0  0  0  0  0
  189.2940  175.1830  141.7440 O   0  0  0  0  0  0  0  0  0  0  0  0
  188.9740  174.1460  142.6500 C   0  0  1  0  0  3  0  0  0  0  0  0
  193.5420  175.8340  145.3210 C   0  0  1  0  0  3  0  0  0  0  0  0
  191.9790  173.7460  142.7270 N   0  0  2  0  0  0  0  0  0  0  0  0
  195.8210  174.6870  143.4700 O   0  0  0  0  0  0  0  0  0  0  0  0
  190.3500  175.9810  145.3530 C   0  0  1  0  0  3  0  0  0  0  0  0
  196.2150  175.1700  141.1850 C   0  0  0  0  0  1  0  0  0  0  0  0
  189.8330  173.9170  141.4300 C   0  0  2  0  0  3  0  0  0  0  0  0
  191.3770  174.0670  141.4160 C   0  0  2  0  0  3  0  0  0  0  0  0
  191.3470  177.1270  145.5170 C   0  0  0  0  0  2  0  0  0  0  0  0
  188.1860  175.9800  146.7610 C   0  0  0  0  0  2  0  0  0  0  0  0
  188.9490  176.4720  145.5570 C   0  0  0  0  0  0  0  0  0  0  0  0
  188.3560  177.2640  144.6500 C   0  0  0  0  0  3  0  0  0  0  0  0
  186.3630  178.3510  143.9760 O   0  0  0  0  0  0  0  0  0  0  0  0
  186.3850  177.5300  146.1600 N   0  0  0  0  0  2  0  0  0  0  0  0
  186.9920  177.7520  144.8860 C   0  0  0  0  0  0  0  0  0  0  0  0
  187.2020  177.0380  147.2660 C   0  0  0  0  0  2  0  0  0  0  0  0
  191.9060  173.1540  140.2990 C   0  0  1  0  0  3  0  0  0  0  0  0
  191.1870  173.4310  139.0140 N   0  0  0  0  0  0  0  0  0  0  0  0
  192.5640  173.8930  139.3350 C   0  0  2  0  0  3  0  0  0  0  0  0
  193.5650  173.0250  138.6020 C   0  0  0  0  0  2  0  0  0  0  0  0
  193.0440  171.7540  138.4430 F   0  0  0  0  0  0  0  0  0  0  0  0
  189.3320  172.2300  138.1220 C   0  0  0  0  0  2  0  0  0  0  0  0
  190.0680  173.3300  138.1380 C   0  0  0  0  0  3  0  0  0  0  0  0
  1 20  1  6  0  0  0
  1 18  1  0  0  0  0
  2 16  1  0  0  0  0
  3  7  1  0  0  0  0
  4  8  1  0  0  0  0
  5  7  1  0  0  0  0
  5  2  1  0  0  0  0
  6  4  1  0  0  0  0
  6  2  1  0  0  0  0
  7 19  1  0  0  0  0
  8 12  1  0  0  0  0
  9 17  1  0  0  0  0
  9  6  1  0  0  0  0
 10  1  1  0  0  0  0
 13  1  1  0  0  0  0
 13  9  1  0  0  0  0
 14 15  1  0  0  0  0
 15  3  1  0  0  0  0
 16 12  1  0  0  0  0
 16 11  1  0  0  0  0
 17  5  1  0  0  0  0
 18  4  1  0  0  0  0
 19 23  1  0  0  0  0
 19 25  1  0  0  0  0
 21 14  1  0  0  0  0
 21 15  1  0  0  0  0
 22 21  1  0  0  0  0
 22 17  1  0  0  0  0
 23 11  1  0  0  0  0
 24 30  1  0  0  0  0
 25 24  1  0  0  0  0
 26 29  1  0  0  0  0
 26 25  2  0  0  0  0
 27 29  2  0  0  0  0
 28 30  1  0  0  0  0
 29 28  1  0  0  0  0
 31 22  1  0  0  0  0
 32 33  1  0  0  0  0
 32 31  1  0  0  0  0
 33 31  1  0  0  0  0
 34 33  1  0  0  0  0
 35 34  1  0  0  0  0
 36 37  2  0  0  0  0
 37 32  1  0  0  0  0
M  END
>  <MODEL>
9

>  <REMARK>
 VINA RESULT:      -6.9      4.076      7.806
  Name = 
  4 active torsions:
  status: ('A' for Active; 'I' for Inactive)
    1  A    between atoms: C_1  and  C_27
    2  A    between atoms: N_4  and  C_37
    3  A    between atoms: C_8  and  C_12
    4  A    between atoms: C_23  and  C_30
                            x       y       z     vdW  Elec       q    Type
                         _______ _______ _______ _____ _____    ______ ____

>  <TORSDO>
F 4

$$$$
