=
 OpenBabel11112416193D

 30 35  0  0  1  0  0  0  0  0999 V2000
  186.5260  177.1730  143.6560 C   0  0  0  0  0  0  0  0  0  0  0  0
  184.7360  178.2860  145.1060 C   0  0  0  0  0  0  0  0  0  0  0  0
  188.6930  176.0450  146.9580 N   0  0  0  0  0  0  0  0  0  0  0  0
  187.7260  176.4100  143.5370 C   0  0  0  0  0  0  0  0  0  0  0  0
  185.8760  177.5560  142.5280 N   0  0  0  0  0  0  0  0  0  0  0  0
  187.8150  176.0200  140.0220 O   0  0  0  0  0  0  0  0  0  0  0  0
  190.5190  175.5050  142.5610 C   0  0  1  0  0  3  0  0  0  0  0  0
  187.4360  176.3850  141.1710 C   0  0  0  0  0  0  0  0  0  0  0  0
  190.7830  175.3500  144.0470 C   0  0  2  0  0  3  0  0  0  0  0  0
  189.7510  175.5160  146.3080 C   0  0  0  0  0  0  0  0  0  0  0  0
  186.3080  177.2030  141.2960 C   0  0  0  0  0  0  0  0  0  0  0  0
  188.1120  175.9730  142.2900 N   0  0  0  0  0  0  0  0  0  0  0  0
  184.4010  178.8990  146.4350 C   0  0  0  0  0  2  0  0  0  0  0  0
  191.4440  173.9960  144.2040 C   0  0  0  0  0  2  0  0  0  0  0  0
  191.6250  174.7140  141.8800 C   0  0  0  0  0  2  0  0  0  0  0  0
  183.9460  178.4680  144.1420 O   0  0  0  0  0  0  0  0  0  0  0  0
  187.8740  176.4140  145.9600 C   0  0  0  0  0  0  0  0  0  0  0  0
  185.0760  178.2120  147.5890 C   0  0  0  0  0  3  0  0  0  0  0  0
  186.0020  177.5220  144.9340 C   0  0  0  0  0  0  0  0  0  0  0  0
  188.4160  176.0980  144.7380 C   0  0  0  0  0  0  0  0  0  0  0  0
  190.9740  175.0770  147.0420 C   0  0  0  0  0  1  0  0  0  0  0  0
  189.6330  175.5310  144.9510 N   0  0  0  0  0  0  0  0  0  0  0  0
  192.2410  173.8000  142.9300 C   0  0  0  0  0  2  0  0  0  0  0  0
  188.7580  173.6040  142.6220 C   0  0  0  0  0  1  0  0  0  0  0  0
  186.1420  177.4240  147.4340 C   0  0  0  0  0  3  0  0  0  0  0  0
  186.6830  177.1160  146.0980 C   0  0  0  0  0  0  0  0  0  0  0  0
  189.1670  174.9810  142.1000 C   0  0  2  0  0  3  0  0  0  0  0  0
  185.5620  177.6850  140.0960 C   0  0  0  0  0  2  0  0  0  0  0  0
  183.1880  177.7990  140.0770 O   0  0  0  0  0  1  0  0  0  0  0  0
  184.3310  178.4580  140.5280 C   0  0  0  0  0  2  0  0  0  0  0  0
  1 19  1  0  0  0  0
  2 13  1  0  0  0  0
  4  1  2  0  0  0  0
  4 20  1  0  0  0  0
  5  1  1  0  0  0  0
  6  8  2  0  0  0  0
  7 15  1  6  0  0  0
  7  9  1  0  0  0  0
  8 11  1  0  0  0  0
  8 12  1  0  0  0  0
  9 14  1  6  0  0  0
  9 22  1  0  0  0  0
 10  3  2  0  0  0  0
 10 21  1  0  0  0  0
 11  5  2  0  0  0  0
 12  4  1  0  0  0  0
 13 18  1  0  0  0  0
 15 23  1  0  0  0  0
 16  2  2  0  0  0  0
 17 26  1  0  0  0  0
 17  3  1  0  0  0  0
 19  2  1  0  0  0  0
 19 26  2  0  0  0  0
 20 22  1  0  0  0  0
 20 17  2  0  0  0  0
 22 10  1  0  0  0  0
 23 14  1  0  0  0  0
 25 18  2  0  0  0  0
 26 25  1  0  0  0  0
 27 12  1  0  0  0  0
 27  7  1  0  0  0  0
 27 24  1  1  0  0  0
 28 30  1  0  0  0  0
 28 11  1  0  0  0  0
 29 30  1  0  0  0  0
M  END
>  <MODEL>
1

>  <REMARK>
 VINA RESULT:      -8.7      0.000      0.000
  Name = 
  2 active torsions:
  status: ('A' for Active; 'I' for Inactive)
    1  A    between atoms: C_11  and  C_28
    2  A    between atoms: C_28  and  C_30
                            x       y       z     vdW  Elec       q    Type
                         _______ _______ _______ _____ _____    ______ ____

>  <TORSDO>
F 2

$$$$
=
 OpenBabel11112416193D

 30 35  0  0  1  0  0  0  0  0999 V2000
  189.4490  175.6000  143.9180 C   0  0  0  0  0  0  0  0  0  0  0  0
  191.4920  174.7920  145.2280 C   0  0  0  0  0  0  0  0  0  0  0  0
  188.0110  177.6600  147.1670 N   0  0  0  0  0  0  0  0  0  0  0  0
  188.2530  176.3750  143.8410 C   0  0  0  0  0  0  0  0  0  0  0  0
  189.8520  174.9030  142.8250 N   0  0  0  0  0  0  0  0  0  0  0  0
  187.4480  175.8560  140.4360 O   0  0  0  0  0  0  0  0  0  0  0  0
  185.3250  177.1620  143.2310 C   0  0  1  0  0  3  0  0  0  0  0  0
  188.0520  175.7770  141.5420 C   0  0  0  0  0  0  0  0  0  0  0  0
  185.3720  177.7070  144.6450 C   0  0  2  0  0  3  0  0  0  0  0  0
  186.8440  178.0650  146.6220 C   0  0  0  0  0  0  0  0  0  0  0  0
  189.1780  174.9530  141.6540 C   0  0  0  0  0  0  0  0  0  0  0  0
  187.6220  176.5000  142.6240 N   0  0  0  0  0  0  0  0  0  0  0  0
  192.0900  174.5210  146.5790 C   0  0  0  0  0  2  0  0  0  0  0  0
  184.7630  179.0930  144.5680 C   0  0  0  0  0  2  0  0  0  0  0  0
  184.1060  177.8150  142.5970 C   0  0  0  0  0  2  0  0  0  0  0  0
  192.0670  174.3230  144.2100 O   0  0  0  0  0  0  0  0  0  0  0  0
  188.6050  177.0010  146.1600 C   0  0  0  0  0  0  0  0  0  0  0  0
  191.6690  175.5190  147.6210 C   0  0  0  0  0  3  0  0  0  0  0  0
  190.2220  175.5590  145.1130 C   0  0  0  0  0  0  0  0  0  0  0  0
  187.8260  177.0240  145.0290 C   0  0  0  0  0  0  0  0  0  0  0  0
  185.8000  178.7490  147.4400 C   0  0  0  0  0  1  0  0  0  0  0  0
  186.6810  177.6970  145.3210 N   0  0  0  0  0  0  0  0  0  0  0  0
  183.7230  179.0020  143.4700 C   0  0  0  0  0  2  0  0  0  0  0  0
  187.0690  178.9080  142.4430 C   0  0  0  0  0  1  0  0  0  0  0  0
  190.5980  176.3020  147.4770 C   0  0  0  0  0  3  0  0  0  0  0  0
  189.7970  176.2890  146.2410 C   0  0  0  0  0  0  0  0  0  0  0  0
  186.5560  177.4710  142.3920 C   0  0  2  0  0  3  0  0  0  0  0  0
  189.6600  174.1370  140.5000 C   0  0  0  0  0  2  0  0  0  0  0  0
  188.0600  172.6490  139.5640 O   0  0  0  0  0  1  0  0  0  0  0  0
  189.0400  172.7540  140.5500 C   0  0  0  0  0  2  0  0  0  0  0  0
  1 19  1  0  0  0  0
  2 13  1  0  0  0  0
  4  1  2  0  0  0  0
  4 20  1  0  0  0  0
  5  1  1  0  0  0  0
  6  8  2  0  0  0  0
  7 15  1  6  0  0  0
  7  9  1  0  0  0  0
  8 11  1  0  0  0  0
  8 12  1  0  0  0  0
  9 14  1  6  0  0  0
  9 22  1  0  0  0  0
 10  3  2  0  0  0  0
 10 21  1  0  0  0  0
 11  5  2  0  0  0  0
 12  4  1  0  0  0  0
 13 18  1  0  0  0  0
 15 23  1  0  0  0  0
 16  2  2  0  0  0  0
 17 26  1  0  0  0  0
 17  3  1  0  0  0  0
 19  2  1  0  0  0  0
 19 26  2  0  0  0  0
 20 22  1  0  0  0  0
 20 17  2  0  0  0  0
 22 10  1  0  0  0  0
 23 14  1  0  0  0  0
 25 18  2  0  0  0  0
 26 25  1  0  0  0  0
 27 24  1  1  0  0  0
 27 12  1  0  0  0  0
 27  7  1  0  0  0  0
 28 30  1  0  0  0  0
 28 11  1  0  0  0  0
 29 30  1  0  0  0  0
M  END
>  <MODEL>
2

>  <REMARK>
 VINA RESULT:      -8.3      1.975      5.564
  Name = 
  2 active torsions:
  status: ('A' for Active; 'I' for Inactive)
    1  A    between atoms: C_11  and  C_28
    2  A    between atoms: C_28  and  C_30
                            x       y       z     vdW  Elec       q    Type
                         _______ _______ _______ _____ _____    ______ ____

>  <TORSDO>
F 2

$$$$
=
 OpenBabel11112416193D

 30 35  0  0  1  0  0  0  0  0999 V2000
  187.5630  176.9190  143.9230 C   0  0  0  0  0  0  0  0  0  0  0  0
  185.4020  178.0910  144.6290 C   0  0  0  0  0  0  0  0  0  0  0  0
  189.1900  177.3710  147.6680 N   0  0  0  0  0  0  0  0  0  0  0  0
  188.8540  176.4000  144.2450 C   0  0  0  0  0  0  0  0  0  0  0  0
  187.0960  176.7800  142.6570 N   0  0  0  0  0  0  0  0  0  0  0  0
  189.6590  174.8980  141.1450 O   0  0  0  0  0  0  0  0  0  0  0  0
  191.8740  175.7660  144.0370 C   0  0  1  0  0  3  0  0  0  0  0  0
  189.0250  175.5430  142.0270 C   0  0  0  0  0  0  0  0  0  0  0  0
  191.8680  176.1610  145.5020 C   0  0  2  0  0  3  0  0  0  0  0  0
  190.4120  176.8660  147.3960 C   0  0  0  0  0  0  0  0  0  0  0  0
  187.7970  176.1290  141.7010 C   0  0  0  0  0  0  0  0  0  0  0  0
  189.5230  175.6570  143.2990 N   0  0  0  0  0  0  0  0  0  0  0  0
  184.7420  179.0330  145.5950 C   0  0  0  0  0  2  0  0  0  0  0  0
  192.6580  175.0850  146.2170 C   0  0  0  0  0  2  0  0  0  0  0  0
  193.1830  175.0180  143.8360 C   0  0  0  0  0  2  0  0  0  0  0  0
  184.7930  177.7940  143.5670 O   0  0  0  0  0  0  0  0  0  0  0  0
  188.5360  177.2290  146.5040 C   0  0  0  0  0  0  0  0  0  0  0  0
  185.2700  178.9040  146.9970 C   0  0  0  0  0  3  0  0  0  0  0  0
  186.7650  177.5650  144.9100 C   0  0  0  0  0  0  0  0  0  0  0  0
  189.3370  176.6370  145.5580 C   0  0  0  0  0  0  0  0  0  0  0  0
  191.5200  176.9310  148.3940 C   0  0  0  0  0  1  0  0  0  0  0  0
  190.5540  176.4110  146.1200 N   0  0  0  0  0  0  0  0  0  0  0  0
  193.7010  174.6340  145.2150 C   0  0  0  0  0  2  0  0  0  0  0  0
  190.3960  173.6960  144.5360 C   0  0  0  0  0  1  0  0  0  0  0  0
  186.4380  178.3240  147.2760 C   0  0  0  0  0  3  0  0  0  0  0  0
  187.2590  177.7010  146.2230 C   0  0  0  0  0  0  0  0  0  0  0  0
  190.7140  174.8750  143.6180 C   0  0  2  0  0  3  0  0  0  0  0  0
  187.2370  176.0400  140.3200 C   0  0  0  0  0  2  0  0  0  0  0  0
  185.4190  177.4930  139.8380 O   0  0  0  0  0  1  0  0  0  0  0  0
  186.8110  177.4150  139.8440 C   0  0  0  0  0  2  0  0  0  0  0  0
  1  4  2  0  0  0  0
  1 19  1  0  0  0  0
  2 19  1  0  0  0  0
  2 13  1  0  0  0  0
  4 20  1  0  0  0  0
  5  1  1  0  0  0  0
  6  8  2  0  0  0  0
  7 15  1  1  0  0  0
  7  9  1  0  0  0  0
  8 12  1  0  0  0  0
  9 22  1  0  0  0  0
  9 14  1  1  0  0  0
 10  3  2  0  0  0  0
 10 21  1  0  0  0  0
 11  8  1  0  0  0  0
 11  5  2  0  0  0  0
 12 27  1  0  0  0  0
 12  4  1  0  0  0  0
 13 18  1  0  0  0  0
 15 23  1  0  0  0  0
 16  2  2  0  0  0  0
 17  3  1  0  0  0  0
 18 25  2  0  0  0  0
 19 26  2  0  0  0  0
 20 22  1  0  0  0  0
 20 17  2  0  0  0  0
 22 10  1  0  0  0  0
 23 14  1  0  0  0  0
 26 17  1  0  0  0  0
 26 25  1  0  0  0  0
 27  7  1  0  0  0  0
 27 24  1  1  0  0  0
 28 11  1  0  0  0  0
 29 30  1  0  0  0  0
 30 28  1  0  0  0  0
M  END
>  <MODEL>
3

>  <REMARK>
 VINA RESULT:      -8.2      1.461      1.862
  Name = 
  2 active torsions:
  status: ('A' for Active; 'I' for Inactive)
    1  A    between atoms: C_11  and  C_28
    2  A    between atoms: C_28  and  C_30
                            x       y       z     vdW  Elec       q    Type
                         _______ _______ _______ _____ _____    ______ ____

>  <TORSDO>
F 2

$$$$
=
 OpenBabel11112416193D

 30 35  0  0  1  0  0  0  0  0999 V2000
  186.6220  176.8980  144.0210 C   0  0  0  0  0  0  0  0  0  0  0  0
  184.7420  178.3190  143.0260 C   0  0  0  0  0  0  0  0  0  0  0  0
  187.8170  175.6320  140.3010 N   0  0  0  0  0  0  0  0  0  0  0  0
  187.7500  176.0400  143.8500 C   0  0  0  0  0  0  0  0  0  0  0  0
  186.2460  177.2470  145.2770 N   0  0  0  0  0  0  0  0  0  0  0  0
  188.7510  175.7270  147.2290 O   0  0  0  0  0  0  0  0  0  0  0  0
  189.6900  173.6640  144.2480 C   0  0  1  0  0  3  0  0  0  0  0  0
  188.0870  176.0700  146.2100 C   0  0  0  0  0  0  0  0  0  0  0  0
  189.6640  173.6300  142.7320 C   0  0  2  0  0  3  0  0  0  0  0  0
  188.7720  174.7670  140.7020 C   0  0  0  0  0  0  0  0  0  0  0  0
  186.9310  176.8410  146.3700 C   0  0  0  0  0  0  0  0  0  0  0  0
  188.5000  175.7060  144.9550 N   0  0  0  0  0  0  0  0  0  0  0  0
  183.8300  178.5530  141.8560 C   0  0  0  0  0  2  0  0  0  0  0  0
  191.1120  173.5120  142.3020 C   0  0  0  0  0  2  0  0  0  0  0  0
  190.9100  172.8450  144.6400 C   0  0  0  0  0  2  0  0  0  0  0  0
  184.4760  178.8870  144.1190 O   0  0  0  0  0  0  0  0  0  0  0  0
  187.3750  176.1560  141.4550 C   0  0  0  0  0  0  0  0  0  0  0  0
  184.4930  178.2910  140.5320 C   0  0  0  0  0  3  0  0  0  0  0  0
  185.9020  177.3960  142.8980 C   0  0  0  0  0  0  0  0  0  0  0  0
  188.0610  175.6360  142.5260 C   0  0  0  0  0  0  0  0  0  0  0  0
  189.4610  173.8640  139.7340 C   0  0  0  0  0  1  0  0  0  0  0  0
  188.9550  174.7290  142.0520 N   0  0  0  0  0  0  0  0  0  0  0  0
  191.7800  172.7060  143.3980 C   0  0  0  0  0  2  0  0  0  0  0  0
  190.8530  175.9790  144.2290 C   0  0  0  0  0  1  0  0  0  0  0  0
  185.6050  177.5630  140.4150 C   0  0  0  0  0  3  0  0  0  0  0  0
  186.3030  177.0290  141.5980 C   0  0  0  0  0  0  0  0  0  0  0  0
  189.8040  175.0570  144.8480 C   0  0  2  0  0  3  0  0  0  0  0  0
  186.4430  177.2370  147.7250 C   0  0  0  0  0  2  0  0  0  0  0  0
  185.9410  179.5590  147.6380 O   0  0  0  0  0  1  0  0  0  0  0  0
  185.3610  178.2920  147.5970 C   0  0  0  0  0  2  0  0  0  0  0  0
  1  5  1  0  0  0  0
  2 16  2  0  0  0  0
  3 10  2  0  0  0  0
  3 17  1  0  0  0  0
  4  1  1  0  0  0  0
  4 12  1  0  0  0  0
  5 11  2  0  0  0  0
  7 15  1  6  0  0  0
  7 27  1  0  0  0  0
  8 11  1  0  0  0  0
  8  6  2  0  0  0  0
  9 14  1  6  0  0  0
  9  7  1  0  0  0  0
 10 22  1  0  0  0  0
 11 28  1  0  0  0  0
 12  8  1  0  0  0  0
 13  2  1  0  0  0  0
 14 23  1  0  0  0  0
 17 26  2  0  0  0  0
 17 20  1  0  0  0  0
 18 13  1  0  0  0  0
 19  2  1  0  0  0  0
 19  1  2  0  0  0  0
 20  4  2  0  0  0  0
 21 10  1  0  0  0  0
 22 20  1  0  0  0  0
 22  9  1  0  0  0  0
 23 15  1  0  0  0  0
 25 18  2  0  0  0  0
 25 26  1  0  0  0  0
 26 19  1  0  0  0  0
 27 24  1  6  0  0  0
 27 12  1  0  0  0  0
 30 29  1  0  0  0  0
 30 28  1  0  0  0  0
M  END
>  <MODEL>
4

>  <REMARK>
 VINA RESULT:      -8.0      1.868      4.728
  Name = 
  2 active torsions:
  status: ('A' for Active; 'I' for Inactive)
    1  A    between atoms: C_11  and  C_28
    2  A    between atoms: C_28  and  C_30
                            x       y       z     vdW  Elec       q    Type
                         _______ _______ _______ _____ _____    ______ ____

>  <TORSDO>
F 2

$$$$
=
 OpenBabel11112416193D

 30 35  0  0  1  0  0  0  0  0999 V2000
  189.4930  175.2160  144.0330 C   0  0  0  0  0  0  0  0  0  0  0  0
  191.0020  173.5760  142.7790 C   0  0  0  0  0  0  0  0  0  0  0  0
  187.4070  176.1230  140.6130 N   0  0  0  0  0  0  0  0  0  0  0  0
  188.3870  176.1190  144.0500 C   0  0  0  0  0  0  0  0  0  0  0  0
  190.1730  174.9900  145.1850 N   0  0  0  0  0  0  0  0  0  0  0  0
  188.3150  176.8780  147.5040 O   0  0  0  0  0  0  0  0  0  0  0  0
  186.6940  178.6420  144.6260 C   0  0  1  0  0  3  0  0  0  0  0  0
  188.6780  176.3800  146.4010 C   0  0  0  0  0  0  0  0  0  0  0  0
  186.3240  178.5010  143.1620 C   0  0  2  0  0  3  0  0  0  0  0  0
  186.6170  177.0860  141.1330 C   0  0  0  0  0  0  0  0  0  0  0  0
  189.8110  175.5610  146.3570 C   0  0  0  0  0  0  0  0  0  0  0  0
  187.9630  176.6240  145.2580 N   0  0  0  0  0  0  0  0  0  0  0  0
  191.5680  173.1520  141.4530 C   0  0  0  0  0  2  0  0  0  0  0  0
  184.8180  178.6610  143.1050 C   0  0  0  0  0  2  0  0  0  0  0  0
  185.6450  179.5760  145.2090 C   0  0  0  0  0  2  0  0  0  0  0  0
  191.5270  173.1210  143.8300 O   0  0  0  0  0  0  0  0  0  0  0  0
  188.1180  175.7070  141.6730 C   0  0  0  0  0  0  0  0  0  0  0  0
  190.5910  173.3040  140.3210 C   0  0  0  0  0  3  0  0  0  0  0  0
  189.8780  174.5500  142.8350 C   0  0  0  0  0  0  0  0  0  0  0  0
  187.7540  176.3880  142.8090 C   0  0  0  0  0  0  0  0  0  0  0  0
  185.7280  177.9150  140.2660 C   0  0  0  0  0  1  0  0  0  0  0  0
  186.7950  177.2900  142.4680 N   0  0  0  0  0  0  0  0  0  0  0  0
  184.4850  179.6270  144.2250 C   0  0  0  0  0  2  0  0  0  0  0  0
  185.4940  176.4180  145.1980 C   0  0  0  0  0  1  0  0  0  0  0  0
  189.5110  174.0810  140.4010 C   0  0  0  0  0  3  0  0  0  0  0  0
  189.1630  174.7900  141.6460 C   0  0  0  0  0  0  0  0  0  0  0  0
  186.6970  177.3370  145.4070 C   0  0  2  0  0  3  0  0  0  0  0  0
  190.6230  175.2920  147.5800 C   0  0  0  0  0  2  0  0  0  0  0  0
  191.5590  177.1810  148.6770 O   0  0  0  0  0  1  0  0  0  0  0  0
  191.7860  176.2620  147.6540 C   0  0  0  0  0  2  0  0  0  0  0  0
  1  4  1  0  0  0  0
  1  5  1  0  0  0  0
  2 19  1  0  0  0  0
  2 16  2  0  0  0  0
  3 10  2  0  0  0  0
  3 17  1  0  0  0  0
  4 12  1  0  0  0  0
  5 11  2  0  0  0  0
  7 15  1  1  0  0  0
  7 27  1  0  0  0  0
  8  6  2  0  0  0  0
  9 14  1  1  0  0  0
  9  7  1  0  0  0  0
 10 22  1  0  0  0  0
 11  8  1  0  0  0  0
 11 28  1  0  0  0  0
 12 27  1  0  0  0  0
 12  8  1  0  0  0  0
 13  2  1  0  0  0  0
 14 23  1  0  0  0  0
 17 20  1  0  0  0  0
 18 25  2  0  0  0  0
 18 13  1  0  0  0  0
 19  1  2  0  0  0  0
 20  4  2  0  0  0  0
 21 10  1  0  0  0  0
 22 20  1  0  0  0  0
 22  9  1  0  0  0  0
 23 15  1  0  0  0  0
 25 26  1  0  0  0  0
 26 17  2  0  0  0  0
 26 19  1  0  0  0  0
 27 24  1  6  0  0  0
 28 30  1  0  0  0  0
 30 29  1  0  0  0  0
M  END
>  <MODEL>
5

>  <REMARK>
 VINA RESULT:      -7.8      2.583      7.231
  Name = 
  2 active torsions:
  status: ('A' for Active; 'I' for Inactive)
    1  A    between atoms: C_11  and  C_28
    2  A    between atoms: C_28  and  C_30
                            x       y       z     vdW  Elec       q    Type
                         _______ _______ _______ _____ _____    ______ ____

>  <TORSDO>
F 2

$$$$
=
 OpenBabel11112416193D

 30 35  0  0  1  0  0  0  0  0999 V2000
  188.0680  176.3070  143.4470 C   0  0  0  0  0  0  0  0  0  0  0  0
  185.7820  177.4340  143.6600 C   0  0  0  0  0  0  0  0  0  0  0  0
  189.1380  177.4530  147.2440 N   0  0  0  0  0  0  0  0  0  0  0  0
  189.3220  175.9300  144.0160 C   0  0  0  0  0  0  0  0  0  0  0  0
  187.7880  175.9390  142.1710 N   0  0  0  0  0  0  0  0  0  0  0  0
  190.6140  174.0100  141.3400 O   0  0  0  0  0  0  0  0  0  0  0  0
  192.3660  175.4670  144.3110 C   0  0  1  0  0  3  0  0  0  0  0  0
  189.8360  174.7440  142.0120 C   0  0  0  0  0  0  0  0  0  0  0  0
  192.1400  176.0890  145.6760 C   0  0  2  0  0  3  0  0  0  0  0  0
  190.4060  176.9910  147.2210 C   0  0  0  0  0  0  0  0  0  0  0  0
  188.6420  175.1910  141.4360 C   0  0  0  0  0  0  0  0  0  0  0  0
  190.1470  175.0910  143.3020 N   0  0  0  0  0  0  0  0  0  0  0  0
  184.9550  178.4740  144.3620 C   0  0  0  0  0  2  0  0  0  0  0  0
  192.8670  175.1930  146.6570 C   0  0  0  0  0  2  0  0  0  0  0  0
  193.7200  174.7820  144.4100 C   0  0  0  0  0  2  0  0  0  0  0  0
  185.3400  176.9340  142.5920 O   0  0  0  0  0  0  0  0  0  0  0  0
  188.6590  177.0860  146.0440 C   0  0  0  0  0  0  0  0  0  0  0  0
  185.2880  178.6030  145.8220 C   0  0  0  0  0  3  0  0  0  0  0  0
  187.1140  177.0490  144.2000 C   0  0  0  0  0  0  0  0  0  0  0  0
  189.6080  176.4030  145.3230 C   0  0  0  0  0  0  0  0  0  0  0  0
  191.3610  177.2850  148.3300 C   0  0  0  0  0  1  0  0  0  0  0  0
  190.7430  176.3480  146.0680 N   0  0  0  0  0  0  0  0  0  0  0  0
  194.0580  174.6570  145.8890 C   0  0  0  0  0  2  0  0  0  0  0  0
  190.9220  173.4120  144.9500 C   0  0  0  0  0  1  0  0  0  0  0  0
  186.4290  178.1520  146.3430 C   0  0  0  0  0  3  0  0  0  0  0  0
  187.4140  177.4230  145.5250 C   0  0  0  0  0  0  0  0  0  0  0  0
  191.3150  174.4480  143.8980 C   0  0  2  0  0  3  0  0  0  0  0  0
  188.2830  174.8480  140.0280 C   0  0  0  0  0  2  0  0  0  0  0  0
  188.1850  173.0090  138.5250 O   0  0  0  0  0  1  0  0  0  0  0  0
  188.1590  173.3440  139.8780 C   0  0  0  0  0  2  0  0  0  0  0  0
  1  4  2  0  0  0  0
  1 19  1  0  0  0  0
  2 19  1  0  0  0  0
  2 13  1  0  0  0  0
  4 20  1  0  0  0  0
  5  1  1  0  0  0  0
  6  8  2  0  0  0  0
  7 15  1  1  0  0  0
  7  9  1  0  0  0  0
  8 12  1  0  0  0  0
  9 22  1  0  0  0  0
  9 14  1  1  0  0  0
 10  3  2  0  0  0  0
 10 21  1  0  0  0  0
 11  8  1  0  0  0  0
 11  5  2  0  0  0  0
 12 27  1  0  0  0  0
 12  4  1  0  0  0  0
 13 18  1  0  0  0  0
 15 23  1  0  0  0  0
 16  2  2  0  0  0  0
 17  3  1  0  0  0  0
 18 25  2  0  0  0  0
 19 26  2  0  0  0  0
 20 17  2  0  0  0  0
 20 22  1  0  0  0  0
 22 10  1  0  0  0  0
 23 14  1  0  0  0  0
 26 17  1  0  0  0  0
 26 25  1  0  0  0  0
 27  7  1  0  0  0  0
 27 24  1  1  0  0  0
 28 11  1  0  0  0  0
 29 30  1  0  0  0  0
 30 28  1  0  0  0  0
M  END
>  <MODEL>
6

>  <REMARK>
 VINA RESULT:      -7.8      1.883      2.959
  Name = 
  2 active torsions:
  status: ('A' for Active; 'I' for Inactive)
    1  A    between atoms: C_11  and  C_28
    2  A    between atoms: C_28  and  C_30
                            x       y       z     vdW  Elec       q    Type
                         _______ _______ _______ _____ _____    ______ ____

>  <TORSDO>
F 2

$$$$
=
 OpenBabel11112416193D

 30 35  0  0  1  0  0  0  0  0999 V2000
  188.0370  176.3370  144.5170 C   0  0  0  0  0  0  0  0  0  0  0  0
  186.7030  178.3050  145.4590 C   0  0  0  0  0  0  0  0  0  0  0  0
  186.8170  177.1690  140.6840 N   0  0  0  0  0  0  0  0  0  0  0  0
  188.4970  175.5710  143.4040 C   0  0  0  0  0  0  0  0  0  0  0  0
  188.4380  175.9870  145.7650 N   0  0  0  0  0  0  0  0  0  0  0  0
  190.6460  173.3280  145.0960 O   0  0  0  0  0  0  0  0  0  0  0  0
  189.2140  173.1320  141.6420 C   0  0  1  0  0  3  0  0  0  0  0  0
  189.8150  174.2580  144.8940 C   0  0  0  0  0  0  0  0  0  0  0  0
  188.5120  173.9380  140.5650 C   0  0  2  0  0  3  0  0  0  0  0  0
  187.3900  176.1070  140.0780 C   0  0  0  0  0  0  0  0  0  0  0  0
  189.2910  174.9610  145.9840 C   0  0  0  0  0  0  0  0  0  0  0  0
  189.4380  174.5900  143.6190 N   0  0  0  0  0  0  0  0  0  0  0  0
  185.5620  179.2620  145.2550 C   0  0  0  0  0  2  0  0  0  0  0  0
  189.4230  173.8820  139.3560 C   0  0  0  0  0  2  0  0  0  0  0  0
  190.0110  172.0780  140.8890 C   0  0  0  0  0  2  0  0  0  0  0  0
  187.2110  178.2110  146.6080 O   0  0  0  0  0  0  0  0  0  0  0  0
  187.1950  177.0280  141.9650 C   0  0  0  0  0  0  0  0  0  0  0  0
  185.3960  179.6810  143.8210 C   0  0  0  0  0  3  0  0  0  0  0  0
  187.1800  177.4590  144.3320 C   0  0  0  0  0  0  0  0  0  0  0  0
  187.9910  175.9210  142.1250 C   0  0  0  0  0  0  0  0  0  0  0  0
  187.1300  175.8000  138.6400 C   0  0  0  0  0  1  0  0  0  0  0  0
  188.1120  175.3120  140.9150 N   0  0  0  0  0  0  0  0  0  0  0  0
  190.0980  172.5280  139.4370 C   0  0  0  0  0  2  0  0  0  0  0  0
  191.1010  174.9000  141.8090 C   0  0  0  0  0  1  0  0  0  0  0  0
  185.9220  178.9960  142.8050 C   0  0  0  0  0  3  0  0  0  0  0  0
  186.7720  177.8150  143.0310 C   0  0  0  0  0  0  0  0  0  0  0  0
  190.1540  173.9390  142.5250 C   0  0  2  0  0  3  0  0  0  0  0  0
  189.6660  174.6120  147.3870 C   0  0  0  0  0  2  0  0  0  0  0  0
  191.9950  175.0850  147.4180 O   0  0  0  0  0  1  0  0  0  0  0  0
  190.7600  175.5400  147.8770 C   0  0  0  0  0  2  0  0  0  0  0  0
  1  5  1  0  0  0  0
  2 16  2  0  0  0  0
  3 17  1  0  0  0  0
  4 12  1  0  0  0  0
  4  1  2  0  0  0  0
  5 11  2  0  0  0  0
  7 15  1  6  0  0  0
  7 27  1  0  0  0  0
  8  6  2  0  0  0  0
  8 11  1  0  0  0  0
  9 14  1  6  0  0  0
  9 22  1  0  0  0  0
  9  7  1  0  0  0  0
 10  3  2  0  0  0  0
 10 22  1  0  0  0  0
 11 28  1  0  0  0  0
 12  8  1  0  0  0  0
 13  2  1  0  0  0  0
 14 23  1  0  0  0  0
 17 20  2  0  0  0  0
 17 26  1  0  0  0  0
 18 13  1  0  0  0  0
 19  1  1  0  0  0  0
 19  2  1  0  0  0  0
 20  4  1  0  0  0  0
 21 10  1  0  0  0  0
 22 20  1  0  0  0  0
 23 15  1  0  0  0  0
 25 26  1  0  0  0  0
 25 18  2  0  0  0  0
 26 19  2  0  0  0  0
 27 24  1  6  0  0  0
 27 12  1  0  0  0  0
 28 30  1  0  0  0  0
 29 30  1  0  0  0  0
M  END
>  <MODEL>
7

>  <REMARK>
 VINA RESULT:      -7.8      2.647      5.292
  Name = 
  2 active torsions:
  status: ('A' for Active; 'I' for Inactive)
    1  A    between atoms: C_11  and  C_28
    2  A    between atoms: C_28  and  C_30
                            x       y       z     vdW  Elec       q    Type
                         _______ _______ _______ _____ _____    ______ ____

>  <TORSDO>
F 2

$$$$
=
 OpenBabel11112416193D

 30 35  0  0  1  0  0  0  0  0999 V2000
  189.2430  176.3520  145.5060 C   0  0  0  0  0  0  0  0  0  0  0  0
  187.0180  177.4080  146.1950 C   0  0  0  0  0  0  0  0  0  0  0  0
  187.7700  175.3310  141.8100 N   0  0  0  0  0  0  0  0  0  0  0  0
  190.0610  175.7140  144.5260 C   0  0  0  0  0  0  0  0  0  0  0  0
  189.7710  176.6240  146.7260 N   0  0  0  0  0  0  0  0  0  0  0  0
  193.1090  175.5810  146.3170 O   0  0  0  0  0  0  0  0  0  0  0  0
  192.0540  173.7300  143.2380 C   0  0  1  0  0  3  0  0  0  0  0  0
  191.8940  175.8000  146.0480 C   0  0  0  0  0  0  0  0  0  0  0  0
  191.0170  173.6950  142.1320 C   0  0  2  0  0  3  0  0  0  0  0  0
  188.8500  174.6550  141.3660 C   0  0  0  0  0  0  0  0  0  0  0  0
  191.0590  176.3470  147.0290 C   0  0  0  0  0  0  0  0  0  0  0  0
  191.3960  175.5190  144.8020 N   0  0  0  0  0  0  0  0  0  0  0  0
  185.5350  177.4750  145.9640 C   0  0  0  0  0  2  0  0  0  0  0  0
  191.7940  173.8430  140.8400 C   0  0  0  0  0  2  0  0  0  0  0  0
  193.3130  173.1460  142.6160 C   0  0  0  0  0  2  0  0  0  0  0  0
  187.4860  177.9160  147.2480 O   0  0  0  0  0  0  0  0  0  0  0  0
  188.1580  175.7650  143.0200 C   0  0  0  0  0  0  0  0  0  0  0  0
  185.1580  177.3400  144.5150 C   0  0  0  0  0  3  0  0  0  0  0  0
  187.8960  176.7120  145.2160 C   0  0  0  0  0  0  0  0  0  0  0  0
  189.4470  175.3760  143.2920 C   0  0  0  0  0  0  0  0  0  0  0  0
  188.8160  173.8930  140.0820 C   0  0  0  0  0  1  0  0  0  0  0  0
  189.8980  174.6470  142.2360 N   0  0  0  0  0  0  0  0  0  0  0  0
  193.1260  173.1700  141.1060 C   0  0  0  0  0  2  0  0  0  0  0  0
  192.5770  176.2180  142.7400 C   0  0  0  0  0  1  0  0  0  0  0  0
  185.9830  176.8280  143.6010 C   0  0  0  0  0  3  0  0  0  0  0  0
  187.3590  176.4270  143.9450 C   0  0  0  0  0  0  0  0  0  0  0  0
  192.3570  175.1190  143.7780 C   0  0  2  0  0  3  0  0  0  0  0  0
  191.5660  176.6450  148.4010 C   0  0  0  0  0  2  0  0  0  0  0  0
  191.5670  178.2910  150.1160 O   0  0  0  0  0  1  0  0  0  0  0  0
  190.9870  177.9570  148.8930 C   0  0  0  0  0  2  0  0  0  0  0  0
  1  5  1  0  0  0  0
  2 16  2  0  0  0  0
  3 17  1  0  0  0  0
  4 12  1  0  0  0  0
  4  1  2  0  0  0  0
  5 11  2  0  0  0  0
  7 15  1  6  0  0  0
  7 27  1  0  0  0  0
  8  6  2  0  0  0  0
  8 11  1  0  0  0  0
  9 14  1  6  0  0  0
  9 22  1  0  0  0  0
  9  7  1  0  0  0  0
 10  3  2  0  0  0  0
 10 22  1  0  0  0  0
 11 28  1  0  0  0  0
 12  8  1  0  0  0  0
 13  2  1  0  0  0  0
 14 23  1  0  0  0  0
 17 20  2  0  0  0  0
 17 26  1  0  0  0  0
 18 13  1  0  0  0  0
 19  1  1  0  0  0  0
 19  2  1  0  0  0  0
 20  4  1  0  0  0  0
 21 10  1  0  0  0  0
 22 20  1  0  0  0  0
 23 15  1  0  0  0  0
 25 26  1  0  0  0  0
 25 18  2  0  0  0  0
 26 19  2  0  0  0  0
 27 24  1  6  0  0  0
 27 12  1  0  0  0  0
 28 30  1  0  0  0  0
 30 29  1  0  0  0  0
M  END
>  <MODEL>
8

>  <REMARK>
 VINA RESULT:      -7.4      2.860      5.464
  Name = 
  2 active torsions:
  status: ('A' for Active; 'I' for Inactive)
    1  A    between atoms: C_11  and  C_28
    2  A    between atoms: C_28  and  C_30
                            x       y       z     vdW  Elec       q    Type
                         _______ _______ _______ _____ _____    ______ ____

>  <TORSDO>
F 2

$$$$
=
 OpenBabel11112416193D

 30 35  0  0  1  0  0  0  0  0999 V2000
  188.4070  175.4350  141.4840 C   0  0  0  0  0  0  0  0  0  0  0  0
  188.1730  174.4980  139.1160 C   0  0  0  0  0  0  0  0  0  0  0  0
  191.4540  172.8240  142.3630 N   0  0  0  0  0  0  0  0  0  0  0  0
  189.0730  175.4620  142.7470 C   0  0  0  0  0  0  0  0  0  0  0  0
  187.3770  176.2910  141.2670 N   0  0  0  0  0  0  0  0  0  0  0  0
  187.3530  178.1630  144.2490 O   0  0  0  0  0  0  0  0  0  0  0  0
  189.5150  175.5330  145.8070 C   0  0  1  0  0  3  0  0  0  0  0  0
  187.6890  177.2890  143.4010 C   0  0  0  0  0  0  0  0  0  0  0  0
  190.5300  174.4490  145.4990 C   0  0  2  0  0  3  0  0  0  0  0  0
  191.6080  173.1560  143.6620 C   0  0  0  0  0  0  0  0  0  0  0  0
  186.9890  177.1960  142.1930 C   0  0  0  0  0  0  0  0  0  0  0  0
  188.7400  176.4450  143.6510 N   0  0  0  0  0  0  0  0  0  0  0  0
  188.4180  173.3350  138.1960 C   0  0  0  0  0  2  0  0  0  0  0  0
  191.7800  174.8330  146.2640 C   0  0  0  0  0  2  0  0  0  0  0  0
  189.8670  176.0160  147.2050 C   0  0  0  0  0  2  0  0  0  0  0  0
  187.3870  175.4070  138.7410 O   0  0  0  0  0  0  0  0  0  0  0  0
  190.4940  173.6640  141.9450 C   0  0  0  0  0  0  0  0  0  0  0  0
  189.7110  172.6230  138.4780 C   0  0  0  0  0  3  0  0  0  0  0  0
  188.8160  174.5370  140.4580 C   0  0  0  0  0  0  0  0  0  0  0  0
  190.0920  174.4970  142.9610 C   0  0  0  0  0  0  0  0  0  0  0  0
  192.5110  172.3800  144.5620 C   0  0  0  0  0  1  0  0  0  0  0  0
  190.7950  174.1680  144.0770 N   0  0  0  0  0  0  0  0  0  0  0  0
  191.2760  175.5300  147.5110 C   0  0  0  0  0  2  0  0  0  0  0  0
  190.9090  177.2840  144.5030 C   0  0  0  0  0  1  0  0  0  0  0  0
  190.3620  172.7450  139.6360 C   0  0  0  0  0  3  0  0  0  0  0  0
  189.8890  173.6540  140.6930 C   0  0  0  0  0  0  0  0  0  0  0  0
  189.5350  176.7110  144.8460 C   0  0  2  0  0  3  0  0  0  0  0  0
  185.8270  178.0870  141.8990 C   0  0  0  0  0  2  0  0  0  0  0  0
  184.1120  178.3430  140.2740 O   0  0  0  0  0  1  0  0  0  0  0  0
  185.4470  177.9770  140.4360 C   0  0  0  0  0  2  0  0  0  0  0  0
  1  4  1  0  0  0  0
  2 19  1  0  0  0  0
  3 10  2  0  0  0  0
  4 20  2  0  0  0  0
  4 12  1  0  0  0  0
  5  1  1  0  0  0  0
  5 11  2  0  0  0  0
  7 15  1  1  0  0  0
  8 12  1  0  0  0  0
  8  6  2  0  0  0  0
  9  7  1  0  0  0  0
  9 14  1  1  0  0  0
 10 22  1  0  0  0  0
 10 21  1  0  0  0  0
 11  8  1  0  0  0  0
 12 27  1  0  0  0  0
 13 18  1  0  0  0  0
 13  2  1  0  0  0  0
 14 23  1  0  0  0  0
 15 23  1  0  0  0  0
 16  2  2  0  0  0  0
 17  3  1  0  0  0  0
 17 20  1  0  0  0  0
 18 25  2  0  0  0  0
 19 26  1  0  0  0  0
 19  1  2  0  0  0  0
 20 22  1  0  0  0  0
 22  9  1  0  0  0  0
 25 26  1  0  0  0  0
 26 17  2  0  0  0  0
 27 24  1  6  0  0  0
 27  7  1  0  0  0  0
 28 11  1  0  0  0  0
 29 30  1  0  0  0  0
 30 28  1  0  0  0  0
M  END
>  <MODEL>
9

>  <REMARK>
 VINA RESULT:      -7.4      2.239      5.274
  Name = 
  2 active torsions:
  status: ('A' for Active; 'I' for Inactive)
    1  A    between atoms: C_11  and  C_28
    2  A    between atoms: C_28  and  C_30
                            x       y       z     vdW  Elec       q    Type
                         _______ _______ _______ _____ _____    ______ ____

>  <TORSDO>
F 2

$$$$
