=
 OpenBabel11112416203D

 30 35  0  0  1  0  0  0  0  0999 V2000
  186.2270  177.2660  143.5000 C   0  0  0  0  0  0  0  0  0  0  0  0
  184.5620  178.3400  144.9920 C   0  0  0  0  0  0  0  0  0  0  0  0
  188.4500  175.9540  146.7040 N   0  0  0  0  0  2  0  0  0  0  0  0
  187.3990  176.4800  143.3350 C   0  0  0  0  0  0  0  0  0  0  0  0
  185.5290  177.7020  142.3680 O   0  0  0  0  0  0  0  0  0  0  0  0
  187.4110  176.2400  139.7010 O   0  0  0  0  0  0  0  0  0  0  0  0
  190.0490  175.2280  142.2060 C   0  0  1  0  0  3  0  0  0  0  0  0
  187.1010  176.6060  140.8680 C   0  0  0  0  0  0  0  0  0  0  0  0
  190.3530  175.1010  143.6910 C   0  0  2  0  0  3  0  0  0  0  0  0
  189.4430  175.3790  145.9930 C   0  0  0  0  0  0  0  0  0  0  0  0
  186.1090  177.7190  141.0620 C   0  0  1  0  0  3  0  0  0  0  0  0
  187.7420  176.0190  142.0110 N   0  0  0  0  0  0  0  0  0  0  0  0
  184.1180  178.6310  146.2870 C   0  0  0  0  0  3  0  0  0  0  0  0
  190.8840  173.6950  143.8770 C   0  0  0  0  0  2  0  0  0  0  0  0
  191.0180  174.2830  141.5140 C   0  0  0  0  0  2  0  0  0  0  0  0
  183.8300  178.8000  143.9470 F   0  0  0  0  0  0  0  0  0  0  0  0
  187.6250  176.4070  145.7460 C   0  0  0  0  0  0  0  0  0  0  0  0
  184.8320  178.1820  147.3990 C   0  0  0  0  0  3  0  0  0  0  0  0
  185.7410  177.5850  144.7980 C   0  0  0  0  0  0  0  0  0  0  0  0
  188.1050  176.0990  144.4970 C   0  0  0  0  0  0  0  0  0  0  0  0
  190.4560  174.8750  146.5480 O   0  0  0  0  0  0  0  0  0  0  0  0
  189.2770  175.4280  144.6450 N   0  0  0  0  0  0  0  0  0  0  0  0
  191.6120  173.3800  142.5860 C   0  0  0  0  0  2  0  0  0  0  0  0
  188.0560  173.5950  142.3810 C   0  0  0  0  0  1  0  0  0  0  0  0
  185.9980  177.4380  147.2270 C   0  0  0  0  0  3  0  0  0  0  0  0
  186.4550  177.1360  145.9390 C   0  0  0  0  0  0  0  0  0  0  0  0
  188.6250  174.8840  141.7930 C   0  0  2  0  0  3  0  0  0  0  0  0
  185.1260  177.7720  140.0490 O   0  0  0  0  0  0  0  0  0  0  0  0
  182.7550  177.8220  140.2830 C   0  0  0  0  0  1  0  0  0  0  0  0
  184.0560  178.5620  140.5040 C   0  0  0  0  0  2  0  0  0  0  0  0
  1 19  1  0  0  0  0
  2 13  1  0  0  0  0
  4  1  2  0  0  0  0
  4 20  1  0  0  0  0
  5  1  1  0  0  0  0
  6  8  2  0  0  0  0
  7 15  1  6  0  0  0
  7  9  1  0  0  0  0
  8 11  1  0  0  0  0
  8 12  1  0  0  0  0
  9 14  1  6  0  0  0
  9 22  1  0  0  0  0
 10 21  2  0  0  0  0
 10  3  1  0  0  0  0
 11 28  1  6  0  0  0
 11  5  1  0  0  0  0
 12  4  1  0  0  0  0
 13 18  2  0  0  0  0
 15 23  1  0  0  0  0
 16  2  1  0  0  0  0
 17 26  1  0  0  0  0
 17  3  1  0  0  0  0
 19  2  2  0  0  0  0
 19 26  1  0  0  0  0
 20 22  1  0  0  0  0
 20 17  2  0  0  0  0
 22 10  1  0  0  0  0
 23 14  1  0  0  0  0
 25 18  1  0  0  0  0
 26 25  2  0  0  0  0
 27 12  1  0  0  0  0
 27  7  1  0  0  0  0
 27 24  1  1  0  0  0
 28 30  1  0  0  0  0
 29 30  1  0  0  0  0
M  END
>  <MODEL>
1

>  <REMARK>
 VINA RESULT:      -8.9      0.000      0.000
  Name = 
  2 active torsions:
  status: ('A' for Active; 'I' for Inactive)
    1  A    between atoms: C_11  and  O_28
    2  A    between atoms: O_28  and  C_30
                            x       y       z     vdW  Elec       q    Type
                         _______ _______ _______ _____ _____    ______ ____

>  <TORSDO>
F 2

$$$$
=
 OpenBabel11112416203D

 30 35  0  0  1  0  0  0  0  0999 V2000
  189.7450  175.2890  143.9260 C   0  0  0  0  0  0  0  0  0  0  0  0
  191.7290  174.6050  145.2490 C   0  0  0  0  0  0  0  0  0  0  0  0
  188.1510  177.3290  147.1230 N   0  0  0  0  0  2  0  0  0  0  0  0
  188.5250  176.0110  143.8290 C   0  0  0  0  0  0  0  0  0  0  0  0
  190.2220  174.5940  142.8080 O   0  0  0  0  0  0  0  0  0  0  0  0
  187.7690  175.3730  140.3240 O   0  0  0  0  0  0  0  0  0  0  0  0
  185.6430  176.9530  143.0140 C   0  0  1  0  0  3  0  0  0  0  0  0
  188.3260  175.2970  141.4540 C   0  0  0  0  0  0  0  0  0  0  0  0
  185.6380  177.4330  144.4580 C   0  0  2  0  0  3  0  0  0  0  0  0
  187.0060  177.7160  146.5200 C   0  0  0  0  0  0  0  0  0  0  0  0
  189.3920  174.2640  141.6920 C   0  0  1  0  0  3  0  0  0  0  0  0
  187.9000  176.1410  142.5350 N   0  0  0  0  0  0  0  0  0  0  0  0
  192.4390  174.6340  146.4540 C   0  0  0  0  0  3  0  0  0  0  0  0
  185.0850  178.8420  144.4150 C   0  0  0  0  0  2  0  0  0  0  0  0
  184.5080  177.7050  142.3370 C   0  0  0  0  0  2  0  0  0  0  0  0
  192.2580  173.9090  144.2110 F   0  0  0  0  0  0  0  0  0  0  0  0
  188.7880  176.6610  146.1480 C   0  0  0  0  0  0  0  0  0  0  0  0
  191.9430  175.3360  147.5540 C   0  0  0  0  0  3  0  0  0  0  0  0
  190.4980  175.2910  145.1320 C   0  0  0  0  0  0  0  0  0  0  0  0
  188.0500  176.6590  144.9900 C   0  0  0  0  0  0  0  0  0  0  0  0
  186.1020  178.3380  147.1390 O   0  0  0  0  0  0  0  0  0  0  0  0
  186.8990  177.3450  145.2160 N   0  0  0  0  0  0  0  0  0  0  0  0
  184.0970  178.8380  143.2670 C   0  0  0  0  0  2  0  0  0  0  0  0
  187.5450  178.5830  142.3830 C   0  0  0  0  0  1  0  0  0  0  0  0
  190.7290  176.0160  147.4590 C   0  0  0  0  0  3  0  0  0  0  0  0
  190.0080  176.0000  146.2590 C   0  0  0  0  0  0  0  0  0  0  0  0
  186.9340  177.1900  142.2450 C   0  0  2  0  0  3  0  0  0  0  0  0
  190.1520  173.9710  140.5390 O   0  0  0  0  0  0  0  0  0  0  0  0
  189.1250  172.2850  139.2040 C   0  0  0  0  0  1  0  0  0  0  0  0
  190.1090  172.5840  140.3140 C   0  0  0  0  0  2  0  0  0  0  0  0
  1 19  1  0  0  0  0
  2 13  1  0  0  0  0
  4  1  2  0  0  0  0
  4 20  1  0  0  0  0
  5  1  1  0  0  0  0
  6  8  2  0  0  0  0
  7 15  1  6  0  0  0
  7  9  1  0  0  0  0
  8 11  1  0  0  0  0
  8 12  1  0  0  0  0
  9 14  1  6  0  0  0
  9 22  1  0  0  0  0
 10  3  1  0  0  0  0
 10 21  2  0  0  0  0
 11 28  1  6  0  0  0
 11  5  1  0  0  0  0
 12  4  1  0  0  0  0
 13 18  2  0  0  0  0
 15 23  1  0  0  0  0
 16  2  1  0  0  0  0
 17 26  1  0  0  0  0
 17  3  1  0  0  0  0
 19  2  2  0  0  0  0
 19 26  1  0  0  0  0
 20 22  1  0  0  0  0
 20 17  2  0  0  0  0
 22 10  1  0  0  0  0
 23 14  1  0  0  0  0
 25 18  1  0  0  0  0
 26 25  2  0  0  0  0
 27 24  1  1  0  0  0
 27 12  1  0  0  0  0
 27  7  1  0  0  0  0
 29 30  1  0  0  0  0
 30 28  1  0  0  0  0
M  END
>  <MODEL>
2

>  <REMARK>
 VINA RESULT:      -8.1      2.735      5.708
  Name = 
  2 active torsions:
  status: ('A' for Active; 'I' for Inactive)
    1  A    between atoms: C_11  and  O_28
    2  A    between atoms: O_28  and  C_30
                            x       y       z     vdW  Elec       q    Type
                         _______ _______ _______ _____ _____    ______ ____

>  <TORSDO>
F 2

$$$$
=
 OpenBabel11112416203D

 30 35  0  0  1  0  0  0  0  0999 V2000
  187.4760  177.0920  144.2720 C   0  0  0  0  0  0  0  0  0  0  0  0
  185.3880  178.1280  145.1210 C   0  0  0  0  0  0  0  0  0  0  0  0
  189.3140  177.4750  147.9330 N   0  0  0  0  0  2  0  0  0  0  0  0
  188.7940  176.6160  144.5080 C   0  0  0  0  0  0  0  0  0  0  0  0
  186.9160  176.9530  142.9960 O   0  0  0  0  0  0  0  0  0  0  0  0
  189.4990  175.2420  141.2110 O   0  0  0  0  0  0  0  0  0  0  0  0
  191.8010  175.7820  144.1550 C   0  0  1  0  0  3  0  0  0  0  0  0
  188.9190  175.8710  142.1380 C   0  0  0  0  0  0  0  0  0  0  0  0
  191.8550  176.2150  145.6120 C   0  0  2  0  0  3  0  0  0  0  0  0
  190.5140  176.9740  147.5700 C   0  0  0  0  0  0  0  0  0  0  0  0
  187.7030  176.6990  141.8310 C   0  0  1  0  0  3  0  0  0  0  0  0
  189.4530  175.8600  143.4720 N   0  0  0  0  0  0  0  0  0  0  0  0
  184.6720  178.6940  146.1810 C   0  0  0  0  0  3  0  0  0  0  0  0
  192.6210  175.1240  146.3310 C   0  0  0  0  0  2  0  0  0  0  0  0
  193.0490  174.9420  143.9380 C   0  0  0  0  0  2  0  0  0  0  0  0
  184.7750  178.0300  143.9150 F   0  0  0  0  0  0  0  0  0  0  0  0
  188.5970  177.3750  146.8010 C   0  0  0  0  0  0  0  0  0  0  0  0
  185.2530  178.8190  147.4440 C   0  0  0  0  0  3  0  0  0  0  0  0
  186.7130  177.6740  145.3210 C   0  0  0  0  0  0  0  0  0  0  0  0
  189.3450  176.8170  145.7930 C   0  0  0  0  0  0  0  0  0  0  0  0
  191.4930  176.9450  148.3620 O   0  0  0  0  0  0  0  0  0  0  0  0
  190.5840  176.5460  146.2810 N   0  0  0  0  0  0  0  0  0  0  0  0
  193.6140  174.6080  145.3120 C   0  0  0  0  0  2  0  0  0  0  0  0
  190.1840  173.8420  144.6980 C   0  0  0  0  0  1  0  0  0  0  0  0
  186.5580  178.3790  147.6600 C   0  0  0  0  0  3  0  0  0  0  0  0
  187.2880  177.8070  146.6110 C   0  0  0  0  0  0  0  0  0  0  0  0
  190.5740  174.9760  143.7530 C   0  0  2  0  0  3  0  0  0  0  0  0
  186.9250  176.1770  140.7740 O   0  0  0  0  0  0  0  0  0  0  0  0
  185.4330  177.9680  140.2800 C   0  0  0  0  0  1  0  0  0  0  0  0
  186.6700  177.2080  139.8540 C   0  0  0  0  0  2  0  0  0  0  0  0
  1  4  2  0  0  0  0
  1 19  1  0  0  0  0
  2 19  2  0  0  0  0
  2 13  1  0  0  0  0
  4 20  1  0  0  0  0
  5  1  1  0  0  0  0
  6  8  2  0  0  0  0
  7 15  1  1  0  0  0
  7  9  1  0  0  0  0
  8 12  1  0  0  0  0
  9 22  1  0  0  0  0
  9 14  1  1  0  0  0
 10  3  1  0  0  0  0
 10 21  2  0  0  0  0
 11 28  1  6  0  0  0
 11  8  1  0  0  0  0
 11  5  1  0  0  0  0
 12 27  1  0  0  0  0
 12  4  1  0  0  0  0
 13 18  2  0  0  0  0
 15 23  1  0  0  0  0
 16  2  1  0  0  0  0
 17  3  1  0  0  0  0
 18 25  1  0  0  0  0
 19 26  1  0  0  0  0
 20 22  1  0  0  0  0
 20 17  2  0  0  0  0
 22 10  1  0  0  0  0
 23 14  1  0  0  0  0
 26 17  1  0  0  0  0
 26 25  2  0  0  0  0
 27  7  1  0  0  0  0
 27 24  1  1  0  0  0
 30 29  1  0  0  0  0
 30 28  1  0  0  0  0
M  END
>  <MODEL>
3

>  <REMARK>
 VINA RESULT:      -8.1      1.774      2.301
  Name = 
  2 active torsions:
  status: ('A' for Active; 'I' for Inactive)
    1  A    between atoms: C_11  and  O_28
    2  A    between atoms: O_28  and  C_30
                            x       y       z     vdW  Elec       q    Type
                         _______ _______ _______ _____ _____    ______ ____

>  <TORSDO>
F 2

$$$$
=
 OpenBabel11112416203D

 30 35  0  0  1  0  0  0  0  0999 V2000
  187.6000  176.2250  143.3130 C   0  0  0  0  0  0  0  0  0  0  0  0
  185.4120  177.3840  143.4660 C   0  0  0  0  0  0  0  0  0  0  0  0
  188.7440  177.6070  147.0150 N   0  0  0  0  0  2  0  0  0  0  0  0
  188.8430  175.8680  143.9000 C   0  0  0  0  0  0  0  0  0  0  0  0
  187.2810  175.7410  142.0380 O   0  0  0  0  0  0  0  0  0  0  0  0
  190.1140  173.7020  141.2640 O   0  0  0  0  0  0  0  0  0  0  0  0
  191.8480  175.0610  144.3310 C   0  0  1  0  0  3  0  0  0  0  0  0
  189.3860  174.5330  141.8730 C   0  0  0  0  0  0  0  0  0  0  0  0
  191.6430  175.8620  145.6080 C   0  0  2  0  0  3  0  0  0  0  0  0
  189.9800  177.0650  147.0200 C   0  0  0  0  0  0  0  0  0  0  0  0
  188.2620  175.2150  141.1430 C   0  0  1  0  0  3  0  0  0  0  0  0
  189.6670  174.8880  143.2360 N   0  0  0  0  0  0  0  0  0  0  0  0
  184.5250  178.1860  144.1920 C   0  0  0  0  0  3  0  0  0  0  0  0
  192.2430  175.0210  146.7140 C   0  0  0  0  0  2  0  0  0  0  0  0
  193.0980  174.2320  144.5720 C   0  0  0  0  0  2  0  0  0  0  0  0
  185.0290  176.9560  142.2380 F   0  0  0  0  0  0  0  0  0  0  0  0
  188.2450  177.1930  145.8390 C   0  0  0  0  0  0  0  0  0  0  0  0
  184.8670  178.6540  145.4620 C   0  0  0  0  0  3  0  0  0  0  0  0
  186.6690  177.0380  144.0150 C   0  0  0  0  0  0  0  0  0  0  0  0
  189.1540  176.4140  145.1650 C   0  0  0  0  0  0  0  0  0  0  0  0
  190.7970  177.2740  147.9560 O   0  0  0  0  0  0  0  0  0  0  0  0
  190.2770  176.3180  145.9230 N   0  0  0  0  0  0  0  0  0  0  0  0
  193.3970  174.2860  146.0640 C   0  0  0  0  0  2  0  0  0  0  0  0
  190.1220  173.2830  145.0610 C   0  0  0  0  0  1  0  0  0  0  0  0
  186.1020  178.3250  146.0180 C   0  0  0  0  0  3  0  0  0  0  0  0
  187.0010  177.5220  145.3070 C   0  0  0  0  0  0  0  0  0  0  0  0
  190.7000  174.1420  143.9380 C   0  0  2  0  0  3  0  0  0  0  0  0
  187.6820  174.4110  140.1370 O   0  0  0  0  0  0  0  0  0  0  0  0
  188.3620  173.9610  137.8980 C   0  0  0  0  0  1  0  0  0  0  0  0
  187.9170  175.0140  138.8900 C   0  0  0  0  0  2  0  0  0  0  0  0
  1  4  2  0  0  0  0
  1 19  1  0  0  0  0
  2 19  2  0  0  0  0
  2 13  1  0  0  0  0
  3 10  1  0  0  0  0
  4 20  1  0  0  0  0
  5  1  1  0  0  0  0
  6  8  2  0  0  0  0
  7 15  1  1  0  0  0
  7  9  1  0  0  0  0
  8 12  1  0  0  0  0
  9 22  1  0  0  0  0
  9 14  1  1  0  0  0
 10 21  2  0  0  0  0
 11 28  1  6  0  0  0
 11  8  1  0  0  0  0
 11  5  1  0  0  0  0
 12  4  1  0  0  0  0
 12 27  1  0  0  0  0
 13 18  2  0  0  0  0
 15 23  1  0  0  0  0
 16  2  1  0  0  0  0
 17  3  1  0  0  0  0
 18 25  1  0  0  0  0
 19 26  1  0  0  0  0
 20 17  2  0  0  0  0
 20 22  1  0  0  0  0
 22 10  1  0  0  0  0
 23 14  1  0  0  0  0
 26 17  1  0  0  0  0
 26 25  2  0  0  0  0
 27  7  1  0  0  0  0
 27 24  1  1  0  0  0
 29 30  1  0  0  0  0
 30 28  1  0  0  0  0
M  END
>  <MODEL>
4

>  <REMARK>
 VINA RESULT:      -8.0      2.024      3.052
  Name = 
  2 active torsions:
  status: ('A' for Active; 'I' for Inactive)
    1  A    between atoms: C_11  and  O_28
    2  A    between atoms: O_28  and  C_30
                            x       y       z     vdW  Elec       q    Type
                         _______ _______ _______ _____ _____    ______ ____

>  <TORSDO>
F 2

$$$$
=
 OpenBabel11112416203D

 30 35  0  0  1  0  0  0  0  0999 V2000
  190.2460  175.6330  144.2860 C   0  0  0  0  0  0  0  0  0  0  0  0
  191.1940  174.3020  142.4200 C   0  0  0  0  0  0  0  0  0  0  0  0
  186.6380  176.0260  142.3510 N   0  0  0  0  0  2  0  0  0  0  0  0
  189.1440  176.3110  144.8740 C   0  0  0  0  0  0  0  0  0  0  0  0
  191.4560  175.5560  144.9870 O   0  0  0  0  0  0  0  0  0  0  0  0
  190.6690  177.2180  148.0540 O   0  0  0  0  0  0  0  0  0  0  0  0
  187.3770  178.2940  146.5490 C   0  0  1  0  0  3  0  0  0  0  0  0
  190.5460  176.8010  146.8700 C   0  0  0  0  0  0  0  0  0  0  0  0
  186.4300  178.0810  145.3780 C   0  0  2  0  0  3  0  0  0  0  0  0
  186.0350  176.8010  143.2770 C   0  0  0  0  0  0  0  0  0  0  0  0
  191.7690  176.4160  146.0850 C   0  0  1  0  0  3  0  0  0  0  0  0
  189.2560  176.7580  146.2410 N   0  0  0  0  0  0  0  0  0  0  0  0
  191.0300  173.7000  141.1680 C   0  0  0  0  0  3  0  0  0  0  0  0
  185.0690  177.8370  145.9950 C   0  0  0  0  0  2  0  0  0  0  0  0
  186.5170  178.8730  147.6610 C   0  0  0  0  0  2  0  0  0  0  0  0
  192.3970  174.1820  143.0350 F   0  0  0  0  0  0  0  0  0  0  0  0
  187.8450  175.8000  142.8940 C   0  0  0  0  0  0  0  0  0  0  0  0
  189.8130  173.7910  140.4910 C   0  0  0  0  0  3  0  0  0  0  0  0
  190.1230  175.0080  143.0150 C   0  0  0  0  0  0  0  0  0  0  0  0
  187.9560  176.4130  144.1180 C   0  0  0  0  0  0  0  0  0  0  0  0
  184.8800  177.2730  143.1040 O   0  0  0  0  0  0  0  0  0  0  0  0
  186.7880  177.0560  144.3800 N   0  0  0  0  0  0  0  0  0  0  0  0
  185.0620  178.6660  147.2630 C   0  0  0  0  0  2  0  0  0  0  0  0
  187.2070  175.8150  147.2540 C   0  0  0  0  0  1  0  0  0  0  0  0
  188.7470  174.4850  141.0600 C   0  0  0  0  0  3  0  0  0  0  0  0
  188.8920  175.0900  142.3140 C   0  0  0  0  0  0  0  0  0  0  0  0
  188.0870  177.0470  147.0570 C   0  0  2  0  0  3  0  0  0  0  0  0
  192.8050  175.8890  146.8880 O   0  0  0  0  0  0  0  0  0  0  0  0
  194.9510  175.3060  146.0320 C   0  0  0  0  0  1  0  0  0  0  0  0
  194.0270  176.4280  146.4530 C   0  0  0  0  0  2  0  0  0  0  0  0
  1  4  1  0  0  0  0
  1  5  1  0  0  0  0
  2 19  1  0  0  0  0
  2 16  1  0  0  0  0
  3 17  1  0  0  0  0
  3 10  1  0  0  0  0
  4 12  1  0  0  0  0
  5 11  1  0  0  0  0
  7 27  1  0  0  0  0
  7 15  1  1  0  0  0
  8  6  2  0  0  0  0
  9 14  1  1  0  0  0
  9  7  1  0  0  0  0
 10 22  1  0  0  0  0
 11  8  1  0  0  0  0
 11 28  1  1  0  0  0
 12  8  1  0  0  0  0
 12 27  1  0  0  0  0
 13  2  2  0  0  0  0
 14 23  1  0  0  0  0
 17 20  1  0  0  0  0
 18 25  2  0  0  0  0
 18 13  1  0  0  0  0
 19  1  2  0  0  0  0
 20 22  1  0  0  0  0
 20  4  2  0  0  0  0
 21 10  2  0  0  0  0
 22  9  1  0  0  0  0
 23 15  1  0  0  0  0
 25 26  1  0  0  0  0
 26 17  2  0  0  0  0
 26 19  1  0  0  0  0
 27 24  1  6  0  0  0
 29 30  1  0  0  0  0
 30 28  1  0  0  0  0
M  END
>  <MODEL>
5

>  <REMARK>
 VINA RESULT:      -7.9      2.619      7.389
  Name = 
  2 active torsions:
  status: ('A' for Active; 'I' for Inactive)
    1  A    between atoms: C_11  and  O_28
    2  A    between atoms: O_28  and  C_30
                            x       y       z     vdW  Elec       q    Type
                         _______ _______ _______ _____ _____    ______ ____

>  <TORSDO>
F 2

$$$$
=
 OpenBabel11112416203D

 30 35  0  0  1  0  0  0  0  0999 V2000
  188.9450  176.2910  145.5630 C   0  0  0  0  0  0  0  0  0  0  0  0
  187.0670  177.7480  146.2720 C   0  0  0  0  0  0  0  0  0  0  0  0
  187.4150  175.9440  141.7600 N   0  0  0  0  0  2  0  0  0  0  0  0
  189.6130  175.5580  144.5440 C   0  0  0  0  0  0  0  0  0  0  0  0
  189.5060  176.3490  146.8440 O   0  0  0  0  0  0  0  0  0  0  0  0
  192.5360  174.4940  146.4370 O   0  0  0  0  0  0  0  0  0  0  0  0
  191.3560  173.4470  143.0060 C   0  0  1  0  0  3  0  0  0  0  0  0
  191.4010  174.9790  146.1730 C   0  0  0  0  0  0  0  0  0  0  0  0
  190.3150  173.7100  141.9280 C   0  0  2  0  0  3  0  0  0  0  0  0
  188.3560  175.1050  141.2770 C   0  0  0  0  0  0  0  0  0  0  0  0
  190.5060  175.4320  147.2920 C   0  0  1  0  0  3  0  0  0  0  0  0
  190.9280  175.0340  144.8180 N   0  0  0  0  0  0  0  0  0  0  0  0
  185.8810  178.4190  145.9580 C   0  0  0  0  0  3  0  0  0  0  0  0
  191.0980  173.8910  140.6450 C   0  0  0  0  0  2  0  0  0  0  0  0
  192.5210  172.7870  142.2870 C   0  0  0  0  0  2  0  0  0  0  0  0
  187.5460  177.8540  147.5370 F   0  0  0  0  0  0  0  0  0  0  0  0
  187.8290  176.1600  143.0190 C   0  0  0  0  0  0  0  0  0  0  0  0
  185.3440  178.3450  144.6710 C   0  0  0  0  0  3  0  0  0  0  0  0
  187.7370  176.9870  145.2860 C   0  0  0  0  0  0  0  0  0  0  0  0
  188.9930  175.4790  143.2780 C   0  0  0  0  0  0  0  0  0  0  0  0
  188.2880  174.6220  140.1160 O   0  0  0  0  0  0  0  0  0  0  0  0
  189.3480  174.7990  142.1560 N   0  0  0  0  0  0  0  0  0  0  0  0
  192.3060  172.9890  140.7940 C   0  0  0  0  0  2  0  0  0  0  0  0
  192.2250  175.8760  142.8890 C   0  0  0  0  0  1  0  0  0  0  0  0
  185.9880  177.5990  143.6870 C   0  0  0  0  0  3  0  0  0  0  0  0
  187.1780  176.9230  143.9840 C   0  0  0  0  0  0  0  0  0  0  0  0
  191.8540  174.6750  143.7550 C   0  0  2  0  0  3  0  0  0  0  0  0
  191.2160  175.9300  148.4070 O   0  0  0  0  0  0  0  0  0  0  0  0
  191.4390  178.0050  149.5580 C   0  0  0  0  0  1  0  0  0  0  0  0
  191.4430  177.3040  148.2170 C   0  0  0  0  0  2  0  0  0  0  0  0
  1  5  1  0  0  0  0
  2 16  1  0  0  0  0
  3 17  1  0  0  0  0
  4 12  1  0  0  0  0
  4  1  2  0  0  0  0
  5 11  1  0  0  0  0
  7 15  1  6  0  0  0
  7 27  1  0  0  0  0
  8  6  2  0  0  0  0
  8 11  1  0  0  0  0
  9 14  1  6  0  0  0
  9 22  1  0  0  0  0
  9  7  1  0  0  0  0
 10  3  1  0  0  0  0
 10 22  1  0  0  0  0
 11 28  1  1  0  0  0
 12  8  1  0  0  0  0
 13  2  1  0  0  0  0
 14 23  1  0  0  0  0
 17 20  2  0  0  0  0
 17 26  1  0  0  0  0
 18 13  2  0  0  0  0
 19  1  1  0  0  0  0
 19  2  2  0  0  0  0
 20  4  1  0  0  0  0
 21 10  2  0  0  0  0
 22 20  1  0  0  0  0
 23 15  1  0  0  0  0
 25 26  2  0  0  0  0
 25 18  1  0  0  0  0
 26 19  1  0  0  0  0
 27 24  1  6  0  0  0
 27 12  1  0  0  0  0
 30 28  1  0  0  0  0
 30 29  1  0  0  0  0
M  END
>  <MODEL>
6

>  <REMARK>
 VINA RESULT:      -7.8      2.329      5.474
  Name = 
  2 active torsions:
  status: ('A' for Active; 'I' for Inactive)
    1  A    between atoms: C_11  and  O_28
    2  A    between atoms: O_28  and  C_30
                            x       y       z     vdW  Elec       q    Type
                         _______ _______ _______ _____ _____    ______ ____

>  <TORSDO>
F 2

$$$$
=
 OpenBabel11112416203D

 30 35  0  0  1  0  0  0  0  0999 V2000
  188.1080  175.6660  141.1460 C   0  0  0  0  0  0  0  0  0  0  0  0
  188.1890  174.4390  138.9920 C   0  0  0  0  0  0  0  0  0  0  0  0
  190.9260  173.1820  142.8210 N   0  0  0  0  0  2  0  0  0  0  0  0
  188.5900  175.8560  142.4690 C   0  0  0  0  0  0  0  0  0  0  0  0
  187.1290  176.5320  140.6430 O   0  0  0  0  0  0  0  0  0  0  0  0
  186.6660  178.8190  143.3530 O   0  0  0  0  0  0  0  0  0  0  0  0
  188.8130  176.5880  145.5140 C   0  0  1  0  0  3  0  0  0  0  0  0
  187.0650  177.8060  142.7150 C   0  0  0  0  0  0  0  0  0  0  0  0
  189.7670  175.4030  145.4960 C   0  0  2  0  0  3  0  0  0  0  0  0
  190.9280  173.7380  144.0520 C   0  0  0  0  0  0  0  0  0  0  0  0
  186.3250  177.3610  141.4840 C   0  0  1  0  0  3  0  0  0  0  0  0
  188.1750  177.0310  143.1950 N   0  0  0  0  0  0  0  0  0  0  0  0
  188.7300  173.4090  138.2140 C   0  0  0  0  0  3  0  0  0  0  0  0
  190.9880  175.8530  146.2690 C   0  0  0  0  0  2  0  0  0  0  0  0
  189.1290  177.3380  146.7990 C   0  0  0  0  0  2  0  0  0  0  0  0
  187.2440  175.2350  138.4310 F   0  0  0  0  0  0  0  0  0  0  0  0
  190.0430  173.9420  142.1550 C   0  0  0  0  0  0  0  0  0  0  0  0
  189.7060  172.5610  138.7390 C   0  0  0  0  0  3  0  0  0  0  0  0
  188.6290  174.6320  140.3220 C   0  0  0  0  0  0  0  0  0  0  0  0
  189.5400  174.9340  142.9610 C   0  0  0  0  0  0  0  0  0  0  0  0
  191.6100  173.2620  144.9990 O   0  0  0  0  0  0  0  0  0  0  0  0
  190.1110  174.8170  144.1880 N   0  0  0  0  0  0  0  0  0  0  0  0
  190.4560  176.8050  147.3200 C   0  0  0  0  0  2  0  0  0  0  0  0
  190.3400  177.9570  143.9450 C   0  0  0  0  0  1  0  0  0  0  0  0
  190.1510  172.7340  140.0490 C   0  0  0  0  0  3  0  0  0  0  0  0
  189.6230  173.7610  140.8400 C   0  0  0  0  0  0  0  0  0  0  0  0
  188.9240  177.5410  144.3330 C   0  0  2  0  0  3  0  0  0  0  0  0
  185.7420  178.4300  140.7680 O   0  0  0  0  0  0  0  0  0  0  0  0
  183.5450  178.2100  141.6650 C   0  0  0  0  0  1  0  0  0  0  0  0
  184.4210  178.0800  140.4380 C   0  0  0  0  0  2  0  0  0  0  0  0
  1  4  1  0  0  0  0
  2 19  1  0  0  0  0
  3 10  1  0  0  0  0
  4 20  2  0  0  0  0
  4 12  1  0  0  0  0
  5  1  1  0  0  0  0
  5 11  1  0  0  0  0
  7 15  1  1  0  0  0
  8 12  1  0  0  0  0
  8  6  2  0  0  0  0
  9  7  1  0  0  0  0
  9 14  1  6  0  0  0
 10 22  1  0  0  0  0
 10 21  2  0  0  0  0
 11 28  1  6  0  0  0
 11  8  1  0  0  0  0
 12 27  1  0  0  0  0
 13 18  1  0  0  0  0
 13  2  2  0  0  0  0
 14 23  1  0  0  0  0
 15 23  1  0  0  0  0
 16  2  1  0  0  0  0
 17  3  1  0  0  0  0
 17 20  1  0  0  0  0
 18 25  2  0  0  0  0
 19 26  1  0  0  0  0
 19  1  2  0  0  0  0
 20 22  1  0  0  0  0
 22  9  1  0  0  0  0
 25 26  1  0  0  0  0
 26 17  2  0  0  0  0
 27 24  1  6  0  0  0
 27  7  1  0  0  0  0
 30 28  1  0  0  0  0
 30 29  1  0  0  0  0
M  END
>  <MODEL>
7

>  <REMARK>
 VINA RESULT:      -7.8      2.453      5.207
  Name = 
  2 active torsions:
  status: ('A' for Active; 'I' for Inactive)
    1  A    between atoms: C_11  and  O_28
    2  A    between atoms: O_28  and  C_30
                            x       y       z     vdW  Elec       q    Type
                         _______ _______ _______ _____ _____    ______ ____

>  <TORSDO>
F 2

$$$$
=
 OpenBabel11112416203D

 30 35  0  0  1  0  0  0  0  0999 V2000
  185.8700  177.1580  143.9800 C   0  0  0  0  0  0  0  0  0  0  0  0
  184.1120  178.3030  142.6570 C   0  0  0  0  0  0  0  0  0  0  0  0
  187.8160  175.9220  140.5720 N   0  0  0  0  0  2  0  0  0  0  0  0
  187.0860  176.4230  144.0290 C   0  0  0  0  0  0  0  0  0  0  0  0
  185.2440  177.5270  145.1760 O   0  0  0  0  0  0  0  0  0  0  0  0
  187.5110  176.2740  147.6420 O   0  0  0  0  0  0  0  0  0  0  0  0
  189.4000  174.4890  144.9030 C   0  0  1  0  0  3  0  0  0  0  0  0
  186.9840  176.4750  146.5140 C   0  0  0  0  0  0  0  0  0  0  0  0
  189.5610  174.3670  143.3950 C   0  0  2  0  0  3  0  0  0  0  0  0
  188.7960  175.2230  141.1840 C   0  0  0  0  0  0  0  0  0  0  0  0
  185.5470  176.9100  146.4290 C   0  0  1  0  0  3  0  0  0  0  0  0
  187.7220  176.2220  145.3080 N   0  0  0  0  0  0  0  0  0  0  0  0
  183.5890  178.6660  141.4120 C   0  0  0  0  0  3  0  0  0  0  0  0
  191.0460  174.4980  143.1340 C   0  0  0  0  0  2  0  0  0  0  0  0
  190.7040  173.9710  145.4890 C   0  0  0  0  0  2  0  0  0  0  0  0
  183.4460  178.6990  143.7710 F   0  0  0  0  0  0  0  0  0  0  0  0
  187.1120  176.4110  141.6060 C   0  0  0  0  0  0  0  0  0  0  0  0
  184.2340  178.2860  140.2330 C   0  0  0  0  0  3  0  0  0  0  0  0
  185.3040  177.5470  142.7350 C   0  0  0  0  0  0  0  0  0  0  0  0
  187.6630  176.0250  142.8030 C   0  0  0  0  0  0  0  0  0  0  0  0
  189.6490  174.5600  140.5350 O   0  0  0  0  0  0  0  0  0  0  0  0
  188.7570  175.2620  142.5430 N   0  0  0  0  0  0  0  0  0  0  0  0
  191.7120  173.8900  144.3510 C   0  0  0  0  0  2  0  0  0  0  0  0
  190.0270  176.9940  144.8590 C   0  0  0  0  0  1  0  0  0  0  0  0
  185.4090  177.5380  140.2900 C   0  0  0  0  0  3  0  0  0  0  0  0
  185.9480  177.1690  141.5280 C   0  0  0  0  0  0  0  0  0  0  0  0
  189.1340  175.8930  145.4260 C   0  0  2  0  0  3  0  0  0  0  0  0
  185.1410  177.7070  147.5220 O   0  0  0  0  0  0  0  0  0  0  0  0
  186.3240  179.7150  148.0220 C   0  0  0  0  0  1  0  0  0  0  0  0
  185.2660  179.0600  147.1600 C   0  0  0  0  0  2  0  0  0  0  0  0
  1  4  1  0  0  0  0
  1  5  1  0  0  0  0
  2 19  1  0  0  0  0
  2 16  1  0  0  0  0
  3 10  1  0  0  0  0
  3 17  1  0  0  0  0
  4 12  1  0  0  0  0
  5 11  1  0  0  0  0
  7 27  1  0  0  0  0
  7 15  1  1  0  0  0
  8  6  2  0  0  0  0
  9 14  1  1  0  0  0
  9  7  1  0  0  0  0
 10 22  1  0  0  0  0
 11  8  1  0  0  0  0
 11 28  1  1  0  0  0
 12 27  1  0  0  0  0
 12  8  1  0  0  0  0
 13  2  2  0  0  0  0
 14 23  1  0  0  0  0
 17 20  1  0  0  0  0
 18 25  2  0  0  0  0
 18 13  1  0  0  0  0
 19  1  2  0  0  0  0
 20  4  2  0  0  0  0
 21 10  2  0  0  0  0
 22 20  1  0  0  0  0
 22  9  1  0  0  0  0
 23 15  1  0  0  0  0
 25 26  1  0  0  0  0
 26 17  2  0  0  0  0
 26 19  1  0  0  0  0
 27 24  1  6  0  0  0
 30 28  1  0  0  0  0
 30 29  1  0  0  0  0
M  END
>  <MODEL>
8

>  <REMARK>
 VINA RESULT:      -7.7      1.775      4.714
  Name = 
  2 active torsions:
  status: ('A' for Active; 'I' for Inactive)
    1  A    between atoms: C_11  and  O_28
    2  A    between atoms: O_28  and  C_30
                            x       y       z     vdW  Elec       q    Type
                         _______ _______ _______ _____ _____    ______ ____

>  <TORSDO>
F 2

$$$$
=
 OpenBabel11112416203D

 30 35  0  0  1  0  0  0  0  0999 V2000
  188.3860  176.1530  143.9510 C   0  0  0  0  0  0  0  0  0  0  0  0
  186.0660  176.7910  144.5530 C   0  0  0  0  0  0  0  0  0  0  0  0
  189.7820  177.1920  147.6790 N   0  0  0  0  0  2  0  0  0  0  0  0
  189.7480  175.9850  144.3210 C   0  0  0  0  0  0  0  0  0  0  0  0
  187.9800  175.8040  142.6570 O   0  0  0  0  0  0  0  0  0  0  0  0
  191.0030  174.5410  141.2220 O   0  0  0  0  0  0  0  0  0  0  0  0
  192.8800  175.7750  144.2570 C   0  0  1  0  0  3  0  0  0  0  0  0
  190.2280  175.1030  142.0450 C   0  0  0  0  0  0  0  0  0  0  0  0
  192.7190  176.3200  145.6680 C   0  0  2  0  0  3  0  0  0  0  0  0
  191.0860  176.9280  147.4480 C   0  0  0  0  0  0  0  0  0  0  0  0
  188.9010  175.6320  141.5780 C   0  0  1  0  0  3  0  0  0  0  0  0
  190.6350  175.3070  143.4080 N   0  0  0  0  0  0  0  0  0  0  0  0
  185.1600  177.2730  145.5030 C   0  0  0  0  0  3  0  0  0  0  0  0
  193.6240  175.4720  146.5360 C   0  0  0  0  0  2  0  0  0  0  0  0
  194.2870  175.2010  144.2060 C   0  0  0  0  0  2  0  0  0  0  0  0
  185.5940  176.4740  143.3210 F   0  0  0  0  0  0  0  0  0  0  0  0
  189.2020  176.8580  146.5140 C   0  0  0  0  0  0  0  0  0  0  0  0
  185.5910  177.6130  146.7860 C   0  0  0  0  0  3  0  0  0  0  0  0
  187.4320  176.6410  144.8850 C   0  0  0  0  0  0  0  0  0  0  0  0
  190.1320  176.3940  145.6170 C   0  0  0  0  0  0  0  0  0  0  0  0
  191.9770  177.1660  148.3060 O   0  0  0  0  0  0  0  0  0  0  0  0
  191.3530  176.4270  146.2120 N   0  0  0  0  0  0  0  0  0  0  0  0
  194.7870  175.1000  145.6410 C   0  0  0  0  0  2  0  0  0  0  0  0
  191.6500  173.5870  144.8640 C   0  0  0  0  0  1  0  0  0  0  0  0
  186.9340  177.4740  147.1320 C   0  0  0  0  0  3  0  0  0  0  0  0
  187.8540  176.9900  146.1940 C   0  0  0  0  0  0  0  0  0  0  0  0
  191.8820  174.7020  143.8470 C   0  0  2  0  0  3  0  0  0  0  0  0
  188.3410  174.8790  140.5230 O   0  0  0  0  0  0  0  0  0  0  0  0
  188.1930  172.6230  139.7680 C   0  0  0  0  0  1  0  0  0  0  0  0
  188.1660  173.5550  140.9600 C   0  0  0  0  0  2  0  0  0  0  0  0
  1  4  2  0  0  0  0
  1 19  1  0  0  0  0
  2 19  2  0  0  0  0
  2 13  1  0  0  0  0
  4 20  1  0  0  0  0
  5  1  1  0  0  0  0
  6  8  2  0  0  0  0
  7 15  1  1  0  0  0
  7  9  1  0  0  0  0
  8 12  1  0  0  0  0
  9 22  1  0  0  0  0
  9 14  1  1  0  0  0
 10  3  1  0  0  0  0
 10 21  2  0  0  0  0
 11 28  1  6  0  0  0
 11  8  1  0  0  0  0
 11  5  1  0  0  0  0
 12 27  1  0  0  0  0
 12  4  1  0  0  0  0
 13 18  2  0  0  0  0
 15 23  1  0  0  0  0
 16  2  1  0  0  0  0
 17  3  1  0  0  0  0
 18 25  1  0  0  0  0
 19 26  1  0  0  0  0
 20 22  1  0  0  0  0
 20 17  2  0  0  0  0
 22 10  1  0  0  0  0
 23 14  1  0  0  0  0
 26 17  1  0  0  0  0
 26 25  2  0  0  0  0
 27  7  1  0  0  0  0
 27 24  1  1  0  0  0
 28 30  1  0  0  0  0
 29 30  1  0  0  0  0
M  END
>  <MODEL>
9

>  <REMARK>
 VINA RESULT:      -7.7      2.359      3.538
  Name = 
  2 active torsions:
  status: ('A' for Active; 'I' for Inactive)
    1  A    between atoms: C_11  and  O_28
    2  A    between atoms: O_28  and  C_30
                            x       y       z     vdW  Elec       q    Type
                         _______ _______ _______ _____ _____    ______ ____

>  <TORSDO>
F 2

$$$$
