=
 OpenBabel11112417263D

 37 43  0  0  1  0  0  0  0  0999 V2000
  192.1400  172.3370  143.0650 C   0  0  0  0  0  0  0  0  0  0  0  0
  190.0480  175.2420  142.2800 C   0  0  1  0  0  3  0  0  0  0  0  0
  189.3730  177.5570  144.8710 C   0  0  0  0  0  2  0  0  0  0  0  0
  191.8390  173.6470  141.3060 C   0  0  2  0  0  3  0  0  0  0  0  0
  189.8110  175.3260  143.7690 C   0  0  2  0  0  3  0  0  0  0  0  0
  191.4710  174.8650  142.1350 C   0  0  2  0  0  3  0  0  0  0  0  0
  188.7310  176.3160  144.3000 C   0  0  2  0  0  3  0  0  0  0  0  0
  191.0060  173.8350  140.0370 C   0  0  0  0  0  2  0  0  0  0  0  0
  191.9400  174.6620  143.5970 C   0  0  2  0  0  3  0  0  0  0  0  0
  193.6570  172.1660  142.8670 C   0  0  0  0  0  1  0  0  0  0  0  0
  187.7560  175.0390  141.3940 N   0  0  0  0  0  2  0  0  0  0  0  0
  189.5020  173.7800  140.2880 C   0  0  0  0  0  2  0  0  0  0  0  0
  191.7380  173.2620  143.9960 O   0  0  0  0  0  0  0  0  0  0  0  0
  189.3580  176.3250  147.0010 O   0  0  0  0  0  0  0  0  0  0  0  0
  189.6670  177.5240  146.3690 C   0  0  1  0  0  3  0  0  0  0  0  0
  189.0060  174.3020  141.6640 C   0  0  1  0  0  3  0  0  0  0  0  0
  191.1590  175.5520  144.3250 N   0  0  2  0  0  0  0  0  0  0  0  0
  191.4400  172.4360  141.8740 O   0  0  0  0  0  0  0  0  0  0  0  0
  187.5950  176.5590  143.3000 C   0  0  1  0  0  3  0  0  0  0  0  0
  191.8100  170.9840  143.5930 C   0  0  0  0  0  1  0  0  0  0  0  0
  190.7130  176.4420  146.6620 C   0  0  2  0  0  3  0  0  0  0  0  0
  191.1860  175.2650  145.8020 C   0  0  2  0  0  3  0  0  0  0  0  0
  187.0940  175.2770  142.6920 C   0  0  0  0  0  2  0  0  0  0  0  0
  186.3960  178.7590  143.3290 C   0  0  0  0  0  3  0  0  0  0  0  0
  186.6260  177.4840  143.9040 C   0  0  0  0  0  0  0  0  0  0  0  0
  185.8150  177.0600  144.9710 C   0  0  0  0  0  3  0  0  0  0  0  0
  184.1560  177.4680  146.5120 F   0  0  0  0  0  0  0  0  0  0  0  0
  184.6870  179.2140  144.9240 C   0  0  0  0  0  3  0  0  0  0  0  0
  184.8770  177.9320  145.4620 C   0  0  0  0  0  0  0  0  0  0  0  0
  185.4300  179.6290  143.8910 C   0  0  0  0  0  3  0  0  0  0  0  0
  192.5460  174.7350  146.2180 C   0  0  0  0  0  2  0  0  0  0  0  0
  193.7360  175.4300  145.7590 N   0  0  0  0  0  0  0  0  0  0  0  0
  194.8780  177.8410  145.9690 O   0  0  0  0  0  1  0  0  0  0  0  0
  194.2520  176.6950  146.5710 C   0  0  0  0  0  2  0  0  0  0  0  0
  194.7210  174.2240  145.8540 C   0  0  0  0  0  2  0  0  0  0  0  0
  196.1450  174.5990  145.2250 C   0  0  0  0  0  2  0  0  0  0  0  0
  197.1620  173.7390  145.8770 C   0  0  0  0  0  1  0  0  0  0  0  0
  1 20  1  0  0  0  0
  1 13  1  0  0  0  0
  2  5  1  0  0  0  0
  3 15  1  0  0  0  0
  4 18  1  0  0  0  0
  4  6  1  0  0  0  0
  5  7  1  0  0  0  0
  5 17  1  0  0  0  0
  6  2  1  0  0  0  0
  6  9  1  0  0  0  0
  7  3  1  0  0  0  0
  8 12  1  0  0  0  0
  8  4  1  0  0  0  0
  9 13  1  0  0  0  0
  9 17  1  0  0  0  0
 10  1  1  0  0  0  0
 11 16  1  0  0  0  0
 11 23  1  0  0  0  0
 12 16  1  0  0  0  0
 15 21  1  0  0  0  0
 15 14  1  0  0  0  0
 16  2  1  0  0  0  0
 17 22  1  0  0  0  0
 18  1  1  0  0  0  0
 19 25  1  0  0  0  0
 19  7  1  0  0  0  0
 21 14  1  0  0  0  0
 22 31  1  0  0  0  0
 22 21  1  0  0  0  0
 23 19  1  0  0  0  0
 24 30  2  0  0  0  0
 24 25  1  0  0  0  0
 25 26  2  0  0  0  0
 26 29  1  0  0  0  0
 28 29  2  0  0  0  0
 29 27  1  0  0  0  0
 30 28  1  0  0  0  0
 32 35  1  0  0  0  0
 32 31  1  0  0  0  0
 32 34  1  0  0  0  0
 33 34  1  0  0  0  0
 36 35  1  0  0  0  0
 36 37  1  0  0  0  0
M  END
>  <MODEL>
1

>  <REMARK>
 VINA RESULT:      -8.2      0.000      0.000
  Name = 
  6 active torsions:
  status: ('A' for Active; 'I' for Inactive)
    1  A    between atoms: C_1  and  N_4
    2  A    between atoms: C_1  and  C_27
    3  A    between atoms: N_4  and  C_12
    4  A    between atoms: N_4  and  C_37
    5  A    between atoms: C_8  and  C_12
    6  A    between atoms: C_23  and  C_30
                            x       y       z     vdW  Elec       q    Type
                         _______ _______ _______ _____ _____    ______ ____

>  <TORSDO>
F 6

$$$$
=
 OpenBabel11112417263D

 37 43  0  0  1  0  0  0  0  0999 V2000
  193.6290  174.8130  142.9980 C   0  0  0  0  0  0  0  0  0  0  0  0
  190.7230  175.2120  145.1940 C   0  0  1  0  0  3  0  0  0  0  0  0
  187.5120  175.3050  143.7080 C   0  0  0  0  0  2  0  0  0  0  0  0
  193.0780  174.1490  145.0370 C   0  0  2  0  0  3  0  0  0  0  0  0
  189.9980  175.6810  143.9550 C   0  0  2  0  0  3  0  0  0  0  0  0
  191.5890  174.1020  144.7400 C   0  0  2  0  0  3  0  0  0  0  0  0
  188.5760  176.2980  144.1090 C   0  0  2  0  0  3  0  0  0  0  0  0
  193.1180  174.5410  146.5140 C   0  0  0  0  0  2  0  0  0  0  0  0
  191.3620  174.0730  143.2080 C   0  0  2  0  0  3  0  0  0  0  0  0
  194.3720  173.5200  142.6150 C   0  0  0  0  0  1  0  0  0  0  0  0
  190.4520  177.1310  146.7190 N   0  0  0  0  0  2  0  0  0  0  0  0
  192.5540  175.9330  146.7850 C   0  0  0  0  0  2  0  0  0  0  0  0
  192.3410  174.9450  142.5430 O   0  0  0  0  0  0  0  0  0  0  0  0
  187.7460  176.2860  141.4630 O   0  0  0  0  0  0  0  0  0  0  0  0
  187.0660  175.3620  142.2480 C   0  0  1  0  0  3  0  0  0  0  0  0
  191.4090  176.4140  145.8530 C   0  0  1  0  0  3  0  0  0  0  0  0
  190.0530  174.5120  143.0560 N   0  0  2  0  0  0  0  0  0  0  0  0
  193.7610  175.1440  144.3360 O   0  0  0  0  0  0  0  0  0  0  0  0
  188.3620  176.9860  145.4620 C   0  0  1  0  0  3  0  0  0  0  0  0
  194.4740  175.8020  142.2720 C   0  0  0  0  0  1  0  0  0  0  0  0
  188.2400  174.9800  141.3380 C   0  0  2  0  0  3  0  0  0  0  0  0
  189.7410  174.9110  141.6380 C   0  0  2  0  0  3  0  0  0  0  0  0
  189.5240  177.8660  145.8380 C   0  0  0  0  0  2  0  0  0  0  0  0
  186.0660  177.1040  146.4590 C   0  0  0  0  0  3  0  0  0  0  0  0
  187.0050  177.5490  145.4950 C   0  0  0  0  0  0  0  0  0  0  0  0
  186.6700  178.6330  144.6660 C   0  0  0  0  0  3  0  0  0  0  0  0
  185.1500  180.1920  143.9210 F   0  0  0  0  0  0  0  0  0  0  0  0
  184.4680  178.6960  145.6950 C   0  0  0  0  0  3  0  0  0  0  0  0
  185.4140  179.1730  144.7750 C   0  0  0  0  0  0  0  0  0  0  0  0
  184.7740  177.6820  146.5130 C   0  0  0  0  0  3  0  0  0  0  0  0
  190.5020  174.0360  140.6590 C   0  0  0  0  0  2  0  0  0  0  0  0
  189.7940  172.9600  139.9890 N   0  0  0  0  0  0  0  0  0  0  0  0
  188.3010  173.8130  137.9380 O   0  0  0  0  0  1  0  0  0  0  0  0
  189.4480  173.1070  138.4450 C   0  0  0  0  0  2  0  0  0  0  0  0
  190.8430  171.8350  140.2540 C   0  0  0  0  0  2  0  0  0  0  0  0
  190.4410  170.9710  141.5410 C   0  0  0  0  0  2  0  0  0  0  0  0
  191.6980  170.5200  142.1850 C   0  0  0  0  0  1  0  0  0  0  0  0
  1 18  1  0  0  0  0
  2 16  1  0  0  0  0
  3  7  1  0  0  0  0
  4  8  1  0  0  0  0
  5  7  1  0  0  0  0
  5  2  1  0  0  0  0
  6  4  1  0  0  0  0
  6  2  1  0  0  0  0
  7 19  1  0  0  0  0
  8 12  1  0  0  0  0
  9  6  1  0  0  0  0
 10  1  1  0  0  0  0
 13  1  1  0  0  0  0
 13  9  1  0  0  0  0
 14 15  1  0  0  0  0
 15  3  1  0  0  0  0
 16 11  1  0  0  0  0
 16 12  1  0  0  0  0
 17  9  1  0  0  0  0
 17  5  1  0  0  0  0
 18  4  1  0  0  0  0
 19 25  1  0  0  0  0
 19 23  1  0  0  0  0
 20  1  1  0  0  0  0
 21 14  1  0  0  0  0
 21 22  1  0  0  0  0
 21 15  1  0  0  0  0
 22 17  1  0  0  0  0
 23 11  1  0  0  0  0
 24 30  1  0  0  0  0
 25 24  2  0  0  0  0
 26 29  2  0  0  0  0
 26 25  1  0  0  0  0
 27 29  1  0  0  0  0
 28 30  2  0  0  0  0
 29 28  1  0  0  0  0
 31 22  1  0  0  0  0
 32 35  1  0  0  0  0
 32 31  1  0  0  0  0
 33 34  1  0  0  0  0
 34 32  1  0  0  0  0
 35 36  1  0  0  0  0
 36 37  1  0  0  0  0
M  END
>  <MODEL>
2

>  <REMARK>
 VINA RESULT:      -8.1      2.092      5.094
  Name = 
  6 active torsions:
  status: ('A' for Active; 'I' for Inactive)
    1  A    between atoms: C_1  and  N_4
    2  A    between atoms: C_1  and  C_27
    3  A    between atoms: N_4  and  C_12
    4  A    between atoms: N_4  and  C_37
    5  A    between atoms: C_8  and  C_12
    6  A    between atoms: C_23  and  C_30
                            x       y       z     vdW  Elec       q    Type
                         _______ _______ _______ _____ _____    ______ ____

>  <TORSDO>
F 6

$$$$
=
 OpenBabel11112417263D

 37 43  0  0  1  0  0  0  0  0999 V2000
  193.2600  172.4150  142.8600 C   0  0  0  0  0  0  0  0  0  0  0  0
  190.5080  174.1490  141.1690 C   0  0  1  0  0  3  0  0  0  0  0  0
  189.5560  177.3360  142.3770 C   0  0  0  0  0  2  0  0  0  0  0  0
  192.5210  172.5690  140.7780 C   0  0  2  0  0  3  0  0  0  0  0  0
  190.3870  174.9520  142.4430 C   0  0  2  0  0  3  0  0  0  0  0  0
  191.9610  173.9690  140.9610 C   0  0  2  0  0  3  0  0  0  0  0  0
  189.1620  175.8990  142.6170 C   0  0  2  0  0  3  0  0  0  0  0  0
  191.5610  171.9500  139.7610 C   0  0  0  0  0  2  0  0  0  0  0  0
  192.5880  174.6220  142.2180 C   0  0  2  0  0  3  0  0  0  0  0  0
  194.7530  172.3960  142.4880 C   0  0  0  0  0  1  0  0  0  0  0  0
  188.2520  173.1780  140.9450 N   0  0  0  0  0  2  0  0  0  0  0  0
  190.1350  171.8070  140.2860 C   0  0  0  0  0  2  0  0  0  0  0  0
  192.7410  173.6160  143.2790 O   0  0  0  0  0  0  0  0  0  0  0  0
  190.0010  177.3930  144.7970 O   0  0  0  0  0  0  0  0  0  0  0  0
  189.9770  178.1240  143.6150 C   0  0  1  0  0  3  0  0  0  0  0  0
  189.6550  172.8820  141.2980 C   0  0  1  0  0  3  0  0  0  0  0  0
  191.6930  175.6310  142.5520 N   0  0  2  0  0  0  0  0  0  0  0  0
  192.4550  171.7810  141.9280 O   0  0  0  0  0  0  0  0  0  0  0  0
  187.9180  175.4190  141.8590 C   0  0  1  0  0  3  0  0  0  0  0  0
  193.2880  171.4960  144.0320 C   0  0  0  0  0  1  0  0  0  0  0  0
  191.2610  177.5190  144.1960 C   0  0  2  0  0  3  0  0  0  0  0  0
  191.9110  176.1540  143.9470 C   0  0  2  0  0  3  0  0  0  0  0  0
  187.6690  173.9480  142.0600 C   0  0  0  0  0  2  0  0  0  0  0  0
  186.3180  176.5510  143.4190 C   0  0  0  0  0  3  0  0  0  0  0  0
  186.8220  176.3650  142.1070 C   0  0  0  0  0  0  0  0  0  0  0  0
  186.3610  177.1980  141.0730 C   0  0  0  0  0  3  0  0  0  0  0  0
  184.9630  178.8590  140.3110 F   0  0  0  0  0  0  0  0  0  0  0  0
  184.8470  178.2610  142.6520 C   0  0  0  0  0  3  0  0  0  0  0  0
  185.3830  178.1140  141.3630 C   0  0  0  0  0  0  0  0  0  0  0  0
  185.2900  177.4970  143.6570 C   0  0  0  0  0  3  0  0  0  0  0  0
  193.3860  176.1240  144.3030 C   0  0  0  0  0  2  0  0  0  0  0  0
  193.7650  175.9260  145.6900 N   0  0  0  0  0  0  0  0  0  0  0  0
  191.9060  175.1980  147.4730 O   0  0  0  0  0  1  0  0  0  0  0  0
  192.9690  174.8630  146.5630 C   0  0  0  0  0  2  0  0  0  0  0  0
  195.2410  175.4920  145.4340 C   0  0  0  0  0  2  0  0  0  0  0  0
  195.4340  173.9260  145.7090 C   0  0  0  0  0  2  0  0  0  0  0  0
  196.8540  173.7080  146.0710 C   0  0  0  0  0  1  0  0  0  0  0  0
  1 13  1  0  0  0  0
  1 20  1  0  0  0  0
  2 16  1  0  0  0  0
  2  5  1  0  0  0  0
  3  7  1  0  0  0  0
  3 15  1  0  0  0  0
  4  6  1  0  0  0  0
  4 18  1  0  0  0  0
  5 17  1  0  0  0  0
  5  7  1  0  0  0  0
  6  2  1  0  0  0  0
  6  9  1  0  0  0  0
  8 12  1  0  0  0  0
  8  4  1  0  0  0  0
  9 17  1  0  0  0  0
  9 13  1  0  0  0  0
 10  1  1  0  0  0  0
 11 16  1  0  0  0  0
 11 23  1  0  0  0  0
 12 16  1  0  0  0  0
 15 21  1  0  0  0  0
 15 14  1  0  0  0  0
 17 22  1  0  0  0  0
 18  1  1  0  0  0  0
 19 23  1  0  0  0  0
 19 25  1  0  0  0  0
 19  7  1  0  0  0  0
 21 14  1  0  0  0  0
 22 21  1  0  0  0  0
 22 31  1  0  0  0  0
 24 30  1  0  0  0  0
 25 24  2  0  0  0  0
 26 29  2  0  0  0  0
 26 25  1  0  0  0  0
 27 29  1  0  0  0  0
 28 30  2  0  0  0  0
 29 28  1  0  0  0  0
 31 32  1  0  0  0  0
 32 34  1  0  0  0  0
 34 33  1  0  0  0  0
 35 32  1  0  0  0  0
 35 36  1  0  0  0  0
 36 37  1  0  0  0  0
M  END
>  <MODEL>
3

>  <REMARK>
 VINA RESULT:      -7.8      1.972      2.366
  Name = 
  6 active torsions:
  status: ('A' for Active; 'I' for Inactive)
    1  A    between atoms: C_1  and  N_4
    2  A    between atoms: C_1  and  C_27
    3  A    between atoms: N_4  and  C_12
    4  A    between atoms: N_4  and  C_37
    5  A    between atoms: C_8  and  C_12
    6  A    between atoms: C_23  and  C_30
                            x       y       z     vdW  Elec       q    Type
                         _______ _______ _______ _____ _____    ______ ____

>  <TORSDO>
F 6

$$$$
=
 OpenBabel11112417263D

 37 43  0  0  1  0  0  0  0  0999 V2000
  187.9460  176.6140  142.0320 C   0  0  0  0  0  0  0  0  0  0  0  0
  190.3630  173.9970  142.8960 C   0  0  1  0  0  3  0  0  0  0  0  0
  192.0790  174.2690  145.9800 C   0  0  0  0  0  2  0  0  0  0  0  0
  188.1050  174.4300  141.7070 C   0  0  2  0  0  3  0  0  0  0  0  0
  190.9460  175.0150  143.8490 C   0  0  2  0  0  3  0  0  0  0  0  0
  188.8980  174.1850  142.9790 C   0  0  2  0  0  3  0  0  0  0  0  0
  192.3010  174.6940  144.5480 C   0  0  2  0  0  3  0  0  0  0  0  0
  188.6450  173.3600  140.7580 C   0  0  0  0  0  2  0  0  0  0  0  0
  188.7440  175.3970  143.9320 C   0  0  2  0  0  3  0  0  0  0  0  0
  186.4230  176.6230  142.2520 C   0  0  0  0  0  1  0  0  0  0  0  0
  192.2980  173.4410  141.4730 N   0  0  0  0  0  2  0  0  0  0  0  0
  190.1220  173.5450  140.4190 C   0  0  0  0  0  2  0  0  0  0  0  0
  188.7350  176.6440  143.1560 O   0  0  0  0  0  0  0  0  0  0  0  0
  192.3240  176.6620  146.5010 O   0  0  0  0  0  0  0  0  0  0  0  0
  192.1360  175.3860  147.0190 C   0  0  1  0  0  3  0  0  0  0  0  0
  191.0170  174.1730  141.5210 C   0  0  1  0  0  3  0  0  0  0  0  0
  189.8380  175.2940  144.7830 N   0  0  2  0  0  0  0  0  0  0  0  0
  188.3610  175.6660  141.1120 O   0  0  0  0  0  0  0  0  0  0  0  0
  193.2040  173.7740  143.7170 C   0  0  1  0  0  3  0  0  0  0  0  0
  188.0990  177.9200  141.3320 C   0  0  0  0  0  1  0  0  0  0  0  0
  190.9820  176.3670  146.7800 C   0  0  2  0  0  3  0  0  0  0  0  0
  190.0900  176.5640  145.5500 C   0  0  2  0  0  3  0  0  0  0  0  0
  193.2730  174.2030  142.2760 C   0  0  0  0  0  2  0  0  0  0  0  0
  195.2840  174.6500  144.8050 C   0  0  0  0  0  3  0  0  0  0  0  0
  194.4560  173.5540  144.4530 C   0  0  0  0  0  0  0  0  0  0  0  0
  194.7740  172.2750  144.9400 C   0  0  0  0  0  3  0  0  0  0  0  0
  196.1800  170.8590  146.0880 F   0  0  0  0  0  0  0  0  0  0  0  0
  196.7650  173.2040  145.9830 C   0  0  0  0  0  3  0  0  0  0  0  0
  195.9190  172.1260  145.6800 C   0  0  0  0  0  0  0  0  0  0  0  0
  196.4680  174.4360  145.5520 C   0  0  0  0  0  3  0  0  0  0  0  0
  188.7810  177.2620  145.8710 C   0  0  0  0  0  2  0  0  0  0  0  0
  188.3310  177.3000  147.2510 N   0  0  0  0  0  0  0  0  0  0  0  0
  186.9830  179.1820  148.5930 O   0  0  0  0  0  1  0  0  0  0  0  0
  188.1930  178.7050  147.9790 C   0  0  0  0  0  2  0  0  0  0  0  0
  186.9480  176.6120  147.0290 C   0  0  0  0  0  2  0  0  0  0  0  0
  186.1630  177.2880  145.8070 C   0  0  0  0  0  2  0  0  0  0  0  0
  184.7580  177.4860  146.2360 C   0  0  0  0  0  1  0  0  0  0  0  0
  1 10  1  0  0  0  0
  1 13  1  0  0  0  0
  2  6  1  0  0  0  0
  2  5  1  0  0  0  0
  3 15  1  0  0  0  0
  4  6  1  0  0  0  0
  5  7  1  0  0  0  0
  5 17  1  0  0  0  0
  6  9  1  0  0  0  0
  7  3  1  0  0  0  0
  8  4  1  0  0  0  0
  9 17  1  0  0  0  0
 11 16  1  0  0  0  0
 11 23  1  0  0  0  0
 12  8  1  0  0  0  0
 12 16  1  0  0  0  0
 13  9  1  0  0  0  0
 14 21  1  0  0  0  0
 14 15  1  0  0  0  0
 16  2  1  0  0  0  0
 17 22  1  0  0  0  0
 18  4  1  0  0  0  0
 18  1  1  0  0  0  0
 19 25  1  0  0  0  0
 19  7  1  0  0  0  0
 20  1  1  0  0  0  0
 21 15  1  0  0  0  0
 22 31  1  0  0  0  0
 22 21  1  0  0  0  0
 23 19  1  0  0  0  0
 24 30  1  0  0  0  0
 25 24  2  0  0  0  0
 25 26  1  0  0  0  0
 26 29  2  0  0  0  0
 29 28  1  0  0  0  0
 29 27  1  0  0  0  0
 30 28  2  0  0  0  0
 31 32  1  0  0  0  0
 32 34  1  0  0  0  0
 34 33  1  0  0  0  0
 35 32  1  0  0  0  0
 36 37  1  0  0  0  0
 36 35  1  0  0  0  0
M  END
>  <MODEL>
4

>  <REMARK>
 VINA RESULT:      -7.7      3.067      7.161
  Name = 
  6 active torsions:
  status: ('A' for Active; 'I' for Inactive)
    1  A    between atoms: C_1  and  N_4
    2  A    between atoms: C_1  and  C_27
    3  A    between atoms: N_4  and  C_12
    4  A    between atoms: N_4  and  C_37
    5  A    between atoms: C_8  and  C_12
    6  A    between atoms: C_23  and  C_30
                            x       y       z     vdW  Elec       q    Type
                         _______ _______ _______ _____ _____    ______ ____

>  <TORSDO>
F 6

$$$$
=
 OpenBabel11112417263D

 37 43  0  0  1  0  0  0  0  0999 V2000
  195.0040  174.2640  142.1620 C   0  0  0  0  0  0  0  0  0  0  0  0
  192.4040  174.5770  144.7260 C   0  0  1  0  0  3  0  0  0  0  0  0
  189.0210  174.3900  143.7000 C   0  0  0  0  0  2  0  0  0  0  0  0
  194.7840  173.6640  144.2820 C   0  0  2  0  0  3  0  0  0  0  0  0
  191.4840  174.9380  143.5830 C   0  0  2  0  0  3  0  0  0  0  0  0
  193.2760  173.5060  144.1980 C   0  0  2  0  0  3  0  0  0  0  0  0
  190.0560  175.4690  143.9100 C   0  0  2  0  0  3  0  0  0  0  0  0
  194.9980  174.1270  145.7230 C   0  0  0  0  0  2  0  0  0  0  0  0
  192.8450  173.3890  142.7140 C   0  0  2  0  0  3  0  0  0  0  0  0
  195.7760  173.0060  141.7280 C   0  0  0  0  0  1  0  0  0  0  0  0
  192.2080  176.5450  146.1990 N   0  0  0  0  0  2  0  0  0  0  0  0
  194.3790  175.4910  146.0160 C   0  0  0  0  0  2  0  0  0  0  0  0
  193.6580  174.2910  141.8860 O   0  0  0  0  0  0  0  0  0  0  0  0
  188.8760  175.2760  141.4080 O   0  0  0  0  0  0  0  0  0  0  0  0
  188.3770  174.3490  142.3160 C   0  0  1  0  0  3  0  0  0  0  0  0
  193.0860  175.8510  145.2360 C   0  0  1  0  0  3  0  0  0  0  0  0
  191.4990  173.7340  142.7300 N   0  0  2  0  0  0  0  0  0  0  0  0
  195.2930  174.6670  143.4550 O   0  0  0  0  0  0  0  0  0  0  0  0
  189.9810  176.2050  145.2530 C   0  0  1  0  0  3  0  0  0  0  0  0
  195.6690  175.2710  141.2880 C   0  0  0  0  0  1  0  0  0  0  0  0
  189.4400  174.0010  141.2660 C   0  0  2  0  0  3  0  0  0  0  0  0
  190.9690  174.0440  141.3550 C   0  0  2  0  0  3  0  0  0  0  0  0
  191.1180  177.1750  145.4290 C   0  0  0  0  0  2  0  0  0  0  0  0
  187.8470  176.2330  146.5650 C   0  0  0  0  0  3  0  0  0  0  0  0
  188.6050  176.6790  145.4530 C   0  0  0  0  0  0  0  0  0  0  0  0
  188.0780  177.6870  144.6270 C   0  0  0  0  0  3  0  0  0  0  0  0
  186.3580  179.0950  144.0330 F   0  0  0  0  0  0  0  0  0  0  0  0
  186.0440  177.6680  145.9600 C   0  0  0  0  0  3  0  0  0  0  0  0
  186.8140  178.1490  144.8900 C   0  0  0  0  0  0  0  0  0  0  0  0
  186.5360  176.7270  146.7750 C   0  0  0  0  0  3  0  0  0  0  0  0
  191.6490  173.1740  140.3140 C   0  0  0  0  0  2  0  0  0  0  0  0
  190.8780  172.1280  139.6670 N   0  0  0  0  0  0  0  0  0  0  0  0
  192.0490  172.2730  137.2650 O   0  0  0  0  0  1  0  0  0  0  0  0
  190.8900  172.0280  138.0810 C   0  0  0  0  0  2  0  0  0  0  0  0
  191.5870  170.9120  140.3410 C   0  0  0  0  0  2  0  0  0  0  0  0
  190.7240  170.3560  141.5700 C   0  0  0  0  0  2  0  0  0  0  0  0
  190.8910  168.8830  141.6030 C   0  0  0  0  0  1  0  0  0  0  0  0
  1 18  1  0  0  0  0
  2 16  1  0  0  0  0
  3  7  1  0  0  0  0
  4  8  1  0  0  0  0
  5  7  1  0  0  0  0
  5  2  1  0  0  0  0
  6  4  1  0  0  0  0
  6  2  1  0  0  0  0
  7 19  1  0  0  0  0
  8 12  1  0  0  0  0
  9 17  1  0  0  0  0
  9  6  1  0  0  0  0
 10  1  1  0  0  0  0
 13  1  1  0  0  0  0
 13  9  1  0  0  0  0
 14 15  1  0  0  0  0
 15  3  1  0  0  0  0
 16 12  1  0  0  0  0
 16 11  1  0  0  0  0
 17  5  1  0  0  0  0
 18  4  1  0  0  0  0
 19 23  1  0  0  0  0
 19 25  1  0  0  0  0
 20  1  1  0  0  0  0
 21 22  1  0  0  0  0
 21 14  1  0  0  0  0
 21 15  1  0  0  0  0
 22 17  1  0  0  0  0
 23 11  1  0  0  0  0
 24 30  1  0  0  0  0
 25 24  2  0  0  0  0
 26 29  2  0  0  0  0
 26 25  1  0  0  0  0
 27 29  1  0  0  0  0
 28 30  2  0  0  0  0
 29 28  1  0  0  0  0
 31 22  1  0  0  0  0
 32 31  1  0  0  0  0
 32 35  1  0  0  0  0
 33 34  1  0  0  0  0
 34 32  1  0  0  0  0
 35 36  1  0  0  0  0
 36 37  1  0  0  0  0
M  END
>  <MODEL>
5

>  <REMARK>
 VINA RESULT:      -7.5      2.340      5.390
  Name = 
  6 active torsions:
  status: ('A' for Active; 'I' for Inactive)
    1  A    between atoms: C_1  and  N_4
    2  A    between atoms: C_1  and  C_27
    3  A    between atoms: N_4  and  C_12
    4  A    between atoms: N_4  and  C_37
    5  A    between atoms: C_8  and  C_12
    6  A    between atoms: C_23  and  C_30
                            x       y       z     vdW  Elec       q    Type
                         _______ _______ _______ _____ _____    ______ ____

>  <TORSDO>
F 6

$$$$
=
 OpenBabel11112417263D

 37 43  0  0  1  0  0  0  0  0999 V2000
  189.2830  176.1860  145.9310 C   0  0  0  0  0  0  0  0  0  0  0  0
  191.7380  174.5350  143.7670 C   0  0  1  0  0  3  0  0  0  0  0  0
  190.7180  173.5850  140.5140 C   0  0  0  0  0  2  0  0  0  0  0  0
  191.4680  176.3340  145.6080 C   0  0  2  0  0  3  0  0  0  0  0  0
  190.5420  174.0290  142.9940 C   0  0  2  0  0  3  0  0  0  0  0  0
  191.3950  175.9220  144.1480 C   0  0  2  0  0  3  0  0  0  0  0  0
  190.7670  172.9570  141.8860 C   0  0  2  0  0  3  0  0  0  0  0  0
  192.8210  175.7740  146.0510 C   0  0  0  0  0  2  0  0  0  0  0  0
  189.9430  176.0880  143.6320 C   0  0  2  0  0  3  0  0  0  0  0  0
  189.0620  177.6920  146.1540 C   0  0  0  0  0  1  0  0  0  0  0  0
  192.8800  172.4410  144.3950 N   0  0  0  0  0  2  0  0  0  0  0  0
  192.8890  174.2510  146.0020 C   0  0  0  0  0  2  0  0  0  0  0  0
  188.9920  175.6960  144.6810 O   0  0  0  0  0  0  0  0  0  0  0  0
  188.3140  173.0630  140.5960 O   0  0  0  0  0  0  0  0  0  0  0  0
  189.3510  173.5870  139.8330 C   0  0  1  0  0  3  0  0  0  0  0  0
  192.0480  173.5510  144.9010 C   0  0  1  0  0  3  0  0  0  0  0  0
  189.8900  175.2640  142.5150 N   0  0  2  0  0  0  0  0  0  0  0  0
  190.4990  175.7330  146.4140 O   0  0  0  0  0  0  0  0  0  0  0  0
  191.9760  172.0550  142.1580 C   0  0  1  0  0  3  0  0  0  0  0  0
  188.2690  175.6470  146.8790 C   0  0  0  0  0  1  0  0  0  0  0  0
  188.3810  174.4630  140.6350 C   0  0  2  0  0  3  0  0  0  0  0  0
  188.4780  174.9870  142.0710 C   0  0  2  0  0  3  0  0  0  0  0  0
  192.0090  171.5700  143.5830 C   0  0  0  0  0  2  0  0  0  0  0  0
  193.2770  170.9710  140.3120 C   0  0  0  0  0  3  0  0  0  0  0  0
  192.0840  171.0720  141.0710 C   0  0  0  0  0  0  0  0  0  0  0  0
  191.0620  170.1290  140.8670 C   0  0  0  0  0  3  0  0  0  0  0  0
  190.1930  168.3320  139.7230 F   0  0  0  0  0  0  0  0  0  0  0  0
  192.3930  169.1210  139.0990 C   0  0  0  0  0  3  0  0  0  0  0  0
  191.2320  169.1870  139.8860 C   0  0  0  0  0  0  0  0  0  0  0  0
  193.3900  169.9920  139.2940 C   0  0  0  0  0  3  0  0  0  0  0  0
  187.5940  176.1940  142.3250 C   0  0  0  0  0  2  0  0  0  0  0  0
  187.6210  177.2910  141.3730 N   0  0  0  0  0  0  0  0  0  0  0  0
  185.3720  178.2590  140.2940 O   0  0  0  0  0  1  0  0  0  0  0  0
  186.4990  177.3660  140.2510 C   0  0  0  0  0  2  0  0  0  0  0  0
  187.5040  178.4540  142.4060 C   0  0  0  0  0  2  0  0  0  0  0  0
  186.4880  178.0730  143.5840 C   0  0  0  0  0  2  0  0  0  0  0  0
  185.7090  179.2900  143.9130 C   0  0  0  0  0  1  0  0  0  0  0  0
  1 10  1  0  0  0  0
  1 18  1  0  0  0  0
  1 20  1  0  0  0  0
  2  6  1  0  0  0  0
  2 16  1  0  0  0  0
  3  7  1  0  0  0  0
  4  8  1  0  0  0  0
  4 18  1  0  0  0  0
  5  2  1  0  0  0  0
  6  4  1  0  0  0  0
  7 19  1  0  0  0  0
  7  5  1  0  0  0  0
  9  6  1  0  0  0  0
  9 13  1  0  0  0  0
 11 16  1  0  0  0  0
 12  8  1  0  0  0  0
 13  1  1  0  0  0  0
 14 21  1  0  0  0  0
 15  3  1  0  0  0  0
 15 14  1  0  0  0  0
 15 21  1  0  0  0  0
 16 12  1  0  0  0  0
 17  5  1  0  0  0  0
 17  9  1  0  0  0  0
 19 23  1  0  0  0  0
 21 22  1  0  0  0  0
 22 31  1  0  0  0  0
 22 17  1  0  0  0  0
 23 11  1  0  0  0  0
 24 25  1  0  0  0  0
 25 19  1  0  0  0  0
 26 25  2  0  0  0  0
 27 29  1  0  0  0  0
 28 30  1  0  0  0  0
 28 29  2  0  0  0  0
 29 26  1  0  0  0  0
 30 24  2  0  0  0  0
 32 31  1  0  0  0  0
 32 35  1  0  0  0  0
 34 33  1  0  0  0  0
 34 32  1  0  0  0  0
 35 36  1  0  0  0  0
 36 37  1  0  0  0  0
M  END
>  <MODEL>
6

>  <REMARK>
 VINA RESULT:      -7.4      3.260      7.981
  Name = 
  6 active torsions:
  status: ('A' for Active; 'I' for Inactive)
    1  A    between atoms: C_1  and  N_4
    2  A    between atoms: C_1  and  C_27
    3  A    between atoms: N_4  and  C_12
    4  A    between atoms: N_4  and  C_37
    5  A    between atoms: C_8  and  C_12
    6  A    between atoms: C_23  and  C_30
                            x       y       z     vdW  Elec       q    Type
                         _______ _______ _______ _____ _____    ______ ____

>  <TORSDO>
F 6

$$$$
=
 OpenBabel11112417263D

 37 43  0  0  1  0  0  0  0  0999 V2000
  194.4520  174.6520  142.1150 C   0  0  0  0  0  0  0  0  0  0  0  0
  191.6690  175.1330  144.4520 C   0  0  1  0  0  3  0  0  0  0  0  0
  188.3750  174.7050  143.2290 C   0  0  0  0  0  2  0  0  0  0  0  0
  194.1030  174.2720  144.2680 C   0  0  2  0  0  3  0  0  0  0  0  0
  190.8210  175.3350  143.2180 C   0  0  2  0  0  3  0  0  0  0  0  0
  192.6100  174.0470  144.1020 C   0  0  2  0  0  3  0  0  0  0  0  0
  189.3580  175.8400  143.3890 C   0  0  2  0  0  3  0  0  0  0  0  0
  194.2000  174.8940  145.6620 C   0  0  0  0  0  2  0  0  0  0  0  0
  192.2880  173.7570  142.6150 C   0  0  2  0  0  3  0  0  0  0  0  0
  195.2930  173.3860  141.8730 C   0  0  0  0  0  1  0  0  0  0  0  0
  191.3070  177.2370  145.6860 N   0  0  0  0  0  2  0  0  0  0  0  0
  193.5180  176.2560  145.7630 C   0  0  0  0  0  2  0  0  0  0  0  0
  193.1290  174.5960  141.7500 O   0  0  0  0  0  0  0  0  0  0  0  0
  188.3630  175.3370  140.8500 O   0  0  0  0  0  0  0  0  0  0  0  0
  187.8320  174.4920  141.8180 C   0  0  1  0  0  3  0  0  0  0  0  0
  192.2730  176.4800  144.8650 C   0  0  1  0  0  3  0  0  0  0  0  0
  190.9340  174.0480  142.5030 N   0  0  2  0  0  0  0  0  0  0  0  0
  194.6370  175.2010  143.3730 O   0  0  0  0  0  0  0  0  0  0  0  0
  189.1650  176.7110  144.6370 C   0  0  1  0  0  3  0  0  0  0  0  0
  195.1440  175.5860  141.1830 C   0  0  0  0  0  1  0  0  0  0  0  0
  188.9760  174.0770  140.8860 C   0  0  2  0  0  3  0  0  0  0  0  0
  190.4930  174.1890  141.0710 C   0  0  2  0  0  3  0  0  0  0  0  0
  190.2550  177.7380  144.7810 C   0  0  0  0  0  2  0  0  0  0  0  0
  187.2330  177.9860  143.6760 C   0  0  0  0  0  3  0  0  0  0  0  0
  187.7640  177.1500  144.6920 C   0  0  0  0  0  0  0  0  0  0  0  0
  186.8990  176.6320  145.6700 C   0  0  0  0  0  3  0  0  0  0  0  0
  184.8150  176.5040  146.6390 F   0  0  0  0  0  0  0  0  0  0  0  0
  185.0710  177.8850  144.6700 C   0  0  0  0  0  3  0  0  0  0  0  0
  185.5830  177.0160  145.6450 C   0  0  0  0  0  0  0  0  0  0  0  0
  185.8710  178.3700  143.7120 C   0  0  0  0  0  3  0  0  0  0  0  0
  191.2720  173.2410  140.1770 C   0  0  0  0  0  2  0  0  0  0  0  0
  191.3890  173.5530  138.7640 N   0  0  0  0  0  0  0  0  0  0  0  0
  193.1340  175.1510  137.5140 O   0  0  0  0  0  1  0  0  0  0  0  0
  192.8180  173.9090  138.1680 C   0  0  0  0  0  2  0  0  0  0  0  0
  190.8410  172.1990  138.2160 C   0  0  0  0  0  2  0  0  0  0  0  0
  190.9030  172.1630  136.6160 C   0  0  0  0  0  2  0  0  0  0  0  0
  189.5890  171.6790  136.1290 C   0  0  0  0  0  1  0  0  0  0  0  0
  1 18  1  0  0  0  0
  2 16  1  0  0  0  0
  3  7  1  0  0  0  0
  4  8  1  0  0  0  0
  5  7  1  0  0  0  0
  5  2  1  0  0  0  0
  6  4  1  0  0  0  0
  6  2  1  0  0  0  0
  7 19  1  0  0  0  0
  8 12  1  0  0  0  0
  9  6  1  0  0  0  0
 10  1  1  0  0  0  0
 13  1  1  0  0  0  0
 13  9  1  0  0  0  0
 14 21  1  0  0  0  0
 14 15  1  0  0  0  0
 15  3  1  0  0  0  0
 16 11  1  0  0  0  0
 16 12  1  0  0  0  0
 17  9  1  0  0  0  0
 17  5  1  0  0  0  0
 18  4  1  0  0  0  0
 19 25  1  0  0  0  0
 19 23  1  0  0  0  0
 20  1  1  0  0  0  0
 21 22  1  0  0  0  0
 21 15  1  0  0  0  0
 22 17  1  0  0  0  0
 23 11  1  0  0  0  0
 24 30  2  0  0  0  0
 24 25  1  0  0  0  0
 25 26  2  0  0  0  0
 28 29  2  0  0  0  0
 29 26  1  0  0  0  0
 29 27  1  0  0  0  0
 30 28  1  0  0  0  0
 31 22  1  0  0  0  0
 32 31  1  0  0  0  0
 33 34  1  0  0  0  0
 34 32  1  0  0  0  0
 35 32  1  0  0  0  0
 36 35  1  0  0  0  0
 37 36  1  0  0  0  0
M  END
>  <MODEL>
7

>  <REMARK>
 VINA RESULT:      -7.3      2.364      5.372
  Name = 
  6 active torsions:
  status: ('A' for Active; 'I' for Inactive)
    1  A    between atoms: C_1  and  N_4
    2  A    between atoms: C_1  and  C_27
    3  A    between atoms: N_4  and  C_12
    4  A    between atoms: N_4  and  C_37
    5  A    between atoms: C_8  and  C_12
    6  A    between atoms: C_23  and  C_30
                            x       y       z     vdW  Elec       q    Type
                         _______ _______ _______ _____ _____    ______ ____

>  <TORSDO>
F 6

$$$$
=
 OpenBabel11112417263D

 37 43  0  0  1  0  0  0  0  0999 V2000
  191.9120  172.0060  142.0610 C   0  0  0  0  0  0  0  0  0  0  0  0
  189.7340  174.9460  141.8410 C   0  0  1  0  0  3  0  0  0  0  0  0
  189.9250  177.3580  144.4240 C   0  0  0  0  0  2  0  0  0  0  0  0
  191.1120  173.2700  140.4290 C   0  0  2  0  0  3  0  0  0  0  0  0
  189.9640  175.0820  143.3270 C   0  0  2  0  0  3  0  0  0  0  0  0
  191.0370  174.5230  141.2840 C   0  0  2  0  0  3  0  0  0  0  0  0
  189.1160  176.1190  144.1240 C   0  0  2  0  0  3  0  0  0  0  0  0
  189.9350  173.4440  139.4680 C   0  0  0  0  0  2  0  0  0  0  0  0
  191.9270  174.3520  142.5410 C   0  0  2  0  0  3  0  0  0  0  0  0
  193.2920  171.7850  141.4170 C   0  0  0  0  0  1  0  0  0  0  0  0
  187.2770  174.7830  141.7030 N   0  0  0  0  0  2  0  0  0  0  0  0
  188.5790  173.4400  140.1670 C   0  0  0  0  0  2  0  0  0  0  0  0
  191.8300  172.9710  143.0350 O   0  0  0  0  0  0  0  0  0  0  0  0
  190.5380  176.1920  146.5030 O   0  0  0  0  0  0  0  0  0  0  0  0
  190.6610  177.3610  145.7620 C   0  0  1  0  0  3  0  0  0  0  0  0
  188.5360  174.0180  141.6070 C   0  0  1  0  0  3  0  0  0  0  0  0
  191.4220  175.2860  143.4370 N   0  0  2  0  0  0  0  0  0  0  0  0
  190.8830  172.0890  141.1380 O   0  0  0  0  0  0  0  0  0  0  0  0
  187.7330  176.3640  143.5090 C   0  0  1  0  0  3  0  0  0  0  0  0
  191.7340  170.6800  142.7160 C   0  0  0  0  0  1  0  0  0  0  0  0
  191.7270  176.2590  145.7630 C   0  0  2  0  0  3  0  0  0  0  0  0
  191.8930  175.0430  144.8460 C   0  0  2  0  0  3  0  0  0  0  0  0
  187.0480  175.0790  143.1310 C   0  0  0  0  0  2  0  0  0  0  0  0
  186.4600  178.5070  143.7670 C   0  0  0  0  0  3  0  0  0  0  0  0
  187.0130  177.3350  144.3440 C   0  0  0  0  0  0  0  0  0  0  0  0
  186.7400  177.0430  145.6910 C   0  0  0  0  0  3  0  0  0  0  0  0
  185.8110  177.6150  147.7170 F   0  0  0  0  0  0  0  0  0  0  0  0
  185.5040  179.1310  145.8580 C   0  0  0  0  0  3  0  0  0  0  0  0
  186.0060  177.9450  146.4170 C   0  0  0  0  0  0  0  0  0  0  0  0
  185.7300  179.4170  144.5700 C   0  0  0  0  0  3  0  0  0  0  0  0
  193.3050  174.4870  144.8470 C   0  0  0  0  0  2  0  0  0  0  0  0
  194.3970  175.3560  145.2470 N   0  0  0  0  0  0  0  0  0  0  0  0
  196.2210  173.4920  145.8500 O   0  0  0  0  0  1  0  0  0  0  0  0
  195.5840  174.7540  146.1160 C   0  0  0  0  0  2  0  0  0  0  0  0
  194.8620  175.7640  143.8150 C   0  0  0  0  0  2  0  0  0  0  0  0
  196.0980  176.7800  143.8830 C   0  0  0  0  0  2  0  0  0  0  0  0
  197.0560  176.3890  142.8220 C   0  0  0  0  0  1  0  0  0  0  0  0
  1 20  1  0  0  0  0
  1 13  1  0  0  0  0
  2  5  1  0  0  0  0
  3 15  1  0  0  0  0
  4 18  1  0  0  0  0
  4  6  1  0  0  0  0
  5 17  1  0  0  0  0
  5  7  1  0  0  0  0
  6  2  1  0  0  0  0
  6  9  1  0  0  0  0
  7  3  1  0  0  0  0
  8 12  1  0  0  0  0
  8  4  1  0  0  0  0
  9 13  1  0  0  0  0
  9 17  1  0  0  0  0
 10  1  1  0  0  0  0
 11 23  1  0  0  0  0
 12 16  1  0  0  0  0
 15 21  1  0  0  0  0
 15 14  1  0  0  0  0
 16 11  1  0  0  0  0
 16  2  1  0  0  0  0
 17 22  1  0  0  0  0
 18  1  1  0  0  0  0
 19  7  1  0  0  0  0
 19 25  1  0  0  0  0
 21 14  1  0  0  0  0
 22 31  1  0  0  0  0
 22 21  1  0  0  0  0
 23 19  1  0  0  0  0
 24 25  2  0  0  0  0
 24 30  1  0  0  0  0
 25 26  1  0  0  0  0
 26 29  2  0  0  0  0
 28 29  1  0  0  0  0
 29 27  1  0  0  0  0
 30 28  2  0  0  0  0
 31 32  1  0  0  0  0
 32 34  1  0  0  0  0
 33 34  1  0  0  0  0
 35 36  1  0  0  0  0
 35 32  1  0  0  0  0
 37 36  1  0  0  0  0
M  END
>  <MODEL>
8

>  <REMARK>
 VINA RESULT:      -7.3      1.439      1.578
  Name = 
  6 active torsions:
  status: ('A' for Active; 'I' for Inactive)
    1  A    between atoms: C_1  and  N_4
    2  A    between atoms: C_1  and  C_27
    3  A    between atoms: N_4  and  C_12
    4  A    between atoms: N_4  and  C_37
    5  A    between atoms: C_8  and  C_12
    6  A    between atoms: C_23  and  C_30
                            x       y       z     vdW  Elec       q    Type
                         _______ _______ _______ _____ _____    ______ ____

>  <TORSDO>
F 6

$$$$
=
 OpenBabel11112417263D

 37 43  0  0  1  0  0  0  0  0999 V2000
  193.5530  173.7180  141.9270 C   0  0  0  0  0  0  0  0  0  0  0  0
  191.0790  174.4470  144.5300 C   0  0  1  0  0  3  0  0  0  0  0  0
  187.7620  175.1620  143.5220 C   0  0  0  0  0  2  0  0  0  0  0  0
  193.1730  173.0240  143.9950 C   0  0  2  0  0  3  0  0  0  0  0  0
  190.2860  175.1080  143.4270 C   0  0  2  0  0  3  0  0  0  0  0  0
  191.6720  173.2410  143.9120 C   0  0  2  0  0  3  0  0  0  0  0  0
  189.0250  175.9400  143.8070 C   0  0  2  0  0  3  0  0  0  0  0  0
  193.4770  173.3080  145.4660 C   0  0  0  0  0  2  0  0  0  0  0  0
  191.2420  173.3490  142.4280 C   0  0  2  0  0  3  0  0  0  0  0  0
  194.0040  172.3480  141.3890 C   0  0  0  0  0  1  0  0  0  0  0  0
  191.3480  176.2820  146.1550 N   0  0  0  0  0  2  0  0  0  0  0  0
  193.2020  174.7530  145.8710 C   0  0  0  0  0  2  0  0  0  0  0  0
  192.2570  174.0890  141.6660 O   0  0  0  0  0  0  0  0  0  0  0  0
  187.8590  176.2340  141.3090 O   0  0  0  0  0  0  0  0  0  0  0  0
  187.1420  175.3860  142.1450 C   0  0  1  0  0  3  0  0  0  0  0  0
  192.0430  175.4750  145.1330 C   0  0  1  0  0  3  0  0  0  0  0  0
  190.0180  174.0060  142.4820 N   0  0  2  0  0  0  0  0  0  0  0  0
  193.9180  173.9360  143.2450 O   0  0  0  0  0  0  0  0  0  0  0  0
  189.1150  176.5640  145.2050 C   0  0  1  0  0  3  0  0  0  0  0  0
  194.4510  174.5990  141.1290 C   0  0  0  0  0  1  0  0  0  0  0  0
  188.1000  174.8760  141.0620 C   0  0  2  0  0  3  0  0  0  0  0  0
  189.5930  174.5410  141.1410 C   0  0  2  0  0  3  0  0  0  0  0  0
  190.4510  177.2150  145.4460 C   0  0  0  0  0  2  0  0  0  0  0  0
  187.3840  178.2160  144.4600 C   0  0  0  0  0  3  0  0  0  0  0  0
  187.8920  177.3400  145.4530 C   0  0  0  0  0  0  0  0  0  0  0  0
  187.1360  177.1150  146.6160 C   0  0  0  0  0  3  0  0  0  0  0  0
  185.3080  177.5690  147.9370 F   0  0  0  0  0  0  0  0  0  0  0  0
  185.4910  178.7180  145.8170 C   0  0  0  0  0  3  0  0  0  0  0  0
  185.9660  177.8110  146.7770 C   0  0  0  0  0  0  0  0  0  0  0  0
  186.1820  178.9290  144.6890 C   0  0  0  0  0  3  0  0  0  0  0  0
  190.0550  173.6180  140.0280 C   0  0  0  0  0  2  0  0  0  0  0  0
  189.1160  173.2680  138.9780 N   0  0  0  0  0  0  0  0  0  0  0  0
  190.5150  173.2400  136.6970 O   0  0  0  0  0  1  0  0  0  0  0  0
  189.4180  173.7290  137.4870 C   0  0  0  0  0  2  0  0  0  0  0  0
  189.1980  171.7180  139.1440 C   0  0  0  0  0  2  0  0  0  0  0  0
  190.6950  171.2580  139.4780 C   0  0  0  0  0  2  0  0  0  0  0  0
  190.8020  169.8160  139.1520 C   0  0  0  0  0  1  0  0  0  0  0  0
  1 18  1  0  0  0  0
  2 16  1  0  0  0  0
  3  7  1  0  0  0  0
  4  8  1  0  0  0  0
  5  7  1  0  0  0  0
  5  2  1  0  0  0  0
  6  4  1  0  0  0  0
  6  2  1  0  0  0  0
  7 19  1  0  0  0  0
  8 12  1  0  0  0  0
  9 17  1  0  0  0  0
  9  6  1  0  0  0  0
 10  1  1  0  0  0  0
 13  1  1  0  0  0  0
 13  9  1  0  0  0  0
 14 15  1  0  0  0  0
 15  3  1  0  0  0  0
 16 12  1  0  0  0  0
 16 11  1  0  0  0  0
 17  5  1  0  0  0  0
 18  4  1  0  0  0  0
 19 23  1  0  0  0  0
 19 25  1  0  0  0  0
 20  1  1  0  0  0  0
 21 22  1  0  0  0  0
 21 14  1  0  0  0  0
 21 15  1  0  0  0  0
 22 17  1  0  0  0  0
 23 11  1  0  0  0  0
 24 30  2  0  0  0  0
 24 25  1  0  0  0  0
 25 26  2  0  0  0  0
 26 29  1  0  0  0  0
 28 29  2  0  0  0  0
 29 27  1  0  0  0  0
 30 28  1  0  0  0  0
 31 22  1  0  0  0  0
 32 35  1  0  0  0  0
 32 31  1  0  0  0  0
 33 34  1  0  0  0  0
 34 32  1  0  0  0  0
 35 36  1  0  0  0  0
 37 36  1  0  0  0  0
M  END
>  <MODEL>
9

>  <REMARK>
 VINA RESULT:      -7.2      2.172      5.273
  Name = 
  6 active torsions:
  status: ('A' for Active; 'I' for Inactive)
    1  A    between atoms: C_1  and  N_4
    2  A    between atoms: C_1  and  C_27
    3  A    between atoms: N_4  and  C_12
    4  A    between atoms: N_4  and  C_37
    5  A    between atoms: C_8  and  C_12
    6  A    between atoms: C_23  and  C_30
                            x       y       z     vdW  Elec       q    Type
                         _______ _______ _______ _____ _____    ______ ____

>  <TORSDO>
F 6

$$$$
