=
 OpenBabel11112417083D

 37 44  0  0  1  0  0  0  0  0999 V2000
  190.8120  173.7600  141.3970 O   0  0  0  0  0  0  0  0  0  0  0  0
  194.8350  174.2940  143.3230 C   0  0  0  0  0  0  0  0  0  0  0  0
  191.5380  175.9100  145.3110 C   0  0  0  0  0  0  0  0  0  0  0  0
  190.5700  173.7310  140.0140 C   0  0  2  0  0  3  0  0  0  0  0  0
  188.0020  175.6120  143.7840 O   0  0  0  0  0  0  0  0  0  0  0  0
  193.9210  175.4650  145.3080 C   0  0  0  0  0  0  0  0  0  0  0  0
  190.5180  175.8140  144.3450 C   0  0  0  0  0  0  0  0  0  0  0  0
  188.2280  173.2920  140.8720 C   0  0  0  0  0  0  0  0  0  0  0  0
  192.6830  175.4670  144.7080 C   0  0  0  0  0  0  0  0  0  0  0  0
  189.0520  176.3530  144.4300 C   0  0  2  0  0  3  0  0  0  0  0  0
  194.0230  175.9460  146.6190 C   0  0  0  0  0  3  0  0  0  0  0  0
  189.1790  173.1660  139.7130 C   0  0  0  0  0  2  0  0  0  0  0  0
  192.4960  175.1150  143.4420 N   0  0  0  0  0  0  0  0  0  0  0  0
  194.6620  172.8140  143.6130 C   0  0  0  0  0  1  0  0  0  0  0  0
  190.4310  176.9160  147.3930 C   0  0  0  0  0  2  0  0  0  0  0  0
  192.8630  176.4150  147.2750 C   0  0  0  0  0  3  0  0  0  0  0  0
  193.5990  174.7970  142.5330 C   0  0  0  0  0  2  0  0  0  0  0  0
  187.9040  174.6190  141.5050 C   0  0  1  0  0  3  0  0  0  0  0  0
  188.5240  174.6850  142.8820 C   0  0  1  0  0  3  0  0  0  0  0  0
  191.6070  176.4170  146.6270 C   0  0  0  0  0  0  0  0  0  0  0  0
  191.1930  175.3410  143.1720 C   0  0  0  0  0  0  0  0  0  0  0  0
  195.0150  175.0010  144.5670 O   0  0  0  0  0  0  0  0  0  0  0  0
  188.5650  176.7710  145.8250 C   0  0  1  0  0  3  0  0  0  0  0  0
  196.0700  174.4740  142.4670 C   0  0  0  0  0  1  0  0  0  0  0  0
  189.1240  175.5140  141.7560 C   0  0  1  0  0  3  0  0  0  0  0  0
  187.6720  172.2870  141.2850 O   0  0  0  0  0  0  0  0  0  0  0  0
  190.5990  175.0930  141.7920 C   0  0  2  0  0  3  0  0  0  0  0  0
  189.5090  177.7300  146.5190 C   0  0  0  0  0  2  0  0  0  0  0  0
  186.1840  176.8400  146.5910 C   0  0  0  0  0  3  0  0  0  0  0  0
  187.1910  177.3730  145.7790 C   0  0  0  0  0  0  0  0  0  0  0  0
  186.8990  178.4600  144.9380 C   0  0  0  0  0  3  0  0  0  0  0  0
  185.3330  180.0480  144.0980 F   0  0  0  0  0  0  0  0  0  0  0  0
  184.6090  178.4620  145.7240 C   0  0  0  0  0  3  0  0  0  0  0  0
  185.6110  179.0010  144.9110 C   0  0  0  0  0  0  0  0  0  0  0  0
  184.8960  177.3820  146.5640 C   0  0  0  0  0  3  0  0  0  0  0  0
  192.3480  172.0150  140.3210 C   0  0  0  0  0  1  0  0  0  0  0  0
  191.6190  172.8850  139.3160 C   0  0  0  0  0  2  0  0  0  0  0  0
  1 27  1  0  0  0  0
  2 14  1  0  0  0  0
  2 22  1  0  0  0  0
  3 20  1  0  0  0  0
  4 37  1  6  0  0  0
  4  1  1  0  0  0  0
  6 11  2  0  0  0  0
  7 10  1  0  0  0  0
  7  3  1  0  0  0  0
  8 26  2  0  0  0  0
  9  6  1  0  0  0  0
  9  3  2  0  0  0  0
 10  5  1  1  0  0  0
 10 23  1  0  0  0  0
 11 16  1  0  0  0  0
 12  4  1  0  0  0  0
 12  8  1  0  0  0  0
 13  9  1  0  0  0  0
 17  2  1  0  0  0  0
 17 13  1  0  0  0  0
 18  8  1  6  0  0  0
 18 25  1  0  0  0  0
 18 19  1  0  0  0  0
 19  5  1  1  0  0  0
 20 16  2  0  0  0  0
 20 15  1  0  0  0  0
 21 13  1  0  0  0  0
 21  7  2  0  0  0  0
 22  6  1  0  0  0  0
 23 30  1  6  0  0  0
 23 28  1  0  0  0  0
 24  2  1  0  0  0  0
 25 27  1  0  0  0  0
 25 19  1  0  0  0  0
 27 21  1  0  0  0  0
 28 15  1  0  0  0  0
 30 29  2  0  0  0  0
 31 30  1  0  0  0  0
 32 34  1  0  0  0  0
 33 35  2  0  0  0  0
 34 31  2  0  0  0  0
 34 33  1  0  0  0  0
 35 29  1  0  0  0  0
 37 36  1  0  0  0  0
M  END
>  <MODEL>
1

>  <REMARK>
 VINA RESULT:      -9.3      0.000      0.000
  Name = 
  2 active torsions:
  status: ('A' for Active; 'I' for Inactive)
    1  A    between atoms: C_4  and  C_37
    2  A    between atoms: C_23  and  C_30
                            x       y       z     vdW  Elec       q    Type
                         _______ _______ _______ _____ _____    ______ ____

>  <TORSDO>
F 2

$$$$
=
 OpenBabel11112417083D

 37 44  0  0  1  0  0  0  0  0999 V2000
  193.1530  174.5000  144.3950 O   0  0  0  0  0  0  0  0  0  0  0  0
  192.5340  172.3940  140.4750 C   0  0  0  0  0  0  0  0  0  0  0  0
  189.4270  174.8210  141.8490 C   0  0  0  0  0  0  0  0  0  0  0  0
  193.8830  173.9940  145.4830 C   0  0  2  0  0  3  0  0  0  0  0  0
  189.7420  176.6650  145.2290 O   0  0  0  0  0  0  0  0  0  0  0  0
  190.3020  173.4020  140.0890 C   0  0  0  0  0  0  0  0  0  0  0  0
  189.8140  175.0960  143.1750 C   0  0  0  0  0  0  0  0  0  0  0  0
  193.2610  176.2720  146.4000 C   0  0  0  0  0  0  0  0  0  0  0  0
  190.3630  173.9600  141.3460 C   0  0  0  0  0  0  0  0  0  0  0  0
  189.0150  175.8710  144.2740 C   0  0  2  0  0  3  0  0  0  0  0  0
  189.2170  173.7320  139.2690 C   0  0  0  0  0  3  0  0  0  0  0  0
  194.2030  175.1020  146.4900 C   0  0  0  0  0  2  0  0  0  0  0  0
  191.3010  173.6430  142.2300 N   0  0  0  0  0  0  0  0  0  0  0  0
  193.5330  173.4300  139.9970 C   0  0  0  0  0  1  0  0  0  0  0  0
  187.2340  176.0970  141.4860 C   0  0  0  0  0  2  0  0  0  0  0  0
  188.2280  174.6160  139.7540 C   0  0  0  0  0  3  0  0  0  0  0  0
  192.2940  172.5930  141.9950 C   0  0  0  0  0  2  0  0  0  0  0  0
  191.7720  176.1180  146.5590 C   0  0  1  0  0  3  0  0  0  0  0  0
  191.0980  176.3390  145.2240 C   0  0  1  0  0  3  0  0  0  0  0  0
  188.3110  175.1630  141.0550 C   0  0  0  0  0  0  0  0  0  0  0  0
  190.9850  174.2920  143.3700 C   0  0  0  0  0  0  0  0  0  0  0  0
  191.3190  172.5180  139.7080 O   0  0  0  0  0  0  0  0  0  0  0  0
  187.8070  176.6850  143.7850 C   0  0  1  0  0  3  0  0  0  0  0  0
  193.1240  171.0180  140.2510 C   0  0  0  0  0  1  0  0  0  0  0  0
  191.1750  174.9310  145.7930 C   0  0  1  0  0  3  0  0  0  0  0  0
  193.7270  177.3870  146.2320 O   0  0  0  0  0  0  0  0  0  0  0  0
  191.8130  174.1470  144.6390 C   0  0  2  0  0  3  0  0  0  0  0  0
  186.8560  175.8760  142.9300 C   0  0  0  0  0  2  0  0  0  0  0  0
  186.4620  178.5580  144.7570 C   0  0  0  0  0  3  0  0  0  0  0  0
  187.0500  177.2990  144.9260 C   0  0  0  0  0  0  0  0  0  0  0  0
  186.9200  176.6330  146.1560 C   0  0  0  0  0  3  0  0  0  0  0  0
  186.0890  176.5830  148.3890 F   0  0  0  0  0  0  0  0  0  0  0  0
  185.6280  178.4860  147.0300 C   0  0  0  0  0  3  0  0  0  0  0  0
  186.2110  177.2280  147.2040 C   0  0  0  0  0  0  0  0  0  0  0  0
  185.7540  179.1510  145.8060 C   0  0  0  0  0  3  0  0  0  0  0  0
  196.3610  173.9740  145.7200 C   0  0  0  0  0  1  0  0  0  0  0  0
  195.1750  173.3620  145.0000 C   0  0  0  0  0  2  0  0  0  0  0  0
  1 27  1  0  0  0  0
  1  4  1  0  0  0  0
  2 17  1  0  0  0  0
  3  7  1  0  0  0  0
  4 37  1  6  0  0  0
  4 12  1  0  0  0  0
  6  9  2  0  0  0  0
  7 21  2  0  0  0  0
  8 12  1  0  0  0  0
  9  3  1  0  0  0  0
  9 13  1  0  0  0  0
 10  7  1  6  0  0  0
 10  5  1  0  0  0  0
 11 16  2  0  0  0  0
 11  6  1  0  0  0  0
 13 21  1  0  0  0  0
 14  2  1  0  0  0  0
 15 28  1  0  0  0  0
 16 20  1  0  0  0  0
 17 13  1  0  0  0  0
 18  8  1  6  0  0  0
 19  5  1  1  0  0  0
 19 25  1  0  0  0  0
 19 18  1  0  0  0  0
 20 15  1  0  0  0  0
 20  3  2  0  0  0  0
 21 27  1  0  0  0  0
 22  6  1  0  0  0  0
 22  2  1  0  0  0  0
 23 10  1  0  0  0  0
 23 30  1  1  0  0  0
 24  2  1  0  0  0  0
 25 18  1  0  0  0  0
 26  8  2  0  0  0  0
 27 25  1  0  0  0  0
 28 23  1  0  0  0  0
 29 30  2  0  0  0  0
 29 35  1  0  0  0  0
 30 31  1  0  0  0  0
 31 34  2  0  0  0  0
 33 34  1  0  0  0  0
 34 32  1  0  0  0  0
 35 33  2  0  0  0  0
 37 36  1  0  0  0  0
M  END
>  <MODEL>
2

>  <REMARK>
 VINA RESULT:      -9.1      1.848      5.223
  Name = 
  2 active torsions:
  status: ('A' for Active; 'I' for Inactive)
    1  A    between atoms: C_4  and  C_37
    2  A    between atoms: C_23  and  C_30
                            x       y       z     vdW  Elec       q    Type
                         _______ _______ _______ _____ _____    ______ ____

>  <TORSDO>
F 2

$$$$
=
 OpenBabel11112417083D

 37 44  0  0  1  0  0  0  0  0999 V2000
  191.0950  172.9960  142.5570 O   0  0  0  0  0  0  0  0  0  0  0  0
  189.7760  172.6470  138.2770 C   0  0  0  0  0  0  0  0  0  0  0  0
  187.8720  175.5200  140.6330 C   0  0  0  0  0  0  0  0  0  0  0  0
  191.5350  171.9320  143.3610 C   0  0  2  0  0  3  0  0  0  0  0  0
  188.8200  175.9300  144.3540 O   0  0  0  0  0  0  0  0  0  0  0  0
  188.1450  174.5060  138.4470 C   0  0  0  0  0  0  0  0  0  0  0  0
  188.3050  175.1910  141.9310 C   0  0  0  0  0  0  0  0  0  0  0  0
  191.8580  173.8570  144.9750 C   0  0  0  0  0  0  0  0  0  0  0  0
  188.3950  174.5700  139.7990 C   0  0  0  0  0  0  0  0  0  0  0  0
  187.8580  175.8250  143.2890 C   0  0  2  0  0  3  0  0  0  0  0  0
  187.3040  175.4720  137.8830 C   0  0  0  0  0  3  0  0  0  0  0  0
  192.2490  172.4500  144.6130 C   0  0  0  0  0  2  0  0  0  0  0  0
  189.1060  173.6540  140.4440 N   0  0  0  0  0  0  0  0  0  0  0  0
  191.1180  173.3090  138.0260 C   0  0  0  0  0  1  0  0  0  0  0  0
  186.3830  177.5900  140.9000 C   0  0  0  0  0  2  0  0  0  0  0  0
  186.7410  176.4680  138.7110 C   0  0  0  0  0  3  0  0  0  0  0  0
  189.6010  172.4340  139.8030 C   0  0  0  0  0  2  0  0  0  0  0  0
  190.4290  174.2510  145.2380 C   0  0  1  0  0  3  0  0  0  0  0  0
  189.9310  175.1240  144.1090 C   0  0  1  0  0  3  0  0  0  0  0  0
  187.0050  176.4990  140.0990 C   0  0  0  0  0  0  0  0  0  0  0  0
  189.0510  173.9790  141.7520 C   0  0  0  0  0  0  0  0  0  0  0  0
  188.7320  173.4670  137.7150 O   0  0  0  0  0  0  0  0  0  0  0  0
  187.0900  177.1530  143.1960 C   0  0  1  0  0  3  0  0  0  0  0  0
  189.7700  171.2980  137.5910 C   0  0  0  0  0  1  0  0  0  0  0  0
  189.4230  173.6950  144.2210 C   0  0  1  0  0  3  0  0  0  0  0  0
  192.7350  174.6960  145.0980 O   0  0  0  0  0  0  0  0  0  0  0  0
  189.7210  173.1320  142.8250 C   0  0  2  0  0  3  0  0  0  0  0  0
  185.9150  177.0890  142.2450 C   0  0  0  0  0  2  0  0  0  0  0  0
  186.1300  178.9240  144.6800 C   0  0  0  0  0  3  0  0  0  0  0  0
  186.6150  177.6180  144.5410 C   0  0  0  0  0  0  0  0  0  0  0  0
  186.6490  176.7690  145.6600 C   0  0  0  0  0  3  0  0  0  0  0  0
  186.2400  176.4060  147.9790 F   0  0  0  0  0  0  0  0  0  0  0  0
  185.7220  178.5330  147.0350 C   0  0  0  0  0  3  0  0  0  0  0  0
  186.2040  177.2270  146.9030 C   0  0  0  0  0  0  0  0  0  0  0  0
  185.6850  179.3800  145.9240 C   0  0  0  0  0  3  0  0  0  0  0  0
  192.9200  171.7270  141.3030 C   0  0  0  0  0  1  0  0  0  0  0  0
  192.4770  171.0370  142.5780 C   0  0  0  0  0  2  0  0  0  0  0  0
  1 27  1  0  0  0  0
  1  4  1  0  0  0  0
  2 17  1  0  0  0  0
  3  7  1  0  0  0  0
  4 37  1  6  0  0  0
  4 12  1  0  0  0  0
  6  9  1  0  0  0  0
  8 26  2  0  0  0  0
  9 13  1  0  0  0  0
  9  3  2  0  0  0  0
 10  7  1  6  0  0  0
 10  5  1  0  0  0  0
 11  6  2  0  0  0  0
 11 16  1  0  0  0  0
 12  8  1  0  0  0  0
 13 21  1  0  0  0  0
 14  2  1  0  0  0  0
 15 28  1  0  0  0  0
 16 20  2  0  0  0  0
 17 13  1  0  0  0  0
 18  8  1  6  0  0  0
 19 25  1  0  0  0  0
 19  5  1  1  0  0  0
 19 18  1  0  0  0  0
 20  3  1  0  0  0  0
 20 15  1  0  0  0  0
 21  7  2  0  0  0  0
 21 27  1  0  0  0  0
 22  2  1  0  0  0  0
 22  6  1  0  0  0  0
 23 10  1  0  0  0  0
 23 30  1  1  0  0  0
 24  2  1  0  0  0  0
 25 18  1  0  0  0  0
 27 25  1  0  0  0  0
 28 23  1  0  0  0  0
 29 35  1  0  0  0  0
 30 29  2  0  0  0  0
 30 31  1  0  0  0  0
 31 34  2  0  0  0  0
 34 33  1  0  0  0  0
 34 32  1  0  0  0  0
 35 33  2  0  0  0  0
 36 37  1  0  0  0  0
M  END
>  <MODEL>
3

>  <REMARK>
 VINA RESULT:      -8.4      2.443      5.533
  Name = 
  2 active torsions:
  status: ('A' for Active; 'I' for Inactive)
    1  A    between atoms: C_4  and  C_37
    2  A    between atoms: C_23  and  C_30
                            x       y       z     vdW  Elec       q    Type
                         _______ _______ _______ _____ _____    ______ ____

>  <TORSDO>
F 2

$$$$
=
 OpenBabel11112417083D

 37 44  0  0  1  0  0  0  0  0999 V2000
  190.7680  173.4440  141.3570 O   0  0  0  0  0  0  0  0  0  0  0  0
  193.7710  173.5040  144.6970 C   0  0  0  0  0  0  0  0  0  0  0  0
  190.1160  175.4010  145.3830 C   0  0  0  0  0  0  0  0  0  0  0  0
  191.0750  173.4770  139.9860 C   0  0  2  0  0  3  0  0  0  0  0  0
  187.4270  175.5140  142.6120 O   0  0  0  0  0  0  0  0  0  0  0  0
  192.2700  174.7110  146.2570 C   0  0  0  0  0  0  0  0  0  0  0  0
  189.5410  175.4380  144.0980 C   0  0  0  0  0  0  0  0  0  0  0  0
  188.5540  173.2620  139.8610 C   0  0  0  0  0  0  0  0  0  0  0  0
  191.3620  174.8570  145.2320 C   0  0  0  0  0  0  0  0  0  0  0  0
  188.2080  176.1250  143.6550 C   0  0  2  0  0  3  0  0  0  0  0  0
  191.9010  175.1430  147.5360 C   0  0  0  0  0  3  0  0  0  0  0  0
  189.8630  173.0690  139.1440 C   0  0  0  0  0  2  0  0  0  0  0  0
  191.6460  174.5610  143.9700 N   0  0  0  0  0  0  0  0  0  0  0  0
  193.3740  172.0430  144.8030 C   0  0  0  0  0  1  0  0  0  0  0  0
  188.3850  176.4610  146.9490 C   0  0  0  0  0  2  0  0  0  0  0  0
  190.6230  175.7130  147.7310 C   0  0  0  0  0  3  0  0  0  0  0  0
  192.9820  174.1540  143.5300 C   0  0  0  0  0  2  0  0  0  0  0  0
  188.1270  174.5980  140.4070 C   0  0  1  0  0  3  0  0  0  0  0  0
  188.1740  174.5620  141.9180 C   0  0  1  0  0  3  0  0  0  0  0  0
  189.7170  175.8630  146.6560 C   0  0  0  0  0  0  0  0  0  0  0  0
  190.5720  174.9280  143.2410 C   0  0  0  0  0  0  0  0  0  0  0  0
  193.5200  174.1560  145.9580 O   0  0  0  0  0  0  0  0  0  0  0  0
  187.2590  176.5540  144.7840 C   0  0  1  0  0  3  0  0  0  0  0  0
  195.2510  173.5780  144.3860 C   0  0  0  0  0  1  0  0  0  0  0  0
  189.2290  175.3540  141.1600 C   0  0  1  0  0  3  0  0  0  0  0  0
  187.7980  172.3100  139.9650 O   0  0  0  0  0  0  0  0  0  0  0  0
  190.5350  174.7810  141.7270 C   0  0  2  0  0  3  0  0  0  0  0  0
  187.9430  177.3900  145.8450 C   0  0  0  0  0  2  0  0  0  0  0  0
  185.2200  177.9550  145.1590 C   0  0  0  0  0  3  0  0  0  0  0  0
  186.0660  177.2960  144.2590 C   0  0  0  0  0  0  0  0  0  0  0  0
  185.7840  177.3420  142.8840 C   0  0  0  0  0  3  0  0  0  0  0  0
  184.3950  178.0800  141.0930 F   0  0  0  0  0  0  0  0  0  0  0  0
  183.8230  178.6930  143.3240 C   0  0  0  0  0  3  0  0  0  0  0  0
  184.6640  178.0390  142.4200 C   0  0  0  0  0  0  0  0  0  0  0  0
  184.1020  178.6510  144.6930 C   0  0  0  0  0  3  0  0  0  0  0  0
  192.5050  171.6430  140.8740 C   0  0  0  0  0  1  0  0  0  0  0  0
  192.2340  172.5450  139.6860 C   0  0  0  0  0  2  0  0  0  0  0  0
  1 27  1  0  0  0  0
  2 14  1  0  0  0  0
  2 22  1  0  0  0  0
  3 20  1  0  0  0  0
  4 37  1  1  0  0  0
  4  1  1  0  0  0  0
  6 11  2  0  0  0  0
  7  3  1  0  0  0  0
  8 26  2  0  0  0  0
  9  3  2  0  0  0  0
  9  6  1  0  0  0  0
 10  5  1  6  0  0  0
 10  7  1  0  0  0  0
 10 23  1  0  0  0  0
 11 16  1  0  0  0  0
 12  8  1  0  0  0  0
 12  4  1  0  0  0  0
 13  9  1  0  0  0  0
 17 13  1  0  0  0  0
 17  2  1  0  0  0  0
 18  8  1  6  0  0  0
 18 25  1  0  0  0  0
 18 19  1  0  0  0  0
 19  5  1  1  0  0  0
 20 15  1  0  0  0  0
 20 16  2  0  0  0  0
 21 13  1  0  0  0  0
 21  7  2  0  0  0  0
 22  6  1  0  0  0  0
 23 30  1  6  0  0  0
 23 28  1  0  0  0  0
 24  2  1  0  0  0  0
 25 27  1  0  0  0  0
 25 19  1  0  0  0  0
 27 21  1  0  0  0  0
 28 15  1  0  0  0  0
 30 29  2  0  0  0  0
 31 30  1  0  0  0  0
 32 34  1  0  0  0  0
 33 35  2  0  0  0  0
 34 31  2  0  0  0  0
 34 33  1  0  0  0  0
 35 29  1  0  0  0  0
 37 36  1  0  0  0  0
M  END
>  <MODEL>
4

>  <REMARK>
 VINA RESULT:      -8.3      1.483      1.776
  Name = 
  2 active torsions:
  status: ('A' for Active; 'I' for Inactive)
    1  A    between atoms: C_4  and  C_37
    2  A    between atoms: C_23  and  C_30
                            x       y       z     vdW  Elec       q    Type
                         _______ _______ _______ _____ _____    ______ ____

>  <TORSDO>
F 2

$$$$
=
 OpenBabel11112417083D

 37 44  0  0  1  0  0  0  0  0999 V2000
  192.5540  172.7190  139.8680 O   0  0  0  0  0  0  0  0  0  0  0  0
  196.5210  174.7780  139.4180 C   0  0  0  0  0  0  0  0  0  0  0  0
  194.3030  175.6380  142.8490 C   0  0  0  0  0  0  0  0  0  0  0  0
  191.6910  172.3760  138.8140 C   0  0  2  0  0  3  0  0  0  0  0  0
  190.8380  174.0180  143.3880 O   0  0  0  0  0  0  0  0  0  0  0  0
  196.3580  175.9450  141.5990 C   0  0  0  0  0  0  0  0  0  0  0  0
  193.0490  175.0700  142.5560 C   0  0  0  0  0  0  0  0  0  0  0  0
  190.3990  171.4040  140.7630 C   0  0  0  0  0  0  0  0  0  0  0  0
  195.0750  175.4650  141.7330 C   0  0  0  0  0  0  0  0  0  0  0  0
  191.7320  175.1450  143.3980 C   0  0  2  0  0  3  0  0  0  0  0  0
  196.9140  176.6550  142.6690 C   0  0  0  0  0  3  0  0  0  0  0  0
  190.6320  171.3730  139.2770 C   0  0  0  0  0  2  0  0  0  0  0  0
  194.4260  174.8580  140.7470 N   0  0  0  0  0  0  0  0  0  0  0  0
  197.0440  173.3900  139.7410 C   0  0  0  0  0  1  0  0  0  0  0  0
  194.0910  176.6090  145.2120 C   0  0  0  0  0  2  0  0  0  0  0  0
  196.1480  176.8580  143.8380 C   0  0  0  0  0  3  0  0  0  0  0  0
  194.9710  174.7350  139.3930 C   0  0  0  0  0  2  0  0  0  0  0  0
  189.9870  172.6600  141.4850 C   0  0  1  0  0  3  0  0  0  0  0  0
  191.1350  173.1510  142.3360 C   0  0  1  0  0  3  0  0  0  0  0  0
  194.8270  176.3650  143.9410 C   0  0  0  0  0  0  0  0  0  0  0  0
  193.1760  174.6260  141.1980 C   0  0  0  0  0  0  0  0  0  0  0  0
  197.0280  175.7130  140.3920 O   0  0  0  0  0  0  0  0  0  0  0  0
  191.8830  175.6330  144.8470 C   0  0  1  0  0  3  0  0  0  0  0  0
  197.0210  175.1720  138.0450 C   0  0  0  0  0  1  0  0  0  0  0  0
  190.7700  173.9120  141.0720 C   0  0  1  0  0  3  0  0  0  0  0  0
  190.5110  170.3670  141.3960 O   0  0  0  0  0  0  0  0  0  0  0  0
  192.1110  173.9730  140.3290 C   0  0  2  0  0  3  0  0  0  0  0  0
  192.6410  176.9380  144.9560 C   0  0  0  0  0  2  0  0  0  0  0  0
  189.6900  176.8020  145.1420 C   0  0  0  0  0  3  0  0  0  0  0  0
  190.5540  175.7710  145.5300 C   0  0  0  0  0  0  0  0  0  0  0  0
  190.1630  174.8860  146.5480 C   0  0  0  0  0  3  0  0  0  0  0  0
  188.5470  174.1840  148.1540 F   0  0  0  0  0  0  0  0  0  0  0  0
  188.0630  176.0710  146.7800 C   0  0  0  0  0  3  0  0  0  0  0  0
  188.9200  175.0390  147.1710 C   0  0  0  0  0  0  0  0  0  0  0  0
  188.4490  176.9520  145.7650 C   0  0  0  0  0  3  0  0  0  0  0  0
  193.8720  171.3940  138.1240 C   0  0  0  0  0  1  0  0  0  0  0  0
  192.4810  171.7800  137.6630 C   0  0  0  0  0  2  0  0  0  0  0  0
  1 27  1  0  0  0  0
  2 14  1  0  0  0  0
  2 22  1  0  0  0  0
  3 20  1  0  0  0  0
  4 37  1  6  0  0  0
  4 12  1  0  0  0  0
  4  1  1  0  0  0  0
  5 10  1  0  0  0  0
  6  9  1  0  0  0  0
  6 11  2  0  0  0  0
  7  3  1  0  0  0  0
  8 26  2  0  0  0  0
  9  3  2  0  0  0  0
 10  7  1  1  0  0  0
 10 23  1  0  0  0  0
 11 16  1  0  0  0  0
 12  8  1  0  0  0  0
 13 21  1  0  0  0  0
 13  9  1  0  0  0  0
 16 20  2  0  0  0  0
 17  2  1  0  0  0  0
 17 13  1  0  0  0  0
 18  8  1  6  0  0  0
 18 19  1  0  0  0  0
 19  5  1  1  0  0  0
 20 15  1  0  0  0  0
 21  7  2  0  0  0  0
 22  6  1  0  0  0  0
 23 28  1  0  0  0  0
 23 30  1  6  0  0  0
 24  2  1  0  0  0  0
 25 18  1  0  0  0  0
 25 19  1  0  0  0  0
 27 25  1  0  0  0  0
 27 21  1  0  0  0  0
 28 15  1  0  0  0  0
 29 30  2  0  0  0  0
 29 35  1  0  0  0  0
 30 31  1  0  0  0  0
 31 34  2  0  0  0  0
 33 34  1  0  0  0  0
 34 32  1  0  0  0  0
 35 33  2  0  0  0  0
 37 36  1  0  0  0  0
M  END
>  <MODEL>
5

>  <REMARK>
 VINA RESULT:      -8.1      2.575      3.886
  Name = 
  2 active torsions:
  status: ('A' for Active; 'I' for Inactive)
    1  A    between atoms: C_4  and  C_37
    2  A    between atoms: C_23  and  C_30
                            x       y       z     vdW  Elec       q    Type
                         _______ _______ _______ _____ _____    ______ ____

>  <TORSDO>
F 2

$$$$
=
 OpenBabel11112417083D

 37 44  0  0  1  0  0  0  0  0999 V2000
  192.6820  172.5950  141.6710 O   0  0  0  0  0  0  0  0  0  0  0  0
  196.3450  174.1170  143.7810 C   0  0  0  0  0  0  0  0  0  0  0  0
  192.6580  175.6320  145.0240 C   0  0  0  0  0  0  0  0  0  0  0  0
  192.6170  172.2290  140.3170 C   0  0  2  0  0  3  0  0  0  0  0  0
  189.3990  174.4960  143.2910 O   0  0  0  0  0  0  0  0  0  0  0  0
  195.0600  175.5490  145.3440 C   0  0  0  0  0  0  0  0  0  0  0  0
  191.7840  175.1800  144.0180 C   0  0  0  0  0  0  0  0  0  0  0  0
  190.2570  171.6530  141.0350 C   0  0  0  0  0  0  0  0  0  0  0  0
  193.9140  175.2390  144.6490 C   0  0  0  0  0  0  0  0  0  0  0  0
  190.2640  175.5060  143.8390 C   0  0  2  0  0  3  0  0  0  0  0  0
  194.9410  176.3140  146.5100 C   0  0  0  0  0  3  0  0  0  0  0  0
  191.3520  171.4160  140.0290 C   0  0  0  0  0  2  0  0  0  0  0  0
  193.9270  174.5950  143.4880 N   0  0  0  0  0  0  0  0  0  0  0  0
  196.3170  172.7270  144.3910 C   0  0  0  0  0  1  0  0  0  0  0  0
  191.1920  176.8980  146.7030 C   0  0  0  0  0  2  0  0  0  0  0  0
  193.6620  176.7420  146.9290 C   0  0  0  0  0  3  0  0  0  0  0  0
  195.1640  174.2490  142.7850 C   0  0  0  0  0  2  0  0  0  0  0  0
  189.7000  173.0250  141.3080 C   0  0  1  0  0  3  0  0  0  0  0  0
  190.1350  173.4800  142.6820 C   0  0  1  0  0  3  0  0  0  0  0  0
  192.5040  176.4200  146.1860 C   0  0  0  0  0  0  0  0  0  0  0  0
  192.6500  174.5640  143.0550 C   0  0  0  0  0  0  0  0  0  0  0  0
  196.2840  175.0980  144.8360 O   0  0  0  0  0  0  0  0  0  0  0  0
  189.5620  176.1440  145.0480 C   0  0  1  0  0  3  0  0  0  0  0  0
  197.6440  174.2830  143.0230 C   0  0  0  0  0  1  0  0  0  0  0  0
  190.7640  174.1200  141.4540 C   0  0  1  0  0  3  0  0  0  0  0  0
  189.7810  170.6930  141.6180 O   0  0  0  0  0  0  0  0  0  0  0  0
  192.2640  173.9370  141.7230 C   0  0  2  0  0  3  0  0  0  0  0  0
  190.2920  177.3580  145.5820 C   0  0  0  0  0  2  0  0  0  0  0  0
  187.8190  176.9600  143.4490 C   0  0  0  0  0  3  0  0  0  0  0  0
  188.1420  176.5150  144.7360 C   0  0  0  0  0  0  0  0  0  0  0  0
  187.1350  176.4220  145.7110 C   0  0  0  0  0  3  0  0  0  0  0  0
  184.8510  176.6880  146.3390 F   0  0  0  0  0  0  0  0  0  0  0  0
  185.5040  177.2220  144.1090 C   0  0  0  0  0  3  0  0  0  0  0  0
  185.8200  176.7770  145.3960 C   0  0  0  0  0  0  0  0  0  0  0  0
  186.5030  177.3130  143.1360 C   0  0  0  0  0  3  0  0  0  0  0  0
  194.9390  172.3200  139.4230 C   0  0  0  0  0  1  0  0  0  0  0  0
  193.8380  171.4120  139.9350 C   0  0  0  0  0  2  0  0  0  0  0  0
  1 27  1  0  0  0  0
  2 14  1  0  0  0  0
  2 22  1  0  0  0  0
  3 20  1  0  0  0  0
  4 37  1  1  0  0  0
  4  1  1  0  0  0  0
  6 11  2  0  0  0  0
  7  3  1  0  0  0  0
  8 26  2  0  0  0  0
  9  3  2  0  0  0  0
  9  6  1  0  0  0  0
 10  5  1  1  0  0  0
 10  7  1  0  0  0  0
 10 23  1  0  0  0  0
 11 16  1  0  0  0  0
 12  4  1  0  0  0  0
 12  8  1  0  0  0  0
 13  9  1  0  0  0  0
 17 13  1  0  0  0  0
 17  2  1  0  0  0  0
 18  8  1  1  0  0  0
 18 25  1  0  0  0  0
 18 19  1  0  0  0  0
 19  5  1  6  0  0  0
 20 15  1  0  0  0  0
 20 16  2  0  0  0  0
 21 13  1  0  0  0  0
 21  7  2  0  0  0  0
 22  6  1  0  0  0  0
 23 30  1  6  0  0  0
 23 28  1  0  0  0  0
 24  2  1  0  0  0  0
 25 27  1  0  0  0  0
 25 19  1  0  0  0  0
 27 21  1  0  0  0  0
 28 15  1  0  0  0  0
 29 30  1  0  0  0  0
 30 31  2  0  0  0  0
 33 34  2  0  0  0  0
 34 31  1  0  0  0  0
 34 32  1  0  0  0  0
 35 29  2  0  0  0  0
 35 33  1  0  0  0  0
 36 37  1  0  0  0  0
M  END
>  <MODEL>
6

>  <REMARK>
 VINA RESULT:      -7.6      1.617      2.121
  Name = 
  2 active torsions:
  status: ('A' for Active; 'I' for Inactive)
    1  A    between atoms: C_4  and  C_37
    2  A    between atoms: C_23  and  C_30
                            x       y       z     vdW  Elec       q    Type
                         _______ _______ _______ _____ _____    ______ ____

>  <TORSDO>
F 2

$$$$
=
 OpenBabel11112417083D

 37 44  0  0  1  0  0  0  0  0999 V2000
  190.2260  174.7290  143.0120 O   0  0  0  0  0  0  0  0  0  0  0  0
  192.0940  176.3380  146.7680 C   0  0  0  0  0  0  0  0  0  0  0  0
  188.1940  177.5530  145.9050 C   0  0  0  0  0  0  0  0  0  0  0  0
  190.9130  174.4410  141.8210 C   0  0  2  0  0  3  0  0  0  0  0  0
  186.4370  176.3290  142.6890 O   0  0  0  0  0  0  0  0  0  0  0  0
  190.0670  177.5940  147.4440 C   0  0  0  0  0  0  0  0  0  0  0  0
  188.0190  177.1100  144.5800 C   0  0  0  0  0  0  0  0  0  0  0  0
  188.5850  173.6830  141.1730 C   0  0  0  0  0  0  0  0  0  0  0  0
  189.4870  177.2580  146.2420 C   0  0  0  0  0  0  0  0  0  0  0  0
  186.8000  177.3550  143.6310 C   0  0  2  0  0  3  0  0  0  0  0  0
  189.2910  178.2800  148.3850 C   0  0  0  0  0  3  0  0  0  0  0  0
  190.0590  173.5730  140.8930 C   0  0  0  0  0  2  0  0  0  0  0  0
  190.1610  176.6870  145.2510 N   0  0  0  0  0  0  0  0  0  0  0  0
  191.8650  174.9160  147.2440 C   0  0  0  0  0  1  0  0  0  0  0  0
  185.9660  178.6250  146.5790 C   0  0  0  0  0  2  0  0  0  0  0  0
  187.9520  178.6050  148.0730 C   0  0  0  0  0  3  0  0  0  0  0  0
  191.6070  176.4590  145.3010 C   0  0  0  0  0  2  0  0  0  0  0  0
  187.8560  175.0000  141.1370 C   0  0  1  0  0  3  0  0  0  0  0  0
  187.4650  175.3980  142.5420 C   0  0  1  0  0  3  0  0  0  0  0  0
  187.3880  178.2580  146.8240 C   0  0  0  0  0  0  0  0  0  0  0  0
  189.3090  176.6060  144.2080 C   0  0  0  0  0  0  0  0  0  0  0  0
  191.4080  177.2490  147.6500 O   0  0  0  0  0  0  0  0  0  0  0  0
  185.5180  177.8760  144.2980 C   0  0  1  0  0  3  0  0  0  0  0  0
  193.5790  176.6270  146.8140 C   0  0  0  0  0  1  0  0  0  0  0  0
  188.5900  176.1470  141.8440 C   0  0  1  0  0  3  0  0  0  0  0  0
  187.9540  172.6630  141.3970 O   0  0  0  0  0  0  0  0  0  0  0  0
  189.7340  176.0380  142.8610 C   0  0  2  0  0  3  0  0  0  0  0  0
  185.7540  179.0970  145.1610 C   0  0  0  0  0  2  0  0  0  0  0  0
  183.2460  178.7520  143.7220 C   0  0  0  0  0  3  0  0  0  0  0  0
  184.4480  178.1790  143.2910 C   0  0  0  0  0  0  0  0  0  0  0  0
  184.6320  177.8990  141.9270 C   0  0  0  0  0  3  0  0  0  0  0  0
  183.7990  177.9160  139.6940 F   0  0  0  0  0  0  0  0  0  0  0  0
  182.4200  178.7590  141.4450 C   0  0  0  0  0  3  0  0  0  0  0  0
  183.6180  178.1880  141.0080 C   0  0  0  0  0  0  0  0  0  0  0  0
  182.2340  179.0410  142.8020 C   0  0  0  0  0  3  0  0  0  0  0  0
  192.2160  173.2220  143.5570 C   0  0  0  0  0  1  0  0  0  0  0  0
  192.2150  173.7230  142.1270 C   0  0  0  0  0  2  0  0  0  0  0  0
  2 24  1  0  0  0  0
  2 14  1  0  0  0  0
  2 22  1  0  0  0  0
  3  9  2  0  0  0  0
  3 20  1  0  0  0  0
  4 37  1  1  0  0  0
  4  1  1  0  0  0  0
  6 22  1  0  0  0  0
  6 11  2  0  0  0  0
  7  3  1  0  0  0  0
  8 26  2  0  0  0  0
  9  6  1  0  0  0  0
 10  5  1  1  0  0  0
 10 23  1  0  0  0  0
 10  7  1  0  0  0  0
 12  8  1  0  0  0  0
 12  4  1  0  0  0  0
 13 17  1  0  0  0  0
 13  9  1  0  0  0  0
 15 20  1  0  0  0  0
 16 11  1  0  0  0  0
 17  2  1  0  0  0  0
 18  8  1  1  0  0  0
 18 25  1  0  0  0  0
 18 19  1  0  0  0  0
 19  5  1  6  0  0  0
 20 16  2  0  0  0  0
 21  7  2  0  0  0  0
 21 13  1  0  0  0  0
 23 30  1  6  0  0  0
 23 28  1  0  0  0  0
 25 19  1  0  0  0  0
 25 27  1  0  0  0  0
 27  1  1  0  0  0  0
 27 21  1  0  0  0  0
 28 15  1  0  0  0  0
 30 29  1  0  0  0  0
 31 30  2  0  0  0  0
 32 34  1  0  0  0  0
 33 35  1  0  0  0  0
 34 33  2  0  0  0  0
 34 31  1  0  0  0  0
 35 29  2  0  0  0  0
 37 36  1  0  0  0  0
M  END
>  <MODEL>
7

>  <REMARK>
 VINA RESULT:      -7.5      2.284      3.773
  Name = 
  2 active torsions:
  status: ('A' for Active; 'I' for Inactive)
    1  A    between atoms: C_4  and  C_37
    2  A    between atoms: C_23  and  C_30
                            x       y       z     vdW  Elec       q    Type
                         _______ _______ _______ _____ _____    ______ ____

>  <TORSDO>
F 2

$$$$
=
 OpenBabel11112417083D

 37 44  0  0  1  0  0  0  0  0999 V2000
  188.7470  176.1920  143.8340 O   0  0  0  0  0  0  0  0  0  0  0  0
  191.9260  175.3650  146.8980 C   0  0  0  0  0  0  0  0  0  0  0  0
  192.3320  173.5120  143.1780 C   0  0  0  0  0  0  0  0  0  0  0  0
  187.3880  176.4160  144.1120 C   0  0  2  0  0  3  0  0  0  0  0  0
  189.6680  174.0470  140.4320 O   0  0  0  0  0  0  0  0  0  0  0  0
  193.2630  173.9340  145.3770 C   0  0  0  0  0  0  0  0  0  0  0  0
  191.0810  173.7490  142.5770 C   0  0  0  0  0  0  0  0  0  0  0  0
  187.3770  176.7480  141.6000 C   0  0  0  0  0  0  0  0  0  0  0  0
  192.2550  174.0260  144.4440 C   0  0  0  0  0  0  0  0  0  0  0  0
  190.5500  173.2140  141.2070 C   0  0  2  0  0  3  0  0  0  0  0  0
  194.4430  173.2750  145.0150 C   0  0  0  0  0  3  0  0  0  0  0  0
  186.6750  177.0270  142.9020 C   0  0  0  0  0  2  0  0  0  0  0  0
  191.0680  174.5520  144.7150 N   0  0  0  0  0  0  0  0  0  0  0  0
  192.3250  176.7900  146.5660 C   0  0  0  0  0  1  0  0  0  0  0  0
  193.7100  172.2330  141.4350 C   0  0  0  0  0  2  0  0  0  0  0  0
  194.5600  172.7270  143.7180 C   0  0  0  0  0  3  0  0  0  0  0  0
  190.6780  174.9860  146.0590 C   0  0  0  0  0  2  0  0  0  0  0  0
  187.6650  175.3480  141.1270 C   0  0  1  0  0  3  0  0  0  0  0  0
  189.1520  175.0860  141.2060 C   0  0  1  0  0  3  0  0  0  0  0  0
  193.5020  172.8250  142.7860 C   0  0  0  0  0  0  0  0  0  0  0  0
  190.3110  174.3760  143.6120 C   0  0  0  0  0  0  0  0  0  0  0  0
  193.0430  174.4890  146.6440 O   0  0  0  0  0  0  0  0  0  0  0  0
  191.6000  172.6090  140.2630 C   0  0  1  0  0  3  0  0  0  0  0  0
  191.5660  175.2960  148.3660 C   0  0  0  0  0  1  0  0  0  0  0  0
  188.2260  174.4180  142.2100 C   0  0  1  0  0  3  0  0  0  0  0  0
  187.6860  177.6890  140.8890 O   0  0  0  0  0  0  0  0  0  0  0  0
  188.8560  174.8180  143.5510 C   0  0  2  0  0  3  0  0  0  0  0  0
  192.4580  171.5560  140.9310 C   0  0  0  0  0  2  0  0  0  0  0  0
  190.2810  170.8170  139.1190 C   0  0  0  0  0  3  0  0  0  0  0  0
  190.9740  172.0300  139.0290 C   0  0  0  0  0  0  0  0  0  0  0  0
  191.0710  172.6820  137.7880 C   0  0  0  0  0  3  0  0  0  0  0  0
  190.5770  172.7520  135.4580 F   0  0  0  0  0  0  0  0  0  0  0  0
  189.7910  170.9090  136.7490 C   0  0  0  0  0  3  0  0  0  0  0  0
  190.4810  172.1200  136.6520 C   0  0  0  0  0  0  0  0  0  0  0  0
  189.6910  170.2580  137.9820 C   0  0  0  0  0  3  0  0  0  0  0  0
  187.3260  176.5550  146.5960 C   0  0  0  0  0  1  0  0  0  0  0  0
  187.2430  177.3430  145.3040 C   0  0  0  0  0  2  0  0  0  0  0  0
  1  4  1  0  0  0  0
  2 24  1  0  0  0  0
  3  9  1  0  0  0  0
  4 37  1  1  0  0  0
  6 22  1  0  0  0  0
  7  3  1  0  0  0  0
  7 21  2  0  0  0  0
  8 12  1  0  0  0  0
  9 13  1  0  0  0  0
  9  6  2  0  0  0  0
 10  5  1  6  0  0  0
 10  7  1  0  0  0  0
 11  6  1  0  0  0  0
 12  4  1  0  0  0  0
 13 17  1  0  0  0  0
 14  2  1  0  0  0  0
 15 20  1  0  0  0  0
 16 11  2  0  0  0  0
 17  2  1  0  0  0  0
 18 19  1  0  0  0  0
 18  8  1  1  0  0  0
 18 25  1  0  0  0  0
 19  5  1  6  0  0  0
 19 25  1  0  0  0  0
 20  3  2  0  0  0  0
 20 16  1  0  0  0  0
 21 13  1  0  0  0  0
 22  2  1  0  0  0  0
 23 30  1  6  0  0  0
 23 28  1  0  0  0  0
 23 10  1  0  0  0  0
 25 27  1  0  0  0  0
 26  8  2  0  0  0  0
 27 21  1  0  0  0  0
 27  1  1  0  0  0  0
 28 15  1  0  0  0  0
 30 29  1  0  0  0  0
 31 30  2  0  0  0  0
 32 34  1  0  0  0  0
 33 35  1  0  0  0  0
 34 33  2  0  0  0  0
 34 31  1  0  0  0  0
 35 29  2  0  0  0  0
 37 36  1  0  0  0  0
M  END
>  <MODEL>
8

>  <REMARK>
 VINA RESULT:      -7.4      2.742      6.744
  Name = 
  2 active torsions:
  status: ('A' for Active; 'I' for Inactive)
    1  A    between atoms: C_4  and  C_37
    2  A    between atoms: C_23  and  C_30
                            x       y       z     vdW  Elec       q    Type
                         _______ _______ _______ _____ _____    ______ ____

>  <TORSDO>
F 2

$$$$
=
 OpenBabel11112417083D

 37 44  0  0  1  0  0  0  0  0999 V2000
  190.0800  176.2850  145.4310 O   0  0  0  0  0  0  0  0  0  0  0  0
  187.7590  175.9980  141.5950 C   0  0  0  0  0  0  0  0  0  0  0  0
  191.2720  173.7580  141.8730 C   0  0  0  0  0  0  0  0  0  0  0  0
  190.1770  177.4310  146.2380 C   0  0  2  0  0  3  0  0  0  0  0  0
  193.4410  173.9210  145.0650 O   0  0  0  0  0  0  0  0  0  0  0  0
  189.3060  174.3470  140.5810 C   0  0  0  0  0  0  0  0  0  0  0  0
  191.8720  174.2690  143.0390 C   0  0  0  0  0  0  0  0  0  0  0  0
  191.5050  175.7950  147.6440 C   0  0  0  0  0  0  0  0  0  0  0  0
  190.1400  174.4980  141.6660 C   0  0  0  0  0  0  0  0  0  0  0  0
  193.2760  173.9230  143.6360 C   0  0  2  0  0  3  0  0  0  0  0  0
  189.6300  173.3760  139.6270 C   0  0  0  0  0  3  0  0  0  0  0  0
  190.7180  177.0770  147.6270 C   0  0  0  0  0  2  0  0  0  0  0  0
  189.9710  175.4470  142.5780 N   0  0  0  0  0  0  0  0  0  0  0  0
  186.8190  175.1870  142.4670 C   0  0  0  0  0  1  0  0  0  0  0  0
  192.8360  171.9050  141.0410 C   0  0  0  0  0  2  0  0  0  0  0  0
  190.7920  172.5930  139.8040 C   0  0  0  0  0  3  0  0  0  0  0  0
  188.9480  176.4880  142.4620 C   0  0  0  0  0  2  0  0  0  0  0  0
  192.7110  175.5800  146.7690 C   0  0  1  0  0  3  0  0  0  0  0  0
  192.3790  174.5710  145.6930 C   0  0  1  0  0  3  0  0  0  0  0  0
  191.6370  172.7810  140.9210 C   0  0  0  0  0  0  0  0  0  0  0  0
  191.0230  175.3600  143.4180 C   0  0  0  0  0  0  0  0  0  0  0  0
  188.1910  175.1870  140.4830 O   0  0  0  0  0  0  0  0  0  0  0  0
  193.9640  172.6720  143.0660 C   0  0  1  0  0  3  0  0  0  0  0  0
  187.0080  177.2020  141.0690 C   0  0  0  0  0  1  0  0  0  0  0  0
  192.5250  176.0370  145.3160 C   0  0  1  0  0  3  0  0  0  0  0  0
  191.1770  174.9170  148.4250 O   0  0  0  0  0  0  0  0  0  0  0  0
  191.2050  176.3190  144.5860 C   0  0  2  0  0  3  0  0  0  0  0  0
  194.0300  172.6720  141.5540 C   0  0  0  0  0  2  0  0  0  0  0  0
  196.3890  173.2860  143.1350 C   0  0  0  0  0  3  0  0  0  0  0  0
  195.3450  172.4920  143.6240 C   0  0  0  0  0  0  0  0  0  0  0  0
  195.6070  171.5440  144.6270 C   0  0  0  0  0  3  0  0  0  0  0  0
  197.1520  170.4760  146.0940 F   0  0  0  0  0  0  0  0  0  0  0  0
  197.9410  172.1880  144.6340 C   0  0  0  0  0  3  0  0  0  0  0  0
  196.9030  171.3930  145.1280 C   0  0  0  0  0  0  0  0  0  0  0  0
  197.6840  173.1340  143.6380 C   0  0  0  0  0  3  0  0  0  0  0  0
  187.7240  177.1410  145.9280 C   0  0  0  0  0  1  0  0  0  0  0  0
  188.8170  178.0890  146.3800 C   0  0  0  0  0  2  0  0  0  0  0  0
  1  4  1  0  0  0  0
  2 17  1  0  0  0  0
  2 14  1  0  0  0  0
  3  7  1  0  0  0  0
  4 37  1  1  0  0  0
  4 12  1  0  0  0  0
  6  9  2  0  0  0  0
  7 21  2  0  0  0  0
  8 26  2  0  0  0  0
  9  3  1  0  0  0  0
  9 13  1  0  0  0  0
 10  7  1  1  0  0  0
 10  5  1  0  0  0  0
 11 16  2  0  0  0  0
 11  6  1  0  0  0  0
 12  8  1  0  0  0  0
 13 21  1  0  0  0  0
 15 28  1  0  0  0  0
 16 20  1  0  0  0  0
 17 13  1  0  0  0  0
 18  8  1  1  0  0  0
 19  5  1  6  0  0  0
 19 18  1  0  0  0  0
 20 15  1  0  0  0  0
 20  3  2  0  0  0  0
 21 27  1  0  0  0  0
 22  6  1  0  0  0  0
 22  2  1  0  0  0  0
 23 30  1  1  0  0  0
 23 10  1  0  0  0  0
 24  2  1  0  0  0  0
 25 19  1  0  0  0  0
 25 18  1  0  0  0  0
 27 25  1  0  0  0  0
 27  1  1  0  0  0  0
 28 23  1  0  0  0  0
 29 30  2  0  0  0  0
 29 35  1  0  0  0  0
 30 31  1  0  0  0  0
 31 34  2  0  0  0  0
 33 34  1  0  0  0  0
 34 32  1  0  0  0  0
 35 33  2  0  0  0  0
 36 37  1  0  0  0  0
M  END
>  <MODEL>
9

>  <REMARK>
 VINA RESULT:      -7.2      3.141      8.355
  Name = 
  2 active torsions:
  status: ('A' for Active; 'I' for Inactive)
    1  A    between atoms: C_4  and  C_37
    2  A    between atoms: C_23  and  C_30
                            x       y       z     vdW  Elec       q    Type
                         _______ _______ _______ _____ _____    ______ ____

>  <TORSDO>
F 2

$$$$
