=
 OpenBabel11112416123D

 30 35  0  0  1  0  0  0  0  0999 V2000
  186.4380  177.4700  143.8100 C   0  0  0  0  0  0  0  0  0  0  0  0
  184.7750  178.6120  145.3090 C   0  0  0  0  0  0  0  0  0  0  0  0
  188.5570  175.8680  147.1520 C   0  0  0  0  0  2  0  0  0  0  0  0
  187.5660  176.6160  143.6880 C   0  0  0  0  0  0  0  0  0  0  0  0
  185.9080  178.1690  142.5820 C   0  0  0  0  0  2  0  0  0  0  0  0
  187.6720  176.3250  140.0090 O   0  0  0  0  0  0  0  0  0  0  0  0
  190.4240  176.3170  142.7650 C   0  0  1  0  0  3  0  0  0  0  0  0
  187.2540  176.5970  141.1690 C   0  0  0  0  0  0  0  0  0  0  0  0
  190.6450  175.9940  144.2350 C   0  0  2  0  0  3  0  0  0  0  0  0
  189.6170  175.1000  146.3460 C   0  0  1  0  0  3  0  0  0  0  0  0
  186.0990  177.4240  141.3390 N   0  0  0  0  0  0  0  0  0  0  0  0
  187.8770  175.9400  142.3640 C   0  0  1  0  0  3  0  0  0  0  0  0
  184.3200  178.8810  146.6030 C   0  0  0  0  0  3  0  0  0  0  0  0
  191.7380  174.9800  144.1840 C   0  0  0  0  0  2  0  0  0  0  0  0
  191.6320  176.0970  142.0710 O   0  0  0  0  0  0  0  0  0  0  0  0
  184.0560  179.1550  144.2500 O   0  0  0  0  0  1  0  0  0  0  0  0
  187.7140  176.4850  146.0960 C   0  0  0  0  0  0  0  0  0  0  0  0
  184.9740  178.3570  147.7140 C   0  0  0  0  0  3  0  0  0  0  0  0
  185.9240  177.7970  145.1070 C   0  0  0  0  0  0  0  0  0  0  0  0
  188.2200  176.2070  144.8630 C   0  0  0  0  0  0  0  0  0  0  0  0
  189.3750  173.6090  146.4820 C   0  0  0  0  0  1  0  0  0  0  0  0
  189.4570  175.5010  144.9460 N   0  0  0  0  0  0  0  0  0  0  0  0
  192.4900  175.3830  142.9360 C   0  0  0  0  0  2  0  0  0  0  0  0
  189.5300  174.2990  141.6540 C   0  0  0  0  0  2  0  0  0  0  0  0
  186.0960  177.5530  147.5430 C   0  0  0  0  0  3  0  0  0  0  0  0
  186.5730  177.2680  146.2600 C   0  0  0  0  0  0  0  0  0  0  0  0
  189.3030  175.5160  142.1540 C   0  0  0  0  0  0  0  0  0  0  0  0
  185.2480  177.6990  140.1800 C   0  0  0  0  0  2  0  0  0  0  0  0
  183.0800  178.0660  140.3630 C   0  0  0  0  0  1  0  0  0  0  0  0
  184.3160  178.7020  140.4570 O   0  0  0  0  0  0  0  0  0  0  0  0
  1 19  1  0  0  0  0
  2 13  1  0  0  0  0
  4  1  2  0  0  0  0
  4 20  1  0  0  0  0
  5  1  1  0  0  0  0
  6  8  2  0  0  0  0
  7 15  1  6  0  0  0
  7  9  1  0  0  0  0
  8 11  1  0  0  0  0
  9 14  1  6  0  0  0
  9 22  1  0  0  0  0
 10 21  1  6  0  0  0
 10  3  1  0  0  0  0
 11  5  1  0  0  0  0
 12  8  1  6  0  0  0
 12  4  1  0  0  0  0
 13 18  2  0  0  0  0
 15 23  1  0  0  0  0
 16  2  1  0  0  0  0
 17 26  1  0  0  0  0
 17  3  1  0  0  0  0
 19  2  2  0  0  0  0
 19 26  1  0  0  0  0
 20 22  1  0  0  0  0
 20 17  2  0  0  0  0
 22 10  1  0  0  0  0
 23 14  1  0  0  0  0
 24 27  2  0  0  0  0
 25 18  1  0  0  0  0
 26 25  2  0  0  0  0
 27 12  1  0  0  0  0
 27  7  1  0  0  0  0
 28 30  1  0  0  0  0
 28 11  1  0  0  0  0
 29 30  1  0  0  0  0
M  END
>  <MODEL>
1

>  <REMARK>
 VINA RESULT:      -8.6      0.000      0.000
  Name = 
  2 active torsions:
  status: ('A' for Active; 'I' for Inactive)
    1  A    between atoms: N_11  and  C_28
    2  A    between atoms: C_28  and  O_30
                            x       y       z     vdW  Elec       q    Type
                         _______ _______ _______ _____ _____    ______ ____

>  <TORSDO>
F 2

$$$$
=
 OpenBabel11112416123D

 30 35  0  0  1  0  0  0  0  0999 V2000
  187.9530  177.1590  145.8710 C   0  0  0  0  0  0  0  0  0  0  0  0
  186.0650  178.2240  147.1420 C   0  0  0  0  0  0  0  0  0  0  0  0
  185.6960  177.1590  142.2480 C   0  0  0  0  0  2  0  0  0  0  0  0
  188.4630  176.6960  144.6290 C   0  0  0  0  0  0  0  0  0  0  0  0
  188.7410  176.8990  147.1320 C   0  0  0  0  0  2  0  0  0  0  0  0
  191.9040  175.8770  145.6880 O   0  0  0  0  0  0  0  0  0  0  0  0
  189.4960  174.3530  143.0330 C   0  0  1  0  0  3  0  0  0  0  0  0
  190.7310  176.3440  145.7130 C   0  0  0  0  0  0  0  0  0  0  0  0
  188.3190  174.7110  142.1380 C   0  0  2  0  0  3  0  0  0  0  0  0
  186.7820  176.5370  141.3550 C   0  0  1  0  0  3  0  0  0  0  0  0
  190.1890  176.8530  146.9350 N   0  0  0  0  0  0  0  0  0  0  0  0
  189.9570  176.4970  144.4390 C   0  0  1  0  0  3  0  0  0  0  0  0
  184.7720  178.7550  147.1400 C   0  0  0  0  0  3  0  0  0  0  0  0
  188.8330  174.3820  140.7770 C   0  0  0  0  0  2  0  0  0  0  0  0
  190.2470  173.3390  142.4010 O   0  0  0  0  0  0  0  0  0  0  0  0
  186.7640  178.2430  148.3440 O   0  0  0  0  0  1  0  0  0  0  0  0
  186.3560  177.2360  143.5760 C   0  0  0  0  0  0  0  0  0  0  0  0
  184.0170  178.7900  145.9710 C   0  0  0  0  0  3  0  0  0  0  0  0
  186.6310  177.7050  145.9440 C   0  0  0  0  0  0  0  0  0  0  0  0
  187.6000  176.6840  143.5190 C   0  0  0  0  0  0  0  0  0  0  0  0
  187.3020  177.5830  140.3870 C   0  0  0  0  0  1  0  0  0  0  0  0
  187.8640  176.1040  142.2430 N   0  0  0  0  0  0  0  0  0  0  0  0
  189.8010  173.2570  141.0640 C   0  0  0  0  0  2  0  0  0  0  0  0
  191.3510  175.9060  142.5320 C   0  0  0  0  0  2  0  0  0  0  0  0
  184.5490  178.2940  144.7860 C   0  0  0  0  0  3  0  0  0  0  0  0
  185.8400  177.7570  144.7600 C   0  0  0  0  0  0  0  0  0  0  0  0
  190.3660  175.5400  143.3560 C   0  0  0  0  0  0  0  0  0  0  0  0
  191.0910  177.1000  148.0620 C   0  0  0  0  0  2  0  0  0  0  0  0
  191.4990  178.1980  149.9320 C   0  0  0  0  0  1  0  0  0  0  0  0
  190.7030  178.2280  148.7890 O   0  0  0  0  0  0  0  0  0  0  0  0
  1 19  1  0  0  0  0
  1  5  1  0  0  0  0
  2 16  1  0  0  0  0
  3 17  1  0  0  0  0
  4  1  2  0  0  0  0
  6  8  2  0  0  0  0
  7 15  1  6  0  0  0
  7 27  1  0  0  0  0
  8 11  1  0  0  0  0
  9 14  1  6  0  0  0
  9 22  1  0  0  0  0
  9  7  1  0  0  0  0
 10 21  1  6  0  0  0
 10 22  1  0  0  0  0
 10  3  1  0  0  0  0
 11  5  1  0  0  0  0
 11 28  1  0  0  0  0
 12 27  1  6  0  0  0
 12  4  1  0  0  0  0
 12  8  1  0  0  0  0
 13  2  1  0  0  0  0
 14 23  1  0  0  0  0
 17 26  1  0  0  0  0
 18 13  2  0  0  0  0
 19  2  2  0  0  0  0
 20 17  2  0  0  0  0
 20  4  1  0  0  0  0
 22 20  1  0  0  0  0
 23 15  1  0  0  0  0
 24 27  2  0  0  0  0
 25 18  1  0  0  0  0
 26 25  2  0  0  0  0
 26 19  1  0  0  0  0
 28 30  1  0  0  0  0
 30 29  1  0  0  0  0
M  END
>  <MODEL>
2

>  <REMARK>
 VINA RESULT:      -8.6      2.458      5.217
  Name = 
  2 active torsions:
  status: ('A' for Active; 'I' for Inactive)
    1  A    between atoms: N_11  and  C_28
    2  A    between atoms: C_28  and  O_30
                            x       y       z     vdW  Elec       q    Type
                         _______ _______ _______ _____ _____    ______ ____

>  <TORSDO>
F 2

$$$$
=
 OpenBabel11112416123D

 30 35  0  0  1  0  0  0  0  0999 V2000
  188.4430  176.1710  143.2990 C   0  0  0  0  0  0  0  0  0  0  0  0
  186.1590  177.1420  143.6910 C   0  0  0  0  0  0  0  0  0  0  0  0
  189.7020  177.1840  147.2510 C   0  0  0  0  0  2  0  0  0  0  0  0
  189.7260  175.8520  143.8200 C   0  0  0  0  0  0  0  0  0  0  0  0
  188.1810  175.9820  141.8250 C   0  0  0  0  0  2  0  0  0  0  0  0
  191.0770  173.9990  140.9270 O   0  0  0  0  0  0  0  0  0  0  0  0
  192.7080  176.2760  143.6340 C   0  0  1  0  0  3  0  0  0  0  0  0
  190.2550  174.5830  141.6860 C   0  0  0  0  0  0  0  0  0  0  0  0
  192.5180  176.7600  145.0630 C   0  0  2  0  0  3  0  0  0  0  0  0
  191.1210  176.6010  147.1460 C   0  0  1  0  0  3  0  0  0  0  0  0
  188.9400  174.8920  141.2150 N   0  0  0  0  0  0  0  0  0  0  0  0
  190.6030  174.8270  143.1240 C   0  0  1  0  0  3  0  0  0  0  0  0
  185.2600  177.7710  144.5570 C   0  0  0  0  0  3  0  0  0  0  0  0
  193.7840  176.3310  145.7240 C   0  0  0  0  0  2  0  0  0  0  0  0
  194.0900  176.2410  143.3530 O   0  0  0  0  0  0  0  0  0  0  0  0
  185.7080  176.8310  142.4130 O   0  0  0  0  0  1  0  0  0  0  0  0
  189.1190  176.8880  145.9170 C   0  0  0  0  0  0  0  0  0  0  0  0
  185.6310  178.0950  145.8590 C   0  0  0  0  0  3  0  0  0  0  0  0
  187.4760  176.8260  144.1280 C   0  0  0  0  0  0  0  0  0  0  0  0
  190.0470  176.2990  145.1130 C   0  0  0  0  0  0  0  0  0  0  0  0
  191.2260  175.3650  148.0190 C   0  0  0  0  0  1  0  0  0  0  0  0
  191.3260  176.2330  145.7430 N   0  0  0  0  0  0  0  0  0  0  0  0
  194.7730  176.3780  144.5810 C   0  0  0  0  0  2  0  0  0  0  0  0
  192.7490  173.8050  143.6540 C   0  0  0  0  0  2  0  0  0  0  0  0
  186.9100  177.7920  146.3120 C   0  0  0  0  0  3  0  0  0  0  0  0
  187.8300  177.1640  145.4660 C   0  0  0  0  0  0  0  0  0  0  0  0
  192.0790  174.9290  143.3870 C   0  0  0  0  0  0  0  0  0  0  0  0
  188.4670  174.2700  139.9770 C   0  0  0  0  0  2  0  0  0  0  0  0
  188.5610  172.2930  139.0010 C   0  0  0  0  0  1  0  0  0  0  0  0
  188.1460  172.9240  140.1720 O   0  0  0  0  0  0  0  0  0  0  0  0
  1  4  2  0  0  0  0
  1 19  1  0  0  0  0
  2 19  2  0  0  0  0
  2 13  1  0  0  0  0
  4 20  1  0  0  0  0
  5  1  1  0  0  0  0
  6  8  2  0  0  0  0
  7 15  1  1  0  0  0
  7  9  1  0  0  0  0
  9 14  1  1  0  0  0
  9 22  1  0  0  0  0
 10  3  1  0  0  0  0
 10 21  1  1  0  0  0
 11  8  1  0  0  0  0
 11  5  1  0  0  0  0
 12  8  1  6  0  0  0
 12 27  1  0  0  0  0
 12  4  1  0  0  0  0
 13 18  2  0  0  0  0
 15 23  1  0  0  0  0
 16  2  1  0  0  0  0
 17  3  1  0  0  0  0
 18 25  1  0  0  0  0
 19 26  1  0  0  0  0
 20 22  1  0  0  0  0
 20 17  2  0  0  0  0
 22 10  1  0  0  0  0
 23 14  1  0  0  0  0
 26 17  1  0  0  0  0
 26 25  2  0  0  0  0
 27  7  1  0  0  0  0
 27 24  2  0  0  0  0
 28 30  1  0  0  0  0
 28 11  1  0  0  0  0
 29 30  1  0  0  0  0
M  END
>  <MODEL>
3

>  <REMARK>
 VINA RESULT:      -8.5      2.087      3.350
  Name = 
  2 active torsions:
  status: ('A' for Active; 'I' for Inactive)
    1  A    between atoms: N_11  and  C_28
    2  A    between atoms: C_28  and  O_30
                            x       y       z     vdW  Elec       q    Type
                         _______ _______ _______ _____ _____    ______ ____

>  <TORSDO>
F 2

$$$$
=
 OpenBabel11112416123D

 30 35  0  0  1  0  0  0  0  0999 V2000
  187.2910  176.5440  142.5990 C   0  0  0  0  0  0  0  0  0  0  0  0
  185.1910  177.9130  142.7720 C   0  0  0  0  0  0  0  0  0  0  0  0
  187.9370  176.7520  146.8140 C   0  0  0  0  0  2  0  0  0  0  0  0
  188.3710  175.8990  143.2600 C   0  0  0  0  0  0  0  0  0  0  0  0
  187.2850  176.6070  141.0910 C   0  0  0  0  0  2  0  0  0  0  0  0
  189.8870  174.1940  140.3580 O   0  0  0  0  0  0  0  0  0  0  0  0
  191.3590  175.7090  143.6300 C   0  0  1  0  0  3  0  0  0  0  0  0
  189.0560  174.8340  141.0610 C   0  0  0  0  0  0  0  0  0  0  0  0
  190.9920  176.0340  145.0700 C   0  0  2  0  0  3  0  0  0  0  0  0
  189.2190  175.9030  146.8450 C   0  0  1  0  0  3  0  0  0  0  0  0
  187.9340  175.4700  140.4410 N   0  0  0  0  0  0  0  0  0  0  0  0
  189.1620  174.8120  142.5560 C   0  0  1  0  0  3  0  0  0  0  0  0
  184.2740  178.5990  143.5730 C   0  0  0  0  0  3  0  0  0  0  0  0
  192.0090  175.2680  145.8460 C   0  0  0  0  0  2  0  0  0  0  0  0
  192.7400  175.4230  143.5740 O   0  0  0  0  0  0  0  0  0  0  0  0
  184.9430  177.8710  141.4050 O   0  0  0  0  0  1  0  0  0  0  0  0
  187.5750  176.7600  145.3730 C   0  0  0  0  0  0  0  0  0  0  0  0
  184.4430  178.6670  144.9540 C   0  0  0  0  0  3  0  0  0  0  0  0
  186.3200  177.2750  143.3580 C   0  0  0  0  0  0  0  0  0  0  0  0
  188.5160  176.0980  144.6440 C   0  0  0  0  0  0  0  0  0  0  0  0
  188.9280  174.5700  147.5080 C   0  0  0  0  0  1  0  0  0  0  0  0
  189.6170  175.6850  145.4520 N   0  0  0  0  0  0  0  0  0  0  0  0
  193.1890  175.2540  144.9020 C   0  0  0  0  0  2  0  0  0  0  0  0
  190.9430  173.3030  143.2490 C   0  0  0  0  0  2  0  0  0  0  0  0
  185.5350  178.0470  145.5510 C   0  0  0  0  0  3  0  0  0  0  0  0
  186.4680  177.3550  144.7720 C   0  0  0  0  0  0  0  0  0  0  0  0
  190.5540  174.5670  143.0660 C   0  0  0  0  0  0  0  0  0  0  0  0
  187.6000  175.1260  139.0580 C   0  0  0  0  0  2  0  0  0  0  0  0
  186.8380  175.7880  137.0950 C   0  0  0  0  0  1  0  0  0  0  0  0
  186.8640  176.1410  138.4430 O   0  0  0  0  0  0  0  0  0  0  0  0
  1  4  2  0  0  0  0
  1 19  1  0  0  0  0
  2 19  2  0  0  0  0
  2 13  1  0  0  0  0
  3 10  1  0  0  0  0
  4 20  1  0  0  0  0
  5  1  1  0  0  0  0
  6  8  2  0  0  0  0
  7 27  1  1  0  0  0
  7  9  1  0  0  0  0
  9 22  1  0  0  0  0
  9 14  1  1  0  0  0
 10 21  1  6  0  0  0
 11  8  1  0  0  0  0
 11  5  1  0  0  0  0
 12  8  1  6  0  0  0
 12 27  1  0  0  0  0
 12  4  1  0  0  0  0
 13 18  2  0  0  0  0
 15  7  1  0  0  0  0
 15 23  1  0  0  0  0
 16  2  1  0  0  0  0
 17  3  1  0  0  0  0
 18 25  1  0  0  0  0
 19 26  1  0  0  0  0
 20 17  2  0  0  0  0
 20 22  1  0  0  0  0
 22 10  1  0  0  0  0
 23 14  1  0  0  0  0
 26 17  1  0  0  0  0
 26 25  2  0  0  0  0
 27 24  2  0  0  0  0
 28 11  1  0  0  0  0
 29 30  1  0  0  0  0
 30 28  1  0  0  0  0
M  END
>  <MODEL>
4

>  <REMARK>
 VINA RESULT:      -8.3      1.597      2.394
  Name = 
  2 active torsions:
  status: ('A' for Active; 'I' for Inactive)
    1  A    between atoms: N_11  and  C_28
    2  A    between atoms: C_28  and  O_30
                            x       y       z     vdW  Elec       q    Type
                         _______ _______ _______ _____ _____    ______ ____

>  <TORSDO>
F 2

$$$$
=
 OpenBabel11112416123D

 30 35  0  0  1  0  0  0  0  0999 V2000
  187.1400  176.5610  142.2240 C   0  0  0  0  0  0  0  0  0  0  0  0
  185.2040  177.6490  141.0480 C   0  0  0  0  0  0  0  0  0  0  0  0
  185.9120  178.1380  145.9960 C   0  0  0  0  0  2  0  0  0  0  0  0
  187.8130  176.2880  143.4450 C   0  0  0  0  0  0  0  0  0  0  0  0
  187.7850  176.1530  140.9220 C   0  0  0  0  0  2  0  0  0  0  0  0
  190.3880  173.9670  142.1780 O   0  0  0  0  0  0  0  0  0  0  0  0
  190.3450  176.5870  145.0590 C   0  0  1  0  0  3  0  0  0  0  0  0
  189.3520  174.6870  142.2170 C   0  0  0  0  0  0  0  0  0  0  0  0
  189.4020  177.2940  146.0200 C   0  0  2  0  0  3  0  0  0  0  0  0
  187.0340  177.5040  146.8350 C   0  0  1  0  0  3  0  0  0  0  0  0
  188.6230  174.9580  141.0170 N   0  0  0  0  0  0  0  0  0  0  0  0
  188.8030  175.1410  143.5360 C   0  0  1  0  0  3  0  0  0  0  0  0
  184.0490  178.4330  141.1200 C   0  0  0  0  0  3  0  0  0  0  0  0
  189.9660  176.9350  147.3530 C   0  0  0  0  0  2  0  0  0  0  0  0
  191.6070  176.4670  145.6780 O   0  0  0  0  0  0  0  0  0  0  0  0
  185.5690  177.1570  139.7990 O   0  0  0  0  0  1  0  0  0  0  0  0
  186.2060  177.6560  144.6220 C   0  0  0  0  0  0  0  0  0  0  0  0
  183.6090  178.9450  142.3380 C   0  0  0  0  0  3  0  0  0  0  0  0
  185.9550  177.3660  142.2230 C   0  0  0  0  0  0  0  0  0  0  0  0
  187.3530  176.9210  144.6130 C   0  0  0  0  0  0  0  0  0  0  0  0
  186.4530  176.4160  147.7180 C   0  0  0  0  0  1  0  0  0  0  0  0
  187.9870  176.9160  145.8900 N   0  0  0  0  0  0  0  0  0  0  0  0
  191.4370  176.7730  147.0450 C   0  0  0  0  0  2  0  0  0  0  0  0
  190.0740  174.1490  145.3610 C   0  0  0  0  0  2  0  0  0  0  0  0
  184.3210  178.6770  143.5020 C   0  0  0  0  0  3  0  0  0  0  0  0
  185.4810  177.8980  143.4570 C   0  0  0  0  0  0  0  0  0  0  0  0
  189.8330  175.2370  144.6260 C   0  0  0  0  0  0  0  0  0  0  0  0
  188.9090  174.1650  139.8190 C   0  0  0  0  0  2  0  0  0  0  0  0
  188.9420  172.1170  139.0000 C   0  0  0  0  0  1  0  0  0  0  0  0
  188.2000  172.9610  139.8230 O   0  0  0  0  0  0  0  0  0  0  0  0
  1  4  1  0  0  0  0
  2 13  2  0  0  0  0
  2 19  1  0  0  0  0
  3 10  1  0  0  0  0
  4 12  1  0  0  0  0
  4 20  2  0  0  0  0
  5 11  1  0  0  0  0
  5  1  1  0  0  0  0
  6  8  2  0  0  0  0
  7 27  1  1  0  0  0
  7 15  1  0  0  0  0
  7  9  1  0  0  0  0
  9 14  1  1  0  0  0
 10 21  1  1  0  0  0
 11  8  1  0  0  0  0
 12  8  1  6  0  0  0
 12 27  1  0  0  0  0
 13 18  1  0  0  0  0
 15 23  1  0  0  0  0
 16  2  1  0  0  0  0
 17  3  1  0  0  0  0
 18 25  2  0  0  0  0
 19  1  2  0  0  0  0
 19 26  1  0  0  0  0
 20 17  1  0  0  0  0
 20 22  1  0  0  0  0
 22  9  1  0  0  0  0
 22 10  1  0  0  0  0
 23 14  1  0  0  0  0
 26 25  1  0  0  0  0
 26 17  2  0  0  0  0
 27 24  2  0  0  0  0
 28 30  1  0  0  0  0
 28 11  1  0  0  0  0
 29 30  1  0  0  0  0
M  END
>  <MODEL>
5

>  <REMARK>
 VINA RESULT:      -7.9      1.898      4.028
  Name = 
  2 active torsions:
  status: ('A' for Active; 'I' for Inactive)
    1  A    between atoms: N_11  and  C_28
    2  A    between atoms: C_28  and  O_30
                            x       y       z     vdW  Elec       q    Type
                         _______ _______ _______ _____ _____    ______ ____

>  <TORSDO>
F 2

$$$$
=
 OpenBabel11112416123D

 30 35  0  0  1  0  0  0  0  0999 V2000
  189.0210  173.8910  141.6680 C   0  0  0  0  0  0  0  0  0  0  0  0
  190.4680  171.8520  141.9180 C   0  0  0  0  0  0  0  0  0  0  0  0
  189.6630  175.0150  145.7360 C   0  0  0  0  0  2  0  0  0  0  0  0
  188.4860  175.0720  142.2500 C   0  0  0  0  0  0  0  0  0  0  0  0
  188.5450  173.4650  140.3010 C   0  0  0  0  0  2  0  0  0  0  0  0
  186.8410  176.4900  139.2650 O   0  0  0  0  0  0  0  0  0  0  0  0
  186.0110  176.5910  143.0690 C   0  0  1  0  0  3  0  0  0  0  0  0
  187.5730  175.7520  139.9820 C   0  0  0  0  0  0  0  0  0  0  0  0
  186.6650  176.5050  144.4400 C   0  0  2  0  0  3  0  0  0  0  0  0
  188.8270  176.3050  145.7050 C   0  0  1  0  0  3  0  0  0  0  0  0
  188.1610  174.5720  139.4270 N   0  0  0  0  0  0  0  0  0  0  0  0
  187.9430  176.1830  141.3690 C   0  0  1  0  0  3  0  0  0  0  0  0
  191.2910  171.0620  142.7260 C   0  0  0  0  0  3  0  0  0  0  0  0
  186.2630  177.7930  145.0740 C   0  0  0  0  0  2  0  0  0  0  0  0
  184.8670  177.4100  143.1700 O   0  0  0  0  0  0  0  0  0  0  0  0
  190.2850  171.4480  140.6000 O   0  0  0  0  0  1  0  0  0  0  0  0
  189.5420  174.5020  144.3470 C   0  0  0  0  0  0  0  0  0  0  0  0
  191.5390  171.4110  144.0510 C   0  0  0  0  0  3  0  0  0  0  0  0
  189.8640  173.0290  142.4420 C   0  0  0  0  0  0  0  0  0  0  0  0
  188.7120  175.2990  143.6180 C   0  0  0  0  0  0  0  0  0  0  0  0
  189.7470  177.5070  145.8000 C   0  0  0  0  0  1  0  0  0  0  0  0
  188.1230  176.3220  144.4200 N   0  0  0  0  0  0  0  0  0  0  0  0
  184.9320  178.0730  144.4150 C   0  0  0  0  0  2  0  0  0  0  0  0
  187.0920  178.4220  141.8090 C   0  0  0  0  0  2  0  0  0  0  0  0
  190.9650  172.5600  144.5840 C   0  0  0  0  0  3  0  0  0  0  0  0
  190.1370  173.3680  143.7990 C   0  0  0  0  0  0  0  0  0  0  0  0
  186.9470  177.1090  142.0080 C   0  0  0  0  0  0  0  0  0  0  0  0
  188.1530  174.3920  137.9740 C   0  0  0  0  0  2  0  0  0  0  0  0
  189.3180  173.0790  136.6370 C   0  0  0  0  0  1  0  0  0  0  0  0
  189.4430  174.1830  137.4790 O   0  0  0  0  0  0  0  0  0  0  0  0
  1  4  2  0  0  0  0
  1 19  1  0  0  0  0
  2 19  2  0  0  0  0
  2 13  1  0  0  0  0
  4 20  1  0  0  0  0
  5  1  1  0  0  0  0
  6  8  2  0  0  0  0
  7 27  1  6  0  0  0
  7 15  1  0  0  0  0
  7  9  1  0  0  0  0
  9 14  1  1  0  0  0
 10  3  1  0  0  0  0
 10 21  1  6  0  0  0
 11  8  1  0  0  0  0
 11  5  1  0  0  0  0
 12  8  1  6  0  0  0
 12 27  1  0  0  0  0
 12  4  1  0  0  0  0
 13 18  2  0  0  0  0
 15 23  1  0  0  0  0
 16  2  1  0  0  0  0
 17  3  1  0  0  0  0
 18 25  1  0  0  0  0
 19 26  1  0  0  0  0
 20 17  2  0  0  0  0
 20 22  1  0  0  0  0
 22  9  1  0  0  0  0
 22 10  1  0  0  0  0
 23 14  1  0  0  0  0
 24 27  2  0  0  0  0
 26 17  1  0  0  0  0
 26 25  2  0  0  0  0
 28 11  1  0  0  0  0
 29 30  1  0  0  0  0
 30 28  1  0  0  0  0
M  END
>  <MODEL>
6

>  <REMARK>
 VINA RESULT:      -7.5      2.469      5.966
  Name = 
  2 active torsions:
  status: ('A' for Active; 'I' for Inactive)
    1  A    between atoms: N_11  and  C_28
    2  A    between atoms: C_28  and  O_30
                            x       y       z     vdW  Elec       q    Type
                         _______ _______ _______ _____ _____    ______ ____

>  <TORSDO>
F 2

$$$$
=
 OpenBabel11112416123D

 30 35  0  0  1  0  0  0  0  0999 V2000
  188.5280  175.3270  141.9980 C   0  0  0  0  0  0  0  0  0  0  0  0
  187.3750  176.0570  139.8880 C   0  0  0  0  0  0  0  0  0  0  0  0
  186.5950  178.3810  144.2720 C   0  0  0  0  0  2  0  0  0  0  0  0
  188.6990  175.4900  143.3990 C   0  0  0  0  0  0  0  0  0  0  0  0
  189.4310  174.3750  141.2530 C   0  0  0  0  0  2  0  0  0  0  0  0
  190.9100  172.6050  144.0480 O   0  0  0  0  0  0  0  0  0  0  0  0
  190.5940  176.1380  145.6560 C   0  0  1  0  0  3  0  0  0  0  0  0
  190.1170  173.3850  143.4500 C   0  0  0  0  0  0  0  0  0  0  0  0
  189.5950  177.2600  145.8950 C   0  0  2  0  0  3  0  0  0  0  0  0
  187.2130  178.0160  145.6310 C   0  0  1  0  0  3  0  0  0  0  0  0
  189.8860  173.2350  142.0470 N   0  0  0  0  0  0  0  0  0  0  0  0
  189.3080  174.3760  144.2320 C   0  0  1  0  0  3  0  0  0  0  0  0
  186.4770  176.9190  139.2530 C   0  0  0  0  0  3  0  0  0  0  0  0
  189.6110  177.4000  147.3800 C   0  0  0  0  0  2  0  0  0  0  0  0
  191.5330  176.1430  146.7100 O   0  0  0  0  0  0  0  0  0  0  0  0
  187.9830  175.0780  139.1090 O   0  0  0  0  0  1  0  0  0  0  0  0
  187.1800  177.3690  143.3550 C   0  0  0  0  0  0  0  0  0  0  0  0
  185.8140  177.9120  139.9690 C   0  0  0  0  0  3  0  0  0  0  0  0
  187.6300  176.1840  141.2820 C   0  0  0  0  0  0  0  0  0  0  0  0
  188.0620  176.5750  144.0250 C   0  0  0  0  0  0  0  0  0  0  0  0
  186.1430  177.4300  146.5330 C   0  0  0  0  0  1  0  0  0  0  0  0
  188.2450  177.0090  145.3710 N   0  0  0  0  0  0  0  0  0  0  0  0
  191.0210  176.9790  147.7260 C   0  0  0  0  0  2  0  0  0  0  0  0
  189.6690  174.0590  146.6200 C   0  0  0  0  0  2  0  0  0  0  0  0
  186.0410  178.0530  141.3340 C   0  0  0  0  0  3  0  0  0  0  0  0
  186.9360  177.2040  141.9930 C   0  0  0  0  0  0  0  0  0  0  0  0
  189.9370  174.7880  145.5330 C   0  0  0  0  0  0  0  0  0  0  0  0
  190.3340  172.0100  141.3820 C   0  0  0  0  0  2  0  0  0  0  0  0
  192.3290  171.1090  141.1020 C   0  0  0  0  0  1  0  0  0  0  0  0
  191.5520  172.2020  140.7250 O   0  0  0  0  0  0  0  0  0  0  0  0
  1  4  1  0  0  0  0
  2 19  1  0  0  0  0
  3 10  1  0  0  0  0
  4 20  2  0  0  0  0
  5  1  1  0  0  0  0
  5 11  1  0  0  0  0
  7 27  1  1  0  0  0
  7  9  1  0  0  0  0
  7 15  1  0  0  0  0
  8  6  2  0  0  0  0
  8 12  1  0  0  0  0
  9 14  1  1  0  0  0
 10 21  1  1  0  0  0
 11  8  1  0  0  0  0
 12  4  1  6  0  0  0
 12 27  1  0  0  0  0
 13  2  2  0  0  0  0
 13 18  1  0  0  0  0
 14 23  1  0  0  0  0
 15 23  1  0  0  0  0
 16  2  1  0  0  0  0
 17 20  1  0  0  0  0
 17  3  1  0  0  0  0
 18 25  2  0  0  0  0
 19 26  1  0  0  0  0
 19  1  2  0  0  0  0
 20 22  1  0  0  0  0
 22 10  1  0  0  0  0
 22  9  1  0  0  0  0
 25 26  1  0  0  0  0
 26 17  2  0  0  0  0
 27 24  2  0  0  0  0
 28 11  1  0  0  0  0
 30 29  1  0  0  0  0
 30 28  1  0  0  0  0
M  END
>  <MODEL>
7

>  <REMARK>
 VINA RESULT:      -7.3      2.512      5.572
  Name = 
  2 active torsions:
  status: ('A' for Active; 'I' for Inactive)
    1  A    between atoms: N_11  and  C_28
    2  A    between atoms: C_28  and  O_30
                            x       y       z     vdW  Elec       q    Type
                         _______ _______ _______ _____ _____    ______ ____

>  <TORSDO>
F 2

$$$$
=
 OpenBabel11112416123D

 30 35  0  0  1  0  0  0  0  0999 V2000
  189.9200  174.9430  142.5850 C   0  0  0  0  0  0  0  0  0  0  0  0
  187.8520  176.2060  141.9180 C   0  0  0  0  0  0  0  0  0  0  0  0
  190.2780  177.1730  146.2080 C   0  0  0  0  0  2  0  0  0  0  0  0
  190.9320  174.7090  143.5530 C   0  0  0  0  0  0  0  0  0  0  0  0
  190.0200  174.2670  141.2390 C   0  0  0  0  0  2  0  0  0  0  0  0
  192.5970  171.8250  141.9600 O   0  0  0  0  0  0  0  0  0  0  0  0
  193.8820  174.7480  144.1900 C   0  0  1  0  0  3  0  0  0  0  0  0
  191.7380  172.7180  142.2010 C   0  0  0  0  0  0  0  0  0  0  0  0
  193.4250  175.7270  145.2610 C   0  0  2  0  0  3  0  0  0  0  0  0
  191.5300  176.4570  146.7410 C   0  0  1  0  0  3  0  0  0  0  0  0
  190.6800  172.9640  141.2700 N   0  0  0  0  0  0  0  0  0  0  0  0
  191.7390  173.4230  143.5240 C   0  0  1  0  0  3  0  0  0  0  0  0
  186.9020  177.1860  142.2170 C   0  0  0  0  0  3  0  0  0  0  0  0
  194.3640  175.4420  146.3850 C   0  0  0  0  0  2  0  0  0  0  0  0
  195.2540  174.4830  144.3820 O   0  0  0  0  0  0  0  0  0  0  0  0
  187.6980  175.5050  140.7270 O   0  0  0  0  0  1  0  0  0  0  0  0
  190.0170  176.4780  144.9210 C   0  0  0  0  0  0  0  0  0  0  0  0
  186.9760  177.9160  143.4000 C   0  0  0  0  0  3  0  0  0  0  0  0
  188.9200  175.9410  142.8210 C   0  0  0  0  0  0  0  0  0  0  0  0
  190.9870  175.5540  144.6750 C   0  0  0  0  0  0  0  0  0  0  0  0
  191.1560  175.6090  147.9420 C   0  0  0  0  0  1  0  0  0  0  0  0
  192.0170  175.5950  145.6610 N   0  0  0  0  0  0  0  0  0  0  0  0
  195.6060  174.9820  145.6550 C   0  0  0  0  0  2  0  0  0  0  0  0
  193.4260  172.4550  144.9910 C   0  0  0  0  0  2  0  0  0  0  0  0
  188.0070  177.6720  144.3020 C   0  0  0  0  0  3  0  0  0  0  0  0
  188.9720  176.6980  144.0270 C   0  0  0  0  0  0  0  0  0  0  0  0
  193.0850  173.4690  144.1910 C   0  0  0  0  0  0  0  0  0  0  0  0
  190.4330  171.9900  140.2060 C   0  0  0  0  0  2  0  0  0  0  0  0
  191.7390  171.9930  138.4270 C   0  0  0  0  0  1  0  0  0  0  0  0
  190.5790  172.5670  138.9420 O   0  0  0  0  0  0  0  0  0  0  0  0
  1 19  2  0  0  0  0
  1  4  1  0  0  0  0
  2 13  2  0  0  0  0
  2 19  1  0  0  0  0
  3 10  1  0  0  0  0
  4 20  2  0  0  0  0
  5 11  1  0  0  0  0
  5  1  1  0  0  0  0
  6  8  2  0  0  0  0
  7 27  1  1  0  0  0
  7 15  1  0  0  0  0
  7  9  1  0  0  0  0
  9 22  1  0  0  0  0
  9 14  1  1  0  0  0
 10 21  1  1  0  0  0
 11  8  1  0  0  0  0
 12  8  1  6  0  0  0
 12  4  1  0  0  0  0
 12 27  1  0  0  0  0
 13 18  1  0  0  0  0
 15 23  1  0  0  0  0
 16  2  1  0  0  0  0
 17  3  1  0  0  0  0
 18 25  2  0  0  0  0
 19 26  1  0  0  0  0
 20 17  1  0  0  0  0
 20 22  1  0  0  0  0
 22 10  1  0  0  0  0
 23 14  1  0  0  0  0
 26 25  1  0  0  0  0
 26 17  2  0  0  0  0
 27 24  2  0  0  0  0
 28 11  1  0  0  0  0
 29 30  1  0  0  0  0
 30 28  1  0  0  0  0
M  END
>  <MODEL>
8

>  <REMARK>
 VINA RESULT:      -7.2      2.973      5.170
  Name = 
  2 active torsions:
  status: ('A' for Active; 'I' for Inactive)
    1  A    between atoms: N_11  and  C_28
    2  A    between atoms: C_28  and  O_30
                            x       y       z     vdW  Elec       q    Type
                         _______ _______ _______ _____ _____    ______ ____

>  <TORSDO>
F 2

$$$$
=
 OpenBabel11112416123D

 30 35  0  0  1  0  0  0  0  0999 V2000
  191.1840  175.7950  144.9320 C   0  0  0  0  0  0  0  0  0  0  0  0
  193.4940  174.8240  145.1220 C   0  0  0  0  0  0  0  0  0  0  0  0
  190.5260  173.8520  141.1880 C   0  0  0  0  0  2  0  0  0  0  0  0
  189.9640  175.8780  144.2080 C   0  0  0  0  0  0  0  0  0  0  0  0
  191.3980  176.7040  146.1180 C   0  0  0  0  0  2  0  0  0  0  0  0
  188.0140  177.9070  146.5980 O   0  0  0  0  0  0  0  0  0  0  0  0
  188.0260  177.6410  142.7120 C   0  0  1  0  0  3  0  0  0  0  0  0
  188.9400  177.1920  146.1230 C   0  0  0  0  0  0  0  0  0  0  0  0
  188.3490  176.6790  141.5790 C   0  0  2  0  0  3  0  0  0  0  0  0
  189.0910  174.3580  140.9680 C   0  0  1  0  0  3  0  0  0  0  0  0
  190.1730  177.0520  146.8350 N   0  0  0  0  0  0  0  0  0  0  0  0
  188.7020  176.3770  144.8880 C   0  0  1  0  0  3  0  0  0  0  0  0
  194.4970  174.0120  144.5860 C   0  0  0  0  0  3  0  0  0  0  0  0
  187.0560  176.6000  140.8400 C   0  0  0  0  0  2  0  0  0  0  0  0
  186.9950  178.5050  142.2860 O   0  0  0  0  0  0  0  0  0  0  0  0
  193.7510  175.4400  146.3420 O   0  0  0  0  0  1  0  0  0  0  0  0
  190.8970  174.4520  142.4950 C   0  0  0  0  0  0  0  0  0  0  0  0
  194.3070  173.3460  143.3780 C   0  0  0  0  0  3  0  0  0  0  0  0
  192.2590  174.9890  144.4350 C   0  0  0  0  0  0  0  0  0  0  0  0
  189.8920  175.2490  142.9540 C   0  0  0  0  0  0  0  0  0  0  0  0
  188.1190  173.2030  141.1160 C   0  0  0  0  0  1  0  0  0  0  0  0
  188.8310  175.3580  142.0060 N   0  0  0  0  0  0  0  0  0  0  0  0
  186.4550  177.9630  141.0990 C   0  0  0  0  0  2  0  0  0  0  0  0
  186.3730  176.5590  144.1980 C   0  0  0  0  0  2  0  0  0  0  0  0
  193.1070  173.4860  142.6900 C   0  0  0  0  0  3  0  0  0  0  0  0
  192.0870  174.2940  143.2030 C   0  0  0  0  0  0  0  0  0  0  0  0
  187.6380  176.9330  143.9850 C   0  0  0  0  0  0  0  0  0  0  0  0
  190.2380  177.4890  148.2310 C   0  0  0  0  0  2  0  0  0  0  0  0
  191.5400  178.1890  149.8690 C   0  0  0  0  0  1  0  0  0  0  0  0
  191.5320  177.3670  148.7450 O   0  0  0  0  0  0  0  0  0  0  0  0
  1  5  1  0  0  0  0
  2 16  1  0  0  0  0
  3 17  1  0  0  0  0
  4 12  1  0  0  0  0
  4  1  2  0  0  0  0
  5 11  1  0  0  0  0
  7 15  1  6  0  0  0
  7 27  1  0  0  0  0
  8  6  2  0  0  0  0
  8 11  1  0  0  0  0
  9 14  1  1  0  0  0
  9 22  1  0  0  0  0
  9  7  1  0  0  0  0
 10 21  1  1  0  0  0
 10  3  1  0  0  0  0
 10 22  1  0  0  0  0
 11 28  1  0  0  0  0
 12 27  1  6  0  0  0
 12  8  1  0  0  0  0
 13  2  1  0  0  0  0
 14 23  1  0  0  0  0
 17 20  2  0  0  0  0
 17 26  1  0  0  0  0
 18 13  2  0  0  0  0
 19  1  1  0  0  0  0
 19  2  2  0  0  0  0
 20  4  1  0  0  0  0
 22 20  1  0  0  0  0
 23 15  1  0  0  0  0
 25 26  2  0  0  0  0
 25 18  1  0  0  0  0
 26 19  1  0  0  0  0
 27 24  2  0  0  0  0
 28 30  1  0  0  0  0
 30 29  1  0  0  0  0
M  END
>  <MODEL>
9

>  <REMARK>
 VINA RESULT:      -7.0      2.563      7.161
  Name = 
  2 active torsions:
  status: ('A' for Active; 'I' for Inactive)
    1  A    between atoms: N_11  and  C_28
    2  A    between atoms: C_28  and  O_30
                            x       y       z     vdW  Elec       q    Type
                         _______ _______ _______ _____ _____    ______ ____

>  <TORSDO>
F 2

$$$$
