=
 OpenBabel11112417213D

 37 43  0  0  1  0  0  0  0  0999 V2000
  196.0210  175.9180  143.8010 C   0  0  0  0  0  0  0  0  0  0  0  0
  192.0970  176.2630  144.7130 C   0  0  2  0  0  3  0  0  0  0  0  0
  189.4610  175.5010  141.9290 O   0  0  0  0  0  0  0  0  0  0  0  0
  194.3120  176.2190  145.6730 C   0  0  0  0  0  0  0  0  0  0  0  0
  191.3920  175.4920  143.6320 C   0  0  1  0  0  3  0  0  0  0  0  0
  193.3250  175.4270  144.8700 C   0  0  2  0  0  3  0  0  0  0  0  0
  190.1550  176.2160  142.9700 C   0  0  2  0  0  3  0  0  0  0  0  0
  193.8450  176.7890  146.7980 C   0  0  0  0  0  3  0  0  0  0  0  0
  193.6820  175.0040  143.4540 C   0  0  2  0  0  3  0  0  0  0  0  0
  196.5860  174.5240  144.0190 C   0  0  0  0  0  1  0  0  0  0  0  0
  190.3530  177.4940  146.1330 C   0  0  0  0  0  2  0  0  0  0  0  0
  192.4040  176.5560  147.2440 C   0  0  0  0  0  2  0  0  0  0  0  0
  194.8010  175.8710  142.8730 C   0  0  0  0  0  2  0  0  0  0  0  0
  189.8130  173.3610  140.6600 C   0  0  1  0  0  3  0  0  0  0  0  0
  189.8710  174.1640  141.9300 C   0  0  1  0  0  3  0  0  0  0  0  0
  191.3920  176.3680  146.0750 C   0  0  2  0  0  3  0  0  0  0  0  0
  192.4570  175.1550  142.6610 N   0  0  1  0  0  0  0  0  0  0  0  0
  195.6840  176.5590  145.1560 C   0  0  0  0  0  2  0  0  0  0  0  0
  189.1580  176.7210  144.0330 C   0  0  1  0  0  3  0  0  0  0  0  0
  197.0910  176.7590  143.1370 C   0  0  0  0  0  1  0  0  0  0  0  0
  191.0650  174.1700  140.9910 C   0  0  1  0  0  3  0  0  0  0  0  0
  192.1500  173.8780  142.0080 C   0  0  0  0  0  2  0  0  0  0  0  0
  189.7480  177.9040  144.7900 C   0  0  0  0  0  2  0  0  0  0  0  0
  187.7850  177.3570  142.1150 C   0  0  0  0  0  3  0  0  0  0  0  0
  187.8380  177.1260  143.4380 C   0  0  0  0  0  0  0  0  0  0  0  0
  186.6680  177.4490  144.3480 C   0  0  0  0  0  2  0  0  0  0  0  0
  184.3380  178.2990  144.5030 C   0  0  0  0  0  1  0  0  0  0  0  0
  185.5780  178.5110  142.3630 C   0  0  0  0  0  2  0  0  0  0  0  0
  185.3530  177.6420  143.5920 C   0  0  1  0  0  3  0  0  0  0  0  0
  186.5220  177.7800  141.4150 C   0  0  0  0  0  2  0  0  0  0  0  0
  190.5730  169.0600  141.1280 O   0  0  0  0  0  0  0  0  0  0  0  0
  190.8160  169.6570  140.0450 C   0  0  0  0  0  0  0  0  0  0  0  0
  190.0220  171.9060  140.9380 C   0  0  0  0  0  0  0  0  0  0  0  0
  190.5580  171.0610  139.9110 N   0  0  0  0  0  2  0  0  0  0  0  0
  189.6920  171.4320  142.0580 O   0  0  0  0  0  0  0  0  0  0  0  0
  190.5330  168.5010  137.8940 C   0  0  0  0  0  1  0  0  0  0  0  0
  191.3420  168.9320  138.9770 O   0  0  0  0  0  0  0  0  0  0  0  0
  1 10  1  0  0  0  0
  1 18  1  0  0  0  0
  2  6  1  0  0  0  0
  2 16  1  0  0  0  0
  3 15  1  0  0  0  0
  3  7  1  0  0  0  0
  4  8  2  0  0  0  0
  5  2  1  0  0  0  0
  6  4  1  0  0  0  0
  7  5  1  0  0  0  0
  7 19  1  0  0  0  0
  8 12  1  0  0  0  0
  9  6  1  0  0  0  0
 13  9  1  0  0  0  0
 13  1  1  0  0  0  0
 14 33  1  0  0  0  0
 14 21  1  0  0  0  0
 14 15  1  0  0  0  0
 16 11  1  0  0  0  0
 16 12  1  0  0  0  0
 17  9  1  0  0  0  0
 17  5  1  0  0  0  0
 18  4  1  0  0  0  0
 19 23  1  0  0  0  0
 20  1  1  0  0  0  0
 21 15  1  0  0  0  0
 21 22  1  0  0  0  0
 22 17  1  0  0  0  0
 23 11  1  0  0  0  0
 24 25  2  0  0  0  0
 25 19  1  0  0  0  0
 25 26  1  0  0  0  0
 28 29  1  0  0  0  0
 29 26  1  0  0  0  0
 29 27  1  0  0  0  0
 30 24  1  0  0  0  0
 30 28  1  0  0  0  0
 32 31  2  0  0  0  0
 33 35  2  0  0  0  0
 34 32  1  0  0  0  0
 34 33  1  0  0  0  0
 36 37  1  0  0  0  0
 37 32  1  0  0  0  0
M  END
>  <MODEL>
1

>  <REMARK>
 VINA RESULT:      -8.6      0.000      0.000
  Name = 
  3 active torsions:
  status: ('A' for Active; 'I' for Inactive)
    1  A    between atoms: C_4  and  O_37
    2  A    between atoms: C_8  and  C_18
    3  A    between atoms: C_23  and  C_30
                            x       y       z     vdW  Elec       q    Type
                         _______ _______ _______ _____ _____    ______ ____

>  <TORSDO>
F 3

$$$$
=
 OpenBabel11112417213D

 37 43  0  0  1  0  0  0  0  0999 V2000
  194.4760  175.7450  145.2670 C   0  0  0  0  0  0  0  0  0  0  0  0
  193.4130  174.6790  141.5150 C   0  0  2  0  0  3  0  0  0  0  0  0
  189.8410  173.2010  140.9360 O   0  0  0  0  0  0  0  0  0  0  0  0
  195.0970  175.8440  142.7940 C   0  0  0  0  0  0  0  0  0  0  0  0
  191.9130  174.5970  141.5600 C   0  0  1  0  0  3  0  0  0  0  0  0
  193.6390  175.8220  142.4490 C   0  0  2  0  0  3  0  0  0  0  0  0
  191.2770  173.3070  140.9070 C   0  0  2  0  0  3  0  0  0  0  0  0
  195.9560  175.7520  141.7620 C   0  0  0  0  0  3  0  0  0  0  0  0
  192.6130  175.6220  143.5520 C   0  0  2  0  0  3  0  0  0  0  0  0
  194.1140  177.1770  145.6290 C   0  0  0  0  0  1  0  0  0  0  0  0
  194.2310  173.7840  139.2560 C   0  0  0  0  0  2  0  0  0  0  0  0
  195.4400  175.7110  140.3270 C   0  0  0  0  0  2  0  0  0  0  0  0
  193.2370  174.9760  144.7910 C   0  0  0  0  0  2  0  0  0  0  0  0
  187.9530  174.4920  141.9780 C   0  0  1  0  0  3  0  0  0  0  0  0
  189.2910  174.4360  141.2920 C   0  0  1  0  0  3  0  0  0  0  0  0
  194.0580  175.0100  140.1600 C   0  0  2  0  0  3  0  0  0  0  0  0
  191.5750  174.7510  142.9920 N   0  0  1  0  0  0  0  0  0  0  0  0
  195.5920  175.7420  144.2120 C   0  0  0  0  0  2  0  0  0  0  0  0
  191.8040  173.0780  139.4750 C   0  0  1  0  0  3  0  0  0  0  0  0
  195.0060  175.0670  146.5130 C   0  0  0  0  0  1  0  0  0  0  0  0
  189.2270  174.3600  142.8090 C   0  0  1  0  0  3  0  0  0  0  0  0
  190.2720  175.4110  143.1290 C   0  0  0  0  0  2  0  0  0  0  0  0
  193.2600  172.6310  139.5140 C   0  0  0  0  0  2  0  0  0  0  0  0
  190.9080  170.8190  139.2310 C   0  0  0  0  0  3  0  0  0  0  0  0
  190.9960  172.0580  138.7210 C   0  0  0  0  0  0  0  0  0  0  0  0
  190.4730  172.3860  137.3360 C   0  0  0  0  0  2  0  0  0  0  0  0
  189.3160  171.5410  135.3060 C   0  0  0  0  0  1  0  0  0  0  0  0
  190.0550  169.9370  137.0500 C   0  0  0  0  0  2  0  0  0  0  0  0
  189.5060  171.3330  136.7920 C   0  0  1  0  0  3  0  0  0  0  0  0
  190.1380  169.7150  138.5560 C   0  0  0  0  0  2  0  0  0  0  0  0
  186.2140  178.5050  142.3870 O   0  0  0  0  0  0  0  0  0  0  0  0
  185.8850  177.5640  143.1580 C   0  0  0  0  0  0  0  0  0  0  0  0
  187.4290  175.8930  142.0130 C   0  0  0  0  0  0  0  0  0  0  0  0
  186.4620  176.2600  143.0060 N   0  0  0  0  0  2  0  0  0  0  0  0
  187.8140  176.7240  141.1480 O   0  0  0  0  0  0  0  0  0  0  0  0
  184.2510  179.0400  144.2510 C   0  0  0  0  0  1  0  0  0  0  0  0
  184.9520  177.8090  144.1640 O   0  0  0  0  0  0  0  0  0  0  0  0
  1 10  1  0  0  0  0
  1 20  1  0  0  0  0
  2  5  1  0  0  0  0
  2  6  1  0  0  0  0
  3 15  1  0  0  0  0
  4 18  1  0  0  0  0
  5 17  1  0  0  0  0
  6  4  1  0  0  0  0
  6  9  1  0  0  0  0
  7  3  1  0  0  0  0
  7  5  1  0  0  0  0
  8  4  2  0  0  0  0
  9 13  1  0  0  0  0
 11 23  1  0  0  0  0
 11 16  1  0  0  0  0
 12  8  1  0  0  0  0
 13  1  1  0  0  0  0
 14 33  1  0  0  0  0
 14 21  1  0  0  0  0
 15 14  1  0  0  0  0
 15 21  1  0  0  0  0
 16 12  1  0  0  0  0
 16  2  1  0  0  0  0
 17 22  1  0  0  0  0
 17  9  1  0  0  0  0
 18  1  1  0  0  0  0
 19 23  1  0  0  0  0
 19  7  1  0  0  0  0
 21 22  1  0  0  0  0
 25 24  2  0  0  0  0
 25 19  1  0  0  0  0
 26 25  1  0  0  0  0
 27 29  1  0  0  0  0
 28 30  1  0  0  0  0
 29 28  1  0  0  0  0
 29 26  1  0  0  0  0
 30 24  1  0  0  0  0
 31 32  2  0  0  0  0
 32 37  1  0  0  0  0
 33 34  1  0  0  0  0
 34 32  1  0  0  0  0
 35 33  2  0  0  0  0
 37 36  1  0  0  0  0
M  END
>  <MODEL>
2

>  <REMARK>
 VINA RESULT:      -8.3      2.413      6.920
  Name = 
  3 active torsions:
  status: ('A' for Active; 'I' for Inactive)
    1  A    between atoms: C_4  and  O_37
    2  A    between atoms: C_8  and  C_18
    3  A    between atoms: C_23  and  C_30
                            x       y       z     vdW  Elec       q    Type
                         _______ _______ _______ _____ _____    ______ ____

>  <TORSDO>
F 3

$$$$
=
 OpenBabel11112417213D

 37 43  0  0  1  0  0  0  0  0999 V2000
  186.6130  177.3570  143.2300 C   0  0  0  0  0  0  0  0  0  0  0  0
  190.2140  175.5180  143.2520 C   0  0  2  0  0  3  0  0  0  0  0  0
  190.5940  172.1360  141.3290 O   0  0  0  0  0  0  0  0  0  0  0  0
  189.0870  177.5770  143.8160 C   0  0  0  0  0  0  0  0  0  0  0  0
  190.1470  174.5510  142.1030 C   0  0  1  0  0  3  0  0  0  0  0  0
  189.4150  176.6470  142.6880 C   0  0  2  0  0  3  0  0  0  0  0  0
  190.6470  173.0850  142.4120 C   0  0  2  0  0  3  0  0  0  0  0  0
  190.1090  177.9270  144.6190 C   0  0  0  0  0  3  0  0  0  0  0  0
  188.2880  175.9730  141.9230 C   0  0  2  0  0  3  0  0  0  0  0  0
  186.4100  178.3050  142.0590 C   0  0  0  0  0  1  0  0  0  0  0  0
  192.3660  175.0920  144.5790 C   0  0  0  0  0  2  0  0  0  0  0  0
  191.5260  177.4480  144.3190 C   0  0  0  0  0  2  0  0  0  0  0  0
  186.9900  175.9550  142.7340 C   0  0  0  0  0  2  0  0  0  0  0  0
  189.6880  172.1150  138.9850 C   0  0  1  0  0  3  0  0  0  0  0  0
  190.3740  172.8150  140.1260 C   0  0  1  0  0  3  0  0  0  0  0  0
  191.6030  176.0430  143.6500 C   0  0  2  0  0  3  0  0  0  0  0  0
  188.7380  174.6030  141.6540 N   0  0  1  0  0  0  0  0  0  0  0  0
  187.6710  177.9290  144.1850 C   0  0  0  0  0  2  0  0  0  0  0  0
  192.0480  173.0870  143.0560 C   0  0  1  0  0  3  0  0  0  0  0  0
  185.3040  177.2570  143.9840 C   0  0  0  0  0  1  0  0  0  0  0  0
  188.8580  172.8590  140.0290 C   0  0  1  0  0  3  0  0  0  0  0  0
  188.6660  174.3520  140.2100 C   0  0  0  0  0  2  0  0  0  0  0  0
  191.9720  173.6170  144.4830 C   0  0  0  0  0  2  0  0  0  0  0  0
  192.3310  170.8770  144.0570 C   0  0  0  0  0  3  0  0  0  0  0  0
  192.6770  171.7220  143.0710 C   0  0  0  0  0  0  0  0  0  0  0  0
  193.8080  171.4020  142.1120 C   0  0  0  0  0  2  0  0  0  0  0  0
  195.5320  169.7520  141.4190 C   0  0  0  0  0  1  0  0  0  0  0  0
  194.2870  169.4050  143.5390 C   0  0  0  0  0  2  0  0  0  0  0  0
  194.1960  169.9230  142.1110 C   0  0  1  0  0  3  0  0  0  0  0  0
  192.9060  169.4920  144.1790 C   0  0  0  0  0  2  0  0  0  0  0  0
  190.3540  174.5910  135.4180 O   0  0  0  0  0  0  0  0  0  0  0  0
  191.1390  174.6320  136.4030 C   0  0  0  0  0  0  0  0  0  0  0  0
  189.8050  172.9100  137.7230 C   0  0  0  0  0  0  0  0  0  0  0  0
  190.9020  173.8180  137.5600 N   0  0  0  0  0  2  0  0  0  0  0  0
  188.9180  172.8020  136.8340 O   0  0  0  0  0  0  0  0  0  0  0  0
  193.3650  175.3010  137.2040 C   0  0  0  0  0  1  0  0  0  0  0  0
  192.2440  175.4800  136.3530 O   0  0  0  0  0  0  0  0  0  0  0  0
  1 20  1  0  0  0  0
  1 18  1  0  0  0  0
  2 16  1  0  0  0  0
  3  7  1  0  0  0  0
  4 18  1  0  0  0  0
  4  8  2  0  0  0  0
  5  7  1  0  0  0  0
  5  2  1  0  0  0  0
  6  2  1  0  0  0  0
  6  4  1  0  0  0  0
  7 19  1  0  0  0  0
  9  6  1  0  0  0  0
  9 13  1  0  0  0  0
 10  1  1  0  0  0  0
 12  8  1  0  0  0  0
 13  1  1  0  0  0  0
 14 21  1  0  0  0  0
 14 15  1  0  0  0  0
 15  3  1  0  0  0  0
 16 12  1  0  0  0  0
 16 11  1  0  0  0  0
 17  9  1  0  0  0  0
 17  5  1  0  0  0  0
 19 25  1  0  0  0  0
 19 23  1  0  0  0  0
 21 15  1  0  0  0  0
 21 22  1  0  0  0  0
 22 17  1  0  0  0  0
 23 11  1  0  0  0  0
 24 30  1  0  0  0  0
 25 24  2  0  0  0  0
 26 25  1  0  0  0  0
 27 29  1  0  0  0  0
 28 30  1  0  0  0  0
 29 26  1  0  0  0  0
 29 28  1  0  0  0  0
 31 32  2  0  0  0  0
 32 34  1  0  0  0  0
 33 14  1  0  0  0  0
 34 33  1  0  0  0  0
 35 33  2  0  0  0  0
 37 32  1  0  0  0  0
 37 36  1  0  0  0  0
M  END
>  <MODEL>
3

>  <REMARK>
 VINA RESULT:      -8.3      3.008      7.055
  Name = 
  3 active torsions:
  status: ('A' for Active; 'I' for Inactive)
    1  A    between atoms: C_4  and  O_37
    2  A    between atoms: C_8  and  C_18
    3  A    between atoms: C_23  and  C_30
                            x       y       z     vdW  Elec       q    Type
                         _______ _______ _______ _____ _____    ______ ____

>  <TORSDO>
F 3

$$$$
=
 OpenBabel11112417213D

 37 43  0  0  1  0  0  0  0  0999 V2000
  189.3730  172.4820  139.3050 C   0  0  0  0  0  0  0  0  0  0  0  0
  187.9000  175.6000  141.4160 C   0  0  2  0  0  3  0  0  0  0  0  0
  188.6300  175.7670  145.2530 O   0  0  0  0  0  0  0  0  0  0  0  0
  188.2490  174.7700  139.1760 C   0  0  0  0  0  0  0  0  0  0  0  0
  188.7080  175.6080  142.6840 C   0  0  1  0  0  3  0  0  0  0  0  0
  188.9450  175.1590  140.4440 C   0  0  2  0  0  3  0  0  0  0  0  0
  187.8820  175.7560  144.0210 C   0  0  2  0  0  3  0  0  0  0  0  0
  187.3400  175.6410  138.7020 C   0  0  0  0  0  3  0  0  0  0  0  0
  189.7560  174.1200  141.2020 C   0  0  2  0  0  3  0  0  0  0  0  0
  190.7740  172.7110  138.7590 C   0  0  0  0  0  1  0  0  0  0  0  0
  185.9950  177.3020  141.6280 C   0  0  0  0  0  2  0  0  0  0  0  0
  187.1140  176.9790  139.4000 C   0  0  0  0  0  2  0  0  0  0  0  0
  189.3400  172.6970  140.8240 C   0  0  0  0  0  2  0  0  0  0  0  0
  191.0260  175.3980  145.9170 C   0  0  1  0  0  3  0  0  0  0  0  0
  189.9890  175.9370  144.9690 C   0  0  1  0  0  3  0  0  0  0  0  0
  187.3190  176.9420  140.9440 C   0  0  2  0  0  3  0  0  0  0  0  0
  189.5040  174.3620  142.6260 N   0  0  1  0  0  0  0  0  0  0  0  0
  188.3760  173.3950  138.5770 C   0  0  0  0  0  2  0  0  0  0  0  0
  186.9230  176.9630  143.9660 C   0  0  1  0  0  3  0  0  0  0  0  0
  188.9890  171.0450  139.0210 C   0  0  0  0  0  1  0  0  0  0  0  0
  190.4860  174.5110  144.7970 C   0  0  1  0  0  3  0  0  0  0  0  0
  190.7860  174.5580  143.3120 C   0  0  0  0  0  2  0  0  0  0  0  0
  185.7730  176.6780  143.0070 C   0  0  0  0  0  2  0  0  0  0  0  0
  185.0610  177.0740  145.5420 C   0  0  0  0  0  3  0  0  0  0  0  0
  186.3620  177.3160  145.3150 C   0  0  0  0  0  0  0  0  0  0  0  0
  187.2080  178.0990  146.3010 C   0  0  0  0  0  2  0  0  0  0  0  0
  187.2850  179.2690  148.4920 C   0  0  0  0  0  1  0  0  0  0  0  0
  185.0990  178.5400  147.5690 C   0  0  0  0  0  2  0  0  0  0  0  0
  186.5770  178.1980  147.6900 C   0  0  1  0  0  3  0  0  0  0  0  0
  184.3900  177.3980  146.8500 C   0  0  0  0  0  2  0  0  0  0  0  0
  195.1560  176.6270  145.0660 O   0  0  0  0  0  0  0  0  0  0  0  0
  194.9010  175.5430  145.6550 C   0  0  0  0  0  0  0  0  0  0  0  0
  192.3840  175.9250  145.5780 C   0  0  0  0  0  0  0  0  0  0  0  0
  193.5460  175.1610  145.9260 N   0  0  0  0  0  2  0  0  0  0  0  0
  192.4950  177.0530  145.0250 O   0  0  0  0  0  0  0  0  0  0  0  0
  196.9250  174.2580  145.1070 C   0  0  0  0  0  1  0  0  0  0  0  0
  195.9560  174.7170  146.0380 O   0  0  0  0  0  0  0  0  0  0  0  0
  1 13  1  0  0  0  0
  2  5  1  0  0  0  0
  4  6  1  0  0  0  0
  5  7  1  0  0  0  0
  6  9  1  0  0  0  0
  6  2  1  0  0  0  0
  7  3  1  0  0  0  0
  8  4  2  0  0  0  0
  8 12  1  0  0  0  0
  9 17  1  0  0  0  0
 10  1  1  0  0  0  0
 11 23  1  0  0  0  0
 12 16  1  0  0  0  0
 13  9  1  0  0  0  0
 15  3  1  0  0  0  0
 15 14  1  0  0  0  0
 16  2  1  0  0  0  0
 16 11  1  0  0  0  0
 17  5  1  0  0  0  0
 17 22  1  0  0  0  0
 18  4  1  0  0  0  0
 18  1  1  0  0  0  0
 19  7  1  0  0  0  0
 19 25  1  0  0  0  0
 20  1  1  0  0  0  0
 21 15  1  0  0  0  0
 21 14  1  0  0  0  0
 22 21  1  0  0  0  0
 23 19  1  0  0  0  0
 24 30  1  0  0  0  0
 25 24  2  0  0  0  0
 25 26  1  0  0  0  0
 26 29  1  0  0  0  0
 28 29  1  0  0  0  0
 29 27  1  0  0  0  0
 30 28  1  0  0  0  0
 31 32  2  0  0  0  0
 32 34  1  0  0  0  0
 32 37  1  0  0  0  0
 33 14  1  0  0  0  0
 33 34  1  0  0  0  0
 35 33  2  0  0  0  0
 36 37  1  0  0  0  0
M  END
>  <MODEL>
4

>  <REMARK>
 VINA RESULT:      -8.1      2.956      6.739
  Name = 
  3 active torsions:
  status: ('A' for Active; 'I' for Inactive)
    1  A    between atoms: C_4  and  O_37
    2  A    between atoms: C_8  and  C_18
    3  A    between atoms: C_23  and  C_30
                            x       y       z     vdW  Elec       q    Type
                         _______ _______ _______ _____ _____    ______ ____

>  <TORSDO>
F 3

$$$$
=
 OpenBabel11112417213D

 37 43  0  0  1  0  0  0  0  0999 V2000
  186.4770  177.6340  143.7220 C   0  0  0  0  0  0  0  0  0  0  0  0
  189.9000  175.5550  143.1630 C   0  0  2  0  0  3  0  0  0  0  0  0
  189.9060  172.6330  140.5660 O   0  0  0  0  0  0  0  0  0  0  0  0
  188.9820  177.5320  144.2010 C   0  0  0  0  0  0  0  0  0  0  0  0
  189.7050  174.8590  141.8450 C   0  0  1  0  0  3  0  0  0  0  0  0
  189.1830  176.8370  142.8890 C   0  0  2  0  0  3  0  0  0  0  0  0
  190.0840  173.3270  141.8170 C   0  0  2  0  0  3  0  0  0  0  0  0
  190.0610  177.6250  144.9990 C   0  0  0  0  0  3  0  0  0  0  0  0
  187.9720  176.4280  142.0660 C   0  0  2  0  0  3  0  0  0  0  0  0
  186.3140  178.8200  142.7840 C   0  0  0  0  0  1  0  0  0  0  0  0
  192.0560  174.6930  144.2510 C   0  0  0  0  0  2  0  0  0  0  0  0
  191.4180  177.1100  144.5290 C   0  0  0  0  0  2  0  0  0  0  0  0
  186.7100  176.3420  142.9270 C   0  0  0  0  0  2  0  0  0  0  0  0
  188.9120  173.1750  138.3230 C   0  0  1  0  0  3  0  0  0  0  0  0
  189.7000  173.5640  139.5440 C   0  0  1  0  0  3  0  0  0  0  0  0
  191.3440  175.8750  143.5810 C   0  0  2  0  0  3  0  0  0  0  0  0
  188.2890  175.1140  141.4960 N   0  0  1  0  0  0  0  0  0  0  0  0
  187.6180  177.9080  144.7130 C   0  0  0  0  0  2  0  0  0  0  0  0
  191.5050  173.0840  142.3680 C   0  0  1  0  0  3  0  0  0  0  0  0
  185.1950  177.4810  144.5110 C   0  0  0  0  0  1  0  0  0  0  0  0
  188.1920  173.7460  139.5430 C   0  0  1  0  0  3  0  0  0  0  0  0
  188.1390  175.1780  140.0380 C   0  0  0  0  0  2  0  0  0  0  0  0
  191.5300  173.3070  143.8750 C   0  0  0  0  0  2  0  0  0  0  0  0
  191.6190  170.6960  142.8670 C   0  0  0  0  0  3  0  0  0  0  0  0
  192.0110  171.7010  142.0670 C   0  0  0  0  0  0  0  0  0  0  0  0
  193.0820  171.5040  141.0110 C   0  0  0  0  0  2  0  0  0  0  0  0
  194.6330  169.9070  139.9080 C   0  0  0  0  0  1  0  0  0  0  0  0
  193.4230  169.2170  141.9620 C   0  0  0  0  0  2  0  0  0  0  0  0
  193.3380  170.0330  140.6810 C   0  0  1  0  0  3  0  0  0  0  0  0
  192.0730  169.2750  142.6680 C   0  0  0  0  0  2  0  0  0  0  0  0
  188.9440  176.2610  135.1970 O   0  0  0  0  0  0  0  0  0  0  0  0
  187.8730  175.8990  135.7530 C   0  0  0  0  0  0  0  0  0  0  0  0
  189.0500  174.2060  137.2480 C   0  0  0  0  0  0  0  0  0  0  0  0
  187.8830  174.8880  136.7700 N   0  0  0  0  0  2  0  0  0  0  0  0
  190.1830  174.4370  136.7480 O   0  0  0  0  0  0  0  0  0  0  0  0
  185.4200  176.0400  135.8470 C   0  0  0  0  0  1  0  0  0  0  0  0
  186.6750  176.4980  135.3670 O   0  0  0  0  0  0  0  0  0  0  0  0
  1 20  1  0  0  0  0
  1 18  1  0  0  0  0
  2 16  1  0  0  0  0
  3  7  1  0  0  0  0
  4 18  1  0  0  0  0
  4  8  2  0  0  0  0
  5  2  1  0  0  0  0
  6  2  1  0  0  0  0
  6  4  1  0  0  0  0
  7  5  1  0  0  0  0
  7 19  1  0  0  0  0
  9  6  1  0  0  0  0
  9 13  1  0  0  0  0
 10  1  1  0  0  0  0
 12  8  1  0  0  0  0
 13  1  1  0  0  0  0
 14 21  1  0  0  0  0
 14 15  1  0  0  0  0
 15  3  1  0  0  0  0
 16 11  1  0  0  0  0
 16 12  1  0  0  0  0
 17  5  1  0  0  0  0
 17  9  1  0  0  0  0
 19 23  1  0  0  0  0
 21 15  1  0  0  0  0
 21 22  1  0  0  0  0
 22 17  1  0  0  0  0
 23 11  1  0  0  0  0
 25 19  1  0  0  0  0
 25 24  2  0  0  0  0
 26 25  1  0  0  0  0
 27 29  1  0  0  0  0
 28 30  1  0  0  0  0
 29 26  1  0  0  0  0
 29 28  1  0  0  0  0
 30 24  1  0  0  0  0
 31 32  2  0  0  0  0
 32 34  1  0  0  0  0
 33 14  1  0  0  0  0
 34 33  1  0  0  0  0
 35 33  2  0  0  0  0
 37 32  1  0  0  0  0
 37 36  1  0  0  0  0
M  END
>  <MODEL>
5

>  <REMARK>
 VINA RESULT:      -8.0      3.122      7.316
  Name = 
  3 active torsions:
  status: ('A' for Active; 'I' for Inactive)
    1  A    between atoms: C_4  and  O_37
    2  A    between atoms: C_8  and  C_18
    3  A    between atoms: C_23  and  C_30
                            x       y       z     vdW  Elec       q    Type
                         _______ _______ _______ _____ _____    ______ ____

>  <TORSDO>
F 3

$$$$
=
 OpenBabel11112417213D

 37 43  0  0  1  0  0  0  0  0999 V2000
  191.3990  169.6020  141.1460 C   0  0  0  0  0  0  0  0  0  0  0  0
  189.7950  173.2870  141.5920 C   0  0  2  0  0  3  0  0  0  0  0  0
  190.2920  175.1390  144.9980 O   0  0  0  0  0  0  0  0  0  0  0  0
  190.2800  171.5700  139.9660 C   0  0  0  0  0  0  0  0  0  0  0  0
  190.5250  173.8740  142.7680 C   0  0  1  0  0  3  0  0  0  0  0  0
  190.8980  172.4950  140.9700 C   0  0  2  0  0  3  0  0  0  0  0  0
  189.6190  174.5690  143.8590 C   0  0  2  0  0  3  0  0  0  0  0  0
  189.4000  172.1190  139.1100 C   0  0  0  0  0  3  0  0  0  0  0  0
  191.6640  171.9170  142.1480 C   0  0  2  0  0  3  0  0  0  0  0  0
  192.8290  169.6090  140.6310 C   0  0  0  0  0  1  0  0  0  0  0  0
  187.8760  174.8560  140.9330 C   0  0  0  0  0  2  0  0  0  0  0  0
  189.1290  173.6200  139.1360 C   0  0  0  0  0  2  0  0  0  0  0  0
  191.2740  170.4610  142.4120 C   0  0  0  0  0  2  0  0  0  0  0  0
  192.6440  175.1670  145.8840 C   0  0  1  0  0  3  0  0  0  0  0  0
  191.6650  175.2070  144.7420 C   0  0  1  0  0  3  0  0  0  0  0  0
  189.2400  174.2700  140.5480 C   0  0  2  0  0  3  0  0  0  0  0  0
  191.3250  172.7510  143.3060 N   0  0  1  0  0  0  0  0  0  0  0  0
  190.4460  170.0750  140.0390 C   0  0  0  0  0  2  0  0  0  0  0  0
  188.6630  175.6010  143.2280 C   0  0  1  0  0  3  0  0  0  0  0  0
  191.0350  168.1760  141.5020 C   0  0  0  0  0  1  0  0  0  0  0  0
  192.1740  173.8640  145.2400 C   0  0  1  0  0  3  0  0  0  0  0  0
  192.5640  173.2640  143.9030 C   0  0  0  0  0  2  0  0  0  0  0  0
  187.5730  174.8930  142.4310 C   0  0  0  0  0  2  0  0  0  0  0  0
  188.0800  176.1210  145.5420 C   0  0  0  0  0  3  0  0  0  0  0  0
  188.0210  176.4940  144.2530 C   0  0  0  0  0  0  0  0  0  0  0  0
  187.1710  177.6680  143.8040 C   0  0  0  0  0  2  0  0  0  0  0  0
  185.6500  179.5070  144.4950 C   0  0  0  0  0  1  0  0  0  0  0  0
  186.2930  177.7660  146.1430 C   0  0  0  0  0  2  0  0  0  0  0  0
  186.7630  178.5900  144.9540 C   0  0  1  0  0  3  0  0  0  0  0  0
  187.4620  176.9290  146.6510 C   0  0  0  0  0  2  0  0  0  0  0  0
  196.5300  176.3110  144.1850 O   0  0  0  0  0  0  0  0  0  0  0  0
  195.4850  176.2900  143.4810 C   0  0  0  0  0  0  0  0  0  0  0  0
  194.0190  175.5310  145.4200 C   0  0  0  0  0  0  0  0  0  0  0  0
  194.2260  175.9110  144.0540 N   0  0  0  0  0  2  0  0  0  0  0  0
  194.9860  175.4650  146.2260 O   0  0  0  0  0  0  0  0  0  0  0  0
  196.6480  176.2200  141.3160 C   0  0  0  0  0  1  0  0  0  0  0  0
  195.5690  176.6440  142.1360 O   0  0  0  0  0  0  0  0  0  0  0  0
  1 20  1  0  0  0  0
  1 13  1  0  0  0  0
  2  5  1  0  0  0  0
  4 18  1  0  0  0  0
  4  6  1  0  0  0  0
  5 17  1  0  0  0  0
  5  7  1  0  0  0  0
  6  2  1  0  0  0  0
  6  9  1  0  0  0  0
  7  3  1  0  0  0  0
  8 12  1  0  0  0  0
  8  4  2  0  0  0  0
  9 13  1  0  0  0  0
  9 17  1  0  0  0  0
 10  1  1  0  0  0  0
 11 23  1  0  0  0  0
 12 16  1  0  0  0  0
 15  3  1  0  0  0  0
 15 21  1  0  0  0  0
 15 14  1  0  0  0  0
 16 11  1  0  0  0  0
 16  2  1  0  0  0  0
 17 22  1  0  0  0  0
 18  1  1  0  0  0  0
 19  7  1  0  0  0  0
 19 25  1  0  0  0  0
 21 14  1  0  0  0  0
 22 21  1  0  0  0  0
 23 19  1  0  0  0  0
 24 30  1  0  0  0  0
 25 24  2  0  0  0  0
 26 25  1  0  0  0  0
 26 29  1  0  0  0  0
 27 29  1  0  0  0  0
 28 30  1  0  0  0  0
 29 28  1  0  0  0  0
 32 34  1  0  0  0  0
 32 31  2  0  0  0  0
 33 14  1  0  0  0  0
 33 35  2  0  0  0  0
 34 33  1  0  0  0  0
 36 37  1  0  0  0  0
 37 32  1  0  0  0  0
M  END
>  <MODEL>
6

>  <REMARK>
 VINA RESULT:      -8.0      2.691      6.363
  Name = 
  3 active torsions:
  status: ('A' for Active; 'I' for Inactive)
    1  A    between atoms: C_4  and  O_37
    2  A    between atoms: C_8  and  C_18
    3  A    between atoms: C_23  and  C_30
                            x       y       z     vdW  Elec       q    Type
                         _______ _______ _______ _____ _____    ______ ____

>  <TORSDO>
F 3

$$$$
=
 OpenBabel11112417213D

 37 43  0  0  1  0  0  0  0  0999 V2000
  188.9420  176.5160  145.7260 C   0  0  0  0  0  0  0  0  0  0  0  0
  192.3390  174.4890  144.8900 C   0  0  2  0  0  3  0  0  0  0  0  0
  192.1010  171.2890  142.6570 O   0  0  0  0  0  0  0  0  0  0  0  0
  191.4920  176.5440  145.8310 C   0  0  0  0  0  0  0  0  0  0  0  0
  191.9860  173.6400  143.7000 C   0  0  1  0  0  3  0  0  0  0  0  0
  191.5320  175.7080  144.5880 C   0  0  2  0  0  3  0  0  0  0  0  0
  192.4270  172.1260  143.7830 C   0  0  2  0  0  3  0  0  0  0  0  0
  192.6710  176.7590  146.4430 C   0  0  0  0  0  3  0  0  0  0  0  0
  190.2340  175.1720  144.0060 C   0  0  2  0  0  3  0  0  0  0  0  0
  188.5890  177.5810  144.6990 C   0  0  0  0  0  1  0  0  0  0  0  0
  194.6680  173.8210  145.7290 C   0  0  0  0  0  2  0  0  0  0  0  0
  193.9670  176.2330  145.8330 C   0  0  0  0  0  2  0  0  0  0  0  0
  189.1160  175.1490  145.0510 C   0  0  0  0  0  2  0  0  0  0  0  0
  190.7660  171.5390  140.5430 C   0  0  1  0  0  3  0  0  0  0  0  0
  191.7050  172.0890  141.5810 C   0  0  1  0  0  3  0  0  0  0  0  0
  193.8130  174.8960  145.0490 C   0  0  2  0  0  3  0  0  0  0  0  0
  190.5240  173.8120  143.5420 N   0  0  1  0  0  0  0  0  0  0  0  0
  190.2010  176.9360  146.4980 C   0  0  0  0  0  2  0  0  0  0  0  0
  193.9220  171.9900  144.1380 C   0  0  1  0  0  3  0  0  0  0  0  0
  187.7970  176.4170  146.7110 C   0  0  0  0  0  1  0  0  0  0  0  0
  190.2050  172.2250  141.7870 C   0  0  1  0  0  3  0  0  0  0  0  0
  190.1600  173.7020  142.1250 C   0  0  0  0  0  2  0  0  0  0  0  0
  194.1570  172.3860  145.5910 C   0  0  0  0  0  2  0  0  0  0  0  0
  194.2880  169.7000  144.9050 C   0  0  0  0  0  3  0  0  0  0  0  0
  194.4420  170.5970  143.9170 C   0  0  0  0  0  0  0  0  0  0  0  0
  195.2850  170.2920  142.6930 C   0  0  0  0  0  2  0  0  0  0  0  0
  196.6750  168.6120  141.5020 C   0  0  0  0  0  1  0  0  0  0  0  0
  195.9570  168.1730  143.8370 C   0  0  0  0  0  2  0  0  0  0  0  0
  195.5600  168.7990  142.5080 C   0  0  1  0  0  3  0  0  0  0  0  0
  194.7800  168.2820  144.7990 C   0  0  0  0  0  2  0  0  0  0  0  0
  190.9370  174.2490  137.0900 O   0  0  0  0  0  0  0  0  0  0  0  0
  191.9560  174.0120  137.7910 C   0  0  0  0  0  0  0  0  0  0  0  0
  190.6970  172.4430  139.3530 C   0  0  0  0  0  0  0  0  0  0  0  0
  191.8790  173.1270  138.9170 N   0  0  0  0  0  2  0  0  0  0  0  0
  189.5940  172.6230  138.7690 O   0  0  0  0  0  0  0  0  0  0  0  0
  193.2100  175.8630  136.7660 C   0  0  0  0  0  1  0  0  0  0  0  0
  193.1640  174.6230  137.4570 O   0  0  0  0  0  0  0  0  0  0  0  0
  1 18  1  0  0  0  0
  1 20  1  0  0  0  0
  2 16  1  0  0  0  0
  3  7  1  0  0  0  0
  4  8  2  0  0  0  0
  4 18  1  0  0  0  0
  5  7  1  0  0  0  0
  5  2  1  0  0  0  0
  6  2  1  0  0  0  0
  6  4  1  0  0  0  0
  7 19  1  0  0  0  0
  9  6  1  0  0  0  0
  9 13  1  0  0  0  0
 10  1  1  0  0  0  0
 12  8  1  0  0  0  0
 13  1  1  0  0  0  0
 14 15  1  0  0  0  0
 14 21  1  0  0  0  0
 15 21  1  0  0  0  0
 15  3  1  0  0  0  0
 16 11  1  0  0  0  0
 16 12  1  0  0  0  0
 17  5  1  0  0  0  0
 17  9  1  0  0  0  0
 19 23  1  0  0  0  0
 21 22  1  0  0  0  0
 22 17  1  0  0  0  0
 23 11  1  0  0  0  0
 25 19  1  0  0  0  0
 25 24  2  0  0  0  0
 26 25  1  0  0  0  0
 27 29  1  0  0  0  0
 28 30  1  0  0  0  0
 29 26  1  0  0  0  0
 29 28  1  0  0  0  0
 30 24  1  0  0  0  0
 31 32  2  0  0  0  0
 32 34  1  0  0  0  0
 33 14  1  0  0  0  0
 34 33  1  0  0  0  0
 35 33  2  0  0  0  0
 36 37  1  0  0  0  0
 37 32  1  0  0  0  0
M  END
>  <MODEL>
7

>  <REMARK>
 VINA RESULT:      -7.6      3.340      7.140
  Name = 
  3 active torsions:
  status: ('A' for Active; 'I' for Inactive)
    1  A    between atoms: C_4  and  O_37
    2  A    between atoms: C_8  and  C_18
    3  A    between atoms: C_23  and  C_30
                            x       y       z     vdW  Elec       q    Type
                         _______ _______ _______ _____ _____    ______ ____

>  <TORSDO>
F 3

$$$$
=
 OpenBabel11112417213D

 37 43  0  0  1  0  0  0  0  0999 V2000
  190.0300  172.7770  138.0570 C   0  0  0  0  0  0  0  0  0  0  0  0
  190.5080  172.8150  142.0720 C   0  0  2  0  0  3  0  0  0  0  0  0
  190.2970  176.2400  143.9440 O   0  0  0  0  0  0  0  0  0  0  0  0
  190.1910  171.3580  140.1730 C   0  0  0  0  0  0  0  0  0  0  0  0
  189.9350  174.1360  142.5050 C   0  0  1  0  0  3  0  0  0  0  0  0
  189.5800  172.4850  140.9490 C   0  0  2  0  0  3  0  0  0  0  0  0
  190.8210  174.9690  143.5130 C   0  0  2  0  0  3  0  0  0  0  0  0
  190.6360  170.3110  140.8910 C   0  0  0  0  0  3  0  0  0  0  0  0
  189.3260  173.8160  140.2610 C   0  0  2  0  0  3  0  0  0  0  0  0
  188.5840  172.6320  137.6080 C   0  0  0  0  0  1  0  0  0  0  0  0
  191.6510  171.7030  144.0790 C   0  0  0  0  0  2  0  0  0  0  0  0
  190.4410  170.2710  142.4040 C   0  0  0  0  0  2  0  0  0  0  0  0
  190.1860  173.9730  139.0050 C   0  0  0  0  0  2  0  0  0  0  0  0
  188.3260  177.6810  143.3490 C   0  0  1  0  0  3  0  0  0  0  0  0
  188.9480  176.3320  143.5890 C   0  0  1  0  0  3  0  0  0  0  0  0
  190.4770  171.6670  143.0940 C   0  0  2  0  0  3  0  0  0  0  0  0
  189.6610  174.8540  141.2410 N   0  0  1  0  0  0  0  0  0  0  0  0
  190.5060  171.4680  138.7050 C   0  0  0  0  0  2  0  0  0  0  0  0
  191.2440  174.1220  144.7300 C   0  0  1  0  0  3  0  0  0  0  0  0
  190.8790  173.0290  136.8300 C   0  0  0  0  0  1  0  0  0  0  0  0
  189.0000  176.9390  142.1960 C   0  0  1  0  0  3  0  0  0  0  0  0
  188.5040  175.7410  141.4120 C   0  0  0  0  0  2  0  0  0  0  0  0
  192.2750  173.0790  144.3140 C   0  0  0  0  0  2  0  0  0  0  0  0
  191.1030  175.0600  146.9810 C   0  0  0  0  0  3  0  0  0  0  0  0
  191.8110  174.9570  145.8440 C   0  0  0  0  0  0  0  0  0  0  0  0
  193.0440  175.8050  145.5980 C   0  0  0  0  0  2  0  0  0  0  0  0
  194.5940  177.5190  146.5090 C   0  0  0  0  0  1  0  0  0  0  0  0
  192.4850  177.0120  147.7150 C   0  0  0  0  0  2  0  0  0  0  0  0
  193.6110  176.4280  146.8740 C   0  0  1  0  0  3  0  0  0  0  0  0
  191.5660  175.8780  148.1560 C   0  0  0  0  0  2  0  0  0  0  0  0
  183.9770  177.5370  142.7530 O   0  0  0  0  0  0  0  0  0  0  0  0
  184.7370  178.0920  141.9150 C   0  0  0  0  0  0  0  0  0  0  0  0
  186.8370  177.5740  143.2610 C   0  0  0  0  0  0  0  0  0  0  0  0
  186.1550  178.1310  142.1290 N   0  0  0  0  0  2  0  0  0  0  0  0
  186.1940  177.0290  144.1990 O   0  0  0  0  0  0  0  0  0  0  0  0
  182.7860  178.6170  140.5140 C   0  0  0  0  0  1  0  0  0  0  0  0
  184.1810  178.6660  140.7730 O   0  0  0  0  0  0  0  0  0  0  0  0
  1 18  1  0  0  0  0
  1 13  1  0  0  0  0
  2  5  1  0  0  0  0
  2 16  1  0  0  0  0
  4  8  2  0  0  0  0
  4  6  1  0  0  0  0
  5  7  1  0  0  0  0
  6  2  1  0  0  0  0
  7  3  1  0  0  0  0
  7 19  1  0  0  0  0
  8 12  1  0  0  0  0
  9  6  1  0  0  0  0
  9 17  1  0  0  0  0
 10  1  1  0  0  0  0
 11 23  1  0  0  0  0
 12 16  1  0  0  0  0
 13  9  1  0  0  0  0
 14 15  1  0  0  0  0
 15  3  1  0  0  0  0
 16 11  1  0  0  0  0
 17 22  1  0  0  0  0
 17  5  1  0  0  0  0
 18  4  1  0  0  0  0
 19 25  1  0  0  0  0
 20  1  1  0  0  0  0
 21 14  1  0  0  0  0
 21 15  1  0  0  0  0
 22 21  1  0  0  0  0
 23 19  1  0  0  0  0
 24 30  1  0  0  0  0
 25 24  2  0  0  0  0
 26 25  1  0  0  0  0
 26 29  1  0  0  0  0
 27 29  1  0  0  0  0
 28 30  1  0  0  0  0
 29 28  1  0  0  0  0
 32 34  1  0  0  0  0
 32 31  2  0  0  0  0
 33 14  1  0  0  0  0
 33 35  2  0  0  0  0
 34 33  1  0  0  0  0
 36 37  1  0  0  0  0
 37 32  1  0  0  0  0
M  END
>  <MODEL>
8

>  <REMARK>
 VINA RESULT:      -7.5      2.954      7.541
  Name = 
  3 active torsions:
  status: ('A' for Active; 'I' for Inactive)
    1  A    between atoms: C_4  and  O_37
    2  A    between atoms: C_8  and  C_18
    3  A    between atoms: C_23  and  C_30
                            x       y       z     vdW  Elec       q    Type
                         _______ _______ _______ _____ _____    ______ ____

>  <TORSDO>
F 3

$$$$
=
 OpenBabel11112417213D

 37 43  0  0  1  0  0  0  0  0999 V2000
  189.7200  175.3400  146.0730 C   0  0  0  0  0  0  0  0  0  0  0  0
  193.4520  174.1960  145.0200 C   0  0  2  0  0  3  0  0  0  0  0  0
  193.9650  170.5970  143.5830 O   0  0  0  0  0  0  0  0  0  0  0  0
  192.1220  176.1030  145.6670 C   0  0  0  0  0  0  0  0  0  0  0  0
  193.2410  173.0080  144.1230 C   0  0  1  0  0  3  0  0  0  0  0  0
  192.2690  175.0230  144.6390 C   0  0  2  0  0  3  0  0  0  0  0  0
  194.1460  171.7510  144.4260 C   0  0  2  0  0  3  0  0  0  0  0  0
  193.2380  176.7870  145.9780 C   0  0  0  0  0  3  0  0  0  0  0  0
  191.1460  174.0170  144.4460 C   0  0  2  0  0  3  0  0  0  0  0  0
  188.9220  175.9660  144.9400 C   0  0  0  0  0  1  0  0  0  0  0  0
  195.9580  174.4410  145.5040 C   0  0  0  0  0  2  0  0  0  0  0  0
  194.5470  176.5060  145.2460 C   0  0  0  0  0  2  0  0  0  0  0  0
  190.2330  173.9510  145.6730 C   0  0  0  0  0  2  0  0  0  0  0  0
  192.3660  169.9170  141.7670 C   0  0  1  0  0  3  0  0  0  0  0  0
  193.2040  170.9530  142.4650 C   0  0  1  0  0  3  0  0  0  0  0  0
  194.7280  175.0250  144.7990 C   0  0  2  0  0  3  0  0  0  0  0  0
  191.7930  172.7200  144.2240 N   0  0  1  0  0  0  0  0  0  0  0  0
  190.8670  176.2770  146.4800 C   0  0  0  0  0  2  0  0  0  0  0  0
  195.6400  172.1320  144.5000 C   0  0  1  0  0  3  0  0  0  0  0  0
  188.7980  175.1820  147.2630 C   0  0  0  0  0  1  0  0  0  0  0  0
  191.7770  170.7140  142.9290 C   0  0  1  0  0  3  0  0  0  0  0  0
  191.3080  172.1550  142.9590 C   0  0  0  0  0  2  0  0  0  0  0  0
  195.9160  172.9350  145.7660 C   0  0  0  0  0  2  0  0  0  0  0  0
  196.9100  170.4430  143.2760 C   0  0  0  0  0  3  0  0  0  0  0  0
  196.5430  170.9310  144.4730 C   0  0  0  0  0  0  0  0  0  0  0  0
  196.8540  170.1920  145.7600 C   0  0  0  0  0  2  0  0  0  0  0  0
  197.9390  168.2150  146.8030 C   0  0  0  0  0  1  0  0  0  0  0  0
  197.6900  168.3150  144.3360 C   0  0  0  0  0  2  0  0  0  0  0  0
  197.9410  169.1280  145.5970 C   0  0  1  0  0  3  0  0  0  0  0  0
  197.8000  169.2390  143.1280 C   0  0  0  0  0  2  0  0  0  0  0  0
  191.2330  171.5990  137.8710 O   0  0  0  0  0  0  0  0  0  0  0  0
  192.3440  171.8640  138.4030 C   0  0  0  0  0  0  0  0  0  0  0  0
  191.8670  170.4310  140.4540 C   0  0  0  0  0  0  0  0  0  0  0  0
  192.6940  171.3070  139.6780 N   0  0  0  0  0  2  0  0  0  0  0  0
  190.7100  170.1180  140.0620 O   0  0  0  0  0  0  0  0  0  0  0  0
  193.4930  174.0270  138.1850 C   0  0  0  0  0  1  0  0  0  0  0  0
  193.2300  172.7060  137.7350 O   0  0  0  0  0  0  0  0  0  0  0  0
  1 18  1  0  0  0  0
  1 20  1  0  0  0  0
  3  7  1  0  0  0  0
  4  8  2  0  0  0  0
  4 18  1  0  0  0  0
  5 17  1  0  0  0  0
  5  7  1  0  0  0  0
  5  2  1  0  0  0  0
  6  2  1  0  0  0  0
  6  4  1  0  0  0  0
  7 19  1  0  0  0  0
  9  6  1  0  0  0  0
  9 13  1  0  0  0  0
 10  1  1  0  0  0  0
 11 23  1  0  0  0  0
 12  8  1  0  0  0  0
 13  1  1  0  0  0  0
 14 15  1  0  0  0  0
 14 21  1  0  0  0  0
 15 21  1  0  0  0  0
 15  3  1  0  0  0  0
 16  2  1  0  0  0  0
 16 12  1  0  0  0  0
 16 11  1  0  0  0  0
 17  9  1  0  0  0  0
 19 23  1  0  0  0  0
 21 22  1  0  0  0  0
 22 17  1  0  0  0  0
 24 25  2  0  0  0  0
 25 19  1  0  0  0  0
 25 26  1  0  0  0  0
 28 29  1  0  0  0  0
 29 26  1  0  0  0  0
 29 27  1  0  0  0  0
 30 24  1  0  0  0  0
 30 28  1  0  0  0  0
 31 32  2  0  0  0  0
 32 34  1  0  0  0  0
 33 14  1  0  0  0  0
 34 33  1  0  0  0  0
 35 33  2  0  0  0  0
 37 36  1  0  0  0  0
 37 32  1  0  0  0  0
M  END
>  <MODEL>
9

>  <REMARK>
 VINA RESULT:      -7.4      3.232      7.579
  Name = 
  3 active torsions:
  status: ('A' for Active; 'I' for Inactive)
    1  A    between atoms: C_4  and  O_37
    2  A    between atoms: C_8  and  C_18
    3  A    between atoms: C_23  and  C_30
                            x       y       z     vdW  Elec       q    Type
                         _______ _______ _______ _____ _____    ______ ____

>  <TORSDO>
F 3

$$$$
