=
 OpenBabel11112417413D

 28 32  0  0  1  0  0  0  0  0999 V2000
  185.8590  177.3890  145.1940 C   0  0  0  0  0  0  0  0  0  0  0  0
  186.7240  175.2520  142.4850 O   0  0  0  0  0  0  0  0  0  0  0  0
  191.4880  175.8140  147.0910 C   0  0  0  0  0  1  0  0  0  0  0  0
  185.1840  179.5620  143.5640 C   0  0  0  0  0  3  0  0  0  0  0  0
  191.3940  177.0010  144.9090 C   0  0  0  0  0  0  0  0  0  0  0  0
  186.2560  176.3680  146.1110 N   0  0  0  0  0  2  0  0  0  0  0  0
  187.1240  176.6910  140.5410 O   0  0  0  0  0  0  0  0  0  0  0  0
  187.7730  175.9940  141.7020 S   0  0  0  0  0  0  0  0  0  0  0  0
  190.1340  174.7380  141.8340 C   0  0  0  0  0  0  0  0  0  0  0  0
  188.5690  177.1880  142.6980 N   0  0  2  0  0  0  0  0  0  0  0  0
  187.1870  178.9640  147.6070 O   0  0  0  0  0  0  0  0  0  0  0  0
  189.1770  177.8570  144.9190 C   0  0  2  0  0  3  0  0  0  0  0  0
  190.4470  175.6630  142.8230 O   0  0  0  0  0  0  0  0  0  0  0  0
  188.9280  174.8690  141.1040 N   0  0  0  0  0  2  0  0  0  0  0  0
  187.5700  177.8060  147.5430 C   0  0  0  0  0  0  0  0  0  0  0  0
  186.7640  177.8360  144.2200 C   0  0  0  0  0  0  0  0  0  0  0  0
  190.8080  176.6060  146.0210 C   0  0  0  0  0  0  0  0  0  0  0  0
  190.8950  173.7600  141.6220 O   0  0  0  0  0  0  0  0  0  0  0  0
  189.0360  177.5240  147.4720 C   0  0  0  0  0  2  0  0  0  0  0  0
  186.4220  178.9330  143.4140 C   0  0  0  0  0  3  0  0  0  0  0  0
  184.6260  178.0320  145.3540 C   0  0  0  0  0  3  0  0  0  0  0  0
  184.2840  179.1100  144.5320 C   0  0  0  0  0  3  0  0  0  0  0  0
  186.5630  176.6980  147.4950 C   0  0  0  0  0  2  0  0  0  0  0  0
  190.4440  177.7790  144.0560 C   0  0  2  0  0  3  0  0  0  0  0  0
  189.4800  177.1020  146.1420 N   0  0  0  0  0  0  0  0  0  0  0  0
  190.0260  177.0350  142.7770 C   0  0  2  0  0  3  0  0  0  0  0  0
  192.8090  176.7080  144.5350 C   0  0  0  0  0  1  0  0  0  0  0  0
  188.1040  177.1600  144.0820 C   0  0  1  0  0  3  0  0  0  0  0  0
  1 21  1  0  0  0  0
  1  6  1  0  0  0  0
  4 22  1  0  0  0  0
  5 17  2  0  0  0  0
  6 23  1  0  0  0  0
  7  8  2  0  0  0  0
  8  2  2  0  0  0  0
  9 13  1  0  0  0  0
 10  8  1  6  0  0  0
 10 26  1  0  0  0  0
 10 28  1  0  0  0  0
 12 25  1  1  0  0  0
 14  8  1  0  0  0  0
 14  9  1  0  0  0  0
 15 11  2  0  0  0  0
 16  1  2  0  0  0  0
 17 25  1  0  0  0  0
 17  3  1  0  0  0  0
 18  9  2  0  0  0  0
 19 15  1  0  0  0  0
 20  4  2  0  0  0  0
 20 16  1  0  0  0  0
 22 21  2  0  0  0  0
 23 15  1  0  0  0  0
 24  5  1  1  0  0  0
 24 12  1  0  0  0  0
 25 19  1  0  0  0  0
 26 13  1  1  0  0  0
 26 24  1  0  0  0  0
 27  5  1  0  0  0  0
 28 16  1  6  0  0  0
 28 12  1  0  0  0  0
M  END
>  <MODEL>
1

>  <REMARK>
 VINA RESULT:      -8.5      0.000      0.000
  Name = 
  0 active torsions:
  status: ('A' for Active; 'I' for Inactive)
                            x       y       z     vdW  Elec       q    Type
                         _______ _______ _______ _____ _____    ______ ____

>  <TORSDO>
F 0

$$$$
=
 OpenBabel11112417413D

 28 32  0  0  1  0  0  0  0  0999 V2000
  190.8020  175.9260  142.9580 C   0  0  0  0  0  0  0  0  0  0  0  0
  188.3940  178.1940  141.6500 O   0  0  0  0  0  0  0  0  0  0  0  0
  189.1640  178.6020  148.2420 C   0  0  0  0  0  1  0  0  0  0  0  0
  189.6400  173.6620  141.7920 C   0  0  0  0  0  3  0  0  0  0  0  0
  187.3390  177.4200  147.0370 C   0  0  0  0  0  0  0  0  0  0  0  0
  191.4200  177.0050  143.6590 N   0  0  0  0  0  2  0  0  0  0  0  0
  186.4340  176.8640  141.0140 O   0  0  0  0  0  0  0  0  0  0  0  0
  187.0580  177.6780  142.1110 S   0  0  0  0  0  0  0  0  0  0  0  0
  185.9150  179.3830  143.8300 C   0  0  0  0  0  0  0  0  0  0  0  0
  187.2320  176.6680  143.5260 N   0  0  2  0  0  0  0  0  0  0  0  0
  191.7410  174.6500  145.7070 O   0  0  0  0  0  0  0  0  0  0  0  0
  188.5580  176.1350  145.4520 C   0  0  2  0  0  3  0  0  0  0  0  0
  186.4040  178.5410  144.8220 O   0  0  0  0  0  0  0  0  0  0  0  0
  186.0340  179.0120  142.4700 N   0  0  0  0  0  2  0  0  0  0  0  0
  191.6050  175.8610  145.7810 C   0  0  0  0  0  0  0  0  0  0  0  0
  189.4350  175.6700  143.1450 C   0  0  0  0  0  0  0  0  0  0  0  0
  188.6190  177.6890  147.1910 C   0  0  0  0  0  0  0  0  0  0  0  0
  185.4140  180.4950  144.1380 O   0  0  0  0  0  0  0  0  0  0  0  0
  190.7140  176.4330  146.8350 C   0  0  0  0  0  2  0  0  0  0  0  0
  188.8620  174.5260  142.5650 C   0  0  0  0  0  3  0  0  0  0  0  0
  191.5820  175.0470  142.1960 C   0  0  0  0  0  3  0  0  0  0  0  0
  190.9990  173.9230  141.6050 C   0  0  0  0  0  3  0  0  0  0  0  0
  192.2990  176.7440  144.7900 C   0  0  0  0  0  2  0  0  0  0  0  0
  187.1290  176.4670  145.9060 C   0  0  2  0  0  3  0  0  0  0  0  0
  189.4430  176.9350  146.3090 N   0  0  0  0  0  0  0  0  0  0  0  0
  186.4490  177.1120  144.6850 C   0  0  2  0  0  3  0  0  0  0  0  0
  186.2370  177.9920  147.8670 C   0  0  0  0  0  1  0  0  0  0  0  0
  188.6120  176.6020  143.9980 C   0  0  1  0  0  3  0  0  0  0  0  0
  1 16  1  0  0  0  0
  1  6  1  0  0  0  0
  2  8  2  0  0  0  0
  4 20  1  0  0  0  0
  5 17  2  0  0  0  0
  5 27  1  0  0  0  0
  6 23  1  0  0  0  0
  7  8  2  0  0  0  0
  8 14  1  0  0  0  0
  9 18  2  0  0  0  0
  9 13  1  0  0  0  0
 10  8  1  6  0  0  0
 10 28  1  0  0  0  0
 10 26  1  0  0  0  0
 11 15  2  0  0  0  0
 12 24  1  0  0  0  0
 12 25  1  1  0  0  0
 14  9  1  0  0  0  0
 15 19  1  0  0  0  0
 17  3  1  0  0  0  0
 20 16  2  0  0  0  0
 21  1  2  0  0  0  0
 22  4  2  0  0  0  0
 22 21  1  0  0  0  0
 23 15  1  0  0  0  0
 24  5  1  1  0  0  0
 25 19  1  0  0  0  0
 25 17  1  0  0  0  0
 26 13  1  1  0  0  0
 26 24  1  0  0  0  0
 28 16  1  6  0  0  0
 28 12  1  0  0  0  0
M  END
>  <MODEL>
2

>  <REMARK>
 VINA RESULT:      -8.3      1.855      5.197
  Name = 
  0 active torsions:
  status: ('A' for Active; 'I' for Inactive)
                            x       y       z     vdW  Elec       q    Type
                         _______ _______ _______ _____ _____    ______ ____

>  <TORSDO>
F 0

$$$$
=
 OpenBabel11112417413D

 28 32  0  0  1  0  0  0  0  0999 V2000
  192.5150  174.4210  145.2950 C   0  0  0  0  0  0  0  0  0  0  0  0
  189.7540  175.4340  147.2960 O   0  0  0  0  0  0  0  0  0  0  0  0
  188.1920  174.3280  140.9280 C   0  0  0  0  0  1  0  0  0  0  0  0
  194.1270  176.5930  146.0140 C   0  0  0  0  0  3  0  0  0  0  0  0
  188.5820  176.5410  141.9910 C   0  0  0  0  0  0  0  0  0  0  0  0
  191.7420  173.3240  144.8050 N   0  0  0  0  0  2  0  0  0  0  0  0
  190.0650  177.8160  147.7870 O   0  0  0  0  0  0  0  0  0  0  0  0
  189.4220  176.8320  146.8510 S   0  0  0  0  0  0  0  0  0  0  0  0
  187.0180  176.9180  145.6760 C   0  0  0  0  0  0  0  0  0  0  0  0
  190.0110  177.1310  145.2340 N   0  0  2  0  0  0  0  0  0  0  0  0
  193.3770  174.1400  142.2540 O   0  0  0  0  0  0  0  0  0  0  0  0
  190.6390  176.1760  143.1260 C   0  0  2  0  0  3  0  0  0  0  0  0
  187.7230  176.8760  144.4790 O   0  0  0  0  0  0  0  0  0  0  0  0
  187.7170  177.0470  146.9000 N   0  0  0  0  0  2  0  0  0  0  0  0
  192.2780  173.6560  142.4700 C   0  0  0  0  0  0  0  0  0  0  0  0
  192.0160  175.7270  145.1780 C   0  0  0  0  0  0  0  0  0  0  0  0
  188.9460  175.2910  141.7880 C   0  0  0  0  0  0  0  0  0  0  0  0
  185.7670  176.7910  145.6750 O   0  0  0  0  0  0  0  0  0  0  0  0
  191.1080  174.1080  141.6580 C   0  0  0  0  0  2  0  0  0  0  0  0
  192.8360  176.8120  145.5310 C   0  0  0  0  0  3  0  0  0  0  0  0
  193.8170  174.2070  145.7630 C   0  0  0  0  0  3  0  0  0  0  0  0
  194.6180  175.2910  146.1320 C   0  0  0  0  0  3  0  0  0  0  0  0
  192.1170  172.6510  143.5700 C   0  0  0  0  0  2  0  0  0  0  0  0
  189.5530  177.2360  142.8910 C   0  0  2  0  0  3  0  0  0  0  0  0
  190.1930  174.9810  142.3980 N   0  0  0  0  0  0  0  0  0  0  0  0
  188.9760  177.5490  144.2820 C   0  0  2  0  0  3  0  0  0  0  0  0
  187.3640  177.1830  141.4170 C   0  0  0  0  0  1  0  0  0  0  0  0
  190.6260  175.9490  144.6380 C   0  0  1  0  0  3  0  0  0  0  0  0
  1 21  1  0  0  0  0
  3 17  1  0  0  0  0
  4 22  1  0  0  0  0
  6  1  1  0  0  0  0
  8 14  1  0  0  0  0
  8  2  2  0  0  0  0
  8  7  2  0  0  0  0
  9 14  1  0  0  0  0
 10  8  1  1  0  0  0
 11 15  2  0  0  0  0
 12 25  1  6  0  0  0
 12 28  1  0  0  0  0
 13  9  1  0  0  0  0
 15 23  1  0  0  0  0
 16  1  2  0  0  0  0
 16 20  1  0  0  0  0
 17  5  2  0  0  0  0
 17 25  1  0  0  0  0
 18  9  2  0  0  0  0
 19 25  1  0  0  0  0
 19 15  1  0  0  0  0
 20  4  2  0  0  0  0
 21 22  2  0  0  0  0
 23  6  1  0  0  0  0
 24  5  1  6  0  0  0
 24 12  1  0  0  0  0
 24 26  1  0  0  0  0
 26 13  1  1  0  0  0
 26 10  1  0  0  0  0
 27  5  1  0  0  0  0
 28 16  1  1  0  0  0
 28 10  1  0  0  0  0
M  END
>  <MODEL>
3

>  <REMARK>
 VINA RESULT:      -8.0      2.559      6.548
  Name = 
  0 active torsions:
  status: ('A' for Active; 'I' for Inactive)
                            x       y       z     vdW  Elec       q    Type
                         _______ _______ _______ _____ _____    ______ ____

>  <TORSDO>
F 0

$$$$
=
 OpenBabel11112417413D

 28 32  0  0  1  0  0  0  0  0999 V2000
  186.4560  178.6120  145.4910 C   0  0  0  0  0  0  0  0  0  0  0  0
  189.9640  178.0250  145.4730 O   0  0  0  0  0  0  0  0  0  0  0  0
  187.0670  177.1630  139.5500 C   0  0  0  0  0  1  0  0  0  0  0  0
  185.9400  176.8500  147.6040 C   0  0  0  0  0  3  0  0  0  0  0  0
  187.7140  175.3770  141.1530 C   0  0  0  0  0  0  0  0  0  0  0  0
  186.6050  179.4690  144.3580 N   0  0  0  0  0  2  0  0  0  0  0  0
  190.3390  175.9080  146.6520 O   0  0  0  0  0  0  0  0  0  0  0  0
  190.1260  176.5390  145.3050 S   0  0  0  0  0  0  0  0  0  0  0  0
  191.2620  175.9580  142.9520 C   0  0  0  0  0  0  0  0  0  0  0  0
  188.7040  175.8330  144.5760 N   0  0  2  0  0  0  0  0  0  0  0  0
  183.8630  178.0750  143.7440 O   0  0  0  0  0  0  0  0  0  0  0  0
  186.7840  176.1890  143.1840 C   0  0  2  0  0  3  0  0  0  0  0  0
  189.9680  175.7060  142.5120 O   0  0  0  0  0  0  0  0  0  0  0  0
  191.5010  176.2310  144.3200 N   0  0  0  0  0  2  0  0  0  0  0  0
  184.7830  178.5240  143.0800 C   0  0  0  0  0  0  0  0  0  0  0  0
  186.9380  177.2960  145.4330 C   0  0  0  0  0  0  0  0  0  0  0  0
  187.1450  176.5390  140.9060 C   0  0  0  0  0  0  0  0  0  0  0  0
  192.2120  175.9950  142.1280 O   0  0  0  0  0  0  0  0  0  0  0  0
  185.2410  177.7800  141.8670 C   0  0  0  0  0  2  0  0  0  0  0  0
  186.6660  176.4150  146.4930 C   0  0  0  0  0  3  0  0  0  0  0  0
  185.7130  179.0390  146.5990 C   0  0  0  0  0  3  0  0  0  0  0  0
  185.4660  178.1630  147.6580 C   0  0  0  0  0  3  0  0  0  0  0  0
  185.4600  179.7870  143.5170 C   0  0  0  0  0  2  0  0  0  0  0  0
  187.6140  175.0350  142.6040 C   0  0  2  0  0  3  0  0  0  0  0  0
  186.5200  177.0940  142.0580 N   0  0  0  0  0  0  0  0  0  0  0  0
  188.9660  175.0910  143.3370 C   0  0  2  0  0  3  0  0  0  0  0  0
  188.3810  174.5160  140.1320 C   0  0  0  0  0  1  0  0  0  0  0  0
  187.7040  176.8350  144.2190 C   0  0  1  0  0  3  0  0  0  0  0  0
  1 21  1  0  0  0  0
  3 17  1  0  0  0  0
  4 22  1  0  0  0  0
  6  1  1  0  0  0  0
  8  2  2  0  0  0  0
  8  7  2  0  0  0  0
  9 14  1  0  0  0  0
 10  8  1  6  0  0  0
 12 25  1  6  0  0  0
 12 28  1  0  0  0  0
 13  9  1  0  0  0  0
 14  8  1  0  0  0  0
 15 23  1  0  0  0  0
 15 11  2  0  0  0  0
 16  1  2  0  0  0  0
 16 20  1  0  0  0  0
 17  5  2  0  0  0  0
 17 25  1  0  0  0  0
 18  9  2  0  0  0  0
 19 25  1  0  0  0  0
 19 15  1  0  0  0  0
 20  4  2  0  0  0  0
 21 22  2  0  0  0  0
 23  6  1  0  0  0  0
 24  5  1  6  0  0  0
 24 12  1  0  0  0  0
 24 26  1  0  0  0  0
 26 13  1  6  0  0  0
 26 10  1  0  0  0  0
 27  5  1  0  0  0  0
 28 10  1  0  0  0  0
 28 16  1  1  0  0  0
M  END
>  <MODEL>
4

>  <REMARK>
 VINA RESULT:      -7.9      2.505      4.558
  Name = 
  0 active torsions:
  status: ('A' for Active; 'I' for Inactive)
                            x       y       z     vdW  Elec       q    Type
                         _______ _______ _______ _____ _____    ______ ____

>  <TORSDO>
F 0

$$$$
=
 OpenBabel11112417413D

 28 32  0  0  1  0  0  0  0  0999 V2000
  188.8850  175.8310  146.1620 C   0  0  0  0  0  0  0  0  0  0  0  0
  188.9410  173.8440  143.2110 O   0  0  0  0  0  0  0  0  0  0  0  0
  194.9580  174.9640  145.8110 C   0  0  0  0  0  1  0  0  0  0  0  0
  187.4180  177.9160  145.0050 C   0  0  0  0  0  3  0  0  0  0  0  0
  193.9400  176.1490  143.8780 C   0  0  0  0  0  0  0  0  0  0  0  0
  189.7030  174.8610  146.8160 N   0  0  0  0  0  2  0  0  0  0  0  0
  188.4360  175.3400  141.3350 O   0  0  0  0  0  0  0  0  0  0  0  0
  189.5400  174.7200  142.1440 S   0  0  0  0  0  0  0  0  0  0  0  0
  191.9130  173.7720  141.3470 C   0  0  0  0  0  0  0  0  0  0  0  0
  190.5010  175.9970  142.8480 N   0  0  2  0  0  0  0  0  0  0  0  0
  190.8120  177.5410  148.0140 O   0  0  0  0  0  0  0  0  0  0  0  0
  191.7970  176.7180  144.7340 C   0  0  2  0  0  3  0  0  0  0  0  0
  192.4580  174.7200  142.2050 O   0  0  0  0  0  0  0  0  0  0  0  0
  190.5180  173.7560  141.1100 N   0  0  0  0  0  2  0  0  0  0  0  0
  191.2750  176.4420  147.7530 C   0  0  0  0  0  0  0  0  0  0  0  0
  189.3150  176.3980  144.9520 C   0  0  0  0  0  0  0  0  0  0  0  0
  193.8490  175.6740  145.1030 C   0  0  0  0  0  0  0  0  0  0  0  0
  192.6510  172.8990  140.8220 O   0  0  0  0  0  0  0  0  0  0  0  0
  192.6360  176.3470  147.1440 C   0  0  0  0  0  2  0  0  0  0  0  0
  188.5780  177.4500  144.3840 C   0  0  0  0  0  3  0  0  0  0  0  0
  187.7290  176.3130  146.7900 C   0  0  0  0  0  3  0  0  0  0  0  0
  186.9910  177.3450  146.2060 C   0  0  0  0  0  3  0  0  0  0  0  0
  190.4540  175.2150  148.0120 C   0  0  0  0  0  2  0  0  0  0  0  0
  192.6620  176.8080  143.4690 C   0  0  2  0  0  3  0  0  0  0  0  0
  192.6100  175.9970  145.7220 N   0  0  0  0  0  0  0  0  0  0  0  0
  191.8940  176.0280  142.3880 C   0  0  2  0  0  3  0  0  0  0  0  0
  195.1440  176.0400  143.0030 C   0  0  0  0  0  1  0  0  0  0  0  0
  190.5800  175.8980  144.3030 C   0  0  1  0  0  3  0  0  0  0  0  0
  1 21  1  0  0  0  0
  1  6  1  0  0  0  0
  4 22  1  0  0  0  0
  5 17  2  0  0  0  0
  6 23  1  0  0  0  0
  7  8  2  0  0  0  0
  8  2  2  0  0  0  0
  9 13  1  0  0  0  0
 10  8  1  6  0  0  0
 10 28  1  0  0  0  0
 12 25  1  1  0  0  0
 14  9  1  0  0  0  0
 14  8  1  0  0  0  0
 15 23  1  0  0  0  0
 15 11  2  0  0  0  0
 16  1  2  0  0  0  0
 17 25  1  0  0  0  0
 17  3  1  0  0  0  0
 18  9  2  0  0  0  0
 19 15  1  0  0  0  0
 20 16  1  0  0  0  0
 20  4  2  0  0  0  0
 22 21  2  0  0  0  0
 24  5  1  1  0  0  0
 24 12  1  0  0  0  0
 25 19  1  0  0  0  0
 26 13  1  1  0  0  0
 26 10  1  0  0  0  0
 26 24  1  0  0  0  0
 27  5  1  0  0  0  0
 28 12  1  0  0  0  0
 28 16  1  1  0  0  0
M  END
>  <MODEL>
5

>  <REMARK>
 VINA RESULT:      -7.8      2.142      3.072
  Name = 
  0 active torsions:
  status: ('A' for Active; 'I' for Inactive)
                            x       y       z     vdW  Elec       q    Type
                         _______ _______ _______ _____ _____    ______ ____

>  <TORSDO>
F 0

$$$$
=
 OpenBabel11112417413D

 28 32  0  0  1  0  0  0  0  0999 V2000
  188.1240  177.6050  144.4240 C   0  0  0  0  0  0  0  0  0  0  0  0
  191.2470  177.1180  146.0560 O   0  0  0  0  0  0  0  0  0  0  0  0
  190.6630  173.7900  140.3290 C   0  0  0  0  0  1  0  0  0  0  0  0
  186.5880  176.8930  146.6540 C   0  0  0  0  0  3  0  0  0  0  0  0
  190.3770  172.8590  142.6160 C   0  0  0  0  0  0  0  0  0  0  0  0
  188.8170  177.9040  143.2120 N   0  0  0  0  0  2  0  0  0  0  0  0
  190.8160  175.7040  148.0130 O   0  0  0  0  0  0  0  0  0  0  0  0
  191.2220  175.7030  146.5660 S   0  0  0  0  0  0  0  0  0  0  0  0
  193.0450  174.2000  145.3080 C   0  0  0  0  0  0  0  0  0  0  0  0
  190.0810  174.7340  145.6660 N   0  0  2  0  0  0  0  0  0  0  0  0
  186.3160  176.3400  142.1440 O   0  0  0  0  0  0  0  0  0  0  0  0
  188.8980  174.4390  143.6010 C   0  0  2  0  0  3  0  0  0  0  0  0
  191.9850  173.7650  144.5210 O   0  0  0  0  0  0  0  0  0  0  0  0
  192.7980  175.0290  146.4280 N   0  0  0  0  0  2  0  0  0  0  0  0
  187.4760  176.4800  141.7910 C   0  0  0  0  0  0  0  0  0  0  0  0
  188.3780  176.3950  145.0880 C   0  0  0  0  0  0  0  0  0  0  0  0
  190.1310  173.7990  141.7270 C   0  0  0  0  0  0  0  0  0  0  0  0
  194.2260  173.8990  144.9960 O   0  0  0  0  0  0  0  0  0  0  0  0
  188.2280  175.3010  141.2650 C   0  0  0  0  0  2  0  0  0  0  0  0
  187.5960  176.0410  146.1990 C   0  0  0  0  0  3  0  0  0  0  0  0
  187.1000  178.4480  144.8730 C   0  0  0  0  0  3  0  0  0  0  0  0
  186.3410  178.0980  145.9920 C   0  0  0  0  0  3  0  0  0  0  0  0
  188.1330  177.8190  141.9300 C   0  0  0  0  0  2  0  0  0  0  0  0
  189.6910  173.1600  143.9100 C   0  0  2  0  0  3  0  0  0  0  0  0
  189.2190  174.7790  142.2080 N   0  0  0  0  0  0  0  0  0  0  0  0
  190.6640  173.5420  145.0390 C   0  0  2  0  0  3  0  0  0  0  0  0
  191.2300  171.6570  142.3800 C   0  0  0  0  0  1  0  0  0  0  0  0
  189.4580  175.4760  144.5750 C   0  0  1  0  0  3  0  0  0  0  0  0
  1 21  2  0  0  0  0
  1 16  1  0  0  0  0
  2  8  2  0  0  0  0
  3 17  1  0  0  0  0
  6  1  1  0  0  0  0
  8  7  2  0  0  0  0
  9 14  1  0  0  0  0
 10  8  1  6  0  0  0
 12 25  1  6  0  0  0
 12 24  1  0  0  0  0
 12 28  1  0  0  0  0
 13  9  1  0  0  0  0
 14  8  1  0  0  0  0
 15 23  1  0  0  0  0
 15 11  2  0  0  0  0
 16 20  2  0  0  0  0
 17 25  1  0  0  0  0
 17  5  2  0  0  0  0
 18  9  2  0  0  0  0
 19 15  1  0  0  0  0
 19 25  1  0  0  0  0
 20  4  1  0  0  0  0
 21 22  1  0  0  0  0
 22  4  2  0  0  0  0
 23  6  1  0  0  0  0
 24  5  1  6  0  0  0
 24 26  1  0  0  0  0
 26 13  1  6  0  0  0
 26 10  1  0  0  0  0
 27  5  1  0  0  0  0
 28 16  1  1  0  0  0
 28 10  1  0  0  0  0
M  END
>  <MODEL>
6

>  <REMARK>
 VINA RESULT:      -7.7      2.710      4.991
  Name = 
  0 active torsions:
  status: ('A' for Active; 'I' for Inactive)
                            x       y       z     vdW  Elec       q    Type
                         _______ _______ _______ _____ _____    ______ ____

>  <TORSDO>
F 0

$$$$
=
 OpenBabel11112417413D

 28 32  0  0  1  0  0  0  0  0999 V2000
  185.9420  176.8240  143.6530 C   0  0  0  0  0  0  0  0  0  0  0  0
  187.4410  174.0350  142.0330 O   0  0  0  0  0  0  0  0  0  0  0  0
  190.5190  175.8580  147.6380 C   0  0  0  0  0  1  0  0  0  0  0  0
  186.0080  178.4670  141.3870 C   0  0  0  0  0  3  0  0  0  0  0  0
  191.2260  176.4050  145.3180 C   0  0  0  0  0  0  0  0  0  0  0  0
  185.9390  176.0940  144.8800 N   0  0  0  0  0  2  0  0  0  0  0  0
  188.5590  174.8920  140.0260 O   0  0  0  0  0  0  0  0  0  0  0  0
  188.7440  174.5410  141.4750 S   0  0  0  0  0  0  0  0  0  0  0  0
  190.8240  173.3830  142.6980 C   0  0  0  0  0  0  0  0  0  0  0  0
  189.2790  175.9660  142.3310 N   0  0  2  0  0  0  0  0  0  0  0  0
  186.5610  179.0050  145.8730 O   0  0  0  0  0  0  0  0  0  0  0  0
  189.2020  177.2190  144.3750 C   0  0  2  0  0  3  0  0  0  0  0  0
  190.8840  174.5430  143.4590 O   0  0  0  0  0  0  0  0  0  0  0  0
  189.9300  173.3030  141.6040 N   0  0  0  0  0  2  0  0  0  0  0  0
  186.8450  177.8760  146.2410 C   0  0  0  0  0  0  0  0  0  0  0  0
  187.1450  176.9940  142.9510 C   0  0  0  0  0  0  0  0  0  0  0  0
  190.2860  176.3250  146.2370 C   0  0  0  0  0  0  0  0  0  0  0  0
  191.5280  172.3880  143.0090 O   0  0  0  0  0  0  0  0  0  0  0  0
  188.2270  177.5930  146.7330 C   0  0  0  0  0  2  0  0  0  0  0  0
  187.1720  177.8280  141.8210 C   0  0  0  0  0  3  0  0  0  0  0  0
  184.7820  177.4800  143.2240 C   0  0  0  0  0  3  0  0  0  0  0  0
  184.8120  178.2910  142.0870 C   0  0  0  0  0  3  0  0  0  0  0  0
  185.8160  176.7910  146.1530 C   0  0  0  0  0  2  0  0  0  0  0  0
  190.6670  176.9160  144.0300 C   0  0  2  0  0  3  0  0  0  0  0  0
  189.0350  176.8280  145.7810 N   0  0  0  0  0  0  0  0  0  0  0  0
  190.6170  175.8490  142.9230 C   0  0  2  0  0  3  0  0  0  0  0  0
  192.6560  176.0290  145.5210 C   0  0  0  0  0  1  0  0  0  0  0  0
  188.3970  176.3140  143.4420 C   0  0  1  0  0  3  0  0  0  0  0  0
  1  6  1  0  0  0  0
  4 20  2  0  0  0  0
  4 22  1  0  0  0  0
  5 27  1  0  0  0  0
  5 17  2  0  0  0  0
  6 23  1  0  0  0  0
  7  8  2  0  0  0  0
  8 14  1  0  0  0  0
  8  2  2  0  0  0  0
  9 18  2  0  0  0  0
  9 13  1  0  0  0  0
 10  8  1  1  0  0  0
 10 26  1  0  0  0  0
 10 28  1  0  0  0  0
 11 15  2  0  0  0  0
 12 25  1  1  0  0  0
 14  9  1  0  0  0  0
 15 19  1  0  0  0  0
 16  1  2  0  0  0  0
 17  3  1  0  0  0  0
 20 16  1  0  0  0  0
 21  1  1  0  0  0  0
 22 21  2  0  0  0  0
 23 15  1  0  0  0  0
 24 12  1  0  0  0  0
 24  5  1  1  0  0  0
 25 17  1  0  0  0  0
 25 19  1  0  0  0  0
 26 13  1  1  0  0  0
 26 24  1  0  0  0  0
 28 16  1  6  0  0  0
 28 12  1  0  0  0  0
M  END
>  <MODEL>
7

>  <REMARK>
 VINA RESULT:      -7.6      1.532      1.616
  Name = 
  0 active torsions:
  status: ('A' for Active; 'I' for Inactive)
                            x       y       z     vdW  Elec       q    Type
                         _______ _______ _______ _____ _____    ______ ____

>  <TORSDO>
F 0

$$$$
=
 OpenBabel11112417413D

 28 32  0  0  1  0  0  0  0  0999 V2000
  189.7780  175.1190  146.5080 C   0  0  0  0  0  0  0  0  0  0  0  0
  186.4770  176.4090  146.8140 O   0  0  0  0  0  0  0  0  0  0  0  0
  188.1750  174.8260  140.5830 C   0  0  0  0  0  1  0  0  0  0  0  0
  190.9890  177.2790  147.8140 C   0  0  0  0  0  3  0  0  0  0  0  0
  188.1590  177.1040  141.5770 C   0  0  0  0  0  0  0  0  0  0  0  0
  189.2650  174.0170  145.7590 N   0  0  0  0  0  2  0  0  0  0  0  0
  186.6890  178.8100  147.2640 O   0  0  0  0  0  0  0  0  0  0  0  0
  186.5160  177.7770  146.1880 S   0  0  0  0  0  0  0  0  0  0  0  0
  185.0180  177.8570  143.9700 C   0  0  0  0  0  0  0  0  0  0  0  0
  187.8460  177.9120  145.0640 N   0  0  2  0  0  0  0  0  0  0  0  0
  192.0020  174.5450  144.3190 O   0  0  0  0  0  0  0  0  0  0  0  0
  189.3560  176.7560  143.6020 C   0  0  2  0  0  3  0  0  0  0  0  0
  186.2150  177.6850  143.2860 O   0  0  0  0  0  0  0  0  0  0  0  0
  185.0300  178.0620  145.3700 N   0  0  0  0  0  2  0  0  0  0  0  0
  190.9050  174.1260  143.9850 C   0  0  0  0  0  0  0  0  0  0  0  0
  189.5040  176.4300  146.0880 C   0  0  0  0  0  0  0  0  0  0  0  0
  188.4780  175.8280  141.6500 C   0  0  0  0  0  0  0  0  0  0  0  0
  183.9240  177.7800  143.3550 O   0  0  0  0  0  0  0  0  0  0  0  0
  190.3250  174.5530  142.6760 C   0  0  0  0  0  2  0  0  0  0  0  0
  190.1240  177.5070  146.7420 C   0  0  0  0  0  3  0  0  0  0  0  0
  190.6600  174.8950  147.5720 C   0  0  0  0  0  3  0  0  0  0  0  0
  191.2550  175.9730  148.2310 C   0  0  0  0  0  3  0  0  0  0  0  0
  190.1460  173.2260  144.9130 C   0  0  0  0  0  2  0  0  0  0  0  0
  188.6110  177.8340  142.8010 C   0  0  2  0  0  3  0  0  0  0  0  0
  189.2360  175.5210  142.8150 N   0  0  0  0  0  0  0  0  0  0  0  0
  187.4500  178.2880  143.7020 C   0  0  2  0  0  3  0  0  0  0  0  0
  187.4360  177.7430  140.4390 C   0  0  0  0  0  1  0  0  0  0  0  0
  188.5820  176.6600  144.9170 C   0  0  1  0  0  3  0  0  0  0  0  0
  1 21  1  0  0  0  0
  3 17  1  0  0  0  0
  4 22  1  0  0  0  0
  5 17  2  0  0  0  0
  6  1  1  0  0  0  0
  8  2  2  0  0  0  0
  8  7  2  0  0  0  0
  9 14  1  0  0  0  0
 10  8  1  1  0  0  0
 12 25  1  6  0  0  0
 12 28  1  0  0  0  0
 13  9  1  0  0  0  0
 14  8  1  0  0  0  0
 15 11  2  0  0  0  0
 15 23  1  0  0  0  0
 16  1  2  0  0  0  0
 16 20  1  0  0  0  0
 17 25  1  0  0  0  0
 18  9  2  0  0  0  0
 19 25  1  0  0  0  0
 19 15  1  0  0  0  0
 20  4  2  0  0  0  0
 21 22  2  0  0  0  0
 23  6  1  0  0  0  0
 24  5  1  6  0  0  0
 24 12  1  0  0  0  0
 24 26  1  0  0  0  0
 26 13  1  6  0  0  0
 26 10  1  0  0  0  0
 27  5  1  0  0  0  0
 28 10  1  0  0  0  0
 28 16  1  1  0  0  0
M  END
>  <MODEL>
8

>  <REMARK>
 VINA RESULT:      -7.5      2.296      5.568
  Name = 
  0 active torsions:
  status: ('A' for Active; 'I' for Inactive)
                            x       y       z     vdW  Elec       q    Type
                         _______ _______ _______ _____ _____    ______ ____

>  <TORSDO>
F 0

$$$$
=
 OpenBabel11112417413D

 28 32  0  0  1  0  0  0  0  0999 V2000
  189.0970  176.9650  143.9800 C   0  0  0  0  0  0  0  0  0  0  0  0
  192.6120  176.7910  144.5000 O   0  0  0  0  0  0  0  0  0  0  0  0
  190.5330  173.5270  139.0930 C   0  0  0  0  0  1  0  0  0  0  0  0
  188.4420  176.0490  146.5420 C   0  0  0  0  0  3  0  0  0  0  0  0
  191.0940  172.5270  141.2990 C   0  0  0  0  0  0  0  0  0  0  0  0
  189.3290  177.3600  142.6270 N   0  0  0  0  0  2  0  0  0  0  0  0
  192.9770  175.3020  146.4140 O   0  0  0  0  0  0  0  0  0  0  0  0
  192.8910  175.3730  144.9160 S   0  0  0  0  0  0  0  0  0  0  0  0
  194.3460  174.1010  143.0630 C   0  0  0  0  0  0  0  0  0  0  0  0
  191.6200  174.3020  144.3770 N   0  0  2  0  0  0  0  0  0  0  0  0
  186.7810  175.5530  142.3330 O   0  0  0  0  0  0  0  0  0  0  0  0
  189.8680  173.9180  142.7860 C   0  0  2  0  0  3  0  0  0  0  0  0
  193.1360  173.5680  142.6350 O   0  0  0  0  0  0  0  0  0  0  0  0
  194.3950  174.8760  144.2450 N   0  0  0  0  0  2  0  0  0  0  0  0
  187.7450  175.8250  141.6360 C   0  0  0  0  0  0  0  0  0  0  0  0
  189.6690  175.7780  144.4620 C   0  0  0  0  0  0  0  0  0  0  0  0
  190.4840  173.4510  140.5850 C   0  0  0  0  0  0  0  0  0  0  0  0
  195.3860  173.9360  142.3750 O   0  0  0  0  0  0  0  0  0  0  0  0
  188.3980  174.7450  140.8360 C   0  0  0  0  0  2  0  0  0  0  0  0
  189.3270  175.3200  145.7450 C   0  0  0  0  0  3  0  0  0  0  0  0
  188.1970  177.6830  144.7760 C   0  0  0  0  0  3  0  0  0  0  0  0
  187.8790  177.2320  146.0590 C   0  0  0  0  0  3  0  0  0  0  0  0
  188.2790  177.2260  141.6280 C   0  0  0  0  0  2  0  0  0  0  0  0
  190.8380  172.7280  142.7570 C   0  0  2  0  0  3  0  0  0  0  0  0
  189.6860  174.3170  141.3840 N   0  0  0  0  0  0  0  0  0  0  0  0
  192.0820  173.1920  143.5350 C   0  0  2  0  0  3  0  0  0  0  0  0
  191.9380  171.4300  140.7390 C   0  0  0  0  0  1  0  0  0  0  0  0
  190.6080  174.9920  143.5830 C   0  0  1  0  0  3  0  0  0  0  0  0
  1 16  2  0  0  0  0
  1 21  1  0  0  0  0
  2  8  2  0  0  0  0
  3 17  1  0  0  0  0
  6  1  1  0  0  0  0
  8  7  2  0  0  0  0
  9 14  1  0  0  0  0
 10  8  1  6  0  0  0
 12 25  1  6  0  0  0
 12 28  1  0  0  0  0
 13  9  1  0  0  0  0
 14  8  1  0  0  0  0
 15 11  2  0  0  0  0
 16 20  1  0  0  0  0
 17  5  2  0  0  0  0
 17 25  1  0  0  0  0
 18  9  2  0  0  0  0
 19 25  1  0  0  0  0
 19 15  1  0  0  0  0
 20  4  2  0  0  0  0
 21 22  2  0  0  0  0
 22  4  1  0  0  0  0
 23 15  1  0  0  0  0
 23  6  1  0  0  0  0
 24  5  1  6  0  0  0
 24 12  1  0  0  0  0
 24 26  1  0  0  0  0
 26 13  1  6  0  0  0
 26 10  1  0  0  0  0
 27  5  1  0  0  0  0
 28 10  1  0  0  0  0
 28 16  1  1  0  0  0
M  END
>  <MODEL>
9

>  <REMARK>
 VINA RESULT:      -7.2      2.916      5.550
  Name = 
  0 active torsions:
  status: ('A' for Active; 'I' for Inactive)
                            x       y       z     vdW  Elec       q    Type
                         _______ _______ _______ _____ _____    ______ ____

>  <TORSDO>
F 0

$$$$
