=
 OpenBabel11112417263D

 37 44  0  0  1  0  0  0  0  0999 V2000
  190.1400  173.7310  140.9360 C   0  0  2  0  0  3  0  0  0  0  0  0
  187.4380  176.7190  143.5050 C   0  0  0  0  0  0  0  0  0  0  0  0
  191.1680  175.8140  145.1690 C   0  0  0  0  0  0  0  0  0  0  0  0
  189.9950  172.3720  140.2870 C   0  0  2  0  0  3  0  0  0  0  0  0
  194.0330  174.6450  142.7950 C   0  0  0  0  0  2  0  0  0  0  0  0
  188.9190  176.6240  145.4970 C   0  0  0  0  0  0  0  0  0  0  0  0
  191.9180  175.2590  144.0390 C   0  0  0  0  0  0  0  0  0  0  0  0
  192.4550  172.6650  140.2240 C   0  0  2  0  0  3  0  0  0  0  0  0
  189.8950  176.0240  144.7350 C   0  0  0  0  0  0  0  0  0  0  0  0
  193.2300  174.9230  144.0600 C   0  0  0  0  0  0  0  0  0  0  0  0
  189.2550  177.0550  146.7870 C   0  0  0  0  0  3  0  0  0  0  0  0
  191.1120  173.3000  139.8200 C   0  0  2  0  0  3  0  0  0  0  0  0
  189.6970  175.6990  143.3890 N   0  0  0  0  0  0  0  0  0  0  0  0
  187.7050  178.0770  142.8830 C   0  0  0  0  0  1  0  0  0  0  0  0
  192.9730  176.4140  146.8240 C   0  0  0  0  0  3  0  0  0  0  0  0
  190.5910  176.9240  147.2300 C   0  0  0  0  0  3  0  0  0  0  0  0
  188.3480  175.6680  142.8210 C   0  0  0  0  0  2  0  0  0  0  0  0
  192.9510  173.0580  141.6100 C   0  0  1  0  0  3  0  0  0  0  0  0
  193.2550  174.4320  141.6490 O   0  0  0  0  0  0  0  0  0  0  0  0
  191.5730  176.3250  146.4090 C   0  0  0  0  0  0  0  0  0  0  0  0
  190.9370  175.1290  142.8580 C   0  0  2  0  0  3  0  0  0  0  0  0
  187.6520  176.8030  144.9300 O   0  0  0  0  0  0  0  0  0  0  0  0
  193.9160  174.7110  145.3160 N   0  0  0  0  0  0  0  0  0  0  0  0
  185.9930  176.3520  143.2470 C   0  0  0  0  0  1  0  0  0  0  0  0
  191.8400  172.7210  142.5940 C   0  0  0  0  0  2  0  0  0  0  0  0
  193.4250  172.9570  139.2650 O   0  0  0  0  0  1  0  0  0  0  0  0
  190.6630  173.6780  142.3890 C   0  0  2  0  0  3  0  0  0  0  0  0
  193.9990  175.7190  146.3370 C   0  0  0  0  0  3  0  0  0  0  0  0
  196.1300  173.6360  145.6370 C   0  0  0  0  0  3  0  0  0  0  0  0
  194.7360  173.5320  145.4830 C   0  0  0  0  0  0  0  0  0  0  0  0
  194.1470  172.2560  145.5280 C   0  0  0  0  0  3  0  0  0  0  0  0
  194.3490  169.8910  145.7420 F   0  0  0  0  0  0  0  0  0  0  0  0
  196.3160  171.2330  145.8500 C   0  0  0  0  0  3  0  0  0  0  0  0
  194.9320  171.1140  145.7060 C   0  0  0  0  0  0  0  0  0  0  0  0
  196.9150  172.4940  145.8170 C   0  0  0  0  0  3  0  0  0  0  0  0
  188.2900  173.6880  139.2830 O   0  0  0  0  0  1  0  0  0  0  0  0
  188.8600  172.4160  139.2860 C   0  0  0  0  0  2  0  0  0  0  0  0
  1 27  1  0  0  0  0
  2 22  1  0  0  0  0
  3 20  1  0  0  0  0
  4  1  1  0  0  0  0
  5 10  1  0  0  0  0
  6 11  2  0  0  0  0
  7 10  2  0  0  0  0
  7  3  1  0  0  0  0
  8 18  1  0  0  0  0
  9  3  2  0  0  0  0
  9  6  1  0  0  0  0
 10 23  1  0  0  0  0
 11 16  1  0  0  0  0
 12  8  1  0  0  0  0
 12  4  1  0  0  0  0
 12  1  1  0  0  0  0
 13  9  1  0  0  0  0
 14  2  1  0  0  0  0
 17 13  1  0  0  0  0
 17  2  1  0  0  0  0
 18 19  1  0  0  0  0
 18 25  1  0  0  0  0
 19  5  1  0  0  0  0
 20 15  1  0  0  0  0
 20 16  2  0  0  0  0
 21 13  1  0  0  0  0
 21  7  1  0  0  0  0
 22  6  1  0  0  0  0
 23 30  1  0  0  0  0
 23 28  1  0  0  0  0
 24  2  1  0  0  0  0
 26  8  1  0  0  0  0
 27 25  1  0  0  0  0
 27 21  1  0  0  0  0
 28 15  2  0  0  0  0
 29 35  1  0  0  0  0
 30 31  1  0  0  0  0
 30 29  2  0  0  0  0
 31 34  2  0  0  0  0
 34 32  1  0  0  0  0
 34 33  1  0  0  0  0
 35 33  2  0  0  0  0
 36 37  1  0  0  0  0
 37  4  1  0  0  0  0
M  END
>  <MODEL>
1

>  <REMARK>
 VINA RESULT:      -8.7      0.000      0.000
  Name = 
  2 active torsions:
  status: ('A' for Active; 'I' for Inactive)
    1  A    between atoms: C_4  and  C_37
    2  A    between atoms: N_23  and  C_30
                            x       y       z     vdW  Elec       q    Type
                         _______ _______ _______ _____ _____    ______ ____

>  <TORSDO>
F 2

$$$$
=
 OpenBabel11112417263D

 37 44  0  0  1  0  0  0  0  0999 V2000
  193.1900  174.0310  144.4300 C   0  0  2  0  0  3  0  0  0  0  0  0
  192.2490  172.5390  139.9890 C   0  0  0  0  0  0  0  0  0  0  0  0
  189.4000  175.1170  141.6440 C   0  0  0  0  0  0  0  0  0  0  0  0
  193.5430  173.4120  145.7650 C   0  0  2  0  0  3  0  0  0  0  0  0
  190.5050  177.5280  144.5040 C   0  0  0  0  0  2  0  0  0  0  0  0
  189.9370  173.4460  139.9880 C   0  0  0  0  0  0  0  0  0  0  0  0
  190.1080  175.7260  142.7720 C   0  0  0  0  0  0  0  0  0  0  0  0
  192.9360  175.7120  146.4570 C   0  0  2  0  0  3  0  0  0  0  0  0
  190.2270  174.1700  141.1220 C   0  0  0  0  0  0  0  0  0  0  0  0
  189.6270  176.7240  143.5520 C   0  0  0  0  0  0  0  0  0  0  0  0
  188.7310  173.7070  139.3240 C   0  0  0  0  0  3  0  0  0  0  0  0
  193.8470  174.8880  145.5300 C   0  0  2  0  0  3  0  0  0  0  0  0
  191.4670  174.0880  141.7630 N   0  0  0  0  0  0  0  0  0  0  0  0
  193.0430  173.4890  139.1110 C   0  0  0  0  0  1  0  0  0  0  0  0
  187.4550  176.6780  141.2690 C   0  0  0  0  0  3  0  0  0  0  0  0
  187.8940  174.7430  139.7980 C   0  0  0  0  0  3  0  0  0  0  0  0
  192.3890  172.9910  141.4650 C   0  0  0  0  0  2  0  0  0  0  0  0
  191.5840  176.0790  145.8560 C   0  0  1  0  0  3  0  0  0  0  0  0
  191.7560  176.9510  144.7650 O   0  0  0  0  0  0  0  0  0  0  0  0
  188.2370  175.4820  140.9530 C   0  0  0  0  0  0  0  0  0  0  0  0
  191.4690  175.0150  142.8960 C   0  0  2  0  0  3  0  0  0  0  0  0
  190.8790  172.5140  139.5380 O   0  0  0  0  0  0  0  0  0  0  0  0
  188.2090  177.0110  143.5900 N   0  0  0  0  0  0  0  0  0  0  0  0
  192.8390  171.1540  139.8470 C   0  0  0  0  0  1  0  0  0  0  0  0
  190.9260  174.7810  145.4130 C   0  0  0  0  0  2  0  0  0  0  0  0
  193.6040  176.8620  146.8790 O   0  0  0  0  0  1  0  0  0  0  0  0
  191.6730  174.2100  144.2050 C   0  0  2  0  0  3  0  0  0  0  0  0
  187.4530  177.3530  142.4160 C   0  0  0  0  0  3  0  0  0  0  0  0
  187.8020  176.2810  145.9260 C   0  0  0  0  0  3  0  0  0  0  0  0
  187.5550  177.1750  144.8680 C   0  0  0  0  0  0  0  0  0  0  0  0
  186.6830  178.2550  145.0890 C   0  0  0  0  0  3  0  0  0  0  0  0
  185.2180  179.4710  146.5220 F   0  0  0  0  0  0  0  0  0  0  0  0
  186.3090  177.5290  147.3660 C   0  0  0  0  0  3  0  0  0  0  0  0
  186.0600  178.4280  146.3280 C   0  0  0  0  0  0  0  0  0  0  0  0
  187.1810  176.4550  147.1660 C   0  0  0  0  0  3  0  0  0  0  0  0
  194.5400  171.2550  145.7850 O   0  0  0  0  0  1  0  0  0  0  0  0
  194.8200  172.6110  145.6220 C   0  0  0  0  0  2  0  0  0  0  0  0
  1 12  1  0  0  0  0
  1  4  1  0  0  0  0
  2 17  1  0  0  0  0
  3  7  1  0  0  0  0
  5 19  1  0  0  0  0
  6  9  2  0  0  0  0
  7 21  1  0  0  0  0
  7 10  2  0  0  0  0
  8 26  1  0  0  0  0
  9  3  1  0  0  0  0
  9 13  1  0  0  0  0
 10 23  1  0  0  0  0
 10  5  1  0  0  0  0
 11 16  2  0  0  0  0
 11  6  1  0  0  0  0
 12  4  1  0  0  0  0
 12  8  1  0  0  0  0
 13 21  1  0  0  0  0
 14  2  1  0  0  0  0
 15 28  2  0  0  0  0
 16 20  1  0  0  0  0
 17 13  1  0  0  0  0
 18  8  1  0  0  0  0
 19 18  1  0  0  0  0
 20 15  1  0  0  0  0
 20  3  2  0  0  0  0
 21 27  1  0  0  0  0
 22  6  1  0  0  0  0
 22  2  1  0  0  0  0
 23 30  1  0  0  0  0
 24  2  1  0  0  0  0
 25 18  1  0  0  0  0
 27  1  1  0  0  0  0
 27 25  1  0  0  0  0
 28 23  1  0  0  0  0
 29 35  1  0  0  0  0
 30 31  1  0  0  0  0
 30 29  2  0  0  0  0
 31 34  2  0  0  0  0
 34 32  1  0  0  0  0
 34 33  1  0  0  0  0
 35 33  2  0  0  0  0
 37  4  1  0  0  0  0
 37 36  1  0  0  0  0
M  END
>  <MODEL>
2

>  <REMARK>
 VINA RESULT:      -8.6      3.072      7.364
  Name = 
  2 active torsions:
  status: ('A' for Active; 'I' for Inactive)
    1  A    between atoms: C_4  and  C_37
    2  A    between atoms: N_23  and  C_30
                            x       y       z     vdW  Elec       q    Type
                         _______ _______ _______ _____ _____    ______ ____

>  <TORSDO>
F 2

$$$$
=
 OpenBabel11112417263D

 37 44  0  0  1  0  0  0  0  0999 V2000
  194.9710  174.4320  144.3210 C   0  0  2  0  0  3  0  0  0  0  0  0
  194.3040  171.8350  140.3660 C   0  0  0  0  0  0  0  0  0  0  0  0
  190.9660  173.9980  141.6610 C   0  0  0  0  0  0  0  0  0  0  0  0
  195.4930  174.2150  145.7250 C   0  0  2  0  0  3  0  0  0  0  0  0
  191.5370  177.1610  143.8710 C   0  0  0  0  0  2  0  0  0  0  0  0
  191.8430  172.1730  140.3490 C   0  0  0  0  0  0  0  0  0  0  0  0
  191.5360  174.9830  142.5830 C   0  0  0  0  0  0  0  0  0  0  0  0
  194.3740  176.4120  145.9710 C   0  0  2  0  0  3  0  0  0  0  0  0
  191.9810  173.1720  141.2850 C   0  0  0  0  0  0  0  0  0  0  0  0
  190.8510  175.9910  143.1740 C   0  0  0  0  0  0  0  0  0  0  0  0
  190.5940  172.0030  139.7380 C   0  0  0  0  0  3  0  0  0  0  0  0
  195.4320  175.6340  145.1690 C   0  0  2  0  0  3  0  0  0  0  0  0
  193.2200  173.5150  141.8350 N   0  0  0  0  0  0  0  0  0  0  0  0
  194.8290  172.7250  139.2540 C   0  0  0  0  0  1  0  0  0  0  0  0
  188.6980  174.9580  141.1180 C   0  0  0  0  0  3  0  0  0  0  0  0
  189.5480  172.9000  140.0490 C   0  0  0  0  0  3  0  0  0  0  0  0
  194.3680  172.6170  141.7030 C   0  0  0  0  0  2  0  0  0  0  0  0
  192.9600  176.3240  145.4090 C   0  0  1  0  0  3  0  0  0  0  0  0
  192.8940  176.9530  144.1520 O   0  0  0  0  0  0  0  0  0  0  0  0
  189.7340  173.9310  140.9980 C   0  0  0  0  0  0  0  0  0  0  0  0
  193.0300  174.6430  142.7500 C   0  0  2  0  0  3  0  0  0  0  0  0
  192.9680  171.4020  140.0330 O   0  0  0  0  0  0  0  0  0  0  0  0
  189.4070  175.9520  143.2570 N   0  0  0  0  0  0  0  0  0  0  0  0
  195.2020  170.6220  140.4690 C   0  0  0  0  0  1  0  0  0  0  0  0
  192.6180  174.8460  145.2940 C   0  0  0  0  0  2  0  0  0  0  0  0
  194.7610  177.7470  146.0950 O   0  0  0  0  0  1  0  0  0  0  0  0
  193.4490  174.2100  144.1770 C   0  0  2  0  0  3  0  0  0  0  0  0
  188.5640  175.8500  142.0980 C   0  0  0  0  0  3  0  0  0  0  0  0
  187.9200  177.3540  144.6640 C   0  0  0  0  0  3  0  0  0  0  0  0
  188.7640  176.2380  144.5190 C   0  0  0  0  0  0  0  0  0  0  0  0
  188.9450  175.3840  145.6210 C   0  0  0  0  0  3  0  0  0  0  0  0
  188.5030  174.8150  147.8920 F   0  0  0  0  0  0  0  0  0  0  0  0
  187.4840  176.7620  146.9700 C   0  0  0  0  0  3  0  0  0  0  0  0
  188.3130  175.6470  146.8390 C   0  0  0  0  0  0  0  0  0  0  0  0
  187.2870  177.6150  145.8820 C   0  0  0  0  0  3  0  0  0  0  0  0
  196.9850  172.4230  146.1810 O   0  0  0  0  0  1  0  0  0  0  0  0
  196.9190  173.7120  145.6560 C   0  0  0  0  0  2  0  0  0  0  0  0
  1 12  1  0  0  0  0
  1  4  1  0  0  0  0
  2 24  1  0  0  0  0
  2 17  1  0  0  0  0
  3  7  1  0  0  0  0
  5 19  1  0  0  0  0
  6  9  2  0  0  0  0
  7 21  1  0  0  0  0
  7 10  2  0  0  0  0
  8 26  1  0  0  0  0
  9  3  1  0  0  0  0
  9 13  1  0  0  0  0
 10 23  1  0  0  0  0
 10  5  1  0  0  0  0
 11 16  2  0  0  0  0
 11  6  1  0  0  0  0
 12  4  1  0  0  0  0
 12  8  1  0  0  0  0
 13 21  1  0  0  0  0
 14  2  1  0  0  0  0
 15 28  2  0  0  0  0
 16 20  1  0  0  0  0
 17 13  1  0  0  0  0
 18  8  1  0  0  0  0
 19 18  1  0  0  0  0
 20 15  1  0  0  0  0
 20  3  2  0  0  0  0
 21 27  1  0  0  0  0
 22  6  1  0  0  0  0
 22  2  1  0  0  0  0
 23 30  1  0  0  0  0
 25 18  1  0  0  0  0
 27  1  1  0  0  0  0
 27 25  1  0  0  0  0
 28 23  1  0  0  0  0
 29 35  1  0  0  0  0
 30 29  2  0  0  0  0
 30 31  1  0  0  0  0
 31 34  2  0  0  0  0
 34 33  1  0  0  0  0
 34 32  1  0  0  0  0
 35 33  2  0  0  0  0
 37  4  1  0  0  0  0
 37 36  1  0  0  0  0
M  END
>  <MODEL>
3

>  <REMARK>
 VINA RESULT:      -8.5      2.495      7.293
  Name = 
  2 active torsions:
  status: ('A' for Active; 'I' for Inactive)
    1  A    between atoms: C_4  and  C_37
    2  A    between atoms: N_23  and  C_30
                            x       y       z     vdW  Elec       q    Type
                         _______ _______ _______ _____ _____    ______ ____

>  <TORSDO>
F 2

$$$$
=
 OpenBabel11112417263D

 37 44  0  0  1  0  0  0  0  0999 V2000
  191.4300  173.6150  140.9490 C   0  0  2  0  0  3  0  0  0  0  0  0
  195.8210  174.6730  142.5080 C   0  0  0  0  0  0  0  0  0  0  0  0
  192.7060  175.7880  145.0670 C   0  0  0  0  0  0  0  0  0  0  0  0
  190.6060  173.8320  139.6990 C   0  0  2  0  0  3  0  0  0  0  0  0
  189.3080  173.8910  144.8050 C   0  0  0  0  0  2  0  0  0  0  0  0
  195.0050  176.0710  144.3920 C   0  0  0  0  0  0  0  0  0  0  0  0
  191.5680  175.0060  144.5780 C   0  0  0  0  0  0  0  0  0  0  0  0
  188.8520  173.1400  141.3060 C   0  0  2  0  0  3  0  0  0  0  0  0
  193.7370  175.5700  144.2050 C   0  0  0  0  0  0  0  0  0  0  0  0
  190.3500  174.9440  145.1670 C   0  0  0  0  0  0  0  0  0  0  0  0
  195.2550  176.8370  145.5370 C   0  0  0  0  0  3  0  0  0  0  0  0
  190.1950  172.7340  140.6740 C   0  0  2  0  0  3  0  0  0  0  0  0
  193.4320  174.6740  143.1760 N   0  0  0  0  0  0  0  0  0  0  0  0
  196.2980  173.3850  143.1540 C   0  0  0  0  0  1  0  0  0  0  0  0
  191.9840  176.4760  147.3840 C   0  0  0  0  0  3  0  0  0  0  0  0
  194.2240  177.0080  146.4900 C   0  0  0  0  0  3  0  0  0  0  0  0
  194.3520  174.4880  142.0530 C   0  0  0  0  0  2  0  0  0  0  0  0
  188.9730  173.9740  142.5750 C   0  0  1  0  0  3  0  0  0  0  0  0
  189.5620  173.2140  143.6040 O   0  0  0  0  0  0  0  0  0  0  0  0
  192.9400  176.4570  146.2760 C   0  0  0  0  0  0  0  0  0  0  0  0
  192.0220  174.2960  143.2880 C   0  0  2  0  0  3  0  0  0  0  0  0
  195.9870  175.7590  143.4440 O   0  0  0  0  0  0  0  0  0  0  0  0
  189.9380  175.9550  146.1160 N   0  0  0  0  0  0  0  0  0  0  0  0
  196.6780  174.9390  141.2900 C   0  0  0  0  0  1  0  0  0  0  0  0
  189.8330  175.1820  142.2340 C   0  0  0  0  0  2  0  0  0  0  0  0
  188.0800  172.0040  141.5470 O   0  0  0  0  0  1  0  0  0  0  0  0
  191.2790  174.7360  142.0010 C   0  0  2  0  0  3  0  0  0  0  0  0
  190.6750  176.2420  147.3160 C   0  0  0  0  0  3  0  0  0  0  0  0
  187.6330  176.3430  146.9500 C   0  0  0  0  0  3  0  0  0  0  0  0
  188.6310  176.5580  145.9830 C   0  0  0  0  0  0  0  0  0  0  0  0
  188.3440  177.4020  144.8950 C   0  0  0  0  0  3  0  0  0  0  0  0
  186.8270  178.8070  143.7120 F   0  0  0  0  0  0  0  0  0  0  0  0
  186.1050  177.7730  145.7330 C   0  0  0  0  0  3  0  0  0  0  0  0
  187.0880  178.0010  144.7690 C   0  0  0  0  0  0  0  0  0  0  0  0
  186.3780  176.9450  146.8250 C   0  0  0  0  0  3  0  0  0  0  0  0
  191.4550  174.1560  137.5030 O   0  0  0  0  0  1  0  0  0  0  0  0
  191.3190  173.2090  138.5170 C   0  0  0  0  0  2  0  0  0  0  0  0
  1 27  1  0  0  0  0
  2 14  1  0  0  0  0
  2 22  1  0  0  0  0
  3 20  1  0  0  0  0
  4 12  1  0  0  0  0
  4  1  1  0  0  0  0
  5 10  1  0  0  0  0
  6 11  2  0  0  0  0
  7  3  1  0  0  0  0
  7 10  2  0  0  0  0
  8 26  1  0  0  0  0
  8 18  1  0  0  0  0
  9  6  1  0  0  0  0
  9  3  2  0  0  0  0
 10 23  1  0  0  0  0
 11 16  1  0  0  0  0
 12  1  1  0  0  0  0
 12  8  1  0  0  0  0
 13 21  1  0  0  0  0
 13  9  1  0  0  0  0
 17  2  1  0  0  0  0
 17 13  1  0  0  0  0
 18 19  1  0  0  0  0
 19  5  1  0  0  0  0
 20 16  2  0  0  0  0
 20 15  1  0  0  0  0
 21  7  1  0  0  0  0
 22  6  1  0  0  0  0
 23 28  1  0  0  0  0
 24  2  1  0  0  0  0
 25 18  1  0  0  0  0
 27 25  1  0  0  0  0
 27 21  1  0  0  0  0
 28 15  2  0  0  0  0
 30 23  1  0  0  0  0
 30 29  2  0  0  0  0
 31 30  1  0  0  0  0
 32 34  1  0  0  0  0
 33 35  2  0  0  0  0
 34 31  2  0  0  0  0
 34 33  1  0  0  0  0
 35 29  1  0  0  0  0
 36 37  1  0  0  0  0
 37  4  1  0  0  0  0
M  END
>  <MODEL>
4

>  <REMARK>
 VINA RESULT:      -8.3      2.852      6.237
  Name = 
  2 active torsions:
  status: ('A' for Active; 'I' for Inactive)
    1  A    between atoms: C_4  and  C_37
    2  A    between atoms: N_23  and  C_30
                            x       y       z     vdW  Elec       q    Type
                         _______ _______ _______ _____ _____    ______ ____

>  <TORSDO>
F 2

$$$$
=
 OpenBabel11112417263D

 37 44  0  0  1  0  0  0  0  0999 V2000
  191.5680  173.2610  140.9760 C   0  0  2  0  0  3  0  0  0  0  0  0
  195.3830  173.5280  143.8390 C   0  0  0  0  0  0  0  0  0  0  0  0
  192.0040  175.5990  145.1770 C   0  0  0  0  0  0  0  0  0  0  0  0
  191.2480  173.4940  139.5150 C   0  0  2  0  0  3  0  0  0  0  0  0
  188.4960  174.4640  143.9030 C   0  0  0  0  0  2  0  0  0  0  0  0
  194.3950  175.2920  145.2820 C   0  0  0  0  0  0  0  0  0  0  0  0
  190.9170  175.0270  144.3790 C   0  0  0  0  0  0  0  0  0  0  0  0
  188.9710  173.4020  140.4870 C   0  0  2  0  0  3  0  0  0  0  0  0
  193.1640  175.0580  144.7130 C   0  0  0  0  0  0  0  0  0  0  0  0
  189.6000  175.3030  144.5370 C   0  0  0  0  0  0  0  0  0  0  0  0
  194.4590  176.1220  146.4090 C   0  0  0  0  0  3  0  0  0  0  0  0
  190.3010  172.6410  140.3520 C   0  0  2  0  0  3  0  0  0  0  0  0
  192.9810  174.1290  143.6840 N   0  0  0  0  0  0  0  0  0  0  0  0
  195.3070  172.2580  144.6660 C   0  0  0  0  0  1  0  0  0  0  0  0
  190.7940  176.7080  147.0930 C   0  0  0  0  0  3  0  0  0  0  0  0
  193.2600  176.6280  146.9600 C   0  0  0  0  0  3  0  0  0  0  0  0
  194.1270  173.6110  142.9350 C   0  0  0  0  0  2  0  0  0  0  0  0
  188.8960  174.3410  141.6850 C   0  0  1  0  0  3  0  0  0  0  0  0
  188.9340  173.6050  142.8840 O   0  0  0  0  0  0  0  0  0  0  0  0
  192.0100  176.3460  146.3620 C   0  0  0  0  0  0  0  0  0  0  0  0
  191.5570  174.0820  143.3440 C   0  0  2  0  0  3  0  0  0  0  0  0
  195.5130  174.6600  144.7250 O   0  0  0  0  0  0  0  0  0  0  0  0
  189.1760  176.4890  145.2490 N   0  0  0  0  0  0  0  0  0  0  0  0
  196.6110  173.4510  142.9590 C   0  0  0  0  0  1  0  0  0  0  0  0
  190.0870  175.2830  141.5890 C   0  0  0  0  0  2  0  0  0  0  0  0
  187.9080  172.4990  140.5150 O   0  0  0  0  0  1  0  0  0  0  0  0
  191.3790  174.5100  141.8650 C   0  0  2  0  0  3  0  0  0  0  0  0
  189.5550  176.7560  146.6090 C   0  0  0  0  0  3  0  0  0  0  0  0
  188.1890  177.6580  143.2950 C   0  0  0  0  0  3  0  0  0  0  0  0
  188.1640  177.3390  144.6650 C   0  0  0  0  0  0  0  0  0  0  0  0
  187.1120  177.8390  145.4530 C   0  0  0  0  0  3  0  0  0  0  0  0
  185.1180  179.1260  145.6650 F   0  0  0  0  0  0  0  0  0  0  0  0
  186.1640  178.9620  143.5310 C   0  0  0  0  0  3  0  0  0  0  0  0
  186.1220  178.6490  144.8900 C   0  0  0  0  0  0  0  0  0  0  0  0
  187.1980  178.4660  142.7330 C   0  0  0  0  0  3  0  0  0  0  0  0
  191.9810  171.2730  139.0980 O   0  0  0  0  0  1  0  0  0  0  0  0
  192.1150  172.5910  138.6640 C   0  0  0  0  0  2  0  0  0  0  0  0
  1 27  1  0  0  0  0
  2 14  1  0  0  0  0
  2 22  1  0  0  0  0
  3 20  1  0  0  0  0
  4 12  1  0  0  0  0
  4  1  1  0  0  0  0
  5 10  1  0  0  0  0
  6 11  2  0  0  0  0
  7 10  2  0  0  0  0
  7  3  1  0  0  0  0
  8 26  1  0  0  0  0
  8 18  1  0  0  0  0
  9  3  2  0  0  0  0
  9  6  1  0  0  0  0
 10 23  1  0  0  0  0
 11 16  1  0  0  0  0
 12  8  1  0  0  0  0
 12  1  1  0  0  0  0
 13  9  1  0  0  0  0
 17 13  1  0  0  0  0
 17  2  1  0  0  0  0
 18 19  1  0  0  0  0
 19  5  1  0  0  0  0
 20 16  2  0  0  0  0
 20 15  1  0  0  0  0
 21 13  1  0  0  0  0
 21  7  1  0  0  0  0
 22  6  1  0  0  0  0
 23 28  1  0  0  0  0
 24  2  1  0  0  0  0
 25 18  1  0  0  0  0
 25 27  1  0  0  0  0
 27 21  1  0  0  0  0
 28 15  2  0  0  0  0
 29 30  1  0  0  0  0
 30 23  1  0  0  0  0
 30 31  2  0  0  0  0
 33 34  2  0  0  0  0
 34 31  1  0  0  0  0
 34 32  1  0  0  0  0
 35 29  2  0  0  0  0
 35 33  1  0  0  0  0
 37 36  1  0  0  0  0
 37  4  1  0  0  0  0
M  END
>  <MODEL>
5

>  <REMARK>
 VINA RESULT:      -7.7      2.695      6.487
  Name = 
  2 active torsions:
  status: ('A' for Active; 'I' for Inactive)
    1  A    between atoms: C_4  and  C_37
    2  A    between atoms: N_23  and  C_30
                            x       y       z     vdW  Elec       q    Type
                         _______ _______ _______ _____ _____    ______ ____

>  <TORSDO>
F 2

$$$$
=
 OpenBabel11112417263D

 37 44  0  0  1  0  0  0  0  0999 V2000
  191.4490  173.1930  143.3680 C   0  0  2  0  0  3  0  0  0  0  0  0
  190.1530  172.8840  138.7800 C   0  0  0  0  0  0  0  0  0  0  0  0
  188.2090  175.8610  140.9830 C   0  0  0  0  0  0  0  0  0  0  0  0
  191.5790  172.2660  144.5570 C   0  0  2  0  0  3  0  0  0  0  0  0
  189.9620  177.2660  144.1720 C   0  0  0  0  0  2  0  0  0  0  0  0
  188.2290  174.4340  139.0380 C   0  0  0  0  0  0  0  0  0  0  0  0
  189.0550  176.0130  142.1700 C   0  0  0  0  0  0  0  0  0  0  0  0
  191.6950  174.4770  145.6680 C   0  0  2  0  0  3  0  0  0  0  0  0
  188.7130  174.8180  140.2670 C   0  0  0  0  0  0  0  0  0  0  0  0
  188.8920  176.9520  143.1320 C   0  0  0  0  0  0  0  0  0  0  0  0
  187.1700  175.1630  138.4840 C   0  0  0  0  0  3  0  0  0  0  0  0
  192.3220  173.5970  144.5730 C   0  0  2  0  0  3  0  0  0  0  0  0
  189.8600  174.2500  140.8300 N   0  0  0  0  0  0  0  0  0  0  0  0
  191.2100  173.6910  138.0480 C   0  0  0  0  0  1  0  0  0  0  0  0
  186.8390  177.9790  140.9730 C   0  0  0  0  0  3  0  0  0  0  0  0
  186.6840  176.3010  139.1670 C   0  0  0  0  0  3  0  0  0  0  0  0
  190.4050  172.9980  140.3050 C   0  0  0  0  0  2  0  0  0  0  0  0
  190.5290  175.3390  145.2000 C   0  0  1  0  0  3  0  0  0  0  0  0
  190.9730  176.3000  144.2730 O   0  0  0  0  0  0  0  0  0  0  0  0
  187.2220  176.6800  140.4190 C   0  0  0  0  0  0  0  0  0  0  0  0
  190.1310  174.9120  142.1080 C   0  0  2  0  0  3  0  0  0  0  0  0
  188.8460  173.3570  138.3910 O   0  0  0  0  0  0  0  0  0  0  0  0
  187.6300  177.6430  143.2820 N   0  0  0  0  0  0  0  0  0  0  0  0
  190.2920  171.4340  138.3700 C   0  0  0  0  0  1  0  0  0  0  0  0
  189.5100  174.4030  144.5650 C   0  0  0  0  0  2  0  0  0  0  0  0
  192.6780  175.2740  146.2560 O   0  0  0  0  0  1  0  0  0  0  0  0
  190.0620  173.8620  143.2440 C   0  0  2  0  0  3  0  0  0  0  0  0
  187.0300  178.4040  142.2210 C   0  0  0  0  0  3  0  0  0  0  0  0
  186.2370  178.8680  144.9290 C   0  0  0  0  0  3  0  0  0  0  0  0
  187.0410  177.7640  144.5960 C   0  0  0  0  0  0  0  0  0  0  0  0
  187.2370  176.7580  145.5590 C   0  0  0  0  0  3  0  0  0  0  0  0
  186.8600  175.8860  147.7440 F   0  0  0  0  0  0  0  0  0  0  0  0
  185.8660  177.9670  147.1450 C   0  0  0  0  0  3  0  0  0  0  0  0
  186.6570  176.8620  146.8270 C   0  0  0  0  0  0  0  0  0  0  0  0
  185.6550  178.9700  146.1960 C   0  0  0  0  0  3  0  0  0  0  0  0
  193.6480  171.2190  145.0790 O   0  0  0  0  0  1  0  0  0  0  0  0
  192.5510  171.1550  144.2200 C   0  0  0  0  0  2  0  0  0  0  0  0
  1  4  1  0  0  0  0
  1 12  1  0  0  0  0
  2 17  1  0  0  0  0
  3  7  1  0  0  0  0
  4 12  1  0  0  0  0
  5 19  1  0  0  0  0
  6  9  1  0  0  0  0
  7 10  2  0  0  0  0
  8 26  1  0  0  0  0
  9 13  1  0  0  0  0
  9  3  2  0  0  0  0
 10 23  1  0  0  0  0
 10  5  1  0  0  0  0
 11  6  2  0  0  0  0
 11 16  1  0  0  0  0
 12  8  1  0  0  0  0
 13 21  1  0  0  0  0
 14  2  1  0  0  0  0
 15 28  2  0  0  0  0
 16 20  2  0  0  0  0
 17 13  1  0  0  0  0
 18  8  1  0  0  0  0
 19 18  1  0  0  0  0
 20 15  1  0  0  0  0
 20  3  1  0  0  0  0
 21  7  1  0  0  0  0
 21 27  1  0  0  0  0
 22  2  1  0  0  0  0
 22  6  1  0  0  0  0
 23 30  1  0  0  0  0
 24  2  1  0  0  0  0
 25 18  1  0  0  0  0
 27  1  1  0  0  0  0
 27 25  1  0  0  0  0
 28 23  1  0  0  0  0
 29 35  1  0  0  0  0
 30 29  2  0  0  0  0
 30 31  1  0  0  0  0
 31 34  2  0  0  0  0
 34 33  1  0  0  0  0
 34 32  1  0  0  0  0
 35 33  2  0  0  0  0
 37  4  1  0  0  0  0
 37 36  1  0  0  0  0
M  END
>  <MODEL>
6

>  <REMARK>
 VINA RESULT:      -7.6      3.039      7.196
  Name = 
  2 active torsions:
  status: ('A' for Active; 'I' for Inactive)
    1  A    between atoms: C_4  and  C_37
    2  A    between atoms: N_23  and  C_30
                            x       y       z     vdW  Elec       q    Type
                         _______ _______ _______ _____ _____    ______ ____

>  <TORSDO>
F 2

$$$$
=
 OpenBabel11112417263D

 37 44  0  0  1  0  0  0  0  0999 V2000
  192.3650  173.1520  140.2060 C   0  0  2  0  0  3  0  0  0  0  0  0
  196.7840  174.9610  140.3900 C   0  0  0  0  0  0  0  0  0  0  0  0
  194.4110  175.7080  143.7530 C   0  0  0  0  0  0  0  0  0  0  0  0
  191.1880  173.1730  139.2540 C   0  0  2  0  0  3  0  0  0  0  0  0
  191.4450  173.2940  144.5160 C   0  0  0  0  0  2  0  0  0  0  0  0
  196.3340  176.3110  142.4260 C   0  0  0  0  0  0  0  0  0  0  0  0
  193.3250  174.7340  143.6260 C   0  0  0  0  0  0  0  0  0  0  0  0
  190.1170  172.3000  141.3110 C   0  0  2  0  0  3  0  0  0  0  0  0
  195.1680  175.6090  142.6250 C   0  0  0  0  0  0  0  0  0  0  0  0
  192.3590  174.5130  144.5500 C   0  0  0  0  0  0  0  0  0  0  0  0
  196.7780  177.1650  143.4440 C   0  0  0  0  0  3  0  0  0  0  0  0
  191.2660  172.0760  140.3120 C   0  0  2  0  0  3  0  0  0  0  0  0
  194.7270  174.6240  141.7360 N   0  0  0  0  0  0  0  0  0  0  0  0
  197.6330  173.7980  140.8710 C   0  0  0  0  0  1  0  0  0  0  0  0
  194.2940  176.3940  146.1780 C   0  0  0  0  0  3  0  0  0  0  0  0
  196.0560  177.2220  144.6580 C   0  0  0  0  0  3  0  0  0  0  0  0
  195.2960  174.5260  140.3910 C   0  0  0  0  0  2  0  0  0  0  0  0
  190.4650  173.2070  142.4850 C   0  0  1  0  0  3  0  0  0  0  0  0
  191.4440  172.6030  143.2960 O   0  0  0  0  0  0  0  0  0  0  0  0
  194.8740  176.4670  144.8360 C   0  0  0  0  0  0  0  0  0  0  0  0
  193.4920  174.0380  142.2620 C   0  0  2  0  0  3  0  0  0  0  0  0
  197.0340  176.1070  141.2310 O   0  0  0  0  0  0  0  0  0  0  0  0
  192.0810  175.4950  145.5750 N   0  0  0  0  0  0  0  0  0  0  0  0
  197.1920  175.2940  138.9720 C   0  0  0  0  0  1  0  0  0  0  0  0
  190.9770  174.5160  141.9000 C   0  0  0  0  0  2  0  0  0  0  0  0
  189.6470  171.0710  141.7750 O   0  0  0  0  0  1  0  0  0  0  0  0
  192.3450  174.2890  141.2510 C   0  0  2  0  0  3  0  0  0  0  0  0
  193.0780  175.9570  146.5010 C   0  0  0  0  0  3  0  0  0  0  0  0
  189.9720  175.2740  146.8640 C   0  0  0  0  0  3  0  0  0  0  0  0
  190.7120  175.8800  145.8320 C   0  0  0  0  0  0  0  0  0  0  0  0
  190.1030  176.8950  145.0730 C   0  0  0  0  0  3  0  0  0  0  0  0
  188.2110  178.2590  144.5830 F   0  0  0  0  0  0  0  0  0  0  0  0
  188.0610  176.6680  146.3500 C   0  0  0  0  0  3  0  0  0  0  0  0
  188.7840  177.2830  145.3280 C   0  0  0  0  0  0  0  0  0  0  0  0
  188.6550  175.6640  147.1190 C   0  0  0  0  0  3  0  0  0  0  0  0
  191.9780  171.2700  138.0700 O   0  0  0  0  0  1  0  0  0  0  0  0
  191.6170  172.6080  137.9170 C   0  0  0  0  0  2  0  0  0  0  0  0
  1 12  1  0  0  0  0
  1 27  1  0  0  0  0
  2 17  1  0  0  0  0
  2 14  1  0  0  0  0
  2 22  1  0  0  0  0
  3 20  1  0  0  0  0
  4  1  1  0  0  0  0
  4 12  1  0  0  0  0
  5 10  1  0  0  0  0
  6  9  1  0  0  0  0
  6 11  2  0  0  0  0
  7  3  1  0  0  0  0
  7 10  2  0  0  0  0
  8 26  1  0  0  0  0
  8 18  1  0  0  0  0
  9  3  2  0  0  0  0
 10 23  1  0  0  0  0
 11 16  1  0  0  0  0
 12  8  1  0  0  0  0
 13 21  1  0  0  0  0
 13  9  1  0  0  0  0
 15 28  2  0  0  0  0
 16 20  2  0  0  0  0
 17 13  1  0  0  0  0
 18 19  1  0  0  0  0
 19  5  1  0  0  0  0
 20 15  1  0  0  0  0
 21  7  1  0  0  0  0
 22  6  1  0  0  0  0
 23 30  1  0  0  0  0
 23 28  1  0  0  0  0
 24  2  1  0  0  0  0
 25 18  1  0  0  0  0
 27 25  1  0  0  0  0
 27 21  1  0  0  0  0
 29 35  1  0  0  0  0
 30 29  2  0  0  0  0
 31 34  2  0  0  0  0
 31 30  1  0  0  0  0
 32 34  1  0  0  0  0
 33 35  2  0  0  0  0
 34 33  1  0  0  0  0
 37 36  1  0  0  0  0
 37  4  1  0  0  0  0
M  END
>  <MODEL>
7

>  <REMARK>
 VINA RESULT:      -7.5      3.040      6.091
  Name = 
  2 active torsions:
  status: ('A' for Active; 'I' for Inactive)
    1  A    between atoms: C_4  and  C_37
    2  A    between atoms: N_23  and  C_30
                            x       y       z     vdW  Elec       q    Type
                         _______ _______ _______ _____ _____    ______ ____

>  <TORSDO>
F 2

$$$$
=
 OpenBabel11112417263D

 37 44  0  0  1  0  0  0  0  0999 V2000
  194.9700  173.8760  142.3320 C   0  0  2  0  0  3  0  0  0  0  0  0
  193.2160  171.9810  138.3120 C   0  0  0  0  0  0  0  0  0  0  0  0
  190.3900  173.7910  140.8090 C   0  0  0  0  0  0  0  0  0  0  0  0
  195.8460  173.4360  143.4860 C   0  0  2  0  0  3  0  0  0  0  0  0
  191.5920  176.5400  143.3010 C   0  0  0  0  0  2  0  0  0  0  0  0
  190.8480  172.2450  139.0140 C   0  0  0  0  0  0  0  0  0  0  0  0
  191.2050  174.6180  141.7020 C   0  0  0  0  0  0  0  0  0  0  0  0
  194.8750  175.5240  144.4000 C   0  0  2  0  0  3  0  0  0  0  0  0
  191.2510  173.0720  140.0380 C   0  0  0  0  0  0  0  0  0  0  0  0
  190.7230  175.4890  142.6200 C   0  0  0  0  0  0  0  0  0  0  0  0
  189.4780  172.1460  138.7400 C   0  0  0  0  0  3  0  0  0  0  0  0
  195.6640  174.9260  143.2220 C   0  0  2  0  0  3  0  0  0  0  0  0
  192.5980  173.3500  140.2870 N   0  0  0  0  0  0  0  0  0  0  0  0
  193.4390  173.0640  137.2730 C   0  0  0  0  0  1  0  0  0  0  0  0
  188.0770  174.7640  141.0690 C   0  0  0  0  0  3  0  0  0  0  0  0
  188.5700  172.9460  139.4710 C   0  0  0  0  0  3  0  0  0  0  0  0
  193.6510  172.5220  139.6980 C   0  0  0  0  0  2  0  0  0  0  0  0
  193.3610  175.4930  144.2310 C   0  0  1  0  0  3  0  0  0  0  0  0
  192.9710  176.3270  143.1670 O   0  0  0  0  0  0  0  0  0  0  0  0
  189.0230  173.8030  140.5000 C   0  0  0  0  0  0  0  0  0  0  0  0
  192.6820  174.2980  141.4000 C   0  0  2  0  0  3  0  0  0  0  0  0
  191.8320  171.5740  138.2790 O   0  0  0  0  0  0  0  0  0  0  0  0
  189.3540  175.3940  143.0790 N   0  0  0  0  0  0  0  0  0  0  0  0
  194.0850  170.7950  137.9580 C   0  0  0  0  0  1  0  0  0  0  0  0
  192.9730  174.0470  143.9570 C   0  0  0  0  0  2  0  0  0  0  0  0
  195.3060  176.8280  144.6460 O   0  0  0  0  0  1  0  0  0  0  0  0
  193.4610  173.6380  142.5650 C   0  0  2  0  0  3  0  0  0  0  0  0
  188.2280  175.4690  142.1890 C   0  0  0  0  0  3  0  0  0  0  0  0
  189.6240  174.4800  145.3710 C   0  0  0  0  0  3  0  0  0  0  0  0
  189.0790  175.4390  144.4970 C   0  0  0  0  0  0  0  0  0  0  0  0
  188.2860  176.4670  145.0370 C   0  0  0  0  0  3  0  0  0  0  0  0
  187.2600  177.5210  146.9110 F   0  0  0  0  0  0  0  0  0  0  0  0
  188.5720  175.5630  147.2630 C   0  0  0  0  0  3  0  0  0  0  0  0
  188.0310  176.5260  146.4090 C   0  0  0  0  0  0  0  0  0  0  0  0
  189.3700  174.5400  146.7430 C   0  0  0  0  0  3  0  0  0  0  0  0
  197.4990  173.7240  141.8030 O   0  0  0  0  0  1  0  0  0  0  0  0
  197.1910  172.9940  142.9500 C   0  0  0  0  0  2  0  0  0  0  0  0
  1 27  1  0  0  0  0
  1 12  1  0  0  0  0
  1  4  1  0  0  0  0
  2 17  1  0  0  0  0
  3  7  1  0  0  0  0
  6  9  1  0  0  0  0
  7 10  2  0  0  0  0
  8 26  1  0  0  0  0
  9 13  1  0  0  0  0
  9  3  2  0  0  0  0
 10 23  1  0  0  0  0
 10  5  1  0  0  0  0
 11  6  2  0  0  0  0
 11 16  1  0  0  0  0
 12  4  1  0  0  0  0
 12  8  1  0  0  0  0
 13 21  1  0  0  0  0
 14  2  1  0  0  0  0
 15 28  2  0  0  0  0
 16 20  2  0  0  0  0
 17 13  1  0  0  0  0
 18  8  1  0  0  0  0
 19  5  1  0  0  0  0
 19 18  1  0  0  0  0
 20  3  1  0  0  0  0
 20 15  1  0  0  0  0
 21  7  1  0  0  0  0
 21 27  1  0  0  0  0
 22  2  1  0  0  0  0
 22  6  1  0  0  0  0
 23 30  1  0  0  0  0
 24  2  1  0  0  0  0
 25 18  1  0  0  0  0
 27 25  1  0  0  0  0
 28 23  1  0  0  0  0
 29 35  1  0  0  0  0
 30 31  1  0  0  0  0
 30 29  2  0  0  0  0
 31 34  2  0  0  0  0
 34 32  1  0  0  0  0
 34 33  1  0  0  0  0
 35 33  2  0  0  0  0
 36 37  1  0  0  0  0
 37  4  1  0  0  0  0
M  END
>  <MODEL>
8

>  <REMARK>
 VINA RESULT:      -7.4      2.900      7.004
  Name = 
  2 active torsions:
  status: ('A' for Active; 'I' for Inactive)
    1  A    between atoms: C_4  and  C_37
    2  A    between atoms: N_23  and  C_30
                            x       y       z     vdW  Elec       q    Type
                         _______ _______ _______ _____ _____    ______ ____

>  <TORSDO>
F 2

$$$$
=
 OpenBabel11112417263D

 37 44  0  0  1  0  0  0  0  0999 V2000
  192.6960  172.0390  144.5780 C   0  0  2  0  0  3  0  0  0  0  0  0
  190.6310  175.8250  146.6360 C   0  0  0  0  0  0  0  0  0  0  0  0
  189.5480  175.1510  142.6520 C   0  0  0  0  0  0  0  0  0  0  0  0
  194.0950  171.4960  144.3880 C   0  0  2  0  0  3  0  0  0  0  0  0
  189.8920  171.5430  141.2110 C   0  0  0  0  0  2  0  0  0  0  0  0
  189.6900  176.6890  144.5050 C   0  0  0  0  0  0  0  0  0  0  0  0
  189.9640  173.7660  142.4160 C   0  0  0  0  0  0  0  0  0  0  0  0
  192.8320  170.1290  142.7520 C   0  0  2  0  0  3  0  0  0  0  0  0
  189.9770  175.4880  143.8990 C   0  0  0  0  0  0  0  0  0  0  0  0
  189.7160  173.0550  141.2900 C   0  0  0  0  0  0  0  0  0  0  0  0
  188.9020  177.6140  143.8080 C   0  0  0  0  0  3  0  0  0  0  0  0
  192.9080  170.5520  144.2300 C   0  0  2  0  0  3  0  0  0  0  0  0
  190.6250  174.4470  144.5720 N   0  0  0  0  0  0  0  0  0  0  0  0
  189.4440  175.2340  147.3760 C   0  0  0  0  0  1  0  0  0  0  0  0
  187.9260  175.5970  140.7720 C   0  0  0  0  0  3  0  0  0  0  0  0
  188.3740  177.2550  142.5470 C   0  0  0  0  0  3  0  0  0  0  0  0
  191.3280  174.6980  145.8310 C   0  0  0  0  0  2  0  0  0  0  0  0
  191.9910  171.0460  141.8720 C   0  0  1  0  0  3  0  0  0  0  0  0
  190.6400  170.9910  142.2600 O   0  0  0  0  0  0  0  0  0  0  0  0
  188.6700  176.0010  141.9660 C   0  0  0  0  0  0  0  0  0  0  0  0
  190.7290  173.2990  143.6690 C   0  0  2  0  0  3  0  0  0  0  0  0
  190.1730  176.9090  145.8010 O   0  0  0  0  0  0  0  0  0  0  0  0
  189.3600  173.7250  140.0580 N   0  0  0  0  0  0  0  0  0  0  0  0
  191.6060  176.3690  147.6560 C   0  0  0  0  0  1  0  0  0  0  0  0
  192.5460  172.4530  142.0360 C   0  0  0  0  0  2  0  0  0  0  0  0
  192.3720  168.8160  142.6580 O   0  0  0  0  0  1  0  0  0  0  0  0
  192.2260  172.9720  143.4400 C   0  0  2  0  0  3  0  0  0  0  0  0
  188.2200  174.5940  139.9470 C   0  0  0  0  0  3  0  0  0  0  0  0
  191.4020  173.6200  138.6530 C   0  0  0  0  0  3  0  0  0  0  0  0
  190.0320  173.3560  138.8340 C   0  0  0  0  0  0  0  0  0  0  0  0
  189.3330  172.6940  137.8090 C   0  0  0  0  0  3  0  0  0  0  0  0
  189.2920  171.6870  135.6500 F   0  0  0  0  0  0  0  0  0  0  0  0
  191.3400  172.5950  136.4610 C   0  0  0  0  0  3  0  0  0  0  0  0
  189.9820  172.3200  136.6290 C   0  0  0  0  0  0  0  0  0  0  0  0
  192.0510  173.2440  137.4740 C   0  0  0  0  0  3  0  0  0  0  0  0
  194.5760  169.9400  146.1180 O   0  0  0  0  0  1  0  0  0  0  0  0
  194.7330  171.2730  145.7430 C   0  0  0  0  0  2  0  0  0  0  0  0
  2 14  1  0  0  0  0
  2 24  1  0  0  0  0
  3  9  1  0  0  0  0
  4  1  1  0  0  0  0
  4 37  1  0  0  0  0
  5 10  1  0  0  0  0
  5 19  1  0  0  0  0
  6 22  1  0  0  0  0
  7  3  1  0  0  0  0
  7 21  1  0  0  0  0
  8 12  1  0  0  0  0
  9  6  2  0  0  0  0
  9 13  1  0  0  0  0
 10  7  2  0  0  0  0
 11  6  1  0  0  0  0
 12  4  1  0  0  0  0
 12  1  1  0  0  0  0
 13 17  1  0  0  0  0
 15 20  1  0  0  0  0
 16 11  2  0  0  0  0
 17  2  1  0  0  0  0
 18 25  1  0  0  0  0
 18 19  1  0  0  0  0
 18  8  1  0  0  0  0
 20 16  1  0  0  0  0
 20  3  2  0  0  0  0
 21 13  1  0  0  0  0
 22  2  1  0  0  0  0
 23 10  1  0  0  0  0
 25 27  1  0  0  0  0
 26  8  1  0  0  0  0
 27 21  1  0  0  0  0
 27  1  1  0  0  0  0
 28 23  1  0  0  0  0
 28 15  2  0  0  0  0
 29 30  1  0  0  0  0
 30 23  1  0  0  0  0
 31 30  2  0  0  0  0
 32 34  1  0  0  0  0
 33 34  2  0  0  0  0
 33 35  1  0  0  0  0
 34 31  1  0  0  0  0
 35 29  2  0  0  0  0
 37 36  1  0  0  0  0
M  END
>  <MODEL>
9

>  <REMARK>
 VINA RESULT:      -7.3      3.007      6.298
  Name = 
  2 active torsions:
  status: ('A' for Active; 'I' for Inactive)
    1  A    between atoms: C_4  and  C_37
    2  A    between atoms: N_23  and  C_30
                            x       y       z     vdW  Elec       q    Type
                         _______ _______ _______ _____ _____    ______ ____

>  <TORSDO>
F 2

$$$$
