=
 OpenBabel11112416423D

 32 37  0  0  1  0  0  0  0  0999 V2000
  190.6380  174.9630  145.1730 C   0  0  1  0  0  3  0  0  0  0  0  0
  188.8740  172.7050  141.9900 O   0  0  0  0  0  0  0  0  0  0  0  0
  187.7720  173.5800  142.0100 C   0  0  0  0  0  2  0  0  0  0  0  0
  188.9220  176.4160  146.4290 C   0  0  1  0  0  3  0  0  0  0  0  0
  187.8670  177.4790  146.1400 C   0  0  2  0  0  3  0  0  0  0  0  0
  193.0390  175.3810  145.8650 N   0  0  0  0  0  0  0  0  0  0  0  0
  192.3690  173.8290  143.9940 C   0  0  0  0  0  2  0  0  0  0  0  0
  185.8240  177.9760  145.0250 C   0  0  1  0  0  3  0  0  0  0  0  0
  189.6880  173.0480  143.0850 C   0  0  0  0  0  2  0  0  0  0  0  0
  191.3050  174.8180  143.8730 N   0  0  1  0  0  0  0  0  0  0  0  0
  190.3510  174.4170  142.8280 C   0  0  2  0  0  3  0  0  0  0  0  0
  188.5980  175.8510  143.9750 C   0  0  2  0  0  3  0  0  0  0  0  0
  185.6610  178.3380  146.5050 C   0  0  0  0  0  2  0  0  0  0  0  0
  193.4950  174.3970  144.8640 C   0  0  2  0  0  3  0  0  0  0  0  0
  186.8970  177.8160  147.2450 C   0  0  0  0  0  2  0  0  0  0  0  0
  188.2180  175.0000  141.6390 C   0  0  0  0  0  2  0  0  0  0  0  0
  189.2660  175.4980  142.6390 C   0  0  2  0  0  3  0  0  0  0  0  0
  187.7160  176.9480  143.8210 O   0  0  0  0  0  0  0  0  0  0  0  0
  191.6560  175.1660  146.3200 C   0  0  0  0  0  2  0  0  0  0  0  0
  188.3250  175.2530  146.9300 O   0  0  0  0  0  1  0  0  0  0  0  0
  186.1500  179.1280  144.3050 O   0  0  0  0  0  1  0  0  0  0  0  0
  189.6410  176.1240  145.0930 C   0  0  2  0  0  3  0  0  0  0  0  0
  186.9830  177.0020  145.0190 C   0  0  1  0  0  3  0  0  0  0  0  0
  194.6250  172.3110  144.5870 O   0  0  0  0  0  0  0  0  0  0  0  0
  194.2480  173.2700  145.5440 C   0  0  1  0  0  3  0  0  0  0  0  0
  195.6270  173.2000  145.0140 C   0  0  1  0  0  3  0  0  0  0  0  0
  196.5240  172.5020  146.0160 C   0  0  0  0  0  2  0  0  0  0  0  0
  197.2520  171.3890  145.3490 C   0  0  0  0  0  0  0  0  0  0  0  0
  197.2050  170.1080  145.8850 O   0  0  0  0  0  1  0  0  0  0  0  0
  197.9410  171.6130  144.3200 O   0  0  0  0  0  0  0  0  0  0  0  0
  194.7870  177.4130  145.7100 S   0  0  0  0  0  1  0  0  0  0  0  0
  193.1580  176.7210  145.3070 C   0  0  0  0  0  2  0  0  0  0  0  0
  1 19  1  1  0  0  0
  2  3  1  0  0  0  0
  2  9  1  0  0  0  0
  4 20  1  6  0  0  0
  5  4  1  0  0  0  0
  5 15  1  1  0  0  0
  6 19  1  0  0  0  0
  8 21  1  6  0  0  0
  8 13  1  0  0  0  0
 10  7  1  1  0  0  0
 10  1  1  0  0  0  0
 11  9  1  1  0  0  0
 11 10  1  0  0  0  0
 12 18  1  6  0  0  0
 12 22  1  0  0  0  0
 13 15  1  0  0  0  0
 14  7  1  1  0  0  0
 14 25  1  0  0  0  0
 14  6  1  0  0  0  0
 16  3  1  0  0  0  0
 17 16  1  6  0  0  0
 17 11  1  0  0  0  0
 17 12  1  0  0  0  0
 18 23  1  0  0  0  0
 22  1  1  0  0  0  0
 22  4  1  0  0  0  0
 23  8  1  0  0  0  0
 23  5  1  0  0  0  0
 24 26  1  0  0  0  0
 24 25  1  0  0  0  0
 26 25  1  0  0  0  0
 26 27  1  0  0  0  0
 28 29  1  0  0  0  0
 28 27  1  0  0  0  0
 30 28  2  0  0  0  0
 32 31  1  0  0  0  0
 32  6  1  0  0  0  0
M  END
>  <MODEL>
1

>  <REMARK>
 VINA RESULT:      -7.4      0.000      0.000
  Name = 
  4 active torsions:
  status: ('A' for Active; 'I' for Inactive)
    1  A    between atoms: N_7  and  C_19
    2  A    between atoms: C_10  and  C_17
    3  A    between atoms: C_20  and  C_29
    4  A    between atoms: C_29  and  C_30
                            x       y       z     vdW  Elec       q    Type
                         _______ _______ _______ _____ _____    ______ ____

>  <TORSDO>
F 4

$$$$
=
 OpenBabel11112416423D

 32 37  0  0  1  0  0  0  0  0999 V2000
  191.1740  175.2310  144.3090 C   0  0  1  0  0  3  0  0  0  0  0  0
  190.3140  172.5540  141.0790 O   0  0  0  0  0  0  0  0  0  0  0  0
  191.4820  171.8340  141.3940 C   0  0  0  0  0  2  0  0  0  0  0  0
  193.6350  175.1240  145.0590 C   0  0  1  0  0  3  0  0  0  0  0  0
  194.6670  174.0980  145.5180 C   0  0  2  0  0  3  0  0  0  0  0  0
  189.7060  176.6540  145.8050 N   0  0  0  0  0  0  0  0  0  0  0  0
  188.8350  175.3040  143.8620 C   0  0  0  0  0  2  0  0  0  0  0  0
  195.9100  172.1550  144.9300 C   0  0  1  0  0  3  0  0  0  0  0  0
  190.3110  173.7030  141.8910 C   0  0  0  0  0  2  0  0  0  0  0  0
  189.9360  174.4420  144.2750 N   0  0  1  0  0  0  0  0  0  0  0  0
  190.0610  173.2980  143.3580 C   0  0  2  0  0  3  0  0  0  0  0  0
  192.4910  173.0890  144.0600 C   0  0  2  0  0  3  0  0  0  0  0  0
  196.8960  173.2300  145.3990 C   0  0  0  0  0  2  0  0  0  0  0  0
  188.5340  176.3130  144.9750 C   0  0  2  0  0  3  0  0  0  0  0  0
  196.1090  174.5340  145.5660 C   0  0  0  0  0  2  0  0  0  0  0  0
  191.3660  171.2280  142.7980 C   0  0  0  0  0  2  0  0  0  0  0  0
  191.1710  172.3390  143.8340 C   0  0  2  0  0  3  0  0  0  0  0  0
  193.4610  172.2380  144.6410 O   0  0  0  0  0  0  0  0  0  0  0  0
  190.9880  176.5530  145.0910 C   0  0  0  0  0  2  0  0  0  0  0  0
  194.0170  175.6940  143.8390 O   0  0  0  0  0  1  0  0  0  0  0  0
  195.6340  171.2920  145.9930 O   0  0  0  0  0  1  0  0  0  0  0  0
  192.2920  174.3730  144.9110 C   0  0  2  0  0  3  0  0  0  0  0  0
  194.6720  172.9430  144.5520 C   0  0  1  0  0  3  0  0  0  0  0  0
  187.0180  177.2240  143.3700 O   0  0  0  0  0  0  0  0  0  0  0  0
  187.9240  177.5710  144.3880 C   0  0  1  0  0  3  0  0  0  0  0  0
  186.4640  177.5700  144.6150 C   0  0  1  0  0  3  0  0  0  0  0  0
  185.9370  178.9900  144.5530 C   0  0  0  0  0  2  0  0  0  0  0  0
  184.4620  178.9880  144.7460 C   0  0  0  0  0  0  0  0  0  0  0  0
  183.9280  178.9120  146.0260 O   0  0  0  0  0  1  0  0  0  0  0  0
  183.6960  179.0200  143.7480 O   0  0  0  0  0  0  0  0  0  0  0  0
  191.1770  176.1800  148.0010 S   0  0  0  0  0  1  0  0  0  0  0  0
  189.7360  175.7820  146.9720 C   0  0  0  0  0  2  0  0  0  0  0  0
  1 22  1  0  0  0  0
  1 19  1  1  0  0  0
  2  3  1  0  0  0  0
  2  9  1  0  0  0  0
  3 16  1  0  0  0  0
  4 20  1  6  0  0  0
  4  5  1  0  0  0  0
  5 15  1  6  0  0  0
  6 32  1  0  0  0  0
  8 13  1  0  0  0  0
  8 21  1  1  0  0  0
 10  7  1  6  0  0  0
 10  1  1  0  0  0  0
 11  9  1  6  0  0  0
 11 17  1  0  0  0  0
 11 10  1  0  0  0  0
 12 18  1  1  0  0  0
 12 22  1  0  0  0  0
 13 15  1  0  0  0  0
 14  7  1  6  0  0  0
 14  6  1  0  0  0  0
 17 16  1  6  0  0  0
 17 12  1  0  0  0  0
 19  6  1  0  0  0  0
 22  4  1  0  0  0  0
 23 18  1  0  0  0  0
 23  8  1  0  0  0  0
 23  5  1  0  0  0  0
 24 25  1  0  0  0  0
 24 26  1  0  0  0  0
 25 26  1  0  0  0  0
 25 14  1  0  0  0  0
 27 26  1  0  0  0  0
 27 28  1  0  0  0  0
 28 29  1  0  0  0  0
 30 28  2  0  0  0  0
 32 31  1  0  0  0  0
M  END
>  <MODEL>
2

>  <REMARK>
 VINA RESULT:      -7.1      1.964      8.161
  Name = 
  4 active torsions:
  status: ('A' for Active; 'I' for Inactive)
    1  A    between atoms: N_7  and  C_19
    2  A    between atoms: C_10  and  C_17
    3  A    between atoms: C_20  and  C_29
    4  A    between atoms: C_29  and  C_30
                            x       y       z     vdW  Elec       q    Type
                         _______ _______ _______ _____ _____    ______ ____

>  <TORSDO>
F 4

$$$$
=
 OpenBabel11112416423D

 32 37  0  0  1  0  0  0  0  0999 V2000
  190.9730  174.8320  144.3330 C   0  0  1  0  0  3  0  0  0  0  0  0
  193.9570  176.5790  146.8580 O   0  0  0  0  0  0  0  0  0  0  0  0
  194.9490  175.9410  146.0890 C   0  0  0  0  0  2  0  0  0  0  0  0
  191.8570  172.8130  143.0010 C   0  0  1  0  0  3  0  0  0  0  0  0
  192.9960  172.4550  142.0520 C   0  0  2  0  0  3  0  0  0  0  0  0
  188.6380  175.5570  143.6680 N   0  0  0  0  0  0  0  0  0  0  0  0
  190.0650  176.7890  145.3420 C   0  0  0  0  0  2  0  0  0  0  0  0
  195.3530  172.2610  141.7880 C   0  0  1  0  0  3  0  0  0  0  0  0
  192.7160  176.1000  146.4020 C   0  0  0  0  0  2  0  0  0  0  0  0
  191.1130  176.2880  144.4620 N   0  0  1  0  0  0  0  0  0  0  0  0
  192.4390  176.6490  144.9870 C   0  0  2  0  0  3  0  0  0  0  0  0
  193.4110  174.7020  143.6820 C   0  0  2  0  0  3  0  0  0  0  0  0
  194.7160  170.9260  141.3890 C   0  0  0  0  0  2  0  0  0  0  0  0
  188.7080  176.6650  144.6410 C   0  0  2  0  0  3  0  0  0  0  0  0
  193.2340  170.9930  141.7670 C   0  0  0  0  0  2  0  0  0  0  0  0
  194.9190  176.4660  144.6490 C   0  0  0  0  0  2  0  0  0  0  0  0
  193.5500  176.1920  144.0190 C   0  0  2  0  0  3  0  0  0  0  0  0
  194.3350  174.3250  142.6790 O   0  0  0  0  0  0  0  0  0  0  0  0
  189.5200  174.4250  143.9940 C   0  0  0  0  0  2  0  0  0  0  0  0
  191.9670  172.0910  144.1960 O   0  0  0  0  0  1  0  0  0  0  0  0
  195.5880  173.0180  140.6370 O   0  0  0  0  0  1  0  0  0  0  0  0
  191.9590  174.3310  143.2730 C   0  0  2  0  0  3  0  0  0  0  0  0
  194.2970  172.9210  142.6500 C   0  0  1  0  0  3  0  0  0  0  0  0
  187.4690  177.7370  146.3790 O   0  0  0  0  0  0  0  0  0  0  0  0
  187.6000  176.5310  145.6680 C   0  0  1  0  0  3  0  0  0  0  0  0
  186.5230  177.4970  145.3670 C   0  0  1  0  0  3  0  0  0  0  0  0
  185.2260  177.0260  145.9950 C   0  0  0  0  0  2  0  0  0  0  0  0
  184.4410  178.1980  146.4680 C   0  0  0  0  0  0  0  0  0  0  0  0
  183.6850  178.9380  145.5670 O   0  0  0  0  0  0  0  0  0  0  0  0
  184.4890  178.5420  147.6780 O   0  0  0  0  0  1  0  0  0  0  0  0
  188.2800  177.7250  142.1250 S   0  0  0  0  0  1  0  0  0  0  0  0
  188.9740  176.0610  142.3440 C   0  0  0  0  0  2  0  0  0  0  0  0
  1 19  1  6  0  0  0
  1 10  1  0  0  0  0
  3  2  1  0  0  0  0
  4 22  1  0  0  0  0
  4 20  1  1  0  0  0
  5 15  1  1  0  0  0
  5 23  1  0  0  0  0
  5  4  1  0  0  0  0
  6 19  1  0  0  0  0
  6 14  1  0  0  0  0
  8 21  1  6  0  0  0
  8 23  1  0  0  0  0
  9  2  1  0  0  0  0
 10 11  1  0  0  0  0
 10  7  1  1  0  0  0
 11  9  1  1  0  0  0
 12 18  1  6  0  0  0
 12 17  1  0  0  0  0
 13 15  1  0  0  0  0
 13  8  1  0  0  0  0
 14  7  1  1  0  0  0
 14 25  1  0  0  0  0
 16  3  1  0  0  0  0
 17 16  1  1  0  0  0
 17 11  1  0  0  0  0
 22 12  1  0  0  0  0
 22  1  1  0  0  0  0
 23 18  1  0  0  0  0
 25 24  1  0  0  0  0
 26 25  1  0  0  0  0
 26 27  1  0  0  0  0
 26 24  1  0  0  0  0
 27 28  1  0  0  0  0
 28 30  1  0  0  0  0
 29 28  2  0  0  0  0
 31 32  1  0  0  0  0
 32  6  1  0  0  0  0
M  END
>  <MODEL>
3

>  <REMARK>
 VINA RESULT:      -7.0      2.750      8.613
  Name = 
  4 active torsions:
  status: ('A' for Active; 'I' for Inactive)
    1  A    between atoms: N_7  and  C_19
    2  A    between atoms: C_10  and  C_17
    3  A    between atoms: C_20  and  C_29
    4  A    between atoms: C_29  and  C_30
                            x       y       z     vdW  Elec       q    Type
                         _______ _______ _______ _____ _____    ______ ____

>  <TORSDO>
F 4

$$$$
=
 OpenBabel11112416423D

 32 37  0  0  1  0  0  0  0  0999 V2000
  191.0010  175.5410  143.4000 C   0  0  1  0  0  3  0  0  0  0  0  0
  190.4600  171.4320  142.3220 O   0  0  0  0  0  0  0  0  0  0  0  0
  191.8090  171.1920  142.6480 C   0  0  0  0  0  2  0  0  0  0  0  0
  193.4790  176.2390  143.4410 C   0  0  1  0  0  3  0  0  0  0  0  0
  194.7980  175.8070  144.0740 C   0  0  2  0  0  3  0  0  0  0  0  0
  189.4210  177.3130  144.2840 N   0  0  0  0  0  0  0  0  0  0  0  0
  188.6890  175.0010  143.5940 C   0  0  0  0  0  2  0  0  0  0  0  0
  196.4230  174.0780  144.2590 C   0  0  1  0  0  3  0  0  0  0  0  0
  190.2600  172.8220  142.4080 C   0  0  0  0  0  2  0  0  0  0  0  0
  190.0240  174.6890  144.0900 N   0  0  1  0  0  0  0  0  0  0  0  0
  190.3250  173.2630  143.8850 C   0  0  2  0  0  3  0  0  0  0  0  0
  192.7950  173.8460  143.9450 C   0  0  2  0  0  3  0  0  0  0  0  0
  197.1420  175.3660  143.8460 C   0  0  0  0  0  2  0  0  0  0  0  0
  188.2820  176.3980  144.0750 C   0  0  2  0  0  3  0  0  0  0  0  0
  196.0660  176.4090  143.5230 C   0  0  0  0  0  2  0  0  0  0  0  0
  192.0460  171.4540  144.1400 C   0  0  0  0  0  2  0  0  0  0  0  0
  191.7040  172.9080  144.4790 C   0  0  2  0  0  3  0  0  0  0  0  0
  194.0240  173.6160  144.6070 O   0  0  0  0  0  0  0  0  0  0  0  0
  190.5770  177.0280  143.4190 C   0  0  0  0  0  2  0  0  0  0  0  0
  193.5300  176.0900  142.0500 O   0  0  0  0  0  1  0  0  0  0  0  0
  196.5310  173.9160  145.6420 O   0  0  0  0  0  1  0  0  0  0  0  0
  192.3770  175.3390  144.0440 C   0  0  2  0  0  3  0  0  0  0  0  0
  194.9820  174.3270  143.8650 C   0  0  1  0  0  3  0  0  0  0  0  0
  186.3160  176.0560  142.7620 O   0  0  0  0  0  0  0  0  0  0  0  0
  187.2870  177.0130  143.1090 C   0  0  1  0  0  3  0  0  0  0  0  0
  185.9400  177.0170  143.7170 C   0  0  1  0  0  3  0  0  0  0  0  0
  185.0850  178.0770  143.0530 C   0  0  0  0  0  2  0  0  0  0  0  0
  184.7300  179.1310  144.0430 C   0  0  0  0  0  0  0  0  0  0  0  0
  185.5690  180.2230  144.2240 O   0  0  0  0  0  0  0  0  0  0  0  0
  183.6890  179.0160  144.7400 O   0  0  0  0  0  1  0  0  0  0  0  0
  188.3750  177.1690  146.7530 S   0  0  0  0  0  1  0  0  0  0  0  0
  189.8370  177.2480  145.6780 C   0  0  0  0  0  2  0  0  0  0  0  0
  1 19  1  1  0  0  0
  1 22  1  0  0  0  0
  1 10  1  0  0  0  0
  2  9  1  0  0  0  0
  2  3  1  0  0  0  0
  3 16  1  0  0  0  0
  4 20  1  6  0  0  0
  4 22  1  0  0  0  0
  4  5  1  0  0  0  0
  5 15  1  6  0  0  0
  6 32  1  0  0  0  0
  8 21  1  1  0  0  0
 10  7  1  6  0  0  0
 11  9  1  6  0  0  0
 11 10  1  0  0  0  0
 11 17  1  0  0  0  0
 12 22  1  0  0  0  0
 12 17  1  0  0  0  0
 12 18  1  1  0  0  0
 13  8  1  0  0  0  0
 14  7  1  6  0  0  0
 14  6  1  0  0  0  0
 15 13  1  0  0  0  0
 17 16  1  6  0  0  0
 19  6  1  0  0  0  0
 23  5  1  0  0  0  0
 23  8  1  0  0  0  0
 23 18  1  0  0  0  0
 24 25  1  0  0  0  0
 24 26  1  0  0  0  0
 25 26  1  0  0  0  0
 25 14  1  0  0  0  0
 27 26  1  0  0  0  0
 27 28  1  0  0  0  0
 28 29  2  0  0  0  0
 28 30  1  0  0  0  0
 32 31  1  0  0  0  0
M  END
>  <MODEL>
4

>  <REMARK>
 VINA RESULT:      -6.9      2.482      8.242
  Name = 
  4 active torsions:
  status: ('A' for Active; 'I' for Inactive)
    1  A    between atoms: N_7  and  C_19
    2  A    between atoms: C_10  and  C_17
    3  A    between atoms: C_20  and  C_29
    4  A    between atoms: C_29  and  C_30
                            x       y       z     vdW  Elec       q    Type
                         _______ _______ _______ _____ _____    ______ ____

>  <TORSDO>
F 4

$$$$
=
 OpenBabel11112416423D

 32 37  0  0  1  0  0  0  0  0999 V2000
  190.0780  175.7170  143.5960 C   0  0  1  0  0  3  0  0  0  0  0  0
  193.1150  176.2890  146.5600 O   0  0  0  0  0  0  0  0  0  0  0  0
  192.1290  176.7640  147.4460 C   0  0  0  0  0  2  0  0  0  0  0  0
  187.9390  177.0600  144.0930 C   0  0  1  0  0  3  0  0  0  0  0  0
  186.9280  177.2620  145.2180 C   0  0  2  0  0  3  0  0  0  0  0  0
  189.8540  174.1160  141.6450 N   0  0  0  0  0  0  0  0  0  0  0  0
  191.9050  174.2700  143.1030 C   0  0  0  0  0  2  0  0  0  0  0  0
  186.5890  177.9980  147.4550 C   0  0  1  0  0  3  0  0  0  0  0  0
  192.4920  176.1150  145.3110 C   0  0  0  0  0  2  0  0  0  0  0  0
  190.8870  174.5960  144.0930 N   0  0  1  0  0  0  0  0  0  0  0  0
  191.5130  174.9250  145.3830 C   0  0  2  0  0  3  0  0  0  0  0  0
  189.4310  176.2470  145.9800 C   0  0  2  0  0  3  0  0  0  0  0  0
  185.6050  178.7470  146.5520 C   0  0  0  0  0  2  0  0  0  0  0  0
  191.2370  173.6530  141.8700 C   0  0  2  0  0  3  0  0  0  0  0  0
  185.9770  178.4270  145.1010 C   0  0  0  0  0  2  0  0  0  0  0  0
  191.1150  175.6550  147.7510 C   0  0  0  0  0  2  0  0  0  0  0  0
  190.4390  175.1920  146.4570 C   0  0  2  0  0  3  0  0  0  0  0  0
  188.3640  176.3760  146.9010 O   0  0  0  0  0  0  0  0  0  0  0  0
  189.5940  175.4740  142.1470 C   0  0  0  0  0  2  0  0  0  0  0  0
  188.6420  178.2450  143.8470 O   0  0  0  0  0  1  0  0  0  0  0  0
  185.9390  176.9050  148.0340 O   0  0  0  0  0  1  0  0  0  0  0  0
  188.9020  175.9420  144.5510 C   0  0  2  0  0  3  0  0  0  0  0  0
  187.6680  177.5290  146.5020 C   0  0  1  0  0  3  0  0  0  0  0  0
  192.8560  172.7700  140.3510 O   0  0  0  0  0  0  0  0  0  0  0  0
  192.0820  173.9090  140.6360 C   0  0  1  0  0  3  0  0  0  0  0  0
  191.7030  172.9600  139.5670 C   0  0  1  0  0  3  0  0  0  0  0  0
  192.1010  173.5260  138.2190 C   0  0  0  0  0  2  0  0  0  0  0  0
  190.8830  173.7980  137.4090 C   0  0  0  0  0  0  0  0  0  0  0  0
  191.0050  174.2600  136.1040 O   0  0  0  0  0  0  0  0  0  0  0  0
  189.7410  173.6440  137.9150 O   0  0  0  0  0  1  0  0  0  0  0  0
  189.6920  171.5410  142.3900 S   0  0  0  0  0  1  0  0  0  0  0  0
  188.9300  173.1850  142.2790 C   0  0  0  0  0  2  0  0  0  0  0  0
  1 19  1  6  0  0  0
  1 10  1  0  0  0  0
  1 22  1  0  0  0  0
  2  3  1  0  0  0  0
  3 16  1  0  0  0  0
  4 20  1  1  0  0  0
  4 22  1  0  0  0  0
  4  5  1  0  0  0  0
  5 15  1  6  0  0  0
  5 23  1  0  0  0  0
  6 14  1  0  0  0  0
  6 19  1  0  0  0  0
  6 32  1  0  0  0  0
  8 21  1  6  0  0  0
  9  2  1  0  0  0  0
 10  7  1  6  0  0  0
 10 11  1  0  0  0  0
 11  9  1  6  0  0  0
 11 17  1  0  0  0  0
 12 17  1  0  0  0  0
 12 18  1  1  0  0  0
 13  8  1  0  0  0  0
 14  7  1  1  0  0  0
 15 13  1  0  0  0  0
 17 16  1  1  0  0  0
 22 12  1  0  0  0  0
 23 18  1  0  0  0  0
 23  8  1  0  0  0  0
 24 25  1  0  0  0  0
 25 14  1  0  0  0  0
 26 24  1  0  0  0  0
 26 25  1  0  0  0  0
 27 26  1  0  0  0  0
 28 30  1  0  0  0  0
 28 27  1  0  0  0  0
 29 28  2  0  0  0  0
 32 31  1  0  0  0  0
M  END
>  <MODEL>
5

>  <REMARK>
 VINA RESULT:      -6.7      3.296      5.625
  Name = 
  4 active torsions:
  status: ('A' for Active; 'I' for Inactive)
    1  A    between atoms: N_7  and  C_19
    2  A    between atoms: C_10  and  C_17
    3  A    between atoms: C_20  and  C_29
    4  A    between atoms: C_29  and  C_30
                            x       y       z     vdW  Elec       q    Type
                         _______ _______ _______ _____ _____    ______ ____

>  <TORSDO>
F 4

$$$$
=
 OpenBabel11112416423D

 32 37  0  0  1  0  0  0  0  0999 V2000
  190.2910  175.7270  143.7330 C   0  0  1  0  0  3  0  0  0  0  0  0
  193.1850  176.3440  146.8280 O   0  0  0  0  0  0  0  0  0  0  0  0
  192.1520  176.7910  147.6740 C   0  0  0  0  0  2  0  0  0  0  0  0
  188.1030  177.0190  144.1470 C   0  0  1  0  0  3  0  0  0  0  0  0
  187.0400  177.1900  145.2290 C   0  0  2  0  0  3  0  0  0  0  0  0
  190.1860  174.1360  141.7640 N   0  0  0  0  0  0  0  0  0  0  0  0
  192.1690  174.3250  143.3090 C   0  0  0  0  0  2  0  0  0  0  0  0
  186.5910  177.9020  147.4550 C   0  0  1  0  0  3  0  0  0  0  0  0
  192.6200  176.1660  145.5520 C   0  0  0  0  0  2  0  0  0  0  0  0
  191.1020  174.6210  144.2570 N   0  0  1  0  0  0  0  0  0  0  0  0
  191.6660  174.9540  145.5740 C   0  0  2  0  0  3  0  0  0  0  0  0
  189.5310  176.2250  146.0910 C   0  0  2  0  0  3  0  0  0  0  0  0
  185.6290  178.6360  146.5150 C   0  0  0  0  0  2  0  0  0  0  0  0
  191.5680  173.7020  142.0450 C   0  0  2  0  0  3  0  0  0  0  0  0
  186.0700  178.3340  145.0790 C   0  0  0  0  0  2  0  0  0  0  0  0
  191.1510  175.6580  147.9280 C   0  0  0  0  0  2  0  0  0  0  0  0
  190.5410  175.1900  146.6030 C   0  0  2  0  0  3  0  0  0  0  0  0
  188.4230  176.3240  146.9670 O   0  0  0  0  0  0  0  0  0  0  0  0
  189.8750  175.4850  142.2630 C   0  0  0  0  0  2  0  0  0  0  0  0
  188.7890  178.2220  143.9390 O   0  0  0  0  0  1  0  0  0  0  0  0
  185.9410  176.7910  147.9980 O   0  0  0  0  0  1  0  0  0  0  0  0
  189.0700  175.9190  144.6390 C   0  0  2  0  0  3  0  0  0  0  0  0
  187.7190  177.4640  146.5450 C   0  0  1  0  0  3  0  0  0  0  0  0
  193.7910  173.6670  141.1690 O   0  0  0  0  0  0  0  0  0  0  0  0
  192.4590  173.9860  140.8500 C   0  0  1  0  0  3  0  0  0  0  0  0
  193.0880  172.7310  140.3880 C   0  0  1  0  0  3  0  0  0  0  0  0
  193.5060  172.8730  138.9380 C   0  0  0  0  0  2  0  0  0  0  0  0
  194.9180  172.4330  138.7760 C   0  0  0  0  0  0  0  0  0  0  0  0
  195.3330  171.2200  139.3100 O   0  0  0  0  0  1  0  0  0  0  0  0
  195.7450  173.1740  138.1850 O   0  0  0  0  0  0  0  0  0  0  0  0
  190.0120  171.5290  142.3860 S   0  0  0  0  0  1  0  0  0  0  0  0
  189.2570  173.1800  142.3520 C   0  0  0  0  0  2  0  0  0  0  0  0
  1 19  1  6  0  0  0
  1 10  1  0  0  0  0
  1 22  1  0  0  0  0
  2  3  1  0  0  0  0
  3 16  1  0  0  0  0
  4 20  1  1  0  0  0
  4 22  1  0  0  0  0
  4  5  1  0  0  0  0
  5 15  1  6  0  0  0
  5 23  1  0  0  0  0
  6 14  1  0  0  0  0
  6 19  1  0  0  0  0
  6 32  1  0  0  0  0
  8 21  1  6  0  0  0
  9  2  1  0  0  0  0
 10  7  1  6  0  0  0
 10 11  1  0  0  0  0
 11  9  1  6  0  0  0
 11 17  1  0  0  0  0
 12 17  1  0  0  0  0
 12 18  1  1  0  0  0
 13  8  1  0  0  0  0
 14  7  1  1  0  0  0
 15 13  1  0  0  0  0
 17 16  1  1  0  0  0
 22 12  1  0  0  0  0
 23 18  1  0  0  0  0
 23  8  1  0  0  0  0
 25 24  1  0  0  0  0
 25 14  1  0  0  0  0
 26 25  1  0  0  0  0
 26 24  1  0  0  0  0
 27 26  1  0  0  0  0
 28 27  1  0  0  0  0
 28 29  1  0  0  0  0
 30 28  2  0  0  0  0
 32 31  1  0  0  0  0
M  END
>  <MODEL>
6

>  <REMARK>
 VINA RESULT:      -6.5      3.148      4.779
  Name = 
  4 active torsions:
  status: ('A' for Active; 'I' for Inactive)
    1  A    between atoms: N_7  and  C_19
    2  A    between atoms: C_10  and  C_17
    3  A    between atoms: C_20  and  C_29
    4  A    between atoms: C_29  and  C_30
                            x       y       z     vdW  Elec       q    Type
                         _______ _______ _______ _____ _____    ______ ____

>  <TORSDO>
F 4

$$$$
=
 OpenBabel11112416423D

 32 37  0  0  1  0  0  0  0  0999 V2000
  188.5260  175.5700  143.5460 C   0  0  1  0  0  3  0  0  0  0  0  0
  190.4410  177.1730  147.0240 O   0  0  0  0  0  0  0  0  0  0  0  0
  191.5670  176.3750  146.7450 C   0  0  0  0  0  2  0  0  0  0  0  0
  189.6000  173.3710  142.7460 C   0  0  1  0  0  3  0  0  0  0  0  0
  190.9680  172.8200  142.3550 C   0  0  2  0  0  3  0  0  0  0  0  0
  186.7720  176.4900  141.9650 N   0  0  0  0  0  0  0  0  0  0  0  0
  187.5520  177.6860  144.0440 C   0  0  0  0  0  2  0  0  0  0  0  0
  193.1850  172.3520  143.0830 C   0  0  1  0  0  3  0  0  0  0  0  0
  189.4380  176.7980  146.1130 C   0  0  0  0  0  2  0  0  0  0  0  0
  188.7910  177.0080  143.6820 N   0  0  1  0  0  0  0  0  0  0  0  0
  189.8270  177.2630  144.6940 C   0  0  2  0  0  3  0  0  0  0  0  0
  190.9800  175.1270  143.9530 C   0  0  2  0  0  3  0  0  0  0  0  0
  192.5950  171.0670  142.4940 C   0  0  0  0  0  2  0  0  0  0  0  0
  186.5890  177.6550  142.8520 C   0  0  2  0  0  3  0  0  0  0  0  0
  191.1080  171.3230  142.2310 C   0  0  0  0  0  2  0  0  0  0  0  0
  192.1880  176.7870  145.4050 C   0  0  0  0  0  2  0  0  0  0  0  0
  191.1650  176.6160  144.2780 C   0  0  2  0  0  3  0  0  0  0  0  0
  192.1730  174.5760  143.4260 O   0  0  0  0  0  0  0  0  0  0  0  0
  187.2930  175.2970  142.6530 C   0  0  0  0  0  2  0  0  0  0  0  0
  189.1250  172.7350  143.8990 O   0  0  0  0  0  1  0  0  0  0  0  0
  193.9590  172.9890  142.1100 O   0  0  0  0  0  1  0  0  0  0  0  0
  189.7810  174.8850  142.9950 C   0  0  2  0  0  3  0  0  0  0  0  0
  191.9670  173.1870  143.4210 C   0  0  1  0  0  3  0  0  0  0  0  0
  184.8640  179.0270  143.7740 O   0  0  0  0  0  0  0  0  0  0  0  0
  185.1540  177.7210  143.3400 C   0  0  1  0  0  3  0  0  0  0  0  0
  184.3860  178.6660  142.5010 C   0  0  1  0  0  3  0  0  0  0  0  0
  182.9080  178.3440  142.5930 C   0  0  0  0  0  2  0  0  0  0  0  0
  182.3200  178.2860  141.2270 C   0  0  0  0  0  0  0  0  0  0  0  0
  183.1220  177.9690  140.1380 O   0  0  0  0  0  0  0  0  0  0  0  0
  181.1040  178.5580  141.0530 O   0  0  0  0  0  1  0  0  0  0  0  0
  186.7260  177.1660  139.3670 S   0  0  0  0  0  1  0  0  0  0  0  0
  187.6760  176.8520  140.8820 C   0  0  0  0  0  2  0  0  0  0  0  0
  1 19  1  6  0  0  0
  1 10  1  0  0  0  0
  3  2  1  0  0  0  0
  4 22  1  0  0  0  0
  4 20  1  1  0  0  0
  5 15  1  1  0  0  0
  5  4  1  0  0  0  0
  5 23  1  0  0  0  0
  6 19  1  0  0  0  0
  6 14  1  0  0  0  0
  8 21  1  6  0  0  0
  8 23  1  0  0  0  0
  9  2  1  0  0  0  0
 10  7  1  1  0  0  0
 10 11  1  0  0  0  0
 11  9  1  1  0  0  0
 12 18  1  6  0  0  0
 12 17  1  0  0  0  0
 13  8  1  0  0  0  0
 14 25  1  0  0  0  0
 14  7  1  1  0  0  0
 15 13  1  0  0  0  0
 16  3  1  0  0  0  0
 17 11  1  0  0  0  0
 17 16  1  1  0  0  0
 22  1  1  0  0  0  0
 22 12  1  0  0  0  0
 23 18  1  0  0  0  0
 25 24  1  0  0  0  0
 26 27  1  0  0  0  0
 26 25  1  0  0  0  0
 26 24  1  0  0  0  0
 28 27  1  0  0  0  0
 29 28  2  0  0  0  0
 30 28  1  0  0  0  0
 31 32  1  0  0  0  0
 32  6  1  0  0  0  0
M  END
>  <MODEL>
7

>  <REMARK>
 VINA RESULT:      -6.3      3.264      9.110
  Name = 
  4 active torsions:
  status: ('A' for Active; 'I' for Inactive)
    1  A    between atoms: N_7  and  C_19
    2  A    between atoms: C_10  and  C_17
    3  A    between atoms: C_20  and  C_29
    4  A    between atoms: C_29  and  C_30
                            x       y       z     vdW  Elec       q    Type
                         _______ _______ _______ _____ _____    ______ ____

>  <TORSDO>
F 4

$$$$
=
 OpenBabel11112416423D

 32 37  0  0  1  0  0  0  0  0999 V2000
  189.1620  174.2950  142.6100 C   0  0  1  0  0  3  0  0  0  0  0  0
  191.6250  171.2060  144.2630 O   0  0  0  0  0  0  0  0  0  0  0  0
  192.0150  170.8500  142.9580 C   0  0  0  0  0  2  0  0  0  0  0  0
  188.6490  173.9270  140.1140 C   0  0  1  0  0  3  0  0  0  0  0  0
  189.3840  173.6870  138.7990 C   0  0  2  0  0  3  0  0  0  0  0  0
  188.3710  176.5310  143.5020 N   0  0  0  0  0  0  0  0  0  0  0  0
  189.7040  174.8740  144.8560 C   0  0  0  0  0  2  0  0  0  0  0  0
  190.8260  172.2360  137.5840 C   0  0  1  0  0  3  0  0  0  0  0  0
  190.6140  172.1750  144.1360 C   0  0  0  0  0  2  0  0  0  0  0  0
  190.2600  174.6010  143.5370 N   0  0  1  0  0  0  0  0  0  0  0  0
  191.2210  173.4900  143.6060 C   0  0  2  0  0  3  0  0  0  0  0  0
  190.8090  173.0700  141.1370 C   0  0  2  0  0  3  0  0  0  0  0  0
  189.5720  172.4800  136.7390 C   0  0  0  0  0  2  0  0  0  0  0  0
  188.9420  176.2020  144.8230 C   0  0  2  0  0  3  0  0  0  0  0  0
  188.5670  173.2330  137.6160 C   0  0  0  0  0  2  0  0  0  0  0  0
  192.7710  172.0100  142.2980 C   0  0  0  0  0  2  0  0  0  0  0  0
  191.8730  173.2490  142.2280 C   0  0  2  0  0  3  0  0  0  0  0  0
  191.4080  173.0030  139.8560 O   0  0  0  0  0  0  0  0  0  0  0  0
  188.0340  175.3500  142.6910 C   0  0  0  0  0  2  0  0  0  0  0  0
  187.8710  172.8130  140.4530 O   0  0  0  0  0  1  0  0  0  0  0  0
  191.8370  173.1030  137.1640 O   0  0  0  0  0  1  0  0  0  0  0  0
  189.7270  174.1830  141.1910 C   0  0  2  0  0  3  0  0  0  0  0  0
  190.3850  172.5790  138.9920 C   0  0  1  0  0  3  0  0  0  0  0  0
  188.1770  177.1290  146.8880 O   0  0  0  0  0  0  0  0  0  0  0  0
  187.8520  176.2050  145.8780 C   0  0  1  0  0  3  0  0  0  0  0  0
  187.2220  177.5400  145.9410 C   0  0  1  0  0  3  0  0  0  0  0  0
  185.8360  177.4230  146.5420 C   0  0  0  0  0  2  0  0  0  0  0  0
  184.8420  178.0770  145.6480 C   0  0  0  0  0  0  0  0  0  0  0  0
  184.8770  177.8400  144.2800 O   0  0  0  0  0  0  0  0  0  0  0  0
  183.9920  178.8720  146.1260 O   0  0  0  0  0  1  0  0  0  0  0  0
  190.4050  178.2310  143.9320 S   0  0  0  0  0  1  0  0  0  0  0  0
  189.3150  177.3630  142.7680 C   0  0  0  0  0  2  0  0  0  0  0  0
  1 19  1  6  0  0  0
  1 10  1  0  0  0  0
  3  2  1  0  0  0  0
  4 20  1  1  0  0  0
  4 22  1  0  0  0  0
  5 15  1  6  0  0  0
  5 23  1  0  0  0  0
  5  4  1  0  0  0  0
  6 14  1  0  0  0  0
  8 21  1  6  0  0  0
  8 23  1  0  0  0  0
  9  2  1  0  0  0  0
 10 11  1  0  0  0  0
 10  7  1  1  0  0  0
 11  9  1  6  0  0  0
 12 18  1  6  0  0  0
 12 22  1  0  0  0  0
 12 17  1  0  0  0  0
 13  8  1  0  0  0  0
 13 15  1  0  0  0  0
 14  7  1  6  0  0  0
 14 25  1  0  0  0  0
 16  3  1  0  0  0  0
 17 16  1  1  0  0  0
 17 11  1  0  0  0  0
 19  6  1  0  0  0  0
 22  1  1  0  0  0  0
 23 18  1  0  0  0  0
 25 26  1  0  0  0  0
 25 24  1  0  0  0  0
 26 27  1  0  0  0  0
 26 24  1  0  0  0  0
 28 30  1  0  0  0  0
 28 27  1  0  0  0  0
 29 28  2  0  0  0  0
 32  6  1  0  0  0  0
 32 31  1  0  0  0  0
M  END
>  <MODEL>
8

>  <REMARK>
 VINA RESULT:      -6.3      2.958      8.014
  Name = 
  4 active torsions:
  status: ('A' for Active; 'I' for Inactive)
    1  A    between atoms: N_7  and  C_19
    2  A    between atoms: C_10  and  C_17
    3  A    between atoms: C_20  and  C_29
    4  A    between atoms: C_29  and  C_30
                            x       y       z     vdW  Elec       q    Type
                         _______ _______ _______ _____ _____    ______ ____

>  <TORSDO>
F 4

$$$$
=
 OpenBabel11112416423D

 32 37  0  0  1  0  0  0  0  0999 V2000
  190.2580  174.6610  142.9670 C   0  0  1  0  0  3  0  0  0  0  0  0
  193.9760  175.6490  144.8460 O   0  0  0  0  0  0  0  0  0  0  0  0
  194.6530  174.9740  143.8120 C   0  0  0  0  0  2  0  0  0  0  0  0
  190.4750  172.7120  141.2980 C   0  0  1  0  0  3  0  0  0  0  0  0
  191.2990  172.3130  140.0780 C   0  0  2  0  0  3  0  0  0  0  0  0
  187.9870  175.7850  142.9420 N   0  0  0  0  0  0  0  0  0  0  0  0
  189.9350  176.5910  144.3250 C   0  0  0  0  0  2  0  0  0  0  0  0
  193.4730  171.8190  139.2440 C   0  0  1  0  0  3  0  0  0  0  0  0
  192.6030  175.4100  144.6600 C   0  0  0  0  0  2  0  0  0  0  0  0
  190.6630  176.0560  143.1810 N   0  0  1  0  0  0  0  0  0  0  0  0
  192.1130  176.1590  143.4040 C   0  0  2  0  0  3  0  0  0  0  0  0
  192.4340  174.2650  141.7450 C   0  0  2  0  0  3  0  0  0  0  0  0
  192.5500  170.6460  138.8980 C   0  0  0  0  0  2  0  0  0  0  0  0
  188.4550  176.7460  143.9590 C   0  0  2  0  0  3  0  0  0  0  0  0
  191.2210  170.8780  139.6230 C   0  0  0  0  0  2  0  0  0  0  0  0
  194.3910  175.6670  142.4700 C   0  0  0  0  0  2  0  0  0  0  0  0
  192.8900  175.6690  142.1640 C   0  0  2  0  0  3  0  0  0  0  0  0
  193.0360  173.8840  140.5220 O   0  0  0  0  0  0  0  0  0  0  0  0
  188.7180  174.5080  142.9520 C   0  0  0  0  0  2  0  0  0  0  0  0
  190.7270  171.8430  142.3670 O   0  0  0  0  0  1  0  0  0  0  0  0
  193.5680  172.6690  138.1390 O   0  0  0  0  0  1  0  0  0  0  0  0
  190.8860  174.1560  141.6640 C   0  0  2  0  0  3  0  0  0  0  0  0
  192.7600  172.5140  140.3850 C   0  0  1  0  0  3  0  0  0  0  0  0
  187.5980  177.8850  145.8760 O   0  0  0  0  0  0  0  0  0  0  0  0
  187.5970  176.6480  145.2060 C   0  0  1  0  0  3  0  0  0  0  0  0
  186.4610  177.5880  145.1040 C   0  0  1  0  0  3  0  0  0  0  0  0
  185.3390  177.1340  146.0150 C   0  0  0  0  0  2  0  0  0  0  0  0
  184.5210  178.3060  146.4300 C   0  0  0  0  0  0  0  0  0  0  0  0
  183.8240  179.0380  145.4780 O   0  0  0  0  0  0  0  0  0  0  0  0
  184.4880  178.6560  147.6390 O   0  0  0  0  0  1  0  0  0  0  0  0
  186.6890  177.4980  141.3320 S   0  0  0  0  0  1  0  0  0  0  0  0
  188.1000  176.3930  141.6230 C   0  0  0  0  0  2  0  0  0  0  0  0
  1 19  1  6  0  0  0
  1 10  1  0  0  0  0
  3  2  1  0  0  0  0
  4 22  1  0  0  0  0
  4 20  1  1  0  0  0
  5 15  1  1  0  0  0
  5 23  1  0  0  0  0
  5  4  1  0  0  0  0
  6 19  1  0  0  0  0
  6 14  1  0  0  0  0
  8 21  1  6  0  0  0
  8 23  1  0  0  0  0
  9  2  1  0  0  0  0
 10 11  1  0  0  0  0
 10  7  1  1  0  0  0
 11  9  1  1  0  0  0
 12 18  1  6  0  0  0
 12 17  1  0  0  0  0
 13  8  1  0  0  0  0
 13 15  1  0  0  0  0
 14  7  1  1  0  0  0
 14 25  1  0  0  0  0
 16  3  1  0  0  0  0
 17 16  1  1  0  0  0
 17 11  1  0  0  0  0
 22 12  1  0  0  0  0
 22  1  1  0  0  0  0
 23 18  1  0  0  0  0
 25 24  1  0  0  0  0
 26 25  1  0  0  0  0
 26 24  1  0  0  0  0
 26 27  1  0  0  0  0
 27 28  1  0  0  0  0
 28 30  1  0  0  0  0
 29 28  2  0  0  0  0
 31 32  1  0  0  0  0
 32  6  1  0  0  0  0
M  END
>  <MODEL>
9

>  <REMARK>
 VINA RESULT:      -6.3      3.308      8.615
  Name = 
  4 active torsions:
  status: ('A' for Active; 'I' for Inactive)
    1  A    between atoms: N_7  and  C_19
    2  A    between atoms: C_10  and  C_17
    3  A    between atoms: C_20  and  C_29
    4  A    between atoms: C_29  and  C_30
                            x       y       z     vdW  Elec       q    Type
                         _______ _______ _______ _____ _____    ______ ____

>  <TORSDO>
F 4

$$$$
