=
 OpenBabel11112417413D

 28 32  0  0  1  0  0  0  0  0999 V2000
  185.6900  177.3680  145.0290 C   0  0  2  0  0  3  0  0  0  0  0  0
  186.0350  176.1030  142.4570 O   0  0  0  0  0  0  0  0  0  0  0  0
  191.3560  176.4360  147.9600 O   0  0  0  0  0  0  0  0  0  0  0  0
  185.3690  180.0960  143.9720 C   0  0  0  0  0  2  0  0  0  0  0  0
  191.1620  176.1630  145.6190 N   0  0  0  0  0  0  0  0  0  0  0  0
  185.8740  176.3640  146.1770 C   0  0  0  0  0  2  0  0  0  0  0  0
  187.4880  177.5230  141.0610 O   0  0  0  0  0  0  0  0  0  0  0  0
  187.4510  176.3930  142.0490 S   0  0  0  0  0  0  0  0  0  0  0  0
  189.6200  174.7250  141.6540 C   0  0  0  0  0  0  0  0  0  0  0  0
  188.4320  176.7640  143.4150 N   0  0  0  0  0  0  0  0  0  0  0  0
  187.2560  178.9410  148.0060 O   0  0  0  0  0  0  0  0  0  0  0  0
  189.3120  177.5210  145.3170 C   0  0  0  0  0  0  0  0  0  0  0  0
  190.2250  175.2620  142.6780 N   0  0  0  0  0  0  0  0  0  0  0  0
  188.1570  174.9230  141.3290 C   0  0  0  0  0  2  0  0  0  0  0  0
  187.2400  177.7100  147.7460 C   0  0  0  0  0  0  0  0  0  0  0  0
  186.9100  178.2890  144.7980 C   0  0  2  0  0  3  0  0  0  0  0  0
  190.7670  176.7130  146.8820 C   0  0  0  0  0  0  0  0  0  0  0  0
  190.3690  173.7410  140.8320 C   0  0  0  0  0  1  0  0  0  0  0  0
  188.4560  177.0030  147.5140 N   0  0  0  0  0  2  0  0  0  0  0  0
  186.6440  179.3110  143.6920 C   0  0  0  0  0  2  0  0  0  0  0  0
  184.4030  178.1720  145.2270 C   0  0  0  0  0  2  0  0  0  0  0  0
  184.1870  179.1410  144.0710 C   0  0  0  0  0  2  0  0  0  0  0  0
  185.9420  177.0050  147.5670 C   0  0  0  0  0  2  0  0  0  0  0  0
  190.2180  176.7120  144.7220 C   0  0  0  0  0  0  0  0  0  0  0  0
  189.5580  177.6180  146.7950 C   0  0  2  0  0  3  0  0  0  0  0  0
  189.6500  176.2200  143.5730 C   0  0  0  0  0  0  0  0  0  0  0  0
  191.8810  174.9140  145.4380 C   0  0  0  0  0  1  0  0  0  0  0  0
  188.1840  177.5420  144.5040 C   0  0  0  0  0  0  0  0  0  0  0  0
  1 21  1  1  0  0  0
  1  6  1  0  0  0  0
  4 22  1  0  0  0  0
  5 17  1  0  0  0  0
  6 23  1  0  0  0  0
  7  8  2  0  0  0  0
  8  2  2  0  0  0  0
  8 10  1  0  0  0  0
  9 13  2  0  0  0  0
 10 26  1  0  0  0  0
 10 28  1  0  0  0  0
 13 26  1  0  0  0  0
 14  9  1  0  0  0  0
 14  8  1  0  0  0  0
 15 11  2  0  0  0  0
 16 20  1  6  0  0  0
 16  1  1  0  0  0  0
 17  3  2  0  0  0  0
 18  9  1  0  0  0  0
 19 15  1  0  0  0  0
 20  4  1  0  0  0  0
 22 21  1  0  0  0  0
 23 15  1  0  0  0  0
 24 12  1  0  0  0  0
 24  5  1  0  0  0  0
 25 12  1  6  0  0  0
 25 17  1  0  0  0  0
 25 19  1  0  0  0  0
 26 24  2  0  0  0  0
 27  5  1  0  0  0  0
 28 16  1  0  0  0  0
 28 12  2  0  0  0  0
M  END
>  <MODEL>
1

>  <REMARK>
 VINA RESULT:      -8.3      0.000      0.000
  Name = 
  0 active torsions:
  status: ('A' for Active; 'I' for Inactive)
                            x       y       z     vdW  Elec       q    Type
                         _______ _______ _______ _____ _____    ______ ____

>  <TORSDO>
F 0

$$$$
=
 OpenBabel11112417413D

 28 32  0  0  1  0  0  0  0  0999 V2000
  190.2260  174.5390  144.9790 C   0  0  2  0  0  3  0  0  0  0  0  0
  188.7010  175.5080  147.2310 O   0  0  0  0  0  0  0  0  0  0  0  0
  186.9750  176.7520  139.8710 O   0  0  0  0  0  0  0  0  0  0  0  0
  192.6490  176.1000  145.5730 C   0  0  0  0  0  2  0  0  0  0  0  0
  186.5970  177.6690  142.0170 N   0  0  0  0  0  0  0  0  0  0  0  0
  189.3780  173.6290  144.0780 C   0  0  0  0  0  2  0  0  0  0  0  0
  189.0970  177.9280  147.4770 O   0  0  0  0  0  0  0  0  0  0  0  0
  188.2300  176.8790  146.8420 S   0  0  0  0  0  0  0  0  0  0  0  0
  185.6930  177.8890  146.4100 C   0  0  0  0  0  0  0  0  0  0  0  0
  188.2160  177.0740  145.1310 N   0  0  0  0  0  0  0  0  0  0  0  0
  191.1380  174.8990  141.3970 O   0  0  0  0  0  0  0  0  0  0  0  0
  188.6410  177.1020  142.9430 C   0  0  0  0  0  0  0  0  0  0  0  0
  185.9710  178.0600  145.1460 N   0  0  0  0  0  0  0  0  0  0  0  0
  186.5390  177.0790  147.3670 C   0  0  0  0  0  2  0  0  0  0  0  0
  190.0470  174.4510  141.8380 C   0  0  0  0  0  0  0  0  0  0  0  0
  190.4170  175.9700  144.4250 C   0  0  2  0  0  3  0  0  0  0  0  0
  187.3920  176.9970  141.0330 C   0  0  0  0  0  0  0  0  0  0  0  0
  184.3930  178.3970  146.9190 C   0  0  0  0  0  1  0  0  0  0  0  0
  188.8220  175.1270  141.5670 N   0  0  0  0  0  2  0  0  0  0  0  0
  191.3230  176.8080  145.3280 C   0  0  0  0  0  2  0  0  0  0  0  0
  191.5660  173.8730  145.2980 C   0  0  0  0  0  2  0  0  0  0  0  0
  192.3990  174.7480  146.2270 C   0  0  0  0  0  2  0  0  0  0  0  0
  190.0420  173.2710  142.7440 C   0  0  0  0  0  2  0  0  0  0  0  0
  187.4400  177.6900  143.1510 C   0  0  0  0  0  0  0  0  0  0  0  0
  188.7540  176.5780  141.5410 C   0  0  2  0  0  3  0  0  0  0  0  0
  187.1710  177.6300  144.4960 C   0  0  0  0  0  0  0  0  0  0  0  0
  185.1450  177.7080  142.0360 C   0  0  0  0  0  1  0  0  0  0  0  0
  189.1220  176.7010  144.1850 C   0  0  0  0  0  0  0  0  0  0  0  0
  1  6  1  6  0  0  0
  1 21  1  0  0  0  0
  3 17  2  0  0  0  0
  4 22  1  0  0  0  0
  5 27  1  0  0  0  0
  5 24  1  0  0  0  0
  8  2  2  0  0  0  0
  8 14  1  0  0  0  0
  8  7  2  0  0  0  0
  9 18  1  0  0  0  0
  9 14  1  0  0  0  0
 10  8  1  0  0  0  0
 11 15  2  0  0  0  0
 12 24  1  0  0  0  0
 12 28  2  0  0  0  0
 13  9  2  0  0  0  0
 15 23  1  0  0  0  0
 16  1  1  0  0  0  0
 16 20  1  1  0  0  0
 17  5  1  0  0  0  0
 19 15  1  0  0  0  0
 20  4  1  0  0  0  0
 21 22  1  0  0  0  0
 23  6  1  0  0  0  0
 24 26  2  0  0  0  0
 25 17  1  6  0  0  0
 25 19  1  0  0  0  0
 25 12  1  0  0  0  0
 26 10  1  0  0  0  0
 26 13  1  0  0  0  0
 28 16  1  0  0  0  0
 28 10  1  0  0  0  0
M  END
>  <MODEL>
2

>  <REMARK>
 VINA RESULT:      -8.2      2.153      6.446
  Name = 
  0 active torsions:
  status: ('A' for Active; 'I' for Inactive)
                            x       y       z     vdW  Elec       q    Type
                         _______ _______ _______ _____ _____    ______ ____

>  <TORSDO>
F 0

$$$$
=
 OpenBabel11112417413D

 28 32  0  0  1  0  0  0  0  0999 V2000
  191.0640  175.3530  144.2390 C   0  0  2  0  0  3  0  0  0  0  0  0
  189.8430  175.5340  141.6300 O   0  0  0  0  0  0  0  0  0  0  0  0
  187.0370  178.6510  148.0410 O   0  0  0  0  0  0  0  0  0  0  0  0
  190.7710  172.4360  144.4970 C   0  0  0  0  0  2  0  0  0  0  0  0
  186.3350  177.9190  145.9060 N   0  0  0  0  0  0  0  0  0  0  0  0
  191.4040  176.7430  144.7980 C   0  0  0  0  0  2  0  0  0  0  0  0
  187.8740  174.0540  141.5690 O   0  0  0  0  0  0  0  0  0  0  0  0
  188.3640  175.4410  141.8670 S   0  0  0  0  0  0  0  0  0  0  0  0
  186.3270  177.2660  141.4630 C   0  0  0  0  0  0  0  0  0  0  0  0
  187.9610  175.8800  143.4820 N   0  0  0  0  0  0  0  0  0  0  0  0
  190.6620  175.4990  147.9280 O   0  0  0  0  0  0  0  0  0  0  0  0
  187.8300  176.1660  145.6890 C   0  0  0  0  0  0  0  0  0  0  0  0
  186.1260  177.3350  142.7510 N   0  0  0  0  0  0  0  0  0  0  0  0
  187.5350  176.6230  140.8220 C   0  0  0  0  0  2  0  0  0  0  0  0
  190.6590  176.4860  147.1470 C   0  0  0  0  0  0  0  0  0  0  0  0
  189.7910  174.7240  144.8490 C   0  0  2  0  0  3  0  0  0  0  0  0
  187.1460  177.8410  147.0840 C   0  0  0  0  0  0  0  0  0  0  0  0
  185.3860  177.9860  140.5670 C   0  0  0  0  0  1  0  0  0  0  0  0
  189.4980  177.3020  147.0150 N   0  0  0  0  0  2  0  0  0  0  0  0
  189.5420  173.3160  144.3080 C   0  0  0  0  0  2  0  0  0  0  0  0
  192.2710  174.4210  144.3640 C   0  0  0  0  0  2  0  0  0  0  0  0
  191.9620  173.0510  143.7740 C   0  0  0  0  0  2  0  0  0  0  0  0
  191.8320  176.7420  146.2680 C   0  0  0  0  0  2  0  0  0  0  0  0
  186.8220  176.8580  145.1110 C   0  0  0  0  0  0  0  0  0  0  0  0
  188.1650  176.7240  147.0420 C   0  0  2  0  0  3  0  0  0  0  0  0
  186.9360  176.7070  143.7510 C   0  0  0  0  0  0  0  0  0  0  0  0
  185.6860  179.1220  145.4140 C   0  0  0  0  0  1  0  0  0  0  0  0
  188.5560  175.5650  144.6660 C   0  0  0  0  0  0  0  0  0  0  0  0
  1 21  1  1  0  0  0
  1  6  1  0  0  0  0
  1 16  1  0  0  0  0
  2  8  2  0  0  0  0
  5 17  1  0  0  0  0
  6 23  1  0  0  0  0
  7  8  2  0  0  0  0
  8 10  1  0  0  0  0
  9 13  2  0  0  0  0
 10 26  1  0  0  0  0
 10 28  1  0  0  0  0
 13 26  1  0  0  0  0
 14  9  1  0  0  0  0
 14  8  1  0  0  0  0
 15 11  2  0  0  0  0
 16 20  1  6  0  0  0
 17  3  2  0  0  0  0
 18  9  1  0  0  0  0
 19 25  1  0  0  0  0
 19 15  1  0  0  0  0
 20  4  1  0  0  0  0
 22 21  1  0  0  0  0
 22  4  1  0  0  0  0
 23 15  1  0  0  0  0
 24 12  1  0  0  0  0
 24  5  1  0  0  0  0
 25 12  1  6  0  0  0
 25 17  1  0  0  0  0
 26 24  2  0  0  0  0
 27  5  1  0  0  0  0
 28 16  1  0  0  0  0
 28 12  2  0  0  0  0
M  END
>  <MODEL>
3

>  <REMARK>
 VINA RESULT:      -8.2      2.014      5.126
  Name = 
  0 active torsions:
  status: ('A' for Active; 'I' for Inactive)
                            x       y       z     vdW  Elec       q    Type
                         _______ _______ _______ _____ _____    ______ ____

>  <TORSDO>
F 0

$$$$
=
 OpenBabel11112417413D

 28 32  0  0  1  0  0  0  0  0999 V2000
  189.3410  177.0980  144.4470 C   0  0  2  0  0  3  0  0  0  0  0  0
  192.1580  176.8230  145.0150 O   0  0  0  0  0  0  0  0  0  0  0  0
  188.5370  173.6920  139.0340 O   0  0  0  0  0  0  0  0  0  0  0  0
  188.4180  175.6800  146.8550 C   0  0  0  0  0  2  0  0  0  0  0  0
  190.4780  173.4020  140.3510 N   0  0  0  0  0  0  0  0  0  0  0  0
  189.1060  177.7580  143.0800 C   0  0  0  0  0  2  0  0  0  0  0  0
  192.5800  174.5480  145.8640 O   0  0  0  0  0  0  0  0  0  0  0  0
  192.5120  175.4140  144.6380 S   0  0  0  0  0  0  0  0  0  0  0  0
  194.1830  174.4070  142.6810 C   0  0  0  0  0  0  0  0  0  0  0  0
  191.3820  174.7650  143.5130 N   0  0  0  0  0  0  0  0  0  0  0  0
  186.3160  175.7540  142.7630 O   0  0  0  0  0  0  0  0  0  0  0  0
  189.5840  174.1330  142.3570 C   0  0  0  0  0  0  0  0  0  0  0  0
  193.1560  173.8920  142.0620 N   0  0  0  0  0  0  0  0  0  0  0  0
  194.0850  175.4170  143.8010 C   0  0  0  0  0  2  0  0  0  0  0  0
  187.2760  176.3400  142.1960 C   0  0  0  0  0  0  0  0  0  0  0  0
  189.1370  175.5660  144.4490 C   0  0  2  0  0  3  0  0  0  0  0  0
  189.1040  173.7570  140.1550 C   0  0  0  0  0  0  0  0  0  0  0  0
  195.5420  174.0970  142.1650 C   0  0  0  0  0  1  0  0  0  0  0  0
  188.0800  175.6550  141.2400 N   0  0  0  0  0  2  0  0  0  0  0  0
  189.3160  174.9750  145.8470 C   0  0  0  0  0  2  0  0  0  0  0  0
  188.4920  177.7830  145.5210 C   0  0  0  0  0  2  0  0  0  0  0  0
  188.7480  177.1660  146.8900 C   0  0  0  0  0  2  0  0  0  0  0  0
  187.6500  177.7210  142.6060 C   0  0  0  0  0  2  0  0  0  0  0  0
  190.6840  173.6620  141.7240 C   0  0  0  0  0  0  0  0  0  0  0  0
  188.4240  174.2540  141.4120 C   0  0  2  0  0  3  0  0  0  0  0  0
  191.7860  174.0910  142.4220 C   0  0  0  0  0  0  0  0  0  0  0  0
  191.5020  173.4160  139.3200 C   0  0  0  0  0  1  0  0  0  0  0  0
  190.0230  174.8390  143.4720 C   0  0  0  0  0  0  0  0  0  0  0  0
  1  6  1  6  0  0  0
  1 16  1  0  0  0  0
  1 21  1  0  0  0  0
  3 17  2  0  0  0  0
  4 22  1  0  0  0  0
  5 24  1  0  0  0  0
  8  2  2  0  0  0  0
  8  7  2  0  0  0  0
  9 14  1  0  0  0  0
 10  8  1  0  0  0  0
 12 28  2  0  0  0  0
 13 26  1  0  0  0  0
 13  9  2  0  0  0  0
 14  8  1  0  0  0  0
 15 23  1  0  0  0  0
 15 11  2  0  0  0  0
 16 20  1  1  0  0  0
 17  5  1  0  0  0  0
 18  9  1  0  0  0  0
 19 25  1  0  0  0  0
 19 15  1  0  0  0  0
 20  4  1  0  0  0  0
 21 22  1  0  0  0  0
 23  6  1  0  0  0  0
 24 12  1  0  0  0  0
 24 26  2  0  0  0  0
 25 17  1  6  0  0  0
 25 12  1  0  0  0  0
 26 10  1  0  0  0  0
 27  5  1  0  0  0  0
 28 10  1  0  0  0  0
 28 16  1  0  0  0  0
M  END
>  <MODEL>
4

>  <REMARK>
 VINA RESULT:      -7.7      2.878      5.630
  Name = 
  0 active torsions:
  status: ('A' for Active; 'I' for Inactive)
                            x       y       z     vdW  Elec       q    Type
                         _______ _______ _______ _____ _____    ______ ____

>  <TORSDO>
F 0

$$$$
=
 OpenBabel11112417413D

 28 32  0  0  1  0  0  0  0  0999 V2000
  188.8940  175.5130  145.6300 C   0  0  2  0  0  3  0  0  0  0  0  0
  188.2410  174.2960  143.0950 O   0  0  0  0  0  0  0  0  0  0  0  0
  195.3160  176.0410  145.4590 O   0  0  0  0  0  0  0  0  0  0  0  0
  187.5090  178.0540  145.0990 C   0  0  0  0  0  2  0  0  0  0  0  0
  194.0950  175.6650  143.4700 N   0  0  0  0  0  0  0  0  0  0  0  0
  189.8220  174.6140  146.4610 C   0  0  0  0  0  2  0  0  0  0  0  0
  188.4940  175.9820  141.3150 O   0  0  0  0  0  0  0  0  0  0  0  0
  189.1850  174.9030  142.0990 S   0  0  0  0  0  0  0  0  0  0  0  0
  191.2120  173.7910  140.5820 C   0  0  0  0  0  0  0  0  0  0  0  0
  190.5880  175.5350  142.8700 N   0  0  0  0  0  0  0  0  0  0  0  0
  191.2960  177.4960  147.6520 O   0  0  0  0  0  0  0  0  0  0  0  0
  192.0760  176.5330  144.1960 C   0  0  0  0  0  0  0  0  0  0  0  0
  192.0960  174.4850  141.2450 N   0  0  0  0  0  0  0  0  0  0  0  0
  189.7680  173.6250  141.0020 C   0  0  0  0  0  2  0  0  0  0  0  0
  191.4330  176.2900  147.3190 C   0  0  0  0  0  0  0  0  0  0  0  0
  189.6150  176.6920  144.9380 C   0  0  2  0  0  3  0  0  0  0  0  0
  194.2400  176.1400  144.8140 C   0  0  0  0  0  0  0  0  0  0  0  0
  191.6750  172.9920  139.4190 C   0  0  0  0  0  1  0  0  0  0  0  0
  192.5130  175.8870  146.4810 N   0  0  0  0  0  2  0  0  0  0  0  0
  188.6340  177.5890  144.1830 C   0  0  0  0  0  2  0  0  0  0  0  0
  187.7160  175.9920  146.4810 C   0  0  0  0  0  2  0  0  0  0  0  0
  186.7640  176.8490  145.6550 C   0  0  0  0  0  2  0  0  0  0  0  0
  190.4010  175.2910  147.7080 C   0  0  0  0  0  2  0  0  0  0  0  0
  192.7430  175.9480  143.1750 C   0  0  0  0  0  0  0  0  0  0  0  0
  192.9700  176.7270  145.3870 C   0  0  2  0  0  3  0  0  0  0  0  0
  191.8210  175.3030  142.3880 C   0  0  0  0  0  0  0  0  0  0  0  0
  194.8980  174.6190  142.8600 C   0  0  0  0  0  1  0  0  0  0  0  0
  190.7240  176.2620  144.0140 C   0  0  0  0  0  0  0  0  0  0  0  0
  1  6  1  1  0  0  0
  1 21  1  0  0  0  0
  4 22  1  0  0  0  0
  5 17  1  0  0  0  0
  6 23  1  0  0  0  0
  7  8  2  0  0  0  0
  8 10  1  0  0  0  0
  8  2  2  0  0  0  0
  9 14  1  0  0  0  0
  9 13  2  0  0  0  0
 10 28  1  0  0  0  0
 13 26  1  0  0  0  0
 14  8  1  0  0  0  0
 15 11  2  0  0  0  0
 15 23  1  0  0  0  0
 16 20  1  6  0  0  0
 16  1  1  0  0  0  0
 17 25  1  0  0  0  0
 17  3  2  0  0  0  0
 18  9  1  0  0  0  0
 19 15  1  0  0  0  0
 20  4  1  0  0  0  0
 22 21  1  0  0  0  0
 24  5  1  0  0  0  0
 24 12  1  0  0  0  0
 25 12  1  6  0  0  0
 25 19  1  0  0  0  0
 26 10  1  0  0  0  0
 26 24  2  0  0  0  0
 27  5  1  0  0  0  0
 28 12  2  0  0  0  0
 28 16  1  0  0  0  0
M  END
>  <MODEL>
5

>  <REMARK>
 VINA RESULT:      -7.7      2.178      3.441
  Name = 
  0 active torsions:
  status: ('A' for Active; 'I' for Inactive)
                            x       y       z     vdW  Elec       q    Type
                         _______ _______ _______ _____ _____    ______ ____

>  <TORSDO>
F 0

$$$$
=
 OpenBabel11112417413D

 28 32  0  0  1  0  0  0  0  0999 V2000
  188.4620  177.5410  145.1360 C   0  0  2  0  0  3  0  0  0  0  0  0
  190.8870  177.6430  146.7000 O   0  0  0  0  0  0  0  0  0  0  0  0
  189.8240  173.2850  140.4890 O   0  0  0  0  0  0  0  0  0  0  0  0
  186.7820  176.4190  147.2750 C   0  0  0  0  0  2  0  0  0  0  0  0
  191.1610  173.3980  142.4350 N   0  0  0  0  0  0  0  0  0  0  0  0
  188.7160  177.9570  143.6790 C   0  0  0  0  0  2  0  0  0  0  0  0
  191.0600  175.5790  148.0350 O   0  0  0  0  0  0  0  0  0  0  0  0
  191.4090  176.2360  146.7310 S   0  0  0  0  0  0  0  0  0  0  0  0
  193.7180  175.1180  145.7020 C   0  0  0  0  0  0  0  0  0  0  0  0
  190.7950  175.3120  145.4150 N   0  0  0  0  0  0  0  0  0  0  0  0
  186.3160  175.6550  142.7630 O   0  0  0  0  0  0  0  0  0  0  0  0
  189.5690  174.3310  143.8320 C   0  0  0  0  0  0  0  0  0  0  0  0
  193.0090  174.4130  144.8630 N   0  0  0  0  0  0  0  0  0  0  0  0
  193.1770  176.2720  146.5150 C   0  0  0  0  0  2  0  0  0  0  0  0
  187.3930  176.2420  142.4760 C   0  0  0  0  0  0  0  0  0  0  0  0
  188.3330  176.0140  145.3400 C   0  0  2  0  0  3  0  0  0  0  0  0
  189.9400  173.5780  141.7080 C   0  0  0  0  0  0  0  0  0  0  0  0
  195.1820  174.8730  145.7630 C   0  0  0  0  0  1  0  0  0  0  0  0
  188.5170  175.5050  142.0030 N   0  0  0  0  0  2  0  0  0  0  0  0
  188.0130  175.6640  146.7930 C   0  0  0  0  0  2  0  0  0  0  0  0
  187.2540  178.2910  145.7000 C   0  0  0  0  0  2  0  0  0  0  0  0
  187.0170  177.9190  147.1580 C   0  0  0  0  0  2  0  0  0  0  0  0
  187.5360  177.7000  142.7370 C   0  0  0  0  0  2  0  0  0  0  0  0
  190.8410  173.8840  143.7230 C   0  0  0  0  0  0  0  0  0  0  0  0
  188.8300  174.1890  142.5330 C   0  0  2  0  0  3  0  0  0  0  0  0
  191.5940  174.5240  144.6760 C   0  0  0  0  0  0  0  0  0  0  0  0
  192.4890  173.3590  141.8470 C   0  0  0  0  0  1  0  0  0  0  0  0
  189.5420  175.2400  144.8850 C   0  0  0  0  0  0  0  0  0  0  0  0
  1  6  1  6  0  0  0
  1 16  1  0  0  0  0
  1 21  1  0  0  0  0
  2  8  2  0  0  0  0
  3 17  2  0  0  0  0
  5 24  1  0  0  0  0
  8  7  2  0  0  0  0
  9 18  1  0  0  0  0
  9 14  1  0  0  0  0
 10  8  1  0  0  0  0
 12 28  2  0  0  0  0
 13  9  2  0  0  0  0
 14  8  1  0  0  0  0
 15 23  1  0  0  0  0
 15 11  2  0  0  0  0
 16 20  1  1  0  0  0
 17  5  1  0  0  0  0
 19 15  1  0  0  0  0
 19 25  1  0  0  0  0
 20  4  1  0  0  0  0
 21 22  1  0  0  0  0
 22  4  1  0  0  0  0
 23  6  1  0  0  0  0
 24 12  1  0  0  0  0
 24 26  2  0  0  0  0
 25 17  1  6  0  0  0
 25 12  1  0  0  0  0
 26 13  1  0  0  0  0
 26 10  1  0  0  0  0
 27  5  1  0  0  0  0
 28 16  1  0  0  0  0
 28 10  1  0  0  0  0
M  END
>  <MODEL>
6

>  <REMARK>
 VINA RESULT:      -7.6      2.312      5.185
  Name = 
  0 active torsions:
  status: ('A' for Active; 'I' for Inactive)
                            x       y       z     vdW  Elec       q    Type
                         _______ _______ _______ _____ _____    ______ ____

>  <TORSDO>
F 0

$$$$
=
 OpenBabel11112417413D

 28 32  0  0  1  0  0  0  0  0999 V2000
  186.9160  178.4050  144.7950 C   0  0  2  0  0  3  0  0  0  0  0  0
  189.0890  177.9160  146.6320 O   0  0  0  0  0  0  0  0  0  0  0  0
  188.3420  174.6900  139.7230 O   0  0  0  0  0  0  0  0  0  0  0  0
  184.8180  177.2620  146.5130 C   0  0  0  0  0  2  0  0  0  0  0  0
  189.3960  174.3230  141.8070 N   0  0  0  0  0  0  0  0  0  0  0  0
  187.4250  178.9790  143.4640 C   0  0  0  0  0  2  0  0  0  0  0  0
  188.7980  175.6820  147.6310 O   0  0  0  0  0  0  0  0  0  0  0  0
  189.4110  176.4560  146.5000 S   0  0  0  0  0  0  0  0  0  0  0  0
  191.6730  175.1560  145.5870 C   0  0  0  0  0  0  0  0  0  0  0  0
  188.8710  175.8310  144.9900 N   0  0  0  0  0  0  0  0  0  0  0  0
  184.8950  177.2220  141.9130 O   0  0  0  0  0  0  0  0  0  0  0  0
  187.7610  175.2810  143.1360 C   0  0  0  0  0  0  0  0  0  0  0  0
  191.0020  174.6920  144.5690 N   0  0  0  0  0  0  0  0  0  0  0  0
  191.1810  176.2520  146.5050 C   0  0  0  0  0  2  0  0  0  0  0  0
  186.0690  177.6730  141.8540 C   0  0  0  0  0  0  0  0  0  0  0  0
  186.5590  176.9020  144.7350 C   0  0  2  0  0  3  0  0  0  0  0  0
  188.3240  174.7870  140.9780 C   0  0  0  0  0  0  0  0  0  0  0  0
  193.0680  174.6850  145.7820 C   0  0  0  0  0  1  0  0  0  0  0  0
  187.1410  176.8470  141.4070 N   0  0  0  0  0  2  0  0  0  0  0  0
  185.9940  176.4040  146.0660 C   0  0  0  0  0  2  0  0  0  0  0  0
  185.7500  179.2430  145.3240 C   0  0  0  0  0  2  0  0  0  0  0  0
  185.2640  178.7090  146.6660 C   0  0  0  0  0  2  0  0  0  0  0  0
  186.3650  179.0400  142.3600 C   0  0  0  0  0  2  0  0  0  0  0  0
  188.9650  174.6650  143.1090 C   0  0  0  0  0  0  0  0  0  0  0  0
  187.1990  175.4370  141.7530 C   0  0  2  0  0  3  0  0  0  0  0  0
  189.6550  175.0430  144.2340 C   0  0  0  0  0  0  0  0  0  0  0  0
  190.7760  174.1660  141.3830 C   0  0  0  0  0  1  0  0  0  0  0  0
  187.7070  176.0260  144.3100 C   0  0  0  0  0  0  0  0  0  0  0  0
  1  6  1  6  0  0  0
  1 21  1  0  0  0  0
  3 17  2  0  0  0  0
  4 22  1  0  0  0  0
  5 24  1  0  0  0  0
  8 14  1  0  0  0  0
  8  2  2  0  0  0  0
  8  7  2  0  0  0  0
  9 18  1  0  0  0  0
  9 14  1  0  0  0  0
 10  8  1  0  0  0  0
 12 28  2  0  0  0  0
 13  9  2  0  0  0  0
 15 11  2  0  0  0  0
 15 23  1  0  0  0  0
 16  1  1  0  0  0  0
 16 20  1  1  0  0  0
 17  5  1  0  0  0  0
 19 25  1  0  0  0  0
 19 15  1  0  0  0  0
 20  4  1  0  0  0  0
 21 22  1  0  0  0  0
 23  6  1  0  0  0  0
 24 12  1  0  0  0  0
 24 26  2  0  0  0  0
 25 17  1  6  0  0  0
 25 12  1  0  0  0  0
 26 13  1  0  0  0  0
 26 10  1  0  0  0  0
 27  5  1  0  0  0  0
 28 16  1  0  0  0  0
 28 10  1  0  0  0  0
M  END
>  <MODEL>
7

>  <REMARK>
 VINA RESULT:      -7.6      1.942      4.776
  Name = 
  0 active torsions:
  status: ('A' for Active; 'I' for Inactive)
                            x       y       z     vdW  Elec       q    Type
                         _______ _______ _______ _____ _____    ______ ____

>  <TORSDO>
F 0

$$$$
=
 OpenBabel11112417413D

 28 32  0  0  1  0  0  0  0  0999 V2000
  191.1980  175.9640  144.8620 C   0  0  2  0  0  3  0  0  0  0  0  0
  192.6430  173.5450  144.2330 O   0  0  0  0  0  0  0  0  0  0  0  0
  187.0860  176.6080  139.9390 O   0  0  0  0  0  0  0  0  0  0  0  0
  189.9270  174.9190  147.3020 C   0  0  0  0  0  2  0  0  0  0  0  0
  188.1530  174.5370  140.3420 N   0  0  0  0  0  0  0  0  0  0  0  0
  191.3770  177.0250  143.7660 C   0  0  0  0  0  2  0  0  0  0  0  0
  191.1700  171.6110  144.6380 O   0  0  0  0  0  0  0  0  0  0  0  0
  191.6330  172.6170  143.6230 S   0  0  0  0  0  0  0  0  0  0  0  0
  191.4250  171.5520  141.0810 C   0  0  0  0  0  0  0  0  0  0  0  0
  190.2880  173.4840  142.9890 N   0  0  0  0  0  0  0  0  0  0  0  0
  188.1370  178.0180  144.4110 O   0  0  0  0  0  0  0  0  0  0  0  0
  188.5790  174.8590  142.5940 C   0  0  0  0  0  0  0  0  0  0  0  0
  190.3300  172.2330  140.8790 N   0  0  0  0  0  0  0  0  0  0  0  0
  192.3770  171.7870  142.2320 C   0  0  0  0  0  2  0  0  0  0  0  0
  189.0560  177.8690  143.5630 C   0  0  0  0  0  0  0  0  0  0  0  0
  189.8390  175.2290  144.8090 C   0  0  2  0  0  3  0  0  0  0  0  0
  187.6420  175.8140  140.7430 C   0  0  0  0  0  0  0  0  0  0  0  0
  191.8480  170.5790  140.0410 C   0  0  0  0  0  1  0  0  0  0  0  0
  188.7910  177.2470  142.3090 N   0  0  0  0  0  2  0  0  0  0  0  0
  189.6900  174.2350  145.9620 C   0  0  0  0  0  2  0  0  0  0  0  0
  191.4570  176.5740  146.2410 C   0  0  0  0  0  2  0  0  0  0  0  0
  191.3250  175.5210  147.3340 C   0  0  0  0  0  2  0  0  0  0  0  0
  190.4540  178.2400  143.9110 C   0  0  0  0  0  2  0  0  0  0  0  0
  188.7060  174.0250  141.5370 C   0  0  0  0  0  0  0  0  0  0  0  0
  187.8730  176.1250  142.2040 C   0  0  2  0  0  3  0  0  0  0  0  0
  189.7860  173.2100  141.7730 C   0  0  0  0  0  0  0  0  0  0  0  0
  188.5660  174.1860  138.9940 C   0  0  0  0  0  1  0  0  0  0  0  0
  189.5820  174.5300  143.5000 C   0  0  0  0  0  0  0  0  0  0  0  0
  1  6  1  6  0  0  0
  1 21  1  0  0  0  0
  3 17  2  0  0  0  0
  4 22  1  0  0  0  0
  5 17  1  0  0  0  0
  5 24  1  0  0  0  0
  6 23  1  0  0  0  0
  8  2  2  0  0  0  0
  8  7  2  0  0  0  0
  9 14  1  0  0  0  0
 10 28  1  0  0  0  0
 10  8  1  0  0  0  0
 12 28  2  0  0  0  0
 13  9  2  0  0  0  0
 13 26  1  0  0  0  0
 14  8  1  0  0  0  0
 15 23  1  0  0  0  0
 15 11  2  0  0  0  0
 16  1  1  0  0  0  0
 16 20  1  1  0  0  0
 18  9  1  0  0  0  0
 19 15  1  0  0  0  0
 20  4  1  0  0  0  0
 21 22  1  0  0  0  0
 24 26  2  0  0  0  0
 24 12  1  0  0  0  0
 25 17  1  6  0  0  0
 25 19  1  0  0  0  0
 25 12  1  0  0  0  0
 26 10  1  0  0  0  0
 27  5  1  0  0  0  0
 28 16  1  0  0  0  0
M  END
>  <MODEL>
8

>  <REMARK>
 VINA RESULT:      -7.4      3.282      5.827
  Name = 
  0 active torsions:
  status: ('A' for Active; 'I' for Inactive)
                            x       y       z     vdW  Elec       q    Type
                         _______ _______ _______ _____ _____    ______ ____

>  <TORSDO>
F 0

$$$$
=
 OpenBabel11112417413D

 28 32  0  0  1  0  0  0  0  0999 V2000
  189.1480  176.5180  143.5670 C   0  0  2  0  0  3  0  0  0  0  0  0
  191.4770  177.4150  145.0180 O   0  0  0  0  0  0  0  0  0  0  0  0
  190.5940  170.4440  141.9660 O   0  0  0  0  0  0  0  0  0  0  0  0
  187.2950  176.7050  145.8450 C   0  0  0  0  0  2  0  0  0  0  0  0
  191.8170  171.5580  143.6550 N   0  0  0  0  0  0  0  0  0  0  0  0
  189.5070  176.1020  142.1320 C   0  0  0  0  0  2  0  0  0  0  0  0
  191.4780  176.3650  147.2470 O   0  0  0  0  0  0  0  0  0  0  0  0
  191.9340  176.2330  145.8220 S   0  0  0  0  0  0  0  0  0  0  0  0
  194.2480  174.7260  145.7090 C   0  0  0  0  0  0  0  0  0  0  0  0
  191.3590  174.7580  145.1470 N   0  0  0  0  0  0  0  0  0  0  0  0
  187.0660  173.6790  142.3870 O   0  0  0  0  0  0  0  0  0  0  0  0
  190.1870  173.0970  144.2310 C   0  0  0  0  0  0  0  0  0  0  0  0
  193.5600  173.6890  145.3170 N   0  0  0  0  0  0  0  0  0  0  0  0
  193.7120  176.1390  145.7520 C   0  0  0  0  0  2  0  0  0  0  0  0
  188.1830  174.0200  141.9160 C   0  0  0  0  0  0  0  0  0  0  0  0
  188.9390  175.3300  144.5320 C   0  0  2  0  0  3  0  0  0  0  0  0
  190.6510  171.3350  142.8540 C   0  0  0  0  0  0  0  0  0  0  0  0
  195.6930  174.5410  145.9980 C   0  0  0  0  0  1  0  0  0  0  0  0
  189.2990  173.1370  141.9860 N   0  0  0  0  0  2  0  0  0  0  0  0
  188.5180  175.8010  145.9250 C   0  0  0  0  0  2  0  0  0  0  0  0
  187.9430  177.4610  143.5610 C   0  0  0  0  0  2  0  0  0  0  0  0
  187.6040  177.9160  144.9750 C   0  0  0  0  0  2  0  0  0  0  0  0
  188.3740  175.3950  141.3810 C   0  0  0  0  0  2  0  0  0  0  0  0
  191.4420  172.6520  144.4680 C   0  0  0  0  0  0  0  0  0  0  0  0
  189.5210  172.2960  143.1500 C   0  0  2  0  0  3  0  0  0  0  0  0
  192.1650  173.6930  144.9940 C   0  0  0  0  0  0  0  0  0  0  0  0
  193.1740  171.2060  143.2760 C   0  0  0  0  0  1  0  0  0  0  0  0
  190.1380  174.4250  144.6430 C   0  0  0  0  0  0  0  0  0  0  0  0
  1  6  1  6  0  0  0
  1 16  1  0  0  0  0
  2  8  2  0  0  0  0
  3 17  2  0  0  0  0
  4 20  1  0  0  0  0
  5 24  1  0  0  0  0
  8  7  2  0  0  0  0
  9 14  1  0  0  0  0
  9 18  1  0  0  0  0
 10  8  1  0  0  0  0
 12 24  1  0  0  0  0
 12 28  2  0  0  0  0
 13  9  2  0  0  0  0
 14  8  1  0  0  0  0
 15 19  1  0  0  0  0
 15 11  2  0  0  0  0
 16 28  1  0  0  0  0
 16 20  1  1  0  0  0
 17 25  1  0  0  0  0
 17  5  1  0  0  0  0
 21  1  1  0  0  0  0
 21 22  1  0  0  0  0
 22  4  1  0  0  0  0
 23 15  1  0  0  0  0
 23  6  1  0  0  0  0
 24 26  2  0  0  0  0
 25 19  1  6  0  0  0
 25 12  1  0  0  0  0
 26 10  1  0  0  0  0
 26 13  1  0  0  0  0
 27  5  1  0  0  0  0
 28 10  1  0  0  0  0
M  END
>  <MODEL>
9

>  <REMARK>
 VINA RESULT:      -7.3      2.922      5.699
  Name = 
  0 active torsions:
  status: ('A' for Active; 'I' for Inactive)
                            x       y       z     vdW  Elec       q    Type
                         _______ _______ _______ _____ _____    ______ ____

>  <TORSDO>
F 0

$$$$
