=
 OpenBabel11112416413D

 32 37  0  0  1  0  0  0  0  0999 V2000
  189.3140  175.5270  145.1370 C   0  0  1  0  0  3  0  0  0  0  0  0
  188.6550  175.0500  140.9270 O   0  0  0  0  0  0  0  0  0  0  0  0
  187.6440  176.0260  141.0100 C   0  0  0  0  0  2  0  0  0  0  0  0
  187.3720  176.7700  146.3120 C   0  0  0  0  0  0  0  0  0  0  0  0
  186.3580  177.8640  146.1960 C   0  0  2  0  0  3  0  0  0  0  0  0
  191.4570  175.1950  146.5140 C   0  0  2  0  0  3  0  0  0  0  0  0
  191.1810  174.6620  144.1220 O   0  0  0  0  0  0  0  0  0  0  0  0
  184.7770  178.8790  144.7400 C   0  0  1  0  0  3  0  0  0  0  0  0
  189.0690  174.7790  142.2440 C   0  0  0  0  0  2  0  0  0  0  0  0
  190.3800  175.7610  144.1490 N   0  0  1  0  0  0  0  0  0  0  0  0
  189.8280  175.9950  142.8070 C   0  0  2  0  0  3  0  0  0  0  0  0
  187.8670  177.1560  143.9070 C   0  0  2  0  0  3  0  0  0  0  0  0
  184.0760  178.5640  146.0660 C   0  0  0  0  0  2  0  0  0  0  0  0
  192.1200  174.8450  145.1600 C   0  0  2  0  0  3  0  0  0  0  0  0
  185.0290  177.6900  146.8890 C   0  0  0  0  0  2  0  0  0  0  0  0
  188.2440  177.3730  141.4290 C   0  0  0  0  0  2  0  0  0  0  0  0
  188.9220  177.2440  142.7970 C   0  0  2  0  0  3  0  0  0  0  0  0
  187.0660  178.3210  143.9640 O   0  0  0  0  0  0  0  0  0  0  0  0
  189.9310  175.0500  146.4660 C   0  0  0  0  0  2  0  0  0  0  0  0
  187.3500  175.9740  147.2380 O   0  0  0  0  0  0  0  0  0  0  0  0
  185.2060  180.2080  144.7500 O   0  0  0  0  0  1  0  0  0  0  0  0
  188.4920  176.8130  145.2860 C   0  0  2  0  0  3  0  0  0  0  0  0
  185.9640  177.9430  144.7490 C   0  0  1  0  0  3  0  0  0  0  0  0
  193.2830  173.0110  143.9510 C   0  0  0  0  0  2  0  0  0  0  0  0
  192.9550  173.5860  145.3130 C   0  0  1  0  0  3  0  0  0  0  0  0
  194.3200  173.8200  144.6990 C   0  0  1  0  0  3  0  0  0  0  0  0
  195.3200  172.8870  145.3520 C   0  0  0  0  0  2  0  0  0  0  0  0
  196.5800  173.6240  145.6420 C   0  0  0  0  0  0  0  0  0  0  0  0
  197.0810  174.5340  144.7210 O   0  0  0  0  0  0  0  0  0  0  0  0
  197.2100  173.3990  146.7080 O   0  0  0  0  0  1  0  0  0  0  0  0
  191.2200  176.9390  148.2850 C   0  0  0  0  0  1  0  0  0  0  0  0
  191.8210  176.6110  146.9310 C   0  0  0  0  0  2  0  0  0  0  0  0
  1 22  1  0  0  0  0
  1 19  1  1  0  0  0
  2  3  1  0  0  0  0
  2  9  1  0  0  0  0
  3 16  1  0  0  0  0
  4 20  2  0  0  0  0
  5  4  1  0  0  0  0
  5 15  1  1  0  0  0
  6 32  1  6  0  0  0
  8 23  1  0  0  0  0
  8 21  1  1  0  0  0
  8 13  1  0  0  0  0
 10  7  1  6  0  0  0
 10  1  1  0  0  0  0
 11  9  1  1  0  0  0
 11 10  1  0  0  0  0
 12 18  1  1  0  0  0
 12 22  1  0  0  0  0
 13 15  1  0  0  0  0
 14  7  1  6  0  0  0
 14 25  1  0  0  0  0
 14  6  1  0  0  0  0
 17 16  1  6  0  0  0
 17 11  1  0  0  0  0
 17 12  1  0  0  0  0
 19  6  1  0  0  0  0
 22  4  1  1  0  0  0
 23 18  1  6  0  0  0
 23  5  1  0  0  0  0
 24 26  1  0  0  0  0
 25 24  1  6  0  0  0
 26 25  1  0  0  0  0
 26 27  1  1  0  0  0
 27 28  1  0  0  0  0
 28 30  1  0  0  0  0
 29 28  2  0  0  0  0
 32 31  1  0  0  0  0
M  END
>  <MODEL>
1

>  <REMARK>
 VINA RESULT:      -8.6      0.000      0.000
  Name = 
  4 active torsions:
  status: ('A' for Active; 'I' for Inactive)
    1  A    between atoms: C_7  and  C_19
    2  A    between atoms: C_10  and  C_17
    3  A    between atoms: C_20  and  C_29
    4  A    between atoms: C_29  and  C_30
                            x       y       z     vdW  Elec       q    Type
                         _______ _______ _______ _____ _____    ______ ____

>  <TORSDO>
F 4

$$$$
=
 OpenBabel11112416413D

 32 37  0  0  1  0  0  0  0  0999 V2000
  191.4090  175.4140  144.4490 C   0  0  1  0  0  3  0  0  0  0  0  0
  190.2880  172.7940  141.2440 O   0  0  0  0  0  0  0  0  0  0  0  0
  191.3230  171.9260  141.6370 C   0  0  0  0  0  2  0  0  0  0  0  0
  193.7530  174.8700  145.4010 C   0  0  0  0  0  0  0  0  0  0  0  0
  194.7220  173.7860  145.7500 C   0  0  2  0  0  3  0  0  0  0  0  0
  189.9760  177.0560  145.8070 C   0  0  2  0  0  3  0  0  0  0  0  0
  189.2290  175.7770  143.8360 O   0  0  0  0  0  0  0  0  0  0  0  0
  195.6660  171.7330  145.0110 C   0  0  1  0  0  3  0  0  0  0  0  0
  190.4150  173.9590  142.0230 C   0  0  0  0  0  2  0  0  0  0  0  0
  190.0600  174.8320  144.3510 N   0  0  1  0  0  0  0  0  0  0  0  0
  190.0460  173.6450  143.4840 C   0  0  2  0  0  3  0  0  0  0  0  0
  192.3710  173.1070  144.3260 C   0  0  2  0  0  3  0  0  0  0  0  0
  196.8110  172.6810  145.3880 C   0  0  0  0  0  2  0  0  0  0  0  0
  188.8000  176.5540  144.9340 C   0  0  2  0  0  3  0  0  0  0  0  0
  196.1980  174.0680  145.6150 C   0  0  0  0  0  2  0  0  0  0  0  0
  191.0540  171.3870  143.0460 C   0  0  0  0  0  2  0  0  0  0  0  0
  190.9720  172.5450  144.0460 C   0  0  2  0  0  3  0  0  0  0  0  0
  193.2210  172.1350  144.9060 O   0  0  0  0  0  0  0  0  0  0  0  0
  191.3380  176.7790  145.1590 C   0  0  0  0  0  2  0  0  0  0  0  0
  194.0780  176.0480  145.4190 O   0  0  0  0  0  0  0  0  0  0  0  0
  195.3870  170.8950  146.0930 O   0  0  0  0  0  1  0  0  0  0  0  0
  192.3240  174.4120  145.1650 C   0  0  2  0  0  3  0  0  0  0  0  0
  194.5090  172.6750  144.7630 C   0  0  1  0  0  3  0  0  0  0  0  0
  186.9060  177.2680  143.4930 C   0  0  0  0  0  2  0  0  0  0  0  0
  187.9970  177.7400  144.4320 C   0  0  1  0  0  3  0  0  0  0  0  0
  186.5700  177.6150  144.9270 C   0  0  1  0  0  3  0  0  0  0  0  0
  185.9480  178.9960  144.9840 C   0  0  0  0  0  2  0  0  0  0  0  0
  184.4650  178.8790  145.0080 C   0  0  0  0  0  0  0  0  0  0  0  0
  183.7400  178.9780  143.8270 O   0  0  0  0  0  0  0  0  0  0  0  0
  183.8630  178.7220  146.1020 O   0  0  0  0  0  1  0  0  0  0  0  0
  191.2250  176.6510  147.9300 C   0  0  0  0  0  1  0  0  0  0  0  0
  189.9260  176.4130  147.1830 C   0  0  0  0  0  2  0  0  0  0  0  0
  1 19  1  1  0  0  0
  1 22  1  0  0  0  0
  2  3  1  0  0  0  0
  2  9  1  0  0  0  0
  3 16  1  0  0  0  0
  4 20  2  0  0  0  0
  4  5  1  0  0  0  0
  5 15  1  6  0  0  0
  6 32  1  1  0  0  0
  8 13  1  0  0  0  0
  8 21  1  1  0  0  0
 10  7  1  6  0  0  0
 10  1  1  0  0  0  0
 11  9  1  6  0  0  0
 11 17  1  0  0  0  0
 11 10  1  0  0  0  0
 12 18  1  1  0  0  0
 12 22  1  0  0  0  0
 13 15  1  0  0  0  0
 14  7  1  6  0  0  0
 14  6  1  0  0  0  0
 17 16  1  6  0  0  0
 17 12  1  0  0  0  0
 19  6  1  0  0  0  0
 22  4  1  6  0  0  0
 23 18  1  1  0  0  0
 23  8  1  0  0  0  0
 23  5  1  0  0  0  0
 24 26  1  0  0  0  0
 25 24  1  6  0  0  0
 25 26  1  0  0  0  0
 25 14  1  0  0  0  0
 26 27  1  6  0  0  0
 27 28  1  0  0  0  0
 28 30  1  0  0  0  0
 29 28  2  0  0  0  0
 32 31  1  0  0  0  0
M  END
>  <MODEL>
2

>  <REMARK>
 VINA RESULT:      -7.8      1.928      8.214
  Name = 
  4 active torsions:
  status: ('A' for Active; 'I' for Inactive)
    1  A    between atoms: C_7  and  C_19
    2  A    between atoms: C_10  and  C_17
    3  A    between atoms: C_20  and  C_29
    4  A    between atoms: C_29  and  C_30
                            x       y       z     vdW  Elec       q    Type
                         _______ _______ _______ _____ _____    ______ ____

>  <TORSDO>
F 4

$$$$
=
 OpenBabel11112416413D

 32 37  0  0  1  0  0  0  0  0999 V2000
  190.1750  175.9250  143.9060 C   0  0  1  0  0  3  0  0  0  0  0  0
  189.6750  173.2630  140.5810 O   0  0  0  0  0  0  0  0  0  0  0  0
  190.7150  172.4710  141.1030 C   0  0  0  0  0  2  0  0  0  0  0  0
  192.4130  175.5500  145.1500 C   0  0  0  0  0  0  0  0  0  0  0  0
  193.4100  174.5380  145.6200 C   0  0  2  0  0  3  0  0  0  0  0  0
  188.4590  177.4400  145.0720 C   0  0  2  0  0  3  0  0  0  0  0  0
  188.0690  176.1290  143.0200 O   0  0  0  0  0  0  0  0  0  0  0  0
  194.5930  172.5710  145.0050 C   0  0  1  0  0  3  0  0  0  0  0  0
  189.6120  174.4260  141.3720 C   0  0  0  0  0  2  0  0  0  0  0  0
  188.8980  175.2450  143.6370 N   0  0  1  0  0  0  0  0  0  0  0  0
  189.0850  174.0690  142.7730 C   0  0  2  0  0  3  0  0  0  0  0  0
  191.3180  173.6990  143.9050 C   0  0  2  0  0  3  0  0  0  0  0  0
  195.6050  173.5980  145.5260 C   0  0  0  0  0  2  0  0  0  0  0  0
  187.4460  176.8590  144.0550 C   0  0  2  0  0  3  0  0  0  0  0  0
  194.8650  174.9320  145.6750 C   0  0  0  0  0  2  0  0  0  0  0  0
  190.3100  171.8980  142.4660 C   0  0  0  0  0  2  0  0  0  0  0  0
  190.0130  173.0360  143.4480 C   0  0  2  0  0  3  0  0  0  0  0  0
  192.1580  172.7880  144.5890 O   0  0  0  0  0  0  0  0  0  0  0  0
  189.9100  177.2730  144.6030 C   0  0  0  0  0  2  0  0  0  0  0  0
  192.6430  176.7480  145.2110 O   0  0  0  0  0  0  0  0  0  0  0  0
  194.2430  171.7020  146.0410 O   0  0  0  0  0  1  0  0  0  0  0  0
  191.0650  174.9880  144.7330 C   0  0  2  0  0  3  0  0  0  0  0  0
  193.4100  173.4250  144.6120 C   0  0  1  0  0  3  0  0  0  0  0  0
  186.5650  177.8400  141.9490 C   0  0  0  0  0  2  0  0  0  0  0  0
  186.6260  177.9870  143.4560 C   0  0  1  0  0  3  0  0  0  0  0  0
  185.3910  177.4040  142.7980 C   0  0  1  0  0  3  0  0  0  0  0  0
  184.3100  178.4640  142.7560 C   0  0  0  0  0  2  0  0  0  0  0  0
  183.4450  178.2540  141.5630 C   0  0  0  0  0  0  0  0  0  0  0  0
  183.9810  178.3710  140.2870 O   0  0  0  0  0  0  0  0  0  0  0  0
  182.2210  178.0030  141.7090 O   0  0  0  0  0  1  0  0  0  0  0  0
  186.8120  176.6310  146.7650 C   0  0  0  0  0  1  0  0  0  0  0  0
  188.2840  176.7800  146.4300 C   0  0  0  0  0  2  0  0  0  0  0  0
  1 19  1  1  0  0  0
  1 22  1  0  0  0  0
  2  3  1  0  0  0  0
  2  9  1  0  0  0  0
  3 16  1  0  0  0  0
  4 20  2  0  0  0  0
  4  5  1  0  0  0  0
  5 15  1  6  0  0  0
  6 32  1  1  0  0  0
  8 13  1  0  0  0  0
  8 21  1  1  0  0  0
 10  7  1  6  0  0  0
 10  1  1  0  0  0  0
 11  9  1  6  0  0  0
 11 17  1  0  0  0  0
 11 10  1  0  0  0  0
 12 18  1  1  0  0  0
 12 22  1  0  0  0  0
 13 15  1  0  0  0  0
 14  7  1  6  0  0  0
 14  6  1  0  0  0  0
 17 16  1  6  0  0  0
 17 12  1  0  0  0  0
 19  6  1  0  0  0  0
 22  4  1  6  0  0  0
 23 18  1  1  0  0  0
 23  8  1  0  0  0  0
 23  5  1  0  0  0  0
 24 26  1  0  0  0  0
 25 24  1  6  0  0  0
 25 14  1  0  0  0  0
 26 27  1  6  0  0  0
 26 25  1  0  0  0  0
 28 30  1  0  0  0  0
 28 27  1  0  0  0  0
 29 28  2  0  0  0  0
 32 31  1  0  0  0  0
M  END
>  <MODEL>
3

>  <REMARK>
 VINA RESULT:      -7.6      2.239      8.127
  Name = 
  4 active torsions:
  status: ('A' for Active; 'I' for Inactive)
    1  A    between atoms: C_7  and  C_19
    2  A    between atoms: C_10  and  C_17
    3  A    between atoms: C_20  and  C_29
    4  A    between atoms: C_29  and  C_30
                            x       y       z     vdW  Elec       q    Type
                         _______ _______ _______ _____ _____    ______ ____

>  <TORSDO>
F 4

$$$$
=
 OpenBabel11112416413D

 32 37  0  0  1  0  0  0  0  0999 V2000
  189.5360  175.9200  143.5400 C   0  0  1  0  0  3  0  0  0  0  0  0
  192.6660  176.0230  146.4690 O   0  0  0  0  0  0  0  0  0  0  0  0
  191.7190  176.4540  147.4160 C   0  0  0  0  0  2  0  0  0  0  0  0
  187.4250  177.2120  144.2980 C   0  0  0  0  0  0  0  0  0  0  0  0
  186.5370  177.5580  145.4510 C   0  0  2  0  0  3  0  0  0  0  0  0
  189.2850  174.4440  141.4530 C   0  0  2  0  0  3  0  0  0  0  0  0
  191.2620  174.5420  142.9230 O   0  0  0  0  0  0  0  0  0  0  0  0
  186.5150  178.2110  147.7360 C   0  0  1  0  0  3  0  0  0  0  0  0
  192.0170  176.0080  145.2200 C   0  0  0  0  0  2  0  0  0  0  0  0
  190.3200  174.7230  143.8870 N   0  0  1  0  0  0  0  0  0  0  0  0
  190.9800  174.8710  145.1920 C   0  0  2  0  0  3  0  0  0  0  0  0
  188.9720  176.2050  145.9610 C   0  0  2  0  0  3  0  0  0  0  0  0
  185.6300  179.1850  146.9490 C   0  0  0  0  0  2  0  0  0  0  0  0
  190.6260  173.8110  141.8950 C   0  0  2  0  0  3  0  0  0  0  0  0
  185.8590  178.9050  145.4590 C   0  0  0  0  0  2  0  0  0  0  0  0
  190.6570  175.3690  147.6320 C   0  0  0  0  0  2  0  0  0  0  0  0
  189.9380  175.0670  146.3140 C   0  0  2  0  0  3  0  0  0  0  0  0
  187.9640  176.3610  146.9430 O   0  0  0  0  0  0  0  0  0  0  0  0
  189.0630  175.8280  142.0760 C   0  0  0  0  0  2  0  0  0  0  0  0
  187.3030  177.7570  143.2110 O   0  0  0  0  0  0  0  0  0  0  0  0
  185.7140  177.2150  148.3000 O   0  0  0  0  0  1  0  0  0  0  0  0
  188.3760  176.0520  144.5360 C   0  0  2  0  0  3  0  0  0  0  0  0
  187.4110  177.6240  146.6700 C   0  0  1  0  0  3  0  0  0  0  0  0
  192.8090  172.9430  141.0840 C   0  0  0  0  0  2  0  0  0  0  0  0
  191.5560  173.7050  140.7010 C   0  0  1  0  0  3  0  0  0  0  0  0
  191.7050  172.2460  140.3180 C   0  0  1  0  0  3  0  0  0  0  0  0
  192.0790  172.1590  138.8520 C   0  0  0  0  0  2  0  0  0  0  0  0
  191.1880  171.1860  138.1630 C   0  0  0  0  0  0  0  0  0  0  0  0
  189.9890  170.8050  138.7490 O   0  0  0  0  0  1  0  0  0  0  0  0
  191.5370  170.6820  137.0640 O   0  0  0  0  0  0  0  0  0  0  0  0
  188.6300  172.2570  142.4630 C   0  0  0  0  0  1  0  0  0  0  0  0
  188.1240  173.5310  141.8140 C   0  0  0  0  0  2  0  0  0  0  0  0
  1 19  1  6  0  0  0
  1 10  1  0  0  0  0
  1 22  1  0  0  0  0
  2  3  1  0  0  0  0
  3 16  1  0  0  0  0
  4  5  1  0  0  0  0
  5 15  1  6  0  0  0
  5 23  1  0  0  0  0
  6 32  1  1  0  0  0
  6 14  1  0  0  0  0
  6 19  1  0  0  0  0
  8 21  1  6  0  0  0
  9  2  1  0  0  0  0
 10  7  1  6  0  0  0
 10 11  1  0  0  0  0
 11  9  1  6  0  0  0
 11 17  1  0  0  0  0
 12 17  1  0  0  0  0
 12 18  1  1  0  0  0
 13  8  1  0  0  0  0
 14  7  1  1  0  0  0
 15 13  1  0  0  0  0
 17 16  1  1  0  0  0
 20  4  2  0  0  0  0
 22  4  1  6  0  0  0
 22 12  1  0  0  0  0
 23 18  1  1  0  0  0
 23  8  1  0  0  0  0
 25 24  1  1  0  0  0
 25 14  1  0  0  0  0
 26 27  1  6  0  0  0
 26 25  1  0  0  0  0
 26 24  1  0  0  0  0
 28 29  1  0  0  0  0
 28 27  1  0  0  0  0
 30 28  2  0  0  0  0
 32 31  1  0  0  0  0
M  END
>  <MODEL>
4

>  <REMARK>
 VINA RESULT:      -7.5      2.578      5.339
  Name = 
  4 active torsions:
  status: ('A' for Active; 'I' for Inactive)
    1  A    between atoms: C_7  and  C_19
    2  A    between atoms: C_10  and  C_17
    3  A    between atoms: C_20  and  C_29
    4  A    between atoms: C_29  and  C_30
                            x       y       z     vdW  Elec       q    Type
                         _______ _______ _______ _____ _____    ______ ____

>  <TORSDO>
F 4

$$$$
=
 OpenBabel11112416413D

 32 37  0  0  1  0  0  0  0  0999 V2000
  192.0650  175.1520  144.6890 C   0  0  1  0  0  3  0  0  0  0  0  0
  191.2540  173.6780  140.7440 O   0  0  0  0  0  0  0  0  0  0  0  0
  192.2180  172.6760  140.9580 C   0  0  0  0  0  2  0  0  0  0  0  0
  194.2740  174.2190  145.6620 C   0  0  0  0  0  0  0  0  0  0  0  0
  195.1720  173.0280  145.7620 C   0  0  2  0  0  3  0  0  0  0  0  0
  190.5250  176.3910  146.3300 C   0  0  2  0  0  3  0  0  0  0  0  0
  189.9760  175.8030  143.9990 O   0  0  0  0  0  0  0  0  0  0  0  0
  196.1460  171.2410  144.5330 C   0  0  1  0  0  3  0  0  0  0  0  0
  191.3180  174.5480  141.8490 C   0  0  0  0  0  2  0  0  0  0  0  0
  190.7230  174.7030  144.2840 N   0  0  1  0  0  0  0  0  0  0  0  0
  190.7790  173.8320  143.1010 C   0  0  2  0  0  3  0  0  0  0  0  0
  192.9820  172.9380  143.9690 C   0  0  2  0  0  3  0  0  0  0  0  0
  197.2630  171.9670  145.2930 C   0  0  0  0  0  2  0  0  0  0  0  0
  189.4440  176.2380  145.2320 C   0  0  2  0  0  3  0  0  0  0  0  0
  196.6600  173.2540  145.8680 C   0  0  0  0  0  2  0  0  0  0  0  0
  191.7790  171.7550  142.1020 C   0  0  0  0  0  2  0  0  0  0  0  0
  191.6110  172.5650  143.3930 C   0  0  2  0  0  3  0  0  0  0  0  0
  193.7390  171.7910  144.3100 O   0  0  0  0  0  0  0  0  0  0  0  0
  191.9450  176.2440  145.7690 C   0  0  0  0  0  2  0  0  0  0  0  0
  194.6210  175.3170  146.0690 O   0  0  0  0  0  0  0  0  0  0  0  0
  195.7280  170.1340  145.2760 O   0  0  0  0  0  1  0  0  0  0  0  0
  192.8700  173.9330  145.1560 C   0  0  2  0  0  3  0  0  0  0  0  0
  195.0470  172.2770  144.4680 C   0  0  1  0  0  3  0  0  0  0  0  0
  188.2110  177.6670  143.6160 C   0  0  0  0  0  2  0  0  0  0  0  0
  188.7300  177.5630  145.0350 C   0  0  1  0  0  3  0  0  0  0  0  0
  187.2680  177.2970  144.7400 C   0  0  1  0  0  3  0  0  0  0  0  0
  186.4560  178.5110  145.1450 C   0  0  0  0  0  2  0  0  0  0  0  0
  185.2430  178.6130  144.2880 C   0  0  0  0  0  0  0  0  0  0  0  0
  184.8620  177.5410  143.4920 O   0  0  0  0  0  0  0  0  0  0  0  0
  184.5810  179.6820  144.2590 O   0  0  0  0  0  1  0  0  0  0  0  0
  188.9660  174.6780  147.2630 C   0  0  0  0  0  1  0  0  0  0  0  0
  190.3060  175.3690  147.4340 C   0  0  0  0  0  2  0  0  0  0  0  0
  1 22  1  0  0  0  0
  1 19  1  1  0  0  0
  2  3  1  0  0  0  0
  2  9  1  0  0  0  0
  3 16  1  0  0  0  0
  4  5  1  0  0  0  0
  4 20  2  0  0  0  0
  5 15  1  6  0  0  0
  6 32  1  1  0  0  0
  8 21  1  1  0  0  0
  8 13  1  0  0  0  0
 10  7  1  6  0  0  0
 10  1  1  0  0  0  0
 11  9  1  6  0  0  0
 11 17  1  0  0  0  0
 11 10  1  0  0  0  0
 12 18  1  1  0  0  0
 12 22  1  0  0  0  0
 13 15  1  0  0  0  0
 14  7  1  6  0  0  0
 14  6  1  0  0  0  0
 17 16  1  6  0  0  0
 17 12  1  0  0  0  0
 19  6  1  0  0  0  0
 22  4  1  6  0  0  0
 23 18  1  1  0  0  0
 23  8  1  0  0  0  0
 23  5  1  0  0  0  0
 24 26  1  0  0  0  0
 25 24  1  6  0  0  0
 25 14  1  0  0  0  0
 26 25  1  0  0  0  0
 26 27  1  1  0  0  0
 28 27  1  0  0  0  0
 29 28  2  0  0  0  0
 30 28  1  0  0  0  0
 31 32  1  0  0  0  0
M  END
>  <MODEL>
5

>  <REMARK>
 VINA RESULT:      -7.5      1.853      8.295
  Name = 
  4 active torsions:
  status: ('A' for Active; 'I' for Inactive)
    1  A    between atoms: C_7  and  C_19
    2  A    between atoms: C_10  and  C_17
    3  A    between atoms: C_20  and  C_29
    4  A    between atoms: C_29  and  C_30
                            x       y       z     vdW  Elec       q    Type
                         _______ _______ _______ _____ _____    ______ ____

>  <TORSDO>
F 4

$$$$
=
 OpenBabel11112416413D

 32 37  0  0  1  0  0  0  0  0999 V2000
  191.1170  175.3090  143.5300 C   0  0  1  0  0  3  0  0  0  0  0  0
  193.7080  175.6160  146.9340 O   0  0  0  0  0  0  0  0  0  0  0  0
  194.8070  175.5870  146.0560 C   0  0  0  0  0  2  0  0  0  0  0  0
  192.3690  174.5560  141.3940 C   0  0  0  0  0  0  0  0  0  0  0  0
  193.6370  174.6570  140.6070 C   0  0  2  0  0  3  0  0  0  0  0  0
  188.7200  176.1730  143.2060 C   0  0  2  0  0  3  0  0  0  0  0  0
  190.0020  176.2310  145.3100 O   0  0  0  0  0  0  0  0  0  0  0  0
  196.0080  174.6660  140.7660 C   0  0  1  0  0  3  0  0  0  0  0  0
  192.5600  175.3700  146.1580 C   0  0  0  0  0  2  0  0  0  0  0  0
  191.0460  176.4440  144.4640 N   0  0  1  0  0  0  0  0  0  0  0  0
  192.2850  176.5780  145.2440 C   0  0  2  0  0  3  0  0  0  0  0  0
  193.5540  175.7750  143.2070 C   0  0  2  0  0  3  0  0  0  0  0  0
  195.6020  173.6340  139.7080 C   0  0  0  0  0  2  0  0  0  0  0  0
  188.8600  176.7260  144.6440 C   0  0  2  0  0  3  0  0  0  0  0  0
  194.0810  173.4610  139.8010 C   0  0  0  0  0  2  0  0  0  0  0  0
  194.7840  176.8160  145.1400 C   0  0  0  0  0  2  0  0  0  0  0  0
  193.4920  176.8330  144.3160 C   0  0  2  0  0  3  0  0  0  0  0  0
  194.6120  176.0250  142.3010 O   0  0  0  0  0  0  0  0  0  0  0  0
  189.7280  175.0540  142.9140 C   0  0  0  0  0  2  0  0  0  0  0  0
  191.4970  173.7530  141.1010 O   0  0  0  0  0  0  0  0  0  0  0  0
  196.3230  175.8730  140.1360 O   0  0  0  0  0  1  0  0  0  0  0  0
  192.1940  175.6050  142.4790 C   0  0  2  0  0  3  0  0  0  0  0  0
  194.7540  174.8180  141.5970 C   0  0  1  0  0  3  0  0  0  0  0  0
  187.6030  177.1610  146.7430 C   0  0  0  0  0  2  0  0  0  0  0  0
  187.6190  176.3790  145.4450 C   0  0  1  0  0  3  0  0  0  0  0  0
  186.7530  177.6170  145.5760 C   0  0  1  0  0  3  0  0  0  0  0  0
  185.3160  177.1910  145.7950 C   0  0  0  0  0  2  0  0  0  0  0  0
  184.5110  178.3540  146.2570 C   0  0  0  0  0  0  0  0  0  0  0  0
  184.4520  178.6640  147.6100 O   0  0  0  0  0  1  0  0  0  0  0  0
  183.8570  179.0370  145.4280 O   0  0  0  0  0  0  0  0  0  0  0  0
  187.5530  177.9250  141.8630 C   0  0  0  0  0  1  0  0  0  0  0  0
  188.8910  177.2900  142.1890 C   0  0  0  0  0  2  0  0  0  0  0  0
  1 19  1  6  0  0  0
  1 10  1  0  0  0  0
  3  2  1  0  0  0  0
  5 15  1  1  0  0  0
  5  4  1  0  0  0  0
  5 23  1  0  0  0  0
  6 32  1  6  0  0  0
  6 14  1  0  0  0  0
  8 21  1  6  0  0  0
  8 23  1  0  0  0  0
  9  2  1  0  0  0  0
 10 11  1  0  0  0  0
 10  7  1  1  0  0  0
 11  9  1  6  0  0  0
 12 18  1  6  0  0  0
 12 17  1  0  0  0  0
 13 15  1  0  0  0  0
 13  8  1  0  0  0  0
 14  7  1  1  0  0  0
 14 25  1  0  0  0  0
 16  3  1  0  0  0  0
 17 16  1  1  0  0  0
 17 11  1  0  0  0  0
 19  6  1  0  0  0  0
 20  4  2  0  0  0  0
 22  4  1  6  0  0  0
 22 12  1  0  0  0  0
 22  1  1  0  0  0  0
 23 18  1  6  0  0  0
 25 26  1  0  0  0  0
 25 24  1  1  0  0  0
 26 27  1  1  0  0  0
 26 24  1  0  0  0  0
 27 28  1  0  0  0  0
 28 29  1  0  0  0  0
 30 28  2  0  0  0  0
 31 32  1  0  0  0  0
M  END
>  <MODEL>
6

>  <REMARK>
 VINA RESULT:      -7.4      2.667      8.577
  Name = 
  4 active torsions:
  status: ('A' for Active; 'I' for Inactive)
    1  A    between atoms: C_7  and  C_19
    2  A    between atoms: C_10  and  C_17
    3  A    between atoms: C_20  and  C_29
    4  A    between atoms: C_29  and  C_30
                            x       y       z     vdW  Elec       q    Type
                         _______ _______ _______ _____ _____    ______ ____

>  <TORSDO>
F 4

$$$$
=
 OpenBabel11112416413D

 32 37  0  0  1  0  0  0  0  0999 V2000
  190.0760  175.2670  144.9670 C   0  0  1  0  0  3  0  0  0  0  0  0
  188.8670  175.1010  140.8560 O   0  0  0  0  0  0  0  0  0  0  0  0
  187.7980  175.9590  141.1720 C   0  0  0  0  0  2  0  0  0  0  0  0
  188.2200  176.2010  146.5110 C   0  0  0  0  0  0  0  0  0  0  0  0
  187.1080  177.1930  146.6430 C   0  0  2  0  0  3  0  0  0  0  0  0
  192.4140  175.0310  146.0040 C   0  0  2  0  0  3  0  0  0  0  0  0
  191.8460  174.6860  143.6300 O   0  0  0  0  0  0  0  0  0  0  0  0
  185.2540  178.1700  145.5220 C   0  0  1  0  0  3  0  0  0  0  0  0
  189.4860  174.7570  142.0720 C   0  0  0  0  0  2  0  0  0  0  0  0
  190.9650  175.6930  143.8750 N   0  0  1  0  0  0  0  0  0  0  0  0
  190.2100  175.9880  142.6490 C   0  0  2  0  0  3  0  0  0  0  0  0
  188.3320  176.8450  144.1130 C   0  0  2  0  0  3  0  0  0  0  0  0
  184.7790  177.6700  146.8910 C   0  0  0  0  0  2  0  0  0  0  0  0
  192.9050  174.8700  144.5460 C   0  0  2  0  0  3  0  0  0  0  0  0
  185.9130  176.8260  147.4860 C   0  0  0  0  0  2  0  0  0  0  0  0
  188.3310  177.3170  141.6420 C   0  0  0  0  0  2  0  0  0  0  0  0
  189.2060  177.1370  142.8870 C   0  0  2  0  0  3  0  0  0  0  0  0
  187.4490  177.9150  144.3950 O   0  0  0  0  0  0  0  0  0  0  0  0
  190.9150  174.7380  146.1470 C   0  0  0  0  0  2  0  0  0  0  0  0
  188.4000  175.3280  147.3460 O   0  0  0  0  0  0  0  0  0  0  0  0
  185.5630  179.5290  145.6090 O   0  0  0  0  0  1  0  0  0  0  0  0
  189.1740  176.4460  145.3540 C   0  0  2  0  0  3  0  0  0  0  0  0
  186.5070  177.3600  145.2770 C   0  0  1  0  0  3  0  0  0  0  0  0
  193.8530  172.9210  145.7620 C   0  0  0  0  0  2  0  0  0  0  0  0
  193.8590  173.6930  144.4580 C   0  0  1  0  0  3  0  0  0  0  0  0
  193.0670  172.4050  144.5750 C   0  0  1  0  0  3  0  0  0  0  0  0
  193.8390  171.2900  143.8990 C   0  0  0  0  0  2  0  0  0  0  0  0
  193.4510  169.9810  144.4890 C   0  0  0  0  0  0  0  0  0  0  0  0
  194.1960  169.4380  145.5280 O   0  0  0  0  0  1  0  0  0  0  0  0
  192.4680  169.3470  144.0250 O   0  0  0  0  0  0  0  0  0  0  0  0
  194.2030  176.6970  146.5130 C   0  0  0  0  0  1  0  0  0  0  0  0
  192.7090  176.4340  146.5110 C   0  0  0  0  0  2  0  0  0  0  0  0
  1 22  1  0  0  0  0
  1 19  1  1  0  0  0
  2  3  1  0  0  0  0
  2  9  1  0  0  0  0
  3 16  1  0  0  0  0
  4  5  1  0  0  0  0
  4 20  2  0  0  0  0
  5 15  1  1  0  0  0
  6 19  1  0  0  0  0
  6 32  1  6  0  0  0
  8 21  1  1  0  0  0
  8 13  1  0  0  0  0
 10  7  1  6  0  0  0
 10  1  1  0  0  0  0
 11  9  1  1  0  0  0
 11 17  1  0  0  0  0
 11 10  1  0  0  0  0
 12 18  1  1  0  0  0
 12 22  1  0  0  0  0
 13 15  1  0  0  0  0
 14  7  1  6  0  0  0
 14  6  1  0  0  0  0
 17 16  1  6  0  0  0
 17 12  1  0  0  0  0
 22  4  1  1  0  0  0
 23 18  1  6  0  0  0
 23  8  1  0  0  0  0
 23  5  1  0  0  0  0
 25 14  1  0  0  0  0
 25 26  1  0  0  0  0
 25 24  1  1  0  0  0
 26 27  1  6  0  0  0
 26 24  1  0  0  0  0
 27 28  1  0  0  0  0
 28 29  1  0  0  0  0
 30 28  2  0  0  0  0
 32 31  1  0  0  0  0
M  END
>  <MODEL>
7

>  <REMARK>
 VINA RESULT:      -7.4      1.704      2.184
  Name = 
  4 active torsions:
  status: ('A' for Active; 'I' for Inactive)
    1  A    between atoms: C_7  and  C_19
    2  A    between atoms: C_10  and  C_17
    3  A    between atoms: C_20  and  C_29
    4  A    between atoms: C_29  and  C_30
                            x       y       z     vdW  Elec       q    Type
                         _______ _______ _______ _____ _____    ______ ____

>  <TORSDO>
F 4

$$$$
=
 OpenBabel11112416413D

 32 37  0  0  1  0  0  0  0  0999 V2000
  189.7420  175.8160  143.6020 C   0  0  1  0  0  3  0  0  0  0  0  0
  192.7770  176.0710  146.6210 O   0  0  0  0  0  0  0  0  0  0  0  0
  191.7930  176.5090  147.5250 C   0  0  0  0  0  2  0  0  0  0  0  0
  187.5840  177.0860  144.2560 C   0  0  0  0  0  0  0  0  0  0  0  0
  186.6540  177.4470  145.3700 C   0  0  2  0  0  3  0  0  0  0  0  0
  189.5860  174.2750  141.5530 C   0  0  2  0  0  3  0  0  0  0  0  0
  191.5140  174.4570  143.0790 O   0  0  0  0  0  0  0  0  0  0  0  0
  186.5470  178.1660  147.6330 C   0  0  1  0  0  3  0  0  0  0  0  0
  192.1680  176.0060  145.3540 C   0  0  0  0  0  2  0  0  0  0  0  0
  190.5390  174.6480  144.0080 N   0  0  1  0  0  0  0  0  0  0  0  0
  191.1550  174.8470  145.3280 C   0  0  2  0  0  3  0  0  0  0  0  0
  189.0980  176.1610  145.9950 C   0  0  2  0  0  3  0  0  0  0  0  0
  185.6690  179.0980  146.7910 C   0  0  0  0  0  2  0  0  0  0  0  0
  190.9250  173.6840  142.0560 C   0  0  2  0  0  3  0  0  0  0  0  0
  185.9500  178.7800  145.3170 C   0  0  0  0  0  2  0  0  0  0  0  0
  190.7470  175.4100  147.7420 C   0  0  0  0  0  2  0  0  0  0  0  0
  190.0750  175.0540  146.4110 C   0  0  2  0  0  3  0  0  0  0  0  0
  188.0570  176.3250  146.9400 O   0  0  0  0  0  0  0  0  0  0  0  0
  189.3180  175.6720  142.1280 C   0  0  0  0  0  2  0  0  0  0  0  0
  187.4850  177.5970  143.1500 O   0  0  0  0  0  0  0  0  0  0  0  0
  185.7490  177.1710  148.2020 O   0  0  0  0  0  1  0  0  0  0  0  0
  188.5500  175.9540  144.5580 C   0  0  2  0  0  3  0  0  0  0  0  0
  187.4880  177.5670  146.6130 C   0  0  1  0  0  3  0  0  0  0  0  0
  193.2170  173.0020  141.3770 C   0  0  0  0  0  2  0  0  0  0  0  0
  191.8940  173.5620  140.8940 C   0  0  1  0  0  3  0  0  0  0  0  0
  192.2240  172.0990  140.6760 C   0  0  1  0  0  3  0  0  0  0  0  0
  192.6460  171.9000  139.2350 C   0  0  0  0  0  2  0  0  0  0  0  0
  193.4540  170.6560  139.1150 C   0  0  0  0  0  0  0  0  0  0  0  0
  192.9730  169.4610  139.6350 O   0  0  0  0  0  1  0  0  0  0  0  0
  194.5890  170.6910  138.5720 O   0  0  0  0  0  0  0  0  0  0  0  0
  188.9470  172.0840  142.5660 C   0  0  0  0  0  1  0  0  0  0  0  0
  188.4330  173.3500  141.9060 C   0  0  0  0  0  2  0  0  0  0  0  0
  1 19  1  6  0  0  0
  1 10  1  0  0  0  0
  1 22  1  0  0  0  0
  2  3  1  0  0  0  0
  3 16  1  0  0  0  0
  4  5  1  0  0  0  0
  5 15  1  6  0  0  0
  5 23  1  0  0  0  0
  6 32  1  1  0  0  0
  6 14  1  0  0  0  0
  6 19  1  0  0  0  0
  8 21  1  6  0  0  0
  9  2  1  0  0  0  0
 10  7  1  6  0  0  0
 10 11  1  0  0  0  0
 11  9  1  6  0  0  0
 11 17  1  0  0  0  0
 12 17  1  0  0  0  0
 12 18  1  1  0  0  0
 13  8  1  0  0  0  0
 14  7  1  1  0  0  0
 15 13  1  0  0  0  0
 17 16  1  1  0  0  0
 20  4  2  0  0  0  0
 22  4  1  6  0  0  0
 22 12  1  0  0  0  0
 23 18  1  1  0  0  0
 23  8  1  0  0  0  0
 25 24  1  1  0  0  0
 25 14  1  0  0  0  0
 26 27  1  6  0  0  0
 26 25  1  0  0  0  0
 26 24  1  0  0  0  0
 28 27  1  0  0  0  0
 28 29  1  0  0  0  0
 30 28  2  0  0  0  0
 32 31  1  0  0  0  0
M  END
>  <MODEL>
8

>  <REMARK>
 VINA RESULT:      -7.2      2.761      4.953
  Name = 
  4 active torsions:
  status: ('A' for Active; 'I' for Inactive)
    1  A    between atoms: C_7  and  C_19
    2  A    between atoms: C_10  and  C_17
    3  A    between atoms: C_20  and  C_29
    4  A    between atoms: C_29  and  C_30
                            x       y       z     vdW  Elec       q    Type
                         _______ _______ _______ _____ _____    ______ ____

>  <TORSDO>
F 4

$$$$
=
 OpenBabel11112416413D

 32 37  0  0  1  0  0  0  0  0999 V2000
  188.4730  176.6580  144.5490 C   0  0  1  0  0  3  0  0  0  0  0  0
  186.6850  178.7380  147.8460 O   0  0  0  0  0  0  0  0  0  0  0  0
  185.5510  178.9620  147.0450 C   0  0  0  0  0  2  0  0  0  0  0  0
  187.2600  177.1180  142.3100 C   0  0  0  0  0  0  0  0  0  0  0  0
  185.9390  177.3420  141.6450 C   0  0  2  0  0  3  0  0  0  0  0  0
  190.1910  174.7490  144.5470 C   0  0  2  0  0  3  0  0  0  0  0  0
  189.4250  175.9990  146.5290 O   0  0  0  0  0  0  0  0  0  0  0  0
  183.8520  178.4640  141.8350 C   0  0  1  0  0  3  0  0  0  0  0  0
  187.6620  178.1560  147.0160 C   0  0  0  0  0  2  0  0  0  0  0  0
  188.2460  176.0090  145.8510 N   0  0  1  0  0  0  0  0  0  0  0  0
  187.2350  176.7250  146.6420 C   0  0  2  0  0  3  0  0  0  0  0  0
  186.0480  177.2690  144.4740 C   0  0  2  0  0  3  0  0  0  0  0  0
  184.4380  178.7690  140.4520 C   0  0  0  0  0  2  0  0  0  0  0  0
  190.1120  174.8460  146.0900 C   0  0  2  0  0  3  0  0  0  0  0  0
  185.8820  178.2530  140.4450 C   0  0  0  0  0  2  0  0  0  0  0  0
  184.8910  177.6270  146.6800 C   0  0  0  0  0  2  0  0  0  0  0  0
  185.8780  176.7470  145.9060 C   0  0  2  0  0  3  0  0  0  0  0  0
  184.8290  177.2340  143.7550 O   0  0  0  0  0  0  0  0  0  0  0  0
  189.6980  176.0280  143.8590 C   0  0  0  0  0  2  0  0  0  0  0  0
  188.3120  177.2840  141.7120 O   0  0  0  0  0  0  0  0  0  0  0  0
  182.9550  177.3980  141.7310 O   0  0  0  0  0  1  0  0  0  0  0  0
  187.1910  176.5440  143.7150 C   0  0  2  0  0  3  0  0  0  0  0  0
  185.0650  178.0530  142.6380 C   0  0  1  0  0  3  0  0  0  0  0  0
  192.4860  174.2370  145.6790 C   0  0  0  0  0  2  0  0  0  0  0  0
  191.5140  174.8420  146.6710 C   0  0  1  0  0  3  0  0  0  0  0  0
  192.4000  175.7400  145.8320 C   0  0  1  0  0  3  0  0  0  0  0  0
  193.5510  176.2310  146.6870 C   0  0  0  0  0  2  0  0  0  0  0  0
  194.6310  176.7680  145.8150 C   0  0  0  0  0  0  0  0  0  0  0  0
  195.4130  175.9010  145.0620 O   0  0  0  0  0  0  0  0  0  0  0  0
  194.8600  178.0050  145.7840 O   0  0  0  0  0  1  0  0  0  0  0  0
  189.2430  173.6060  142.5400 C   0  0  0  0  0  1  0  0  0  0  0  0
  189.3840  173.5600  144.0500 C   0  0  0  0  0  2  0  0  0  0  0  0
  1 19  1  6  0  0  0
  1 10  1  0  0  0  0
  3  2  1  0  0  0  0
  5 15  1  6  0  0  0
  5  4  1  0  0  0  0
  5 23  1  0  0  0  0
  6 32  1  6  0  0  0
  6 14  1  0  0  0  0
  8 21  1  6  0  0  0
  8 23  1  0  0  0  0
  9  2  1  0  0  0  0
 10  7  1  1  0  0  0
 10 11  1  0  0  0  0
 11  9  1  6  0  0  0
 12 18  1  6  0  0  0
 12 17  1  0  0  0  0
 13  8  1  0  0  0  0
 14  7  1  6  0  0  0
 14 25  1  0  0  0  0
 15 13  1  0  0  0  0
 16  3  1  0  0  0  0
 17 11  1  0  0  0  0
 17 16  1  1  0  0  0
 19  6  1  0  0  0  0
 20  4  2  0  0  0  0
 22  4  1  6  0  0  0
 22 12  1  0  0  0  0
 22  1  1  0  0  0  0
 23 18  1  1  0  0  0
 24 26  1  0  0  0  0
 25 24  1  6  0  0  0
 26 25  1  0  0  0  0
 26 27  1  1  0  0  0
 28 27  1  0  0  0  0
 29 28  2  0  0  0  0
 30 28  1  0  0  0  0
 31 32  1  0  0  0  0
M  END
>  <MODEL>
9

>  <REMARK>
 VINA RESULT:      -7.1      2.208      4.397
  Name = 
  4 active torsions:
  status: ('A' for Active; 'I' for Inactive)
    1  A    between atoms: C_7  and  C_19
    2  A    between atoms: C_10  and  C_17
    3  A    between atoms: C_20  and  C_29
    4  A    between atoms: C_29  and  C_30
                            x       y       z     vdW  Elec       q    Type
                         _______ _______ _______ _____ _____    ______ ____

>  <TORSDO>
F 4

$$$$
