=
 OpenBabel11112416323D

 32 37  0  0  1  0  0  0  0  0999 V2000
  186.5990  177.1960  146.2980 C   0  0  0  0  0  2  0  0  0  0  0  0
  191.9600  176.4000  144.4420 C   0  0  1  0  0  3  0  0  0  0  0  0
  189.4700  173.1700  141.7170 C   0  0  0  0  0  2  0  0  0  0  0  0
  190.6390  172.4300  141.4420 O   0  0  0  0  0  0  0  0  0  0  0  0
  194.1510  175.5660  145.4200 C   0  0  0  0  0  0  0  0  0  0  0  0
  195.1020  174.5530  145.5080 C   0  0  0  0  0  0  0  0  0  0  0  0
  189.9320  177.3130  145.6100 C   0  0  1  0  0  3  0  0  0  0  0  0
  189.9620  177.2130  143.1170 C   0  0  0  0  0  2  0  0  0  0  0  0
  196.1390  172.5110  145.0290 C   0  0  1  0  0  3  0  0  0  0  0  0
  187.8810  177.9680  144.2690 C   0  0  0  0  0  2  0  0  0  0  0  0
  189.8150  174.6550  141.8720 C   0  0  0  0  0  2  0  0  0  0  0  0
  191.1440  176.2240  143.1410 C   0  0  2  0  0  3  0  0  0  0  0  0
  190.7210  174.8190  143.0130 N   0  0  2  0  0  0  0  0  0  0  0  0
  192.9790  174.1640  143.7950 C   0  0  0  0  0  0  0  0  0  0  0  0
  196.9610  173.3170  146.0620 C   0  0  0  0  0  2  0  0  0  0  0  0
  187.8360  176.0400  146.9730 S   0  0  0  0  0  0  0  0  0  0  0  0
  189.0900  177.0510  144.3550 C   0  0  2  0  0  3  0  0  0  0  0  0
  196.2420  174.5330  146.2810 O   0  0  0  0  0  0  0  0  0  0  0  0
  189.1390  177.3160  146.9200 C   0  0  0  0  0  2  0  0  0  0  0  0
  186.6420  177.2360  144.7720 C   0  0  2  0  0  3  0  0  0  0  0  0
  191.4850  172.5400  142.5630 C   0  0  0  0  0  2  0  0  0  0  0  0
  191.9160  174.0030  142.7370 C   0  0  1  0  0  3  0  0  0  0  0  0
  193.9620  173.2210  143.9130 N   0  0  0  0  0  0  0  0  0  0  0  0
  191.0620  176.2940  145.6810 C   0  0  0  0  0  2  0  0  0  0  0  0
  194.3060  176.8090  146.2320 C   0  0  0  0  0  1  0  0  0  0  0  0
  195.6550  171.2210  145.6640 C   0  0  0  0  0  1  0  0  0  0  0  0
  193.0600  175.3730  144.5410 C   0  0  0  0  0  0  0  0  0  0  0  0
  194.9890  173.4150  144.7770 C   0  0  0  0  0  0  0  0  0  0  0  0
  185.4570  177.9130  144.2690 N   0  0  0  0  0  2  0  0  0  0  0  0
  184.9580  177.7120  142.9440 C   0  0  0  0  0  0  0  0  0  0  0  0
  185.5560  176.9450  142.1450 O   0  0  0  0  0  0  0  0  0  0  0  0
  183.7810  178.3900  142.5260 N   0  0  0  0  0  1  0  0  0  0  0  0
  1 16  1  0  0  0  0
  2 27  1  0  0  0  0
  2 24  1  1  0  0  0
  3 11  1  0  0  0  0
  4  3  1  0  0  0  0
  4 21  1  0  0  0  0
  5  6  1  0  0  0  0
  5 25  1  0  0  0  0
  6 18  1  0  0  0  0
  7 24  1  1  0  0  0
  7 19  1  0  0  0  0
  9 26  1  1  0  0  0
  9 15  1  0  0  0  0
 10 17  1  0  0  0  0
 10 20  1  0  0  0  0
 12  8  1  1  0  0  0
 12  2  1  0  0  0  0
 13 11  1  6  0  0  0
 13 12  1  0  0  0  0
 14 23  2  0  0  0  0
 14 27  1  0  0  0  0
 15 18  1  0  0  0  0
 17  8  1  6  0  0  0
 17  7  1  0  0  0  0
 19 16  1  0  0  0  0
 20 29  1  1  0  0  0
 20  1  1  0  0  0  0
 22 21  1  1  0  0  0
 22 13  1  0  0  0  0
 22 14  1  0  0  0  0
 23 28  1  0  0  0  0
 27  5  2  0  0  0  0
 28  9  1  0  0  0  0
 28  6  2  0  0  0  0
 30 29  1  0  0  0  0
 31 30  2  0  0  0  0
 32 30  1  0  0  0  0
M  END
>  <MODEL>
1

>  <REMARK>
 VINA RESULT:      -8.8      0.000      0.000
  Name = 
  1 active torsions:
  status: ('A' for Active; 'I' for Inactive)
    1  A    between atoms: C_20  and  N_29
                            x       y       z     vdW  Elec       q    Type
                         _______ _______ _______ _____ _____    ______ ____

>  <TORSDO>
F 1

$$$$
=
 OpenBabel11112416323D

 32 37  0  0  1  0  0  0  0  0999 V2000
  191.8730  171.5180  142.0480 C   0  0  0  0  0  2  0  0  0  0  0  0
  189.4560  176.6770  142.6550 C   0  0  1  0  0  3  0  0  0  0  0  0
  191.6360  176.0770  147.0080 C   0  0  0  0  0  2  0  0  0  0  0  0
  190.8040  177.0450  147.6100 O   0  0  0  0  0  0  0  0  0  0  0  0
  187.0970  177.6180  142.7190 C   0  0  0  0  0  0  0  0  0  0  0  0
  186.0530  178.1540  143.4670 C   0  0  0  0  0  0  0  0  0  0  0  0
  190.2880  174.5100  141.6910 C   0  0  1  0  0  3  0  0  0  0  0  0
  191.9200  176.1000  142.7100 C   0  0  0  0  0  2  0  0  0  0  0  0
  184.9470  178.9780  145.3570 C   0  0  1  0  0  3  0  0  0  0  0  0
  192.7360  173.8820  141.9060 C   0  0  0  0  0  2  0  0  0  0  0  0
  191.8810  176.4380  145.5390 C   0  0  0  0  0  2  0  0  0  0  0  0
  190.7830  176.8550  143.4260 C   0  0  2  0  0  3  0  0  0  0  0  0
  190.6000  176.4280  144.8240 N   0  0  2  0  0  0  0  0  0  0  0  0
  188.4000  177.5670  144.7870 C   0  0  0  0  0  0  0  0  0  0  0  0
  184.0380  179.0570  144.1090 C   0  0  0  0  0  2  0  0  0  0  0  0
  190.1970  171.8820  142.6650 S   0  0  0  0  0  0  0  0  0  0  0  0
  191.5680  174.6290  142.5280 C   0  0  2  0  0  3  0  0  0  0  0  0
  184.8050  178.5310  143.0230 O   0  0  0  0  0  0  0  0  0  0  0  0
  189.9010  173.0770  141.3190 C   0  0  0  0  0  2  0  0  0  0  0  0
  192.8950  172.5230  142.5750 C   0  0  2  0  0  3  0  0  0  0  0  0
  189.5550  176.9940  146.9610 C   0  0  0  0  0  2  0  0  0  0  0  0
  189.7240  177.4060  145.4920 C   0  0  1  0  0  3  0  0  0  0  0  0
  187.3430  178.1180  145.4560 N   0  0  0  0  0  0  0  0  0  0  0  0
  189.1410  175.1930  142.4240 C   0  0  0  0  0  2  0  0  0  0  0  0
  186.9240  177.3860  141.2540 C   0  0  0  0  0  1  0  0  0  0  0  0
  184.3280  178.0360  146.3730 C   0  0  0  0  0  1  0  0  0  0  0  0
  188.3060  177.3170  143.3900 C   0  0  0  0  0  0  0  0  0  0  0  0
  186.1850  178.3800  144.7990 C   0  0  0  0  0  0  0  0  0  0  0  0
  194.2400  172.0270  142.3240 N   0  0  0  0  0  2  0  0  0  0  0  0
  195.3230  172.2440  143.2310 C   0  0  0  0  0  0  0  0  0  0  0  0
  195.1510  172.9070  144.2880 O   0  0  0  0  0  0  0  0  0  0  0  0
  196.6070  171.7120  142.9340 N   0  0  0  0  0  1  0  0  0  0  0  0
  1 20  1  0  0  0  0
  1 16  1  0  0  0  0
  2 24  1  1  0  0  0
  2 27  1  0  0  0  0
  2 12  1  0  0  0  0
  3  4  1  0  0  0  0
  5 27  2  0  0  0  0
  5  6  1  0  0  0  0
  6 28  2  0  0  0  0
  7 19  1  1  0  0  0
  7 24  1  0  0  0  0
  7 17  1  0  0  0  0
  9 26  1  1  0  0  0
 10 20  1  0  0  0  0
 11  3  1  0  0  0  0
 12  8  1  6  0  0  0
 12 13  1  0  0  0  0
 13 22  1  0  0  0  0
 13 11  1  1  0  0  0
 14 23  2  0  0  0  0
 14 22  1  0  0  0  0
 15  9  1  0  0  0  0
 17 10  1  6  0  0  0
 17  8  1  0  0  0  0
 18  6  1  0  0  0  0
 18 15  1  0  0  0  0
 19 16  1  0  0  0  0
 20 29  1  6  0  0  0
 21  4  1  0  0  0  0
 22 21  1  1  0  0  0
 25  5  1  0  0  0  0
 27 14  1  0  0  0  0
 28  9  1  0  0  0  0
 28 23  1  0  0  0  0
 29 30  1  0  0  0  0
 30 31  2  0  0  0  0
 32 30  1  0  0  0  0
M  END
>  <MODEL>
2

>  <REMARK>
 VINA RESULT:      -8.5      2.436      8.473
  Name = 
  1 active torsions:
  status: ('A' for Active; 'I' for Inactive)
    1  A    between atoms: C_20  and  N_29
                            x       y       z     vdW  Elec       q    Type
                         _______ _______ _______ _____ _____    ______ ____

>  <TORSDO>
F 1

$$$$
=
 OpenBabel11112416323D

 32 37  0  0  1  0  0  0  0  0999 V2000
  195.0140  175.5380  145.5740 C   0  0  0  0  0  2  0  0  0  0  0  0
  189.3300  174.9480  145.1820 C   0  0  1  0  0  3  0  0  0  0  0  0
  190.7980  173.4250  140.7580 C   0  0  0  0  0  2  0  0  0  0  0  0
  189.5190  173.6420  140.2060 O   0  0  0  0  0  0  0  0  0  0  0  0
  187.3050  176.4830  145.2080 C   0  0  0  0  0  0  0  0  0  0  0  0
  186.2790  177.1060  144.5030 C   0  0  0  0  0  0  0  0  0  0  0  0
  191.6500  175.3480  146.0600 C   0  0  1  0  0  3  0  0  0  0  0  0
  191.0920  173.1370  145.0450 C   0  0  0  0  0  2  0  0  0  0  0  0
  184.9300  177.6420  142.6680 C   0  0  1  0  0  3  0  0  0  0  0  0
  193.4420  173.5770  145.7630 C   0  0  0  0  0  2  0  0  0  0  0  0
  190.6730  173.0180  142.2290 C   0  0  0  0  0  2  0  0  0  0  0  0
  189.8310  173.7260  144.3810 C   0  0  2  0  0  3  0  0  0  0  0  0
  190.0480  174.1140  142.9780 N   0  0  2  0  0  0  0  0  0  0  0  0
  187.9400  175.4090  143.1050 C   0  0  0  0  0  0  0  0  0  0  0  0
  184.4410  178.3700  143.9410 C   0  0  0  0  0  2  0  0  0  0  0  0
  193.8150  176.7900  145.0130 S   0  0  0  0  0  0  0  0  0  0  0  0
  192.1760  174.1970  145.1930 C   0  0  2  0  0  3  0  0  0  0  0  0
  185.3290  177.9770  144.9910 O   0  0  0  0  0  0  0  0  0  0  0  0
  192.6910  176.4170  146.4000 C   0  0  0  0  0  2  0  0  0  0  0  0
  194.6610  174.1480  145.0500 C   0  0  2  0  0  3  0  0  0  0  0  0
  188.9430  174.7330  140.8860 C   0  0  0  0  0  2  0  0  0  0  0  0
  188.7340  174.3640  142.3610 C   0  0  1  0  0  3  0  0  0  0  0  0
  186.8970  176.0350  142.4810 N   0  0  0  0  0  0  0  0  0  0  0  0
  190.4450  175.9830  145.3770 C   0  0  0  0  0  2  0  0  0  0  0  0
  187.4700  176.7400  146.6690 C   0  0  0  0  0  1  0  0  0  0  0  0
  185.3780  178.6660  141.6420 C   0  0  0  0  0  1  0  0  0  0  0  0
  188.1600  175.6090  144.4960 C   0  0  0  0  0  0  0  0  0  0  0  0
  186.1020  176.8860  143.1750 C   0  0  0  0  0  0  0  0  0  0  0  0
  195.7890  173.2510  145.2510 N   0  0  0  0  0  2  0  0  0  0  0  0
  196.7910  173.0380  144.2540 C   0  0  0  0  0  0  0  0  0  0  0  0
  196.7170  173.6140  143.1370 O   0  0  0  0  0  0  0  0  0  0  0  0
  197.8790  172.1640  144.5270 N   0  0  0  0  0  1  0  0  0  0  0  0
  2 24  1  6  0  0  0
  3 11  1  0  0  0  0
  4  3  1  0  0  0  0
  4 21  1  0  0  0  0
  5 25  1  0  0  0  0
  6 18  1  0  0  0  0
  6  5  1  0  0  0  0
  7 24  1  6  0  0  0
  7 19  1  0  0  0  0
  9 26  1  6  0  0  0
  9 28  1  0  0  0  0
  9 15  1  0  0  0  0
 12  8  1  1  0  0  0
 12  2  1  0  0  0  0
 13 11  1  6  0  0  0
 13 12  1  0  0  0  0
 14 27  1  0  0  0  0
 15 18  1  0  0  0  0
 16  1  1  0  0  0  0
 16 19  1  0  0  0  0
 17  8  1  1  0  0  0
 17 10  1  0  0  0  0
 17  7  1  0  0  0  0
 20 29  1  1  0  0  0
 20  1  1  0  0  0  0
 20 10  1  0  0  0  0
 22 21  1  6  0  0  0
 22 13  1  0  0  0  0
 22 14  1  0  0  0  0
 23 14  2  0  0  0  0
 23 28  1  0  0  0  0
 27  2  1  0  0  0  0
 27  5  2  0  0  0  0
 28  6  2  0  0  0  0
 30 32  1  0  0  0  0
 30 29  1  0  0  0  0
 31 30  2  0  0  0  0
M  END
>  <MODEL>
3

>  <REMARK>
 VINA RESULT:      -8.3      2.184      8.038
  Name = 
  1 active torsions:
  status: ('A' for Active; 'I' for Inactive)
    1  A    between atoms: C_20  and  N_29
                            x       y       z     vdW  Elec       q    Type
                         _______ _______ _______ _____ _____    ______ ____

>  <TORSDO>
F 1

$$$$
=
 OpenBabel11112416323D

 32 37  0  0  1  0  0  0  0  0999 V2000
  187.5610  177.0990  146.6550 C   0  0  0  0  0  2  0  0  0  0  0  0
  192.5610  175.3420  144.4820 C   0  0  1  0  0  3  0  0  0  0  0  0
  189.3590  172.6610  141.9100 C   0  0  0  0  0  2  0  0  0  0  0  0
  190.3520  171.7190  141.5670 O   0  0  0  0  0  0  0  0  0  0  0  0
  194.6130  174.1050  145.3270 C   0  0  0  0  0  0  0  0  0  0  0  0
  195.3630  172.9330  145.3590 C   0  0  0  0  0  0  0  0  0  0  0  0
  190.8110  176.6020  145.7690 C   0  0  1  0  0  3  0  0  0  0  0  0
  190.6760  176.5260  143.2790 C   0  0  0  0  0  2  0  0  0  0  0  0
  195.9720  170.7390  144.8180 C   0  0  1  0  0  3  0  0  0  0  0  0
  188.8420  177.6420  144.5530 C   0  0  0  0  0  2  0  0  0  0  0  0
  189.9820  174.0540  142.0450 C   0  0  0  0  0  2  0  0  0  0  0  0
  191.6520  175.3350  143.2320 C   0  0  2  0  0  3  0  0  0  0  0  0
  190.9690  174.0350  143.1300 N   0  0  2  0  0  0  0  0  0  0  0  0
  193.1070  172.9630  143.7760 C   0  0  0  0  0  0  0  0  0  0  0  0
  196.9890  171.3670  145.8000 C   0  0  0  0  0  2  0  0  0  0  0  0
  188.5990  175.7260  147.2540 S   0  0  0  0  0  0  0  0  0  0  0  0
  189.8620  176.5150  144.5670 C   0  0  2  0  0  3  0  0  0  0  0  0
  196.5230  172.6930  146.0620 O   0  0  0  0  0  0  0  0  0  0  0  0
  190.1100  176.7380  147.1240 C   0  0  0  0  0  2  0  0  0  0  0  0
  187.5210  177.1470  145.1290 C   0  0  2  0  0  3  0  0  0  0  0  0
  191.2680  171.6590  142.6350 C   0  0  0  0  0  2  0  0  0  0  0  0
  191.9730  173.0140  142.7830 C   0  0  1  0  0  3  0  0  0  0  0  0
  193.9030  171.8530  143.8340 N   0  0  0  0  0  0  0  0  0  0  0  0
  191.7340  175.3910  145.7730 C   0  0  0  0  0  2  0  0  0  0  0  0
  195.0440  175.2890  146.1280 C   0  0  0  0  0  1  0  0  0  0  0  0
  195.2950  169.5550  145.4820 C   0  0  0  0  0  1  0  0  0  0  0  0
  193.4550  174.1280  144.5150 C   0  0  0  0  0  0  0  0  0  0  0  0
  194.9980  171.8430  144.6350 C   0  0  0  0  0  0  0  0  0  0  0  0
  186.4540  178.0380  144.6970 N   0  0  0  0  0  2  0  0  0  0  0  0
  185.4990  177.6700  143.7000 C   0  0  0  0  0  0  0  0  0  0  0  0
  185.5650  176.5480  143.1320 O   0  0  0  0  0  0  0  0  0  0  0  0
  184.4690  178.5820  143.3430 N   0  0  0  0  0  1  0  0  0  0  0  0
  1 16  1  0  0  0  0
  2 27  1  0  0  0  0
  2 24  1  1  0  0  0
  3 11  1  0  0  0  0
  4  3  1  0  0  0  0
  4 21  1  0  0  0  0
  5  6  1  0  0  0  0
  5 25  1  0  0  0  0
  6 18  1  0  0  0  0
  7 24  1  1  0  0  0
  7 19  1  0  0  0  0
  9 26  1  1  0  0  0
  9 15  1  0  0  0  0
 10 17  1  0  0  0  0
 10 20  1  0  0  0  0
 12  8  1  1  0  0  0
 12  2  1  0  0  0  0
 13 11  1  6  0  0  0
 13 12  1  0  0  0  0
 14 23  2  0  0  0  0
 14 27  1  0  0  0  0
 15 18  1  0  0  0  0
 17  8  1  6  0  0  0
 17  7  1  0  0  0  0
 19 16  1  0  0  0  0
 20 29  1  1  0  0  0
 20  1  1  0  0  0  0
 22 21  1  1  0  0  0
 22 13  1  0  0  0  0
 22 14  1  0  0  0  0
 23 28  1  0  0  0  0
 27  5  2  0  0  0  0
 28  9  1  0  0  0  0
 28  6  2  0  0  0  0
 30 29  1  0  0  0  0
 31 30  2  0  0  0  0
 32 30  1  0  0  0  0
M  END
>  <MODEL>
4

>  <REMARK>
 VINA RESULT:      -8.0      1.042      1.243
  Name = 
  1 active torsions:
  status: ('A' for Active; 'I' for Inactive)
    1  A    between atoms: C_20  and  N_29
                            x       y       z     vdW  Elec       q    Type
                         _______ _______ _______ _____ _____    ______ ____

>  <TORSDO>
F 1

$$$$
=
 OpenBabel11112416323D

 32 37  0  0  1  0  0  0  0  0999 V2000
  187.0760  176.5820  146.8780 C   0  0  0  0  0  2  0  0  0  0  0  0
  192.0270  176.6900  143.9990 C   0  0  1  0  0  3  0  0  0  0  0  0
  189.4220  173.4620  141.3820 C   0  0  0  0  0  2  0  0  0  0  0  0
  190.5880  172.9130  140.8100 O   0  0  0  0  0  0  0  0  0  0  0  0
  194.4440  176.0530  144.4530 C   0  0  0  0  0  0  0  0  0  0  0  0
  195.4990  175.1700  144.2390 C   0  0  0  0  0  0  0  0  0  0  0  0
  190.1780  177.2040  145.6200 C   0  0  1  0  0  3  0  0  0  0  0  0
  189.7340  177.3680  143.1700 C   0  0  0  0  0  2  0  0  0  0  0  0
  196.6380  173.3410  143.3270 C   0  0  1  0  0  3  0  0  0  0  0  0
  187.8460  177.7210  144.7650 C   0  0  0  0  0  2  0  0  0  0  0  0
  189.6260  174.9550  141.6590 C   0  0  0  0  0  2  0  0  0  0  0  0
  190.9980  176.5440  142.8550 C   0  0  2  0  0  3  0  0  0  0  0  0
  190.7140  175.1170  142.6290 N   0  0  2  0  0  0  0  0  0  0  0  0
  193.1380  174.6850  142.9020 C   0  0  0  0  0  0  0  0  0  0  0  0
  197.5530  174.1360  144.2880 C   0  0  0  0  0  2  0  0  0  0  0  0
  188.5390  175.5350  147.1660 S   0  0  0  0  0  0  0  0  0  0  0  0
  189.1420  176.9660  144.5150 C   0  0  2  0  0  3  0  0  0  0  0  0
  196.7630  175.2190  144.7850 O   0  0  0  0  0  0  0  0  0  0  0  0
  189.6590  176.9680  147.0410 C   0  0  0  0  0  2  0  0  0  0  0  0
  186.8160  176.7860  145.3870 C   0  0  2  0  0  3  0  0  0  0  0  0
  191.6190  173.0170  141.7650 C   0  0  0  0  0  2  0  0  0  0  0  0
  191.9130  174.4970  142.0410 C   0  0  1  0  0  3  0  0  0  0  0  0
  194.2220  173.8720  142.7210 N   0  0  0  0  0  0  0  0  0  0  0  0
  191.4040  176.3400  145.3570 C   0  0  0  0  0  2  0  0  0  0  0  0
  194.6180  177.2150  145.3740 C   0  0  0  0  0  1  0  0  0  0  0  0
  196.4300  171.9400  143.8710 C   0  0  0  0  0  1  0  0  0  0  0  0
  193.2300  175.8110  143.7680 C   0  0  0  0  0  0  0  0  0  0  0  0
  195.3700  174.1080  143.4020 C   0  0  0  0  0  0  0  0  0  0  0  0
  185.4890  177.3500  145.1950 N   0  0  0  0  0  2  0  0  0  0  0  0
  185.0500  178.5320  145.8680 C   0  0  0  0  0  0  0  0  0  0  0  0
  185.8050  179.1220  146.6850 O   0  0  0  0  0  0  0  0  0  0  0  0
  183.7480  179.0420  145.6170 N   0  0  0  0  0  1  0  0  0  0  0  0
  1 16  1  0  0  0  0
  2 24  1  1  0  0  0
  3 11  1  0  0  0  0
  4  3  1  0  0  0  0
  4 21  1  0  0  0  0
  5 25  1  0  0  0  0
  6  5  1  0  0  0  0
  6 18  1  0  0  0  0
  7 24  1  6  0  0  0
  7 19  1  0  0  0  0
  9 28  1  0  0  0  0
  9 26  1  1  0  0  0
  9 15  1  0  0  0  0
 10 20  1  0  0  0  0
 12  8  1  1  0  0  0
 12  2  1  0  0  0  0
 13 11  1  6  0  0  0
 13 12  1  0  0  0  0
 14 27  1  0  0  0  0
 15 18  1  0  0  0  0
 17  8  1  6  0  0  0
 17 10  1  0  0  0  0
 17  7  1  0  0  0  0
 19 16  1  0  0  0  0
 20 29  1  1  0  0  0
 20  1  1  0  0  0  0
 22 21  1  1  0  0  0
 22 13  1  0  0  0  0
 22 14  1  0  0  0  0
 23 14  2  0  0  0  0
 23 28  1  0  0  0  0
 27  2  1  0  0  0  0
 27  5  2  0  0  0  0
 28  6  2  0  0  0  0
 29 30  1  0  0  0  0
 30 31  2  0  0  0  0
 32 30  1  0  0  0  0
M  END
>  <MODEL>
5

>  <REMARK>
 VINA RESULT:      -7.9      1.547      1.568
  Name = 
  1 active torsions:
  status: ('A' for Active; 'I' for Inactive)
    1  A    between atoms: C_20  and  N_29
                            x       y       z     vdW  Elec       q    Type
                         _______ _______ _______ _____ _____    ______ ____

>  <TORSDO>
F 1

$$$$
=
 OpenBabel11112416323D

 32 37  0  0  1  0  0  0  0  0999 V2000
  195.2410  174.6180  143.5630 C   0  0  0  0  0  2  0  0  0  0  0  0
  189.6830  174.7570  144.9470 C   0  0  1  0  0  3  0  0  0  0  0  0
  189.4850  174.1770  140.0810 C   0  0  0  0  0  2  0  0  0  0  0  0
  188.1600  174.6560  140.0300 O   0  0  0  0  0  0  0  0  0  0  0  0
  188.0630  176.4520  145.9260 C   0  0  0  0  0  0  0  0  0  0  0  0
  187.0030  177.3320  145.7280 C   0  0  0  0  0  0  0  0  0  0  0  0
  192.1910  174.6830  145.0760 C   0  0  1  0  0  3  0  0  0  0  0  0
  190.9750  172.8500  143.8980 C   0  0  0  0  0  2  0  0  0  0  0  0
  185.2910  178.4310  144.5730 C   0  0  1  0  0  3  0  0  0  0  0  0
  193.4710  172.8500  143.8770 C   0  0  0  0  0  2  0  0  0  0  0  0
  189.7300  173.4490  141.4060 C   0  0  0  0  0  2  0  0  0  0  0  0
  189.7010  173.7130  143.8080 C   0  0  2  0  0  3  0  0  0  0  0  0
  189.5590  174.3970  142.5120 N   0  0  2  0  0  0  0  0  0  0  0  0
  187.8480  175.8450  143.5670 C   0  0  0  0  0  0  0  0  0  0  0  0
  185.3370  178.8850  146.0510 C   0  0  0  0  0  2  0  0  0  0  0  0
  194.1710  176.0890  143.6750 S   0  0  0  0  0  0  0  0  0  0  0  0
  192.2250  173.7210  143.8820 C   0  0  2  0  0  3  0  0  0  0  0  0
  186.4110  178.1600  146.6560 O   0  0  0  0  0  0  0  0  0  0  0  0
  193.4600  175.5210  145.2550 C   0  0  0  0  0  2  0  0  0  0  0  0
  194.5070  173.4380  142.9280 C   0  0  2  0  0  3  0  0  0  0  0  0
  188.0140  175.6110  141.0560 C   0  0  0  0  0  2  0  0  0  0  0  0
  188.1880  174.9270  142.4190 C   0  0  1  0  0  3  0  0  0  0  0  0
  186.7960  176.7110  143.4500 N   0  0  0  0  0  0  0  0  0  0  0  0
  190.9730  175.5890  144.9600 C   0  0  0  0  0  2  0  0  0  0  0  0
  188.6960  176.3350  147.2730 C   0  0  0  0  0  1  0  0  0  0  0  0
  185.5910  179.6140  143.6720 C   0  0  0  0  0  1  0  0  0  0  0  0
  188.5000  175.6840  144.8210 C   0  0  0  0  0  0  0  0  0  0  0  0
  186.4060  177.4540  144.5150 C   0  0  0  0  0  0  0  0  0  0  0  0
  195.4650  172.4020  142.5730 N   0  0  0  0  0  2  0  0  0  0  0  0
  196.0730  172.3240  141.2820 C   0  0  0  0  0  0  0  0  0  0  0  0
  195.7750  173.1520  140.3820 O   0  0  0  0  0  0  0  0  0  0  0  0
  197.0190  171.2980  141.0120 N   0  0  0  0  0  1  0  0  0  0  0  0
  1 16  1  0  0  0  0
  2 24  1  6  0  0  0
  3 11  1  0  0  0  0
  4  3  1  0  0  0  0
  4 21  1  0  0  0  0
  5 25  1  0  0  0  0
  6  5  1  0  0  0  0
  6 18  1  0  0  0  0
  7 24  1  6  0  0  0
  7 19  1  0  0  0  0
  9 26  1  6  0  0  0
  9 15  1  0  0  0  0
 12  8  1  6  0  0  0
 12  2  1  0  0  0  0
 13 11  1  6  0  0  0
 13 12  1  0  0  0  0
 14 27  1  0  0  0  0
 15 18  1  0  0  0  0
 16 19  1  0  0  0  0
 17 10  1  1  0  0  0
 17  8  1  0  0  0  0
 17  7  1  0  0  0  0
 20 29  1  1  0  0  0
 20  1  1  0  0  0  0
 20 10  1  0  0  0  0
 22 21  1  6  0  0  0
 22 13  1  0  0  0  0
 22 14  1  0  0  0  0
 23 14  2  0  0  0  0
 23 28  1  0  0  0  0
 27  2  1  0  0  0  0
 27  5  2  0  0  0  0
 28  9  1  0  0  0  0
 28  6  2  0  0  0  0
 30 29  1  0  0  0  0
 31 30  2  0  0  0  0
 32 30  1  0  0  0  0
M  END
>  <MODEL>
6

>  <REMARK>
 VINA RESULT:      -7.6      2.619      7.953
  Name = 
  1 active torsions:
  status: ('A' for Active; 'I' for Inactive)
    1  A    between atoms: C_20  and  N_29
                            x       y       z     vdW  Elec       q    Type
                         _______ _______ _______ _____ _____    ______ ____

>  <TORSDO>
F 1

$$$$
=
 OpenBabel11112416323D

 32 37  0  0  1  0  0  0  0  0999 V2000
  192.0500  170.6740  141.3360 C   0  0  0  0  0  2  0  0  0  0  0  0
  189.9630  175.9250  142.2730 C   0  0  1  0  0  3  0  0  0  0  0  0
  192.5390  175.1300  146.3700 C   0  0  0  0  0  2  0  0  0  0  0  0
  191.8210  176.1220  147.0700 O   0  0  0  0  0  0  0  0  0  0  0  0
  187.6710  176.9740  142.5940 C   0  0  0  0  0  0  0  0  0  0  0  0
  186.7350  177.5420  143.4540 C   0  0  0  0  0  0  0  0  0  0  0  0
  190.5860  173.7440  141.1940 C   0  0  1  0  0  3  0  0  0  0  0  0
  192.3880  175.2320  142.0670 C   0  0  0  0  0  2  0  0  0  0  0  0
  185.8680  178.3760  145.4610 C   0  0  1  0  0  3  0  0  0  0  0  0
  193.0090  172.9970  141.1460 C   0  0  0  0  0  2  0  0  0  0  0  0
  192.6520  175.5100  144.8910 C   0  0  0  0  0  2  0  0  0  0  0  0
  191.3680  176.0240  142.9090 C   0  0  2  0  0  3  0  0  0  0  0  0
  191.3060  175.5760  144.3100 N   0  0  2  0  0  0  0  0  0  0  0  0
  189.1720  176.8180  144.5180 C   0  0  0  0  0  0  0  0  0  0  0  0
  184.8420  178.5250  144.3130 C   0  0  0  0  0  2  0  0  0  0  0  0
  190.4650  171.1020  142.1270 S   0  0  0  0  0  0  0  0  0  0  0  0
  191.9480  173.7840  141.8980 C   0  0  2  0  0  3  0  0  0  0  0  0
  185.4680  177.9870  143.1460 O   0  0  0  0  0  0  0  0  0  0  0  0
  190.0930  172.3380  140.8390 C   0  0  0  0  0  2  0  0  0  0  0  0
  193.1690  171.6170  141.7730 C   0  0  2  0  0  3  0  0  0  0  0  0
  190.5120  176.1440  146.5520 C   0  0  0  0  0  2  0  0  0  0  0  0
  190.5520  176.5790  145.0810 C   0  0  1  0  0  3  0  0  0  0  0  0
  188.2160  177.4030  145.3000 N   0  0  0  0  0  0  0  0  0  0  0  0
  189.5530  174.4630  142.0520 C   0  0  0  0  0  2  0  0  0  0  0  0
  187.3390  176.7830  141.1510 C   0  0  0  0  0  1  0  0  0  0  0  0
  185.3100  177.4420  146.5180 C   0  0  0  0  0  1  0  0  0  0  0  0
  188.9250  176.6020  143.1330 C   0  0  0  0  0  0  0  0  0  0  0  0
  187.0130  177.7330  144.7690 C   0  0  0  0  0  0  0  0  0  0  0  0
  194.4550  171.0650  141.3780 N   0  0  0  0  0  2  0  0  0  0  0  0
  195.6200  171.1580  142.2010 C   0  0  0  0  0  0  0  0  0  0  0  0
  195.5760  171.7560  143.3080 O   0  0  0  0  0  0  0  0  0  0  0  0
  196.8390  170.5750  141.7620 N   0  0  0  0  0  1  0  0  0  0  0  0
  1 20  1  0  0  0  0
  1 16  1  0  0  0  0
  2 24  1  1  0  0  0
  2 12  1  0  0  0  0
  2 27  1  0  0  0  0
  3  4  1  0  0  0  0
  5 27  2  0  0  0  0
  5  6  1  0  0  0  0
  6 28  2  0  0  0  0
  7 19  1  1  0  0  0
  7 17  1  0  0  0  0
  7 24  1  0  0  0  0
  9 26  1  1  0  0  0
 10 20  1  0  0  0  0
 11  3  1  0  0  0  0
 12  8  1  6  0  0  0
 12 13  1  0  0  0  0
 13 11  1  1  0  0  0
 13 22  1  0  0  0  0
 14 22  1  0  0  0  0
 14 23  2  0  0  0  0
 15  9  1  0  0  0  0
 17 10  1  6  0  0  0
 17  8  1  0  0  0  0
 18  6  1  0  0  0  0
 18 15  1  0  0  0  0
 19 16  1  0  0  0  0
 20 29  1  6  0  0  0
 21  4  1  0  0  0  0
 22 21  1  1  0  0  0
 25  5  1  0  0  0  0
 27 14  1  0  0  0  0
 28 23  1  0  0  0  0
 28  9  1  0  0  0  0
 29 30  1  0  0  0  0
 30 31  2  0  0  0  0
 32 30  1  0  0  0  0
M  END
>  <MODEL>
7

>  <REMARK>
 VINA RESULT:      -7.3      2.767      8.372
  Name = 
  1 active torsions:
  status: ('A' for Active; 'I' for Inactive)
    1  A    between atoms: C_20  and  N_29
                            x       y       z     vdW  Elec       q    Type
                         _______ _______ _______ _____ _____    ______ ____

>  <TORSDO>
F 1

$$$$
=
 OpenBabel11112416323D

 32 37  0  0  1  0  0  0  0  0999 V2000
  187.3400  177.9260  143.2790 C   0  0  0  0  0  2  0  0  0  0  0  0
  191.3850  173.8700  143.3110 C   0  0  1  0  0  3  0  0  0  0  0  0
  192.8740  176.7920  146.9580 C   0  0  0  0  0  2  0  0  0  0  0  0
  194.1890  176.2880  146.8880 O   0  0  0  0  0  0  0  0  0  0  0  0
  193.2030  173.0580  141.7310 C   0  0  0  0  0  0  0  0  0  0  0  0
  194.5560  172.9910  141.4150 C   0  0  0  0  0  0  0  0  0  0  0  0
  189.3030  175.1840  142.8110 C   0  0  1  0  0  3  0  0  0  0  0  0
  189.7470  174.4440  145.1530 C   0  0  0  0  0  2  0  0  0  0  0  0
  196.8600  173.3000  141.6860 C   0  0  1  0  0  3  0  0  0  0  0  0
  187.7610  175.8860  144.6990 C   0  0  0  0  0  2  0  0  0  0  0  0
  191.8720  175.6970  146.5780 C   0  0  0  0  0  2  0  0  0  0  0  0
  191.2270  174.1720  144.8180 C   0  0  2  0  0  3  0  0  0  0  0  0
  192.1150  175.2850  145.1920 N   0  0  2  0  0  0  0  0  0  0  0  0
  193.8560  174.2570  143.7600 C   0  0  0  0  0  0  0  0  0  0  0  0
  196.5580  172.5330  140.3780 C   0  0  0  0  0  2  0  0  0  0  0  0
  188.8940  177.9160  142.3280 S   0  0  0  0  0  0  0  0  0  0  0  0
  189.1910  175.5700  144.2910 C   0  0  2  0  0  3  0  0  0  0  0  0
  195.1350  172.4030  140.3110 O   0  0  0  0  0  0  0  0  0  0  0  0
  188.6510  176.1750  141.8430 C   0  0  0  0  0  2  0  0  0  0  0  0
  187.5460  177.3950  144.6960 C   0  0  2  0  0  3  0  0  0  0  0  0
  194.4420  175.9480  145.5440 C   0  0  0  0  0  2  0  0  0  0  0  0
  193.5070  174.8080  145.1210 C   0  0  1  0  0  3  0  0  0  0  0  0
  195.1690  174.1330  143.4000 N   0  0  0  0  0  0  0  0  0  0  0  0
  190.7690  174.9820  142.4520 C   0  0  0  0  0  2  0  0  0  0  0  0
  192.1900  172.4520  140.8170 C   0  0  0  0  0  1  0  0  0  0  0  0
  197.5140  174.6280  141.3530 C   0  0  0  0  0  1  0  0  0  0  0  0
  192.8370  173.7050  142.9350 C   0  0  0  0  0  0  0  0  0  0  0  0
  195.4980  173.5280  142.2310 C   0  0  0  0  0  0  0  0  0  0  0  0
  186.3790  177.7070  145.5080 N   0  0  0  0  0  2  0  0  0  0  0  0
  186.4640  177.9700  146.9100 C   0  0  0  0  0  0  0  0  0  0  0  0
  187.5710  177.9160  147.5070 O   0  0  0  0  0  0  0  0  0  0  0  0
  185.2860  178.2910  147.6380 N   0  0  0  0  0  1  0  0  0  0  0  0
  1 20  1  0  0  0  0
  2 24  1  6  0  0  0
  2 12  1  0  0  0  0
  4  3  1  0  0  0  0
  5 27  1  0  0  0  0
  6  5  2  0  0  0  0
  6 28  1  0  0  0  0
  7 19  1  6  0  0  0
  7 17  1  0  0  0  0
  9 26  1  6  0  0  0
  9 28  1  0  0  0  0
 11  3  1  0  0  0  0
 12  8  1  6  0  0  0
 12 13  1  0  0  0  0
 13 11  1  1  0  0  0
 14 22  1  0  0  0  0
 15  9  1  0  0  0  0
 16  1  1  0  0  0  0
 17 10  1  1  0  0  0
 17  8  1  0  0  0  0
 18 15  1  0  0  0  0
 18  6  1  0  0  0  0
 19 16  1  0  0  0  0
 20 10  1  0  0  0  0
 20 29  1  1  0  0  0
 21  4  1  0  0  0  0
 22 13  1  0  0  0  0
 22 21  1  6  0  0  0
 23 14  1  0  0  0  0
 24  7  1  0  0  0  0
 25  5  1  0  0  0  0
 27  2  1  0  0  0  0
 27 14  2  0  0  0  0
 28 23  2  0  0  0  0
 29 30  1  0  0  0  0
 30 31  2  0  0  0  0
 30 32  1  0  0  0  0
M  END
>  <MODEL>
8

>  <REMARK>
 VINA RESULT:      -7.0      2.632      4.390
  Name = 
  1 active torsions:
  status: ('A' for Active; 'I' for Inactive)
    1  A    between atoms: C_20  and  N_29
                            x       y       z     vdW  Elec       q    Type
                         _______ _______ _______ _____ _____    ______ ____

>  <TORSDO>
F 1

$$$$
=
 OpenBabel11112416323D

 32 37  0  0  1  0  0  0  0  0999 V2000
  186.8980  178.2280  142.5810 C   0  0  0  0  0  2  0  0  0  0  0  0
  190.8660  174.2840  143.8110 C   0  0  1  0  0  3  0  0  0  0  0  0
  191.1780  177.2590  147.6980 C   0  0  0  0  0  2  0  0  0  0  0  0
  192.4700  176.7910  148.0120 O   0  0  0  0  0  0  0  0  0  0  0  0
  193.0790  173.5170  142.8260 C   0  0  0  0  0  0  0  0  0  0  0  0
  194.4680  173.4850  142.9090 C   0  0  0  0  0  0  0  0  0  0  0  0
  188.9810  175.5390  142.7240 C   0  0  1  0  0  3  0  0  0  0  0  0
  188.7570  174.8200  145.1030 C   0  0  0  0  0  2  0  0  0  0  0  0
  196.5890  173.8580  143.8230 C   0  0  1  0  0  3  0  0  0  0  0  0
  186.9470  176.2060  144.0850 C   0  0  0  0  0  2  0  0  0  0  0  0
  190.3530  176.1360  147.0610 C   0  0  0  0  0  2  0  0  0  0  0  0
  190.2770  174.5880  145.2070 C   0  0  2  0  0  3  0  0  0  0  0  0
  190.9930  175.7260  145.8060 N   0  0  2  0  0  0  0  0  0  0  0  0
  193.0960  174.7400  144.9430 C   0  0  0  0  0  0  0  0  0  0  0  0
  196.6930  173.0780  142.4920 C   0  0  0  0  0  2  0  0  0  0  0  0
  188.6590  178.2570  142.1130 S   0  0  0  0  0  0  0  0  0  0  0  0
  188.4410  175.9280  144.1060 C   0  0  2  0  0  3  0  0  0  0  0  0
  195.3520  172.9090  142.0240 O   0  0  0  0  0  0  0  0  0  0  0  0
  188.6080  176.5080  141.5980 C   0  0  0  0  0  2  0  0  0  0  0  0
  186.7040  177.7080  144.0030 C   0  0  2  0  0  3  0  0  0  0  0  0
  193.1050  176.4530  146.8010 C   0  0  0  0  0  2  0  0  0  0  0  0
  192.3580  175.2860  146.1410 C   0  0  1  0  0  3  0  0  0  0  0  0
  194.4590  174.6500  144.9730 N   0  0  0  0  0  0  0  0  0  0  0  0
  190.4930  175.3760  142.8000 C   0  0  0  0  0  2  0  0  0  0  0  0
  192.3850  172.8800  141.6670 C   0  0  0  0  0  1  0  0  0  0  0  0
  197.2780  175.2020  143.6750 C   0  0  0  0  0  1  0  0  0  0  0  0
  192.3680  174.1580  143.8680 C   0  0  0  0  0  0  0  0  0  0  0  0
  195.1240  174.0500  143.9540 C   0  0  0  0  0  0  0  0  0  0  0  0
  185.3460  177.9910  144.4450 N   0  0  0  0  0  2  0  0  0  0  0  0
  185.0380  178.3820  145.7840 C   0  0  0  0  0  0  0  0  0  0  0  0
  185.9460  178.4730  146.6510 O   0  0  0  0  0  0  0  0  0  0  0  0
  183.6910  178.6660  146.1410 N   0  0  0  0  0  1  0  0  0  0  0  0
  1 20  1  0  0  0  0
  2 24  1  6  0  0  0
  2 27  1  0  0  0  0
  2 12  1  0  0  0  0
  3  4  1  0  0  0  0
  5  6  2  0  0  0  0
  5 27  1  0  0  0  0
  6 28  1  0  0  0  0
  7 19  1  6  0  0  0
  7 24  1  0  0  0  0
  7 17  1  0  0  0  0
  9 26  1  6  0  0  0
  9 28  1  0  0  0  0
 11  3  1  0  0  0  0
 12  8  1  6  0  0  0
 12 13  1  0  0  0  0
 13 22  1  0  0  0  0
 13 11  1  1  0  0  0
 14 23  1  0  0  0  0
 14 22  1  0  0  0  0
 15  9  1  0  0  0  0
 16  1  1  0  0  0  0
 17 10  1  6  0  0  0
 17  8  1  0  0  0  0
 18 15  1  0  0  0  0
 18  6  1  0  0  0  0
 19 16  1  0  0  0  0
 20 10  1  0  0  0  0
 20 29  1  6  0  0  0
 21  4  1  0  0  0  0
 22 21  1  6  0  0  0
 25  5  1  0  0  0  0
 27 14  2  0  0  0  0
 28 23  2  0  0  0  0
 29 30  1  0  0  0  0
 30 32  1  0  0  0  0
 30 31  2  0  0  0  0
M  END
>  <MODEL>
9

>  <REMARK>
 VINA RESULT:      -6.8      2.417      3.988
  Name = 
  1 active torsions:
  status: ('A' for Active; 'I' for Inactive)
    1  A    between atoms: C_20  and  N_29
                            x       y       z     vdW  Elec       q    Type
                         _______ _______ _______ _____ _____    ______ ____

>  <TORSDO>
F 1

$$$$
