=
 OpenBabel11112417563D

 34 40  0  0  1  0  0  0  0  0999 V2000
  191.5040  175.6340  145.1590 C   0  0  0  0  0  0  0  0  0  0  0  0
  189.8700  177.3890  146.0090 C   0  0  0  0  0  3  0  0  0  0  0  0
  190.5280  170.4330  141.3540 C   0  0  0  0  0  2  0  0  0  0  0  0
  192.7910  173.8940  144.0600 C   0  0  0  0  0  0  0  0  0  0  0  0
  192.1630  173.2080  141.7310 C   0  0  0  0  0  0  0  0  0  0  0  0
  191.4150  172.0400  139.6310 C   0  0  0  0  0  2  0  0  0  0  0  0
  191.0840  170.5850  139.9440 C   0  0  0  0  0  2  0  0  0  0  0  0
  192.7460  170.3630  142.5850 C   0  0  0  0  0  2  0  0  0  0  0  0
  189.5390  176.4610  143.9890 C   0  0  0  0  0  0  0  0  0  0  0  0
  186.6890  176.2200  143.0490 C   0  0  0  0  0  2  0  0  0  0  0  0
  191.1610  174.0410  141.7640 N   0  0  0  0  0  0  0  0  0  0  0  0
  192.4450  171.5180  143.5330 C   0  0  0  0  0  2  0  0  0  0  0  0
  189.7400  175.6540  142.9140 N   0  0  0  0  0  0  0  0  0  0  0  0
  188.7270  177.9080  145.4780 N   0  0  0  0  0  0  0  0  0  0  0  0
  192.9420  172.8540  142.9810 C   0  0  2  0  0  3  0  0  0  0  0  0
  191.4680  169.6080  142.2290 C   0  0  0  0  0  2  0  0  0  0  0  0
  187.3370  177.5700  143.3710 C   0  0  2  0  0  3  0  0  0  0  0  0
  191.7020  174.7750  144.0500 C   0  0  0  0  0  0  0  0  0  0  0  0
  192.4640  172.5090  140.5220 N   0  0  0  0  0  2  0  0  0  0  0  0
  190.8280  174.8140  142.9270 C   0  0  0  0  0  0  0  0  0  0  0  0
  193.4780  174.7240  146.1870 C   0  0  0  0  0  3  0  0  0  0  0  0
  187.4390  175.3670  142.0090 C   0  0  0  0  0  2  0  0  0  0  0  0
  193.6440  173.8900  145.1220 N   0  0  0  0  0  0  0  0  0  0  0  0
  188.8900  175.7720  141.7270 C   0  0  0  0  0  2  0  0  0  0  0  0
  188.5260  177.3420  144.2590 C   0  0  0  0  0  0  0  0  0  0  0  0
  192.3990  175.6100  146.2290 C   0  0  0  0  0  3  0  0  0  0  0  0
  190.4030  176.4760  145.1180 C   0  0  0  0  0  0  0  0  0  0  0  0
  186.3200  178.4900  144.0310 C   0  0  0  0  0  2  0  0  0  0  0  0
  185.0300  177.7380  144.3100 C   0  0  0  0  0  2  0  0  0  0  0  0
  186.0530  177.2670  147.5200 C   0  0  0  0  0  2  0  0  0  0  0  0
  185.3650  179.1000  146.1870 C   0  0  0  0  0  2  0  0  0  0  0  0
  184.6250  177.9460  145.6910 N   0  0  0  0  0  0  0  0  0  0  0  0
  185.8720  178.7570  147.5650 C   0  0  0  0  0  2  0  0  0  0  0  0
  185.0920  176.7910  146.4510 C   0  0  0  0  0  2  0  0  0  0  0  0
  1 26  1  0  0  0  0
  3 16  1  0  0  0  0
  4 23  2  0  0  0  0
  5 11  2  0  0  0  0
  5 15  1  0  0  0  0
  6  7  1  0  0  0  0
  6 19  1  0  0  0  0
  7  3  1  0  0  0  0
  8 12  1  0  0  0  0
  9 25  2  0  0  0  0
  9 27  1  0  0  0  0
 10 17  1  0  0  0  0
 11 20  1  0  0  0  0
 13 20  1  0  0  0  0
 13  9  1  0  0  0  0
 14  2  2  0  0  0  0
 15 12  1  1  0  0  0
 15  4  1  0  0  0  0
 16  8  1  0  0  0  0
 17 28  1  1  0  0  0
 17 25  1  0  0  0  0
 18  4  1  0  0  0  0
 18  1  1  0  0  0  0
 19  5  1  0  0  0  0
 20 18  2  0  0  0  0
 21 26  2  0  0  0  0
 22 10  1  0  0  0  0
 23 21  1  0  0  0  0
 24 22  1  0  0  0  0
 24 13  1  0  0  0  0
 25 14  1  0  0  0  0
 27  1  2  0  0  0  0
 27  2  1  0  0  0  0
 28 29  1  0  0  0  0
 29 32  1  0  0  0  0
 30 33  1  0  0  0  0
 31 33  1  0  0  0  0
 32 31  1  0  0  0  0
 32 34  1  0  0  0  0
 34 30  1  0  0  0  0
M  END
>  <MODEL>
1

>  <REMARK>
 VINA RESULT:      -7.9      0.000      0.000
  Name = 
  3 active torsions:
  status: ('A' for Active; 'I' for Inactive)
    1  A    between atoms: C_17  and  C_28
    2  A    between atoms: C_28  and  C_29
    3  A    between atoms: C_29  and  N_32
                            x       y       z     vdW  Elec       q    Type
                         _______ _______ _______ _____ _____    ______ ____

>  <TORSDO>
F 3

$$$$
=
 OpenBabel11112417563D

 34 40  0  0  1  0  0  0  0  0999 V2000
  194.1260  175.5920  144.1820 C   0  0  0  0  0  0  0  0  0  0  0  0
  192.3190  177.3620  144.4670 C   0  0  0  0  0  3  0  0  0  0  0  0
  194.5650  169.5640  146.6220 C   0  0  0  0  0  2  0  0  0  0  0  0
  195.5620  173.6410  144.0150 C   0  0  0  0  0  0  0  0  0  0  0  0
  194.5110  171.3670  143.9260 C   0  0  0  0  0  0  0  0  0  0  0  0
  193.7130  169.0120  144.3180 C   0  0  0  0  0  2  0  0  0  0  0  0
  194.3420  168.4630  145.5940 C   0  0  0  0  0  2  0  0  0  0  0  0
  196.7690  170.4330  145.7140 C   0  0  0  0  0  2  0  0  0  0  0  0
  191.7430  175.1890  144.4650 C   0  0  0  0  0  0  0  0  0  0  0  0
  189.3390  174.4140  146.1030 C   0  0  0  0  0  2  0  0  0  0  0  0
  193.3360  171.9120  144.0610 N   0  0  0  0  0  0  0  0  0  0  0  0
  196.3220  171.8810  145.5520 C   0  0  0  0  0  2  0  0  0  0  0  0
  191.8850  173.8380  144.4180 N   0  0  0  0  0  0  0  0  0  0  0  0
  190.9750  177.2720  144.6670 N   0  0  0  0  0  0  0  0  0  0  0  0
  195.7830  172.1580  144.1480 C   0  0  2  0  0  3  0  0  0  0  0  0
  196.0530  169.7740  146.8890 C   0  0  0  0  0  2  0  0  0  0  0  0
  189.2570  175.4120  144.9430 C   0  0  2  0  0  3  0  0  0  0  0  0
  194.2770  174.1840  144.1570 C   0  0  0  0  0  0  0  0  0  0  0  0
  194.6190  169.9620  143.6910 N   0  0  0  0  0  2  0  0  0  0  0  0
  193.1480  173.3230  144.2510 C   0  0  0  0  0  0  0  0  0  0  0  0
  196.5000  175.8300  143.8900 C   0  0  0  0  0  3  0  0  0  0  0  0
  189.9330  173.0400  145.7400 C   0  0  0  0  0  2  0  0  0  0  0  0
  196.6330  174.4740  143.8880 N   0  0  0  0  0  0  0  0  0  0  0  0
  190.7070  172.9680  144.4190 C   0  0  0  0  0  2  0  0  0  0  0  0
  190.6290  175.9580  144.6700 C   0  0  0  0  0  0  0  0  0  0  0  0
  195.2410  176.4170  144.0440 C   0  0  0  0  0  3  0  0  0  0  0  0
  192.8400  176.0860  144.3450 C   0  0  0  0  0  0  0  0  0  0  0  0
  188.2760  176.5240  145.2830 C   0  0  0  0  0  2  0  0  0  0  0  0
  188.0380  176.5780  146.7830 C   0  0  0  0  0  2  0  0  0  0  0  0
  185.5660  178.9150  146.7430 C   0  0  0  0  0  2  0  0  0  0  0  0
  185.9380  176.7910  145.7640 C   0  0  0  0  0  2  0  0  0  0  0  0
  186.6200  176.7610  147.0520 N   0  0  0  0  0  0  0  0  0  0  0  0
  184.9450  177.9240  145.8020 C   0  0  0  0  0  2  0  0  0  0  0  0
  186.4660  178.0890  147.6380 C   0  0  0  0  0  2  0  0  0  0  0  0
  1 27  2  0  0  0  0
  2 14  2  0  0  0  0
  3 16  1  0  0  0  0
  4 15  1  0  0  0  0
  4 18  1  0  0  0  0
  5 11  2  0  0  0  0
  5 15  1  0  0  0  0
  6  7  1  0  0  0  0
  7  3  1  0  0  0  0
  8 16  1  0  0  0  0
  9 25  2  0  0  0  0
 11 20  1  0  0  0  0
 12  8  1  0  0  0  0
 13 24  1  0  0  0  0
 13  9  1  0  0  0  0
 14 25  1  0  0  0  0
 15 12  1  1  0  0  0
 17 28  1  1  0  0  0
 17 10  1  0  0  0  0
 18  1  1  0  0  0  0
 18 20  2  0  0  0  0
 19  5  1  0  0  0  0
 19  6  1  0  0  0  0
 20 13  1  0  0  0  0
 21 26  2  0  0  0  0
 22 10  1  0  0  0  0
 23 21  1  0  0  0  0
 23  4  2  0  0  0  0
 24 22  1  0  0  0  0
 25 17  1  0  0  0  0
 26  1  1  0  0  0  0
 27  9  1  0  0  0  0
 27  2  1  0  0  0  0
 28 29  1  0  0  0  0
 29 32  1  0  0  0  0
 30 34  1  0  0  0  0
 31 33  1  0  0  0  0
 31 32  1  0  0  0  0
 32 34  1  0  0  0  0
 33 30  1  0  0  0  0
M  END
>  <MODEL>
2

>  <REMARK>
 VINA RESULT:      -7.8      2.735      3.905
  Name = 
  3 active torsions:
  status: ('A' for Active; 'I' for Inactive)
    1  A    between atoms: C_17  and  C_28
    2  A    between atoms: C_28  and  C_29
    3  A    between atoms: C_29  and  N_32
                            x       y       z     vdW  Elec       q    Type
                         _______ _______ _______ _____ _____    ______ ____

>  <TORSDO>
F 3

$$$$
=
 OpenBabel11112417563D

 34 40  0  0  1  0  0  0  0  0999 V2000
  192.3500  176.1390  144.9730 C   0  0  0  0  0  0  0  0  0  0  0  0
  190.3620  177.7150  144.7820 C   0  0  0  0  0  3  0  0  0  0  0  0
  192.8140  169.7480  143.7740 C   0  0  0  0  0  2  0  0  0  0  0  0
  194.0440  174.4000  144.8990 C   0  0  0  0  0  0  0  0  0  0  0  0
  193.9560  172.6990  143.0600 C   0  0  0  0  0  0  0  0  0  0  0  0
  193.7750  170.6390  141.6250 C   0  0  0  0  0  2  0  0  0  0  0  0
  193.5930  169.4110  142.5100 C   0  0  0  0  0  2  0  0  0  0  0  0
  194.7550  170.6480  145.1380 C   0  0  0  0  0  2  0  0  0  0  0  0
  190.5400  175.9860  143.3560 C   0  0  0  0  0  0  0  0  0  0  0  0
  187.9720  174.8030  142.3210 C   0  0  0  0  0  2  0  0  0  0  0  0
  192.8600  173.2470  142.6150 N   0  0  0  0  0  0  0  0  0  0  0  0
  194.1290  172.0040  145.4410 C   0  0  0  0  0  2  0  0  0  0  0  0
  191.0450  174.8660  142.7760 N   0  0  0  0  0  0  0  0  0  0  0  0
  189.2770  177.7230  143.9580 N   0  0  0  0  0  0  0  0  0  0  0  0
  194.5320  173.0620  144.4130 C   0  0  2  0  0  3  0  0  0  0  0  0
  193.6800  169.5710  145.0190 C   0  0  0  0  0  2  0  0  0  0  0  0
  188.3590  176.2660  142.0810 C   0  0  2  0  0  3  0  0  0  0  0  0
  192.8650  174.9570  144.3850 C   0  0  0  0  0  0  0  0  0  0  0  0
  194.5670  171.6390  142.3240 N   0  0  0  0  0  2  0  0  0  0  0  0
  192.2160  174.3480  143.2750 C   0  0  0  0  0  0  0  0  0  0  0  0
  194.2070  176.1590  146.5020 C   0  0  0  0  0  3  0  0  0  0  0  0
  189.0110  173.7690  141.8510 C   0  0  0  0  0  2  0  0  0  0  0  0
  194.6790  175.0110  145.9390 N   0  0  0  0  0  0  0  0  0  0  0  0
  190.4200  174.3050  141.5760 C   0  0  0  0  0  2  0  0  0  0  0  0
  189.3840  176.6750  143.1000 C   0  0  0  0  0  0  0  0  0  0  0  0
  193.0270  176.7430  146.0330 C   0  0  0  0  0  3  0  0  0  0  0  0
  191.1710  176.6440  144.4480 C   0  0  0  0  0  0  0  0  0  0  0  0
  187.1220  177.1490  142.1550 C   0  0  0  0  0  2  0  0  0  0  0  0
  186.0700  176.5120  143.0480 C   0  0  0  0  0  2  0  0  0  0  0  0
  185.7580  178.9530  145.3970 C   0  0  0  0  0  2  0  0  0  0  0  0
  185.6300  178.8140  143.0360 C   0  0  0  0  0  2  0  0  0  0  0  0
  185.1550  177.5300  143.5370 N   0  0  0  0  0  0  0  0  0  0  0  0
  185.5600  179.8000  144.1730 C   0  0  0  0  0  2  0  0  0  0  0  0
  185.2980  177.5690  144.9890 C   0  0  0  0  0  2  0  0  0  0  0  0
  1 26  1  0  0  0  0
  3 16  1  0  0  0  0
  4 23  2  0  0  0  0
  5 15  1  0  0  0  0
  6 19  1  0  0  0  0
  6  7  1  0  0  0  0
  7  3  1  0  0  0  0
  8 12  1  0  0  0  0
  9 27  1  0  0  0  0
 11  5  2  0  0  0  0
 11 20  1  0  0  0  0
 13 20  1  0  0  0  0
 13  9  1  0  0  0  0
 14  2  2  0  0  0  0
 15  4  1  0  0  0  0
 15 12  1  1  0  0  0
 16  8  1  0  0  0  0
 17 28  1  1  0  0  0
 17 10  1  0  0  0  0
 17 25  1  0  0  0  0
 18  4  1  0  0  0  0
 18  1  1  0  0  0  0
 19  5  1  0  0  0  0
 20 18  2  0  0  0  0
 22 10  1  0  0  0  0
 23 21  1  0  0  0  0
 24 22  1  0  0  0  0
 24 13  1  0  0  0  0
 25  9  2  0  0  0  0
 25 14  1  0  0  0  0
 26 21  2  0  0  0  0
 27  2  1  0  0  0  0
 27  1  2  0  0  0  0
 28 29  1  0  0  0  0
 29 32  1  0  0  0  0
 31 32  1  0  0  0  0
 31 33  1  0  0  0  0
 32 34  1  0  0  0  0
 33 30  1  0  0  0  0
 34 30  1  0  0  0  0
M  END
>  <MODEL>
3

>  <REMARK>
 VINA RESULT:      -7.7      1.719      2.320
  Name = 
  3 active torsions:
  status: ('A' for Active; 'I' for Inactive)
    1  A    between atoms: C_17  and  C_28
    2  A    between atoms: C_28  and  C_29
    3  A    between atoms: C_29  and  N_32
                            x       y       z     vdW  Elec       q    Type
                         _______ _______ _______ _____ _____    ______ ____

>  <TORSDO>
F 3

$$$$
=
 OpenBabel11112417563D

 34 40  0  0  1  0  0  0  0  0999 V2000
  189.1300  174.7150  142.1020 C   0  0  0  0  0  0  0  0  0  0  0  0
  186.8390  175.6610  142.6780 C   0  0  0  0  0  3  0  0  0  0  0  0
  195.0450  176.2970  144.3380 C   0  0  0  0  0  2  0  0  0  0  0  0
  191.4300  173.9620  141.9090 C   0  0  0  0  0  0  0  0  0  0  0  0
  192.8690  173.9210  143.9610 C   0  0  0  0  0  0  0  0  0  0  0  0
  194.6020  174.2640  145.7550 C   0  0  0  0  0  2  0  0  0  0  0  0
  195.6520  175.2570  145.2700 C   0  0  0  0  0  2  0  0  0  0  0  0
  195.1210  174.9250  142.2050 C   0  0  0  0  0  2  0  0  0  0  0  0
  188.4300  175.5860  144.2630 C   0  0  0  0  0  0  0  0  0  0  0  0
  188.3440  177.7200  146.3850 C   0  0  0  0  0  2  0  0  0  0  0  0
  191.8850  174.4240  144.6520 N   0  0  0  0  0  0  0  0  0  0  0  0
  193.6370  175.0440  141.8790 C   0  0  0  0  0  2  0  0  0  0  0  0
  189.6420  175.3600  144.8360 N   0  0  0  0  0  0  0  0  0  0  0  0
  186.3350  176.2060  143.8210 N   0  0  0  0  0  0  0  0  0  0  0  0
  192.8330  173.8740  142.4480 C   0  0  2  0  0  3  0  0  0  0  0  0
  195.6170  176.1740  142.9280 C   0  0  0  0  0  2  0  0  0  0  0  0
  187.1910  176.7370  146.1600 C   0  0  2  0  0  3  0  0  0  0  0  0
  190.4000  174.5020  142.6920 C   0  0  0  0  0  0  0  0  0  0  0  0
  194.0680  173.5190  144.6240 N   0  0  0  0  0  2  0  0  0  0  0  0
  190.6330  174.8050  144.0620 C   0  0  0  0  0  0  0  0  0  0  0  0
  189.9650  173.8210  140.0330 C   0  0  0  0  0  3  0  0  0  0  0  0
  189.7150  177.0680  146.6450 C   0  0  0  0  0  2  0  0  0  0  0  0
  191.1870  173.6400  140.6070 N   0  0  0  0  0  0  0  0  0  0  0  0
  189.8390  175.5870  146.2700 C   0  0  0  0  0  2  0  0  0  0  0  0
  187.3000  176.1640  144.7760 C   0  0  0  0  0  0  0  0  0  0  0  0
  188.9110  174.3690  140.7690 C   0  0  0  0  0  3  0  0  0  0  0  0
  188.1450  175.2700  142.9060 C   0  0  0  0  0  0  0  0  0  0  0  0
  185.8590  177.4450  146.3630 C   0  0  0  0  0  2  0  0  0  0  0  0
  186.0620  178.9500  146.4110 C   0  0  0  0  0  2  0  0  0  0  0  0
  185.1260  179.0270  143.1410 C   0  0  0  0  0  2  0  0  0  0  0  0
  184.0610  178.6620  145.2240 C   0  0  0  0  0  2  0  0  0  0  0  0
  185.1440  179.6010  145.4890 N   0  0  0  0  0  0  0  0  0  0  0  0
  183.7940  178.6830  143.7410 C   0  0  0  0  0  2  0  0  0  0  0  0
  185.8600  179.7800  144.2300 C   0  0  0  0  0  2  0  0  0  0  0  0
  1 18  1  0  0  0  0
  1 27  2  0  0  0  0
  2 27  1  0  0  0  0
  2 14  2  0  0  0  0
  3  7  1  0  0  0  0
  4 15  1  0  0  0  0
  4 18  1  0  0  0  0
  5 19  1  0  0  0  0
  5 11  2  0  0  0  0
  7  6  1  0  0  0  0
  8 16  1  0  0  0  0
  9 25  2  0  0  0  0
  9 13  1  0  0  0  0
 10 22  1  0  0  0  0
 12  8  1  0  0  0  0
 13 24  1  0  0  0  0
 14 25  1  0  0  0  0
 15 12  1  6  0  0  0
 15  5  1  0  0  0  0
 16  3  1  0  0  0  0
 17 28  1  6  0  0  0
 17 10  1  0  0  0  0
 18 20  2  0  0  0  0
 19  6  1  0  0  0  0
 20 11  1  0  0  0  0
 20 13  1  0  0  0  0
 21 23  1  0  0  0  0
 21 26  2  0  0  0  0
 23  4  2  0  0  0  0
 24 22  1  0  0  0  0
 25 17  1  0  0  0  0
 26  1  1  0  0  0  0
 27  9  1  0  0  0  0
 28 29  1  0  0  0  0
 30 33  1  0  0  0  0
 30 34  1  0  0  0  0
 31 32  1  0  0  0  0
 32 29  1  0  0  0  0
 33 31  1  0  0  0  0
 34 32  1  0  0  0  0
M  END
>  <MODEL>
4

>  <REMARK>
 VINA RESULT:      -7.7      1.928      4.483
  Name = 
  3 active torsions:
  status: ('A' for Active; 'I' for Inactive)
    1  A    between atoms: C_17  and  C_28
    2  A    between atoms: C_28  and  C_29
    3  A    between atoms: C_29  and  N_32
                            x       y       z     vdW  Elec       q    Type
                         _______ _______ _______ _____ _____    ______ ____

>  <TORSDO>
F 3

$$$$
=
 OpenBabel11112417563D

 34 40  0  0  1  0  0  0  0  0999 V2000
  193.8530  175.3870  145.3570 C   0  0  0  0  0  0  0  0  0  0  0  0
  192.3390  176.3950  147.1370 C   0  0  0  0  0  3  0  0  0  0  0  0
  192.4080  171.7880  140.1180 C   0  0  0  0  0  2  0  0  0  0  0  0
  194.9660  174.4170  143.4290 C   0  0  0  0  0  0  0  0  0  0  0  0
  193.8220  174.4990  141.2000 C   0  0  0  0  0  0  0  0  0  0  0  0
  192.6670  174.0360  139.0120 C   0  0  0  0  0  2  0  0  0  0  0  0
  192.5630  172.5300  138.7960 C   0  0  0  0  0  2  0  0  0  0  0  0
  194.8660  171.6950  140.7420 C   0  0  0  0  0  2  0  0  0  0  0  0
  191.5830  176.1990  145.0290 C   0  0  0  0  0  0  0  0  0  0  0  0
  188.6220  175.7890  144.6750 C   0  0  0  0  0  2  0  0  0  0  0  0
  192.7900  175.0670  141.7580 N   0  0  0  0  0  0  0  0  0  0  0  0
  194.7150  172.3620  142.1040 C   0  0  0  0  0  2  0  0  0  0  0  0
  191.5730  175.8770  143.7090 N   0  0  0  0  0  0  0  0  0  0  0  0
  191.0550  176.8490  147.0950 N   0  0  0  0  0  0  0  0  0  0  0  0
  194.9270  173.8750  142.0250 C   0  0  2  0  0  3  0  0  0  0  0  0
  193.6150  170.8940  140.3910 C   0  0  0  0  0  2  0  0  0  0  0  0
  189.2040  177.0310  145.3560 C   0  0  2  0  0  3  0  0  0  0  0  0
  193.8350  175.0290  143.9860 C   0  0  0  0  0  0  0  0  0  0  0  0
  193.8630  174.3420  139.7810 N   0  0  0  0  0  2  0  0  0  0  0  0
  192.7000  175.3030  143.1720 C   0  0  0  0  0  0  0  0  0  0  0  0
  196.1010  174.5500  145.5220 C   0  0  0  0  0  3  0  0  0  0  0  0
  189.1530  175.5130  143.2560 C   0  0  0  0  0  2  0  0  0  0  0  0
  196.0620  174.1930  144.2080 N   0  0  0  0  0  0  0  0  0  0  0  0
  190.4380  176.2510  142.8620 C   0  0  0  0  0  2  0  0  0  0  0  0
  190.5990  176.7250  145.8220 C   0  0  0  0  0  0  0  0  0  0  0  0
  194.9920  175.1500  146.1250 C   0  0  0  0  0  3  0  0  0  0  0  0
  192.7060  175.9710  145.8730 C   0  0  0  0  0  0  0  0  0  0  0  0
  188.3130  177.4540  146.5150 C   0  0  0  0  0  2  0  0  0  0  0  0
  187.3940  176.3130  146.9180 C   0  0  0  0  0  2  0  0  0  0  0  0
  185.4460  179.1010  146.8570 C   0  0  0  0  0  2  0  0  0  0  0  0
  185.2000  176.8200  146.2680 C   0  0  0  0  0  2  0  0  0  0  0  0
  186.1270  176.8440  147.3930 N   0  0  0  0  0  0  0  0  0  0  0  0
  184.4650  178.1360  146.2570 C   0  0  0  0  0  2  0  0  0  0  0  0
  186.3500  178.2480  147.7220 C   0  0  0  0  0  2  0  0  0  0  0  0
  1 27  2  0  0  0  0
  1 26  1  0  0  0  0
  3 16  1  0  0  0  0
  4 18  1  0  0  0  0
  4 23  2  0  0  0  0
  5 11  2  0  0  0  0
  5 15  1  0  0  0  0
  6 19  1  0  0  0  0
  7  6  1  0  0  0  0
  7  3  1  0  0  0  0
  8 12  1  0  0  0  0
  9 25  2  0  0  0  0
  9 27  1  0  0  0  0
 10 17  1  0  0  0  0
 11 20  1  0  0  0  0
 13  9  1  0  0  0  0
 14  2  2  0  0  0  0
 15 12  1  1  0  0  0
 15  4  1  0  0  0  0
 16  8  1  0  0  0  0
 17 25  1  0  0  0  0
 17 28  1  1  0  0  0
 18  1  1  0  0  0  0
 19  5  1  0  0  0  0
 20 13  1  0  0  0  0
 20 18  2  0  0  0  0
 21 26  2  0  0  0  0
 22 10  1  0  0  0  0
 23 21  1  0  0  0  0
 24 22  1  0  0  0  0
 24 13  1  0  0  0  0
 25 14  1  0  0  0  0
 27  2  1  0  0  0  0
 28 29  1  0  0  0  0
 29 32  1  0  0  0  0
 30 34  1  0  0  0  0
 31 32  1  0  0  0  0
 32 34  1  0  0  0  0
 33 31  1  0  0  0  0
 33 30  1  0  0  0  0
M  END
>  <MODEL>
5

>  <REMARK>
 VINA RESULT:      -7.6      1.941      2.553
  Name = 
  3 active torsions:
  status: ('A' for Active; 'I' for Inactive)
    1  A    between atoms: C_17  and  C_28
    2  A    between atoms: C_28  and  C_29
    3  A    between atoms: C_29  and  N_32
                            x       y       z     vdW  Elec       q    Type
                         _______ _______ _______ _____ _____    ______ ____

>  <TORSDO>
F 3

$$$$
=
 OpenBabel11112417563D

 34 40  0  0  1  0  0  0  0  0999 V2000
  189.7020  174.0190  140.8590 C   0  0  0  0  0  0  0  0  0  0  0  0
  187.7620  175.6660  140.8430 C   0  0  0  0  0  3  0  0  0  0  0  0
  195.2740  174.0780  144.2410 C   0  0  0  0  0  2  0  0  0  0  0  0
  191.6380  172.6040  141.2350 C   0  0  0  0  0  0  0  0  0  0  0  0
  192.5720  172.4190  143.5550 C   0  0  0  0  0  0  0  0  0  0  0  0
  193.9500  172.4750  145.6610 C   0  0  0  0  0  2  0  0  0  0  0  0
  195.3320  173.0400  145.3550 C   0  0  0  0  0  2  0  0  0  0  0  0
  195.3170  172.4700  142.2790 C   0  0  0  0  0  2  0  0  0  0  0  0
  188.9150  175.3400  142.7450 C   0  0  0  0  0  0  0  0  0  0  0  0
  189.1060  177.6700  144.6410 C   0  0  0  0  0  2  0  0  0  0  0  0
  191.6860  173.2770  143.9730 N   0  0  0  0  0  0  0  0  0  0  0  0
  194.0370  172.9740  141.6230 C   0  0  0  0  0  2  0  0  0  0  0  0
  189.8610  174.8470  143.5870 N   0  0  0  0  0  0  0  0  0  0  0  0
  187.2480  176.4830  141.8050 N   0  0  0  0  0  0  0  0  0  0  0  0
  192.8120  172.1800  142.0780 C   0  0  2  0  0  3  0  0  0  0  0  0
  196.0350  173.6030  143.0060 C   0  0  0  0  0  2  0  0  0  0  0  0
  187.7660  177.0490  144.2330 C   0  0  2  0  0  3  0  0  0  0  0  0
  190.7030  173.5230  141.7300 C   0  0  0  0  0  0  0  0  0  0  0  0
  193.4340  171.7750  144.4950 N   0  0  0  0  0  2  0  0  0  0  0  0
  190.7540  173.9260  143.0940 C   0  0  0  0  0  0  0  0  0  0  0  0
  190.5900  172.6480  139.0950 C   0  0  0  0  0  3  0  0  0  0  0  0
  190.1240  176.6850  145.2440 C   0  0  0  0  0  2  0  0  0  0  0  0
  191.5590  172.1950  139.9380 N   0  0  0  0  0  0  0  0  0  0  0  0
  189.8440  175.1970  145.0090 C   0  0  0  0  0  2  0  0  0  0  0  0
  187.9490  176.2880  142.9510 C   0  0  0  0  0  0  0  0  0  0  0  0
  189.6430  173.5760  139.5380 C   0  0  0  0  0  3  0  0  0  0  0  0
  188.8090  174.9420  141.3830 C   0  0  0  0  0  0  0  0  0  0  0  0
  186.7130  178.1380  144.0850 C   0  0  0  0  0  2  0  0  0  0  0  0
  185.3240  177.5620  144.3020 C   0  0  0  0  0  2  0  0  0  0  0  0
  185.9460  177.4470  147.6440 C   0  0  0  0  0  2  0  0  0  0  0  0
  185.6110  179.1340  146.0160 C   0  0  0  0  0  2  0  0  0  0  0  0
  184.8030  177.9990  145.5870 N   0  0  0  0  0  0  0  0  0  0  0  0
  185.9300  178.9390  147.4760 C   0  0  0  0  0  2  0  0  0  0  0  0
  185.0550  176.9220  146.5380 C   0  0  0  0  0  2  0  0  0  0  0  0
  1 27  2  0  0  0  0
  1 18  1  0  0  0  0
  2 27  1  0  0  0  0
  2 14  2  0  0  0  0
  3  7  1  0  0  0  0
  4 18  1  0  0  0  0
  4 15  1  0  0  0  0
  5 11  2  0  0  0  0
  5 19  1  0  0  0  0
  7  6  1  0  0  0  0
  8 16  1  0  0  0  0
  9 25  2  0  0  0  0
  9 13  1  0  0  0  0
 10 22  1  0  0  0  0
 12  8  1  0  0  0  0
 13 24  1  0  0  0  0
 14 25  1  0  0  0  0
 15 12  1  6  0  0  0
 15  5  1  0  0  0  0
 16  3  1  0  0  0  0
 17 28  1  6  0  0  0
 17 10  1  0  0  0  0
 18 20  2  0  0  0  0
 19  6  1  0  0  0  0
 20 13  1  0  0  0  0
 20 11  1  0  0  0  0
 21 26  2  0  0  0  0
 21 23  1  0  0  0  0
 23  4  2  0  0  0  0
 24 22  1  0  0  0  0
 25 17  1  0  0  0  0
 26  1  1  0  0  0  0
 27  9  1  0  0  0  0
 28 29  1  0  0  0  0
 29 32  1  0  0  0  0
 31 33  1  0  0  0  0
 32 31  1  0  0  0  0
 32 34  1  0  0  0  0
 33 30  1  0  0  0  0
 34 30  1  0  0  0  0
M  END
>  <MODEL>
6

>  <REMARK>
 VINA RESULT:      -7.5      1.587      4.005
  Name = 
  3 active torsions:
  status: ('A' for Active; 'I' for Inactive)
    1  A    between atoms: C_17  and  C_28
    2  A    between atoms: C_28  and  C_29
    3  A    between atoms: C_29  and  N_32
                            x       y       z     vdW  Elec       q    Type
                         _______ _______ _______ _____ _____    ______ ____

>  <TORSDO>
F 3

$$$$
=
 OpenBabel11112417563D

 34 40  0  0  1  0  0  0  0  0999 V2000
  190.9050  173.3870  141.5660 C   0  0  0  0  0  0  0  0  0  0  0  0
  188.5680  174.2810  142.0330 C   0  0  0  0  0  3  0  0  0  0  0  0
  196.6770  176.4150  141.5980 C   0  0  0  0  0  2  0  0  0  0  0  0
  193.2610  172.8540  141.3320 C   0  0  0  0  0  0  0  0  0  0  0  0
  194.9170  173.9870  142.8350 C   0  0  0  0  0  0  0  0  0  0  0  0
  196.7620  175.3460  143.8760 C   0  0  0  0  0  2  0  0  0  0  0  0
  197.5600  176.0490  142.7840 C   0  0  0  0  0  2  0  0  0  0  0  0
  196.7390  174.1670  140.4240 C   0  0  0  0  0  2  0  0  0  0  0  0
  190.3240  175.1630  143.1240 C   0  0  0  0  0  0  0  0  0  0  0  0
  190.1190  178.0580  143.9230 C   0  0  0  0  0  2  0  0  0  0  0  0
  193.9490  174.6780  143.3680 N   0  0  0  0  0  0  0  0  0  0  0  0
  195.2290  173.9680  140.3680 C   0  0  0  0  0  2  0  0  0  0  0  0
  191.6150  175.3690  143.4950 N   0  0  0  0  0  0  0  0  0  0  0  0
  188.1150  175.2800  142.8410 N   0  0  0  0  0  0  0  0  0  0  0  0
  194.7120  173.1790  141.5710 C   0  0  2  0  0  3  0  0  0  0  0  0
  197.0920  175.6490  140.3450 C   0  0  0  0  0  2  0  0  0  0  0  0
  189.1340  176.9960  144.4220 C   0  0  2  0  0  3  0  0  0  0  0  0
  192.2530  173.6180  141.9340 C   0  0  0  0  0  0  0  0  0  0  0  0
  196.2370  174.0870  143.3700 N   0  0  0  0  0  2  0  0  0  0  0  0
  192.5890  174.5930  142.9150 C   0  0  0  0  0  0  0  0  0  0  0  0
  191.6330  171.6500  140.0720 C   0  0  0  0  0  3  0  0  0  0  0  0
  191.6030  177.7560  144.2020 C   0  0  0  0  0  2  0  0  0  0  0  0
  192.9270  171.8970  140.4210 N   0  0  0  0  0  0  0  0  0  0  0  0
  191.9370  176.3070  144.5730 C   0  0  0  0  0  2  0  0  0  0  0  0
  189.1780  175.8140  143.4960 C   0  0  0  0  0  0  0  0  0  0  0  0
  190.5940  172.3960  140.6350 C   0  0  0  0  0  3  0  0  0  0  0  0
  189.9400  174.1800  142.1700 C   0  0  0  0  0  0  0  0  0  0  0  0
  187.7330  177.5840  144.5050 C   0  0  0  0  0  2  0  0  0  0  0  0
  186.9620  176.9520  145.6520 C   0  0  0  0  0  2  0  0  0  0  0  0
  184.0640  178.6670  146.1320 C   0  0  0  0  0  2  0  0  0  0  0  0
  185.3190  177.9010  144.2750 C   0  0  0  0  0  2  0  0  0  0  0  0
  185.5420  176.9270  145.3370 N   0  0  0  0  0  0  0  0  0  0  0  0
  184.0820  178.6850  144.6310 C   0  0  0  0  0  2  0  0  0  0  0  0
  184.8370  177.4230  146.5150 C   0  0  0  0  0  2  0  0  0  0  0  0
  1 18  1  0  0  0  0
  1 27  2  0  0  0  0
  2 27  1  0  0  0  0
  2 14  2  0  0  0  0
  3  7  1  0  0  0  0
  4 15  1  0  0  0  0
  4 18  1  0  0  0  0
  5 11  2  0  0  0  0
  5 19  1  0  0  0  0
  7  6  1  0  0  0  0
  9 13  1  0  0  0  0
  9 25  2  0  0  0  0
 10 22  1  0  0  0  0
 10 17  1  0  0  0  0
 12  8  1  0  0  0  0
 13 24  1  0  0  0  0
 14 25  1  0  0  0  0
 15 12  1  6  0  0  0
 15  5  1  0  0  0  0
 16  8  1  0  0  0  0
 16  3  1  0  0  0  0
 17 28  1  6  0  0  0
 18 20  2  0  0  0  0
 19  6  1  0  0  0  0
 20 11  1  0  0  0  0
 20 13  1  0  0  0  0
 21 23  1  0  0  0  0
 21 26  2  0  0  0  0
 22 24  1  0  0  0  0
 23  4  2  0  0  0  0
 25 17  1  0  0  0  0
 26  1  1  0  0  0  0
 27  9  1  0  0  0  0
 28 29  1  0  0  0  0
 30 34  1  0  0  0  0
 31 33  1  0  0  0  0
 31 32  1  0  0  0  0
 32 29  1  0  0  0  0
 32 34  1  0  0  0  0
 33 30  1  0  0  0  0
M  END
>  <MODEL>
7

>  <REMARK>
 VINA RESULT:      -7.5      2.445      4.596
  Name = 
  3 active torsions:
  status: ('A' for Active; 'I' for Inactive)
    1  A    between atoms: C_17  and  C_28
    2  A    between atoms: C_28  and  C_29
    3  A    between atoms: C_29  and  N_32
                            x       y       z     vdW  Elec       q    Type
                         _______ _______ _______ _____ _____    ______ ____

>  <TORSDO>
F 3

$$$$
=
 OpenBabel11112417563D

 34 40  0  0  1  0  0  0  0  0999 V2000
  188.7130  173.9740  140.2140 C   0  0  0  0  0  0  0  0  0  0  0  0
  187.7560  176.0840  141.2650 C   0  0  0  0  0  3  0  0  0  0  0  0
  194.0360  170.5310  141.7310 C   0  0  0  0  0  2  0  0  0  0  0  0
  189.8150  171.9110  139.5630 C   0  0  0  0  0  0  0  0  0  0  0  0
  190.8160  170.4570  141.3430 C   0  0  0  0  0  0  0  0  0  0  0  0
  192.2950  169.1230  142.8820 C   0  0  0  0  0  2  0  0  0  0  0  0
  193.7380  169.1930  142.3950 C   0  0  0  0  0  2  0  0  0  0  0  0
  193.1140  169.9780  139.4320 C   0  0  0  0  0  2  0  0  0  0  0  0
  188.8390  174.6010  142.5600 C   0  0  0  0  0  0  0  0  0  0  0  0
  190.2900  175.6920  144.9620 C   0  0  0  0  0  2  0  0  0  0  0  0
  190.4750  171.3360  142.2430 N   0  0  0  0  0  0  0  0  0  0  0  0
  192.1430  171.1500  139.3570 C   0  0  0  0  0  2  0  0  0  0  0  0
  189.5430  173.4890  142.9020 N   0  0  0  0  0  0  0  0  0  0  0  0
  187.7870  176.5660  142.5390 N   0  0  0  0  0  0  0  0  0  0  0  0
  190.7510  170.7700  139.8630 C   0  0  2  0  0  3  0  0  0  0  0  0
  194.3490  170.3500  140.2480 C   0  0  0  0  0  2  0  0  0  0  0  0
  188.7780  175.8510  144.7730 C   0  0  2  0  0  3  0  0  0  0  0  0
  189.4670  172.8270  140.5640 C   0  0  0  0  0  0  0  0  0  0  0  0
  191.3870  169.2120  141.7490 N   0  0  0  0  0  2  0  0  0  0  0  0
  189.8520  172.5870  141.9130 C   0  0  0  0  0  0  0  0  0  0  0  0
  188.6670  173.2180  137.9320 C   0  0  0  0  0  3  0  0  0  0  0  0
  190.8050  174.2410  144.9110 C   0  0  0  0  0  2  0  0  0  0  0  0
  189.4100  172.1300  138.2800 N   0  0  0  0  0  0  0  0  0  0  0  0
  189.8490  173.2070  144.3070 C   0  0  0  0  0  2  0  0  0  0  0  0
  188.4460  175.6710  143.3190 C   0  0  0  0  0  0  0  0  0  0  0  0
  188.3080  174.1670  138.8930 C   0  0  0  0  0  3  0  0  0  0  0  0
  188.4090  174.8660  141.2310 C   0  0  0  0  0  0  0  0  0  0  0  0
  188.3320  177.2150  145.2790 C   0  0  0  0  0  2  0  0  0  0  0  0
  187.1670  177.0650  146.2440 C   0  0  0  0  0  2  0  0  0  0  0  0
  184.0670  178.4580  146.3810 C   0  0  0  0  0  2  0  0  0  0  0  0
  185.8830  178.4560  144.8610 C   0  0  0  0  0  2  0  0  0  0  0  0
  185.9110  177.1540  145.5170 N   0  0  0  0  0  0  0  0  0  0  0  0
  184.5100  179.0420  145.0710 C   0  0  0  0  0  2  0  0  0  0  0  0
  184.8430  177.1650  146.5130 C   0  0  0  0  0  2  0  0  0  0  0  0
  1 18  1  0  0  0  0
  1 27  2  0  0  0  0
  2 14  2  0  0  0  0
  3  7  1  0  0  0  0
  4 15  1  0  0  0  0
  4 18  1  0  0  0  0
  5 19  1  0  0  0  0
  5 11  2  0  0  0  0
  7  6  1  0  0  0  0
  8 16  1  0  0  0  0
  9 13  1  0  0  0  0
  9 25  2  0  0  0  0
 12  8  1  0  0  0  0
 13 24  1  0  0  0  0
 14 25  1  0  0  0  0
 15 12  1  1  0  0  0
 15  5  1  0  0  0  0
 16  3  1  0  0  0  0
 17 10  1  0  0  0  0
 17 28  1  6  0  0  0
 18 20  2  0  0  0  0
 19  6  1  0  0  0  0
 20 11  1  0  0  0  0
 20 13  1  0  0  0  0
 21 23  1  0  0  0  0
 21 26  2  0  0  0  0
 22 10  1  0  0  0  0
 23  4  2  0  0  0  0
 24 22  1  0  0  0  0
 25 17  1  0  0  0  0
 26  1  1  0  0  0  0
 27  2  1  0  0  0  0
 27  9  1  0  0  0  0
 28 29  1  0  0  0  0
 30 34  1  0  0  0  0
 31 33  1  0  0  0  0
 31 32  1  0  0  0  0
 32 29  1  0  0  0  0
 32 34  1  0  0  0  0
 33 30  1  0  0  0  0
M  END
>  <MODEL>
8

>  <REMARK>
 VINA RESULT:      -7.3      1.993      4.334
  Name = 
  3 active torsions:
  status: ('A' for Active; 'I' for Inactive)
    1  A    between atoms: C_17  and  C_28
    2  A    between atoms: C_28  and  C_29
    3  A    between atoms: C_29  and  N_32
                            x       y       z     vdW  Elec       q    Type
                         _______ _______ _______ _____ _____    ______ ____

>  <TORSDO>
F 3

$$$$
=
 OpenBabel11112417563D

 34 40  0  0  1  0  0  0  0  0999 V2000
  187.2680  176.1140  139.9200 C   0  0  0  0  0  0  0  0  0  0  0  0
  186.7070  177.6330  141.8840 C   0  0  0  0  0  3  0  0  0  0  0  0
  192.4470  172.2970  138.8700 C   0  0  0  0  0  2  0  0  0  0  0  0
  188.0470  174.4760  138.3060 C   0  0  0  0  0  0  0  0  0  0  0  0
  189.2160  172.4190  139.1350 C   0  0  0  0  0  0  0  0  0  0  0  0
  190.8200  170.5630  139.6980 C   0  0  0  0  0  2  0  0  0  0  0  0
  192.1530  170.8080  139.0010 C   0  0  0  0  0  2  0  0  0  0  0  0
  191.0840  172.7260  136.7730 C   0  0  0  0  0  2  0  0  0  0  0  0
  187.8670  175.7420  142.2490 C   0  0  0  0  0  0  0  0  0  0  0  0
  189.8150  175.7590  144.5440 C   0  0  0  0  0  2  0  0  0  0  0  0
  189.1210  172.8650  140.3550 N   0  0  0  0  0  0  0  0  0  0  0  0
  190.2240  173.8380  137.3590 C   0  0  0  0  0  2  0  0  0  0  0  0
  188.5180  174.5800  141.9790 N   0  0  0  0  0  0  0  0  0  0  0  0
  187.0070  177.5610  143.2110 N   0  0  0  0  0  0  0  0  0  0  0  0
  188.9160  173.3020  137.9420 C   0  0  2  0  0  3  0  0  0  0  0  0
  192.4730  172.7250  137.4050 C   0  0  0  0  0  2  0  0  0  0  0  0
  188.3130  175.9960  144.7380 C   0  0  2  0  0  3  0  0  0  0  0  0
  187.9670  174.9160  139.6350 C   0  0  0  0  0  0  0  0  0  0  0  0
  189.7370  171.1100  138.8970 N   0  0  0  0  0  2  0  0  0  0  0  0
  188.5630  174.1490  140.6750 C   0  0  0  0  0  0  0  0  0  0  0  0
  186.7490  176.3410  137.5840 C   0  0  0  0  0  3  0  0  0  0  0  0
  190.1800  174.4470  143.8260 C   0  0  0  0  0  2  0  0  0  0  0  0
  187.4410  175.1970  137.3220 N   0  0  0  0  0  0  0  0  0  0  0  0
  189.0430  173.7530  143.0680 C   0  0  0  0  0  2  0  0  0  0  0  0
  187.7120  176.4200  143.4280 C   0  0  0  0  0  0  0  0  0  0  0  0
  186.6540  176.8270  138.8910 C   0  0  0  0  0  3  0  0  0  0  0  0
  187.2320  176.5240  141.2440 C   0  0  0  0  0  0  0  0  0  0  0  0
  188.0880  177.0460  145.8170 C   0  0  0  0  0  2  0  0  0  0  0  0
  187.4440  176.4160  147.0400 C   0  0  0  0  0  2  0  0  0  0  0  0
  185.5580  179.1020  146.1440 C   0  0  0  0  0  2  0  0  0  0  0  0
  185.1910  176.7910  146.5130 C   0  0  0  0  0  2  0  0  0  0  0  0
  186.2640  177.1750  147.4220 N   0  0  0  0  0  0  0  0  0  0  0  0
  184.4860  178.0520  146.0840 C   0  0  0  0  0  2  0  0  0  0  0  0
  186.5560  178.5800  147.1560 C   0  0  0  0  0  2  0  0  0  0  0  0
  1 27  2  0  0  0  0
  2 14  2  0  0  0  0
  3  7  1  0  0  0  0
  4 18  1  0  0  0  0
  5 11  2  0  0  0  0
  7  6  1  0  0  0  0
  8 12  1  0  0  0  0
  8 16  1  0  0  0  0
  9 25  2  0  0  0  0
 10 17  1  0  0  0  0
 11 20  1  0  0  0  0
 13  9  1  0  0  0  0
 13 24  1  0  0  0  0
 14 25  1  0  0  0  0
 15 12  1  1  0  0  0
 15  4  1  0  0  0  0
 15  5  1  0  0  0  0
 16  3  1  0  0  0  0
 17 28  1  1  0  0  0
 18  1  1  0  0  0  0
 18 20  2  0  0  0  0
 19  5  1  0  0  0  0
 19  6  1  0  0  0  0
 20 13  1  0  0  0  0
 21 26  2  0  0  0  0
 22 10  1  0  0  0  0
 23 21  1  0  0  0  0
 23  4  2  0  0  0  0
 24 22  1  0  0  0  0
 25 17  1  0  0  0  0
 26  1  1  0  0  0  0
 27  2  1  0  0  0  0
 27  9  1  0  0  0  0
 28 29  1  0  0  0  0
 29 32  1  0  0  0  0
 30 34  1  0  0  0  0
 31 32  1  0  0  0  0
 33 30  1  0  0  0  0
 33 31  1  0  0  0  0
 34 32  1  0  0  0  0
M  END
>  <MODEL>
9

>  <REMARK>
 VINA RESULT:      -7.3      2.442      4.957
  Name = 
  3 active torsions:
  status: ('A' for Active; 'I' for Inactive)
    1  A    between atoms: C_17  and  C_28
    2  A    between atoms: C_28  and  C_29
    3  A    between atoms: C_29  and  N_32
                            x       y       z     vdW  Elec       q    Type
                         _______ _______ _______ _____ _____    ______ ____

>  <TORSDO>
F 3

$$$$
