=
 OpenBabel11112416123D

 30 35  0  0  1  0  0  0  0  0999 V2000
  188.0620  177.2030  145.8570 C   0  0  0  0  0  0  0  0  0  0  0  0
  186.1870  178.2540  147.1100 C   0  0  0  0  0  0  0  0  0  0  0  0
  185.8270  177.1690  142.3100 N   0  0  0  0  0  2  0  0  0  0  0  0
  188.5740  176.6760  144.6450 C   0  0  0  0  0  0  0  0  0  0  0  0
  188.8650  177.1750  147.0020 O   0  0  0  0  0  0  0  0  0  0  0  0
  191.8260  175.5800  145.8640 O   0  0  0  0  0  0  0  0  0  0  0  0
  189.5550  174.2810  142.9170 C   0  0  1  0  0  3  0  0  0  0  0  0
  190.7110  176.1680  145.8140 C   0  0  0  0  0  0  0  0  0  0  0  0
  188.3140  174.7250  142.1190 C   0  0  2  0  0  3  0  0  0  0  0  0
  186.7380  176.5500  141.3540 C   0  0  1  0  0  3  0  0  0  0  0  0
  190.2830  177.0460  146.9530 C   0  0  2  0  0  3  0  0  0  0  0  0
  189.8930  176.0780  144.6340 N   0  0  0  0  0  0  0  0  0  0  0  0
  184.8860  178.7660  147.1130 C   0  0  0  0  0  3  0  0  0  0  0  0
  188.6150  174.2330  140.7460 C   0  0  0  0  0  3  0  0  0  0  0  0
  190.3350  173.3880  141.9580 C   0  0  0  0  0  2  0  0  0  0  0  0
  186.9050  178.2760  148.3010 O   0  0  0  0  0  1  0  0  0  0  0  0
  186.4840  177.2270  143.5600 C   0  0  0  0  0  0  0  0  0  0  0  0
  184.1200  178.7700  145.9470 C   0  0  0  0  0  3  0  0  0  0  0  0
  186.7410  177.7300  145.9170 C   0  0  0  0  0  0  0  0  0  0  0  0
  187.7470  176.7060  143.5100 C   0  0  0  0  0  0  0  0  0  0  0  0
  187.0370  177.5240  140.2320 C   0  0  0  0  0  1  0  0  0  0  0  0
  188.0380  176.2310  142.1250 C   0  0  1  0  0  3  0  0  0  0  0  0
  189.6780  173.5290  140.6900 N   0  0  0  0  0  0  0  0  0  0  0  0
  191.0000  176.3810  142.4340 C   0  0  0  0  0  1  0  0  0  0  0  0
  184.6480  178.2600  144.7630 C   0  0  0  0  0  3  0  0  0  0  0  0
  185.9470  177.7410  144.7380 C   0  0  0  0  0  0  0  0  0  0  0  0
  190.4640  175.3960  143.4670 C   0  0  2  0  0  3  0  0  0  0  0  0
  190.7690  176.5180  148.2210 N   0  0  0  0  0  2  0  0  0  0  0  0
  191.3480  178.2410  149.8360 C   0  0  0  0  0  1  0  0  0  0  0  0
  191.8380  177.3900  148.6800 C   0  0  0  0  0  2  0  0  0  0  0  0
  1 19  1  0  0  0  0
  1  5  1  0  0  0  0
  2 13  1  0  0  0  0
  2 16  1  0  0  0  0
  3 17  1  0  0  0  0
  4  1  2  0  0  0  0
  7 15  1  6  0  0  0
  7 27  1  0  0  0  0
  8  6  2  0  0  0  0
  8 11  1  0  0  0  0
  9 14  1  6  0  0  0
  9 22  1  0  0  0  0
  9  7  1  0  0  0  0
 10 21  1  6  0  0  0
 10 22  1  0  0  0  0
 10  3  1  0  0  0  0
 11  5  1  0  0  0  0
 11 28  1  1  0  0  0
 12  4  1  0  0  0  0
 12  8  1  0  0  0  0
 17 26  1  0  0  0  0
 18 13  2  0  0  0  0
 19  2  2  0  0  0  0
 20 17  2  0  0  0  0
 20  4  1  0  0  0  0
 22 20  1  1  0  0  0
 23 14  2  0  0  0  0
 23 15  1  0  0  0  0
 25 18  1  0  0  0  0
 26 25  2  0  0  0  0
 26 19  1  0  0  0  0
 27 24  1  6  0  0  0
 27 12  1  0  0  0  0
 28 30  1  0  0  0  0
 30 29  1  0  0  0  0
M  END
>  <MODEL>
1

>  <REMARK>
 VINA RESULT:      -8.4      0.000      0.000
  Name = 
  2 active torsions:
  status: ('A' for Active; 'I' for Inactive)
    1  A    between atoms: C_11  and  N_28
    2  A    between atoms: N_28  and  C_30
                            x       y       z     vdW  Elec       q    Type
                         _______ _______ _______ _____ _____    ______ ____

>  <TORSDO>
F 2

$$$$
=
 OpenBabel11112416123D

 30 35  0  0  1  0  0  0  0  0999 V2000
  187.2280  177.3040  144.2480 C   0  0  0  0  0  0  0  0  0  0  0  0
  185.4360  178.4620  145.5280 C   0  0  0  0  0  0  0  0  0  0  0  0
  189.7470  177.2440  147.5970 N   0  0  0  0  0  2  0  0  0  0  0  0
  188.5310  176.7510  144.2030 C   0  0  0  0  0  0  0  0  0  0  0  0
  186.4460  177.2940  143.0870 O   0  0  0  0  0  0  0  0  0  0  0  0
  188.5960  175.7960  140.6900 O   0  0  0  0  0  0  0  0  0  0  0  0
  191.4730  176.7900  143.1910 C   0  0  1  0  0  3  0  0  0  0  0  0
  188.1580  176.1570  141.8160 C   0  0  0  0  0  0  0  0  0  0  0  0
  191.6850  176.9920  144.7040 C   0  0  2  0  0  3  0  0  0  0  0  0
  190.9500  176.5940  147.0910 C   0  0  1  0  0  3  0  0  0  0  0  0
  186.6890  176.4100  141.9950 C   0  0  2  0  0  3  0  0  0  0  0  0
  189.0410  176.2340  142.9500 N   0  0  0  0  0  0  0  0  0  0  0  0
  184.9910  179.0160  146.7320 C   0  0  0  0  0  3  0  0  0  0  0  0
  193.0700  176.4860  144.9110 C   0  0  0  0  0  3  0  0  0  0  0  0
  192.8460  176.3920  142.6570 C   0  0  0  0  0  2  0  0  0  0  0  0
  184.5810  178.4970  144.4320 O   0  0  0  0  0  1  0  0  0  0  0  0
  188.8180  177.3230  146.5350 C   0  0  0  0  0  0  0  0  0  0  0  0
  185.8060  179.0070  147.8640 C   0  0  0  0  0  3  0  0  0  0  0  0
  186.7280  177.8870  145.4450 C   0  0  0  0  0  0  0  0  0  0  0  0
  189.3020  176.7810  145.3780 C   0  0  0  0  0  0  0  0  0  0  0  0
  191.1980  175.3110  147.8610 C   0  0  0  0  0  1  0  0  0  0  0  0
  190.6840  176.2650  145.6060 C   0  0  1  0  0  3  0  0  0  0  0  0
  193.6600  176.1830  143.8210 N   0  0  0  0  0  0  0  0  0  0  0  0
  190.6090  174.3470  143.3230 C   0  0  0  0  0  1  0  0  0  0  0  0
  187.0790  178.4440  147.8030 C   0  0  0  0  0  3  0  0  0  0  0  0
  187.5450  177.8870  146.6080 C   0  0  0  0  0  0  0  0  0  0  0  0
  190.4150  175.7550  142.7690 C   0  0  2  0  0  3  0  0  0  0  0  0
  186.1100  176.9670  140.7800 N   0  0  0  0  0  2  0  0  0  0  0  0
  184.1080  178.3220  140.5300 C   0  0  0  0  0  1  0  0  0  0  0  0
  185.5000  178.2400  141.1260 C   0  0  0  0  0  2  0  0  0  0  0  0
  1 19  1  0  0  0  0
  2 13  1  0  0  0  0
  4  1  2  0  0  0  0
  4 20  1  0  0  0  0
  5  1  1  0  0  0  0
  6  8  2  0  0  0  0
  7 15  1  6  0  0  0
  7  9  1  0  0  0  0
  8 11  1  0  0  0  0
  8 12  1  0  0  0  0
  9 14  1  1  0  0  0
  9 22  1  0  0  0  0
 10  3  1  0  0  0  0
 10 21  1  1  0  0  0
 11 28  1  6  0  0  0
 11  5  1  0  0  0  0
 12  4  1  0  0  0  0
 13 18  2  0  0  0  0
 15 23  1  0  0  0  0
 16  2  1  0  0  0  0
 17 26  1  0  0  0  0
 17  3  1  0  0  0  0
 19  2  2  0  0  0  0
 19 26  1  0  0  0  0
 20 17  2  0  0  0  0
 22 20  1  6  0  0  0
 22 10  1  0  0  0  0
 23 14  2  0  0  0  0
 25 18  1  0  0  0  0
 26 25  2  0  0  0  0
 27 12  1  0  0  0  0
 27  7  1  0  0  0  0
 27 24  1  1  0  0  0
 28 30  1  0  0  0  0
 29 30  1  0  0  0  0
M  END
>  <MODEL>
2

>  <REMARK>
 VINA RESULT:      -8.3      2.198      5.277
  Name = 
  2 active torsions:
  status: ('A' for Active; 'I' for Inactive)
    1  A    between atoms: C_11  and  N_28
    2  A    between atoms: N_28  and  C_30
                            x       y       z     vdW  Elec       q    Type
                         _______ _______ _______ _____ _____    ______ ____

>  <TORSDO>
F 2

$$$$
=
 OpenBabel11112416123D

 30 35  0  0  1  0  0  0  0  0999 V2000
  187.7560  175.9310  141.6190 C   0  0  0  0  0  0  0  0  0  0  0  0
  189.2640  174.0560  140.9860 C   0  0  0  0  0  0  0  0  0  0  0  0
  188.9180  175.6660  145.6370 N   0  0  0  0  0  2  0  0  0  0  0  0
  187.2170  176.7770  142.6190 C   0  0  0  0  0  0  0  0  0  0  0  0
  187.3150  176.0740  140.2980 O   0  0  0  0  0  0  0  0  0  0  0  0
  184.8990  178.6660  140.5400 O   0  0  0  0  0  0  0  0  0  0  0  0
  184.8360  177.7490  144.3710 C   0  0  1  0  0  3  0  0  0  0  0  0
  185.8500  177.9070  140.8730 C   0  0  0  0  0  0  0  0  0  0  0  0
  185.7810  177.1890  145.4520 C   0  0  2  0  0  3  0  0  0  0  0  0
  188.1220  176.7070  146.2780 C   0  0  1  0  0  3  0  0  0  0  0  0
  186.6910  177.2610  139.8120 C   0  0  2  0  0  3  0  0  0  0  0  0
  186.1900  177.7340  142.2610 N   0  0  0  0  0  0  0  0  0  0  0  0
  190.2050  173.0950  141.3670 C   0  0  0  0  0  3  0  0  0  0  0  0
  185.3690  177.9410  146.6690 C   0  0  0  0  0  3  0  0  0  0  0  0
  183.8340  178.6060  145.1380 C   0  0  0  0  0  2  0  0  0  0  0  0
  188.8950  174.1210  139.6470 O   0  0  0  0  0  1  0  0  0  0  0  0
  188.5980  175.6620  144.2610 C   0  0  0  0  0  0  0  0  0  0  0  0
  190.6130  172.9850  142.6960 C   0  0  0  0  0  3  0  0  0  0  0  0
  188.7110  174.9310  141.9530 C   0  0  0  0  0  0  0  0  0  0  0  0
  187.6670  176.6090  143.9390 C   0  0  0  0  0  0  0  0  0  0  0  0
  189.0420  177.7420  146.8960 C   0  0  0  0  0  1  0  0  0  0  0  0
  187.2750  177.3630  145.1660 C   0  0  1  0  0  3  0  0  0  0  0  0
  184.3410  178.6730  146.4790 N   0  0  0  0  0  0  0  0  0  0  0  0
  186.3160  179.7650  143.6810 C   0  0  0  0  0  1  0  0  0  0  0  0
  190.0820  173.8380  143.6620 C   0  0  0  0  0  3  0  0  0  0  0  0
  189.1370  174.8050  143.3030 C   0  0  0  0  0  0  0  0  0  0  0  0
  185.4820  178.5680  143.2380 C   0  0  2  0  0  3  0  0  0  0  0  0
  185.8880  176.9430  138.6400 N   0  0  0  0  0  2  0  0  0  0  0  0
  186.0670  176.0410  136.3890 C   0  0  0  0  0  1  0  0  0  0  0  0
  186.6940  176.1020  137.7690 C   0  0  0  0  0  2  0  0  0  0  0  0
  1 19  2  0  0  0  0
  1  4  1  0  0  0  0
  2 13  2  0  0  0  0
  2 19  1  0  0  0  0
  3 10  1  0  0  0  0
  4 20  2  0  0  0  0
  5  1  1  0  0  0  0
  6  8  2  0  0  0  0
  7 15  1  1  0  0  0
  7  9  1  0  0  0  0
  8 12  1  0  0  0  0
  9 14  1  1  0  0  0
 10 21  1  6  0  0  0
 11 28  1  6  0  0  0
 11  5  1  0  0  0  0
 11  8  1  0  0  0  0
 12  4  1  0  0  0  0
 12 27  1  0  0  0  0
 13 18  1  0  0  0  0
 15 23  1  0  0  0  0
 16  2  1  0  0  0  0
 17  3  1  0  0  0  0
 18 25  2  0  0  0  0
 19 26  1  0  0  0  0
 20 17  1  0  0  0  0
 22 20  1  6  0  0  0
 22  9  1  0  0  0  0
 22 10  1  0  0  0  0
 23 14  2  0  0  0  0
 26 25  1  0  0  0  0
 26 17  2  0  0  0  0
 27 24  1  1  0  0  0
 27  7  1  0  0  0  0
 29 30  1  0  0  0  0
 30 28  1  0  0  0  0
M  END
>  <MODEL>
3

>  <REMARK>
 VINA RESULT:      -8.3      2.947      7.497
  Name = 
  2 active torsions:
  status: ('A' for Active; 'I' for Inactive)
    1  A    between atoms: C_11  and  N_28
    2  A    between atoms: N_28  and  C_30
                            x       y       z     vdW  Elec       q    Type
                         _______ _______ _______ _____ _____    ______ ____

>  <TORSDO>
F 2

$$$$
=
 OpenBabel11112416123D

 30 35  0  0  1  0  0  0  0  0999 V2000
  188.2110  175.9150  142.0600 C   0  0  0  0  0  0  0  0  0  0  0  0
  186.6570  176.9100  140.3920 C   0  0  0  0  0  0  0  0  0  0  0  0
  186.4980  178.1480  145.1650 N   0  0  0  0  0  2  0  0  0  0  0  0
  188.6760  175.8320  143.3960 C   0  0  0  0  0  0  0  0  0  0  0  0
  188.8370  175.1430  141.0740 O   0  0  0  0  0  0  0  0  0  0  0  0
  191.3990  173.4700  142.8780 O   0  0  0  0  0  0  0  0  0  0  0  0
  190.8670  176.3160  145.5510 C   0  0  1  0  0  3  0  0  0  0  0  0
  190.3540  174.1450  142.6680 C   0  0  0  0  0  0  0  0  0  0  0  0
  189.7430  177.2310  146.0710 C   0  0  2  0  0  3  0  0  0  0  0  0
  187.2800  177.7460  146.3290 C   0  0  1  0  0  3  0  0  0  0  0  0
  189.6140  173.9850  141.3720 C   0  0  2  0  0  3  0  0  0  0  0  0
  189.8160  174.9910  143.7000 N   0  0  0  0  0  0  0  0  0  0  0  0
  185.5980  177.7790  140.1100 C   0  0  0  0  0  3  0  0  0  0  0  0
  190.0450  177.3270  147.5260 C   0  0  0  0  0  3  0  0  0  0  0  0
  191.8220  176.1640  146.7310 C   0  0  0  0  0  2  0  0  0  0  0  0
  187.2080  176.1820  139.3420 O   0  0  0  0  0  1  0  0  0  0  0  0
  186.9990  177.4510  144.0440 C   0  0  0  0  0  0  0  0  0  0  0  0
  185.0060  178.5320  141.1240 C   0  0  0  0  0  3  0  0  0  0  0  0
  187.1420  176.7880  141.7170 C   0  0  0  0  0  0  0  0  0  0  0  0
  188.0390  176.6240  144.3670 C   0  0  0  0  0  0  0  0  0  0  0  0
  186.3710  177.0940  147.3520 C   0  0  0  0  0  1  0  0  0  0  0  0
  188.3200  176.7200  145.8290 C   0  0  1  0  0  3  0  0  0  0  0  0
  191.1450  176.7640  147.8460 N   0  0  0  0  0  0  0  0  0  0  0  0
  189.6620  174.0620  145.9950 C   0  0  0  0  0  1  0  0  0  0  0  0
  185.4680  178.4260  142.4340 C   0  0  0  0  0  3  0  0  0  0  0  0
  186.5280  177.5640  142.7370 C   0  0  0  0  0  0  0  0  0  0  0  0
  190.4490  174.9320  145.0210 C   0  0  2  0  0  3  0  0  0  0  0  0
  190.5410  173.7260  140.2790 N   0  0  0  0  0  2  0  0  0  0  0  0
  189.0800  172.1910  139.0880 C   0  0  0  0  0  1  0  0  0  0  0  0
  189.7550  173.5490  139.0690 C   0  0  0  0  0  2  0  0  0  0  0  0
  1  4  1  0  0  0  0
  2 19  1  0  0  0  0
  3 10  1  0  0  0  0
  4 12  1  0  0  0  0
  4 20  2  0  0  0  0
  5 11  1  0  0  0  0
  5  1  1  0  0  0  0
  7  9  1  0  0  0  0
  7 15  1  1  0  0  0
  8  6  2  0  0  0  0
  8 12  1  0  0  0  0
  9 14  1  1  0  0  0
 10 21  1  1  0  0  0
 11 28  1  6  0  0  0
 11  8  1  0  0  0  0
 12 27  1  0  0  0  0
 13  2  2  0  0  0  0
 13 18  1  0  0  0  0
 14 23  2  0  0  0  0
 15 23  1  0  0  0  0
 16  2  1  0  0  0  0
 17 20  1  0  0  0  0
 17  3  1  0  0  0  0
 18 25  2  0  0  0  0
 19  1  2  0  0  0  0
 19 26  1  0  0  0  0
 22 20  1  6  0  0  0
 22  9  1  0  0  0  0
 22 10  1  0  0  0  0
 25 26  1  0  0  0  0
 26 17  2  0  0  0  0
 27  7  1  0  0  0  0
 27 24  1  1  0  0  0
 30 29  1  0  0  0  0
 30 28  1  0  0  0  0
M  END
>  <MODEL>
4

>  <REMARK>
 VINA RESULT:      -8.3      2.466      5.830
  Name = 
  2 active torsions:
  status: ('A' for Active; 'I' for Inactive)
    1  A    between atoms: C_11  and  N_28
    2  A    between atoms: N_28  and  C_30
                            x       y       z     vdW  Elec       q    Type
                         _______ _______ _______ _____ _____    ______ ____

>  <TORSDO>
F 2

$$$$
=
 OpenBabel11112416123D

 30 35  0  0  1  0  0  0  0  0999 V2000
  188.5450  175.8930  143.5270 C   0  0  0  0  0  0  0  0  0  0  0  0
  186.2860  176.8380  143.9660 C   0  0  0  0  0  0  0  0  0  0  0  0
  189.9450  177.1990  147.2560 N   0  0  0  0  0  2  0  0  0  0  0  0
  189.8790  175.6780  143.9510 C   0  0  0  0  0  0  0  0  0  0  0  0
  188.1510  175.4330  142.2650 O   0  0  0  0  0  0  0  0  0  0  0  0
  191.1330  174.0050  140.9680 O   0  0  0  0  0  0  0  0  0  0  0  0
  192.9360  176.2030  143.6970 C   0  0  1  0  0  3  0  0  0  0  0  0
  190.3290  174.4910  141.8100 C   0  0  0  0  0  0  0  0  0  0  0  0
  192.6580  176.7840  145.0960 C   0  0  2  0  0  3  0  0  0  0  0  0
  191.3370  176.7640  147.2530 C   0  0  1  0  0  3  0  0  0  0  0  0
  188.8510  174.4140  141.5570 C   0  0  2  0  0  3  0  0  0  0  0  0
  190.8140  175.0330  143.0520 N   0  0  0  0  0  0  0  0  0  0  0  0
  185.4190  177.5220  144.8230 C   0  0  0  0  0  3  0  0  0  0  0  0
  193.9870  176.6890  145.7600 C   0  0  0  0  0  3  0  0  0  0  0  0
  194.4520  176.0410  143.6380 C   0  0  0  0  0  2  0  0  0  0  0  0
  185.7960  176.4180  142.7340 O   0  0  0  0  0  1  0  0  0  0  0  0
  189.3680  176.8100  146.0250 C   0  0  0  0  0  0  0  0  0  0  0  0
  185.8560  177.9660  146.0710 C   0  0  0  0  0  3  0  0  0  0  0  0
  187.6240  176.5900  144.3570 C   0  0  0  0  0  0  0  0  0  0  0  0
  190.2550  176.1560  145.2170 C   0  0  0  0  0  0  0  0  0  0  0  0
  191.5670  175.7860  148.3890 C   0  0  0  0  0  1  0  0  0  0  0  0
  191.5780  176.0570  145.9020 C   0  0  1  0  0  3  0  0  0  0  0  0
  194.9130  176.3020  144.9720 N   0  0  0  0  0  0  0  0  0  0  0  0
  192.5060  173.7170  144.3030 C   0  0  0  0  0  1  0  0  0  0  0  0
  187.1690  177.7300  146.4760 C   0  0  0  0  0  3  0  0  0  0  0  0
  188.0530  177.0500  145.6320 C   0  0  0  0  0  0  0  0  0  0  0  0
  192.2430  174.8740  143.3450 C   0  0  2  0  0  3  0  0  0  0  0  0
  188.5660  174.5260  140.1330 N   0  0  0  0  0  2  0  0  0  0  0  0
  188.5690  173.0630  138.1920 C   0  0  0  0  0  1  0  0  0  0  0  0
  188.1910  173.2060  139.6540 C   0  0  0  0  0  2  0  0  0  0  0  0
  1  4  2  0  0  0  0
  1 19  1  0  0  0  0
  2 19  2  0  0  0  0
  2 13  1  0  0  0  0
  4 20  1  0  0  0  0
  5  1  1  0  0  0  0
  6  8  2  0  0  0  0
  7 15  1  1  0  0  0
  7  9  1  0  0  0  0
  8 12  1  0  0  0  0
  9 14  1  1  0  0  0
  9 22  1  0  0  0  0
 10  3  1  0  0  0  0
 10 21  1  1  0  0  0
 11 28  1  6  0  0  0
 11  8  1  0  0  0  0
 11  5  1  0  0  0  0
 12 27  1  0  0  0  0
 12  4  1  0  0  0  0
 13 18  2  0  0  0  0
 15 23  1  0  0  0  0
 16  2  1  0  0  0  0
 17  3  1  0  0  0  0
 18 25  1  0  0  0  0
 19 26  1  0  0  0  0
 20 17  2  0  0  0  0
 22 20  1  6  0  0  0
 22 10  1  0  0  0  0
 23 14  2  0  0  0  0
 26 17  1  0  0  0  0
 26 25  2  0  0  0  0
 27  7  1  0  0  0  0
 27 24  1  1  0  0  0
 29 30  1  0  0  0  0
 30 28  1  0  0  0  0
M  END
>  <MODEL>
5

>  <REMARK>
 VINA RESULT:      -8.0      2.486      5.781
  Name = 
  2 active torsions:
  status: ('A' for Active; 'I' for Inactive)
    1  A    between atoms: C_11  and  N_28
    2  A    between atoms: N_28  and  C_30
                            x       y       z     vdW  Elec       q    Type
                         _______ _______ _______ _____ _____    ______ ____

>  <TORSDO>
F 2

$$$$
=
 OpenBabel11112416123D

 30 35  0  0  1  0  0  0  0  0999 V2000
  188.1720  175.6960  141.6620 C   0  0  0  0  0  0  0  0  0  0  0  0
  186.5210  177.5310  141.3500 C   0  0  0  0  0  0  0  0  0  0  0  0
  188.6240  176.6340  145.7220 N   0  0  0  0  0  2  0  0  0  0  0  0
  189.0580  174.9840  142.5080 C   0  0  0  0  0  0  0  0  0  0  0  0
  188.0780  175.3290  140.3150 O   0  0  0  0  0  0  0  0  0  0  0  0
  190.4260  172.6780  140.0440 O   0  0  0  0  0  0  0  0  0  0  0  0
  191.9340  174.1650  143.3670 C   0  0  1  0  0  3  0  0  0  0  0  0
  189.6680  173.5290  140.5840 C   0  0  0  0  0  0  0  0  0  0  0  0
  191.4670  174.9330  144.6180 C   0  0  2  0  0  3  0  0  0  0  0  0
  189.6120  175.6620  146.1750 C   0  0  1  0  0  3  0  0  0  0  0  0
  188.4800  174.0510  139.8290 C   0  0  2  0  0  3  0  0  0  0  0  0
  189.8790  173.9300  141.9500 N   0  0  0  0  0  0  0  0  0  0  0  0
  185.7870  178.5880  141.8960 C   0  0  0  0  0  3  0  0  0  0  0  0
  192.3170  174.3550  145.6940 C   0  0  0  0  0  3  0  0  0  0  0  0
  193.1600  173.3820  143.8280 C   0  0  0  0  0  2  0  0  0  0  0  0
  186.3530  177.2420  140.0000 O   0  0  0  0  0  1  0  0  0  0  0  0
  188.3960  176.4110  144.3460 C   0  0  0  0  0  0  0  0  0  0  0  0
  185.9150  178.9210  143.2450 C   0  0  0  0  0  3  0  0  0  0  0  0
  187.4070  176.7850  142.1650 C   0  0  0  0  0  0  0  0  0  0  0  0
  189.1420  175.3760  143.8550 C   0  0  0  0  0  0  0  0  0  0  0  0
  189.0050  174.7840  147.2530 C   0  0  0  0  0  1  0  0  0  0  0  0
  189.9780  174.7980  144.9480 C   0  0  1  0  0  3  0  0  0  0  0  0
  193.2020  173.5480  145.2530 N   0  0  0  0  0  0  0  0  0  0  0  0
  190.3200  172.1500  143.6210 C   0  0  0  0  0  1  0  0  0  0  0  0
  186.7810  178.1990  144.0630 C   0  0  0  0  0  3  0  0  0  0  0  0
  187.5260  177.1390  143.5360 C   0  0  0  0  0  0  0  0  0  0  0  0
  190.9130  173.2190  142.7100 C   0  0  2  0  0  3  0  0  0  0  0  0
  188.7740  174.1410  138.4050 N   0  0  0  0  0  2  0  0  0  0  0  0
  188.0790  175.2640  136.3640 C   0  0  0  0  0  1  0  0  0  0  0  0
  187.6890  174.8780  137.7780 C   0  0  0  0  0  2  0  0  0  0  0  0
  1 19  2  0  0  0  0
  1  4  1  0  0  0  0
  2 13  2  0  0  0  0
  2 19  1  0  0  0  0
  3 10  1  0  0  0  0
  4 20  2  0  0  0  0
  5  1  1  0  0  0  0
  6  8  2  0  0  0  0
  7 15  1  1  0  0  0
  7  9  1  0  0  0  0
  8 12  1  0  0  0  0
  9 22  1  0  0  0  0
  9 14  1  1  0  0  0
 10 21  1  1  0  0  0
 11 28  1  6  0  0  0
 11  5  1  0  0  0  0
 11  8  1  0  0  0  0
 12  4  1  0  0  0  0
 12 27  1  0  0  0  0
 13 18  1  0  0  0  0
 15 23  1  0  0  0  0
 16  2  1  0  0  0  0
 17  3  1  0  0  0  0
 18 25  2  0  0  0  0
 19 26  1  0  0  0  0
 20 17  1  0  0  0  0
 22 20  1  6  0  0  0
 22 10  1  0  0  0  0
 23 14  2  0  0  0  0
 26 25  1  0  0  0  0
 26 17  2  0  0  0  0
 27  7  1  0  0  0  0
 27 24  1  1  0  0  0
 29 30  1  0  0  0  0
 30 28  1  0  0  0  0
M  END
>  <MODEL>
6

>  <REMARK>
 VINA RESULT:      -7.9      3.173      6.091
  Name = 
  2 active torsions:
  status: ('A' for Active; 'I' for Inactive)
    1  A    between atoms: C_11  and  N_28
    2  A    between atoms: N_28  and  C_30
                            x       y       z     vdW  Elec       q    Type
                         _______ _______ _______ _____ _____    ______ ____

>  <TORSDO>
F 2

$$$$
=
 OpenBabel11112416123D

 30 35  0  0  1  0  0  0  0  0999 V2000
  189.3610  175.5620  142.9410 C   0  0  0  0  0  0  0  0  0  0  0  0
  187.2250  176.8290  142.8040 C   0  0  0  0  0  0  0  0  0  0  0  0
  190.1520  177.0800  146.7680 N   0  0  0  0  0  2  0  0  0  0  0  0
  190.5350  175.2260  143.6600 C   0  0  0  0  0  0  0  0  0  0  0  0
  189.1680  175.0200  141.6660 O   0  0  0  0  0  0  0  0  0  0  0  0
  192.1070  173.0900  141.1640 O   0  0  0  0  0  0  0  0  0  0  0  0
  193.6220  175.3260  144.0330 C   0  0  1  0  0  3  0  0  0  0  0  0
  191.2290  173.7640  141.7700 C   0  0  0  0  0  0  0  0  0  0  0  0
  193.1550  176.0880  145.2870 C   0  0  2  0  0  3  0  0  0  0  0  0
  191.4360  176.4740  147.1020 C   0  0  1  0  0  3  0  0  0  0  0  0
  189.8400  173.8480  141.2100 C   0  0  2  0  0  3  0  0  0  0  0  0
  191.5270  174.3720  143.0400 N   0  0  0  0  0  0  0  0  0  0  0  0
  186.3120  177.7080  143.3960 C   0  0  0  0  0  3  0  0  0  0  0  0
  194.2930  175.8980  146.2290 C   0  0  0  0  0  3  0  0  0  0  0  0
  195.0780  174.9670  144.3170 C   0  0  0  0  0  2  0  0  0  0  0  0
  186.9380  176.3410  141.5330 O   0  0  0  0  0  1  0  0  0  0  0  0
  189.7860  176.6350  145.4770 C   0  0  0  0  0  0  0  0  0  0  0  0
  186.5480  178.2260  144.6690 C   0  0  0  0  0  3  0  0  0  0  0  0
  188.4040  176.4570  143.4940 C   0  0  0  0  0  0  0  0  0  0  0  0
  190.7120  175.7890  144.9360 C   0  0  0  0  0  0  0  0  0  0  0  0
  191.2830  175.6050  148.3350 C   0  0  0  0  0  1  0  0  0  0  0  0
  191.8380  175.5970  145.8960 C   0  0  1  0  0  3  0  0  0  0  0  0
  195.2920  175.3130  145.6930 N   0  0  0  0  0  0  0  0  0  0  0  0
  192.7160  172.9970  144.7290 C   0  0  0  0  0  1  0  0  0  0  0  0
  187.7010  177.8710  145.3650 C   0  0  0  0  0  3  0  0  0  0  0  0
  188.6280  176.9950  144.7900 C   0  0  0  0  0  0  0  0  0  0  0  0
  192.8270  174.0660  143.6470 C   0  0  2  0  0  3  0  0  0  0  0  0
  189.8690  173.8380  139.7540 N   0  0  0  0  0  2  0  0  0  0  0  0
  188.1100  174.2650  138.1310 C   0  0  0  0  0  1  0  0  0  0  0  0
  188.5640  173.3980  139.2900 C   0  0  0  0  0  2  0  0  0  0  0  0
  1 19  2  0  0  0  0
  1  4  1  0  0  0  0
  2 13  2  0  0  0  0
  2 19  1  0  0  0  0
  3 10  1  0  0  0  0
  4 20  2  0  0  0  0
  5  1  1  0  0  0  0
  6  8  2  0  0  0  0
  7 15  1  1  0  0  0
  7  9  1  0  0  0  0
  8 12  1  0  0  0  0
  9 22  1  0  0  0  0
  9 14  1  1  0  0  0
 10 21  1  1  0  0  0
 11 28  1  6  0  0  0
 11  5  1  0  0  0  0
 11  8  1  0  0  0  0
 12 27  1  0  0  0  0
 12  4  1  0  0  0  0
 13 18  1  0  0  0  0
 15 23  1  0  0  0  0
 16  2  1  0  0  0  0
 17  3  1  0  0  0  0
 18 25  2  0  0  0  0
 19 26  1  0  0  0  0
 20 17  1  0  0  0  0
 22 20  1  6  0  0  0
 22 10  1  0  0  0  0
 23 14  2  0  0  0  0
 26 25  1  0  0  0  0
 26 17  2  0  0  0  0
 27  7  1  0  0  0  0
 27 24  1  1  0  0  0
 29 30  1  0  0  0  0
 30 28  1  0  0  0  0
M  END
>  <MODEL>
7

>  <REMARK>
 VINA RESULT:      -7.6      2.739      6.083
  Name = 
  2 active torsions:
  status: ('A' for Active; 'I' for Inactive)
    1  A    between atoms: C_11  and  N_28
    2  A    between atoms: N_28  and  C_30
                            x       y       z     vdW  Elec       q    Type
                         _______ _______ _______ _____ _____    ______ ____

>  <TORSDO>
F 2

$$$$
=
 OpenBabel11112416123D

 30 35  0  0  1  0  0  0  0  0999 V2000
  189.0470  176.1340  145.0780 C   0  0  0  0  0  0  0  0  0  0  0  0
  190.1890  176.9920  147.1150 C   0  0  0  0  0  0  0  0  0  0  0  0
  192.0750  173.3100  144.4250 N   0  0  0  0  0  2  0  0  0  0  0  0
  189.0270  175.2450  143.9750 C   0  0  0  0  0  0  0  0  0  0  0  0
  188.0030  177.0540  145.2280 O   0  0  0  0  0  0  0  0  0  0  0  0
  185.9590  176.4110  142.3960 O   0  0  0  0  0  0  0  0  0  0  0  0
  189.1840  174.6980  140.9160 C   0  0  1  0  0  3  0  0  0  0  0  0
  186.8590  176.2380  143.2630 C   0  0  0  0  0  0  0  0  0  0  0  0
  190.4370  173.9490  141.4080 C   0  0  2  0  0  3  0  0  0  0  0  0
  191.6390  172.6380  143.2060 C   0  0  1  0  0  3  0  0  0  0  0  0
  186.7300  176.8920  144.6070 C   0  0  2  0  0  3  0  0  0  0  0  0
  187.9560  175.3430  143.0040 N   0  0  0  0  0  0  0  0  0  0  0  0
  191.2670  176.9240  148.0030 C   0  0  0  0  0  3  0  0  0  0  0  0
  190.6470  172.9280  140.3450 C   0  0  0  0  0  3  0  0  0  0  0  0
  188.9420  174.1650  139.5070 C   0  0  0  0  0  2  0  0  0  0  0  0
  189.1990  177.9390  147.3540 O   0  0  0  0  0  1  0  0  0  0  0  0
  191.1170  174.3000  144.7400 C   0  0  0  0  0  0  0  0  0  0  0  0
  192.2880  175.9920  147.8120 C   0  0  0  0  0  3  0  0  0  0  0  0
  190.1240  176.1120  146.0070 C   0  0  0  0  0  0  0  0  0  0  0  0
  190.0900  174.3360  143.8390 C   0  0  0  0  0  0  0  0  0  0  0  0
  191.4110  171.1660  143.4900 C   0  0  0  0  0  1  0  0  0  0  0  0
  190.3080  173.2990  142.7890 C   0  0  1  0  0  3  0  0  0  0  0  0
  189.8540  173.0670  139.3550 N   0  0  0  0  0  0  0  0  0  0  0  0
  187.4330  173.1300  142.0130 C   0  0  0  0  0  1  0  0  0  0  0  0
  192.2420  175.1170  146.7290 C   0  0  0  0  0  3  0  0  0  0  0  0
  191.1730  175.1700  145.8280 C   0  0  0  0  0  0  0  0  0  0  0  0
  187.9090  174.5580  141.7670 C   0  0  2  0  0  3  0  0  0  0  0  0
  186.0770  178.1880  144.4890 N   0  0  0  0  0  2  0  0  0  0  0  0
  184.3220  178.5220  146.1380 C   0  0  0  0  0  1  0  0  0  0  0  0
  185.8010  178.6660  145.8350 C   0  0  0  0  0  2  0  0  0  0  0  0
  1  5  1  0  0  0  0
  1 19  1  0  0  0  0
  2 16  1  0  0  0  0
  2 13  1  0  0  0  0
  3 17  1  0  0  0  0
  4  1  2  0  0  0  0
  6  8  2  0  0  0  0
  7 15  1  6  0  0  0
  7  9  1  0  0  0  0
  7 27  1  0  0  0  0
  8 11  1  0  0  0  0
  9 14  1  6  0  0  0
  9 22  1  0  0  0  0
 10 21  1  1  0  0  0
 10  3  1  0  0  0  0
 11 28  1  6  0  0  0
 11  5  1  0  0  0  0
 12  8  1  0  0  0  0
 12  4  1  0  0  0  0
 17 26  1  0  0  0  0
 18 13  2  0  0  0  0
 19  2  2  0  0  0  0
 20  4  1  0  0  0  0
 20 17  2  0  0  0  0
 22 10  1  0  0  0  0
 22 20  1  1  0  0  0
 23 15  1  0  0  0  0
 23 14  2  0  0  0  0
 25 18  1  0  0  0  0
 26 19  1  0  0  0  0
 26 25  2  0  0  0  0
 27 24  1  1  0  0  0
 27 12  1  0  0  0  0
 28 30  1  0  0  0  0
 30 29  1  0  0  0  0
M  END
>  <MODEL>
8

>  <REMARK>
 VINA RESULT:      -7.3      1.934      5.185
  Name = 
  2 active torsions:
  status: ('A' for Active; 'I' for Inactive)
    1  A    between atoms: C_11  and  N_28
    2  A    between atoms: N_28  and  C_30
                            x       y       z     vdW  Elec       q    Type
                         _______ _______ _______ _____ _____    ______ ____

>  <TORSDO>
F 2

$$$$
=
 OpenBabel11112416123D

 30 35  0  0  1  0  0  0  0  0999 V2000
  188.1710  176.6830  143.4200 C   0  0  0  0  0  0  0  0  0  0  0  0
  186.4200  178.1660  142.4600 C   0  0  0  0  0  0  0  0  0  0  0  0
  188.5460  174.5900  139.8080 N   0  0  0  0  0  2  0  0  0  0  0  0
  189.0680  175.5960  143.2650 C   0  0  0  0  0  0  0  0  0  0  0  0
  188.0970  177.3300  144.6590 O   0  0  0  0  0  0  0  0  0  0  0  0
  190.4000  175.5050  146.6530 O   0  0  0  0  0  0  0  0  0  0  0  0
  189.9670  172.6920  143.9280 C   0  0  1  0  0  3  0  0  0  0  0  0
  189.8040  175.9170  145.6200 C   0  0  0  0  0  0  0  0  0  0  0  0
  189.6600  172.5630  142.4240 C   0  0  2  0  0  3  0  0  0  0  0  0
  189.5590  173.5870  140.1140 C   0  0  1  0  0  3  0  0  0  0  0  0
  189.1330  177.2590  145.6350 C   0  0  2  0  0  3  0  0  0  0  0  0
  189.8470  175.1510  144.4030 N   0  0  0  0  0  0  0  0  0  0  0  0
  185.6300  178.5360  141.3670 C   0  0  0  0  0  3  0  0  0  0  0  0
  190.5040  171.4080  142.0150 C   0  0  0  0  0  3  0  0  0  0  0  0
  190.7910  171.4530  144.2640 C   0  0  0  0  0  2  0  0  0  0  0  0
  186.2750  178.8770  143.6470 O   0  0  0  0  0  1  0  0  0  0  0  0
  188.3330  175.3600  140.9730 C   0  0  0  0  0  0  0  0  0  0  0  0
  185.7350  177.8590  140.1520 C   0  0  0  0  0  3  0  0  0  0  0  0
  187.3390  177.0950  142.3430 C   0  0  0  0  0  0  0  0  0  0  0  0
  189.1190  174.9550  142.0160 C   0  0  0  0  0  0  0  0  0  0  0  0
  190.7630  173.7880  139.2130 C   0  0  0  0  0  1  0  0  0  0  0  0
  189.9690  173.8070  141.5860 C   0  0  1  0  0  3  0  0  0  0  0  0
  191.0830  170.8380  143.0000 N   0  0  0  0  0  0  0  0  0  0  0  0
  192.0400  174.2350  143.6890 C   0  0  0  0  0  1  0  0  0  0  0  0
  186.6340  176.8030  140.0160 C   0  0  0  0  0  3  0  0  0  0  0  0
  187.4320  176.4160  141.0970 C   0  0  0  0  0  0  0  0  0  0  0  0
  190.7080  173.9640  144.3810 C   0  0  2  0  0  3  0  0  0  0  0  0
  188.5810  177.5440  146.9530 N   0  0  0  0  0  2  0  0  0  0  0  0
  186.3160  176.9650  147.6180 C   0  0  0  0  0  1  0  0  0  0  0  0
  187.1790  177.8860  146.7770 C   0  0  0  0  0  2  0  0  0  0  0  0
  1  5  1  0  0  0  0
  2 16  1  0  0  0  0
  3 10  1  0  0  0  0
  3 17  1  0  0  0  0
  4  1  1  0  0  0  0
  4 12  1  0  0  0  0
  5 11  1  0  0  0  0
  7 15  1  6  0  0  0
  7 27  1  0  0  0  0
  8 11  1  0  0  0  0
  8  6  2  0  0  0  0
  9 14  1  6  0  0  0
  9  7  1  0  0  0  0
 10 21  1  6  0  0  0
 10 22  1  0  0  0  0
 11 28  1  1  0  0  0
 12  8  1  0  0  0  0
 13  2  2  0  0  0  0
 14 23  2  0  0  0  0
 17 26  2  0  0  0  0
 17 20  1  0  0  0  0
 18 13  1  0  0  0  0
 19  2  1  0  0  0  0
 19  1  2  0  0  0  0
 20  4  2  0  0  0  0
 22 20  1  1  0  0  0
 22  9  1  0  0  0  0
 23 15  1  0  0  0  0
 25 18  2  0  0  0  0
 25 26  1  0  0  0  0
 26 19  1  0  0  0  0
 27 24  1  6  0  0  0
 27 12  1  0  0  0  0
 30 28  1  0  0  0  0
 30 29  1  0  0  0  0
M  END
>  <MODEL>
9

>  <REMARK>
 VINA RESULT:      -7.0      2.236      3.732
  Name = 
  2 active torsions:
  status: ('A' for Active; 'I' for Inactive)
    1  A    between atoms: C_11  and  N_28
    2  A    between atoms: N_28  and  C_30
                            x       y       z     vdW  Elec       q    Type
                         _______ _______ _______ _____ _____    ______ ____

>  <TORSDO>
F 2

$$$$
