=
 OpenBabel11112417553D

 34 42  0  0  1  0  0  0  0  0999 V2000
  189.6220  174.7150  142.7520 C   0  0  0  0  0  0  0  0  0  0  0  0
  191.8660  173.5630  143.0180 C   0  0  0  0  0  2  0  0  0  0  0  0
  185.5570  179.5380  144.5270 C   0  0  2  0  0  3  0  0  0  0  0  0
  187.7400  176.2570  142.5670 C   0  0  0  0  0  0  0  0  0  0  0  0
  187.1590  177.7210  144.5570 C   0  0  1  0  0  3  0  0  0  0  0  0
  185.7070  178.1810  146.6790 C   0  0  0  0  0  2  0  0  0  0  0  0
  185.9100  179.5090  146.0000 C   0  0  1  0  0  3  0  0  0  0  0  0
  184.2300  177.9730  142.6840 S   0  0  0  0  0  0  0  0  0  0  0  0
  190.6870  174.2980  145.0070 C   0  0  2  0  0  3  0  0  0  0  0  0
  192.6130  175.7920  147.1850 C   0  0  0  0  0  2  0  0  0  0  0  0
  187.7550  176.5840  145.3980 C   0  0  0  0  0  2  0  0  0  0  0  0
  186.0320  178.0560  142.2550 C   0  0  0  0  0  2  0  0  0  0  0  0
  190.1740  175.7040  145.4010 C   0  0  1  0  0  3  0  0  0  0  0  0
  192.7520  173.2630  144.2120 C   0  0  0  0  0  2  0  0  0  0  0  0
  186.8880  177.2610  143.1640 N   0  0  0  0  0  0  0  0  0  0  0  0
  184.1690  179.3040  143.9780 C   0  0  0  0  0  2  0  0  0  0  0  0
  192.9470  175.2510  145.7850 C   0  0  2  0  0  3  0  0  0  0  0  0
  188.7500  175.6480  143.3330 C   0  0  0  0  0  0  0  0  0  0  0  0
  185.8540  178.2120  145.1720 C   0  0  2  0  0  0  0  0  0  0  0  0
  188.9020  175.9930  144.7150 N   0  0  0  0  0  0  0  0  0  0  0  0
  188.4690  174.9630  140.6360 C   0  0  0  0  0  3  0  0  0  0  0  0
  191.2480  175.3610  147.7250 C   0  0  0  0  0  2  0  0  0  0  0  0
  187.6060  175.8980  141.2140 C   0  0  0  0  0  3  0  0  0  0  0  0
  190.0750  175.9220  146.9220 C   0  0  0  0  0  2  0  0  0  0  0  0
  192.1410  173.9850  145.4140 C   0  0  1  0  0  3  0  0  0  0  0  0
  189.4800  174.3770  141.4010 C   0  0  0  0  0  3  0  0  0  0  0  0
  190.6520  174.1330  143.5620 N   0  0  0  0  0  0  0  0  0  0  0  0
  194.3220  175.0140  145.7110 O   0  0  0  0  0  0  0  0  0  0  0  0
  194.8570  176.1750  145.1450 C   0  0  0  0  0  2  0  0  0  0  0  0
  197.6230  176.2640  143.2040 N   0  0  0  0  0  0  0  0  0  0  0  0
  196.1700  174.5620  143.7610 C   0  0  0  0  0  2  0  0  0  0  0  0
  195.3890  175.8780  143.7560 C   0  0  2  0  0  3  0  0  0  0  0  0
  197.5510  174.9930  143.3940 C   0  0  0  0  0  3  0  0  0  0  0  0
  196.3840  176.8690  143.3970 N   0  0  0  0  0  2  0  0  0  0  0  0
  1 18  1  0  0  0  0
  1 27  1  0  0  0  0
  2 27  1  0  0  0  0
  2 14  1  0  0  0  0
  3 16  1  1  0  0  0
  3 19  1  0  0  0  0
  3  7  1  0  0  0  0
  4 15  1  0  0  0  0
  4 18  2  0  0  0  0
  5 19  1  0  0  0  0
  5 11  1  1  0  0  0
  7  6  1  1  0  0  0
  8 16  1  0  0  0  0
  9 27  1  6  0  0  0
  9 13  1  0  0  0  0
  9 25  1  0  0  0  0
 10 22  1  0  0  0  0
 12  8  1  0  0  0  0
 12 15  1  0  0  0  0
 13 24  1  1  0  0  0
 15  5  1  0  0  0  0
 17 28  1  1  0  0  0
 17 10  1  0  0  0  0
 18 20  1  0  0  0  0
 19  7  1  0  0  0  0
 19  6  1  1  0  0  0
 20 11  1  0  0  0  0
 20 13  1  0  0  0  0
 21 23  2  0  0  0  0
 21 26  1  0  0  0  0
 23  4  1  0  0  0  0
 24 22  1  0  0  0  0
 25 14  1  6  0  0  0
 25 17  1  0  0  0  0
 26  1  2  0  0  0  0
 29 28  1  0  0  0  0
 30 33  2  0  0  0  0
 30 34  1  0  0  0  0
 32 31  1  0  0  0  0
 32 29  1  1  0  0  0
 33 31  1  0  0  0  0
 34 32  1  0  0  0  0
M  END
>  <MODEL>
1

>  <REMARK>
 VINA RESULT:      -8.9      0.000      0.000
  Name = 
  3 active torsions:
  status: ('A' for Active; 'I' for Inactive)
    1  A    between atoms: C_17  and  O_28
    2  A    between atoms: O_28  and  C_29
    3  A    between atoms: C_29  and  C_32
                            x       y       z     vdW  Elec       q    Type
                         _______ _______ _______ _____ _____    ______ ____

>  <TORSDO>
F 3

$$$$
=
 OpenBabel11112417553D

 34 42  0  0  1  0  0  0  0  0999 V2000
  192.0350  176.0560  145.8470 C   0  0  0  0  0  0  0  0  0  0  0  0
  189.7650  176.3680  146.9360 C   0  0  0  0  0  2  0  0  0  0  0  0
  195.6600  175.9180  140.3900 C   0  0  2  0  0  3  0  0  0  0  0  0
  194.0570  176.1330  144.4840 C   0  0  0  0  0  0  0  0  0  0  0  0
  193.8820  175.6080  142.0070 C   0  0  1  0  0  3  0  0  0  0  0  0
  194.1230  173.9160  140.0310 C   0  0  0  0  0  2  0  0  0  0  0  0
  194.6160  175.2450  139.5230 C   0  0  1  0  0  3  0  0  0  0  0  0
  197.3170  175.2860  142.5010 S   0  0  0  0  0  0  0  0  0  0  0  0
  189.9120  175.0700  144.8910 C   0  0  2  0  0  3  0  0  0  0  0  0
  187.5710  175.7830  142.7230 C   0  0  0  0  0  2  0  0  0  0  0  0
  192.6920  174.7300  142.4140 C   0  0  0  0  0  2  0  0  0  0  0  0
  196.0610  176.5370  143.0440 C   0  0  0  0  0  2  0  0  0  0  0  0
  190.4740  175.4560  143.5010 C   0  0  1  0  0  3  0  0  0  0  0  0
  188.3560  175.9670  146.5450 C   0  0  0  0  0  2  0  0  0  0  0  0
  194.7010  175.9720  143.1990 N   0  0  0  0  0  0  0  0  0  0  0  0
  197.0320  175.3500  140.6670 C   0  0  0  0  0  2  0  0  0  0  0  0
  187.8730  176.4200  144.0910 C   0  0  2  0  0  3  0  0  0  0  0  0
  192.6880  175.8480  144.6230 C   0  0  0  0  0  0  0  0  0  0  0  0
  194.7700  174.8750  141.0090 C   0  0  2  0  0  0  0  0  0  0  0  0
  191.9450  175.3560  143.5000 N   0  0  0  0  0  0  0  0  0  0  0  0
  194.1200  176.8090  146.8240 C   0  0  0  0  0  3  0  0  0  0  0  0
  188.3270  174.4820  142.4470 C   0  0  0  0  0  2  0  0  0  0  0  0
  194.7670  176.6100  145.6010 C   0  0  0  0  0  3  0  0  0  0  0  0
  189.8390  174.6720  142.3380 C   0  0  0  0  0  2  0  0  0  0  0  0
  188.4270  175.4100  145.1220 C   0  0  1  0  0  3  0  0  0  0  0  0
  192.7550  176.5400  146.9450 C   0  0  0  0  0  3  0  0  0  0  0  0
  190.6330  175.7730  145.9410 N   0  0  0  0  0  0  0  0  0  0  0  0
  186.7140  177.0410  144.5630 O   0  0  0  0  0  0  0  0  0  0  0  0
  186.6740  178.2730  143.9060 C   0  0  0  0  0  2  0  0  0  0  0  0
  183.7220  178.8320  145.4570 N   0  0  0  0  0  0  0  0  0  0  0  0
  185.9030  178.8660  146.2070 C   0  0  0  0  0  2  0  0  0  0  0  0
  185.8950  179.2780  144.7340 C   0  0  2  0  0  3  0  0  0  0  0  0
  184.4580  178.6230  146.4920 C   0  0  0  0  0  3  0  0  0  0  0  0
  184.4940  179.2250  144.3660 N   0  0  0  0  0  2  0  0  0  0  0  0
  1 27  1  0  0  0  0
  1 26  1  0  0  0  0
  3 16  1  6  0  0  0
  3 19  1  0  0  0  0
  4 18  1  0  0  0  0
  4 23  2  0  0  0  0
  5 11  1  1  0  0  0
  5 15  1  0  0  0  0
  7  6  1  6  0  0  0
  7  3  1  0  0  0  0
  7 19  1  0  0  0  0
  8 12  1  0  0  0  0
  9 25  1  0  0  0  0
  9 27  1  1  0  0  0
 10 17  1  0  0  0  0
 11 20  1  0  0  0  0
 12 15  1  0  0  0  0
 13 24  1  6  0  0  0
 13  9  1  0  0  0  0
 14  2  1  0  0  0  0
 15  4  1  0  0  0  0
 16  8  1  0  0  0  0
 17 28  1  1  0  0  0
 17 25  1  0  0  0  0
 18  1  2  0  0  0  0
 19  6  1  1  0  0  0
 19  5  1  0  0  0  0
 20 13  1  0  0  0  0
 20 18  1  0  0  0  0
 21 26  2  0  0  0  0
 22 10  1  0  0  0  0
 23 21  1  0  0  0  0
 24 22  1  0  0  0  0
 25 14  1  1  0  0  0
 27  2  1  0  0  0  0
 29 28  1  0  0  0  0
 30 33  2  0  0  0  0
 31 33  1  0  0  0  0
 32 29  1  6  0  0  0
 32 31  1  0  0  0  0
 34 32  1  0  0  0  0
 34 30  1  0  0  0  0
M  END
>  <MODEL>
2

>  <REMARK>
 VINA RESULT:      -8.6      3.324      8.675
  Name = 
  3 active torsions:
  status: ('A' for Active; 'I' for Inactive)
    1  A    between atoms: C_17  and  O_28
    2  A    between atoms: O_28  and  C_29
    3  A    between atoms: C_29  and  C_32
                            x       y       z     vdW  Elec       q    Type
                         _______ _______ _______ _____ _____    ______ ____

>  <TORSDO>
F 3

$$$$
=
 OpenBabel11112417553D

 34 42  0  0  1  0  0  0  0  0999 V2000
  192.1810  176.2510  145.5800 C   0  0  0  0  0  0  0  0  0  0  0  0
  190.0520  176.9830  146.7490 C   0  0  0  0  0  2  0  0  0  0  0  0
  195.5250  175.4730  139.9990 C   0  0  2  0  0  3  0  0  0  0  0  0
  194.1330  175.9520  144.1480 C   0  0  0  0  0  0  0  0  0  0  0  0
  193.7770  175.4940  141.6770 C   0  0  1  0  0  3  0  0  0  0  0  0
  193.6210  173.8080  139.6880 C   0  0  0  0  0  2  0  0  0  0  0  0
  194.3430  175.0220  139.1670 C   0  0  1  0  0  3  0  0  0  0  0  0
  197.1010  174.5130  142.0490 S   0  0  0  0  0  0  0  0  0  0  0  0
  189.8770  175.7010  144.6960 C   0  0  2  0  0  3  0  0  0  0  0  0
  187.6460  176.8720  142.6140 C   0  0  0  0  0  2  0  0  0  0  0  0
  192.4550  174.8580  142.1220 C   0  0  0  0  0  2  0  0  0  0  0  0
  196.1280  175.9770  142.6390 C   0  0  0  0  0  2  0  0  0  0  0  0
  190.4560  175.9860  143.2890 C   0  0  1  0  0  3  0  0  0  0  0  0
  188.5790  176.8640  146.4060 C   0  0  0  0  0  2  0  0  0  0  0  0
  194.6910  175.6830  142.8410 N   0  0  0  0  0  0  0  0  0  0  0  0
  196.7710  174.6500  140.2270 C   0  0  0  0  0  2  0  0  0  0  0  0
  188.1110  177.4260  143.9720 C   0  0  2  0  0  3  0  0  0  0  0  0
  192.7400  175.9340  144.3330 C   0  0  0  0  0  0  0  0  0  0  0  0
  194.4740  174.6140  140.6460 C   0  0  2  0  0  0  0  0  0  0  0  0
  191.8790  175.6050  143.2360 N   0  0  0  0  0  0  0  0  0  0  0  0
  194.4040  176.5800  146.4860 C   0  0  0  0  0  3  0  0  0  0  0  0
  188.1270  175.4530  142.3070 C   0  0  0  0  0  2  0  0  0  0  0  0
  194.9590  176.2720  145.2400 C   0  0  0  0  0  3  0  0  0  0  0  0
  189.6430  175.3500  142.1460 C   0  0  0  0  0  2  0  0  0  0  0  0
  188.4940  176.3190  144.9800 C   0  0  1  0  0  3  0  0  0  0  0  0
  193.0180  176.5770  146.6540 C   0  0  0  0  0  3  0  0  0  0  0  0
  190.7550  176.2420  145.7230 N   0  0  0  0  0  0  0  0  0  0  0  0
  187.1090  178.2530  144.4870 O   0  0  0  0  0  0  0  0  0  0  0  0
  185.9170  177.5640  144.2470 C   0  0  0  0  0  2  0  0  0  0  0  0
  185.3760  177.4960  147.5830 N   0  0  0  0  0  0  0  0  0  0  0  0
  185.2760  179.1960  146.0270 C   0  0  0  0  0  2  0  0  0  0  0  0
  184.9050  177.8850  145.3320 C   0  0  2  0  0  3  0  0  0  0  0  0
  185.5400  178.7630  147.4320 C   0  0  0  0  0  3  0  0  0  0  0  0
  184.9970  176.8940  146.3860 N   0  0  0  0  0  2  0  0  0  0  0  0
  1 27  1  0  0  0  0
  1 26  1  0  0  0  0
  3 16  1  6  0  0  0
  3 19  1  0  0  0  0
  4 18  1  0  0  0  0
  4 23  2  0  0  0  0
  5 11  1  1  0  0  0
  5 15  1  0  0  0  0
  7  6  1  6  0  0  0
  7  3  1  0  0  0  0
  7 19  1  0  0  0  0
  8 12  1  0  0  0  0
  9 25  1  0  0  0  0
  9 27  1  1  0  0  0
 10 17  1  0  0  0  0
 11 20  1  0  0  0  0
 12 15  1  0  0  0  0
 13 24  1  6  0  0  0
 13  9  1  0  0  0  0
 14  2  1  0  0  0  0
 15  4  1  0  0  0  0
 16  8  1  0  0  0  0
 17 28  1  1  0  0  0
 17 25  1  0  0  0  0
 18  1  2  0  0  0  0
 19  6  1  1  0  0  0
 19  5  1  0  0  0  0
 20 13  1  0  0  0  0
 20 18  1  0  0  0  0
 21 26  2  0  0  0  0
 22 10  1  0  0  0  0
 23 21  1  0  0  0  0
 24 22  1  0  0  0  0
 25 14  1  1  0  0  0
 27  2  1  0  0  0  0
 29 28  1  0  0  0  0
 31 33  1  0  0  0  0
 32 29  1  6  0  0  0
 32 31  1  0  0  0  0
 32 34  1  0  0  0  0
 33 30  2  0  0  0  0
 34 30  1  0  0  0  0
M  END
>  <MODEL>
3

>  <REMARK>
 VINA RESULT:      -8.6      3.430      8.671
  Name = 
  3 active torsions:
  status: ('A' for Active; 'I' for Inactive)
    1  A    between atoms: C_17  and  O_28
    2  A    between atoms: O_28  and  C_29
    3  A    between atoms: C_29  and  C_32
                            x       y       z     vdW  Elec       q    Type
                         _______ _______ _______ _____ _____    ______ ____

>  <TORSDO>
F 3

$$$$
=
 OpenBabel11112417553D

 34 42  0  0  1  0  0  0  0  0999 V2000
  192.1690  176.1390  145.6900 C   0  0  0  0  0  0  0  0  0  0  0  0
  189.7960  176.4510  146.5310 C   0  0  0  0  0  2  0  0  0  0  0  0
  196.3490  175.9720  140.6470 C   0  0  2  0  0  3  0  0  0  0  0  0
  194.3230  176.2140  144.5480 C   0  0  0  0  0  0  0  0  0  0  0  0
  194.4120  175.6680  142.0700 C   0  0  1  0  0  3  0  0  0  0  0  0
  194.8650  173.9620  140.1450 C   0  0  0  0  0  2  0  0  0  0  0  0
  195.4040  175.2890  139.6810 C   0  0  1  0  0  3  0  0  0  0  0  0
  197.7770  175.3630  142.9270 S   0  0  0  0  0  0  0  0  0  0  0  0
  190.1610  175.1370  144.5240 C   0  0  2  0  0  3  0  0  0  0  0  0
  188.0600  175.8230  142.1160 C   0  0  0  0  0  2  0  0  0  0  0  0
  193.1880  174.7880  142.3570 C   0  0  0  0  0  2  0  0  0  0  0  0
  196.4660  176.6130  143.3230 C   0  0  0  0  0  2  0  0  0  0  0  0
  190.8660  175.5150  143.1980 C   0  0  1  0  0  3  0  0  0  0  0  0
  188.4360  176.0410  145.9970 C   0  0  0  0  0  2  0  0  0  0  0  0
  195.0990  176.0440  143.3390 N   0  0  0  0  0  0  0  0  0  0  0  0
  197.6860  175.4120  141.0720 C   0  0  0  0  0  2  0  0  0  0  0  0
  188.2140  176.4730  143.5020 C   0  0  2  0  0  3  0  0  0  0  0  0
  192.9470  175.9240  144.5430 C   0  0  0  0  0  0  0  0  0  0  0  0
  195.4020  174.9300  141.1780 C   0  0  2  0  0  0  0  0  0  0  0  0
  192.3290  175.4200  143.3530 N   0  0  0  0  0  0  0  0  0  0  0  0
  194.1370  176.9080  146.8750 C   0  0  0  0  0  3  0  0  0  0  0  0
  188.8450  174.5230  141.9310 C   0  0  0  0  0  2  0  0  0  0  0  0
  194.9090  176.7020  145.7290 C   0  0  0  0  0  3  0  0  0  0  0  0
  190.3590  174.7180  141.9810 C   0  0  0  0  0  2  0  0  0  0  0  0
  188.6590  175.4730  144.5950 C   0  0  1  0  0  3  0  0  0  0  0  0
  192.7680  176.6340  146.8550 C   0  0  0  0  0  3  0  0  0  0  0  0
  190.7650  175.8510  145.6390 N   0  0  0  0  0  0  0  0  0  0  0  0
  187.0100  177.0920  143.8450 O   0  0  0  0  0  0  0  0  0  0  0  0
  186.2130  176.9840  142.7020 C   0  0  0  0  0  2  0  0  0  0  0  0
  183.9870  179.0450  144.1940 N   0  0  0  0  0  0  0  0  0  0  0  0
  186.0600  179.4160  143.2540 C   0  0  0  0  0  2  0  0  0  0  0  0
  185.3990  178.2510  142.5150 C   0  0  2  0  0  3  0  0  0  0  0  0
  185.0340  179.7890  144.2720 C   0  0  0  0  0  3  0  0  0  0  0  0
  184.1170  178.1040  143.1770 N   0  0  0  0  0  2  0  0  0  0  0  0
  1 26  1  0  0  0  0
  3 16  1  6  0  0  0
  3 19  1  0  0  0  0
  4 23  2  0  0  0  0
  5 11  1  1  0  0  0
  5 15  1  0  0  0  0
  7  6  1  6  0  0  0
  7  3  1  0  0  0  0
  7 19  1  0  0  0  0
  8 12  1  0  0  0  0
  9 25  1  0  0  0  0
  9 27  1  1  0  0  0
 10 17  1  0  0  0  0
 11 20  1  0  0  0  0
 12 15  1  0  0  0  0
 13 24  1  6  0  0  0
 13 20  1  0  0  0  0
 13  9  1  0  0  0  0
 14  2  1  0  0  0  0
 15  4  1  0  0  0  0
 16  8  1  0  0  0  0
 17 28  1  1  0  0  0
 17 25  1  0  0  0  0
 18  4  1  0  0  0  0
 18  1  2  0  0  0  0
 19  6  1  1  0  0  0
 19  5  1  0  0  0  0
 20 18  1  0  0  0  0
 22 24  1  0  0  0  0
 22 10  1  0  0  0  0
 23 21  1  0  0  0  0
 25 14  1  1  0  0  0
 26 21  2  0  0  0  0
 27  1  1  0  0  0  0
 27  2  1  0  0  0  0
 29 28  1  0  0  0  0
 30 33  2  0  0  0  0
 31 33  1  0  0  0  0
 32 29  1  1  0  0  0
 32 34  1  0  0  0  0
 32 31  1  0  0  0  0
 34 30  1  0  0  0  0
M  END
>  <MODEL>
4

>  <REMARK>
 VINA RESULT:      -8.4      3.307      8.840
  Name = 
  3 active torsions:
  status: ('A' for Active; 'I' for Inactive)
    1  A    between atoms: C_17  and  O_28
    2  A    between atoms: O_28  and  C_29
    3  A    between atoms: C_29  and  C_32
                            x       y       z     vdW  Elec       q    Type
                         _______ _______ _______ _____ _____    ______ ____

>  <TORSDO>
F 3

$$$$
=
 OpenBabel11112417553D

 34 42  0  0  1  0  0  0  0  0999 V2000
  189.0590  174.2380  142.0260 C   0  0  0  0  0  0  0  0  0  0  0  0
  187.0340  175.7300  142.3540 C   0  0  0  0  0  2  0  0  0  0  0  0
  194.0620  170.9260  144.6600 C   0  0  2  0  0  3  0  0  0  0  0  0
  190.8460  172.5820  142.1520 C   0  0  0  0  0  0  0  0  0  0  0  0
  192.4210  172.6310  144.1410 C   0  0  1  0  0  3  0  0  0  0  0  0
  194.7020  173.3320  145.2040 C   0  0  0  0  0  2  0  0  0  0  0  0
  194.3910  171.9540  145.7230 C   0  0  1  0  0  3  0  0  0  0  0  0
  194.2370  170.6500  141.9220 S   0  0  0  0  0  0  0  0  0  0  0  0
  189.0480  176.1990  143.6230 C   0  0  2  0  0  3  0  0  0  0  0  0
  188.4800  176.8640  146.7720 C   0  0  0  0  0  2  0  0  0  0  0  0
  192.1170  174.1350  144.1750 C   0  0  0  0  0  2  0  0  0  0  0  0
  192.4550  170.6890  142.4360 C   0  0  0  0  0  2  0  0  0  0  0  0
  189.8550  175.2930  144.5860 C   0  0  1  0  0  3  0  0  0  0  0  0
  186.7330  176.8930  143.2790 C   0  0  0  0  0  2  0  0  0  0  0  0
  191.9930  172.0350  142.8430 N   0  0  0  0  0  0  0  0  0  0  0  0
  195.0260  170.4650  143.5920 C   0  0  0  0  0  2  0  0  0  0  0  0
  187.4990  176.4490  145.6620 C   0  0  2  0  0  3  0  0  0  0  0  0
  190.2070  173.7300  142.6520 C   0  0  0  0  0  0  0  0  0  0  0  0
  193.9140  172.3840  144.3240 C   0  0  2  0  0  0  0  0  0  0  0  0
  190.7220  174.3800  143.8200 N   0  0  0  0  0  0  0  0  0  0  0  0
  189.1870  172.4740  140.3710 C   0  0  0  0  0  3  0  0  0  0  0  0
  189.8770  177.2440  146.2790 C   0  0  0  0  0  2  0  0  0  0  0  0
  190.3260  171.9640  141.0000 C   0  0  0  0  0  3  0  0  0  0  0  0
  190.6380  176.0750  145.6570 C   0  0  0  0  0  2  0  0  0  0  0  0
  187.8940  176.9910  144.2690 C   0  0  1  0  0  3  0  0  0  0  0  0
  188.5500  173.6040  140.8870 C   0  0  0  0  0  3  0  0  0  0  0  0
  188.4250  175.3980  142.5800 N   0  0  0  0  0  0  0  0  0  0  0  0
  186.2130  176.8640  146.0190 O   0  0  0  0  0  0  0  0  0  0  0  0
  186.4120  177.9470  146.8790 C   0  0  0  0  0  2  0  0  0  0  0  0
  184.9410  179.6340  144.3460 N   0  0  0  0  0  0  0  0  0  0  0  0
  184.0830  178.4620  146.1370 C   0  0  0  0  0  2  0  0  0  0  0  0
  185.4300  179.0560  146.5530 C   0  0  2  0  0  3  0  0  0  0  0  0
  183.9370  178.9240  144.7260 C   0  0  0  0  0  3  0  0  0  0  0  0
  185.8760  179.7640  145.3690 N   0  0  0  0  0  2  0  0  0  0  0  0
  1 27  1  0  0  0  0
  1 18  1  0  0  0  0
  2 27  1  0  0  0  0
  2 14  1  0  0  0  0
  3 16  1  6  0  0  0
  3  7  1  0  0  0  0
  4 18  2  0  0  0  0
  4 15  1  0  0  0  0
  5 11  1  6  0  0  0
  5 19  1  0  0  0  0
  7  6  1  6  0  0  0
  8 12  1  0  0  0  0
  8 16  1  0  0  0  0
  9 27  1  6  0  0  0
  9 25  1  0  0  0  0
  9 13  1  0  0  0  0
 12 15  1  0  0  0  0
 13 24  1  1  0  0  0
 15  5  1  0  0  0  0
 17 28  1  1  0  0  0
 17 10  1  0  0  0  0
 18 20  1  0  0  0  0
 19  3  1  0  0  0  0
 19  6  1  6  0  0  0
 19  7  1  0  0  0  0
 20 11  1  0  0  0  0
 20 13  1  0  0  0  0
 21 26  1  0  0  0  0
 21 23  2  0  0  0  0
 22 10  1  0  0  0  0
 23  4  1  0  0  0  0
 24 22  1  0  0  0  0
 25 14  1  6  0  0  0
 25 17  1  0  0  0  0
 26  1  2  0  0  0  0
 28 29  1  0  0  0  0
 30 33  2  0  0  0  0
 30 34  1  0  0  0  0
 31 32  1  0  0  0  0
 32 29  1  6  0  0  0
 33 31  1  0  0  0  0
 34 32  1  0  0  0  0
M  END
>  <MODEL>
5

>  <REMARK>
 VINA RESULT:      -8.1      3.442      8.122
  Name = 
  3 active torsions:
  status: ('A' for Active; 'I' for Inactive)
    1  A    between atoms: C_17  and  O_28
    2  A    between atoms: O_28  and  C_29
    3  A    between atoms: C_29  and  C_32
                            x       y       z     vdW  Elec       q    Type
                         _______ _______ _______ _____ _____    ______ ____

>  <TORSDO>
F 3

$$$$
=
 OpenBabel11112417553D

 34 42  0  0  1  0  0  0  0  0999 V2000
  190.7830  172.7720  142.6760 C   0  0  0  0  0  0  0  0  0  0  0  0
  188.5300  173.9200  142.4680 C   0  0  0  0  0  2  0  0  0  0  0  0
  196.5230  172.2220  145.7880 C   0  0  2  0  0  3  0  0  0  0  0  0
  192.8680  171.7240  143.3860 C   0  0  0  0  0  0  0  0  0  0  0  0
  194.5420  173.1020  144.7050 C   0  0  1  0  0  3  0  0  0  0  0  0
  196.7090  174.5590  144.7870 C   0  0  0  0  0  2  0  0  0  0  0  0
  196.7170  173.7050  146.0270 C   0  0  1  0  0  3  0  0  0  0  0  0
  196.5500  170.4440  143.6800 S   0  0  0  0  0  0  0  0  0  0  0  0
  190.4970  175.2750  142.8930 C   0  0  2  0  0  3  0  0  0  0  0  0
  190.0370  177.5570  145.1880 C   0  0  0  0  0  2  0  0  0  0  0  0
  193.9470  174.2990  143.9530 C   0  0  0  0  0  2  0  0  0  0  0  0
  194.8390  170.5540  144.3860 C   0  0  0  0  0  2  0  0  0  0  0  0
  191.5350  175.1960  144.0380 C   0  0  1  0  0  3  0  0  0  0  0  0
  188.0710  175.3560  142.6300 C   0  0  0  0  0  2  0  0  0  0  0  0
  194.1480  171.8200  144.0530 N   0  0  0  0  0  0  0  0  0  0  0  0
  197.4790  171.3520  145.0060 C   0  0  0  0  0  2  0  0  0  0  0  0
  189.0810  176.4620  144.6840 C   0  0  2  0  0  3  0  0  0  0  0  0
  192.0510  172.8620  143.2680 C   0  0  0  0  0  0  0  0  0  0  0  0
  196.0630  173.1900  144.7320 C   0  0  2  0  0  0  0  0  0  0  0  0
  192.5100  174.1230  143.7700 N   0  0  0  0  0  0  0  0  0  0  0  0
  191.1390  170.4090  142.2830 C   0  0  0  0  0  3  0  0  0  0  0  0
  191.2910  177.7510  144.3330 C   0  0  0  0  0  2  0  0  0  0  0  0
  192.4000  170.4980  142.8800 C   0  0  0  0  0  3  0  0  0  0  0  0
  192.2230  176.5400  144.3430 C   0  0  0  0  0  2  0  0  0  0  0  0
  189.2580  176.1470  143.1810 C   0  0  1  0  0  3  0  0  0  0  0  0
  190.3290  171.5420  142.1870 C   0  0  0  0  0  3  0  0  0  0  0  0
  189.9720  173.9520  142.5950 N   0  0  0  0  0  0  0  0  0  0  0  0
  187.7680  176.8460  144.9680 O   0  0  0  0  0  0  0  0  0  0  0  0
  187.7950  177.2550  146.3040 C   0  0  0  0  0  2  0  0  0  0  0  0
  184.8860  178.5250  147.4670 N   0  0  0  0  0  0  0  0  0  0  0  0
  185.3550  176.8500  145.9530 C   0  0  0  0  0  2  0  0  0  0  0  0
  186.4860  176.8980  146.9820 C   0  0  2  0  0  3  0  0  0  0  0  0
  184.4420  177.9380  146.4110 C   0  0  0  0  0  3  0  0  0  0  0  0
  186.0960  177.9710  147.8760 N   0  0  0  0  0  2  0  0  0  0  0  0
  1 18  1  0  0  0  0
  2 27  1  0  0  0  0
  2 14  1  0  0  0  0
  3 16  1  6  0  0  0
  3  7  1  0  0  0  0
  4 15  1  0  0  0  0
  5 11  1  6  0  0  0
  5 19  1  0  0  0  0
  7  6  1  6  0  0  0
  8 12  1  0  0  0  0
  8 16  1  0  0  0  0
  9 27  1  1  0  0  0
  9 25  1  0  0  0  0
  9 13  1  0  0  0  0
 13 24  1  6  0  0  0
 15 12  1  0  0  0  0
 15  5  1  0  0  0  0
 17 28  1  6  0  0  0
 17 10  1  0  0  0  0
 18  4  2  0  0  0  0
 18 20  1  0  0  0  0
 19  6  1  6  0  0  0
 19  3  1  0  0  0  0
 19  7  1  0  0  0  0
 20 11  1  0  0  0  0
 20 13  1  0  0  0  0
 21 23  2  0  0  0  0
 22 24  1  0  0  0  0
 22 10  1  0  0  0  0
 23  4  1  0  0  0  0
 25 14  1  1  0  0  0
 25 17  1  0  0  0  0
 26 21  1  0  0  0  0
 26  1  2  0  0  0  0
 27  1  1  0  0  0  0
 28 29  1  0  0  0  0
 30 34  1  0  0  0  0
 31 33  1  0  0  0  0
 31 32  1  0  0  0  0
 32 29  1  6  0  0  0
 32 34  1  0  0  0  0
 33 30  2  0  0  0  0
M  END
>  <MODEL>
6

>  <REMARK>
 VINA RESULT:      -8.0      3.643      8.608
  Name = 
  3 active torsions:
  status: ('A' for Active; 'I' for Inactive)
    1  A    between atoms: C_17  and  O_28
    2  A    between atoms: O_28  and  C_29
    3  A    between atoms: C_29  and  C_32
                            x       y       z     vdW  Elec       q    Type
                         _______ _______ _______ _____ _____    ______ ____

>  <TORSDO>
F 3

$$$$
=
 OpenBabel11112417553D

 34 42  0  0  1  0  0  0  0  0999 V2000
  190.1800  176.3630  146.2170 C   0  0  0  0  0  0  0  0  0  0  0  0
  187.7320  176.9670  146.4970 C   0  0  0  0  0  2  0  0  0  0  0  0
  195.4840  176.1100  142.3780 C   0  0  2  0  0  3  0  0  0  0  0  0
  192.5500  176.2120  145.6580 C   0  0  0  0  0  0  0  0  0  0  0  0
  193.2180  175.9660  143.2210 C   0  0  1  0  0  3  0  0  0  0  0  0
  193.9340  174.4550  141.2140 C   0  0  0  0  0  2  0  0  0  0  0  0
  194.7470  175.7190  141.1140 C   0  0  1  0  0  3  0  0  0  0  0  0
  196.1660  174.9950  144.8070 S   0  0  0  0  0  0  0  0  0  0  0  0
  188.4380  175.8650  144.4530 C   0  0  2  0  0  3  0  0  0  0  0  0
  187.1580  177.1850  141.7510 C   0  0  0  0  0  2  0  0  0  0  0  0
  191.8560  175.2770  143.0570 C   0  0  0  0  0  2  0  0  0  0  0  0
  194.9740  176.3910  145.0700 C   0  0  0  0  0  2  0  0  0  0  0  0
  189.5120  176.2770  143.4160 C   0  0  1  0  0  3  0  0  0  0  0  0
  186.5200  176.8610  145.5900 C   0  0  0  0  0  2  0  0  0  0  0  0
  193.5890  176.0630  144.6630 N   0  0  0  0  0  0  0  0  0  0  0  0
  196.5750  175.2850  143.0190 C   0  0  0  0  0  2  0  0  0  0  0  0
  187.0250  177.6250  143.2190 C   0  0  2  0  0  3  0  0  0  0  0  0
  191.1990  176.1620  145.2740 C   0  0  0  0  0  0  0  0  0  0  0  0
  194.3030  175.1860  142.4880 C   0  0  2  0  0  0  0  0  0  0  0  0
  190.8560  175.9190  143.9040 N   0  0  0  0  0  0  0  0  0  0  0  0
  191.8490  176.6390  147.9510 C   0  0  0  0  0  3  0  0  0  0  0  0
  187.7850  175.8030  141.5550 C   0  0  0  0  0  2  0  0  0  0  0  0
  192.8630  176.4460  147.0090 C   0  0  0  0  0  3  0  0  0  0  0  0
  189.2440  175.7330  142.0010 C   0  0  0  0  0  2  0  0  0  0  0  0
  187.0280  176.4390  144.2110 C   0  0  1  0  0  3  0  0  0  0  0  0
  190.5100  176.6050  147.5560 C   0  0  0  0  0  3  0  0  0  0  0  0
  188.8150  176.3260  145.7810 N   0  0  0  0  0  0  0  0  0  0  0  0
  185.8650  178.3930  143.3550 O   0  0  0  0  0  0  0  0  0  0  0  0
  184.8850  177.6910  142.6470 C   0  0  0  0  0  2  0  0  0  0  0  0
  182.6280  177.9170  140.1410 N   0  0  0  0  0  0  0  0  0  0  0  0
  182.5730  178.5890  142.3470 C   0  0  0  0  0  2  0  0  0  0  0  0
  184.0220  178.6580  141.8590 C   0  0  2  0  0  3  0  0  0  0  0  0
  181.8390  178.1050  141.1400 C   0  0  0  0  0  3  0  0  0  0  0  0
  183.9440  178.2210  140.4780 N   0  0  0  0  0  2  0  0  0  0  0  0
  1 26  1  0  0  0  0
  3 19  1  0  0  0  0
  3 16  1  6  0  0  0
  4 23  2  0  0  0  0
  5 11  1  1  0  0  0
  5 15  1  0  0  0  0
  7  6  1  6  0  0  0
  7  3  1  0  0  0  0
  7 19  1  0  0  0  0
  8 12  1  0  0  0  0
  9 27  1  1  0  0  0
 10 17  1  0  0  0  0
 11 20  1  0  0  0  0
 13 24  1  6  0  0  0
 13 20  1  0  0  0  0
 13  9  1  0  0  0  0
 14  2  1  0  0  0  0
 15 12  1  0  0  0  0
 15  4  1  0  0  0  0
 16  8  1  0  0  0  0
 17 28  1  6  0  0  0
 17 25  1  0  0  0  0
 18  4  1  0  0  0  0
 18  1  2  0  0  0  0
 19  6  1  1  0  0  0
 19  5  1  0  0  0  0
 20 18  1  0  0  0  0
 22 10  1  0  0  0  0
 22 24  1  0  0  0  0
 23 21  1  0  0  0  0
 25  9  1  0  0  0  0
 25 14  1  1  0  0  0
 26 21  2  0  0  0  0
 27  1  1  0  0  0  0
 27  2  1  0  0  0  0
 29 28  1  0  0  0  0
 30 34  1  0  0  0  0
 30 33  2  0  0  0  0
 32 31  1  0  0  0  0
 32 29  1  1  0  0  0
 33 31  1  0  0  0  0
 34 32  1  0  0  0  0
M  END
>  <MODEL>
7

>  <REMARK>
 VINA RESULT:      -7.9      3.342      8.975
  Name = 
  3 active torsions:
  status: ('A' for Active; 'I' for Inactive)
    1  A    between atoms: C_17  and  O_28
    2  A    between atoms: O_28  and  C_29
    3  A    between atoms: C_29  and  C_32
                            x       y       z     vdW  Elec       q    Type
                         _______ _______ _______ _____ _____    ______ ____

>  <TORSDO>
F 3

$$$$
=
 OpenBabel11112417553D

 34 42  0  0  1  0  0  0  0  0999 V2000
  192.0620  175.9790  145.3920 C   0  0  0  0  0  0  0  0  0  0  0  0
  189.9420  177.1780  146.1000 C   0  0  0  0  0  2  0  0  0  0  0  0
  195.8590  173.6920  140.5660 C   0  0  2  0  0  3  0  0  0  0  0  0
  194.0990  175.1680  144.3210 C   0  0  0  0  0  0  0  0  0  0  0  0
  193.9570  174.2600  141.9550 C   0  0  1  0  0  3  0  0  0  0  0  0
  193.7850  172.2320  140.3170 C   0  0  0  0  0  2  0  0  0  0  0  0
  194.7240  173.2220  139.6800 C   0  0  1  0  0  3  0  0  0  0  0  0
  197.0470  172.9950  142.9550 S   0  0  0  0  0  0  0  0  0  0  0  0
  189.8150  175.5330  144.3210 C   0  0  2  0  0  3  0  0  0  0  0  0
  188.0150  176.5050  141.7720 C   0  0  0  0  0  2  0  0  0  0  0  0
  192.5160  173.8860  142.3280 C   0  0  0  0  0  2  0  0  0  0  0  0
  196.2310  174.6520  143.1200 C   0  0  0  0  0  2  0  0  0  0  0  0
  190.5810  175.4540  142.9780 C   0  0  1  0  0  3  0  0  0  0  0  0
  188.5140  177.1640  145.5890 C   0  0  0  0  0  2  0  0  0  0  0  0
  194.7530  174.5740  143.1760 N   0  0  0  0  0  0  0  0  0  0  0  0
  196.9430  172.7940  141.1120 C   0  0  0  0  0  2  0  0  0  0  0  0
  188.4010  177.2670  143.0510 C   0  0  2  0  0  3  0  0  0  0  0  0
  192.7050  175.3510  144.3140 C   0  0  0  0  0  0  0  0  0  0  0  0
  194.6310  173.1120  141.2130 C   0  0  2  0  0  0  0  0  0  0  0  0
  191.9330  174.9070  143.1920 N   0  0  0  0  0  0  0  0  0  0  0  0
  194.1950  176.2260  146.5130 C   0  0  0  0  0  3  0  0  0  0  0  0
  188.3220  175.0070  141.8060 C   0  0  0  0  0  2  0  0  0  0  0  0
  194.8350  175.6070  145.4350 C   0  0  0  0  0  3  0  0  0  0  0  0
  189.8170  174.6970  141.8750 C   0  0  0  0  0  2  0  0  0  0  0  0
  188.5100  176.3520  144.2930 C   0  0  1  0  0  3  0  0  0  0  0  0
  192.8130  176.4180  146.4890 C   0  0  0  0  0  3  0  0  0  0  0  0
  190.6420  176.1660  145.3370 N   0  0  0  0  0  0  0  0  0  0  0  0
  187.4760  178.2930  143.2600 O   0  0  0  0  0  0  0  0  0  0  0  0
  186.2540  177.7670  142.8300 C   0  0  0  0  0  2  0  0  0  0  0  0
  185.0450  178.2200  145.9540 N   0  0  0  0  0  0  0  0  0  0  0  0
  185.5650  179.6960  144.2600 C   0  0  0  0  0  2  0  0  0  0  0  0
  185.1170  178.3770  143.6280 C   0  0  2  0  0  3  0  0  0  0  0  0
  185.4580  179.4160  145.7220 C   0  0  0  0  0  3  0  0  0  0  0  0
  184.8160  177.5310  144.7660 N   0  0  0  0  0  2  0  0  0  0  0  0
  1 26  1  0  0  0  0
  3 16  1  6  0  0  0
  3 19  1  0  0  0  0
  4 23  2  0  0  0  0
  5 11  1  1  0  0  0
  5 15  1  0  0  0  0
  7  6  1  6  0  0  0
  7  3  1  0  0  0  0
  7 19  1  0  0  0  0
  8 12  1  0  0  0  0
  9 27  1  1  0  0  0
 10 22  1  0  0  0  0
 10 17  1  0  0  0  0
 11 20  1  0  0  0  0
 12 15  1  0  0  0  0
 13 24  1  6  0  0  0
 13 20  1  0  0  0  0
 13  9  1  0  0  0  0
 14  2  1  0  0  0  0
 15  4  1  0  0  0  0
 16  8  1  0  0  0  0
 17 28  1  1  0  0  0
 17 25  1  0  0  0  0
 18  4  1  0  0  0  0
 18  1  2  0  0  0  0
 19  6  1  1  0  0  0
 19  5  1  0  0  0  0
 20 18  1  0  0  0  0
 22 24  1  0  0  0  0
 23 21  1  0  0  0  0
 25  9  1  0  0  0  0
 25 14  1  1  0  0  0
 26 21  2  0  0  0  0
 27  1  1  0  0  0  0
 27  2  1  0  0  0  0
 29 28  1  0  0  0  0
 31 33  1  0  0  0  0
 32 29  1  1  0  0  0
 32 31  1  0  0  0  0
 32 34  1  0  0  0  0
 33 30  2  0  0  0  0
 34 30  1  0  0  0  0
M  END
>  <MODEL>
8

>  <REMARK>
 VINA RESULT:      -7.8      3.351      8.844
  Name = 
  3 active torsions:
  status: ('A' for Active; 'I' for Inactive)
    1  A    between atoms: C_17  and  O_28
    2  A    between atoms: O_28  and  C_29
    3  A    between atoms: C_29  and  C_32
                            x       y       z     vdW  Elec       q    Type
                         _______ _______ _______ _____ _____    ______ ____

>  <TORSDO>
F 3

$$$$
=
 OpenBabel11112417553D

 34 42  0  0  1  0  0  0  0  0999 V2000
  192.4220  176.3280  146.0920 C   0  0  0  0  0  0  0  0  0  0  0  0
  194.7760  175.3850  146.1380 C   0  0  0  0  0  2  0  0  0  0  0  0
  186.4290  176.3070  143.4430 C   0  0  2  0  0  3  0  0  0  0  0  0
  190.0230  176.7460  145.9470 C   0  0  0  0  0  0  0  0  0  0  0  0
  188.8320  176.2780  143.7550 C   0  0  1  0  0  3  0  0  0  0  0  0
  187.8460  177.1270  141.4900 C   0  0  0  0  0  2  0  0  0  0  0  0
  186.8870  176.0920  142.0150 C   0  0  1  0  0  3  0  0  0  0  0  0
  186.4810  178.2900  145.3580 S   0  0  0  0  0  0  0  0  0  0  0  0
  193.7440  175.8450  143.9910 C   0  0  2  0  0  3  0  0  0  0  0  0
  194.1800  173.4610  141.7970 C   0  0  0  0  0  2  0  0  0  0  0  0
  190.1870  176.5860  143.1060 C   0  0  0  0  0  2  0  0  0  0  0  0
  187.5250  176.8600  145.9080 C   0  0  0  0  0  2  0  0  0  0  0  0
  192.4140  175.3260  143.3910 C   0  0  1  0  0  3  0  0  0  0  0  0
  195.7430  174.9360  145.0580 C   0  0  0  0  0  2  0  0  0  0  0  0
  188.8040  176.7500  145.1690 N   0  0  0  0  0  0  0  0  0  0  0  0
  185.6280  177.4980  143.9110 C   0  0  0  0  0  2  0  0  0  0  0  0
  194.6040  173.5280  143.2740 C   0  0  2  0  0  3  0  0  0  0  0  0
  191.2410  176.3950  145.3380 C   0  0  0  0  0  0  0  0  0  0  0  0
  187.7050  176.9600  142.9880 C   0  0  2  0  0  0  0  0  0  0  0  0
  191.2760  176.0860  143.9390 N   0  0  0  0  0  0  0  0  0  0  0  0
  191.1910  176.9920  148.0700 C   0  0  0  0  0  3  0  0  0  0  0  0
  193.6940  174.7890  141.2130 C   0  0  0  0  0  2  0  0  0  0  0  0
  190.0140  177.0500  147.3190 C   0  0  0  0  0  3  0  0  0  0  0  0
  192.4010  175.2940  141.8520 C   0  0  0  0  0  2  0  0  0  0  0  0
  194.9770  174.9560  143.7350 C   0  0  1  0  0  3  0  0  0  0  0  0
  192.3920  176.6250  147.4590 C   0  0  0  0  0  3  0  0  0  0  0  0
  193.6390  175.9460  145.4390 N   0  0  0  0  0  0  0  0  0  0  0  0
  195.6620  172.6390  143.4790 O   0  0  0  0  0  0  0  0  0  0  0  0
  195.0560  171.4480  143.8890 C   0  0  0  0  0  2  0  0  0  0  0  0
  195.5930  169.3070  146.4490 N   0  0  0  0  0  0  0  0  0  0  0  0
  196.5590  171.3220  145.8800 C   0  0  0  0  0  2  0  0  0  0  0  0
  195.1060  171.3340  145.4010 C   0  0  2  0  0  3  0  0  0  0  0  0
  196.6900  169.9770  146.5130 C   0  0  0  0  0  3  0  0  0  0  0  0
  194.5980  170.0370  145.8050 N   0  0  0  0  0  2  0  0  0  0  0  0
  1 26  1  0  0  0  0
  3 16  1  6  0  0  0
  4 23  2  0  0  0  0
  5 11  1  6  0  0  0
  5 15  1  0  0  0  0
  7  6  1  6  0  0  0
  7 19  1  0  0  0  0
  7  3  1  0  0  0  0
  8 12  1  0  0  0  0
  9 27  1  1  0  0  0
 10 17  1  0  0  0  0
 11 20  1  0  0  0  0
 13 24  1  6  0  0  0
 13 20  1  0  0  0  0
 13  9  1  0  0  0  0
 14  2  1  0  0  0  0
 15 12  1  0  0  0  0
 15  4  1  0  0  0  0
 16  8  1  0  0  0  0
 17 28  1  6  0  0  0
 17 25  1  0  0  0  0
 18  4  1  0  0  0  0
 18  1  2  0  0  0  0
 19  6  1  6  0  0  0
 19  3  1  0  0  0  0
 19  5  1  0  0  0  0
 20 18  1  0  0  0  0
 22 10  1  0  0  0  0
 22 24  1  0  0  0  0
 23 21  1  0  0  0  0
 25  9  1  0  0  0  0
 25 14  1  1  0  0  0
 26 21  2  0  0  0  0
 27  1  1  0  0  0  0
 27  2  1  0  0  0  0
 28 29  1  0  0  0  0
 30 33  2  0  0  0  0
 31 33  1  0  0  0  0
 32 29  1  6  0  0  0
 32 34  1  0  0  0  0
 32 31  1  0  0  0  0
 34 30  1  0  0  0  0
M  END
>  <MODEL>
9

>  <REMARK>
 VINA RESULT:      -7.7      2.739      4.855
  Name = 
  3 active torsions:
  status: ('A' for Active; 'I' for Inactive)
    1  A    between atoms: C_17  and  O_28
    2  A    between atoms: O_28  and  C_29
    3  A    between atoms: C_29  and  C_32
                            x       y       z     vdW  Elec       q    Type
                         _______ _______ _______ _____ _____    ______ ____

>  <TORSDO>
F 3

$$$$
