=
 OpenBabel11112417233D

 37 42  0  0  1  0  0  0  0  0999 V2000
  195.6010  175.9580  143.5620 C   0  0  0  0  0  0  0  0  0  0  0  0
  191.8260  176.1410  145.2690 C   0  0  0  0  0  0  0  0  0  0  0  0
  189.6920  173.5900  144.7190 C   0  0  0  0  0  2  0  0  0  0  0  0
  194.1550  176.7140  145.5210 C   0  0  0  0  0  0  0  0  0  0  0  0
  191.0520  175.6650  144.2200 C   0  0  0  0  0  0  0  0  0  0  0  0
  190.5160  171.6180  141.7100 C   0  0  0  0  0  0  0  0  0  0  0  0
  193.0700  176.3290  144.7680 C   0  0  0  0  0  0  0  0  0  0  0  0
  189.6710  175.0770  144.3600 C   0  0  2  0  0  3  0  0  0  0  0  0
  193.9330  176.9700  146.8880 C   0  0  0  0  0  3  0  0  0  0  0  0
  190.3220  171.6430  140.2930 N   0  0  0  0  0  2  0  0  0  0  0  0
  193.0830  175.9450  143.4710 C   0  0  0  0  0  0  0  0  0  0  0  0
  195.8750  174.5270  143.9940 C   0  0  0  0  0  1  0  0  0  0  0  0
  190.1960  176.1470  147.1890 C   0  0  0  0  0  2  0  0  0  0  0  0
  192.6340  176.7910  147.4360 C   0  0  0  0  0  3  0  0  0  0  0  0
  194.3410  175.9820  142.6520 C   0  0  0  0  0  2  0  0  0  0  0  0
  190.4590  172.8380  142.4650 N   0  0  0  0  0  0  0  0  0  0  0  0
  190.7250  172.8020  143.9060 C   0  0  0  0  0  2  0  0  0  0  0  0
  191.5590  176.3640  146.6210 C   0  0  0  0  0  0  0  0  0  0  0  0
  191.8490  175.5130  143.1150 N   0  0  0  0  0  0  0  0  0  0  0  0
  195.4840  176.8610  144.8260 C   0  0  0  0  0  2  0  0  0  0  0  0
  188.6350  175.8570  145.1940 C   0  0  1  0  0  3  0  0  0  0  0  0
  196.7840  176.4330  142.7460 C   0  0  0  0  0  1  0  0  0  0  0  0
  190.2620  174.1060  141.7580 C   0  0  0  0  0  2  0  0  0  0  0  0
  190.7310  170.5230  142.2970 O   0  0  0  0  0  0  0  0  0  0  0  0
  191.5160  174.9840  141.7850 C   0  0  0  0  0  2  0  0  0  0  0  0
  189.1540  176.7990  146.2910 C   0  0  0  0  0  2  0  0  0  0  0  0
  187.3840  176.0360  143.0390 C   0  0  0  0  0  3  0  0  0  0  0  0
  187.6790  176.5730  144.2980 C   0  0  0  0  0  0  0  0  0  0  0  0
  187.0800  177.7790  144.6960 C   0  0  0  0  0  3  0  0  0  0  0  0
  185.5660  179.7170  144.2630 C   0  0  0  0  0  1  0  0  0  0  0  0
  185.9050  177.8990  142.5840 C   0  0  0  0  0  3  0  0  0  0  0  0
  186.1960  178.4390  143.8390 C   0  0  0  0  0  0  0  0  0  0  0  0
  186.4980  176.6980  142.1830 C   0  0  0  0  0  3  0  0  0  0  0  0
  191.8400  170.1760  139.0520 C   0  0  0  0  0  1  0  0  0  0  0  0
  190.4010  170.4470  139.4630 C   0  0  2  0  0  3  0  0  0  0  0  0
  190.1510  170.0420  136.9760 C   0  0  0  0  0  1  0  0  0  0  0  0
  189.4980  170.5800  138.2410 C   0  0  0  0  0  2  0  0  0  0  0  0
  1 12  1  0  0  0  0
  1 20  1  0  0  0  0
  2 18  1  0  0  0  0
  4  9  2  0  0  0  0
  5  8  1  0  0  0  0
  5  2  2  0  0  0  0
  6 24  2  0  0  0  0
  6 16  1  0  0  0  0
  7  2  1  0  0  0  0
  7  4  1  0  0  0  0
  8  3  1  1  0  0  0
  8 21  1  0  0  0  0
  9 14  1  0  0  0  0
 10  6  1  0  0  0  0
 11  7  2  0  0  0  0
 15 11  1  0  0  0  0
 15  1  1  0  0  0  0
 16 17  1  0  0  0  0
 17  3  1  0  0  0  0
 18 13  1  0  0  0  0
 18 14  2  0  0  0  0
 19 11  1  0  0  0  0
 19  5  1  0  0  0  0
 20  4  1  0  0  0  0
 21 28  1  6  0  0  0
 21 26  1  0  0  0  0
 22  1  1  0  0  0  0
 23 25  1  0  0  0  0
 23 16  1  0  0  0  0
 25 19  1  0  0  0  0
 26 13  1  0  0  0  0
 27 28  1  0  0  0  0
 28 29  2  0  0  0  0
 31 32  2  0  0  0  0
 32 30  1  0  0  0  0
 32 29  1  0  0  0  0
 33 31  1  0  0  0  0
 33 27  2  0  0  0  0
 35 34  1  6  0  0  0
 35 10  1  0  0  0  0
 36 37  1  0  0  0  0
 37 35  1  0  0  0  0
M  END
>  <MODEL>
1

>  <REMARK>
 VINA RESULT:      -9.3      0.000      0.000
  Name = 
  3 active torsions:
  status: ('A' for Active; 'I' for Inactive)
    1  A    between atoms: C_4  and  N_12
    2  A    between atoms: C_4  and  C_37
    3  A    between atoms: C_23  and  C_30
                            x       y       z     vdW  Elec       q    Type
                         _______ _______ _______ _____ _____    ______ ____

>  <TORSDO>
F 3

$$$$
=
 OpenBabel11112417233D

 37 42  0  0  1  0  0  0  0  0999 V2000
  189.7220  172.3640  139.7440 C   0  0  0  0  0  0  0  0  0  0  0  0
  187.8290  175.8880  140.8400 C   0  0  0  0  0  0  0  0  0  0  0  0
  189.5130  178.0800  142.7700 C   0  0  0  0  0  2  0  0  0  0  0  0
  188.0750  174.2110  139.1250 C   0  0  0  0  0  0  0  0  0  0  0  0
  188.2270  175.9850  142.1660 C   0  0  0  0  0  0  0  0  0  0  0  0
  192.2810  176.5370  144.6590 C   0  0  0  0  0  0  0  0  0  0  0  0
  188.2130  174.6600  140.4180 C   0  0  0  0  0  0  0  0  0  0  0  0
  188.2390  177.2580  142.9760 C   0  0  2  0  0  3  0  0  0  0  0  0
  187.4510  175.0750  138.2050 C   0  0  0  0  0  3  0  0  0  0  0  0
  192.5160  175.8080  145.8680 N   0  0  0  0  0  2  0  0  0  0  0  0
  188.8630  174.0340  141.4250 C   0  0  0  0  0  0  0  0  0  0  0  0
  191.0170  173.0350  139.3170 C   0  0  0  0  0  1  0  0  0  0  0  0
  186.8060  178.1490  140.4110 C   0  0  0  0  0  2  0  0  0  0  0  0
  187.0280  176.3650  138.6260 C   0  0  0  0  0  3  0  0  0  0  0  0
  189.4620  172.6680  141.2460 C   0  0  0  0  0  2  0  0  0  0  0  0
  190.9830  176.5190  144.0490 N   0  0  0  0  0  0  0  0  0  0  0  0
  190.7790  177.2160  142.7760 C   0  0  0  0  0  2  0  0  0  0  0  0
  187.2220  176.7880  139.9620 C   0  0  0  0  0  0  0  0  0  0  0  0
  188.9000  174.8420  142.5110 N   0  0  0  0  0  0  0  0  0  0  0  0
  188.5720  172.8260  138.7990 C   0  0  0  0  0  2  0  0  0  0  0  0
  186.9740  178.1390  142.9550 C   0  0  1  0  0  3  0  0  0  0  0  0
  189.8960  170.8700  139.5860 C   0  0  0  0  0  1  0  0  0  0  0  0
  189.9260  175.6990  144.6460 C   0  0  0  0  0  2  0  0  0  0  0  0
  193.2170  177.2000  144.1330 O   0  0  0  0  0  0  0  0  0  0  0  0
  189.5670  174.4930  143.7740 C   0  0  0  0  0  2  0  0  0  0  0  0
  186.0520  178.0490  141.7300 C   0  0  0  0  0  2  0  0  0  0  0  0
  184.9050  178.4970  144.3090 C   0  0  0  0  0  3  0  0  0  0  0  0
  186.1910  177.9540  144.2140 C   0  0  0  0  0  0  0  0  0  0  0  0
  186.7310  177.2530  145.3030 C   0  0  0  0  0  3  0  0  0  0  0  0
  186.5630  176.3580  147.6290 C   0  0  0  0  0  1  0  0  0  0  0  0
  184.7030  177.6430  146.5660 C   0  0  0  0  0  3  0  0  0  0  0  0
  185.9870  177.0990  146.4760 C   0  0  0  0  0  0  0  0  0  0  0  0
  184.1620  178.3410  145.4830 C   0  0  0  0  0  3  0  0  0  0  0  0
  194.3480  177.1610  146.7680 C   0  0  0  0  0  1  0  0  0  0  0  0
  193.8190  175.7560  146.5200 C   0  0  2  0  0  3  0  0  0  0  0  0
  194.3480  173.4990  145.5010 C   0  0  0  0  0  1  0  0  0  0  0  0
  194.8030  174.9390  145.6890 C   0  0  0  0  0  2  0  0  0  0  0  0
  1 15  1  0  0  0  0
  2  5  2  0  0  0  0
  3 17  1  0  0  0  0
  4  7  1  0  0  0  0
  5 19  1  0  0  0  0
  5  8  1  0  0  0  0
  6 10  1  0  0  0  0
  7  2  1  0  0  0  0
  7 11  2  0  0  0  0
  8  3  1  6  0  0  0
  9 14  1  0  0  0  0
  9  4  2  0  0  0  0
 10 35  1  0  0  0  0
 11 19  1  0  0  0  0
 12  1  1  0  0  0  0
 13 26  1  0  0  0  0
 14 18  2  0  0  0  0
 15 11  1  0  0  0  0
 16 23  1  0  0  0  0
 16  6  1  0  0  0  0
 17 16  1  0  0  0  0
 18 13  1  0  0  0  0
 18  2  1  0  0  0  0
 19 25  1  0  0  0  0
 20  4  1  0  0  0  0
 20  1  1  0  0  0  0
 21  8  1  0  0  0  0
 21 28  1  1  0  0  0
 22  1  1  0  0  0  0
 24  6  2  0  0  0  0
 25 23  1  0  0  0  0
 26 21  1  0  0  0  0
 27 33  1  0  0  0  0
 28 27  2  0  0  0  0
 28 29  1  0  0  0  0
 29 32  2  0  0  0  0
 32 31  1  0  0  0  0
 32 30  1  0  0  0  0
 33 31  2  0  0  0  0
 35 34  1  6  0  0  0
 36 37  1  0  0  0  0
 37 35  1  0  0  0  0
M  END
>  <MODEL>
2

>  <REMARK>
 VINA RESULT:      -8.4      2.448      6.732
  Name = 
  3 active torsions:
  status: ('A' for Active; 'I' for Inactive)
    1  A    between atoms: C_4  and  N_12
    2  A    between atoms: C_4  and  C_37
    3  A    between atoms: C_23  and  C_30
                            x       y       z     vdW  Elec       q    Type
                         _______ _______ _______ _____ _____    ______ ____

>  <TORSDO>
F 3

$$$$
=
 OpenBabel11112417233D

 37 42  0  0  1  0  0  0  0  0999 V2000
  189.3880  176.1710  146.0540 C   0  0  0  0  0  0  0  0  0  0  0  0
  193.2120  174.6340  145.5930 C   0  0  0  0  0  0  0  0  0  0  0  0
  194.1790  173.6330  142.5220 C   0  0  0  0  0  2  0  0  0  0  0  0
  191.8310  176.2120  146.7830 C   0  0  0  0  0  0  0  0  0  0  0  0
  192.9550  173.5720  144.7360 C   0  0  0  0  0  0  0  0  0  0  0  0
  191.3520  172.8740  140.2750 C   0  0  0  0  0  0  0  0  0  0  0  0
  192.0050  175.1000  145.9920 C   0  0  0  0  0  0  0  0  0  0  0  0
  193.9780  172.9050  143.8520 C   0  0  2  0  0  3  0  0  0  0  0  0
  192.9910  176.8670  147.2380 C   0  0  0  0  0  3  0  0  0  0  0  0
  190.4460  171.8100  139.9680 N   0  0  0  0  0  2  0  0  0  0  0  0
  191.0350  174.3880  145.3750 C   0  0  0  0  0  0  0  0  0  0  0  0
  189.4730  177.1030  144.8550 C   0  0  0  0  0  1  0  0  0  0  0  0
  195.7270  174.7640  145.5580 C   0  0  0  0  0  2  0  0  0  0  0  0
  194.2710  176.3910  146.8430 C   0  0  0  0  0  3  0  0  0  0  0  0
  189.5800  174.7050  145.5730 C   0  0  0  0  0  2  0  0  0  0  0  0
  191.9830  172.9330  141.5630 N   0  0  0  0  0  0  0  0  0  0  0  0
  192.8550  174.0660  141.8820 C   0  0  0  0  0  2  0  0  0  0  0  0
  194.3910  175.2590  146.0020 C   0  0  0  0  0  0  0  0  0  0  0  0
  191.5990  173.4490  144.5790 N   0  0  0  0  0  0  0  0  0  0  0  0
  190.4230  176.6240  147.1270 C   0  0  0  0  0  2  0  0  0  0  0  0
  195.3190  172.4860  144.4880 C   0  0  1  0  0  3  0  0  0  0  0  0
  188.0020  176.2980  146.6460 C   0  0  0  0  0  1  0  0  0  0  0  0
  191.6390  171.9290  142.5720 C   0  0  0  0  0  2  0  0  0  0  0  0
  191.6000  173.7580  139.4100 O   0  0  0  0  0  0  0  0  0  0  0  0
  190.8350  172.5230  143.7300 C   0  0  0  0  0  2  0  0  0  0  0  0
  195.7990  173.2520  145.7300 C   0  0  0  0  0  2  0  0  0  0  0  0
  195.6580  170.1400  143.6990 C   0  0  0  0  0  3  0  0  0  0  0  0
  195.3360  171.0140  144.7430 C   0  0  0  0  0  0  0  0  0  0  0  0
  195.0250  170.4970  146.0100 C   0  0  0  0  0  3  0  0  0  0  0  0
  194.7040  168.5720  147.5690 C   0  0  0  0  0  1  0  0  0  0  0  0
  195.3590  168.2480  145.1800 C   0  0  0  0  0  3  0  0  0  0  0  0
  195.0360  169.1160  146.2260 C   0  0  0  0  0  0  0  0  0  0  0  0
  195.6700  168.7590  143.9170 C   0  0  0  0  0  3  0  0  0  0  0  0
  188.3670  172.3430  138.7900 C   0  0  0  0  0  1  0  0  0  0  0  0
  189.7470  171.7090  138.6930 C   0  0  2  0  0  3  0  0  0  0  0  0
  190.1360  170.0510  136.8190 C   0  0  0  0  0  1  0  0  0  0  0  0
  189.6500  170.2530  138.2470 C   0  0  0  0  0  2  0  0  0  0  0  0
  1 22  1  0  0  0  0
  1 20  1  0  0  0  0
  2  7  1  0  0  0  0
  2 18  1  0  0  0  0
  4 20  1  0  0  0  0
  4  9  2  0  0  0  0
  5  2  2  0  0  0  0
  6 16  1  0  0  0  0
  7  4  1  0  0  0  0
  8  3  1  6  0  0  0
  8 21  1  0  0  0  0
  8  5  1  0  0  0  0
 10  6  1  0  0  0  0
 11 15  1  0  0  0  0
 11  7  2  0  0  0  0
 12  1  1  0  0  0  0
 13 26  1  0  0  0  0
 13 18  1  0  0  0  0
 14  9  1  0  0  0  0
 15  1  1  0  0  0  0
 16 17  1  0  0  0  0
 16 23  1  0  0  0  0
 17  3  1  0  0  0  0
 18 14  2  0  0  0  0
 19  5  1  0  0  0  0
 19 11  1  0  0  0  0
 21 28  1  1  0  0  0
 21 26  1  0  0  0  0
 23 25  1  0  0  0  0
 24  6  2  0  0  0  0
 25 19  1  0  0  0  0
 27 33  2  0  0  0  0
 27 28  1  0  0  0  0
 28 29  2  0  0  0  0
 29 32  1  0  0  0  0
 31 32  2  0  0  0  0
 32 30  1  0  0  0  0
 33 31  1  0  0  0  0
 35 34  1  1  0  0  0
 35 10  1  0  0  0  0
 36 37  1  0  0  0  0
 37 35  1  0  0  0  0
M  END
>  <MODEL>
3

>  <REMARK>
 VINA RESULT:      -8.2      2.858      6.608
  Name = 
  3 active torsions:
  status: ('A' for Active; 'I' for Inactive)
    1  A    between atoms: C_4  and  N_12
    2  A    between atoms: C_4  and  C_37
    3  A    between atoms: C_23  and  C_30
                            x       y       z     vdW  Elec       q    Type
                         _______ _______ _______ _____ _____    ______ ____

>  <TORSDO>
F 3

$$$$
=
 OpenBabel11112417233D

 37 42  0  0  1  0  0  0  0  0999 V2000
  189.3920  172.5630  138.9070 C   0  0  0  0  0  0  0  0  0  0  0  0
  188.0090  175.9420  140.8760 C   0  0  0  0  0  0  0  0  0  0  0  0
  190.1780  177.6940  142.7710 C   0  0  0  0  0  2  0  0  0  0  0  0
  187.8130  174.5660  138.9050 C   0  0  0  0  0  0  0  0  0  0  0  0
  188.6430  175.7960  142.1020 C   0  0  0  0  0  0  0  0  0  0  0  0
  193.1070  175.7220  143.8410 C   0  0  0  0  0  0  0  0  0  0  0  0
  188.2140  174.7840  140.2030 C   0  0  0  0  0  0  0  0  0  0  0  0
  188.9000  176.9120  143.0820 C   0  0  2  0  0  3  0  0  0  0  0  0
  187.1060  175.6020  138.2650 C   0  0  0  0  0  3  0  0  0  0  0  0
  193.4950  174.7900  144.8560 N   0  0  0  0  0  2  0  0  0  0  0  0
  188.9810  173.9680  140.9590 C   0  0  0  0  0  0  0  0  0  0  0  0
  190.6400  173.2310  138.3540 C   0  0  0  0  0  1  0  0  0  0  0  0
  187.1100  178.2910  141.0040 C   0  0  0  0  0  2  0  0  0  0  0  0
  186.8680  176.8220  138.9530 C   0  0  0  0  0  3  0  0  0  0  0  0
  189.4280  172.6230  140.4610 C   0  0  0  0  0  2  0  0  0  0  0  0
  191.7230  175.8700  143.4920 N   0  0  0  0  0  0  0  0  0  0  0  0
  191.3530  176.7800  142.4040 C   0  0  0  0  0  2  0  0  0  0  0  0
  187.3290  177.0050  140.2790 C   0  0  0  0  0  0  0  0  0  0  0  0
  189.2740  174.5800  142.1320 N   0  0  0  0  0  0  0  0  0  0  0  0
  188.1330  173.2320  138.2800 C   0  0  0  0  0  2  0  0  0  0  0  0
  187.7260  177.8460  143.4380 C   0  0  1  0  0  3  0  0  0  0  0  0
  189.4160  171.1090  138.4890 C   0  0  0  0  0  1  0  0  0  0  0  0
  190.7280  175.0150  144.1410 C   0  0  0  0  0  2  0  0  0  0  0  0
  193.9840  176.4170  143.2580 O   0  0  0  0  0  0  0  0  0  0  0  0
  190.1250  173.9910  143.1760 C   0  0  0  0  0  2  0  0  0  0  0  0
  186.5960  178.0080  142.4090 C   0  0  0  0  0  2  0  0  0  0  0  0
  187.9070  176.6670  145.6330 C   0  0  0  0  0  3  0  0  0  0  0  0
  187.1670  177.4910  144.7770 C   0  0  0  0  0  0  0  0  0  0  0  0
  185.9110  177.9650  145.1840 C   0  0  0  0  0  3  0  0  0  0  0  0
  184.0690  178.1160  146.8640 C   0  0  0  0  0  1  0  0  0  0  0  0
  186.1430  176.7910  147.2880 C   0  0  0  0  0  3  0  0  0  0  0  0
  185.4010  177.6140  146.4370 C   0  0  0  0  0  0  0  0  0  0  0  0
  187.3950  176.3170  146.8870 C   0  0  0  0  0  3  0  0  0  0  0  0
  195.1600  173.0790  145.3970 C   0  0  0  0  0  1  0  0  0  0  0  0
  194.8840  174.5660  145.2350 C   0  0  2  0  0  3  0  0  0  0  0  0
  194.1990  176.4080  146.8310 C   0  0  0  0  0  1  0  0  0  0  0  0
  195.2220  175.3280  146.5130 C   0  0  0  0  0  2  0  0  0  0  0  0
  1 15  1  0  0  0  0
  2  5  2  0  0  0  0
  4  7  1  0  0  0  0
  5 19  1  0  0  0  0
  5  8  1  0  0  0  0
  6 10  1  0  0  0  0
  7  2  1  0  0  0  0
  7 11  2  0  0  0  0
  8  3  1  6  0  0  0
  8 21  1  0  0  0  0
  9  4  2  0  0  0  0
  9 14  1  0  0  0  0
 10 35  1  0  0  0  0
 11 19  1  0  0  0  0
 12  1  1  0  0  0  0
 13 26  1  0  0  0  0
 14 18  2  0  0  0  0
 15 11  1  0  0  0  0
 16  6  1  0  0  0  0
 16 23  1  0  0  0  0
 17  3  1  0  0  0  0
 17 16  1  0  0  0  0
 18  2  1  0  0  0  0
 18 13  1  0  0  0  0
 19 25  1  0  0  0  0
 20  4  1  0  0  0  0
 20  1  1  0  0  0  0
 21 28  1  1  0  0  0
 22  1  1  0  0  0  0
 24  6  2  0  0  0  0
 25 23  1  0  0  0  0
 26 21  1  0  0  0  0
 27 33  1  0  0  0  0
 28 29  1  0  0  0  0
 28 27  2  0  0  0  0
 29 32  2  0  0  0  0
 32 30  1  0  0  0  0
 32 31  1  0  0  0  0
 33 31  2  0  0  0  0
 35 34  1  1  0  0  0
 35 37  1  0  0  0  0
 37 36  1  0  0  0  0
M  END
>  <MODEL>
4

>  <REMARK>
 VINA RESULT:      -8.1      2.401      6.651
  Name = 
  3 active torsions:
  status: ('A' for Active; 'I' for Inactive)
    1  A    between atoms: C_4  and  N_12
    2  A    between atoms: C_4  and  C_37
    3  A    between atoms: C_23  and  C_30
                            x       y       z     vdW  Elec       q    Type
                         _______ _______ _______ _____ _____    ______ ____

>  <TORSDO>
F 3

$$$$
=
 OpenBabel11112417233D

 37 42  0  0  1  0  0  0  0  0999 V2000
  187.6040  176.3680  143.2680 C   0  0  0  0  0  0  0  0  0  0  0  0
  191.3020  175.0210  144.5790 C   0  0  0  0  0  0  0  0  0  0  0  0
  193.6020  174.1510  142.2730 C   0  0  0  0  0  2  0  0  0  0  0  0
  189.4500  176.5010  145.0230 C   0  0  0  0  0  0  0  0  0  0  0  0
  191.5160  173.9730  143.6950 C   0  0  0  0  0  0  0  0  0  0  0  0
  192.1370  173.3240  138.9880 C   0  0  0  0  0  0  0  0  0  0  0  0
  190.0210  175.4210  144.3910 C   0  0  0  0  0  0  0  0  0  0  0  0
  192.8620  173.3780  143.3660 C   0  0  2  0  0  3  0  0  0  0  0  0
  190.2430  177.1970  145.9550 C   0  0  0  0  0  3  0  0  0  0  0  0
  191.5250  172.2280  138.3010 N   0  0  0  0  0  2  0  0  0  0  0  0
  189.4730  174.6820  143.4000 C   0  0  0  0  0  0  0  0  0  0  0  0
  188.1700  177.3350  142.2410 C   0  0  0  0  0  1  0  0  0  0  0  0
  193.5510  175.2680  145.6850 C   0  0  0  0  0  2  0  0  0  0  0  0
  191.5870  176.7900  146.1790 C   0  0  0  0  0  3  0  0  0  0  0  0
  188.0710  174.9260  142.9200 C   0  0  0  0  0  2  0  0  0  0  0  0
  192.1150  173.3770  140.4220 N   0  0  0  0  0  0  0  0  0  0  0  0
  192.6880  174.5400  141.1050 C   0  0  0  0  0  2  0  0  0  0  0  0
  192.1340  175.6890  145.4790 C   0  0  0  0  0  0  0  0  0  0  0  0
  190.3850  173.7910  142.9420 N   0  0  0  0  0  0  0  0  0  0  0  0
  188.0180  176.8380  144.6950 C   0  0  0  0  0  2  0  0  0  0  0  0
  193.7910  173.0040  144.5380 C   0  0  1  0  0  3  0  0  0  0  0  0
  186.0950  176.4140  143.1710 C   0  0  0  0  0  1  0  0  0  0  0  0
  191.4070  172.3310  141.1640 C   0  0  0  0  0  2  0  0  0  0  0  0
  192.7010  174.2420  138.3320 O   0  0  0  0  0  0  0  0  0  0  0  0
  190.1360  172.8550  141.8360 C   0  0  0  0  0  2  0  0  0  0  0  0
  193.6190  173.7580  145.8650 C   0  0  0  0  0  2  0  0  0  0  0  0
  192.9370  170.7230  143.9830 C   0  0  0  0  0  3  0  0  0  0  0  0
  193.7700  171.5280  144.7680 C   0  0  0  0  0  0  0  0  0  0  0  0
  194.5660  170.9410  145.7630 C   0  0  0  0  0  3  0  0  0  0  0  0
  195.3680  168.9410  147.0250 C   0  0  0  0  0  1  0  0  0  0  0  0
  193.6920  168.7600  145.1830 C   0  0  0  0  0  3  0  0  0  0  0  0
  194.5250  169.5600  145.9690 C   0  0  0  0  0  0  0  0  0  0  0  0
  192.8980  169.3410  144.1900 C   0  0  0  0  0  3  0  0  0  0  0  0
  190.3180  172.9370  136.2920 C   0  0  0  0  0  1  0  0  0  0  0  0
  191.4820  172.1300  136.8480 C   0  0  2  0  0  3  0  0  0  0  0  0
  190.4700  169.8530  137.2990 C   0  0  0  0  0  1  0  0  0  0  0  0
  191.3950  170.6710  136.4100 C   0  0  0  0  0  2  0  0  0  0  0  0
  1 20  1  0  0  0  0
  2 18  1  0  0  0  0
  4  9  2  0  0  0  0
  5  2  2  0  0  0  0
  6 16  1  0  0  0  0
  7  2  1  0  0  0  0
  7  4  1  0  0  0  0
  8  3  1  6  0  0  0
  8  5  1  0  0  0  0
  8 21  1  0  0  0  0
  9 14  1  0  0  0  0
 10  6  1  0  0  0  0
 11  7  2  0  0  0  0
 12  1  1  0  0  0  0
 13 26  1  0  0  0  0
 15  1  1  0  0  0  0
 15 11  1  0  0  0  0
 16 17  1  0  0  0  0
 16 23  1  0  0  0  0
 17  3  1  0  0  0  0
 18 13  1  0  0  0  0
 18 14  2  0  0  0  0
 19 11  1  0  0  0  0
 19  5  1  0  0  0  0
 20  4  1  0  0  0  0
 21 28  1  1  0  0  0
 21 26  1  0  0  0  0
 22  1  1  0  0  0  0
 23 25  1  0  0  0  0
 24  6  2  0  0  0  0
 25 19  1  0  0  0  0
 27 33  2  0  0  0  0
 27 28  1  0  0  0  0
 28 29  2  0  0  0  0
 29 32  1  0  0  0  0
 31 32  2  0  0  0  0
 32 30  1  0  0  0  0
 33 31  1  0  0  0  0
 35 34  1  1  0  0  0
 35 10  1  0  0  0  0
 37 35  1  0  0  0  0
 37 36  1  0  0  0  0
M  END
>  <MODEL>
5

>  <REMARK>
 VINA RESULT:      -7.4      2.709      6.382
  Name = 
  3 active torsions:
  status: ('A' for Active; 'I' for Inactive)
    1  A    between atoms: C_4  and  N_12
    2  A    between atoms: C_4  and  C_37
    3  A    between atoms: C_23  and  C_30
                            x       y       z     vdW  Elec       q    Type
                         _______ _______ _______ _____ _____    ______ ____

>  <TORSDO>
F 3

$$$$
=
 OpenBabel11112417233D

 37 42  0  0  1  0  0  0  0  0999 V2000
  189.0840  172.8330  139.2670 C   0  0  0  0  0  0  0  0  0  0  0  0
  191.3940  172.7490  142.7110 C   0  0  0  0  0  0  0  0  0  0  0  0
  190.1310  174.1150  145.5230 C   0  0  0  0  0  2  0  0  0  0  0  0
  190.8140  171.5960  140.6740 C   0  0  0  0  0  0  0  0  0  0  0  0
  191.1510  174.0220  143.2080 C   0  0  0  0  0  0  0  0  0  0  0  0
  187.4540  176.5710  144.8790 C   0  0  0  0  0  0  0  0  0  0  0  0
  190.8570  172.7190  141.4670 C   0  0  0  0  0  0  0  0  0  0  0  0
  191.3400  174.4420  144.6440 C   0  0  2  0  0  3  0  0  0  0  0  0
  191.4110  170.4250  141.1790 C   0  0  0  0  0  3  0  0  0  0  0  0
  187.2850  177.9500  144.5350 N   0  0  0  0  0  2  0  0  0  0  0  0
  190.2650  173.9080  141.2170 C   0  0  0  0  0  0  0  0  0  0  0  0
  187.8160  172.3390  139.9440 C   0  0  0  0  0  1  0  0  0  0  0  0
  192.5640  171.6270  144.6380 C   0  0  0  0  0  2  0  0  0  0  0  0
  191.9920  170.4340  142.4770 C   0  0  0  0  0  3  0  0  0  0  0  0
  189.5300  174.1660  139.9330 C   0  0  0  0  0  2  0  0  0  0  0  0
  188.6730  175.8910  144.5460 N   0  0  0  0  0  0  0  0  0  0  0  0
  188.8000  174.4620  144.8460 C   0  0  0  0  0  2  0  0  0  0  0  0
  191.9820  171.6100  143.2630 C   0  0  0  0  0  0  0  0  0  0  0  0
  190.4180  174.7250  142.2860 N   0  0  0  0  0  0  0  0  0  0  0  0
  190.1630  171.7100  139.3190 C   0  0  0  0  0  2  0  0  0  0  0  0
  192.6700  174.0770  145.3330 C   0  0  1  0  0  3  0  0  0  0  0  0
  188.7600  173.1140  137.8160 C   0  0  0  0  0  1  0  0  0  0  0  0
  189.7090  176.6080  143.8000 C   0  0  0  0  0  2  0  0  0  0  0  0
  186.5310  175.9550  145.4790 O   0  0  0  0  0  0  0  0  0  0  0  0
  189.8620  176.0830  142.3710 C   0  0  0  0  0  2  0  0  0  0  0  0
  193.4440  172.8580  144.8100 C   0  0  0  0  0  2  0  0  0  0  0  0
  193.3850  176.2020  146.4360 C   0  0  0  0  0  3  0  0  0  0  0  0
  193.5630  175.2730  145.4050 C   0  0  0  0  0  0  0  0  0  0  0  0
  194.5710  175.4800  144.4500 C   0  0  0  0  0  3  0  0  0  0  0  0
  196.4540  176.8260  143.5140 C   0  0  0  0  0  1  0  0  0  0  0  0
  195.2070  177.5340  145.5600 C   0  0  0  0  0  3  0  0  0  0  0  0
  195.3890  176.6090  144.5290 C   0  0  0  0  0  0  0  0  0  0  0  0
  194.2060  177.3310  146.5140 C   0  0  0  0  0  3  0  0  0  0  0  0
  185.9410  179.8920  143.8880 C   0  0  0  0  0  1  0  0  0  0  0  0
  186.0610  178.6910  144.8130 C   0  0  2  0  0  3  0  0  0  0  0  0
  184.7490  178.6480  146.9790 C   0  0  0  0  0  1  0  0  0  0  0  0
  186.0140  179.1200  146.2770 C   0  0  0  0  0  2  0  0  0  0  0  0
  1 20  1  0  0  0  0
  1 15  1  0  0  0  0
  1 12  1  0  0  0  0
  2  5  2  0  0  0  0
  2 18  1  0  0  0  0
  4  9  2  0  0  0  0
  4  7  1  0  0  0  0
  5  8  1  0  0  0  0
  6 24  2  0  0  0  0
  7  2  1  0  0  0  0
  8 21  1  0  0  0  0
  8  3  1  1  0  0  0
  9 14  1  0  0  0  0
 10 35  1  0  0  0  0
 10  6  1  0  0  0  0
 11  7  2  0  0  0  0
 11 19  1  0  0  0  0
 13 26  1  0  0  0  0
 14 18  2  0  0  0  0
 15 11  1  0  0  0  0
 16 17  1  0  0  0  0
 16  6  1  0  0  0  0
 17  3  1  0  0  0  0
 18 13  1  0  0  0  0
 19 25  1  0  0  0  0
 19  5  1  0  0  0  0
 20  4  1  0  0  0  0
 21 28  1  6  0  0  0
 22  1  1  0  0  0  0
 23 16  1  0  0  0  0
 25 23  1  0  0  0  0
 26 21  1  0  0  0  0
 27 33  1  0  0  0  0
 28 27  2  0  0  0  0
 29 32  2  0  0  0  0
 29 28  1  0  0  0  0
 30 32  1  0  0  0  0
 31 33  2  0  0  0  0
 32 31  1  0  0  0  0
 35 34  1  6  0  0  0
 35 37  1  0  0  0  0
 37 36  1  0  0  0  0
M  END
>  <MODEL>
6

>  <REMARK>
 VINA RESULT:      -7.1      2.320      7.616
  Name = 
  3 active torsions:
  status: ('A' for Active; 'I' for Inactive)
    1  A    between atoms: C_4  and  N_12
    2  A    between atoms: C_4  and  C_37
    3  A    between atoms: C_23  and  C_30
                            x       y       z     vdW  Elec       q    Type
                         _______ _______ _______ _____ _____    ______ ____

>  <TORSDO>
F 3

$$$$
=
 OpenBabel11112417233D

 37 42  0  0  1  0  0  0  0  0999 V2000
  191.5230  171.1150  137.5670 C   0  0  0  0  0  0  0  0  0  0  0  0
  192.3470  170.7390  141.6150 C   0  0  0  0  0  0  0  0  0  0  0  0
  190.2200  172.1440  143.8210 C   0  0  0  0  0  2  0  0  0  0  0  0
  192.4960  169.6930  139.4470 C   0  0  0  0  0  0  0  0  0  0  0  0
  192.0290  172.0160  142.0560 C   0  0  0  0  0  0  0  0  0  0  0  0
  188.1740  174.8460  142.3620 C   0  0  0  0  0  0  0  0  0  0  0  0
  192.3190  170.7870  140.2610 C   0  0  0  0  0  0  0  0  0  0  0  0
  191.6920  172.3820  143.4790 C   0  0  2  0  0  3  0  0  0  0  0  0
  192.7690  168.4610  140.0720 C   0  0  0  0  0  3  0  0  0  0  0  0
  188.2510  176.2420  142.0590 N   0  0  0  0  0  2  0  0  0  0  0  0
  191.9560  172.0310  139.8750 C   0  0  0  0  0  0  0  0  0  0  0  0
  190.0600  170.7200  137.6910 C   0  0  0  0  0  1  0  0  0  0  0  0
  192.6150  169.4690  143.7730 C   0  0  0  0  0  2  0  0  0  0  0  0
  192.8150  168.3860  141.4910 C   0  0  0  0  0  3  0  0  0  0  0  0
  191.7810  172.3850  138.4260 C   0  0  0  0  0  2  0  0  0  0  0  0
  189.3740  174.0670  142.4720 N   0  0  0  0  0  0  0  0  0  0  0  0
  189.2730  172.6250  142.7160 C   0  0  0  0  0  2  0  0  0  0  0  0
  192.5960  169.5380  142.2820 C   0  0  0  0  0  0  0  0  0  0  0  0
  191.7530  172.8040  140.9680 N   0  0  0  0  0  0  0  0  0  0  0  0
  192.4150  169.8980  137.9560 C   0  0  0  0  0  2  0  0  0  0  0  0
  192.6310  171.8820  144.5950 C   0  0  1  0  0  3  0  0  0  0  0  0
  191.7930  171.4590  136.1190 C   0  0  0  0  0  1  0  0  0  0  0  0
  190.6660  174.7060  142.2100 C   0  0  0  0  0  2  0  0  0  0  0  0
  187.0500  174.3010  142.5370 O   0  0  0  0  0  0  0  0  0  0  0  0
  191.3090  174.2040  140.9150 C   0  0  0  0  0  2  0  0  0  0  0  0
  193.4530  170.6110  144.3310 C   0  0  0  0  0  2  0  0  0  0  0  0
  194.9050  172.8570  144.9420 C   0  0  0  0  0  3  0  0  0  0  0  0
  193.5170  172.9900  145.0630 C   0  0  0  0  0  0  0  0  0  0  0  0
  192.9780  174.1550  145.6300 C   0  0  0  0  0  3  0  0  0  0  0  0
  193.2490  176.4070  146.6740 C   0  0  0  0  0  1  0  0  0  0  0  0
  195.2090  175.0390  145.9490 C   0  0  0  0  0  3  0  0  0  0  0  0
  193.8230  175.1760  146.0720 C   0  0  0  0  0  0  0  0  0  0  0  0
  195.7500  173.8800  145.3840 C   0  0  0  0  0  3  0  0  0  0  0  0
  186.9290  177.5360  140.4550 C   0  0  0  0  0  1  0  0  0  0  0  0
  187.0710  177.0830  141.9000 C   0  0  2  0  0  3  0  0  0  0  0  0
  186.9770  177.8740  144.3030 C   0  0  0  0  0  1  0  0  0  0  0  0
  187.1320  178.2790  142.8450 C   0  0  0  0  0  2  0  0  0  0  0  0
  1 12  1  0  0  0  0
  1 20  1  0  0  0  0
  1 15  1  0  0  0  0
  2  5  2  0  0  0  0
  2 18  1  0  0  0  0
  4  9  2  0  0  0  0
  4  7  1  0  0  0  0
  5  8  1  0  0  0  0
  6 16  1  0  0  0  0
  6 24  2  0  0  0  0
  7  2  1  0  0  0  0
  8  3  1  1  0  0  0
  8 21  1  0  0  0  0
  9 14  1  0  0  0  0
 10  6  1  0  0  0  0
 11  7  2  0  0  0  0
 11 19  1  0  0  0  0
 13 26  1  0  0  0  0
 14 18  2  0  0  0  0
 15 11  1  0  0  0  0
 16 17  1  0  0  0  0
 17  3  1  0  0  0  0
 18 13  1  0  0  0  0
 19  5  1  0  0  0  0
 20  4  1  0  0  0  0
 21 28  1  6  0  0  0
 22  1  1  0  0  0  0
 23 16  1  0  0  0  0
 25 19  1  0  0  0  0
 25 23  1  0  0  0  0
 26 21  1  0  0  0  0
 27 28  2  0  0  0  0
 27 33  1  0  0  0  0
 28 29  1  0  0  0  0
 29 32  2  0  0  0  0
 31 32  1  0  0  0  0
 32 30  1  0  0  0  0
 33 31  2  0  0  0  0
 35 34  1  6  0  0  0
 35 10  1  0  0  0  0
 35 37  1  0  0  0  0
 37 36  1  0  0  0  0
M  END
>  <MODEL>
7

>  <REMARK>
 VINA RESULT:      -6.9      2.200      7.473
  Name = 
  3 active torsions:
  status: ('A' for Active; 'I' for Inactive)
    1  A    between atoms: C_4  and  N_12
    2  A    between atoms: C_4  and  C_37
    3  A    between atoms: C_23  and  C_30
                            x       y       z     vdW  Elec       q    Type
                         _______ _______ _______ _____ _____    ______ ____

>  <TORSDO>
F 3

$$$$
=
 OpenBabel11112417233D

 37 42  0  0  1  0  0  0  0  0999 V2000
  197.1200  174.9330  140.5130 C   0  0  0  0  0  0  0  0  0  0  0  0
  194.2460  174.3830  143.4530 C   0  0  0  0  0  0  0  0  0  0  0  0
  191.9500  171.9530  143.0170 C   0  0  0  0  0  2  0  0  0  0  0  0
  196.5280  175.0140  142.9930 C   0  0  0  0  0  0  0  0  0  0  0  0
  193.1220  174.1700  142.6690 C   0  0  0  0  0  0  0  0  0  0  0  0
  191.5260  170.9610  139.4880 C   0  0  0  0  0  0  0  0  0  0  0  0
  195.2270  174.7850  142.6090 C   0  0  0  0  0  0  0  0  0  0  0  0
  191.8640  173.4770  143.1280 C   0  0  2  0  0  3  0  0  0  0  0  0
  196.8350  174.8630  144.3580 C   0  0  0  0  0  3  0  0  0  0  0  0
  190.8280  171.3680  138.3070 N   0  0  0  0  0  2  0  0  0  0  0  0
  194.7460  174.7810  141.3450 C   0  0  0  0  0  0  0  0  0  0  0  0
  197.4710  173.4590  140.3910 C   0  0  0  0  0  1  0  0  0  0  0  0
  193.4360  173.7450  145.7510 C   0  0  0  0  0  2  0  0  0  0  0  0
  195.8210  174.4520  145.2670 C   0  0  0  0  0  3  0  0  0  0  0  0
  195.6160  175.1290  140.1720 C   0  0  0  0  0  2  0  0  0  0  0  0
  191.8030  171.9140  140.5240 N   0  0  0  0  0  0  0  0  0  0  0  0
  192.5780  171.4950  141.6950 C   0  0  0  0  0  2  0  0  0  0  0  0
  194.5040  174.2010  144.8130 C   0  0  0  0  0  0  0  0  0  0  0  0
  193.4510  174.3860  141.3550 N   0  0  0  0  0  0  0  0  0  0  0  0
  197.5150  175.4360  141.9340 C   0  0  0  0  0  2  0  0  0  0  0  0
  191.2420  173.9230  144.4660 C   0  0  1  0  0  3  0  0  0  0  0  0
  197.9400  175.6950  139.4950 C   0  0  0  0  0  1  0  0  0  0  0  0
  191.4170  173.3140  140.3290 C   0  0  0  0  0  2  0  0  0  0  0  0
  191.8940  169.7620  139.6190 O   0  0  0  0  0  0  0  0  0  0  0  0
  192.6290  174.2290  140.1460 C   0  0  0  0  0  2  0  0  0  0  0  0
  192.1670  174.5530  145.5180 C   0  0  0  0  0  2  0  0  0  0  0  0
  189.4680  174.8190  142.9520 C   0  0  0  0  0  3  0  0  0  0  0  0
  190.0550  174.7970  144.2220 C   0  0  0  0  0  0  0  0  0  0  0  0
  189.5280  175.6010  145.2440 C   0  0  0  0  0  3  0  0  0  0  0  0
  187.8700  177.2720  146.0780 C   0  0  0  0  0  1  0  0  0  0  0  0
  187.8410  176.4380  143.7240 C   0  0  0  0  0  3  0  0  0  0  0  0
  188.4240  176.4200  144.9940 C   0  0  0  0  0  0  0  0  0  0  0  0
  188.3630  175.6380  142.7030 C   0  0  0  0  0  3  0  0  0  0  0  0
  191.8270  170.0920  136.4720 C   0  0  0  0  0  1  0  0  0  0  0  0
  190.5450  170.4600  137.2030 C   0  0  2  0  0  3  0  0  0  0  0  0
  190.1110  171.3300  134.8640 C   0  0  0  0  0  1  0  0  0  0  0  0
  189.5280  171.0770  136.2470 C   0  0  0  0  0  2  0  0  0  0  0  0
  1 20  1  0  0  0  0
  2 18  1  0  0  0  0
  4  9  2  0  0  0  0
  5  8  1  0  0  0  0
  5  2  2  0  0  0  0
  6 24  2  0  0  0  0
  6 16  1  0  0  0  0
  7  4  1  0  0  0  0
  7  2  1  0  0  0  0
  8  3  1  1  0  0  0
  8 21  1  0  0  0  0
  9 14  1  0  0  0  0
 10  6  1  0  0  0  0
 11 19  1  0  0  0  0
 11  7  2  0  0  0  0
 12  1  1  0  0  0  0
 15  1  1  0  0  0  0
 15 11  1  0  0  0  0
 16 17  1  0  0  0  0
 17  3  1  0  0  0  0
 18 14  2  0  0  0  0
 18 13  1  0  0  0  0
 19  5  1  0  0  0  0
 20  4  1  0  0  0  0
 21 28  1  6  0  0  0
 21 26  1  0  0  0  0
 22  1  1  0  0  0  0
 23 16  1  0  0  0  0
 25 23  1  0  0  0  0
 25 19  1  0  0  0  0
 26 13  1  0  0  0  0
 27 28  1  0  0  0  0
 28 29  2  0  0  0  0
 31 32  2  0  0  0  0
 32 29  1  0  0  0  0
 32 30  1  0  0  0  0
 33 27  2  0  0  0  0
 33 31  1  0  0  0  0
 35 34  1  6  0  0  0
 35 10  1  0  0  0  0
 36 37  1  0  0  0  0
 37 35  1  0  0  0  0
M  END
>  <MODEL>
8

>  <REMARK>
 VINA RESULT:      -6.8      1.984      3.194
  Name = 
  3 active torsions:
  status: ('A' for Active; 'I' for Inactive)
    1  A    between atoms: C_4  and  N_12
    2  A    between atoms: C_4  and  C_37
    3  A    between atoms: C_23  and  C_30
                            x       y       z     vdW  Elec       q    Type
                         _______ _______ _______ _____ _____    ______ ____

>  <TORSDO>
F 3

$$$$
=
 OpenBabel11112417233D

 37 42  0  0  1  0  0  0  0  0999 V2000
  189.9930  171.1460  138.7790 C   0  0  0  0  0  0  0  0  0  0  0  0
  189.0360  174.5030  141.0190 C   0  0  0  0  0  0  0  0  0  0  0  0
  191.5240  176.1360  142.6040 C   0  0  0  0  0  2  0  0  0  0  0  0
  188.4990  173.1930  139.0670 C   0  0  0  0  0  0  0  0  0  0  0  0
  189.8440  174.3030  142.1290 C   0  0  0  0  0  0  0  0  0  0  0  0
  194.5160  174.0500  143.1650 C   0  0  0  0  0  0  0  0  0  0  0  0
  189.0980  173.3610  140.2940 C   0  0  0  0  0  0  0  0  0  0  0  0
  190.2840  175.3820  143.0870 C   0  0  2  0  0  3  0  0  0  0  0  0
  187.7370  174.2670  138.5690 C   0  0  0  0  0  3  0  0  0  0  0  0
  195.0220  173.0770  144.0840 N   0  0  0  0  0  2  0  0  0  0  0  0
  189.9450  172.5000  140.9040 C   0  0  0  0  0  0  0  0  0  0  0  0
  191.1640  171.7950  138.0580 C   0  0  0  0  0  1  0  0  0  0  0  0
  188.2440  176.8720  141.3420 C   0  0  0  0  0  2  0  0  0  0  0  0
  187.6470  175.4730  139.3160 C   0  0  0  0  0  3  0  0  0  0  0  0
  190.2670  171.1590  140.3090 C   0  0  0  0  0  2  0  0  0  0  0  0
  193.1010  174.2480  143.0340 N   0  0  0  0  0  0  0  0  0  0  0  0
  192.5990  175.2000  142.0390 C   0  0  0  0  0  2  0  0  0  0  0  0
  188.3090  175.6030  140.5590 C   0  0  0  0  0  0  0  0  0  0  0  0
  190.4320  173.0690  142.0320 N   0  0  0  0  0  0  0  0  0  0  0  0
  188.6750  171.8700  138.3670 C   0  0  0  0  0  2  0  0  0  0  0  0
  189.2080  176.3380  143.6410 C   0  0  1  0  0  3  0  0  0  0  0  0
  189.9060  169.7050  138.3250 C   0  0  0  0  0  1  0  0  0  0  0  0
  192.1870  173.4020  143.8070 C   0  0  0  0  0  2  0  0  0  0  0  0
  195.3160  174.7360  142.4720 O   0  0  0  0  0  0  0  0  0  0  0  0
  191.4120  172.4250  142.9200 C   0  0  0  0  0  2  0  0  0  0  0  0
  187.9410  176.5620  142.8010 C   0  0  0  0  0  2  0  0  0  0  0  0
  189.5780  174.9570  145.6900 C   0  0  0  0  0  3  0  0  0  0  0  0
  188.8480  175.9590  145.0410 C   0  0  0  0  0  0  0  0  0  0  0  0
  187.7850  176.5880  145.7080 C   0  0  0  0  0  3  0  0  0  0  0  0
  186.3300  176.8800  147.7160 C   0  0  0  0  0  1  0  0  0  0  0  0
  188.1890  175.2130  147.6580 C   0  0  0  0  0  3  0  0  0  0  0  0
  187.4580  176.2140  147.0130 C   0  0  0  0  0  0  0  0  0  0  0  0
  189.2490  174.5840  146.9970 C   0  0  0  0  0  3  0  0  0  0  0  0
  196.7670  171.3840  143.7970 C   0  0  0  0  0  1  0  0  0  0  0  0
  196.4450  172.8020  144.2410 C   0  0  2  0  0  3  0  0  0  0  0  0
  196.2390  174.2760  146.2900 C   0  0  0  0  0  1  0  0  0  0  0  0
  196.8820  173.0370  145.6840 C   0  0  0  0  0  2  0  0  0  0  0  0
  1 15  1  0  0  0  0
  2  5  2  0  0  0  0
  4  7  1  0  0  0  0
  5  8  1  0  0  0  0
  6 10  1  0  0  0  0
  7 11  2  0  0  0  0
  7  2  1  0  0  0  0
  8  3  1  6  0  0  0
  8 21  1  0  0  0  0
  9  4  2  0  0  0  0
  9 14  1  0  0  0  0
 10 35  1  0  0  0  0
 11 19  1  0  0  0  0
 12  1  1  0  0  0  0
 13 26  1  0  0  0  0
 14 18  2  0  0  0  0
 15 11  1  0  0  0  0
 16  6  1  0  0  0  0
 16 23  1  0  0  0  0
 17  3  1  0  0  0  0
 17 16  1  0  0  0  0
 18  2  1  0  0  0  0
 18 13  1  0  0  0  0
 19  5  1  0  0  0  0
 19 25  1  0  0  0  0
 20  1  1  0  0  0  0
 20  4  1  0  0  0  0
 21 28  1  1  0  0  0
 22  1  1  0  0  0  0
 24  6  2  0  0  0  0
 25 23  1  0  0  0  0
 26 21  1  0  0  0  0
 27 33  1  0  0  0  0
 28 27  2  0  0  0  0
 28 29  1  0  0  0  0
 29 32  2  0  0  0  0
 32 31  1  0  0  0  0
 32 30  1  0  0  0  0
 33 31  2  0  0  0  0
 35 34  1  1  0  0  0
 35 37  1  0  0  0  0
 37 36  1  0  0  0  0
M  END
>  <MODEL>
9

>  <REMARK>
 VINA RESULT:      -6.7      2.360      6.542
  Name = 
  3 active torsions:
  status: ('A' for Active; 'I' for Inactive)
    1  A    between atoms: C_4  and  N_12
    2  A    between atoms: C_4  and  C_37
    3  A    between atoms: C_23  and  C_30
                            x       y       z     vdW  Elec       q    Type
                         _______ _______ _______ _____ _____    ______ ____

>  <TORSDO>
F 3

$$$$
