=
 OpenBabel11112416303D

 32 37  0  0  1  0  0  0  0  0999 V2000
  185.8080  176.8200  145.9270 C   0  0  0  0  0  2  0  0  0  0  0  0
  190.5770  175.7630  145.1270 C   0  0  1  0  0  3  0  0  0  0  0  0
  189.8500  173.5950  140.6130 C   0  0  0  0  0  2  0  0  0  0  0  0
  191.3650  173.4830  140.5110 C   0  0  0  0  0  2  0  0  0  0  0  0
  192.3400  174.6250  146.6480 C   0  0  1  0  0  3  0  0  0  0  0  0
  193.5000  175.4830  146.2540 C   0  0  0  0  0  0  0  0  0  0  0  0
  188.8760  177.3820  145.9400 C   0  0  1  0  0  3  0  0  0  0  0  0
  188.7380  176.5660  143.6120 C   0  0  0  0  0  3  0  0  0  0  0  0
  195.0360  176.4630  144.9160 C   0  0  0  0  0  0  0  0  0  0  0  0
  187.0690  178.2300  144.2070 C   0  0  0  0  0  2  0  0  0  0  0  0
  189.4360  174.7260  141.5630 C   0  0  0  0  0  2  0  0  0  0  0  0
  189.8490  175.6740  143.8420 N   0  0  0  0  0  0  0  0  0  0  0  0
  190.4720  175.0350  142.6680 C   0  0  1  0  0  3  0  0  0  0  0  0
  192.1800  174.0060  144.2220 C   0  0  1  0  0  3  0  0  0  0  0  0
  194.7560  177.3030  145.8570 N   0  0  0  0  0  0  0  0  0  0  0  0
  186.6850  176.8490  147.1840 C   0  0  0  0  0  2  0  0  0  0  0  0
  188.2300  177.3430  144.5710 C   0  0  0  0  0  0  0  0  0  0  0  0
  193.7610  176.7090  146.6820 C   0  0  0  0  0  3  0  0  0  0  0  0
  187.9190  177.7580  147.0750 C   0  0  0  0  0  2  0  0  0  0  0  0
  185.8590  178.1410  145.1510 C   0  0  1  0  0  3  0  0  0  0  0  0
  191.9750  173.1230  141.8690 C   0  0  0  0  0  2  0  0  0  0  0  0
  191.2340  173.7600  143.0570 C   0  0  2  0  0  3  0  0  0  0  0  0
  193.3040  175.0070  143.8580 C   0  0  0  0  0  2  0  0  0  0  0  0
  189.5950  176.0770  146.2520 C   0  0  0  0  0  2  0  0  0  0  0  0
  191.7070  175.0910  147.8050 O   0  0  0  0  0  1  0  0  0  0  0  0
  196.0540  176.7500  143.8690 C   0  0  0  0  0  1  0  0  0  0  0  0
  191.3720  174.4750  145.4500 C   0  0  2  0  0  3  0  0  0  0  0  0
  194.2790  175.1830  145.0250 C   0  0  2  0  0  3  0  0  0  0  0  0
  184.5860  178.3350  144.3440 C   0  0  0  0  0  2  0  0  0  0  0  0
  184.7760  177.8780  142.9380 C   0  0  0  0  0  0  0  0  0  0  0  0
  184.3720  178.6840  141.8830 O   0  0  0  0  0  0  0  0  0  0  0  0
  185.2820  176.7490  142.7070 O   0  0  0  0  0  1  0  0  0  0  0  0
  1 16  1  0  0  0  0
  2 27  1  0  0  0  0
  2 24  1  1  0  0  0
  3 11  1  0  0  0  0
  4  3  1  0  0  0  0
  4 21  1  0  0  0  0
  5 25  1  1  0  0  0
  6  5  1  0  0  0  0
  6 18  2  0  0  0  0
  7 24  1  1  0  0  0
  7 19  1  0  0  0  0
  8 12  1  0  0  0  0
  8 17  2  0  0  0  0
  9 28  1  0  0  0  0
  9 15  2  0  0  0  0
 10 17  1  0  0  0  0
 10 20  1  0  0  0  0
 12  2  1  0  0  0  0
 13 11  1  6  0  0  0
 13 22  1  0  0  0  0
 13 12  1  0  0  0  0
 14 23  1  6  0  0  0
 14 27  1  0  0  0  0
 15 18  1  0  0  0  0
 17  7  1  0  0  0  0
 19 16  1  0  0  0  0
 20 29  1  6  0  0  0
 20  1  1  0  0  0  0
 22 21  1  6  0  0  0
 22 14  1  0  0  0  0
 23 28  1  0  0  0  0
 26  9  1  0  0  0  0
 27  5  1  0  0  0  0
 28  6  1  0  0  0  0
 30 29  1  0  0  0  0
 31 30  2  0  0  0  0
 32 30  1  0  0  0  0
M  END
>  <MODEL>
1

>  <REMARK>
 VINA RESULT:      -9.2      0.000      0.000
  Name = 
  2 active torsions:
  status: ('A' for Active; 'I' for Inactive)
    1  A    between atoms: C_20  and  C_29
    2  A    between atoms: C_29  and  C_30
                            x       y       z     vdW  Elec       q    Type
                         _______ _______ _______ _____ _____    ______ ____

>  <TORSDO>
F 2

$$$$
=
 OpenBabel11112416303D

 32 37  0  0  1  0  0  0  0  0999 V2000
  186.1420  176.4500  145.3330 C   0  0  0  0  0  2  0  0  0  0  0  0
  190.9700  175.5400  144.7280 C   0  0  1  0  0  3  0  0  0  0  0  0
  190.4420  172.9190  140.4320 C   0  0  0  0  0  2  0  0  0  0  0  0
  191.9620  172.8670  140.3700 C   0  0  0  0  0  2  0  0  0  0  0  0
  192.7440  174.6350  146.3850 C   0  0  1  0  0  3  0  0  0  0  0  0
  193.8750  175.5030  145.9320 C   0  0  0  0  0  0  0  0  0  0  0  0
  189.1810  177.1500  145.3490 C   0  0  1  0  0  3  0  0  0  0  0  0
  189.1330  176.1090  143.1080 C   0  0  0  0  0  3  0  0  0  0  0  0
  195.3980  176.4190  144.5340 C   0  0  0  0  0  0  0  0  0  0  0  0
  187.3790  177.7450  143.5090 C   0  0  0  0  0  2  0  0  0  0  0  0
  189.9570  174.1160  141.2600 C   0  0  0  0  0  2  0  0  0  0  0  0
  190.2760  175.2950  143.4450 N   0  0  0  0  0  0  0  0  0  0  0  0
  190.9520  174.5760  142.3500 C   0  0  1  0  0  3  0  0  0  0  0  0
  192.6680  173.7800  144.0280 C   0  0  1  0  0  3  0  0  0  0  0  0
  195.0590  177.3320  145.3850 N   0  0  0  0  0  0  0  0  0  0  0  0
  186.9880  176.6390  146.5980 C   0  0  0  0  0  2  0  0  0  0  0  0
  188.5690  176.9510  143.9790 C   0  0  0  0  0  0  0  0  0  0  0  0
  194.0720  176.7750  146.2440 C   0  0  0  0  0  3  0  0  0  0  0  0
  188.1830  177.5880  146.4250 C   0  0  0  0  0  2  0  0  0  0  0  0
  186.1530  177.6910  144.4340 C   0  0  1  0  0  3  0  0  0  0  0  0
  192.5560  172.6670  141.7680 C   0  0  0  0  0  2  0  0  0  0  0  0
  191.7600  173.3800  142.8750 C   0  0  2  0  0  3  0  0  0  0  0  0
  193.7550  174.7910  143.5900 C   0  0  0  0  0  2  0  0  0  0  0  0
  189.9490  175.9150  145.8000 C   0  0  0  0  0  2  0  0  0  0  0  0
  192.0660  175.1790  147.4790 O   0  0  0  0  0  1  0  0  0  0  0  0
  196.4250  176.6510  143.4840 C   0  0  0  0  0  1  0  0  0  0  0  0
  191.8120  174.3260  145.1890 C   0  0  2  0  0  3  0  0  0  0  0  0
  194.6940  175.1220  144.7530 C   0  0  2  0  0  3  0  0  0  0  0  0
  184.8910  177.7490  143.5890 C   0  0  0  0  0  2  0  0  0  0  0  0
  184.1700  179.0360  143.8050 C   0  0  0  0  0  0  0  0  0  0  0  0
  184.8440  180.1350  144.3190 O   0  0  0  0  0  1  0  0  0  0  0  0
  182.9410  179.1190  143.5450 O   0  0  0  0  0  0  0  0  0  0  0  0
  1 16  1  0  0  0  0
  2 27  1  0  0  0  0
  2 24  1  1  0  0  0
  3 11  1  0  0  0  0
  4  3  1  0  0  0  0
  4 21  1  0  0  0  0
  5 25  1  1  0  0  0
  6 18  2  0  0  0  0
  6  5  1  0  0  0  0
  7 24  1  1  0  0  0
  7 19  1  0  0  0  0
  8 12  1  0  0  0  0
  8 17  2  0  0  0  0
  9 28  1  0  0  0  0
  9 15  2  0  0  0  0
 10 17  1  0  0  0  0
 10 20  1  0  0  0  0
 12  2  1  0  0  0  0
 13 11  1  6  0  0  0
 13 22  1  0  0  0  0
 13 12  1  0  0  0  0
 14 23  1  6  0  0  0
 14 27  1  0  0  0  0
 15 18  1  0  0  0  0
 17  7  1  0  0  0  0
 19 16  1  0  0  0  0
 20 29  1  6  0  0  0
 20  1  1  0  0  0  0
 22 21  1  6  0  0  0
 22 14  1  0  0  0  0
 23 28  1  0  0  0  0
 26  9  1  0  0  0  0
 27  5  1  0  0  0  0
 28  6  1  0  0  0  0
 29 30  1  0  0  0  0
 30 31  1  0  0  0  0
 32 30  2  0  0  0  0
M  END
>  <MODEL>
2

>  <REMARK>
 VINA RESULT:      -9.0      0.983      1.070
  Name = 
  2 active torsions:
  status: ('A' for Active; 'I' for Inactive)
    1  A    between atoms: C_20  and  C_29
    2  A    between atoms: C_29  and  C_30
                            x       y       z     vdW  Elec       q    Type
                         _______ _______ _______ _____ _____    ______ ____

>  <TORSDO>
F 2

$$$$
=
 OpenBabel11112416303D

 32 37  0  0  1  0  0  0  0  0999 V2000
  187.1630  178.3560  143.6860 C   0  0  0  0  0  2  0  0  0  0  0  0
  190.4930  174.7410  143.0930 C   0  0  1  0  0  3  0  0  0  0  0  0
  193.8600  176.6330  146.3620 C   0  0  0  0  0  2  0  0  0  0  0  0
  194.6770  175.3690  146.1300 C   0  0  0  0  0  2  0  0  0  0  0  0
  191.4840  173.6860  140.9440 C   0  0  1  0  0  3  0  0  0  0  0  0
  191.5240  172.2740  141.4380 C   0  0  0  0  0  0  0  0  0  0  0  0
  188.1100  175.4040  143.3460 C   0  0  1  0  0  3  0  0  0  0  0  0
  189.7220  176.0260  145.1130 C   0  0  0  0  0  3  0  0  0  0  0  0
  192.0630  170.5180  142.7550 C   0  0  0  0  0  0  0  0  0  0  0  0
  187.4170  176.6490  145.5720 C   0  0  0  0  0  2  0  0  0  0  0  0
  192.3750  176.4020  146.0560 C   0  0  0  0  0  2  0  0  0  0  0  0
  190.8090  175.4790  144.3360 N   0  0  0  0  0  0  0  0  0  0  0  0
  192.1090  175.2980  145.0070 C   0  0  1  0  0  3  0  0  0  0  0  0
  192.9770  174.2350  142.8840 C   0  0  1  0  0  3  0  0  0  0  0  0
  190.8660  170.3120  142.3120 N   0  0  0  0  0  0  0  0  0  0  0  0
  186.9740  177.5190  142.4160 C   0  0  0  0  0  2  0  0  0  0  0  0
  188.4620  176.0490  144.6690 C   0  0  0  0  0  0  0  0  0  0  0  0
  190.5040  171.4320  141.5130 C   0  0  0  0  0  3  0  0  0  0  0  0
  186.8800  176.0060  142.6620 C   0  0  0  0  0  2  0  0  0  0  0  0
  186.5160  177.7050  144.9140 C   0  0  1  0  0  3  0  0  0  0  0  0
  194.6210  174.9490  144.6580 C   0  0  0  0  0  2  0  0  0  0  0  0
  193.2620  175.2340  143.9950 C   0  0  2  0  0  3  0  0  0  0  0  0
  192.8770  172.7850  143.4160 C   0  0  0  0  0  2  0  0  0  0  0  0
  189.3020  175.3950  142.3970 C   0  0  0  0  0  2  0  0  0  0  0  0
  190.3210  173.9600  140.2190 O   0  0  0  0  0  1  0  0  0  0  0  0
  192.7700  169.5370  143.6220 C   0  0  0  0  0  1  0  0  0  0  0  0
  191.7000  174.6580  142.1290 C   0  0  2  0  0  3  0  0  0  0  0  0
  192.6590  171.7960  142.2680 C   0  0  2  0  0  3  0  0  0  0  0  0
  186.1520  178.7590  145.9470 C   0  0  0  0  0  2  0  0  0  0  0  0
  184.7080  178.6720  146.3040 C   0  0  0  0  0  0  0  0  0  0  0  0
  183.7370  178.9130  145.3420 O   0  0  0  0  0  0  0  0  0  0  0  0
  184.3670  178.4030  147.4860 O   0  0  0  0  0  1  0  0  0  0  0  0
  1 20  1  0  0  0  0
  2 24  1  6  0  0  0
  2 12  1  0  0  0  0
  4  3  1  0  0  0  0
  5 25  1  1  0  0  0
  5  6  1  0  0  0  0
  5 27  1  0  0  0  0
  6 18  2  0  0  0  0
  6 28  1  0  0  0  0
  7 24  1  6  0  0  0
  7 17  1  0  0  0  0
  9 26  1  0  0  0  0
 11  3  1  0  0  0  0
 12 13  1  0  0  0  0
 12  8  1  0  0  0  0
 13 11  1  1  0  0  0
 14 23  1  1  0  0  0
 14 22  1  0  0  0  0
 15  9  2  0  0  0  0
 16 19  1  0  0  0  0
 16  1  1  0  0  0  0
 17  8  2  0  0  0  0
 17 10  1  0  0  0  0
 18 15  1  0  0  0  0
 19  7  1  0  0  0  0
 20 10  1  0  0  0  0
 20 29  1  1  0  0  0
 21  4  1  0  0  0  0
 22 21  1  1  0  0  0
 22 13  1  0  0  0  0
 27 14  1  0  0  0  0
 27  2  1  0  0  0  0
 28  9  1  0  0  0  0
 28 23  1  0  0  0  0
 29 30  1  0  0  0  0
 30 32  1  0  0  0  0
 31 30  2  0  0  0  0
M  END
>  <MODEL>
3

>  <REMARK>
 VINA RESULT:      -8.7      2.353      4.846
  Name = 
  2 active torsions:
  status: ('A' for Active; 'I' for Inactive)
    1  A    between atoms: C_20  and  C_29
    2  A    between atoms: C_29  and  C_30
                            x       y       z     vdW  Elec       q    Type
                         _______ _______ _______ _____ _____    ______ ____

>  <TORSDO>
F 2

$$$$
=
 OpenBabel11112416303D

 32 37  0  0  1  0  0  0  0  0999 V2000
  187.2420  176.5590  145.6370 C   0  0  0  0  0  2  0  0  0  0  0  0
  191.7360  175.2480  144.0260 C   0  0  1  0  0  3  0  0  0  0  0  0
  190.0800  172.6570  140.0070 C   0  0  0  0  0  2  0  0  0  0  0  0
  191.5420  172.4780  139.6190 C   0  0  0  0  0  2  0  0  0  0  0  0
  193.7500  174.2080  145.2810 C   0  0  1  0  0  3  0  0  0  0  0  0
  194.8200  174.9770  144.5740 C   0  0  0  0  0  0  0  0  0  0  0  0
  190.2590  177.0050  144.9810 C   0  0  1  0  0  3  0  0  0  0  0  0
  189.6420  175.9600  142.8280 C   0  0  0  0  0  3  0  0  0  0  0  0
  196.0720  175.7560  142.8600 C   0  0  0  0  0  0  0  0  0  0  0  0
  188.1540  177.7370  143.5590 C   0  0  0  0  0  2  0  0  0  0  0  0
  189.8840  173.8950  140.8920 C   0  0  0  0  0  2  0  0  0  0  0  0
  190.7620  175.0550  142.9280 N   0  0  0  0  0  0  0  0  0  0  0  0
  191.1260  174.2770  141.7310 C   0  0  1  0  0  3  0  0  0  0  0  0
  193.0960  173.3500  143.0160 C   0  0  1  0  0  3  0  0  0  0  0  0
  196.0000  176.6980  143.7420 N   0  0  0  0  0  0  0  0  0  0  0  0
  188.3550  176.6840  146.6850 C   0  0  0  0  0  2  0  0  0  0  0  0
  189.3500  176.8500  143.7800 C   0  0  0  0  0  0  0  0  0  0  0  0
  195.1820  176.2300  144.8070 C   0  0  0  0  0  3  0  0  0  0  0  0
  189.5560  177.5300  146.2360 C   0  0  0  0  0  2  0  0  0  0  0  0
  187.1580  177.7910  144.7280 C   0  0  1  0  0  3  0  0  0  0  0  0
  192.4070  172.2380  140.8600 C   0  0  0  0  0  2  0  0  0  0  0  0
  191.9300  173.0200  142.0960 C   0  0  2  0  0  3  0  0  0  0  0  0
  194.1390  174.2650  142.3310 C   0  0  0  0  0  2  0  0  0  0  0  0
  191.0050  175.7130  145.2830 C   0  0  0  0  0  2  0  0  0  0  0  0
  193.3710  174.8130  146.4830 O   0  0  0  0  0  1  0  0  0  0  0  0
  196.8620  175.8960  141.6080 C   0  0  0  0  0  1  0  0  0  0  0  0
  192.5580  173.9710  144.3220 C   0  0  2  0  0  3  0  0  0  0  0  0
  195.3310  174.5230  143.2550 C   0  0  2  0  0  3  0  0  0  0  0  0
  185.7510  177.9490  144.1740 C   0  0  0  0  0  2  0  0  0  0  0  0
  185.1270  179.2080  144.6710 C   0  0  0  0  0  0  0  0  0  0  0  0
  184.2090  179.1660  145.7110 O   0  0  0  0  0  1  0  0  0  0  0  0
  185.4130  180.3080  144.1300 O   0  0  0  0  0  0  0  0  0  0  0  0
  1 16  1  0  0  0  0
  2 27  1  0  0  0  0
  2 24  1  1  0  0  0
  3 11  1  0  0  0  0
  4  3  1  0  0  0  0
  4 21  1  0  0  0  0
  5 25  1  1  0  0  0
  6 18  2  0  0  0  0
  6  5  1  0  0  0  0
  7 24  1  1  0  0  0
  7 19  1  0  0  0  0
  8 12  1  0  0  0  0
  8 17  2  0  0  0  0
  9 28  1  0  0  0  0
  9 15  2  0  0  0  0
 10 17  1  0  0  0  0
 10 20  1  0  0  0  0
 12  2  1  0  0  0  0
 13 11  1  1  0  0  0
 13 22  1  0  0  0  0
 13 12  1  0  0  0  0
 14 23  1  6  0  0  0
 14 27  1  0  0  0  0
 15 18  1  0  0  0  0
 17  7  1  0  0  0  0
 19 16  1  0  0  0  0
 20 29  1  6  0  0  0
 20  1  1  0  0  0  0
 22 21  1  6  0  0  0
 22 14  1  0  0  0  0
 23 28  1  0  0  0  0
 26  9  1  0  0  0  0
 27  5  1  0  0  0  0
 28  6  1  0  0  0  0
 29 30  1  0  0  0  0
 30 31  1  0  0  0  0
 32 30  2  0  0  0  0
M  END
>  <MODEL>
4

>  <REMARK>
 VINA RESULT:      -8.7      1.571      1.981
  Name = 
  2 active torsions:
  status: ('A' for Active; 'I' for Inactive)
    1  A    between atoms: C_20  and  C_29
    2  A    between atoms: C_29  and  C_30
                            x       y       z     vdW  Elec       q    Type
                         _______ _______ _______ _____ _____    ______ ____

>  <TORSDO>
F 2

$$$$
=
 OpenBabel11112416303D

 32 37  0  0  1  0  0  0  0  0999 V2000
  187.0920  176.6460  144.7780 C   0  0  0  0  0  2  0  0  0  0  0  0
  191.7400  174.9770  144.4270 C   0  0  1  0  0  3  0  0  0  0  0  0
  190.5260  170.6130  142.1720 C   0  0  0  0  0  2  0  0  0  0  0  0
  192.0210  170.3520  142.0480 C   0  0  0  0  0  2  0  0  0  0  0  0
  193.6290  174.8400  146.1950 C   0  0  1  0  0  3  0  0  0  0  0  0
  194.7570  175.2100  145.2830 C   0  0  0  0  0  0  0  0  0  0  0  0
  190.1540  176.8810  144.2310 C   0  0  1  0  0  3  0  0  0  0  0  0
  189.7690  174.8550  142.8700 C   0  0  0  0  0  3  0  0  0  0  0  0
  196.1640  175.0890  143.5180 C   0  0  0  0  0  0  0  0  0  0  0  0
  188.1940  176.6630  142.4710 C   0  0  0  0  0  2  0  0  0  0  0  0
  190.2280  172.1140  142.2840 C   0  0  0  0  0  2  0  0  0  0  0  0
  190.8830  174.1960  143.5070 N   0  0  0  0  0  0  0  0  0  0  0  0
  191.3740  172.9420  142.9070 C   0  0  1  0  0  3  0  0  0  0  0  0
  193.2160  172.9160  144.6390 C   0  0  1  0  0  3  0  0  0  0  0  0
  195.9930  176.3420  143.7880 N   0  0  0  0  0  0  0  0  0  0  0  0
  188.0930  177.3520  145.7010 C   0  0  0  0  0  2  0  0  0  0  0  0
  189.3720  176.0850  143.2080 C   0  0  0  0  0  0  0  0  0  0  0  0
  195.0780  176.4270  144.8730 C   0  0  0  0  0  3  0  0  0  0  0  0
  189.3230  177.9250  144.9820 C   0  0  0  0  0  2  0  0  0  0  0  0
  187.0850  177.2400  143.3650 C   0  0  1  0  0  3  0  0  0  0  0  0
  192.7600  170.8260  143.3030 C   0  0  0  0  0  2  0  0  0  0  0  0
  192.1520  172.0960  143.9250 C   0  0  2  0  0  3  0  0  0  0  0  0
  194.3120  173.4200  143.6690 C   0  0  0  0  0  2  0  0  0  0  0  0
  190.8810  175.9680  145.2090 C   0  0  0  0  0  2  0  0  0  0  0  0
  193.1250  175.9460  146.8850 O   0  0  0  0  0  1  0  0  0  0  0  0
  197.0750  174.6240  142.4380 C   0  0  0  0  0  1  0  0  0  0  0  0
  192.5430  174.0790  145.3980 C   0  0  2  0  0  3  0  0  0  0  0  0
  195.4020  174.1830  144.4260 C   0  0  2  0  0  3  0  0  0  0  0  0
  185.7390  177.0100  142.6970 C   0  0  0  0  0  2  0  0  0  0  0  0
  184.8670  178.2100  142.8390 C   0  0  0  0  0  0  0  0  0  0  0  0
  185.3870  179.3930  143.3450 O   0  0  0  0  0  1  0  0  0  0  0  0
  183.6500  178.1440  142.5230 O   0  0  0  0  0  0  0  0  0  0  0  0
  1 16  1  0  0  0  0
  2 24  1  1  0  0  0
  2 27  1  0  0  0  0
  3 11  1  0  0  0  0
  4  3  1  0  0  0  0
  4 21  1  0  0  0  0
  5 25  1  6  0  0  0
  6  5  1  0  0  0  0
  7 19  1  1  0  0  0
  7 24  1  0  0  0  0
  8 17  2  0  0  0  0
  8 12  1  0  0  0  0
  9 15  2  0  0  0  0
  9 28  1  0  0  0  0
 10 17  1  0  0  0  0
 10 20  1  0  0  0  0
 12  2  1  0  0  0  0
 13 11  1  1  0  0  0
 13 12  1  0  0  0  0
 13 22  1  0  0  0  0
 14 23  1  6  0  0  0
 14 27  1  0  0  0  0
 15 18  1  0  0  0  0
 17  7  1  0  0  0  0
 18  6  2  0  0  0  0
 19 16  1  0  0  0  0
 20 29  1  6  0  0  0
 20  1  1  0  0  0  0
 22 21  1  6  0  0  0
 22 14  1  0  0  0  0
 23 28  1  0  0  0  0
 26  9  1  0  0  0  0
 27  5  1  0  0  0  0
 28  6  1  0  0  0  0
 29 30  1  0  0  0  0
 30 31  1  0  0  0  0
 32 30  2  0  0  0  0
M  END
>  <MODEL>
5

>  <REMARK>
 VINA RESULT:      -8.4      1.647      2.206
  Name = 
  2 active torsions:
  status: ('A' for Active; 'I' for Inactive)
    1  A    between atoms: C_20  and  C_29
    2  A    between atoms: C_29  and  C_30
                            x       y       z     vdW  Elec       q    Type
                         _______ _______ _______ _____ _____    ______ ____

>  <TORSDO>
F 2

$$$$
=
 OpenBabel11112416303D

 32 37  0  0  1  0  0  0  0  0999 V2000
  192.2780  173.1700  139.6090 C   0  0  0  0  0  2  0  0  0  0  0  0
  189.7350  175.6980  143.0220 C   0  0  1  0  0  3  0  0  0  0  0  0
  186.3240  177.5860  139.7960 C   0  0  0  0  0  2  0  0  0  0  0  0
  185.6190  178.1750  141.0100 C   0  0  0  0  0  2  0  0  0  0  0  0
  190.5380  177.3140  144.8810 C   0  0  1  0  0  3  0  0  0  0  0  0
  189.5700  176.8750  145.9330 C   0  0  0  0  0  0  0  0  0  0  0  0
  190.9250  173.6110  142.3840 C   0  0  1  0  0  3  0  0  0  0  0  0
  189.0210  174.3740  141.0070 C   0  0  0  0  0  3  0  0  0  0  0  0
  187.5810  176.4530  146.9220 C   0  0  0  0  0  0  0  0  0  0  0  0
  189.9950  172.2580  140.3130 C   0  0  0  0  0  2  0  0  0  0  0  0
  187.1750  176.3690  140.1800 C   0  0  0  0  0  2  0  0  0  0  0  0
  188.9010  175.5690  141.8070 N   0  0  0  0  0  0  0  0  0  0  0  0
  187.6870  176.3890  141.6390 C   0  0  1  0  0  3  0  0  0  0  0  0
  188.5250  177.8850  143.4970 C   0  0  1  0  0  3  0  0  0  0  0  0
  188.4130  175.5540  147.3340 N   0  0  0  0  0  0  0  0  0  0  0  0
  193.0340  173.4030  140.9220 C   0  0  0  0  0  2  0  0  0  0  0  0
  189.9740  173.4620  141.2160 C   0  0  0  0  0  0  0  0  0  0  0  0
  189.6570  175.7890  146.6870 C   0  0  0  0  0  3  0  0  0  0  0  0
  192.2830  172.9350  142.1780 C   0  0  0  0  0  2  0  0  0  0  0  0
  191.3590  171.9450  139.6760 C   0  0  1  0  0  3  0  0  0  0  0  0
  186.6370  178.6900  142.0320 C   0  0  0  0  0  2  0  0  0  0  0  0
  187.9130  177.8340  142.1050 C   0  0  2  0  0  3  0  0  0  0  0  0
  187.5770  177.2980  144.5710 C   0  0  0  0  0  2  0  0  0  0  0  0
  191.1050  175.0720  142.7720 C   0  0  0  0  0  2  0  0  0  0  0  0
  191.7660  176.6560  144.9850 O   0  0  0  0  0  1  0  0  0  0  0  0
  186.1750  176.5180  147.4040 C   0  0  0  0  0  1  0  0  0  0  0  0
  189.8900  177.1670  143.4830 C   0  0  2  0  0  3  0  0  0  0  0  0
  188.1900  177.4250  145.9680 C   0  0  2  0  0  3  0  0  0  0  0  0
  191.1370  171.3670  138.2880 C   0  0  0  0  0  2  0  0  0  0  0  0
  190.4800  170.0320  138.3700 C   0  0  0  0  0  0  0  0  0  0  0  0
  190.9940  169.0540  139.2110 O   0  0  0  0  0  1  0  0  0  0  0  0
  189.4730  169.7810  137.6580 O   0  0  0  0  0  0  0  0  0  0  0  0
  1 20  1  0  0  0  0
  1 16  1  0  0  0  0
  2 24  1  6  0  0  0
  2 27  1  0  0  0  0
  3 11  1  0  0  0  0
  3  4  1  0  0  0  0
  4 21  1  0  0  0  0
  5 25  1  6  0  0  0
  5  6  1  0  0  0  0
  6 28  1  0  0  0  0
  6 18  2  0  0  0  0
  7 19  1  6  0  0  0
  7 24  1  0  0  0  0
  8 17  2  0  0  0  0
  8 12  1  0  0  0  0
  9 15  2  0  0  0  0
  9 26  1  0  0  0  0
 10 17  1  0  0  0  0
 12  2  1  0  0  0  0
 13 11  1  6  0  0  0
 13 12  1  0  0  0  0
 13 22  1  0  0  0  0
 14 23  1  1  0  0  0
 16 19  1  0  0  0  0
 17  7  1  0  0  0  0
 18 15  1  0  0  0  0
 20 29  1  6  0  0  0
 20 10  1  0  0  0  0
 22 21  1  1  0  0  0
 22 14  1  0  0  0  0
 23 28  1  0  0  0  0
 27 14  1  0  0  0  0
 27  5  1  0  0  0  0
 28  9  1  0  0  0  0
 29 30  1  0  0  0  0
 30 31  1  0  0  0  0
 32 30  2  0  0  0  0
M  END
>  <MODEL>
6

>  <REMARK>
 VINA RESULT:      -8.2      3.199      7.022
  Name = 
  2 active torsions:
  status: ('A' for Active; 'I' for Inactive)
    1  A    between atoms: C_20  and  C_29
    2  A    between atoms: C_29  and  C_30
                            x       y       z     vdW  Elec       q    Type
                         _______ _______ _______ _____ _____    ______ ____

>  <TORSDO>
F 2

$$$$
=
 OpenBabel11112416303D

 32 37  0  0  1  0  0  0  0  0999 V2000
  196.1320  172.7790  144.3450 C   0  0  0  0  0  2  0  0  0  0  0  0
  191.7430  175.0600  144.1410 C   0  0  1  0  0  3  0  0  0  0  0  0
  189.7790  172.0300  140.5960 C   0  0  0  0  0  2  0  0  0  0  0  0
  188.4710  172.7870  140.7860 C   0  0  0  0  0  2  0  0  0  0  0  0
  191.1470  177.5720  143.9270 C   0  0  1  0  0  3  0  0  0  0  0  0
  189.9710  177.5580  144.8520 C   0  0  0  0  0  0  0  0  0  0  0  0
  193.6130  174.1870  145.5270 C   0  0  1  0  0  3  0  0  0  0  0  0
  192.4050  172.6360  144.0300 C   0  0  0  0  0  3  0  0  0  0  0  0
  187.9510  176.9740  145.6820 C   0  0  0  0  0  0  0  0  0  0  0  0
  194.1250  171.5970  145.3980 C   0  0  0  0  0  2  0  0  0  0  0  0
  190.6620  172.1190  141.8480 C   0  0  0  0  0  2  0  0  0  0  0  0
  191.6160  173.7270  143.5100 N   0  0  0  0  0  0  0  0  0  0  0  0
  190.4360  173.3930  142.6930 C   0  0  1  0  0  3  0  0  0  0  0  0
  189.9020  175.8620  142.5790 C   0  0  1  0  0  3  0  0  0  0  0  0
  188.7190  177.2340  146.6880 N   0  0  0  0  0  0  0  0  0  0  0  0
  196.1200  174.1910  144.9430 C   0  0  0  0  0  2  0  0  0  0  0  0
  193.3700  172.8150  144.9350 C   0  0  0  0  0  0  0  0  0  0  0  0
  190.0030  177.5660  146.1760 C   0  0  0  0  0  3  0  0  0  0  0  0
  195.0460  174.4150  146.0170 C   0  0  0  0  0  2  0  0  0  0  0  0
  195.6560  171.7190  145.3450 C   0  0  1  0  0  3  0  0  0  0  0  0
  188.7360  174.2810  140.9970 C   0  0  0  0  0  2  0  0  0  0  0  0
  190.0220  174.5650  141.7920 C   0  0  2  0  0  3  0  0  0  0  0  0
  188.7740  175.7980  143.6370 C   0  0  0  0  0  2  0  0  0  0  0  0
  193.1910  175.2900  144.5660 C   0  0  0  0  0  2  0  0  0  0  0  0
  192.3250  177.9530  144.5770 O   0  0  0  0  0  1  0  0  0  0  0  0
  186.5210  176.5980  145.8470 C   0  0  0  0  0  1  0  0  0  0  0  0
  191.2660  176.2030  143.2150 C   0  0  2  0  0  3  0  0  0  0  0  0
  188.6320  177.1380  144.3650 C   0  0  2  0  0  3  0  0  0  0  0  0
  196.2500  170.3620  145.0060 C   0  0  0  0  0  2  0  0  0  0  0  0
  196.0500  169.4030  146.1300 C   0  0  0  0  0  0  0  0  0  0  0  0
  195.2330  168.2930  145.9620 O   0  0  0  0  0  0  0  0  0  0  0  0
  196.6040  169.6120  147.2410 O   0  0  0  0  0  1  0  0  0  0  0  0
  1 16  1  0  0  0  0
  1 20  1  0  0  0  0
  2 24  1  6  0  0  0
  3  4  1  0  0  0  0
  3 11  1  0  0  0  0
  4 21  1  0  0  0  0
  5 25  1  1  0  0  0
  5  6  1  0  0  0  0
  6 18  2  0  0  0  0
  7 24  1  6  0  0  0
  7 19  1  0  0  0  0
  8 17  2  0  0  0  0
  9 26  1  0  0  0  0
  9 15  2  0  0  0  0
 12  8  1  0  0  0  0
 12  2  1  0  0  0  0
 13 11  1  6  0  0  0
 13 12  1  0  0  0  0
 14 27  1  0  0  0  0
 14 23  1  1  0  0  0
 16 19  1  0  0  0  0
 17 10  1  0  0  0  0
 17  7  1  0  0  0  0
 18 15  1  0  0  0  0
 20 29  1  6  0  0  0
 20 10  1  0  0  0  0
 22 21  1  1  0  0  0
 22 14  1  0  0  0  0
 22 13  1  0  0  0  0
 23 28  1  0  0  0  0
 27  5  1  0  0  0  0
 27  2  1  0  0  0  0
 28  6  1  0  0  0  0
 28  9  1  0  0  0  0
 29 30  1  0  0  0  0
 30 32  1  0  0  0  0
 31 30  2  0  0  0  0
M  END
>  <MODEL>
7

>  <REMARK>
 VINA RESULT:      -7.9      3.030      7.660
  Name = 
  2 active torsions:
  status: ('A' for Active; 'I' for Inactive)
    1  A    between atoms: C_20  and  C_29
    2  A    between atoms: C_29  and  C_30
                            x       y       z     vdW  Elec       q    Type
                         _______ _______ _______ _____ _____    ______ ____

>  <TORSDO>
F 2

$$$$
=
 OpenBabel11112416303D

 32 37  0  0  1  0  0  0  0  0999 V2000
  195.3690  173.3470  141.7550 C   0  0  0  0  0  2  0  0  0  0  0  0
  190.8330  175.0440  142.7780 C   0  0  1  0  0  3  0  0  0  0  0  0
  191.8880  176.4360  147.5270 C   0  0  0  0  0  2  0  0  0  0  0  0
  190.4800  177.0140  147.5870 C   0  0  0  0  0  2  0  0  0  0  0  0
  188.5010  173.9750  142.4130 C   0  0  1  0  0  3  0  0  0  0  0  0
  187.7890  175.2270  142.0090 C   0  0  0  0  0  0  0  0  0  0  0  0
  192.7120  174.8680  141.1610 C   0  0  1  0  0  3  0  0  0  0  0  0
  193.1310  175.8680  143.3810 C   0  0  0  0  0  3  0  0  0  0  0  0
  186.9880  177.3360  142.1580 C   0  0  0  0  0  0  0  0  0  0  0  0
  195.0450  175.8800  141.8830 C   0  0  0  0  0  2  0  0  0  0  0  0
  192.3970  176.3530  146.0830 C   0  0  0  0  0  2  0  0  0  0  0  0
  191.7770  175.5750  143.7860 N   0  0  0  0  0  0  0  0  0  0  0  0
  191.2800  176.2000  145.0250 C   0  0  1  0  0  3  0  0  0  0  0  0
  189.0230  175.1570  144.5630 C   0  0  1  0  0  3  0  0  0  0  0  0
  187.2870  177.1250  140.9180 N   0  0  0  0  0  0  0  0  0  0  0  0
  194.2760  172.8550  140.8000 C   0  0  0  0  0  2  0  0  0  0  0  0
  193.6150  175.5190  142.1870 C   0  0  0  0  0  0  0  0  0  0  0  0
  187.8280  175.8140  140.8230 C   0  0  0  0  0  3  0  0  0  0  0  0
  193.4450  173.9750  140.1560 C   0  0  0  0  0  2  0  0  0  0  0  0
  195.9120  174.7250  141.3580 C   0  0  1  0  0  3  0  0  0  0  0  0
  189.4890  176.1060  146.8530 C   0  0  0  0  0  2  0  0  0  0  0  0
  190.0920  175.4240  145.6120 C   0  0  2  0  0  3  0  0  0  0  0  0
  188.3820  176.4650  144.0390 C   0  0  0  0  0  2  0  0  0  0  0  0
  191.5720  174.1080  141.8250 C   0  0  0  0  0  2  0  0  0  0  0  0
  188.9580  173.2480  141.3100 O   0  0  0  0  0  1  0  0  0  0  0  0
  186.3840  178.6120  142.6260 C   0  0  0  0  0  1  0  0  0  0  0  0
  189.6270  174.3170  143.4190 C   0  0  2  0  0  3  0  0  0  0  0  0
  187.2650  176.1630  143.0370 C   0  0  2  0  0  3  0  0  0  0  0  0
  197.3340  174.9040  141.8620 C   0  0  0  0  0  2  0  0  0  0  0  0
  197.3440  175.6010  143.1800 C   0  0  0  0  0  0  0  0  0  0  0  0
  197.5310  176.9750  143.2390 O   0  0  0  0  0  0  0  0  0  0  0  0
  197.2060  174.9400  144.2420 O   0  0  0  0  0  1  0  0  0  0  0  0
  2 24  1  6  0  0  0
  2 27  1  0  0  0  0
  2 12  1  0  0  0  0
  3  4  1  0  0  0  0
  5 25  1  6  0  0  0
  5 27  1  0  0  0  0
  6  5  1  0  0  0  0
  6 28  1  0  0  0  0
  7 19  1  1  0  0  0
  7 24  1  0  0  0  0
  7 17  1  0  0  0  0
  8 12  1  0  0  0  0
  9 26  1  0  0  0  0
  9 28  1  0  0  0  0
 10 17  1  0  0  0  0
 11  3  1  0  0  0  0
 12 13  1  0  0  0  0
 13 22  1  0  0  0  0
 13 11  1  1  0  0  0
 14 23  1  6  0  0  0
 14 22  1  0  0  0  0
 15  9  2  0  0  0  0
 16  1  1  0  0  0  0
 17  8  2  0  0  0  0
 18 15  1  0  0  0  0
 18  6  2  0  0  0  0
 19 16  1  0  0  0  0
 20  1  1  0  0  0  0
 20 29  1  1  0  0  0
 20 10  1  0  0  0  0
 21  4  1  0  0  0  0
 22 21  1  1  0  0  0
 27 14  1  0  0  0  0
 28 23  1  0  0  0  0
 29 30  1  0  0  0  0
 30 31  2  0  0  0  0
 30 32  1  0  0  0  0
M  END
>  <MODEL>
8

>  <REMARK>
 VINA RESULT:      -7.8      2.782      8.119
  Name = 
  2 active torsions:
  status: ('A' for Active; 'I' for Inactive)
    1  A    between atoms: C_20  and  C_29
    2  A    between atoms: C_29  and  C_30
                            x       y       z     vdW  Elec       q    Type
                         _______ _______ _______ _____ _____    ______ ____

>  <TORSDO>
F 2

$$$$
=
 OpenBabel11112416303D

 32 37  0  0  1  0  0  0  0  0999 V2000
  186.7020  178.3300  142.0080 C   0  0  0  0  0  2  0  0  0  0  0  0
  190.3100  175.1660  143.2200 C   0  0  1  0  0  3  0  0  0  0  0  0
  190.9040  176.8830  147.9430 C   0  0  0  0  0  2  0  0  0  0  0  0
  191.8980  175.7480  148.1470 C   0  0  0  0  0  2  0  0  0  0  0  0
  192.4910  174.5240  141.9760 C   0  0  1  0  0  3  0  0  0  0  0  0
  192.4690  173.0670  142.3130 C   0  0  0  0  0  0  0  0  0  0  0  0
  188.1300  175.5590  142.0930 C   0  0  1  0  0  3  0  0  0  0  0  0
  188.3450  176.0720  144.5010 C   0  0  0  0  0  3  0  0  0  0  0  0
  192.4440  171.2000  143.5870 C   0  0  0  0  0  0  0  0  0  0  0  0
  186.1180  176.4040  143.5840 C   0  0  0  0  0  2  0  0  0  0  0  0
  189.9080  176.5590  146.8220 C   0  0  0  0  0  2  0  0  0  0  0  0
  189.7500  175.7460  144.4610 N   0  0  0  0  0  0  0  0  0  0  0  0
  190.4560  175.5950  145.7460 C   0  0  1  0  0  3  0  0  0  0  0  0
  192.5240  174.9310  144.4510 C   0  0  1  0  0  3  0  0  0  0  0  0
  191.7550  170.9480  142.5230 N   0  0  0  0  0  0  0  0  0  0  0  0
  187.3950  177.6680  140.8120 C   0  0  0  0  0  2  0  0  0  0  0  0
  187.5680  176.0390  143.4140 C   0  0  0  0  0  0  0  0  0  0  0  0
  191.7330  172.1300  141.7340 C   0  0  0  0  0  3  0  0  0  0  0  0
  187.4200  176.1330  140.8630 C   0  0  0  0  0  2  0  0  0  0  0  0
  185.5890  177.4530  142.5940 C   0  0  1  0  0  3  0  0  0  0  0  0
  192.7470  175.5380  146.8890 C   0  0  0  0  0  2  0  0  0  0  0  0
  191.9720  175.7840  145.5830 C   0  0  2  0  0  3  0  0  0  0  0  0
  192.3730  173.4170  144.7360 C   0  0  0  0  0  2  0  0  0  0  0  0
  189.6310  175.7970  142.0070 C   0  0  0  0  0  2  0  0  0  0  0  0
  191.9110  174.7870  140.7310 O   0  0  0  0  0  1  0  0  0  0  0  0
  192.6870  170.1780  144.6400 C   0  0  0  0  0  1  0  0  0  0  0  0
  191.8460  175.3340  143.1260 C   0  0  2  0  0  3  0  0  0  0  0  0
  192.9990  172.5840  143.6140 C   0  0  2  0  0  3  0  0  0  0  0  0
  184.5460  178.3110  143.2910 C   0  0  0  0  0  2  0  0  0  0  0  0
  184.9760  178.6430  144.6790 C   0  0  0  0  0  0  0  0  0  0  0  0
  184.3290  178.0690  145.7650 O   0  0  0  0  0  1  0  0  0  0  0  0
  185.9130  179.4630  144.8680 O   0  0  0  0  0  0  0  0  0  0  0  0
  1 20  1  0  0  0  0
  2 24  1  6  0  0  0
  2 12  1  0  0  0  0
  3  4  1  0  0  0  0
  5 25  1  6  0  0  0
  5  6  1  0  0  0  0
  5 27  1  0  0  0  0
  6 28  1  0  0  0  0
  7 19  1  6  0  0  0
  7 17  1  0  0  0  0
  9 28  1  0  0  0  0
  9 26  1  0  0  0  0
 11  3  1  0  0  0  0
 12  8  1  0  0  0  0
 12 13  1  0  0  0  0
 13 11  1  1  0  0  0
 14 23  1  1  0  0  0
 14 22  1  0  0  0  0
 15  9  2  0  0  0  0
 16 19  1  0  0  0  0
 16  1  1  0  0  0  0
 17 10  1  0  0  0  0
 17  8  2  0  0  0  0
 18  6  2  0  0  0  0
 18 15  1  0  0  0  0
 20 29  1  1  0  0  0
 20 10  1  0  0  0  0
 21  4  1  0  0  0  0
 22 13  1  0  0  0  0
 22 21  1  1  0  0  0
 24  7  1  0  0  0  0
 27  2  1  0  0  0  0
 27 14  1  0  0  0  0
 28 23  1  0  0  0  0
 29 30  1  0  0  0  0
 30 32  2  0  0  0  0
 30 31  1  0  0  0  0
M  END
>  <MODEL>
9

>  <REMARK>
 VINA RESULT:      -7.6      2.438      4.753
  Name = 
  2 active torsions:
  status: ('A' for Active; 'I' for Inactive)
    1  A    between atoms: C_20  and  C_29
    2  A    between atoms: C_29  and  C_30
                            x       y       z     vdW  Elec       q    Type
                         _______ _______ _______ _____ _____    ______ ____

>  <TORSDO>
F 2

$$$$
