=
 OpenBabel11112417423D

 28 32  0  0  1  0  0  0  0  0999 V2000
  191.6050  174.0990  142.9470 C   0  0  0  0  0  0  0  0  0  0  0  0
  188.9410  178.4150  142.3140 O   0  0  0  0  0  0  0  0  0  0  0  0
  191.1960  175.3670  147.9720 C   0  0  0  0  0  1  0  0  0  0  0  0
  189.7690  172.1480  143.7680 C   0  0  0  0  0  3  0  0  0  0  0  0
  189.7850  177.0280  146.8890 N   0  0  0  0  0  0  0  0  0  0  0  0
  192.6400  175.1210  142.5780 C   0  0  0  0  0  2  0  0  0  0  0  0
  188.0420  176.4960  141.0710 O   0  0  0  0  0  0  0  0  0  0  0  0
  188.0270  177.2220  142.3860 S   0  0  0  0  0  0  0  0  0  0  0  0
  185.9730  177.3140  144.1380 C   0  0  2  0  0  3  0  0  0  0  0  0
  188.5250  176.1440  143.6610 N   0  0  2  0  0  0  0  0  0  0  0  0
  194.8510  174.8830  145.7460 C   0  0  0  0  0  1  0  0  0  0  0  0
  190.6590  176.7850  144.6510 C   0  0  1  0  0  3  0  0  0  0  0  0
  187.0750  177.6560  145.1310 C   0  0  0  0  0  2  0  0  0  0  0  0
  186.3720  177.7720  142.7440 C   0  0  0  0  0  2  0  0  0  0  0  0
  193.5680  175.0530  144.9600 C   0  0  1  0  0  3  0  0  0  0  0  0
  190.3520  174.4910  143.4630 C   0  0  0  0  0  0  0  0  0  0  0  0
  191.1430  176.5060  146.9740 C   0  0  2  0  0  3  0  0  0  0  0  0
  184.6910  178.0090  144.5440 C   0  0  0  0  0  1  0  0  0  0  0  0
  192.9300  176.3040  145.3410 N   0  0  0  0  0  2  0  0  0  0  0  0
  189.4480  173.5020  143.8830 C   0  0  0  0  0  3  0  0  0  0  0  0
  191.9150  172.7380  142.8270 C   0  0  0  0  0  3  0  0  0  0  0  0
  190.9990  171.7660  143.2340 C   0  0  0  0  0  3  0  0  0  0  0  0
  193.8850  175.0350  143.4650 C   0  0  0  0  0  2  0  0  0  0  0  0
  189.5530  177.3730  145.4900 C   0  0  1  0  0  3  0  0  0  0  0  0
  191.5310  176.0040  145.6060 C   0  0  2  0  0  3  0  0  0  0  0  0
  188.2820  176.7120  145.0010 C   0  0  2  0  0  3  0  0  0  0  0  0
  189.7660  178.1880  147.5860 O   0  0  0  0  0  1  0  0  0  0  0  0
  189.9720  175.9580  143.5520 C   0  0  1  0  0  3  0  0  0  0  0  0
  1 16  1  0  0  0  0
  2  8  2  0  0  0  0
  4 20  1  0  0  0  0
  5 17  1  0  0  0  0
  5 27  1  0  0  0  0
  6  1  1  0  0  0  0
  6 23  1  0  0  0  0
  7  8  2  0  0  0  0
  8 14  1  0  0  0  0
  9 18  1  1  0  0  0
  9 13  1  0  0  0  0
 10  8  1  6  0  0  0
 10 26  1  0  0  0  0
 12 24  1  0  0  0  0
 12 25  1  0  0  0  0
 14  9  1  0  0  0  0
 15 19  1  0  0  0  0
 15 11  1  0  0  0  0
 16 28  1  0  0  0  0
 16 20  2  0  0  0  0
 17  3  1  0  0  0  0
 19 25  1  0  0  0  0
 21  1  2  0  0  0  0
 21 22  1  0  0  0  0
 22  4  2  0  0  0  0
 23 15  1  0  0  0  0
 24  5  1  0  0  0  0
 25 17  1  0  0  0  0
 26 13  1  0  0  0  0
 26 24  1  0  0  0  0
 28 10  1  0  0  0  0
 28 12  1  0  0  0  0
M  END
>  <MODEL>
1

>  <REMARK>
 VINA RESULT:      -8.2      0.000      0.000
  Name = 
  0 active torsions:
  status: ('A' for Active; 'I' for Inactive)
                            x       y       z     vdW  Elec       q    Type
                         _______ _______ _______ _____ _____    ______ ____

>  <TORSDO>
F 0

$$$$
=
 OpenBabel11112417423D

 28 32  0  0  1  0  0  0  0  0999 V2000
  189.5150  176.7070  145.4580 C   0  0  0  0  0  0  0  0  0  0  0  0
  194.4810  176.5870  144.2540 O   0  0  0  0  0  0  0  0  0  0  0  0
  189.3290  172.5890  142.2900 C   0  0  0  0  0  1  0  0  0  0  0  0
  189.1100  174.6820  147.3530 C   0  0  0  0  0  3  0  0  0  0  0  0
  191.7180  173.0250  142.4530 N   0  0  0  0  0  0  0  0  0  0  0  0
  189.6620  177.7550  144.3950 C   0  0  0  0  0  2  0  0  0  0  0  0
  194.0430  176.7710  146.6640 O   0  0  0  0  0  0  0  0  0  0  0  0
  194.2130  175.8160  145.5170 S   0  0  0  0  0  0  0  0  0  0  0  0
  195.1480  173.2860  145.6690 C   0  0  2  0  0  3  0  0  0  0  0  0
  192.7820  174.8370  145.3470 N   0  0  2  0  0  0  0  0  0  0  0  0
  187.1990  176.2980  141.7900 C   0  0  0  0  0  1  0  0  0  0  0  0
  191.5770  175.2910  143.2760 C   0  0  1  0  0  3  0  0  0  0  0  0
  194.4030  173.1260  144.3500 C   0  0  0  0  0  2  0  0  0  0  0  0
  195.5870  174.7310  145.8440 C   0  0  0  0  0  2  0  0  0  0  0  0
  188.3680  176.2850  142.7520 C   0  0  1  0  0  3  0  0  0  0  0  0
  190.4720  175.6790  145.5990 C   0  0  0  0  0  0  0  0  0  0  0  0
  190.4380  173.5900  142.0430 C   0  0  2  0  0  3  0  0  0  0  0  0
  196.3670  172.3890  145.6750 C   0  0  0  0  0  1  0  0  0  0  0  0
  189.5680  175.8580  142.0480 N   0  0  0  0  0  2  0  0  0  0  0  0
  190.2490  174.6640  146.5440 C   0  0  0  0  0  3  0  0  0  0  0  0
  188.3810  176.7210  146.2810 C   0  0  0  0  0  3  0  0  0  0  0  0
  188.1810  175.7140  147.2270 C   0  0  0  0  0  3  0  0  0  0  0  0
  188.5500  177.6810  143.3450 C   0  0  0  0  0  2  0  0  0  0  0  0
  192.4900  174.1140  143.0440 C   0  0  1  0  0  3  0  0  0  0  0  0
  190.1980  174.8320  142.8640 C   0  0  2  0  0  3  0  0  0  0  0  0
  192.9820  173.7090  144.4160 C   0  0  2  0  0  3  0  0  0  0  0  0
  192.3640  172.6550  141.3230 O   0  0  0  0  0  1  0  0  0  0  0  0
  191.7350  175.6720  144.7570 C   0  0  1  0  0  3  0  0  0  0  0  0
  1 16  2  0  0  0  0
  1 21  1  0  0  0  0
  2  8  2  0  0  0  0
  5 24  1  0  0  0  0
  6  1  1  0  0  0  0
  8 14  1  0  0  0  0
  8  7  2  0  0  0  0
  9 18  1  6  0  0  0
  9 14  1  0  0  0  0
 10  8  1  6  0  0  0
 11 15  1  0  0  0  0
 12 28  1  0  0  0  0
 13 26  1  0  0  0  0
 13  9  1  0  0  0  0
 15 23  1  0  0  0  0
 16 20  1  0  0  0  0
 17  3  1  0  0  0  0
 17  5  1  0  0  0  0
 17 25  1  0  0  0  0
 19 15  1  0  0  0  0
 19 25  1  0  0  0  0
 20  4  2  0  0  0  0
 21 22  2  0  0  0  0
 22  4  1  0  0  0  0
 23  6  1  0  0  0  0
 24 12  1  0  0  0  0
 24 26  1  0  0  0  0
 25 12  1  0  0  0  0
 26 10  1  0  0  0  0
 27  5  1  0  0  0  0
 28 10  1  0  0  0  0
 28 16  1  0  0  0  0
M  END
>  <MODEL>
2

>  <REMARK>
 VINA RESULT:      -8.1      2.869      6.592
  Name = 
  0 active torsions:
  status: ('A' for Active; 'I' for Inactive)
                            x       y       z     vdW  Elec       q    Type
                         _______ _______ _______ _____ _____    ______ ____

>  <TORSDO>
F 0

$$$$
=
 OpenBabel11112417423D

 28 32  0  0  1  0  0  0  0  0999 V2000
  189.2930  176.7100  145.2430 C   0  0  0  0  0  0  0  0  0  0  0  0
  193.6250  176.4160  142.5450 O   0  0  0  0  0  0  0  0  0  0  0  0
  187.7980  172.9320  142.0000 C   0  0  0  0  0  1  0  0  0  0  0  0
  189.3160  174.5410  147.0180 C   0  0  0  0  0  3  0  0  0  0  0  0
  190.1500  173.2100  141.4420 N   0  0  0  0  0  0  0  0  0  0  0  0
  189.1980  177.8450  144.2670 C   0  0  0  0  0  2  0  0  0  0  0  0
  193.9610  176.3940  144.9780 O   0  0  0  0  0  0  0  0  0  0  0  0
  193.6910  175.5440  143.7690 S   0  0  0  0  0  0  0  0  0  0  0  0
  194.4080  172.9610  143.4380 C   0  0  2  0  0  3  0  0  0  0  0  0
  192.1980  174.6710  143.9830 N   0  0  2  0  0  0  0  0  0  0  0  0
  185.9410  176.7910  142.4610 C   0  0  0  0  0  1  0  0  0  0  0  0
  190.4620  175.3920  142.4300 C   0  0  1  0  0  3  0  0  0  0  0  0
  193.2860  172.9720  142.4090 C   0  0  0  0  0  2  0  0  0  0  0  0
  195.0010  174.3550  143.5720 C   0  0  0  0  0  2  0  0  0  0  0  0
  187.3430  176.6170  143.0060 C   0  0  1  0  0  3  0  0  0  0  0  0
  190.1570  175.6190  145.0040 C   0  0  0  0  0  0  0  0  0  0  0  0
  188.8600  173.8860  141.4930 C   0  0  2  0  0  3  0  0  0  0  0  0
  195.4900  171.9990  142.9970 C   0  0  0  0  0  1  0  0  0  0  0  0
  188.2290  176.1900  141.9340 N   0  0  0  0  0  2  0  0  0  0  0  0
  190.1470  174.5340  145.8940 C   0  0  0  0  0  3  0  0  0  0  0  0
  188.4710  176.7120  146.3770 C   0  0  0  0  0  3  0  0  0  0  0  0
  188.4840  175.6330  147.2630 C   0  0  0  0  0  3  0  0  0  0  0  0
  187.8160  177.9370  143.6140 C   0  0  0  0  0  2  0  0  0  0  0  0
  191.1560  174.1910  141.8400 C   0  0  1  0  0  3  0  0  0  0  0  0
  188.9880  175.0550  142.4370 C   0  0  2  0  0  3  0  0  0  0  0  0
  192.0080  173.6280  142.9570 C   0  0  2  0  0  3  0  0  0  0  0  0
  190.3860  172.9140  140.1420 O   0  0  0  0  0  1  0  0  0  0  0  0
  191.0970  175.6190  143.8120 C   0  0  1  0  0  3  0  0  0  0  0  0
  1 21  1  0  0  0  0
  2  8  2  0  0  0  0
  4 22  1  0  0  0  0
  5 17  1  0  0  0  0
  5 24  1  0  0  0  0
  6  1  1  0  0  0  0
  8  7  2  0  0  0  0
  9 18  1  6  0  0  0
  9 14  1  0  0  0  0
 10  8  1  6  0  0  0
 11 15  1  0  0  0  0
 12 25  1  0  0  0  0
 12 28  1  0  0  0  0
 13 26  1  0  0  0  0
 13  9  1  0  0  0  0
 14  8  1  0  0  0  0
 15 23  1  0  0  0  0
 16  1  2  0  0  0  0
 16 20  1  0  0  0  0
 17  3  1  0  0  0  0
 17 25  1  0  0  0  0
 19 25  1  0  0  0  0
 19 15  1  0  0  0  0
 20  4  2  0  0  0  0
 21 22  2  0  0  0  0
 23  6  1  0  0  0  0
 24 12  1  0  0  0  0
 24 26  1  0  0  0  0
 26 10  1  0  0  0  0
 27  5  1  0  0  0  0
 28 10  1  0  0  0  0
 28 16  1  0  0  0  0
M  END
>  <MODEL>
3

>  <REMARK>
 VINA RESULT:      -7.7      2.700      6.527
  Name = 
  0 active torsions:
  status: ('A' for Active; 'I' for Inactive)
                            x       y       z     vdW  Elec       q    Type
                         _______ _______ _______ _____ _____    ______ ____

>  <TORSDO>
F 0

$$$$
=
 OpenBabel11112417423D

 28 32  0  0  1  0  0  0  0  0999 V2000
  194.7900  176.1090  144.0720 C   0  0  0  0  0  0  0  0  0  0  0  0
  190.0600  177.0920  145.7440 O   0  0  0  0  0  0  0  0  0  0  0  0
  192.7740  171.4040  143.1600 C   0  0  0  0  0  1  0  0  0  0  0  0
  194.6740  176.1900  141.2730 C   0  0  0  0  0  3  0  0  0  0  0  0
  190.8230  172.6970  143.8290 N   0  0  0  0  0  0  0  0  0  0  0  0
  194.8920  175.9840  145.5640 C   0  0  0  0  0  2  0  0  0  0  0  0
  190.9420  178.7810  144.1930 O   0  0  0  0  0  0  0  0  0  0  0  0
  190.2110  177.4730  144.2970 S   0  0  0  0  0  0  0  0  0  0  0  0
  188.3880  176.5180  142.5470 C   0  0  2  0  0  3  0  0  0  0  0  0
  191.0820  176.2400  143.4250 N   0  0  2  0  0  0  0  0  0  0  0  0
  196.0850  172.3080  145.7630 C   0  0  0  0  0  1  0  0  0  0  0  0
  191.9940  174.5210  144.8940 C   0  0  1  0  0  3  0  0  0  0  0  0
  188.7690  175.1790  143.1630 C   0  0  0  0  0  2  0  0  0  0  0  0
  188.5980  177.6320  143.5610 C   0  0  0  0  0  2  0  0  0  0  0  0
  195.1900  173.4550  145.3410 C   0  0  1  0  0  3  0  0  0  0  0  0
  193.5420  176.0030  143.4210 C   0  0  0  0  0  0  0  0  0  0  0  0
  192.1310  172.2200  144.2630 C   0  0  2  0  0  3  0  0  0  0  0  0
  186.9330  176.4900  142.1310 C   0  0  0  0  0  1  0  0  0  0  0  0
  193.8190  173.1670  145.7310 N   0  0  0  0  0  2  0  0  0  0  0  0
  193.5020  176.0320  142.0170 C   0  0  0  0  0  3  0  0  0  0  0  0
  195.9580  176.2760  143.3180 C   0  0  0  0  0  3  0  0  0  0  0  0
  195.9010  176.3190  141.9240 C   0  0  0  0  0  3  0  0  0  0  0  0
  195.6850  174.7460  145.9920 C   0  0  0  0  0  2  0  0  0  0  0  0
  190.6620  174.0420  144.3740 C   0  0  1  0  0  3  0  0  0  0  0  0
  192.9830  173.4260  144.5690 C   0  0  2  0  0  3  0  0  0  0  0  0
  190.2930  175.0040  143.2660 C   0  0  2  0  0  3  0  0  0  0  0  0
  189.8990  171.9160  144.4360 O   0  0  0  0  0  1  0  0  0  0  0  0
  192.2570  175.8760  144.2180 C   0  0  1  0  0  3  0  0  0  0  0  0
  1  6  1  0  0  0  0
  3 17  1  0  0  0  0
  4 22  2  0  0  0  0
  4 20  1  0  0  0  0
  5 17  1  0  0  0  0
  5 24  1  0  0  0  0
  5 27  1  0  0  0  0
  6 23  1  0  0  0  0
  7  8  2  0  0  0  0
  8  2  2  0  0  0  0
  9 18  1  1  0  0  0
  9 13  1  0  0  0  0
  9 14  1  0  0  0  0
 10 28  1  0  0  0  0
 10  8  1  1  0  0  0
 13 26  1  0  0  0  0
 14  8  1  0  0  0  0
 15 19  1  0  0  0  0
 15 11  1  0  0  0  0
 15 23  1  0  0  0  0
 16  1  1  0  0  0  0
 16 28  1  0  0  0  0
 17 25  1  0  0  0  0
 20 16  2  0  0  0  0
 21  1  2  0  0  0  0
 22 21  1  0  0  0  0
 24 12  1  0  0  0  0
 25 12  1  0  0  0  0
 25 19  1  0  0  0  0
 26 10  1  0  0  0  0
 26 24  1  0  0  0  0
 28 12  1  0  0  0  0
M  END
>  <MODEL>
4

>  <REMARK>
 VINA RESULT:      -7.4      2.359      4.275
  Name = 
  0 active torsions:
  status: ('A' for Active; 'I' for Inactive)
                            x       y       z     vdW  Elec       q    Type
                         _______ _______ _______ _____ _____    ______ ____

>  <TORSDO>
F 0

$$$$
=
 OpenBabel11112417423D

 28 32  0  0  1  0  0  0  0  0999 V2000
  188.6320  175.7270  145.4310 C   0  0  0  0  0  0  0  0  0  0  0  0
  189.8480  171.5390  142.7650 O   0  0  0  0  0  0  0  0  0  0  0  0
  193.5570  177.0170  144.3820 C   0  0  0  0  0  1  0  0  0  0  0  0
  188.1880  177.7600  143.5530 C   0  0  0  0  0  3  0  0  0  0  0  0
  193.2510  174.9860  143.0760 N   0  0  0  0  0  0  0  0  0  0  0  0
  188.9260  174.6950  146.4790 C   0  0  0  0  0  2  0  0  0  0  0  0
  187.7380  172.5860  142.0690 O   0  0  0  0  0  0  0  0  0  0  0  0
  189.2280  172.5820  141.8770 S   0  0  0  0  0  0  0  0  0  0  0  0
  190.5510  173.2640  139.6230 C   0  0  2  0  0  3  0  0  0  0  0  0
  189.8740  174.1590  142.2400 N   0  0  2  0  0  0  0  0  0  0  0  0
  191.8220  176.5130  148.2910 C   0  0  0  0  0  1  0  0  0  0  0  0
  191.2940  174.1570  144.2220 C   0  0  1  0  0  3  0  0  0  0  0  0
  191.7080  173.4850  140.5880 C   0  0  0  0  0  2  0  0  0  0  0  0
  189.6090  172.2080  140.1790 C   0  0  0  0  0  2  0  0  0  0  0  0
  191.0710  175.9350  147.1110 C   0  0  1  0  0  3  0  0  0  0  0  0
  189.1210  175.5830  144.1150 C   0  0  0  0  0  0  0  0  0  0  0  0
  193.2340  175.5380  144.4250 C   0  0  2  0  0  3  0  0  0  0  0  0
  191.0880  172.8010  138.2860 C   0  0  0  0  0  1  0  0  0  0  0  0
  191.9300  174.9980  146.4020 N   0  0  0  0  0  2  0  0  0  0  0  0
  188.9030  176.6160  143.1890 C   0  0  0  0  0  3  0  0  0  0  0  0
  187.9080  176.8730  145.7840 C   0  0  0  0  0  3  0  0  0  0  0  0
  187.6850  177.8850  144.8480 C   0  0  0  0  0  3  0  0  0  0  0  0
  189.8020  175.2450  147.6080 C   0  0  0  0  0  2  0  0  0  0  0  0
  192.1750  174.0020  143.0090 C   0  0  1  0  0  3  0  0  0  0  0  0
  191.8500  175.3340  144.9890 C   0  0  2  0  0  3  0  0  0  0  0  0
  191.2830  174.2970  141.8220 C   0  0  2  0  0  3  0  0  0  0  0  0
  194.4140  174.3050  142.9450 O   0  0  0  0  0  1  0  0  0  0  0  0
  189.8610  174.3260  143.6930 C   0  0  1  0  0  3  0  0  0  0  0  0
  1 21  1  0  0  0  0
  1  6  1  0  0  0  0
  3 17  1  0  0  0  0
  4 22  1  0  0  0  0
  5 17  1  0  0  0  0
  6 23  1  0  0  0  0
  8  7  2  0  0  0  0
  8  2  2  0  0  0  0
  9 18  1  6  0  0  0
  9 14  1  0  0  0  0
  9 13  1  0  0  0  0
 10  8  1  1  0  0  0
 10 28  1  0  0  0  0
 12 25  1  0  0  0  0
 13 26  1  0  0  0  0
 14  8  1  0  0  0  0
 15 23  1  0  0  0  0
 15 11  1  0  0  0  0
 16  1  2  0  0  0  0
 17 25  1  0  0  0  0
 19 15  1  0  0  0  0
 20  4  2  0  0  0  0
 20 16  1  0  0  0  0
 22 21  2  0  0  0  0
 24  5  1  0  0  0  0
 24 12  1  0  0  0  0
 25 19  1  0  0  0  0
 26 10  1  0  0  0  0
 26 24  1  0  0  0  0
 27  5  1  0  0  0  0
 28 16  1  0  0  0  0
 28 12  1  0  0  0  0
M  END
>  <MODEL>
5

>  <REMARK>
 VINA RESULT:      -7.2      2.777      5.364
  Name = 
  0 active torsions:
  status: ('A' for Active; 'I' for Inactive)
                            x       y       z     vdW  Elec       q    Type
                         _______ _______ _______ _____ _____    ______ ____

>  <TORSDO>
F 0

$$$$
=
 OpenBabel11112417423D

 28 32  0  0  1  0  0  0  0  0999 V2000
  191.0690  176.8950  145.3630 C   0  0  0  0  0  0  0  0  0  0  0  0
  194.8560  176.3010  141.9820 O   0  0  0  0  0  0  0  0  0  0  0  0
  189.4110  172.4250  143.2900 C   0  0  0  0  0  1  0  0  0  0  0  0
  191.6300  175.1610  147.4920 C   0  0  0  0  0  3  0  0  0  0  0  0
  191.5850  172.7240  142.2370 N   0  0  0  0  0  0  0  0  0  0  0  0
  190.6860  177.7870  144.2190 C   0  0  0  0  0  2  0  0  0  0  0  0
  195.6220  176.8210  144.2570 O   0  0  0  0  0  0  0  0  0  0  0  0
  195.2290  175.7180  143.3170 S   0  0  0  0  0  0  0  0  0  0  0  0
  196.1340  173.1740  143.3700 C   0  0  2  0  0  3  0  0  0  0  0  0
  193.8950  174.8190  143.9870 N   0  0  2  0  0  0  0  0  0  0  0  0
  187.2840  176.1690  143.3320 C   0  0  0  0  0  1  0  0  0  0  0  0
  191.8440  175.0810  142.6940 C   0  0  1  0  0  3  0  0  0  0  0  0
  194.8510  172.8940  142.5990 C   0  0  0  0  0  2  0  0  0  0  0  0
  196.5970  174.5980  143.1060 C   0  0  0  0  0  2  0  0  0  0  0  0
  188.7710  176.2040  143.6150 C   0  0  1  0  0  3  0  0  0  0  0  0
  191.9820  175.8340  145.1800 C   0  0  0  0  0  0  0  0  0  0  0  0
  190.2630  173.3130  142.4050 C   0  0  2  0  0  3  0  0  0  0  0  0
  197.2120  172.2090  142.9260 C   0  0  0  0  0  1  0  0  0  0  0  0
  189.4900  175.6140  142.4960 N   0  0  0  0  0  2  0  0  0  0  0  0
  192.2430  174.9660  146.2520 C   0  0  0  0  0  3  0  0  0  0  0  0
  190.4670  177.0880  146.6130 C   0  0  0  0  0  3  0  0  0  0  0  0
  190.7480  176.2260  147.6750 C   0  0  0  0  0  3  0  0  0  0  0  0
  189.2070  177.6500  143.8450 C   0  0  0  0  0  2  0  0  0  0  0  0
  192.5410  173.8280  142.2280 C   0  0  1  0  0  3  0  0  0  0  0  0
  190.4380  174.6630  143.0550 C   0  0  2  0  0  3  0  0  0  0  0  0
  193.6310  173.5710  143.2460 C   0  0  2  0  0  3  0  0  0  0  0  0
  191.6150  172.1710  141.0020 O   0  0  0  0  0  1  0  0  0  0  0  0
  192.6890  175.6370  143.8510 C   0  0  1  0  0  3  0  0  0  0  0  0
  1 21  1  0  0  0  0
  2  8  2  0  0  0  0
  4 22  1  0  0  0  0
  5 17  1  0  0  0  0
  6  1  1  0  0  0  0
  8  7  2  0  0  0  0
  9 18  1  6  0  0  0
 10  8  1  6  0  0  0
 11 15  1  0  0  0  0
 12 25  1  0  0  0  0
 12 28  1  0  0  0  0
 13 26  1  0  0  0  0
 13  9  1  0  0  0  0
 14  8  1  0  0  0  0
 14  9  1  0  0  0  0
 15 23  1  0  0  0  0
 16  1  2  0  0  0  0
 16 20  1  0  0  0  0
 17 25  1  0  0  0  0
 17  3  1  0  0  0  0
 19 25  1  0  0  0  0
 19 15  1  0  0  0  0
 20  4  2  0  0  0  0
 21 22  2  0  0  0  0
 23  6  1  0  0  0  0
 24  5  1  0  0  0  0
 24 12  1  0  0  0  0
 24 26  1  0  0  0  0
 26 10  1  0  0  0  0
 27  5  1  0  0  0  0
 28 10  1  0  0  0  0
 28 16  1  0  0  0  0
M  END
>  <MODEL>
6

>  <REMARK>
 VINA RESULT:      -7.1      3.103      6.799
  Name = 
  0 active torsions:
  status: ('A' for Active; 'I' for Inactive)
                            x       y       z     vdW  Elec       q    Type
                         _______ _______ _______ _____ _____    ______ ____

>  <TORSDO>
F 0

$$$$
=
 OpenBabel11112417423D

 28 32  0  0  1  0  0  0  0  0999 V2000
  187.2380  176.7010  143.4090 C   0  0  0  0  0  0  0  0  0  0  0  0
  189.2590  172.0750  144.2110 O   0  0  0  0  0  0  0  0  0  0  0  0
  190.2780  177.9930  147.4250 C   0  0  0  0  0  1  0  0  0  0  0  0
  189.1860  178.1920  142.0550 C   0  0  0  0  0  3  0  0  0  0  0  0
  190.9370  175.6930  146.9790 N   0  0  0  0  0  0  0  0  0  0  0  0
  186.1890  175.9710  144.1950 C   0  0  0  0  0  2  0  0  0  0  0  0
  189.3190  172.7960  141.8640 O   0  0  0  0  0  0  0  0  0  0  0  0
  190.0450  172.8350  143.1780 S   0  0  0  0  0  0  0  0  0  0  0  0
  192.7160  173.0330  143.5240 C   0  0  2  0  0  3  0  0  0  0  0  0
  190.2750  174.4890  143.6770 N   0  0  2  0  0  0  0  0  0  0  0  0
  185.9890  178.3410  147.2470 C   0  0  0  0  0  1  0  0  0  0  0  0
  189.0040  175.0480  145.6820 C   0  0  1  0  0  3  0  0  0  0  0  0
  192.3160  173.5480  144.8990 C   0  0  0  0  0  2  0  0  0  0  0  0
  191.6500  172.0870  142.9950 C   0  0  0  0  0  2  0  0  0  0  0  0
  186.6630  177.4520  146.2240 C   0  0  1  0  0  3  0  0  0  0  0  0
  188.5840  176.2740  143.4270 C   0  0  0  0  0  0  0  0  0  0  0  0
  189.8190  176.5500  147.3520 C   0  0  2  0  0  3  0  0  0  0  0  0
  194.0340  172.2950  143.6220 C   0  0  0  0  0  1  0  0  0  0  0  0
  187.4340  176.4260  146.9080 N   0  0  0  0  0  2  0  0  0  0  0  0
  189.5500  177.0390  142.7540 C   0  0  0  0  0  3  0  0  0  0  0  0
  186.8820  177.8530  142.6970 C   0  0  0  0  0  3  0  0  0  0  0  0
  187.8520  178.5950  142.0200 C   0  0  0  0  0  3  0  0  0  0  0  0
  185.6010  176.8280  145.3190 C   0  0  0  0  0  2  0  0  0  0  0  0
  190.4000  174.6590  146.0990 C   0  0  1  0  0  3  0  0  0  0  0  0
  188.7530  176.4060  146.2950 C   0  0  2  0  0  3  0  0  0  0  0  0
  191.2030  174.6060  144.8180 C   0  0  2  0  0  3  0  0  0  0  0  0
  191.3490  175.0700  148.1080 O   0  0  0  0  0  1  0  0  0  0  0  0
  188.9860  174.9990  144.1460 C   0  0  1  0  0  3  0  0  0  0  0  0
  1 16  1  0  0  0  0
  1  6  1  0  0  0  0
  4 20  1  0  0  0  0
  5 17  1  0  0  0  0
  5 27  1  0  0  0  0
  6 23  1  0  0  0  0
  7  8  2  0  0  0  0
  8  2  2  0  0  0  0
  9 18  1  1  0  0  0
  9 13  1  0  0  0  0
 10  8  1  1  0  0  0
 10 28  1  0  0  0  0
 10 26  1  0  0  0  0
 12 24  1  0  0  0  0
 12 25  1  0  0  0  0
 14  8  1  0  0  0  0
 14  9  1  0  0  0  0
 15 19  1  0  0  0  0
 15 11  1  0  0  0  0
 16 28  1  0  0  0  0
 17  3  1  0  0  0  0
 20 16  2  0  0  0  0
 21  1  2  0  0  0  0
 22  4  2  0  0  0  0
 22 21  1  0  0  0  0
 23 15  1  0  0  0  0
 24  5  1  0  0  0  0
 25 19  1  0  0  0  0
 25 17  1  0  0  0  0
 26 13  1  0  0  0  0
 26 24  1  0  0  0  0
 28 12  1  0  0  0  0
M  END
>  <MODEL>
7

>  <REMARK>
 VINA RESULT:      -7.1      2.408      5.793
  Name = 
  0 active torsions:
  status: ('A' for Active; 'I' for Inactive)
                            x       y       z     vdW  Elec       q    Type
                         _______ _______ _______ _____ _____    ______ ____

>  <TORSDO>
F 0

$$$$
=
 OpenBabel11112417423D

 28 32  0  0  1  0  0  0  0  0999 V2000
  194.0970  173.9270  145.2810 C   0  0  0  0  0  0  0  0  0  0  0  0
  189.2350  174.0680  146.8510 O   0  0  0  0  0  0  0  0  0  0  0  0
  191.8800  173.7880  140.5810 C   0  0  0  0  0  1  0  0  0  0  0  0
  194.7190  176.5130  144.3980 C   0  0  0  0  0  3  0  0  0  0  0  0
  189.9770  174.1530  142.0540 N   0  0  0  0  0  0  0  0  0  0  0  0
  193.7950  172.5110  145.6740 C   0  0  0  0  0  2  0  0  0  0  0  0
  190.6690  175.7690  147.8920 O   0  0  0  0  0  0  0  0  0  0  0  0
  189.7960  175.4560  146.7100 S   0  0  0  0  0  0  0  0  0  0  0  0
  188.3950  177.2380  145.2410 C   0  0  2  0  0  3  0  0  0  0  0  0
  190.7220  175.5970  145.2400 N   0  0  2  0  0  0  0  0  0  0  0  0
  194.4810  170.8010  142.2710 C   0  0  0  0  0  1  0  0  0  0  0  0
  191.0260  173.4550  144.1150 C   0  0  1  0  0  3  0  0  0  0  0  0
  188.4530  176.1390  144.1890 C   0  0  0  0  0  2  0  0  0  0  0  0
  188.4560  176.6250  146.6320 C   0  0  0  0  0  2  0  0  0  0  0  0
  193.8590  171.8060  143.2170 C   0  0  1  0  0  3  0  0  0  0  0  0
  193.0570  174.8320  144.9770 C   0  0  0  0  0  0  0  0  0  0  0  0
  191.0670  173.2380  141.7360 C   0  0  2  0  0  3  0  0  0  0  0  0
  187.1040  178.0130  145.0940 C   0  0  0  0  0  1  0  0  0  0  0  0
  192.4100  171.7460  143.1020 N   0  0  0  0  0  2  0  0  0  0  0  0
  193.3850  176.1200  144.5230 C   0  0  0  0  0  3  0  0  0  0  0  0
  195.4320  174.3340  145.1610 C   0  0  0  0  0  3  0  0  0  0  0  0
  195.7420  175.6230  144.7240 C   0  0  0  0  0  3  0  0  0  0  0  0
  194.3080  171.4990  144.6460 C   0  0  0  0  0  2  0  0  0  0  0  0
  189.8300  174.1430  143.5070 C   0  0  1  0  0  3  0  0  0  0  0  0
  191.9380  173.1150  142.9600 C   0  0  2  0  0  3  0  0  0  0  0  0
  189.8690  175.5610  144.0360 C   0  0  2  0  0  3  0  0  0  0  0  0
  188.8470  173.6100  141.5440 O   0  0  0  0  0  1  0  0  0  0  0  0
  191.6030  174.4320  145.1510 C   0  0  1  0  0  3  0  0  0  0  0  0
  1  6  1  0  0  0  0
  3 17  1  0  0  0  0
  4 20  2  0  0  0  0
  4 22  1  0  0  0  0
  5 24  1  0  0  0  0
  8  2  2  0  0  0  0
  8  7  2  0  0  0  0
  9 18  1  1  0  0  0
  9 14  1  0  0  0  0
 10  8  1  1  0  0  0
 11 15  1  0  0  0  0
 12 28  1  0  0  0  0
 13  9  1  0  0  0  0
 14  8  1  0  0  0  0
 15 23  1  0  0  0  0
 16 28  1  0  0  0  0
 16  1  2  0  0  0  0
 17  5  1  0  0  0  0
 17 25  1  0  0  0  0
 19 15  1  0  0  0  0
 20 16  1  0  0  0  0
 21  1  1  0  0  0  0
 22 21  2  0  0  0  0
 23  6  1  0  0  0  0
 24 26  1  0  0  0  0
 24 12  1  0  0  0  0
 25 19  1  0  0  0  0
 25 12  1  0  0  0  0
 26 13  1  0  0  0  0
 26 10  1  0  0  0  0
 27  5  1  0  0  0  0
 28 10  1  0  0  0  0
M  END
>  <MODEL>
8

>  <REMARK>
 VINA RESULT:      -7.0      2.389      4.830
  Name = 
  0 active torsions:
  status: ('A' for Active; 'I' for Inactive)
                            x       y       z     vdW  Elec       q    Type
                         _______ _______ _______ _____ _____    ______ ____

>  <TORSDO>
F 0

$$$$
=
 OpenBabel11112417423D

 28 32  0  0  1  0  0  0  0  0999 V2000
  187.8790  176.6680  144.3770 C   0  0  0  0  0  0  0  0  0  0  0  0
  189.1270  171.7570  143.7120 O   0  0  0  0  0  0  0  0  0  0  0  0
  193.0080  177.1910  145.0490 C   0  0  0  0  0  1  0  0  0  0  0  0
  188.5280  177.9810  141.9880 C   0  0  0  0  0  3  0  0  0  0  0  0
  192.7980  174.8660  144.3600 N   0  0  0  0  0  0  0  0  0  0  0  0
  187.5800  176.0290  145.7010 C   0  0  0  0  0  2  0  0  0  0  0  0
  187.6430  172.6540  141.9720 O   0  0  0  0  0  0  0  0  0  0  0  0
  189.0740  172.4830  142.3960 S   0  0  0  0  0  0  0  0  0  0  0  0
  191.2130  172.2790  140.7580 C   0  0  2  0  0  3  0  0  0  0  0  0
  189.8420  174.0420  142.5240 N   0  0  2  0  0  0  0  0  0  0  0  0
  189.9420  178.1440  147.9200 C   0  0  0  0  0  1  0  0  0  0  0  0
  190.4410  174.6050  144.8200 C   0  0  1  0  0  3  0  0  0  0  0  0
  191.9740  172.7300  141.9980 C   0  0  0  0  0  2  0  0  0  0  0  0
  189.9500  171.5370  141.1680 C   0  0  0  0  0  2  0  0  0  0  0  0
  189.5590  177.2580  146.7530 C   0  0  1  0  0  3  0  0  0  0  0  0
  188.7640  176.0590  143.4620 C   0  0  0  0  0  0  0  0  0  0  0  0
  192.4110  175.8370  145.3760 C   0  0  2  0  0  3  0  0  0  0  0  0
  192.0870  171.3590  139.9330 C   0  0  0  0  0  1  0  0  0  0  0  0
  190.4150  176.0820  146.7390 N   0  0  0  0  0  2  0  0  0  0  0  0
  189.0900  176.7350  142.2760 C   0  0  0  0  0  3  0  0  0  0  0  0
  187.3130  177.9140  144.0760 C   0  0  0  0  0  3  0  0  0  0  0  0
  187.6340  178.5670  142.8840 C   0  0  0  0  0  3  0  0  0  0  0  0
  188.0890  176.8640  146.8800 C   0  0  0  0  0  2  0  0  0  0  0  0
  191.6460  173.9930  144.1520 C   0  0  1  0  0  3  0  0  0  0  0  0
  190.9060  175.9300  145.3780 C   0  0  2  0  0  3  0  0  0  0  0  0
  191.3050  173.9350  142.6790 C   0  0  2  0  0  3  0  0  0  0  0  0
  193.7760  174.1020  144.8990 O   0  0  0  0  0  1  0  0  0  0  0  0
  189.3480  174.6860  143.7420 C   0  0  1  0  0  3  0  0  0  0  0  0
  1  6  1  0  0  0  0
  3 17  1  0  0  0  0
  4 20  2  0  0  0  0
  4 22  1  0  0  0  0
  5 27  1  0  0  0  0
  5 17  1  0  0  0  0
  6 23  1  0  0  0  0
  7  8  2  0  0  0  0
  8  2  2  0  0  0  0
  9 18  1  1  0  0  0
  9 14  1  0  0  0  0
  9 13  1  0  0  0  0
 10  8  1  1  0  0  0
 10 26  1  0  0  0  0
 10 28  1  0  0  0  0
 12 25  1  0  0  0  0
 13 26  1  0  0  0  0
 14  8  1  0  0  0  0
 15 23  1  0  0  0  0
 15 11  1  0  0  0  0
 16 28  1  0  0  0  0
 16  1  2  0  0  0  0
 17 25  1  0  0  0  0
 19 15  1  0  0  0  0
 20 16  1  0  0  0  0
 21  1  1  0  0  0  0
 22 21  2  0  0  0  0
 24  5  1  0  0  0  0
 24 12  1  0  0  0  0
 25 19  1  0  0  0  0
 26 24  1  0  0  0  0
 28 12  1  0  0  0  0
M  END
>  <MODEL>
9

>  <REMARK>
 VINA RESULT:      -7.0      2.581      5.543
  Name = 
  0 active torsions:
  status: ('A' for Active; 'I' for Inactive)
                            x       y       z     vdW  Elec       q    Type
                         _______ _______ _______ _____ _____    ______ ____

>  <TORSDO>
F 0

$$$$
