=
 OpenBabel11112417243D

 37 42  0  0  1  0  0  0  0  0999 V2000
  189.4070  172.7880  138.9900 C   0  0  0  0  0  0  0  0  0  0  0  0
  187.9650  176.0540  141.1750 C   0  0  0  0  0  0  0  0  0  0  0  0
  188.0810  175.6970  144.9460 O   0  0  0  0  0  0  0  0  0  0  0  0
  187.9030  174.8520  139.0890 C   0  0  0  0  0  0  0  0  0  0  0  0
  188.5560  175.8890  142.5350 C   0  0  1  0  0  3  0  0  0  0  0  0
  188.3450  175.0140  140.3920 C   0  0  0  0  0  0  0  0  0  0  0  0
  187.5470  176.0760  143.6870 C   0  0  2  0  0  3  0  0  0  0  0  0
  187.0490  175.8340  138.5570 C   0  0  0  0  0  3  0  0  0  0  0  0
  189.1310  174.0750  141.0780 N   0  0  0  0  0  0  0  0  0  0  0  0
  190.7220  173.4230  138.5710 C   0  0  0  0  0  1  0  0  0  0  0  0
  186.6810  178.1660  141.5670 C   0  0  0  0  0  2  0  0  0  0  0  0
  186.6710  176.9420  139.3500 C   0  0  0  0  0  3  0  0  0  0  0  0
  189.3260  172.7360  140.5320 C   0  0  0  0  0  2  0  0  0  0  0  0
  190.4280  175.4040  145.4580 C   0  0  1  0  0  3  0  0  0  0  0  0
  189.2930  176.3830  145.1550 C   0  0  0  0  0  2  0  0  0  0  0  0
  187.1310  177.0560  140.6770 C   0  0  0  0  0  0  0  0  0  0  0  0
  189.1240  174.4450  142.4930 C   0  0  1  0  0  3  0  0  0  0  0  0
  188.2300  173.5740  138.3610 C   0  0  0  0  0  2  0  0  0  0  0  0
  186.9220  177.4940  143.6980 C   0  0  1  0  0  3  0  0  0  0  0  0
  189.3740  171.3720  138.4590 C   0  0  0  0  0  1  0  0  0  0  0  0
  190.4550  174.1410  144.5810 C   0  0  0  0  0  2  0  0  0  0  0  0
  190.5260  174.4110  143.0790 C   0  0  0  0  0  2  0  0  0  0  0  0
  185.9860  177.6280  142.6590 O   0  0  0  0  0  0  0  0  0  0  0  0
  184.8760  177.6300  145.1310 C   0  0  0  0  0  3  0  0  0  0  0  0
  186.2560  177.8140  145.0030 C   0  0  0  0  0  0  0  0  0  0  0  0
  186.9970  178.3010  146.0900 C   0  0  0  0  0  3  0  0  0  0  0  0
  187.1100  179.0950  148.3970 N   0  0  0  0  0  1  0  0  0  0  0  0
  184.9760  178.4150  147.4200 C   0  0  0  0  0  3  0  0  0  0  0  0
  186.3570  178.6010  147.2960 C   0  0  0  0  0  0  0  0  0  0  0  0
  184.2360  177.9290  146.3380 C   0  0  0  0  0  3  0  0  0  0  0  0
  194.4810  177.0930  145.5900 O   0  0  0  0  0  0  0  0  0  0  0  0
  194.2630  175.8640  145.7620 C   0  0  0  0  0  0  0  0  0  0  0  0
  191.7500  176.1000  145.4690 C   0  0  0  0  0  0  0  0  0  0  0  0
  192.9330  175.3350  145.7210 N   0  0  0  0  0  2  0  0  0  0  0  0
  191.8150  177.3400  145.2450 O   0  0  0  0  0  0  0  0  0  0  0  0
  196.2780  174.8850  144.8930 N   0  0  0  0  0  1  0  0  0  0  0  0
  195.4030  174.9530  146.0490 C   0  0  0  0  0  2  0  0  0  0  0  0
  1 13  1  0  0  0  0
  3 15  1  0  0  0  0
  4  6  1  0  0  0  0
  5  2  1  6  0  0  0
  5  7  1  0  0  0  0
  6  9  1  0  0  0  0
  6  2  2  0  0  0  0
  7 19  1  0  0  0  0
  7  3  1  1  0  0  0
  8  4  2  0  0  0  0
  8 12  1  0  0  0  0
  9 17  1  0  0  0  0
 10  1  1  0  0  0  0
 11 23  1  0  0  0  0
 12 16  2  0  0  0  0
 13  9  1  0  0  0  0
 14 33  1  6  0  0  0
 15 14  1  0  0  0  0
 16  2  1  0  0  0  0
 16 11  1  0  0  0  0
 17  5  1  0  0  0  0
 17 22  1  6  0  0  0
 18  1  1  0  0  0  0
 18  4  1  0  0  0  0
 19 25  1  1  0  0  0
 20  1  1  0  0  0  0
 21 14  1  0  0  0  0
 22 21  1  0  0  0  0
 23 19  1  0  0  0  0
 24 30  1  0  0  0  0
 25 24  2  0  0  0  0
 25 26  1  0  0  0  0
 26 29  2  0  0  0  0
 29 28  1  0  0  0  0
 29 27  1  0  0  0  0
 30 28  2  0  0  0  0
 31 32  2  0  0  0  0
 32 37  1  0  0  0  0
 33 34  1  0  0  0  0
 34 32  1  0  0  0  0
 35 33  2  0  0  0  0
 36 37  1  0  0  0  0
M  END
>  <MODEL>
1

>  <REMARK>
 VINA RESULT:      -8.6      0.000      0.000
  Name = 
  3 active torsions:
  status: ('A' for Active; 'I' for Inactive)
    1  A    between atoms: C_4  and  C_37
    2  A    between atoms: C_8  and  C_18
    3  A    between atoms: C_23  and  C_30
                            x       y       z     vdW  Elec       q    Type
                         _______ _______ _______ _____ _____    ______ ____

>  <TORSDO>
F 3

$$$$
=
 OpenBabel11112417243D

 37 42  0  0  1  0  0  0  0  0999 V2000
  186.6010  177.4470  143.4500 C   0  0  0  0  0  0  0  0  0  0  0  0
  190.3760  175.6530  143.2420 C   0  0  0  0  0  0  0  0  0  0  0  0
  190.4910  172.2350  141.6080 O   0  0  0  0  0  0  0  0  0  0  0  0
  188.9690  177.2370  144.3870 C   0  0  0  0  0  0  0  0  0  0  0  0
  190.2460  174.6230  142.1700 C   0  0  1  0  0  3  0  0  0  0  0  0
  189.1820  176.2720  143.4150 C   0  0  0  0  0  0  0  0  0  0  0  0
  190.8250  173.2430  142.5490 C   0  0  2  0  0  3  0  0  0  0  0  0
  190.0560  177.6030  145.2000 C   0  0  0  0  0  3  0  0  0  0  0  0
  188.1740  175.7510  142.5890 N   0  0  0  0  0  0  0  0  0  0  0  0
  186.8280  178.4660  142.3460 C   0  0  0  0  0  1  0  0  0  0  0  0
  192.7740  175.2740  143.8500 C   0  0  0  0  0  2  0  0  0  0  0  0
  191.3160  176.9900  145.0090 C   0  0  0  0  0  3  0  0  0  0  0  0
  186.7690  176.0210  142.8800 C   0  0  0  0  0  2  0  0  0  0  0  0
  189.6910  172.6100  139.3550 C   0  0  1  0  0  3  0  0  0  0  0  0
  190.8750  172.6620  140.3230 C   0  0  0  0  0  2  0  0  0  0  0  0
  191.4820  176.0010  144.0190 C   0  0  0  0  0  0  0  0  0  0  0  0
  188.7140  174.5600  141.9340 C   0  0  1  0  0  3  0  0  0  0  0  0
  187.5670  177.7340  144.6260 C   0  0  0  0  0  2  0  0  0  0  0  0
  192.3440  173.3060  142.8530 C   0  0  1  0  0  3  0  0  0  0  0  0
  185.1810  177.5990  143.9500 C   0  0  0  0  0  1  0  0  0  0  0  0
  188.3590  173.1290  139.9210 C   0  0  0  0  0  2  0  0  0  0  0  0
  188.4070  174.5630  140.4450 C   0  0  0  0  0  2  0  0  0  0  0  0
  192.5720  173.9100  144.1020 O   0  0  0  0  0  0  0  0  0  0  0  0
  193.9210  171.6450  141.8460 C   0  0  0  0  0  3  0  0  0  0  0  0
  192.9850  171.9510  142.8390 C   0  0  0  0  0  0  0  0  0  0  0  0
  192.6520  170.9870  143.8020 C   0  0  0  0  0  3  0  0  0  0  0  0
  192.9150  168.7490  144.7450 N   0  0  0  0  0  1  0  0  0  0  0  0
  194.1900  169.4240  142.7730 C   0  0  0  0  0  3  0  0  0  0  0  0
  193.2540  169.7250  143.7680 C   0  0  0  0  0  0  0  0  0  0  0  0
  194.5240  170.3840  141.8130 C   0  0  0  0  0  3  0  0  0  0  0  0
  191.0330  174.6470  135.7020 O   0  0  0  0  0  0  0  0  0  0  0  0
  191.7440  174.6020  136.7410 C   0  0  0  0  0  0  0  0  0  0  0  0
  190.0310  173.2590  138.0530 C   0  0  0  0  0  0  0  0  0  0  0  0
  191.2850  173.9370  137.9230 N   0  0  0  0  0  2  0  0  0  0  0  0
  189.2270  173.1930  137.0840 O   0  0  0  0  0  0  0  0  0  0  0  0
  192.9790  176.5360  136.0280 N   0  0  0  0  0  1  0  0  0  0  0  0
  193.0670  175.2800  136.7510 C   0  0  0  0  0  2  0  0  0  0  0  0
  1 20  1  0  0  0  0
  1 18  1  0  0  0  0
  2  6  2  0  0  0  0
  2 16  1  0  0  0  0
  4 18  1  0  0  0  0
  4  8  2  0  0  0  0
  5  7  1  0  0  0  0
  5  2  1  1  0  0  0
  6  4  1  0  0  0  0
  7  3  1  6  0  0  0
  7 19  1  0  0  0  0
  9 13  1  0  0  0  0
  9  6  1  0  0  0  0
 10  1  1  0  0  0  0
 11 16  1  0  0  0  0
 11 23  1  0  0  0  0
 12  8  1  0  0  0  0
 13  1  1  0  0  0  0
 14 33  1  6  0  0  0
 14 21  1  0  0  0  0
 14 15  1  0  0  0  0
 15  3  1  0  0  0  0
 16 12  2  0  0  0  0
 17 22  1  6  0  0  0
 17  5  1  0  0  0  0
 17  9  1  0  0  0  0
 19 25  1  1  0  0  0
 19 23  1  0  0  0  0
 21 22  1  0  0  0  0
 24 25  1  0  0  0  0
 25 26  2  0  0  0  0
 28 29  2  0  0  0  0
 29 26  1  0  0  0  0
 29 27  1  0  0  0  0
 30 24  2  0  0  0  0
 30 28  1  0  0  0  0
 31 32  2  0  0  0  0
 32 37  1  0  0  0  0
 32 34  1  0  0  0  0
 34 33  1  0  0  0  0
 35 33  2  0  0  0  0
 36 37  1  0  0  0  0
M  END
>  <MODEL>
2

>  <REMARK>
 VINA RESULT:      -8.0      3.663      8.034
  Name = 
  3 active torsions:
  status: ('A' for Active; 'I' for Inactive)
    1  A    between atoms: C_4  and  C_37
    2  A    between atoms: C_8  and  C_18
    3  A    between atoms: C_23  and  C_30
                            x       y       z     vdW  Elec       q    Type
                         _______ _______ _______ _____ _____    ______ ____

>  <TORSDO>
F 3

$$$$
=
 OpenBabel11112417243D

 37 42  0  0  1  0  0  0  0  0999 V2000
  189.3500  175.8390  146.1460 C   0  0  0  0  0  0  0  0  0  0  0  0
  193.2580  174.5280  145.4190 C   0  0  0  0  0  0  0  0  0  0  0  0
  193.6310  170.8620  144.5330 O   0  0  0  0  0  0  0  0  0  0  0  0
  191.8590  176.1510  146.5190 C   0  0  0  0  0  0  0  0  0  0  0  0
  193.0940  173.2660  144.6410 C   0  0  1  0  0  3  0  0  0  0  0  0
  192.0350  175.0180  145.7410 C   0  0  0  0  0  0  0  0  0  0  0  0
  193.9690  172.0980  145.1440 C   0  0  2  0  0  3  0  0  0  0  0  0
  193.0070  176.8310  146.9600 C   0  0  0  0  0  3  0  0  0  0  0  0
  190.9860  174.1960  145.3000 N   0  0  0  0  0  0  0  0  0  0  0  0
  189.1690  176.5880  144.8370 C   0  0  0  0  0  1  0  0  0  0  0  0
  195.7580  174.6040  145.5070 C   0  0  0  0  0  2  0  0  0  0  0  0
  194.2900  176.3520  146.6050 C   0  0  0  0  0  3  0  0  0  0  0  0
  189.6450  174.3510  145.8540 C   0  0  0  0  0  2  0  0  0  0  0  0
  192.3380  170.5920  142.5050 C   0  0  1  0  0  3  0  0  0  0  0  0
  193.6660  171.0180  143.1340 C   0  0  0  0  0  2  0  0  0  0  0  0
  194.4200  175.1850  145.8260 C   0  0  0  0  0  0  0  0  0  0  0  0
  191.5800  172.9600  144.7920 C   0  0  1  0  0  3  0  0  0  0  0  0
  190.4700  176.5130  146.9770 C   0  0  0  0  0  2  0  0  0  0  0  0
  195.4830  172.4190  145.0600 C   0  0  1  0  0  3  0  0  0  0  0  0
  188.0570  175.9280  146.9260 C   0  0  0  0  0  1  0  0  0  0  0  0
  191.0790  171.0610  143.2530 C   0  0  0  0  0  2  0  0  0  0  0  0
  190.9830  172.5730  143.4490 C   0  0  0  0  0  2  0  0  0  0  0  0
  195.8510  173.3240  146.0700 O   0  0  0  0  0  0  0  0  0  0  0  0
  197.1470  170.8190  144.0950 C   0  0  0  0  0  3  0  0  0  0  0  0
  196.3330  171.1890  145.1700 C   0  0  0  0  0  0  0  0  0  0  0  0
  196.3160  170.4030  146.3320 C   0  0  0  0  0  3  0  0  0  0  0  0
  197.0910  168.4590  147.5920 N   0  0  0  0  0  1  0  0  0  0  0  0
  197.9230  168.8890  145.3350 C   0  0  0  0  0  3  0  0  0  0  0  0
  197.1100  169.2550  146.4130 C   0  0  0  0  0  0  0  0  0  0  0  0
  197.9410  169.6720  144.1760 C   0  0  0  0  0  3  0  0  0  0  0  0
  191.8610  171.4170  138.2170 O   0  0  0  0  0  0  0  0  0  0  0  0
  191.0270  170.7280  138.8620 C   0  0  0  0  0  0  0  0  0  0  0  0
  192.2890  170.9510  141.0560 C   0  0  0  0  0  0  0  0  0  0  0  0
  191.2050  170.4660  140.2580 N   0  0  0  0  0  2  0  0  0  0  0  0
  193.1860  171.6830  140.5540 O   0  0  0  0  0  0  0  0  0  0  0  0
  189.9490  170.4400  136.7340 N   0  0  0  0  0  1  0  0  0  0  0  0
  189.8560  170.1470  138.1520 C   0  0  0  0  0  2  0  0  0  0  0  0
  1 20  1  0  0  0  0
  1 18  1  0  0  0  0
  2  6  2  0  0  0  0
  2 16  1  0  0  0  0
  4  8  2  0  0  0  0
  4 18  1  0  0  0  0
  5 17  1  0  0  0  0
  5  7  1  0  0  0  0
  5  2  1  1  0  0  0
  6  4  1  0  0  0  0
  7  3  1  6  0  0  0
  9  6  1  0  0  0  0
  9 13  1  0  0  0  0
 10  1  1  0  0  0  0
 11 16  1  0  0  0  0
 11 23  1  0  0  0  0
 12  8  1  0  0  0  0
 13  1  1  0  0  0  0
 14 33  1  6  0  0  0
 14 15  1  0  0  0  0
 14 21  1  0  0  0  0
 15  3  1  0  0  0  0
 16 12  2  0  0  0  0
 17 22  1  6  0  0  0
 17  9  1  0  0  0  0
 19  7  1  0  0  0  0
 19 25  1  1  0  0  0
 19 23  1  0  0  0  0
 21 22  1  0  0  0  0
 24 30  2  0  0  0  0
 24 25  1  0  0  0  0
 25 26  2  0  0  0  0
 26 29  1  0  0  0  0
 28 29  2  0  0  0  0
 29 27  1  0  0  0  0
 30 28  1  0  0  0  0
 31 32  2  0  0  0  0
 32 34  1  0  0  0  0
 34 33  1  0  0  0  0
 35 33  2  0  0  0  0
 36 37  1  0  0  0  0
 37 32  1  0  0  0  0
M  END
>  <MODEL>
3

>  <REMARK>
 VINA RESULT:      -8.0      4.135      9.620
  Name = 
  3 active torsions:
  status: ('A' for Active; 'I' for Inactive)
    1  A    between atoms: C_4  and  C_37
    2  A    between atoms: C_8  and  C_18
    3  A    between atoms: C_23  and  C_30
                            x       y       z     vdW  Elec       q    Type
                         _______ _______ _______ _____ _____    ______ ____

>  <TORSDO>
F 3

$$$$
=
 OpenBabel11112417243D

 37 42  0  0  1  0  0  0  0  0999 V2000
  187.8070  176.3940  143.0880 C   0  0  0  0  0  0  0  0  0  0  0  0
  191.5780  175.4410  144.6320 C   0  0  0  0  0  0  0  0  0  0  0  0
  193.1940  172.3130  143.2270 O   0  0  0  0  0  0  0  0  0  0  0  0
  189.4850  176.5720  145.0060 C   0  0  0  0  0  0  0  0  0  0  0  0
  192.1800  174.5270  143.6180 C   0  0  1  0  0  3  0  0  0  0  0  0
  190.3250  175.7810  144.2390 C   0  0  0  0  0  0  0  0  0  0  0  0
  192.8300  173.2620  144.2180 C   0  0  2  0  0  3  0  0  0  0  0  0
  189.9770  177.0630  146.2280 C   0  0  0  0  0  3  0  0  0  0  0  0
  189.9420  175.1570  143.0420 N   0  0  0  0  0  0  0  0  0  0  0  0
  188.2610  177.5510  142.2130 C   0  0  0  0  0  1  0  0  0  0  0  0
  193.4670  175.4950  146.2720 C   0  0  0  0  0  2  0  0  0  0  0  0
  191.2940  176.7440  146.6360 C   0  0  0  0  0  3  0  0  0  0  0  0
  188.5350  175.1020  142.6560 C   0  0  0  0  0  2  0  0  0  0  0  0
  193.4210  172.7570  140.8590 C   0  0  1  0  0  3  0  0  0  0  0  0
  194.0000  172.9450  142.2620 C   0  0  0  0  0  2  0  0  0  0  0  0
  192.1060  175.9210  145.8310 C   0  0  0  0  0  0  0  0  0  0  0  0
  190.9750  174.1780  142.7050 C   0  0  1  0  0  3  0  0  0  0  0  0
  188.0520  176.7440  144.5760 C   0  0  0  0  0  2  0  0  0  0  0  0
  193.9940  173.6000  145.1860 C   0  0  1  0  0  3  0  0  0  0  0  0
  186.3210  176.1990  142.8800 C   0  0  0  0  0  1  0  0  0  0  0  0
  191.8970  172.9300  140.7520 C   0  0  0  0  0  2  0  0  0  0  0  0
  191.3740  174.2790  141.2420 C   0  0  0  0  0  2  0  0  0  0  0  0
  193.4940  174.1000  146.4000 O   0  0  0  0  0  0  0  0  0  0  0  0
  196.2540  172.5400  145.3490 C   0  0  0  0  0  3  0  0  0  0  0  0
  194.8660  172.4140  145.4650 C   0  0  0  0  0  0  0  0  0  0  0  0
  194.3090  171.1790  145.8310 C   0  0  0  0  0  3  0  0  0  0  0  0
  194.5710  168.8320  146.4520 N   0  0  0  0  0  1  0  0  0  0  0  0
  196.5260  170.2140  145.9640 C   0  0  0  0  0  3  0  0  0  0  0  0
  195.1380  170.0820  146.0800 C   0  0  0  0  0  0  0  0  0  0  0  0
  197.0830  171.4430  145.5990 C   0  0  0  0  0  3  0  0  0  0  0  0
  195.8230  175.3110  138.2120 O   0  0  0  0  0  0  0  0  0  0  0  0
  196.1740  175.0580  139.3960 C   0  0  0  0  0  0  0  0  0  0  0  0
  194.1460  173.5970  139.8600 C   0  0  0  0  0  0  0  0  0  0  0  0
  195.3720  174.2290  140.2440 N   0  0  0  0  0  2  0  0  0  0  0  0
  193.6870  173.7330  138.6930 O   0  0  0  0  0  0  0  0  0  0  0  0
  197.4230  175.5770  141.3820 N   0  0  0  0  0  1  0  0  0  0  0  0
  197.4220  175.6630  139.9330 C   0  0  0  0  0  2  0  0  0  0  0  0
  1 18  1  0  0  0  0
  2 16  1  0  0  0  0
  4  8  2  0  0  0  0
  5  7  1  0  0  0  0
  5  2  1  1  0  0  0
  6  2  2  0  0  0  0
  6  4  1  0  0  0  0
  7  3  1  6  0  0  0
  7 19  1  0  0  0  0
  8 12  1  0  0  0  0
  9  6  1  0  0  0  0
 10  1  1  0  0  0  0
 11 23  1  0  0  0  0
 13  9  1  0  0  0  0
 13  1  1  0  0  0  0
 14 33  1  6  0  0  0
 14 15  1  0  0  0  0
 15  3  1  0  0  0  0
 16 11  1  0  0  0  0
 16 12  2  0  0  0  0
 17 22  1  6  0  0  0
 17  9  1  0  0  0  0
 17  5  1  0  0  0  0
 18  4  1  0  0  0  0
 19 25  1  1  0  0  0
 19 23  1  0  0  0  0
 20  1  1  0  0  0  0
 21 14  1  0  0  0  0
 21 22  1  0  0  0  0
 24 25  2  0  0  0  0
 24 30  1  0  0  0  0
 25 26  1  0  0  0  0
 26 29  2  0  0  0  0
 28 29  1  0  0  0  0
 29 27  1  0  0  0  0
 30 28  2  0  0  0  0
 31 32  2  0  0  0  0
 32 37  1  0  0  0  0
 32 34  1  0  0  0  0
 33 34  1  0  0  0  0
 35 33  2  0  0  0  0
 37 36  1  0  0  0  0
M  END
>  <MODEL>
4

>  <REMARK>
 VINA RESULT:      -7.9      3.654      7.851
  Name = 
  3 active torsions:
  status: ('A' for Active; 'I' for Inactive)
    1  A    between atoms: C_4  and  C_37
    2  A    between atoms: C_8  and  C_18
    3  A    between atoms: C_23  and  C_30
                            x       y       z     vdW  Elec       q    Type
                         _______ _______ _______ _____ _____    ______ ____

>  <TORSDO>
F 3

$$$$
=
 OpenBabel11112417243D

 37 42  0  0  1  0  0  0  0  0999 V2000
  190.6040  170.3560  139.4060 C   0  0  0  0  0  0  0  0  0  0  0  0
  189.3980  173.9900  141.0970 C   0  0  0  0  0  0  0  0  0  0  0  0
  189.8750  174.3050  144.8440 O   0  0  0  0  0  0  0  0  0  0  0  0
  189.1290  172.4390  139.2750 C   0  0  0  0  0  0  0  0  0  0  0  0
  190.1170  174.0550  142.4030 C   0  0  1  0  0  3  0  0  0  0  0  0
  189.6950  172.8190  140.4810 C   0  0  0  0  0  0  0  0  0  0  0  0
  189.2240  174.4660  143.5930 C   0  0  2  0  0  3  0  0  0  0  0  0
  188.2340  173.3300  138.6580 C   0  0  0  0  0  3  0  0  0  0  0  0
  190.5390  171.9990  141.2470 N   0  0  0  0  0  0  0  0  0  0  0  0
  191.8770  170.8760  138.7600 C   0  0  0  0  0  1  0  0  0  0  0  0
  188.1700  176.1660  141.2250 C   0  0  0  0  0  2  0  0  0  0  0  0
  187.9400  174.5700  139.2720 C   0  0  0  0  0  3  0  0  0  0  0  0
  190.6720  170.5800  140.9330 C   0  0  0  0  0  2  0  0  0  0  0  0
  192.2580  174.0540  145.1780 C   0  0  1  0  0  3  0  0  0  0  0  0
  191.1050  174.9890  144.8130 C   0  0  0  0  0  2  0  0  0  0  0  0
  188.5260  174.9060  140.5090 C   0  0  0  0  0  0  0  0  0  0  0  0
  190.6690  172.6140  142.5670 C   0  0  1  0  0  3  0  0  0  0  0  0
  189.3770  171.0450  138.7590 C   0  0  0  0  0  2  0  0  0  0  0  0
  188.6110  175.8780  143.4090 C   0  0  1  0  0  3  0  0  0  0  0  0
  190.5130  168.8690  139.1430 C   0  0  0  0  0  1  0  0  0  0  0  0
  192.1930  172.6550  144.5420 C   0  0  0  0  0  2  0  0  0  0  0  0
  192.1210  172.6530  143.0160 C   0  0  0  0  0  2  0  0  0  0  0  0
  187.5800  175.8470  142.4550 O   0  0  0  0  0  0  0  0  0  0  0  0
  188.9550  177.0420  145.5970 C   0  0  0  0  0  3  0  0  0  0  0  0
  188.0760  176.4390  144.6920 C   0  0  0  0  0  0  0  0  0  0  0  0
  186.7090  176.3590  144.9990 C   0  0  0  0  0  3  0  0  0  0  0  0
  184.8440  176.7990  146.5130 N   0  0  0  0  0  1  0  0  0  0  0  0
  187.1130  177.4840  147.1050 C   0  0  0  0  0  3  0  0  0  0  0  0
  186.2300  176.8800  146.2040 C   0  0  0  0  0  0  0  0  0  0  0  0
  188.4750  177.5650  146.8010 C   0  0  0  0  0  3  0  0  0  0  0  0
  196.3120  175.6690  144.6740 O   0  0  0  0  0  0  0  0  0  0  0  0
  196.1010  174.5460  145.2040 C   0  0  0  0  0  0  0  0  0  0  0  0
  193.5790  174.7100  144.9410 C   0  0  0  0  0  0  0  0  0  0  0  0
  194.7710  174.0410  145.3650 N   0  0  0  0  0  2  0  0  0  0  0  0
  193.6350  175.8300  144.3640 O   0  0  0  0  0  0  0  0  0  0  0  0
  196.7890  172.4410  146.1360 N   0  0  0  0  0  1  0  0  0  0  0  0
  197.2520  173.7470  145.7050 C   0  0  0  0  0  2  0  0  0  0  0  0
  1 13  1  0  0  0  0
  4  6  1  0  0  0  0
  5  2  1  6  0  0  0
  5 17  1  0  0  0  0
  5  7  1  0  0  0  0
  6  2  2  0  0  0  0
  6  9  1  0  0  0  0
  7  3  1  1  0  0  0
  8 12  1  0  0  0  0
  8  4  2  0  0  0  0
  9 17  1  0  0  0  0
 10  1  1  0  0  0  0
 11 23  1  0  0  0  0
 12 16  2  0  0  0  0
 13  9  1  0  0  0  0
 14 33  1  6  0  0  0
 15  3  1  0  0  0  0
 15 14  1  0  0  0  0
 16  2  1  0  0  0  0
 16 11  1  0  0  0  0
 17 22  1  6  0  0  0
 18  4  1  0  0  0  0
 18  1  1  0  0  0  0
 19  7  1  0  0  0  0
 19 25  1  1  0  0  0
 20  1  1  0  0  0  0
 21 14  1  0  0  0  0
 22 21  1  0  0  0  0
 23 19  1  0  0  0  0
 24 30  1  0  0  0  0
 25 26  1  0  0  0  0
 25 24  2  0  0  0  0
 26 29  2  0  0  0  0
 29 27  1  0  0  0  0
 29 28  1  0  0  0  0
 30 28  2  0  0  0  0
 31 32  2  0  0  0  0
 32 34  1  0  0  0  0
 32 37  1  0  0  0  0
 33 34  1  0  0  0  0
 35 33  2  0  0  0  0
 37 36  1  0  0  0  0
M  END
>  <MODEL>
5

>  <REMARK>
 VINA RESULT:      -7.9      1.817      2.642
  Name = 
  3 active torsions:
  status: ('A' for Active; 'I' for Inactive)
    1  A    between atoms: C_4  and  C_37
    2  A    between atoms: C_8  and  C_18
    3  A    between atoms: C_23  and  C_30
                            x       y       z     vdW  Elec       q    Type
                         _______ _______ _______ _____ _____    ______ ____

>  <TORSDO>
F 3

$$$$
=
 OpenBabel11112417243D

 37 42  0  0  1  0  0  0  0  0999 V2000
  196.8800  175.3570  140.8220 C   0  0  0  0  0  0  0  0  0  0  0  0
  193.6730  175.7240  143.4860 C   0  0  0  0  0  0  0  0  0  0  0  0
  190.2210  175.2860  141.9840 O   0  0  0  0  0  0  0  0  0  0  0  0
  195.9630  176.3010  143.0120 C   0  0  0  0  0  0  0  0  0  0  0  0
  192.5340  175.0450  142.8020 C   0  0  1  0  0  3  0  0  0  0  0  0
  194.7620  175.6930  142.6800 C   0  0  0  0  0  0  0  0  0  0  0  0
  191.2160  175.8480  142.8260 C   0  0  2  0  0  3  0  0  0  0  0  0
  196.0500  176.9460  144.2580 C   0  0  0  0  0  3  0  0  0  0  0  0
  194.5060  175.0850  141.4410 N   0  0  0  0  0  0  0  0  0  0  0  0
  197.3330  173.9820  141.2800 C   0  0  0  0  0  1  0  0  0  0  0  0
  192.5030  176.4120  145.5890 C   0  0  0  0  0  2  0  0  0  0  0  0
  194.9320  176.9580  145.1250 C   0  0  0  0  0  3  0  0  0  0  0  0
  195.4210  175.2790  140.3200 C   0  0  0  0  0  2  0  0  0  0  0  0
  190.2270  173.0370  141.0910 C   0  0  1  0  0  3  0  0  0  0  0  0
  190.0490  173.9290  142.3200 C   0  0  0  0  0  2  0  0  0  0  0  0
  193.7260  176.3420  144.7360 C   0  0  0  0  0  0  0  0  0  0  0  0
  193.0650  174.8490  141.3570 C   0  0  1  0  0  3  0  0  0  0  0  0
  197.0560  176.3720  141.9780 C   0  0  0  0  0  2  0  0  0  0  0  0
  190.7110  176.1080  144.2680 C   0  0  1  0  0  3  0  0  0  0  0  0
  197.7610  175.7870  139.6690 C   0  0  0  0  0  1  0  0  0  0  0  0
  191.4040  173.4100  140.1760 C   0  0  0  0  0  2  0  0  0  0  0  0
  192.7650  173.4410  140.8700 C   0  0  0  0  0  2  0  0  0  0  0  0
  191.4950  177.0920  144.8940 O   0  0  0  0  0  0  0  0  0  0  0  0
  188.4440  176.0610  145.3240 C   0  0  0  0  0  3  0  0  0  0  0  0
  189.2740  176.5310  144.3010 C   0  0  0  0  0  0  0  0  0  0  0  0
  188.7500  177.3820  143.3170 C   0  0  0  0  0  3  0  0  0  0  0  0
  186.8760  178.6230  142.3600 N   0  0  0  0  0  1  0  0  0  0  0  0
  186.5790  177.2880  144.3850 C   0  0  0  0  0  3  0  0  0  0  0  0
  187.4040  177.7590  143.3590 C   0  0  0  0  0  0  0  0  0  0  0  0
  187.0990  176.4400  145.3670 C   0  0  0  0  0  3  0  0  0  0  0  0
  190.4630  168.7160  141.8470 O   0  0  0  0  0  0  0  0  0  0  0  0
  190.8660  169.2290  140.7690 C   0  0  0  0  0  0  0  0  0  0  0  0
  190.2580  171.5930  141.4750 C   0  0  0  0  0  0  0  0  0  0  0  0
  190.7740  170.6390  140.5410 N   0  0  0  0  0  2  0  0  0  0  0  0
  189.8480  171.2300  142.6110 O   0  0  0  0  0  0  0  0  0  0  0  0
  190.4770  168.2850  138.5940 N   0  0  0  0  0  1  0  0  0  0  0  0
  191.4130  168.3500  139.7010 C   0  0  0  0  0  2  0  0  0  0  0  0
  1 10  1  0  0  0  0
  1 18  1  0  0  0  0
  2 16  1  0  0  0  0
  3 15  1  0  0  0  0
  4  8  2  0  0  0  0
  5  7  1  0  0  0  0
  5  2  1  1  0  0  0
  6  4  1  0  0  0  0
  6  2  2  0  0  0  0
  7  3  1  6  0  0  0
  7 19  1  0  0  0  0
  8 12  1  0  0  0  0
  9  6  1  0  0  0  0
 13  1  1  0  0  0  0
 13  9  1  0  0  0  0
 14 33  1  1  0  0  0
 14 15  1  0  0  0  0
 16 12  2  0  0  0  0
 16 11  1  0  0  0  0
 17 22  1  1  0  0  0
 17  9  1  0  0  0  0
 17  5  1  0  0  0  0
 18  4  1  0  0  0  0
 19 25  1  6  0  0  0
 19 23  1  0  0  0  0
 20  1  1  0  0  0  0
 21 22  1  0  0  0  0
 21 14  1  0  0  0  0
 23 11  1  0  0  0  0
 24 30  1  0  0  0  0
 25 24  2  0  0  0  0
 26 29  2  0  0  0  0
 26 25  1  0  0  0  0
 27 29  1  0  0  0  0
 28 30  2  0  0  0  0
 29 28  1  0  0  0  0
 32 31  2  0  0  0  0
 33 35  2  0  0  0  0
 34 32  1  0  0  0  0
 34 33  1  0  0  0  0
 36 37  1  0  0  0  0
 37 32  1  0  0  0  0
M  END
>  <MODEL>
6

>  <REMARK>
 VINA RESULT:      -7.7      3.556      6.813
  Name = 
  3 active torsions:
  status: ('A' for Active; 'I' for Inactive)
    1  A    between atoms: C_4  and  C_37
    2  A    between atoms: C_8  and  C_18
    3  A    between atoms: C_23  and  C_30
                            x       y       z     vdW  Elec       q    Type
                         _______ _______ _______ _____ _____    ______ ____

>  <TORSDO>
F 3

$$$$
=
 OpenBabel11112417243D

 37 42  0  0  1  0  0  0  0  0999 V2000
  188.7820  176.7570  146.1310 C   0  0  0  0  0  0  0  0  0  0  0  0
  192.3040  174.6960  145.2010 C   0  0  0  0  0  0  0  0  0  0  0  0
  191.8550  171.1670  143.8930 O   0  0  0  0  0  0  0  0  0  0  0  0
  191.2920  176.4530  146.5000 C   0  0  0  0  0  0  0  0  0  0  0  0
  191.8700  173.6010  144.2850 C   0  0  1  0  0  3  0  0  0  0  0  0
  191.2190  175.4070  145.5950 C   0  0  0  0  0  0  0  0  0  0  0  0
  192.4550  172.2160  144.6370 C   0  0  2  0  0  3  0  0  0  0  0  0
  192.5590  176.8020  147.0000 C   0  0  0  0  0  3  0  0  0  0  0  0
  190.0180  174.8970  145.0770 N   0  0  0  0  0  0  0  0  0  0  0  0
  188.7890  177.6730  144.9190 C   0  0  0  0  0  1  0  0  0  0  0  0
  194.7560  174.1980  145.2610 C   0  0  0  0  0  2  0  0  0  0  0  0
  193.7050  176.0920  146.5740 C   0  0  0  0  0  3  0  0  0  0  0  0
  188.7380  175.2840  145.6650 C   0  0  0  0  0  2  0  0  0  0  0  0
  190.5590  171.4290  141.8670 C   0  0  1  0  0  3  0  0  0  0  0  0
  191.9400  171.4710  142.5210 C   0  0  0  0  0  2  0  0  0  0  0  0
  193.5800  175.0230  145.6640 C   0  0  0  0  0  0  0  0  0  0  0  0
  190.3250  173.6270  144.4220 C   0  0  1  0  0  3  0  0  0  0  0  0
  190.0150  177.0620  147.0170 C   0  0  0  0  0  2  0  0  0  0  0  0
  194.0030  172.1960  144.5690 C   0  0  1  0  0  3  0  0  0  0  0  0
  187.5330  177.0430  146.9340 C   0  0  0  0  0  1  0  0  0  0  0  0
  189.4290  172.0800  142.6820 C   0  0  0  0  0  2  0  0  0  0  0  0
  189.6720  173.5410  143.0520 C   0  0  0  0  0  2  0  0  0  0  0  0
  194.5530  172.8740  145.6720 O   0  0  0  0  0  0  0  0  0  0  0  0
  194.5010  170.0080  145.6740 C   0  0  0  0  0  3  0  0  0  0  0  0
  194.5540  170.8030  144.5250 C   0  0  0  0  0  0  0  0  0  0  0  0
  195.1280  170.2920  143.3510 C   0  0  0  0  0  3  0  0  0  0  0  0
  196.2240  168.4770  142.1400 N   0  0  0  0  0  1  0  0  0  0  0  0
  195.5870  168.2010  144.4830 C   0  0  0  0  0  3  0  0  0  0  0  0
  195.6440  168.9930  143.3310 C   0  0  0  0  0  0  0  0  0  0  0  0
  195.0160  168.7080  145.6530 C   0  0  0  0  0  3  0  0  0  0  0  0
  191.0840  173.0990  137.8380 O   0  0  0  0  0  0  0  0  0  0  0  0
  192.0170  173.0920  138.6850 C   0  0  0  0  0  0  0  0  0  0  0  0
  190.6090  171.9550  140.4700 C   0  0  0  0  0  0  0  0  0  0  0  0
  191.8220  172.5480  139.9950 N   0  0  0  0  0  2  0  0  0  0  0  0
  189.5980  171.8620  139.7210 O   0  0  0  0  0  0  0  0  0  0  0  0
  193.1240  174.8780  137.5200 N   0  0  0  0  0  1  0  0  0  0  0  0
  193.3310  173.6910  138.3300 C   0  0  0  0  0  2  0  0  0  0  0  0
  1 20  1  0  0  0  0
  1 18  1  0  0  0  0
  2  6  2  0  0  0  0
  2 16  1  0  0  0  0
  4  8  2  0  0  0  0
  4 18  1  0  0  0  0
  5 17  1  0  0  0  0
  5  7  1  0  0  0  0
  5  2  1  1  0  0  0
  6  4  1  0  0  0  0
  7  3  1  6  0  0  0
  9  6  1  0  0  0  0
  9 13  1  0  0  0  0
 10  1  1  0  0  0  0
 11 16  1  0  0  0  0
 11 23  1  0  0  0  0
 12  8  1  0  0  0  0
 13  1  1  0  0  0  0
 14 33  1  6  0  0  0
 14 15  1  0  0  0  0
 14 21  1  0  0  0  0
 15  3  1  0  0  0  0
 16 12  2  0  0  0  0
 17 22  1  6  0  0  0
 17  9  1  0  0  0  0
 19 25  1  1  0  0  0
 19  7  1  0  0  0  0
 19 23  1  0  0  0  0
 21 22  1  0  0  0  0
 25 24  2  0  0  0  0
 26 25  1  0  0  0  0
 27 29  1  0  0  0  0
 28 30  2  0  0  0  0
 29 26  2  0  0  0  0
 29 28  1  0  0  0  0
 30 24  1  0  0  0  0
 31 32  2  0  0  0  0
 32 34  1  0  0  0  0
 34 33  1  0  0  0  0
 35 33  2  0  0  0  0
 36 37  1  0  0  0  0
 37 32  1  0  0  0  0
M  END
>  <MODEL>
7

>  <REMARK>
 VINA RESULT:      -7.7      3.844      8.922
  Name = 
  3 active torsions:
  status: ('A' for Active; 'I' for Inactive)
    1  A    between atoms: C_4  and  C_37
    2  A    between atoms: C_8  and  C_18
    3  A    between atoms: C_23  and  C_30
                            x       y       z     vdW  Elec       q    Type
                         _______ _______ _______ _____ _____    ______ ____

>  <TORSDO>
F 3

$$$$
=
 OpenBabel11112417243D

 37 42  0  0  1  0  0  0  0  0999 V2000
  189.3770  176.2730  146.1500 C   0  0  0  0  0  0  0  0  0  0  0  0
  191.2770  174.3700  142.9430 C   0  0  0  0  0  0  0  0  0  0  0  0
  195.0490  174.7190  142.8180 O   0  0  0  0  0  0  0  0  0  0  0  0
  189.2390  175.3530  143.7710 C   0  0  0  0  0  0  0  0  0  0  0  0
  192.6970  174.2300  143.3760 C   0  0  1  0  0  3  0  0  0  0  0  0
  190.5770  175.0170  143.9080 C   0  0  0  0  0  0  0  0  0  0  0  0
  193.7260  174.6520  142.3060 C   0  0  2  0  0  3  0  0  0  0  0  0
  188.5840  174.9730  142.5870 C   0  0  0  0  0  3  0  0  0  0  0  0
  191.3760  175.4010  144.9960 N   0  0  0  0  0  0  0  0  0  0  0  0
  189.0810  175.0170  146.9520 C   0  0  0  0  0  1  0  0  0  0  0  0
  191.4530  173.2990  140.6890 C   0  0  0  0  0  2  0  0  0  0  0  0
  189.2920  174.2680  141.5850 C   0  0  0  0  0  3  0  0  0  0  0  0
  190.9010  176.4070  145.9420 C   0  0  0  0  0  2  0  0  0  0  0  0
  195.8210  173.7120  144.8780 C   0  0  1  0  0  3  0  0  0  0  0  0
  195.3630  173.4930  143.4350 C   0  0  0  0  0  2  0  0  0  0  0  0
  190.6560  173.9630  141.7610 C   0  0  0  0  0  0  0  0  0  0  0  0
  192.7680  175.1360  144.6340 C   0  0  1  0  0  3  0  0  0  0  0  0
  188.5960  176.2290  144.8130 C   0  0  0  0  0  2  0  0  0  0  0  0
  193.6200  173.7970  141.0170 C   0  0  1  0  0  3  0  0  0  0  0  0
  188.8950  177.4670  146.9470 C   0  0  0  0  0  1  0  0  0  0  0  0
  194.9970  174.7340  145.6790 C   0  0  0  0  0  2  0  0  0  0  0  0
  193.5040  174.4240  145.7580 C   0  0  0  0  0  2  0  0  0  0  0  0
  192.4810  174.1590  140.2780 O   0  0  0  0  0  0  0  0  0  0  0  0
  195.1090  175.1530  139.5330 C   0  0  0  0  0  3  0  0  0  0  0  0
  194.8320  173.9260  140.1460 C   0  0  0  0  0  0  0  0  0  0  0  0
  195.6860  172.8340  139.9310 C   0  0  0  0  0  3  0  0  0  0  0  0
  197.6710  171.8630  138.8920 N   0  0  0  0  0  1  0  0  0  0  0  0
  197.0800  174.2000  138.4980 C   0  0  0  0  0  3  0  0  0  0  0  0
  196.8070  172.9720  139.1080 C   0  0  0  0  0  0  0  0  0  0  0  0
  196.2310  175.2910  138.7110 C   0  0  0  0  0  3  0  0  0  0  0  0
  195.8940  169.7580  146.7910 O   0  0  0  0  0  0  0  0  0  0  0  0
  195.1060  170.0290  145.8460 C   0  0  0  0  0  0  0  0  0  0  0  0
  195.9520  172.4130  145.6040 C   0  0  0  0  0  0  0  0  0  0  0  0
  195.0940  171.3270  145.2410 N   0  0  0  0  0  2  0  0  0  0  0  0
  196.8170  172.2800  146.5130 O   0  0  0  0  0  0  0  0  0  0  0  0
  193.1700  169.6000  144.4890 N   0  0  0  0  0  1  0  0  0  0  0  0
  194.1470  168.9950  145.3760 C   0  0  0  0  0  2  0  0  0  0  0  0
  1 20  1  0  0  0  0
  1 10  1  0  0  0  0
  2  6  1  0  0  0  0
  3 15  1  0  0  0  0
  4  6  2  0  0  0  0
  4 18  1  0  0  0  0
  5  2  1  6  0  0  0
  5 17  1  0  0  0  0
  6  9  1  0  0  0  0
  7  3  1  1  0  0  0
  7  5  1  0  0  0  0
  8  4  1  0  0  0  0
  9 13  1  0  0  0  0
 11 16  1  0  0  0  0
 12 16  1  0  0  0  0
 12  8  2  0  0  0  0
 13  1  1  0  0  0  0
 14 33  1  1  0  0  0
 14 21  1  0  0  0  0
 15 14  1  0  0  0  0
 16  2  2  0  0  0  0
 17  9  1  0  0  0  0
 17 22  1  1  0  0  0
 18  1  1  0  0  0  0
 19 25  1  6  0  0  0
 19  7  1  0  0  0  0
 21 22  1  0  0  0  0
 23 11  1  0  0  0  0
 23 19  1  0  0  0  0
 24 25  1  0  0  0  0
 26 25  2  0  0  0  0
 27 29  1  0  0  0  0
 28 30  1  0  0  0  0
 28 29  2  0  0  0  0
 29 26  1  0  0  0  0
 30 24  2  0  0  0  0
 32 31  2  0  0  0  0
 33 35  2  0  0  0  0
 34 33  1  0  0  0  0
 34 32  1  0  0  0  0
 36 37  1  0  0  0  0
 37 32  1  0  0  0  0
M  END
>  <MODEL>
8

>  <REMARK>
 VINA RESULT:      -7.6      3.878      8.212
  Name = 
  3 active torsions:
  status: ('A' for Active; 'I' for Inactive)
    1  A    between atoms: C_4  and  C_37
    2  A    between atoms: C_8  and  C_18
    3  A    between atoms: C_23  and  C_30
                            x       y       z     vdW  Elec       q    Type
                         _______ _______ _______ _____ _____    ______ ____

>  <TORSDO>
F 3

$$$$
=
 OpenBabel11112417243D

 37 42  0  0  1  0  0  0  0  0999 V2000
  186.4330  177.4910  143.3640 C   0  0  0  0  0  0  0  0  0  0  0  0
  190.2010  175.6790  143.5450 C   0  0  0  0  0  0  0  0  0  0  0  0
  190.4840  172.2890  141.8740 O   0  0  0  0  0  0  0  0  0  0  0  0
  188.6810  177.2510  144.5540 C   0  0  0  0  0  0  0  0  0  0  0  0
  190.1870  174.6680  142.4470 C   0  0  1  0  0  3  0  0  0  0  0  0
  188.9980  176.3020  143.5950 C   0  0  0  0  0  0  0  0  0  0  0  0
  190.7160  173.2790  142.8640 C   0  0  2  0  0  3  0  0  0  0  0  0
  189.6720  177.5970  145.4890 C   0  0  0  0  0  3  0  0  0  0  0  0
  188.0860  175.8010  142.6530 N   0  0  0  0  0  0  0  0  0  0  0  0
  186.7860  178.5270  142.3100 C   0  0  0  0  0  1  0  0  0  0  0  0
  192.5150  175.2750  144.4100 C   0  0  0  0  0  2  0  0  0  0  0  0
  190.9430  176.9800  145.4290 C   0  0  0  0  0  3  0  0  0  0  0  0
  186.6580  176.0740  142.7900 C   0  0  0  0  0  2  0  0  0  0  0  0
  189.9420  172.7070  139.5530 C   0  0  1  0  0  3  0  0  0  0  0  0
  191.0100  172.7360  140.6470 C   0  0  0  0  0  2  0  0  0  0  0  0
  191.2140  176.0070  144.4470 C   0  0  0  0  0  0  0  0  0  0  0  0
  188.6900  174.6180  142.0410 C   0  0  1  0  0  3  0  0  0  0  0  0
  187.2640  177.7520  144.6440 C   0  0  0  0  0  2  0  0  0  0  0  0
  192.1910  173.3280  143.3360 C   0  0  1  0  0  3  0  0  0  0  0  0
  184.9670  177.6430  143.7050 C   0  0  0  0  0  1  0  0  0  0  0  0
  188.5570  173.2240  139.9760 C   0  0  0  0  0  2  0  0  0  0  0  0
  188.5520  174.6490  140.5280 C   0  0  0  0  0  2  0  0  0  0  0  0
  192.2810  173.9090  144.6130 O   0  0  0  0  0  0  0  0  0  0  0  0
  192.3090  170.9940  144.2290 C   0  0  0  0  0  3  0  0  0  0  0  0
  192.8240  171.9700  143.3700 C   0  0  0  0  0  0  0  0  0  0  0  0
  193.9280  171.6690  142.5580 C   0  0  0  0  0  3  0  0  0  0  0  0
  195.6290  170.0960  141.7850 N   0  0  0  0  0  1  0  0  0  0  0  0
  193.9920  169.4260  143.4700 C   0  0  0  0  0  3  0  0  0  0  0  0
  194.5100  170.3990  142.6090 C   0  0  0  0  0  0  0  0  0  0  0  0
  192.8910  169.7240  144.2790 C   0  0  0  0  0  3  0  0  0  0  0  0
  191.0870  174.4640  135.6930 O   0  0  0  0  0  0  0  0  0  0  0  0
  190.1140  173.6710  135.8040 C   0  0  0  0  0  0  0  0  0  0  0  0
  190.4270  173.3760  138.3090 C   0  0  0  0  0  0  0  0  0  0  0  0
  189.7620  173.1050  137.0710 N   0  0  0  0  0  2  0  0  0  0  0  0
  191.4000  174.1780  138.3580 O   0  0  0  0  0  0  0  0  0  0  0  0
  189.2390  171.8420  134.5140 N   0  0  0  0  0  1  0  0  0  0  0  0
  189.3420  173.2880  134.5920 C   0  0  0  0  0  2  0  0  0  0  0  0
  1 20  1  0  0  0  0
  1 18  1  0  0  0  0
  2  6  2  0  0  0  0
  2 16  1  0  0  0  0
  4 18  1  0  0  0  0
  4  8  2  0  0  0  0
  5  7  1  0  0  0  0
  5  2  1  1  0  0  0
  6  4  1  0  0  0  0
  7  3  1  6  0  0  0
  7 19  1  0  0  0  0
  9 13  1  0  0  0  0
  9  6  1  0  0  0  0
 10  1  1  0  0  0  0
 11 16  1  0  0  0  0
 11 23  1  0  0  0  0
 12  8  1  0  0  0  0
 13  1  1  0  0  0  0
 14 33  1  6  0  0  0
 14 21  1  0  0  0  0
 14 15  1  0  0  0  0
 15  3  1  0  0  0  0
 16 12  2  0  0  0  0
 17 22  1  6  0  0  0
 17  5  1  0  0  0  0
 17  9  1  0  0  0  0
 19 25  1  1  0  0  0
 19 23  1  0  0  0  0
 21 22  1  0  0  0  0
 24 30  1  0  0  0  0
 25 24  2  0  0  0  0
 26 29  2  0  0  0  0
 26 25  1  0  0  0  0
 27 29  1  0  0  0  0
 28 30  2  0  0  0  0
 29 28  1  0  0  0  0
 31 32  2  0  0  0  0
 32 34  1  0  0  0  0
 33 35  2  0  0  0  0
 34 33  1  0  0  0  0
 36 37  1  0  0  0  0
 37 32  1  0  0  0  0
M  END
>  <MODEL>
9

>  <REMARK>
 VINA RESULT:      -7.6      3.586      8.296
  Name = 
  3 active torsions:
  status: ('A' for Active; 'I' for Inactive)
    1  A    between atoms: C_4  and  C_37
    2  A    between atoms: C_8  and  C_18
    3  A    between atoms: C_23  and  C_30
                            x       y       z     vdW  Elec       q    Type
                         _______ _______ _______ _____ _____    ______ ____

>  <TORSDO>
F 3

$$$$
