=
 OpenBabel11112416423D

 32 37  0  0  1  0  0  0  0  0999 V2000
  186.8680  178.6660  142.6390 C   0  0  0  0  0  2  0  0  0  0  0  0
  190.9360  175.2100  143.0180 N   0  0  0  0  0  0  0  0  0  0  0  0
  194.4620  176.6010  146.1470 C   0  0  0  0  0  3  0  0  0  0  0  0
  194.9630  175.2980  146.1380 C   0  0  0  0  0  3  0  0  0  0  0  0
  190.6450  172.7070  142.4080 C   0  0  1  0  0  3  0  0  0  0  0  0
  191.1990  171.3470  142.8320 C   0  0  1  0  0  3  0  0  0  0  0  0
  188.6690  176.0970  142.9520 C   0  0  1  0  0  3  0  0  0  0  0  0
  190.2990  176.7820  144.7780 C   0  0  0  0  0  2  0  0  0  0  0  0
  193.0220  169.9780  143.0090 C   0  0  2  0  0  3  0  0  0  0  0  0
  188.0070  177.8030  144.7830 C   0  0  0  0  0  2  0  0  0  0  0  0
  193.3140  176.9120  145.4150 C   0  0  0  0  0  3  0  0  0  0  0  0
  191.4340  176.2920  143.8790 C   0  0  0  0  0  0  0  0  0  0  0  0
  192.6550  175.9220  144.6720 C   0  0  0  0  0  0  0  0  0  0  0  0
  192.5010  173.5640  143.8590 C   0  0  0  0  0  0  0  0  0  0  0  0
  191.9330  169.1620  142.3100 C   0  0  0  0  0  2  0  0  0  0  0  0
  187.6320  177.7350  141.6870 C   0  0  0  0  0  2  0  0  0  0  0  0
  189.1270  177.2330  143.9090 C   0  0  2  0  0  3  0  0  0  0  0  0
  190.8050  170.1450  142.0120 C   0  0  0  0  0  2  0  0  0  0  0  0
  187.5570  176.3970  142.1230 O   0  0  0  0  0  0  0  0  0  0  0  0
  186.6890  178.0670  144.0440 C   0  0  1  0  0  3  0  0  0  0  0  0
  194.3180  174.3080  145.3920 C   0  0  0  0  0  3  0  0  0  0  0  0
  193.1650  174.6120  144.6540 C   0  0  1  0  0  3  0  0  0  0  0  0
  193.0630  172.2410  143.8170 N   0  0  0  0  0  2  0  0  0  0  0  0
  189.8430  175.5720  142.1210 C   0  0  0  0  0  2  0  0  0  0  0  0
  189.1630  172.7230  142.7530 C   0  0  0  0  0  1  0  0  0  0  0  0
  193.0660  169.5820  144.4850 C   0  0  0  0  0  1  0  0  0  0  0  0
  191.3830  173.8380  143.1420 C   0  0  0  0  0  0  0  0  0  0  0  0
  192.6410  171.3750  142.7950 N   0  0  2  0  0  0  0  0  0  0  0  0
  185.8050  178.9630  144.8970 C   0  0  0  0  0  2  0  0  0  0  0  0
  185.6650  178.4130  146.3080 C   0  0  2  0  0  3  0  0  0  0  0  0
  184.2510  177.9150  146.5130 C   0  0  0  0  0  1  0  0  0  0  0  0
  185.9410  179.4160  147.2370 O   0  0  0  0  0  1  0  0  0  0  0  0
  1 20  1  0  0  0  0
  2 27  1  0  0  0  0
  2 12  1  0  0  0  0
  4  3  1  0  0  0  0
  5 25  1  1  0  0  0
  5  6  1  0  0  0  0
  5 27  1  0  0  0  0
  6 18  1  6  0  0  0
  7 24  1  6  0  0  0
  7 17  1  0  0  0  0
  9 26  1  1  0  0  0
 11  3  2  0  0  0  0
 12 13  2  0  0  0  0
 12  8  1  0  0  0  0
 13 11  1  0  0  0  0
 14 22  1  0  0  0  0
 15  9  1  0  0  0  0
 16 19  1  0  0  0  0
 16  1  1  0  0  0  0
 17  8  1  1  0  0  0
 17 10  1  0  0  0  0
 18 15  1  0  0  0  0
 19  7  1  0  0  0  0
 20 10  1  0  0  0  0
 20 29  1  1  0  0  0
 21  4  2  0  0  0  0
 22 13  1  0  0  0  0
 22 21  1  6  0  0  0
 23 14  1  0  0  0  0
 24  2  1  0  0  0  0
 27 14  2  0  0  0  0
 28  6  1  0  0  0  0
 28  9  1  0  0  0  0
 28 23  1  1  0  0  0
 29 30  1  0  0  0  0
 30 31  1  1  0  0  0
 30 32  1  0  0  0  0
M  END
>  <MODEL>
1

>  <REMARK>
 VINA RESULT:      -8.6      0.000      0.000
  Name = 
  2 active torsions:
  status: ('A' for Active; 'I' for Inactive)
    1  A    between atoms: C_20  and  C_29
    2  A    between atoms: C_29  and  C_30
                            x       y       z     vdW  Elec       q    Type
                         _______ _______ _______ _____ _____    ______ ____

>  <TORSDO>
F 2

$$$$
=
 OpenBabel11112416423D

 32 37  0  0  1  0  0  0  0  0999 V2000
  186.4030  177.2540  146.2060 C   0  0  0  0  0  2  0  0  0  0  0  0
  190.5700  174.2620  144.6840 N   0  0  0  0  0  0  0  0  0  0  0  0
  189.9150  171.9480  140.3980 C   0  0  0  0  0  3  0  0  0  0  0  0
  191.2890  171.7080  140.3360 C   0  0  0  0  0  3  0  0  0  0  0  0
  192.9630  174.7310  145.5630 C   0  0  1  0  0  3  0  0  0  0  0  0
  194.4090  174.6110  145.0830 C   0  0  1  0  0  3  0  0  0  0  0  0
  189.2700  176.1600  145.4840 C   0  0  1  0  0  3  0  0  0  0  0  0
  188.9320  175.2220  143.1450 C   0  0  0  0  0  2  0  0  0  0  0  0
  196.1000  173.2430  144.3800 C   0  0  2  0  0  3  0  0  0  0  0  0
  187.4960  177.1460  143.8760 C   0  0  0  0  0  2  0  0  0  0  0  0
  189.3830  172.6760  141.4640 C   0  0  0  0  0  2  0  0  0  0  0  0
  189.6130  173.9380  143.6160 C   0  0  0  0  0  0  0  0  0  0  0  0
  190.2190  173.1760  142.4720 C   0  0  0  0  0  0  0  0  0  0  0  0
  192.4940  173.4190  143.4790 C   0  0  0  0  0  0  0  0  0  0  0  0
  196.6860  174.1210  145.4860 C   0  0  0  0  0  2  0  0  0  0  0  0
  187.4470  176.3650  146.8950 C   0  0  0  0  0  2  0  0  0  0  0  0
  188.2540  175.8980  144.3360 C   0  0  2  0  0  3  0  0  0  0  0  0
  195.5040  174.8770  146.0860 C   0  0  0  0  0  2  0  0  0  0  0  0
  188.7530  176.8220  146.6280 O   0  0  0  0  0  0  0  0  0  0  0  0
  186.9770  178.0350  145.0120 C   0  0  1  0  0  3  0  0  0  0  0  0
  192.1280  172.1930  141.3420 C   0  0  0  0  0  3  0  0  0  0  0  0
  191.6010  172.9260  142.4150 C   0  0  0  0  0  0  0  0  0  0  0  0
  193.8980  173.1160  143.4260 N   0  0  0  0  0  2  0  0  0  0  0  0
  189.9940  174.8710  145.8800 C   0  0  0  0  0  2  0  0  0  0  0  0
  192.6720  176.2100  145.7710 C   0  0  0  0  0  1  0  0  0  0  0  0
  196.5200  173.8110  143.0240 C   0  0  0  0  0  1  0  0  0  0  0  0
  192.0030  174.1330  144.5230 C   0  0  0  0  0  0  0  0  0  0  0  0
  194.6530  173.2750  144.5990 N   0  0  2  0  0  0  0  0  0  0  0  0
  185.9430  179.0040  144.4620 C   0  0  0  0  0  2  0  0  0  0  0  0
  184.5700  178.3570  144.3870 C   0  0  2  0  0  3  0  0  0  0  0  0
  184.0830  178.3780  142.9540 C   0  0  0  0  0  1  0  0  0  0  0  0
  183.6700  179.0570  145.1900 O   0  0  0  0  0  1  0  0  0  0  0  0
  1 16  1  0  0  0  0
  2 24  1  0  0  0  0
  3 11  1  0  0  0  0
  4  3  2  0  0  0  0
  4 21  1  0  0  0  0
  5 25  1  6  0  0  0
  6  5  1  0  0  0  0
  6 18  1  1  0  0  0
  7 24  1  1  0  0  0
  7 19  1  0  0  0  0
  8 12  1  0  0  0  0
  9 26  1  6  0  0  0
  9 28  1  0  0  0  0
  9 15  1  0  0  0  0
 10 17  1  0  0  0  0
 10 20  1  0  0  0  0
 11 13  1  0  0  0  0
 12  2  1  0  0  0  0
 13 12  2  0  0  0  0
 14 27  2  0  0  0  0
 15 18  1  0  0  0  0
 17  8  1  6  0  0  0
 17  7  1  0  0  0  0
 19 16  1  0  0  0  0
 20 29  1  6  0  0  0
 20  1  1  0  0  0  0
 21 22  2  0  0  0  0
 22 13  1  0  0  0  0
 22 14  1  0  0  0  0
 23 14  1  0  0  0  0
 27  2  1  0  0  0  0
 27  5  1  0  0  0  0
 28 23  1  6  0  0  0
 28  6  1  0  0  0  0
 30 31  1  6  0  0  0
 30 29  1  0  0  0  0
 30 32  1  0  0  0  0
M  END
>  <MODEL>
2

>  <REMARK>
 VINA RESULT:      -8.4      1.990      4.489
  Name = 
  2 active torsions:
  status: ('A' for Active; 'I' for Inactive)
    1  A    between atoms: C_20  and  C_29
    2  A    between atoms: C_29  and  C_30
                            x       y       z     vdW  Elec       q    Type
                         _______ _______ _______ _____ _____    ______ ____

>  <TORSDO>
F 2

$$$$
=
 OpenBabel11112416423D

 32 37  0  0  1  0  0  0  0  0999 V2000
  186.6700  176.9770  146.5240 C   0  0  0  0  0  2  0  0  0  0  0  0
  190.8090  174.7450  143.9700 N   0  0  0  0  0  0  0  0  0  0  0  0
  189.8280  173.4160  139.3420 C   0  0  0  0  0  3  0  0  0  0  0  0
  191.1980  173.3060  139.0990 C   0  0  0  0  0  3  0  0  0  0  0  0
  193.2540  175.1910  144.7110 C   0  0  1  0  0  3  0  0  0  0  0  0
  194.6440  175.2980  144.0850 C   0  0  1  0  0  3  0  0  0  0  0  0
  189.4990  176.3050  145.3060 C   0  0  1  0  0  3  0  0  0  0  0  0
  188.9640  175.8960  142.8540 C   0  0  0  0  0  2  0  0  0  0  0  0
  196.3230  174.2620  142.9310 C   0  0  2  0  0  3  0  0  0  0  0  0
  187.5110  177.4860  144.1420 C   0  0  0  0  0  2  0  0  0  0  0  0
  189.3730  173.8400  140.5930 C   0  0  0  0  0  2  0  0  0  0  0  0
  189.7630  174.5970  142.9490 C   0  0  0  0  0  0  0  0  0  0  0  0
  190.2840  174.1630  141.6080 C   0  0  0  0  0  0  0  0  0  0  0  0
  192.6370  174.3520  142.4300 C   0  0  0  0  0  0  0  0  0  0  0  0
  196.9750  174.9110  144.1530 C   0  0  0  0  0  2  0  0  0  0  0  0
  187.8300  176.0410  146.8880 C   0  0  0  0  0  2  0  0  0  0  0  0
  188.3820  176.2300  144.2260 C   0  0  2  0  0  3  0  0  0  0  0  0
  195.8230  175.4150  145.0170 C   0  0  0  0  0  2  0  0  0  0  0  0
  189.0720  176.6480  146.6150 O   0  0  0  0  0  0  0  0  0  0  0  0
  187.0680  178.0510  145.4970 C   0  0  1  0  0  3  0  0  0  0  0  0
  192.1120  173.6160  140.1090 C   0  0  0  0  0  3  0  0  0  0  0  0
  191.6640  174.0430  141.3680 C   0  0  0  0  0  0  0  0  0  0  0  0
  194.0420  174.1800  142.1800 N   0  0  0  0  0  2  0  0  0  0  0  0
  190.3330  175.0210  145.3230 C   0  0  0  0  0  2  0  0  0  0  0  0
  192.9050  176.5570  145.2830 C   0  0  0  0  0  1  0  0  0  0  0  0
  196.5620  175.1540  141.7120 C   0  0  0  0  0  1  0  0  0  0  0  0
  192.2220  174.7700  143.6530 C   0  0  0  0  0  0  0  0  0  0  0  0
  194.9090  174.1290  143.2830 N   0  0  2  0  0  0  0  0  0  0  0  0
  185.9280  179.0340  145.2840 C   0  0  0  0  0  2  0  0  0  0  0  0
  184.6130  178.3080  145.0550 C   0  0  2  0  0  3  0  0  0  0  0  0
  184.0660  178.6800  143.6930 C   0  0  0  0  0  1  0  0  0  0  0  0
  183.6920  178.6720  146.0370 O   0  0  0  0  0  1  0  0  0  0  0  0
  1 16  1  0  0  0  0
  2 24  1  0  0  0  0
  3 11  1  0  0  0  0
  4  3  2  0  0  0  0
  4 21  1  0  0  0  0
  5 25  1  6  0  0  0
  6  5  1  0  0  0  0
  6 18  1  1  0  0  0
  7 24  1  1  0  0  0
  7 19  1  0  0  0  0
  8 12  1  0  0  0  0
  9 26  1  6  0  0  0
  9 28  1  0  0  0  0
  9 15  1  0  0  0  0
 10 17  1  0  0  0  0
 10 20  1  0  0  0  0
 11 13  1  0  0  0  0
 12  2  1  0  0  0  0
 13 12  2  0  0  0  0
 14 27  2  0  0  0  0
 15 18  1  0  0  0  0
 17  8  1  6  0  0  0
 17  7  1  0  0  0  0
 19 16  1  0  0  0  0
 20 29  1  6  0  0  0
 20  1  1  0  0  0  0
 21 22  2  0  0  0  0
 22 13  1  0  0  0  0
 22 14  1  0  0  0  0
 23 14  1  0  0  0  0
 27  2  1  0  0  0  0
 27  5  1  0  0  0  0
 28 23  1  6  0  0  0
 28  6  1  0  0  0  0
 30 31  1  6  0  0  0
 30 29  1  0  0  0  0
 30 32  1  0  0  0  0
M  END
>  <MODEL>
3

>  <REMARK>
 VINA RESULT:      -8.2      2.426      4.659
  Name = 
  2 active torsions:
  status: ('A' for Active; 'I' for Inactive)
    1  A    between atoms: C_20  and  C_29
    2  A    between atoms: C_29  and  C_30
                            x       y       z     vdW  Elec       q    Type
                         _______ _______ _______ _____ _____    ______ ____

>  <TORSDO>
F 2

$$$$
=
 OpenBabel11112416423D

 32 37  0  0  1  0  0  0  0  0999 V2000
  192.1060  172.1970  139.8500 C   0  0  0  0  0  2  0  0  0  0  0  0
  189.0560  174.8970  143.3200 N   0  0  0  0  0  0  0  0  0  0  0  0
  191.4220  176.3110  147.3900 C   0  0  0  0  0  3  0  0  0  0  0  0
  190.3820  177.1980  147.6680 C   0  0  0  0  0  3  0  0  0  0  0  0
  186.9170  176.1450  142.5530 C   0  0  1  0  0  3  0  0  0  0  0  0
  186.1140  177.3900  142.9290 C   0  0  1  0  0  3  0  0  0  0  0  0
  190.1090  174.2050  141.2360 C   0  0  1  0  0  3  0  0  0  0  0  0
  191.4860  175.1080  143.1720 C   0  0  0  0  0  2  0  0  0  0  0  0
  184.8810  178.4830  144.5140 C   0  0  2  0  0  3  0  0  0  0  0  0
  192.6880  174.3760  141.0950 C   0  0  0  0  0  2  0  0  0  0  0  0
  191.3890  175.5420  146.2240 C   0  0  0  0  0  3  0  0  0  0  0  0
  190.3040  174.8020  144.0910 C   0  0  0  0  0  0  0  0  0  0  0  0
  190.3200  175.6580  145.3250 C   0  0  0  0  0  0  0  0  0  0  0  0
  188.1200  176.6610  144.6910 C   0  0  0  0  0  0  0  0  0  0  0  0
  184.0520  178.5060  143.2280 C   0  0  0  0  0  2  0  0  0  0  0  0
  190.6480  172.1450  140.3280 C   0  0  0  0  0  2  0  0  0  0  0  0
  191.4680  174.1430  141.9890 C   0  0  2  0  0  3  0  0  0  0  0  0
  184.7860  177.5990  142.2460 C   0  0  0  0  0  2  0  0  0  0  0  0
  189.9970  173.3730  140.0920 O   0  0  0  0  0  0  0  0  0  0  0  0
  192.6530  173.6310  139.7550 C   0  0  1  0  0  3  0  0  0  0  0  0
  189.3060  177.3120  146.7830 C   0  0  0  0  0  3  0  0  0  0  0  0
  189.2660  176.5440  145.6100 C   0  0  1  0  0  3  0  0  0  0  0  0
  187.0310  177.5400  145.0220 N   0  0  0  0  0  2  0  0  0  0  0  0
  188.9390  173.9730  142.1960 C   0  0  0  0  0  2  0  0  0  0  0  0
  187.4610  176.3600  141.1490 C   0  0  0  0  0  1  0  0  0  0  0  0
  185.5740  179.8360  144.6780 C   0  0  0  0  0  1  0  0  0  0  0  0
  188.0660  175.9290  143.5510 C   0  0  0  0  0  0  0  0  0  0  0  0
  185.8150  177.3700  144.3400 N   0  0  2  0  0  0  0  0  0  0  0  0
  194.0440  173.6320  139.1410 C   0  0  0  0  0  2  0  0  0  0  0  0
  194.4580  175.0330  138.7230 C   0  0  2  0  0  3  0  0  0  0  0  0
  193.7730  175.3900  137.4220 C   0  0  0  0  0  1  0  0  0  0  0  0
  195.8400  175.0870  138.5460 O   0  0  0  0  0  1  0  0  0  0  0  0
  1 16  1  0  0  0  0
  2 27  1  0  0  0  0
  2 12  1  0  0  0  0
  3  4  1  0  0  0  0
  5 25  1  6  0  0  0
  5  6  1  0  0  0  0
  5 27  1  0  0  0  0
  6 18  1  6  0  0  0
  6 28  1  0  0  0  0
  7 17  1  0  0  0  0
  7 24  1  1  0  0  0
  8 12  1  0  0  0  0
  9 26  1  6  0  0  0
 11  3  2  0  0  0  0
 12 13  2  0  0  0  0
 13 22  1  0  0  0  0
 13 11  1  0  0  0  0
 14 23  1  0  0  0  0
 14 22  1  0  0  0  0
 15  9  1  0  0  0  0
 17 10  1  6  0  0  0
 17  8  1  0  0  0  0
 18 15  1  0  0  0  0
 19 16  1  0  0  0  0
 19  7  1  0  0  0  0
 20 29  1  1  0  0  0
 20  1  1  0  0  0  0
 20 10  1  0  0  0  0
 21  4  2  0  0  0  0
 22 21  1  1  0  0  0
 24  2  1  0  0  0  0
 27 14  2  0  0  0  0
 28  9  1  0  0  0  0
 28 23  1  1  0  0  0
 30 31  1  6  0  0  0
 30 29  1  0  0  0  0
 32 30  1  0  0  0  0
M  END
>  <MODEL>
4

>  <REMARK>
 VINA RESULT:      -8.0      3.304      7.715
  Name = 
  2 active torsions:
  status: ('A' for Active; 'I' for Inactive)
    1  A    between atoms: C_20  and  C_29
    2  A    between atoms: C_29  and  C_30
                            x       y       z     vdW  Elec       q    Type
                         _______ _______ _______ _____ _____    ______ ____

>  <TORSDO>
F 2

$$$$
=
 OpenBabel11112416423D

 32 37  0  0  1  0  0  0  0  0999 V2000
  192.3450  173.2370  141.0280 C   0  0  0  0  0  2  0  0  0  0  0  0
  188.6940  176.7490  142.7500 N   0  0  0  0  0  0  0  0  0  0  0  0
  185.1540  177.7240  139.4840 C   0  0  0  0  0  3  0  0  0  0  0  0
  184.3880  178.2870  140.5050 C   0  0  0  0  0  3  0  0  0  0  0  0
  188.2790  177.1370  145.2800 C   0  0  1  0  0  3  0  0  0  0  0  0
  187.1270  177.5070  146.2140 C   0  0  1  0  0  3  0  0  0  0  0  0
  190.1890  174.8280  142.6900 C   0  0  1  0  0  3  0  0  0  0  0  0
  188.2740  175.0610  141.0340 C   0  0  0  0  0  2  0  0  0  0  0  0
  185.5600  179.0560  146.8210 C   0  0  2  0  0  3  0  0  0  0  0  0
  189.7810  173.0630  140.8390 C   0  0  0  0  0  2  0  0  0  0  0  0
  186.3980  177.1590  139.7750 C   0  0  0  0  0  2  0  0  0  0  0  0
  188.2320  176.5510  141.3690 C   0  0  0  0  0  0  0  0  0  0  0  0
  186.8820  177.1480  141.0910 C   0  0  0  0  0  0  0  0  0  0  0  0
  186.6190  177.7460  143.5030 C   0  0  0  0  0  0  0  0  0  0  0  0
  186.2860  178.6490  148.1040 C   0  0  0  0  0  2  0  0  0  0  0  0
  192.3390  174.5030  141.8950 C   0  0  0  0  0  2  0  0  0  0  0  0
  189.6940  174.5370  141.2450 C   0  0  2  0  0  3  0  0  0  0  0  0
  187.4580  177.7800  147.6590 C   0  0  0  0  0  2  0  0  0  0  0  0
  191.4860  174.3480  143.0070 O   0  0  0  0  0  0  0  0  0  0  0  0
  191.0910  172.3690  141.2290 C   0  0  1  0  0  3  0  0  0  0  0  0
  184.8680  178.2900  141.8170 C   0  0  0  0  0  3  0  0  0  0  0  0
  186.1150  177.7250  142.1190 C   0  0  0  0  0  0  0  0  0  0  0  0
  185.8400  178.3800  144.5330 N   0  0  0  0  0  2  0  0  0  0  0  0
  190.0610  176.3160  143.0250 C   0  0  0  0  0  2  0  0  0  0  0  0
  188.7230  175.7270  145.6400 C   0  0  0  0  0  1  0  0  0  0  0  0
  184.2280  178.3090  146.7490 C   0  0  0  0  0  1  0  0  0  0  0  0
  187.8210  177.2010  143.8150 C   0  0  0  0  0  0  0  0  0  0  0  0
  186.4810  178.7060  145.7390 N   0  0  2  0  0  0  0  0  0  0  0  0
  191.2170  171.0630  140.4600 C   0  0  0  0  0  2  0  0  0  0  0  0
  190.6410  171.1940  139.0590 C   0  0  2  0  0  3  0  0  0  0  0  0
  190.0880  169.8570  138.6180 C   0  0  0  0  0  1  0  0  0  0  0  0
  191.6370  171.5980  138.1710 O   0  0  0  0  0  1  0  0  0  0  0  0
  1 20  1  0  0  0  0
  1 16  1  0  0  0  0
  2 24  1  0  0  0  0
  2 27  1  0  0  0  0
  3 11  1  0  0  0  0
  3  4  2  0  0  0  0
  4 21  1  0  0  0  0
  5 25  1  1  0  0  0
  5  6  1  0  0  0  0
  6 18  1  1  0  0  0
  7 19  1  0  0  0  0
  7 24  1  6  0  0  0
  8 17  1  0  0  0  0
  8 12  1  0  0  0  0
  9 26  1  6  0  0  0
  9 15  1  0  0  0  0
 10 20  1  0  0  0  0
 11 13  1  0  0  0  0
 12  2  1  0  0  0  0
 13 12  2  0  0  0  0
 13 22  1  0  0  0  0
 14 27  2  0  0  0  0
 14 23  1  0  0  0  0
 16 19  1  0  0  0  0
 17 10  1  1  0  0  0
 17  7  1  0  0  0  0
 18 15  1  0  0  0  0
 20 29  1  6  0  0  0
 21 22  2  0  0  0  0
 22 14  1  0  0  0  0
 27  5  1  0  0  0  0
 28 23  1  6  0  0  0
 28  6  1  0  0  0  0
 28  9  1  0  0  0  0
 30 31  1  6  0  0  0
 30 29  1  0  0  0  0
 32 30  1  0  0  0  0
M  END
>  <MODEL>
5

>  <REMARK>
 VINA RESULT:      -7.8      3.402      8.675
  Name = 
  2 active torsions:
  status: ('A' for Active; 'I' for Inactive)
    1  A    between atoms: C_20  and  C_29
    2  A    between atoms: C_29  and  C_30
                            x       y       z     vdW  Elec       q    Type
                         _______ _______ _______ _____ _____    ______ ____

>  <TORSDO>
F 2

$$$$
=
 OpenBabel11112416423D

 32 37  0  0  1  0  0  0  0  0999 V2000
  196.1910  174.5320  145.3330 C   0  0  0  0  0  2  0  0  0  0  0  0
  191.1820  176.1350  144.3400 N   0  0  0  0  0  0  0  0  0  0  0  0
  189.0860  173.8970  140.5000 C   0  0  0  0  0  3  0  0  0  0  0  0
  187.8400  174.3510  140.9350 C   0  0  0  0  0  3  0  0  0  0  0  0
  189.7140  177.2050  146.1900 C   0  0  1  0  0  3  0  0  0  0  0  0
  188.2400  177.2840  146.5860 C   0  0  1  0  0  3  0  0  0  0  0  0
  193.1520  175.3490  145.5380 C   0  0  1  0  0  3  0  0  0  0  0  0
  192.0780  173.9510  143.7070 C   0  0  0  0  0  2  0  0  0  0  0  0
  186.1270  177.9540  146.0290 C   0  0  2  0  0  3  0  0  0  0  0  0
  194.1360  173.0600  144.8330 C   0  0  0  0  0  2  0  0  0  0  0  0
  190.2310  174.1810  141.2470 C   0  0  0  0  0  2  0  0  0  0  0  0
  191.3920  175.2220  143.2080 C   0  0  0  0  0  0  0  0  0  0  0  0
  190.1390  174.9160  142.4380 C   0  0  0  0  0  0  0  0  0  0  0  0
  188.7730  176.1800  144.1050 C   0  0  0  0  0  0  0  0  0  0  0  0
  186.3920  178.4870  147.4380 C   0  0  0  0  0  2  0  0  0  0  0  0
  195.4080  175.8510  145.4020 C   0  0  0  0  0  2  0  0  0  0  0  0
  193.3900  174.3230  144.3940 C   0  0  2  0  0  3  0  0  0  0  0  0
  187.8680  178.2160  147.7120 C   0  0  0  0  0  2  0  0  0  0  0  0
  194.3040  175.7360  146.2710 O   0  0  0  0  0  0  0  0  0  0  0  0
  195.3450  173.3130  145.7410 C   0  0  1  0  0  3  0  0  0  0  0  0
  187.7410  175.0940  142.1150 C   0  0  0  0  0  3  0  0  0  0  0  0
  188.8860  175.3830  142.8710 C   0  0  0  0  0  0  0  0  0  0  0  0
  187.4880  176.6860  144.5080 N   0  0  0  0  0  2  0  0  0  0  0  0
  192.3940  176.5760  145.0250 C   0  0  0  0  0  2  0  0  0  0  0  0
  190.4450  176.4610  147.2980 C   0  0  0  0  0  1  0  0  0  0  0  0
  185.2790  176.6860  146.1310 C   0  0  0  0  0  1  0  0  0  0  0  0
  189.8680  176.4660  144.8510 C   0  0  0  0  0  0  0  0  0  0  0  0
  187.4540  177.7190  145.4580 N   0  0  2  0  0  0  0  0  0  0  0  0
  196.2060  172.0610  145.7940 C   0  0  0  0  0  2  0  0  0  0  0  0
  195.4720  170.8660  145.2060 C   0  0  2  0  0  3  0  0  0  0  0  0
  195.2690  169.8240  146.2830 C   0  0  0  0  0  1  0  0  0  0  0  0
  196.2210  170.3150  144.1660 O   0  0  0  0  0  1  0  0  0  0  0  0
  1 16  1  0  0  0  0
  1 20  1  0  0  0  0
  2 27  1  0  0  0  0
  2 24  1  0  0  0  0
  3  4  2  0  0  0  0
  3 11  1  0  0  0  0
  4 21  1  0  0  0  0
  5  6  1  0  0  0  0
  5 25  1  1  0  0  0
  6 18  1  1  0  0  0
  7 24  1  6  0  0  0
  7 19  1  0  0  0  0
  9 26  1  1  0  0  0
  9 15  1  0  0  0  0
 10 20  1  0  0  0  0
 11 13  1  0  0  0  0
 12  8  1  0  0  0  0
 12  2  1  0  0  0  0
 13 22  1  0  0  0  0
 13 12  2  0  0  0  0
 14 23  1  0  0  0  0
 14 27  2  0  0  0  0
 15 18  1  0  0  0  0
 16 19  1  0  0  0  0
 17  8  1  1  0  0  0
 17 10  1  0  0  0  0
 17  7  1  0  0  0  0
 20 29  1  6  0  0  0
 21 22  2  0  0  0  0
 22 14  1  0  0  0  0
 27  5  1  0  0  0  0
 28 23  1  6  0  0  0
 28  9  1  0  0  0  0
 28  6  1  0  0  0  0
 30 29  1  0  0  0  0
 30 31  1  1  0  0  0
 32 30  1  0  0  0  0
M  END
>  <MODEL>
6

>  <REMARK>
 VINA RESULT:      -7.8      3.160      8.363
  Name = 
  2 active torsions:
  status: ('A' for Active; 'I' for Inactive)
    1  A    between atoms: C_20  and  C_29
    2  A    between atoms: C_29  and  C_30
                            x       y       z     vdW  Elec       q    Type
                         _______ _______ _______ _____ _____    ______ ____

>  <TORSDO>
F 2

$$$$
=
 OpenBabel11112416423D

 32 37  0  0  1  0  0  0  0  0999 V2000
  196.1830  172.5890  145.4380 C   0  0  0  0  0  2  0  0  0  0  0  0
  191.9040  174.7480  143.0580 N   0  0  0  0  0  0  0  0  0  0  0  0
  190.3810  172.3040  139.0750 C   0  0  0  0  0  3  0  0  0  0  0  0
  189.1700  172.9950  139.1330 C   0  0  0  0  0  3  0  0  0  0  0  0
  190.2640  176.2800  144.3560 C   0  0  1  0  0  3  0  0  0  0  0  0
  188.7770  176.6320  144.3600 C   0  0  1  0  0  3  0  0  0  0  0  0
  193.3740  173.8650  144.7870 C   0  0  1  0  0  3  0  0  0  0  0  0
  192.5170  172.3870  142.9050 C   0  0  0  0  0  2  0  0  0  0  0  0
  187.0020  177.5160  143.2220 C   0  0  2  0  0  3  0  0  0  0  0  0
  194.0700  171.3780  144.5990 C   0  0  0  0  0  2  0  0  0  0  0  0
  191.3560  172.5230  140.0510 C   0  0  0  0  0  2  0  0  0  0  0  0
  192.2020  173.6580  142.1180 C   0  0  0  0  0  0  0  0  0  0  0  0
  191.1260  173.4300  141.0950 C   0  0  0  0  0  0  0  0  0  0  0  0
  189.6600  175.1110  142.2230 C   0  0  0  0  0  0  0  0  0  0  0  0
  187.0270  178.2050  144.5880 C   0  0  0  0  0  2  0  0  0  0  0  0
  195.6530  174.0050  145.1690 C   0  0  0  0  0  2  0  0  0  0  0  0
  193.6820  172.6590  143.8550 C   0  0  2  0  0  3  0  0  0  0  0  0
  188.3280  177.7630  145.2510 C   0  0  0  0  0  2  0  0  0  0  0  0
  194.3770  174.1820  145.7400 O   0  0  0  0  0  0  0  0  0  0  0  0
  195.0640  171.5810  145.7480 C   0  0  1  0  0  3  0  0  0  0  0  0
  188.9360  173.9090  140.1640 C   0  0  0  0  0  3  0  0  0  0  0  0
  189.9100  174.1340  141.1480 C   0  0  0  0  0  0  0  0  0  0  0  0
  188.4280  175.8530  142.2350 N   0  0  0  0  0  2  0  0  0  0  0  0
  192.9850  175.1020  143.9740 C   0  0  0  0  0  2  0  0  0  0  0  0
  190.5770  175.6070  145.6840 C   0  0  0  0  0  1  0  0  0  0  0  0
  185.9410  176.4150  143.2430 C   0  0  0  0  0  1  0  0  0  0  0  0
  190.5880  175.3390  143.1850 C   0  0  0  0  0  0  0  0  0  0  0  0
  188.3610  177.0080  143.0310 N   0  0  2  0  0  0  0  0  0  0  0  0
  195.6520  170.2380  146.1480 C   0  0  0  0  0  2  0  0  0  0  0  0
  194.5740  169.1690  146.2290 C   0  0  2  0  0  3  0  0  0  0  0  0
  194.5820  168.5530  147.6110 C   0  0  0  0  0  1  0  0  0  0  0  0
  194.8180  168.1760  145.2810 O   0  0  0  0  0  1  0  0  0  0  0  0
  1 20  1  0  0  0  0
  2 27  1  0  0  0  0
  2 24  1  0  0  0  0
  3  4  2  0  0  0  0
  3 11  1  0  0  0  0
  4 21  1  0  0  0  0
  5  6  1  0  0  0  0
  5 25  1  1  0  0  0
  6 18  1  1  0  0  0
  7 24  1  6  0  0  0
  7 19  1  0  0  0  0
  9 26  1  1  0  0  0
  9 15  1  0  0  0  0
 10 20  1  0  0  0  0
 11 13  1  0  0  0  0
 12  8  1  0  0  0  0
 12  2  1  0  0  0  0
 13 22  1  0  0  0  0
 13 12  2  0  0  0  0
 14 23  1  0  0  0  0
 14 27  2  0  0  0  0
 15 18  1  0  0  0  0
 16  1  1  0  0  0  0
 16 19  1  0  0  0  0
 17  8  1  1  0  0  0
 17 10  1  0  0  0  0
 17  7  1  0  0  0  0
 20 29  1  6  0  0  0
 21 22  2  0  0  0  0
 22 14  1  0  0  0  0
 27  5  1  0  0  0  0
 28 23  1  6  0  0  0
 28  9  1  0  0  0  0
 28  6  1  0  0  0  0
 29 30  1  0  0  0  0
 30 31  1  1  0  0  0
 32 30  1  0  0  0  0
M  END
>  <MODEL>
7

>  <REMARK>
 VINA RESULT:      -7.2      3.184      8.343
  Name = 
  2 active torsions:
  status: ('A' for Active; 'I' for Inactive)
    1  A    between atoms: C_20  and  C_29
    2  A    between atoms: C_29  and  C_30
                            x       y       z     vdW  Elec       q    Type
                         _______ _______ _______ _____ _____    ______ ____

>  <TORSDO>
F 2

$$$$
=
 OpenBabel11112416423D

 32 37  0  0  1  0  0  0  0  0999 V2000
  189.2020  177.6650  145.2720 C   0  0  0  0  0  2  0  0  0  0  0  0
  191.0160  173.7990  142.0480 N   0  0  0  0  0  0  0  0  0  0  0  0
  193.2360  170.1020  144.4050 C   0  0  0  0  0  3  0  0  0  0  0  0
  193.1290  169.3230  143.2520 C   0  0  0  0  0  3  0  0  0  0  0  0
  190.0140  173.4270  139.6860 C   0  0  1  0  0  3  0  0  0  0  0  0
  189.7560  172.2770  138.7140 C   0  0  1  0  0  3  0  0  0  0  0  0
  189.5300  175.4390  143.0640 C   0  0  1  0  0  3  0  0  0  0  0  0
  190.4210  173.4650  144.3950 C   0  0  0  0  0  2  0  0  0  0  0  0
  190.6370  170.6100  137.4220 C   0  0  2  0  0  3  0  0  0  0  0  0
  188.9400  175.1190  145.5640 C   0  0  0  0  0  2  0  0  0  0  0  0
  192.7060  171.3940  144.4250 C   0  0  0  0  0  3  0  0  0  0  0  0
  191.5180  173.3150  143.3420 C   0  0  0  0  0  0  0  0  0  0  0  0
  192.0600  171.9150  143.2950 C   0  0  0  0  0  0  0  0  0  0  0  0
  191.3100  171.6740  140.9230 C   0  0  0  0  0  0  0  0  0  0  0  0
  189.6900  171.4020  136.5190 C   0  0  0  0  0  2  0  0  0  0  0  0
  189.8370  177.5840  143.8770 C   0  0  0  0  0  2  0  0  0  0  0  0
  189.9830  174.9270  144.4600 C   0  0  2  0  0  3  0  0  0  0  0  0
  189.2730  172.6260  137.3280 C   0  0  0  0  0  2  0  0  0  0  0  0
  189.0640  176.7780  143.0170 O   0  0  0  0  0  0  0  0  0  0  0  0
  188.2540  176.4900  145.5660 C   0  0  1  0  0  3  0  0  0  0  0  0
  192.4970  169.8390  142.1180 C   0  0  0  0  0  3  0  0  0  0  0  0
  191.9620  171.1350  142.1300 C   0  0  1  0  0  3  0  0  0  0  0  0
  191.2580  170.8780  139.7270 N   0  0  0  0  0  2  0  0  0  0  0  0
  190.6170  175.2030  142.0130 C   0  0  0  0  0  2  0  0  0  0  0  0
  188.6610  173.9910  140.0950 C   0  0  0  0  0  1  0  0  0  0  0  0
  189.9270  169.3390  137.8900 C   0  0  0  0  0  1  0  0  0  0  0  0
  190.7830  172.9240  140.9170 C   0  0  0  0  0  0  0  0  0  0  0  0
  190.9700  171.5240  138.5150 N   0  0  2  0  0  0  0  0  0  0  0  0
  187.5450  176.6970  146.8950 C   0  0  0  0  0  2  0  0  0  0  0  0
  186.0400  176.7920  146.7050 C   0  0  2  0  0  3  0  0  0  0  0  0
  185.7300  176.9460  145.2320 C   0  0  0  0  0  1  0  0  0  0  0  0
  185.5410  177.8940  147.3990 O   0  0  0  0  0  1  0  0  0  0  0  0
  1 20  1  0  0  0  0
  2 12  1  0  0  0  0
  3 11  2  0  0  0  0
  4  3  1  0  0  0  0
  5 25  1  1  0  0  0
  5 27  1  0  0  0  0
  6 18  1  6  0  0  0
  6  5  1  0  0  0  0
  7 24  1  6  0  0  0
  7 17  1  0  0  0  0
  9 26  1  1  0  0  0
  9 28  1  0  0  0  0
 10 20  1  0  0  0  0
 12  8  1  0  0  0  0
 13 12  2  0  0  0  0
 13 11  1  0  0  0  0
 14 22  1  0  0  0  0
 15 18  1  0  0  0  0
 15  9  1  0  0  0  0
 16  1  1  0  0  0  0
 17  8  1  6  0  0  0
 17 10  1  0  0  0  0
 19  7  1  0  0  0  0
 19 16  1  0  0  0  0
 20 29  1  1  0  0  0
 21  4  2  0  0  0  0
 22 21  1  6  0  0  0
 22 13  1  0  0  0  0
 23 14  1  0  0  0  0
 24  2  1  0  0  0  0
 27 14  2  0  0  0  0
 27  2  1  0  0  0  0
 28  6  1  0  0  0  0
 28 23  1  1  0  0  0
 30 31  1  6  0  0  0
 30 29  1  0  0  0  0
 30 32  1  0  0  0  0
M  END
>  <MODEL>
8

>  <REMARK>
 VINA RESULT:      -7.0      2.602      4.179
  Name = 
  2 active torsions:
  status: ('A' for Active; 'I' for Inactive)
    1  A    between atoms: C_20  and  C_29
    2  A    between atoms: C_29  and  C_30
                            x       y       z     vdW  Elec       q    Type
                         _______ _______ _______ _____ _____    ______ ____

>  <TORSDO>
F 2

$$$$
=
 OpenBabel11112416423D

 32 37  0  0  1  0  0  0  0  0999 V2000
  189.8290  172.3240  137.9770 C   0  0  0  0  0  2  0  0  0  0  0  0
  188.3500  174.5200  142.6270 N   0  0  0  0  0  0  0  0  0  0  0  0
  191.9090  174.6270  146.0140 C   0  0  0  0  0  3  0  0  0  0  0  0
  191.1650  175.5540  146.7450 C   0  0  0  0  0  3  0  0  0  0  0  0
  186.3640  176.1810  142.7670 C   0  0  1  0  0  3  0  0  0  0  0  0
  185.9380  177.3990  143.5860 C   0  0  1  0  0  3  0  0  0  0  0  0
  188.6780  174.1990  140.2360 C   0  0  1  0  0  3  0  0  0  0  0  0
  190.6540  174.4400  141.8160 C   0  0  0  0  0  2  0  0  0  0  0  0
  185.3870  178.2460  145.6370 C   0  0  2  0  0  3  0  0  0  0  0  0
  191.1180  174.0600  139.3790 C   0  0  0  0  0  2  0  0  0  0  0  0
  191.4320  174.1610  144.7880 C   0  0  0  0  0  2  0  0  0  0  0  0
  189.7130  174.0860  142.9660 C   0  0  0  0  0  0  0  0  0  0  0  0
  190.2090  174.6220  144.2790 C   0  0  0  0  0  0  0  0  0  0  0  0
  188.1540  176.0240  144.5160 C   0  0  0  0  0  0  0  0  0  0  0  0
  184.2750  178.6750  144.6780 C   0  0  0  0  0  2  0  0  0  0  0  0
  188.5610  172.3540  138.8420 C   0  0  0  0  0  2  0  0  0  0  0  0
  190.1480  173.7860  140.5320 C   0  0  2  0  0  3  0  0  0  0  0  0
  184.5450  177.9340  143.3720 C   0  0  0  0  0  2  0  0  0  0  0  0
  188.1180  173.6770  139.0400 O   0  0  0  0  0  0  0  0  0  0  0  0
  190.5960  173.6570  137.9950 C   0  0  1  0  0  3  0  0  0  0  0  0
  189.9400  176.0100  146.2510 C   0  0  0  0  0  3  0  0  0  0  0  0
  189.4530  175.5480  145.0200 C   0  0  0  0  0  0  0  0  0  0  0  0
  187.3750  176.9370  145.3080 N   0  0  0  0  0  2  0  0  0  0  0  0
  187.7730  173.9070  141.4350 C   0  0  0  0  0  2  0  0  0  0  0  0
  186.5590  176.6440  141.3300 C   0  0  0  0  0  1  0  0  0  0  0  0
  186.3440  179.4210  145.8400 C   0  0  0  0  0  1  0  0  0  0  0  0
  187.6680  175.5910  143.3250 C   0  0  0  0  0  0  0  0  0  0  0  0
  186.0150  177.0910  144.9930 N   0  0  2  0  0  0  0  0  0  0  0  0
  191.7560  173.6180  137.0120 C   0  0  0  0  0  2  0  0  0  0  0  0
  191.3880  174.2970  135.7020 C   0  0  2  0  0  3  0  0  0  0  0  0
  192.3980  175.3830  135.4010 C   0  0  0  0  0  1  0  0  0  0  0  0
  190.1170  174.8630  135.8010 O   0  0  0  0  0  1  0  0  0  0  0  0
  1 20  1  0  0  0  0
  1 16  1  0  0  0  0
  2 12  1  0  0  0  0
  2 27  1  0  0  0  0
  3  4  2  0  0  0  0
  5 25  1  6  0  0  0
  5 27  1  0  0  0  0
  5  6  1  0  0  0  0
  6 18  1  6  0  0  0
  6 28  1  0  0  0  0
  7 17  1  0  0  0  0
  7 24  1  1  0  0  0
  8 12  1  0  0  0  0
  9 26  1  6  0  0  0
 11  3  1  0  0  0  0
 12 13  2  0  0  0  0
 13 11  1  0  0  0  0
 13 22  1  0  0  0  0
 14 22  1  0  0  0  0
 14 23  1  0  0  0  0
 15  9  1  0  0  0  0
 16 19  1  0  0  0  0
 17 10  1  6  0  0  0
 17  8  1  0  0  0  0
 18 15  1  0  0  0  0
 19  7  1  0  0  0  0
 20 29  1  6  0  0  0
 20 10  1  0  0  0  0
 21  4  1  0  0  0  0
 22 21  2  0  0  0  0
 24  2  1  0  0  0  0
 27 14  2  0  0  0  0
 28 23  1  1  0  0  0
 28  9  1  0  0  0  0
 30 31  1  1  0  0  0
 30 32  1  0  0  0  0
 30 29  1  0  0  0  0
M  END
>  <MODEL>
9

>  <REMARK>
 VINA RESULT:      -6.6      3.472      7.691
  Name = 
  2 active torsions:
  status: ('A' for Active; 'I' for Inactive)
    1  A    between atoms: C_20  and  C_29
    2  A    between atoms: C_29  and  C_30
                            x       y       z     vdW  Elec       q    Type
                         _______ _______ _______ _____ _____    ______ ____

>  <TORSDO>
F 2

$$$$
