=
 OpenBabel11112416453D

 32 37  0  0  1  0  0  0  0  0999 V2000
  186.8280  177.8700  147.1010 C   0  0  0  0  0  2  0  0  0  0  0  0
  190.8510  175.9340  144.5170 C   0  0  2  0  0  3  0  0  0  0  0  0
  189.8950  173.4600  140.4520 C   0  0  0  0  0  3  0  0  0  0  0  0
  191.2590  173.2610  140.2220 C   0  0  0  0  0  3  0  0  0  0  0  0
  193.3420  176.5140  145.1050 C   0  0  2  0  0  3  0  0  0  0  0  0
  194.8170  176.1840  144.8000 C   0  0  1  0  0  3  0  0  0  0  0  0
  189.0530  177.2120  145.6570 N   0  0  1  0  0  0  0  0  0  0  0  0
  188.6060  176.0100  143.5820 N   0  0  0  0  0  2  0  0  0  0  0  0
  196.4270  175.3780  143.3540 C   0  0  2  0  0  3  0  0  0  0  0  0
  186.7830  177.2960  144.5830 C   0  0  0  0  0  2  0  0  0  0  0  0
  189.4760  174.3560  141.4390 C   0  0  0  0  0  3  0  0  0  0  0  0
  190.0220  176.0720  143.2360 C   0  0  2  0  0  3  0  0  0  0  0  0
  190.4210  175.0420  142.2150 C   0  0  0  0  0  0  0  0  0  0  0  0
  192.7750  175.6580  142.8010 C   0  0  2  0  0  3  0  0  0  0  0  0
  196.6250  174.6770  144.6960 C   0  0  0  0  0  2  0  0  0  0  0  0
  187.2720  176.4070  147.2160 C   0  0  0  0  0  2  0  0  0  0  0  0
  188.3000  177.2000  144.3800 C   0  0  1  0  0  3  0  0  0  0  0  0
  195.3810  174.9680  145.4980 C   0  0  0  0  0  2  0  0  0  0  0  0
  188.6400  176.1370  146.5700 C   0  0  0  0  0  2  0  0  0  0  0  0
  186.3740  178.2810  145.6840 C   0  0  1  0  0  3  0  0  0  0  0  0
  192.2060  173.9550  140.9790 C   0  0  0  0  0  3  0  0  0  0  0  0
  191.7940  174.8430  141.9860 C   0  0  0  0  0  0  0  0  0  0  0  0
  194.2110  175.1570  142.6910 C   0  0  0  0  0  2  0  0  0  0  0  0
  190.5010  177.1200  145.4220 C   0  0  0  0  0  2  0  0  0  0  0  0
  193.0970  176.3660  146.4730 O   0  0  0  0  0  1  0  0  0  0  0  0
  197.5440  176.3780  143.1260 C   0  0  0  0  0  1  0  0  0  0  0  0
  192.3690  175.6580  144.2830 C   0  0  2  0  0  3  0  0  0  0  0  0
  195.1380  176.0670  143.3720 N   0  0  1  0  0  0  0  0  0  0  0  0
  184.8630  178.4510  145.6520 C   0  0  0  0  0  2  0  0  0  0  0  0
  184.4500  179.2630  144.4720 C   0  0  0  0  0  0  0  0  0  0  0  0
  183.4170  178.9530  143.8250 O   0  0  0  0  0  0  0  0  0  0  0  0
  185.1910  180.3770  144.1030 O   0  0  0  0  0  1  0  0  0  0  0  0
  1 16  1  0  0  0  0
  2 24  1  6  0  0  0
  3 11  1  0  0  0  0
  4  3  2  0  0  0  0
  4 21  1  0  0  0  0
  5 25  1  1  0  0  0
  6  5  1  0  0  0  0
  6 18  1  1  0  0  0
  7 24  1  6  0  0  0
  7 19  1  0  0  0  0
  8 17  1  0  0  0  0
  9 26  1  1  0  0  0
  9 28  1  0  0  0  0
  9 15  1  0  0  0  0
 10 20  1  0  0  0  0
 11 13  2  0  0  0  0
 12 13  1  6  0  0  0
 12  8  1  0  0  0  0
 12  2  1  0  0  0  0
 14 23  1  1  0  0  0
 14 27  1  0  0  0  0
 15 18  1  0  0  0  0
 17 10  1  1  0  0  0
 17  7  1  0  0  0  0
 19 16  1  0  0  0  0
 20 29  1  1  0  0  0
 20  1  1  0  0  0  0
 21 22  2  0  0  0  0
 22 13  1  0  0  0  0
 22 14  1  0  0  0  0
 23 28  1  0  0  0  0
 27  2  1  0  0  0  0
 27  5  1  0  0  0  0
 28  6  1  0  0  0  0
 30 29  1  0  0  0  0
 31 30  2  0  0  0  0
 32 30  1  0  0  0  0
M  END
>  <MODEL>
1

>  <REMARK>
 VINA RESULT:      -8.9      0.000      0.000
  Name = 
  2 active torsions:
  status: ('A' for Active; 'I' for Inactive)
    1  A    between atoms: C_20  and  C_29
    2  A    between atoms: C_29  and  C_30
                            x       y       z     vdW  Elec       q    Type
                         _______ _______ _______ _____ _____    ______ ____

>  <TORSDO>
F 2

$$$$
=
 OpenBabel11112416453D

 32 37  0  0  1  0  0  0  0  0999 V2000
  186.3890  177.5760  142.9550 C   0  0  0  0  0  2  0  0  0  0  0  0
  190.5660  174.6300  143.6520 C   0  0  2  0  0  3  0  0  0  0  0  0
  194.1370  176.4550  146.3840 C   0  0  0  0  0  3  0  0  0  0  0  0
  194.8810  175.2810  146.2430 C   0  0  0  0  0  3  0  0  0  0  0  0
  190.6870  172.1180  142.9000 C   0  0  2  0  0  3  0  0  0  0  0  0
  191.6100  170.8930  142.7480 C   0  0  1  0  0  3  0  0  0  0  0  0
  188.3700  175.7820  143.5280 N   0  0  1  0  0  0  0  0  0  0  0  0
  190.1580  176.6520  144.9410 N   0  0  0  0  0  2  0  0  0  0  0  0
  193.4980  169.7230  143.3790 C   0  0  2  0  0  3  0  0  0  0  0  0
  188.0120  177.8240  144.9490 C   0  0  0  0  0  2  0  0  0  0  0  0
  192.8030  176.4930  145.9700 C   0  0  0  0  0  3  0  0  0  0  0  0
  190.7610  175.3260  145.0020 C   0  0  2  0  0  3  0  0  0  0  0  0
  192.2130  175.3600  145.3940 C   0  0  0  0  0  0  0  0  0  0  0  0
  192.2580  172.9590  144.6860 C   0  0  2  0  0  3  0  0  0  0  0  0
  193.5140  169.8300  141.8560 C   0  0  0  0  0  2  0  0  0  0  0  0
  187.6810  177.7500  142.1470 C   0  0  0  0  0  2  0  0  0  0  0  0
  188.7120  176.4690  144.7970 C   0  0  1  0  0  3  0  0  0  0  0  0
  192.4710  170.8640  141.5070 C   0  0  0  0  0  2  0  0  0  0  0  0
  188.6770  176.5960  142.3430 C   0  0  0  0  0  2  0  0  0  0  0  0
  186.5560  177.8180  144.4700 C   0  0  1  0  0  3  0  0  0  0  0  0
  194.2930  174.1430  145.6850 C   0  0  0  0  0  3  0  0  0  0  0  0
  192.9590  174.1760  145.2490 C   0  0  0  0  0  0  0  0  0  0  0  0
  193.2160  171.8400  144.2960 C   0  0  0  0  0  2  0  0  0  0  0  0
  189.0570  174.4880  143.4200 C   0  0  0  0  0  2  0  0  0  0  0  0
  190.0850  172.4140  141.6740 O   0  0  0  0  0  1  0  0  0  0  0  0
  193.1790  168.2990  143.7910 C   0  0  0  0  0  1  0  0  0  0  0  0
  191.4280  173.3440  143.4510 C   0  0  2  0  0  3  0  0  0  0  0  0
  192.4810  170.6330  143.9020 N   0  0  1  0  0  0  0  0  0  0  0  0
  185.9070  179.1370  144.8590 C   0  0  0  0  0  2  0  0  0  0  0  0
  185.1660  178.9990  146.1450 C   0  0  0  0  0  0  0  0  0  0  0  0
  183.9960  178.5360  146.1530 O   0  0  0  0  0  0  0  0  0  0  0  0
  185.7760  179.3580  147.3400 O   0  0  0  0  0  1  0  0  0  0  0  0
  1 20  1  0  0  0  0
  2 24  1  1  0  0  0
  2 12  1  0  0  0  0
  4  3  1  0  0  0  0
  5 25  1  6  0  0  0
  5 27  1  0  0  0  0
  6 18  1  6  0  0  0
  6  5  1  0  0  0  0
  6 28  1  0  0  0  0
  7 19  1  6  0  0  0
  7 17  1  0  0  0  0
  9 26  1  6  0  0  0
  9 28  1  0  0  0  0
 11  3  2  0  0  0  0
 12  8  1  6  0  0  0
 12 13  1  0  0  0  0
 13 11  1  0  0  0  0
 14 23  1  6  0  0  0
 14 22  1  0  0  0  0
 15  9  1  0  0  0  0
 16 19  1  0  0  0  0
 16  1  1  0  0  0  0
 17  8  1  0  0  0  0
 17 10  1  6  0  0  0
 18 15  1  0  0  0  0
 20 29  1  6  0  0  0
 20 10  1  0  0  0  0
 21  4  2  0  0  0  0
 22 13  2  0  0  0  0
 22 21  1  0  0  0  0
 24  7  1  0  0  0  0
 27  2  1  0  0  0  0
 27 14  1  0  0  0  0
 28 23  1  0  0  0  0
 29 30  1  0  0  0  0
 30 31  2  0  0  0  0
 30 32  1  0  0  0  0
M  END
>  <MODEL>
2

>  <REMARK>
 VINA RESULT:      -8.3      2.954      4.761
  Name = 
  2 active torsions:
  status: ('A' for Active; 'I' for Inactive)
    1  A    between atoms: C_20  and  C_29
    2  A    between atoms: C_29  and  C_30
                            x       y       z     vdW  Elec       q    Type
                         _______ _______ _______ _____ _____    ______ ____

>  <TORSDO>
F 2

$$$$
=
 OpenBabel11112416453D

 32 37  0  0  1  0  0  0  0  0999 V2000
  185.3280  178.4500  144.7070 C   0  0  0  0  0  2  0  0  0  0  0  0
  189.7310  175.8620  143.9770 C   0  0  2  0  0  3  0  0  0  0  0  0
  189.5430  171.9160  141.1580 C   0  0  0  0  0  3  0  0  0  0  0  0
  190.9180  171.7150  141.3020 C   0  0  0  0  0  3  0  0  0  0  0  0
  192.0670  176.7650  144.7590 C   0  0  2  0  0  3  0  0  0  0  0  0
  193.5620  176.4210  144.9120 C   0  0  1  0  0  3  0  0  0  0  0  0
  187.7790  177.3900  144.1230 N   0  0  1  0  0  0  0  0  0  0  0  0
  187.7250  175.4330  142.6680 N   0  0  0  0  0  2  0  0  0  0  0  0
  195.4070  175.1920  144.2640 C   0  0  2  0  0  3  0  0  0  0  0  0
  185.7770  176.9110  142.6820 C   0  0  0  0  0  2  0  0  0  0  0  0
  188.9600  173.1080  141.5950 C   0  0  0  0  0  3  0  0  0  0  0  0
  189.1830  175.4280  142.6140 C   0  0  2  0  0  3  0  0  0  0  0  0
  189.7490  174.0980  142.1960 C   0  0  0  0  0  0  0  0  0  0  0  0
  191.9530  175.0250  142.9350 C   0  0  2  0  0  3  0  0  0  0  0  0
  195.3080  175.1010  145.7850 C   0  0  0  0  0  2  0  0  0  0  0  0
  185.6950  177.1830  145.4900 C   0  0  0  0  0  2  0  0  0  0  0  0
  187.2990  176.8240  142.8390 C   0  0  1  0  0  3  0  0  0  0  0  0
  193.9360  175.6210  146.1380 C   0  0  0  0  0  2  0  0  0  0  0  0
  187.1570  176.7510  145.2920 C   0  0  0  0  0  2  0  0  0  0  0  0
  185.1830  178.2310  143.1860 C   0  0  1  0  0  3  0  0  0  0  0  0
  191.7130  172.7060  141.8850 C   0  0  0  0  0  3  0  0  0  0  0  0
  191.1330  173.9000  142.3440 C   0  0  0  0  0  0  0  0  0  0  0  0
  193.3650  174.6020  143.3230 C   0  0  0  0  0  2  0  0  0  0  0  0
  189.2410  177.2910  144.2370 C   0  0  0  0  0  2  0  0  0  0  0  0
  191.5450  177.1660  145.9920 O   0  0  0  0  0  1  0  0  0  0  0  0
  196.5770  176.0750  143.8770 C   0  0  0  0  0  1  0  0  0  0  0  0
  191.2560  175.5980  144.1790 C   0  0  2  0  0  3  0  0  0  0  0  0
  194.1630  175.7580  143.7460 N   0  0  1  0  0  0  0  0  0  0  0  0
  183.7170  178.2910  142.7910 C   0  0  0  0  0  2  0  0  0  0  0  0
  183.5700  178.2720  141.3080 C   0  0  0  0  0  0  0  0  0  0  0  0
  182.4810  177.9180  140.7860 O   0  0  0  0  0  1  0  0  0  0  0  0
  184.6280  178.6700  140.5000 O   0  0  0  0  0  0  0  0  0  0  0  0
  1 16  1  0  0  0  0
  2 27  1  0  0  0  0
  2 24  1  6  0  0  0
  3  4  2  0  0  0  0
  3 11  1  0  0  0  0
  4 21  1  0  0  0  0
  5  6  1  0  0  0  0
  5 25  1  1  0  0  0
  6 18  1  1  0  0  0
  7 24  1  1  0  0  0
  7 19  1  0  0  0  0
  8 17  1  0  0  0  0
  9 26  1  1  0  0  0
  9 15  1  0  0  0  0
 10 20  1  0  0  0  0
 11 13  2  0  0  0  0
 12 13  1  1  0  0  0
 12  8  1  0  0  0  0
 12  2  1  0  0  0  0
 13 22  1  0  0  0  0
 14 23  1  1  0  0  0
 14 27  1  0  0  0  0
 15 18  1  0  0  0  0
 17 10  1  1  0  0  0
 17  7  1  0  0  0  0
 19 16  1  0  0  0  0
 20 29  1  1  0  0  0
 20  1  1  0  0  0  0
 21 22  2  0  0  0  0
 22 14  1  0  0  0  0
 23 28  1  0  0  0  0
 27  5  1  0  0  0  0
 28  9  1  0  0  0  0
 28  6  1  0  0  0  0
 30 29  1  0  0  0  0
 31 30  1  0  0  0  0
 32 30  2  0  0  0  0
M  END
>  <MODEL>
3

>  <REMARK>
 VINA RESULT:      -8.2      1.677      2.019
  Name = 
  2 active torsions:
  status: ('A' for Active; 'I' for Inactive)
    1  A    between atoms: C_20  and  C_29
    2  A    between atoms: C_29  and  C_30
                            x       y       z     vdW  Elec       q    Type
                         _______ _______ _______ _____ _____    ______ ____

>  <TORSDO>
F 2

$$$$
=
 OpenBabel11112416453D

 32 37  0  0  1  0  0  0  0  0999 V2000
  185.8880  178.4710  142.9150 C   0  0  0  0  0  2  0  0  0  0  0  0
  189.4760  174.7650  142.8320 C   0  0  2  0  0  3  0  0  0  0  0  0
  192.9190  174.9350  146.2480 C   0  0  0  0  0  3  0  0  0  0  0  0
  193.4960  173.7580  145.7630 C   0  0  0  0  0  3  0  0  0  0  0  0
  189.3200  172.6570  141.2770 C   0  0  2  0  0  3  0  0  0  0  0  0
  190.0660  171.4050  140.7750 C   0  0  1  0  0  3  0  0  0  0  0  0
  187.5030  176.2660  142.9680 N   0  0  1  0  0  0  0  0  0  0  0  0
  189.2140  176.2950  144.7050 N   0  0  0  0  0  2  0  0  0  0  0  0
  191.6740  169.7770  141.0890 C   0  0  2  0  0  3  0  0  0  0  0  0
  187.2760  177.7620  144.9740 C   0  0  0  0  0  2  0  0  0  0  0  0
  191.6650  175.3420  145.7870 C   0  0  0  0  0  3  0  0  0  0  0  0
  189.6060  174.9360  144.3480 C   0  0  2  0  0  3  0  0  0  0  0  0
  190.9890  174.5820  144.8210 C   0  0  0  0  0  0  0  0  0  0  0  0
  190.7700  172.5760  143.3400 C   0  0  2  0  0  3  0  0  0  0  0  0
  191.8890  170.3700  139.6990 C   0  0  0  0  0  2  0  0  0  0  0  0
  187.2790  178.6660  142.3000 C   0  0  0  0  0  2  0  0  0  0  0  0
  187.7850  176.4290  144.4140 C   0  0  1  0  0  3  0  0  0  0  0  0
  191.0580  171.6290  139.6570 C   0  0  0  0  0  2  0  0  0  0  0  0
  188.0660  177.3530  142.1540 C   0  0  0  0  0  2  0  0  0  0  0  0
  185.9040  178.1720  144.4290 C   0  0  1  0  0  3  0  0  0  0  0  0
  192.8200  172.9870  144.8130 C   0  0  0  0  0  3  0  0  0  0  0  0
  191.5670  173.3980  144.3290 C   0  0  0  0  0  0  0  0  0  0  0  0
  191.5940  171.4930  142.6540 C   0  0  0  0  0  2  0  0  0  0  0  0
  188.0020  174.9770  142.4690 C   0  0  0  0  0  2  0  0  0  0  0  0
  188.9210  173.4380  140.1890 O   0  0  0  0  0  1  0  0  0  0  0  0
  191.1040  168.3770  140.9680 C   0  0  0  0  0  1  0  0  0  0  0  0
  190.1600  173.4840  142.2600 C   0  0  2  0  0  3  0  0  0  0  0  0
  190.7450  170.6320  141.8250 N   0  0  1  0  0  0  0  0  0  0  0  0
  185.4120  179.3840  145.2020 C   0  0  0  0  0  2  0  0  0  0  0  0
  185.1130  179.0210  146.6160 C   0  0  0  0  0  0  0  0  0  0  0  0
  184.1240  178.2910  146.8840 O   0  0  0  0  0  0  0  0  0  0  0  0
  185.9410  179.4660  147.6380 O   0  0  0  0  0  1  0  0  0  0  0  0
  1 20  1  0  0  0  0
  2 24  1  1  0  0  0
  2 12  1  0  0  0  0
  4  3  2  0  0  0  0
  5 25  1  6  0  0  0
  5 27  1  0  0  0  0
  6 18  1  6  0  0  0
  6  5  1  0  0  0  0
  6 28  1  0  0  0  0
  7 19  1  6  0  0  0
  7 17  1  0  0  0  0
  9 26  1  6  0  0  0
  9 28  1  0  0  0  0
 11  3  1  0  0  0  0
 12  8  1  6  0  0  0
 12 13  1  0  0  0  0
 13 11  2  0  0  0  0
 14 23  1  6  0  0  0
 14 22  1  0  0  0  0
 15  9  1  0  0  0  0
 16  1  1  0  0  0  0
 17  8  1  0  0  0  0
 17 10  1  6  0  0  0
 18 15  1  0  0  0  0
 19 16  1  0  0  0  0
 20 10  1  0  0  0  0
 20 29  1  1  0  0  0
 21  4  1  0  0  0  0
 22 21  2  0  0  0  0
 22 13  1  0  0  0  0
 24  7  1  0  0  0  0
 27  2  1  0  0  0  0
 27 14  1  0  0  0  0
 28 23  1  0  0  0  0
 29 30  1  0  0  0  0
 30 31  2  0  0  0  0
 30 32  1  0  0  0  0
M  END
>  <MODEL>
4

>  <REMARK>
 VINA RESULT:      -8.2      2.925      5.158
  Name = 
  2 active torsions:
  status: ('A' for Active; 'I' for Inactive)
    1  A    between atoms: C_20  and  C_29
    2  A    between atoms: C_29  and  C_30
                            x       y       z     vdW  Elec       q    Type
                         _______ _______ _______ _____ _____    ______ ____

>  <TORSDO>
F 2

$$$$
=
 OpenBabel11112416453D

 32 37  0  0  1  0  0  0  0  0999 V2000
  185.0340  178.2740  143.6720 C   0  0  0  0  0  2  0  0  0  0  0  0
  189.2460  175.6030  142.3550 C   0  0  2  0  0  3  0  0  0  0  0  0
  193.3660  176.6650  144.6890 C   0  0  0  0  0  3  0  0  0  0  0  0
  194.0520  175.6700  143.9860 C   0  0  0  0  0  3  0  0  0  0  0  0
  189.1770  173.5130  140.7690 C   0  0  2  0  0  3  0  0  0  0  0  0
  190.0330  172.4890  139.9990 C   0  0  1  0  0  3  0  0  0  0  0  0
  187.0870  176.5530  143.1300 N   0  0  1  0  0  0  0  0  0  0  0  0
  189.1600  177.0280  144.3240 N   0  0  0  0  0  2  0  0  0  0  0  0
  192.0120  171.3250  139.7470 C   0  0  2  0  0  3  0  0  0  0  0  0
  187.0810  177.9560  145.2150 C   0  0  0  0  0  2  0  0  0  0  0  0
  191.9730  176.7360  144.6200 C   0  0  0  0  0  3  0  0  0  0  0  0
  189.7550  175.8110  143.7840 C   0  0  2  0  0  3  0  0  0  0  0  0
  191.2590  175.8240  143.8310 C   0  0  0  0  0  0  0  0  0  0  0  0
  191.1270  173.8180  142.3400 C   0  0  2  0  0  3  0  0  0  0  0  0
  191.6700  171.9440  138.3940 C   0  0  0  0  0  2  0  0  0  0  0  0
  186.1010  178.8130  142.7110 C   0  0  0  0  0  2  0  0  0  0  0  0
  187.7200  176.7920  144.4500 C   0  0  1  0  0  3  0  0  0  0  0  0
  190.5790  172.9500  138.6670 C   0  0  0  0  0  2  0  0  0  0  0  0
  187.1110  177.7420  142.2670 C   0  0  0  0  0  2  0  0  0  0  0  0
  185.5530  177.9990  145.1000 C   0  0  1  0  0  3  0  0  0  0  0  0
  193.3440  174.7460  143.2120 C   0  0  0  0  0  3  0  0  0  0  0  0
  191.9450  174.8220  143.1220 C   0  0  0  0  0  0  0  0  0  0  0  0
  191.9620  172.9750  141.3820 C   0  0  0  0  0  2  0  0  0  0  0  0
  187.7250  175.4300  142.4290 C   0  0  0  0  0  2  0  0  0  0  0  0
  188.3050  174.1590  139.8880 O   0  0  0  0  0  1  0  0  0  0  0  0
  191.7930  169.8260  139.6960 C   0  0  0  0  0  1  0  0  0  0  0  0
  190.0310  174.5330  141.5330 C   0  0  2  0  0  3  0  0  0  0  0  0
  191.1500  171.9210  140.7660 N   0  0  1  0  0  0  0  0  0  0  0  0
  185.0190  179.0520  146.0570 C   0  0  0  0  0  2  0  0  0  0  0  0
  185.6420  178.9040  147.4030 C   0  0  0  0  0  0  0  0  0  0  0  0
  186.1720  179.8980  147.9650 O   0  0  0  0  0  0  0  0  0  0  0  0
  185.6160  177.6750  148.0490 O   0  0  0  0  0  1  0  0  0  0  0  0
  1 20  1  0  0  0  0
  2 24  1  1  0  0  0
  2 12  1  0  0  0  0
  4  3  2  0  0  0  0
  5 25  1  6  0  0  0
  5 27  1  0  0  0  0
  6 18  1  6  0  0  0
  6 28  1  0  0  0  0
  6  5  1  0  0  0  0
  7 19  1  6  0  0  0
  7 17  1  0  0  0  0
  8 17  1  0  0  0  0
  9 26  1  6  0  0  0
  9 28  1  0  0  0  0
 11  3  1  0  0  0  0
 12 13  1  6  0  0  0
 12  8  1  0  0  0  0
 13 11  2  0  0  0  0
 14 23  1  6  0  0  0
 14 22  1  0  0  0  0
 15 18  1  0  0  0  0
 15  9  1  0  0  0  0
 16  1  1  0  0  0  0
 17 10  1  6  0  0  0
 19 16  1  0  0  0  0
 20 10  1  0  0  0  0
 20 29  1  1  0  0  0
 21  4  1  0  0  0  0
 22 21  2  0  0  0  0
 22 13  1  0  0  0  0
 24  7  1  0  0  0  0
 27 14  1  0  0  0  0
 27  2  1  0  0  0  0
 28 23  1  0  0  0  0
 29 30  1  0  0  0  0
 30 31  2  0  0  0  0
 30 32  1  0  0  0  0
M  END
>  <MODEL>
5

>  <REMARK>
 VINA RESULT:      -7.9      2.559      5.001
  Name = 
  2 active torsions:
  status: ('A' for Active; 'I' for Inactive)
    1  A    between atoms: C_20  and  C_29
    2  A    between atoms: C_29  and  C_30
                            x       y       z     vdW  Elec       q    Type
                         _______ _______ _______ _____ _____    ______ ____

>  <TORSDO>
F 2

$$$$
=
 OpenBabel11112416453D

 32 37  0  0  1  0  0  0  0  0999 V2000
  186.7390  178.3220  147.2860 C   0  0  0  0  0  2  0  0  0  0  0  0
  190.1480  175.4950  144.6410 C   0  0  2  0  0  3  0  0  0  0  0  0
  188.8270  173.9910  140.2190 C   0  0  0  0  0  3  0  0  0  0  0  0
  190.0700  173.3820  140.0260 C   0  0  0  0  0  3  0  0  0  0  0  0
  192.6280  175.1420  145.4230 C   0  0  2  0  0  3  0  0  0  0  0  0
  193.9400  174.3830  145.1440 C   0  0  1  0  0  3  0  0  0  0  0  0
  188.7590  177.1460  145.8690 N   0  0  1  0  0  0  0  0  0  0  0  0
  188.1430  176.4220  143.6220 N   0  0  0  0  0  2  0  0  0  0  0  0
  195.3330  173.2730  143.6730 C   0  0  2  0  0  3  0  0  0  0  0  0
  186.7450  178.1060  144.7120 C   0  0  0  0  0  2  0  0  0  0  0  0
  188.6280  174.8480  141.3050 C   0  0  0  0  0  3  0  0  0  0  0  0
  189.5290  176.0540  143.3560 C   0  0  2  0  0  3  0  0  0  0  0  0
  189.6690  175.0830  142.2160 C   0  0  0  0  0  0  0  0  0  0  0  0
  192.0310  174.8090  142.9950 C   0  0  2  0  0  3  0  0  0  0  0  0
  195.1710  172.3880  144.9060 C   0  0  0  0  0  2  0  0  0  0  0  0
  186.6780  176.7910  147.2090 C   0  0  0  0  0  2  0  0  0  0  0  0
  188.1620  177.5390  144.5700 C   0  0  1  0  0  3  0  0  0  0  0  0
  194.0180  172.9740  145.6830 C   0  0  0  0  0  2  0  0  0  0  0  0
  187.9410  176.1650  146.5950 C   0  0  0  0  0  2  0  0  0  0  0  0
  186.5740  179.0290  145.9240 C   0  0  1  0  0  3  0  0  0  0  0  0
  191.1160  173.6260  140.9210 C   0  0  0  0  0  3  0  0  0  0  0  0
  190.9200  174.4700  142.0250 C   0  0  0  0  0  0  0  0  0  0  0  0
  193.2340  173.8800  142.8810 C   0  0  0  0  0  2  0  0  0  0  0  0
  190.1160  176.6100  145.6910 C   0  0  0  0  0  2  0  0  0  0  0  0
  192.2240  174.9180  146.7420 O   0  0  0  0  0  1  0  0  0  0  0  0
  196.7280  173.8670  143.6450 C   0  0  0  0  0  1  0  0  0  0  0  0
  191.5120  174.7630  144.4400 C   0  0  2  0  0  3  0  0  0  0  0  0
  194.3370  174.3410  143.7300 N   0  0  1  0  0  0  0  0  0  0  0  0
  185.2080  179.6910  145.8470 C   0  0  0  0  0  2  0  0  0  0  0  0
  184.1640  178.7000  145.4560 C   0  0  0  0  0  0  0  0  0  0  0  0
  183.6910  177.9110  146.3140 O   0  0  0  0  0  1  0  0  0  0  0  0
  183.6950  178.6650  144.1500 O   0  0  0  0  0  0  0  0  0  0  0  0
  2 24  1  1  0  0  0
  3 11  1  0  0  0  0
  4  3  2  0  0  0  0
  4 21  1  0  0  0  0
  5 25  1  1  0  0  0
  6  5  1  0  0  0  0
  6 18  1  6  0  0  0
  7 24  1  6  0  0  0
  7 19  1  0  0  0  0
  8 17  1  0  0  0  0
  9 26  1  1  0  0  0
  9 28  1  0  0  0  0
  9 15  1  0  0  0  0
 10 20  1  0  0  0  0
 11 13  2  0  0  0  0
 12 13  1  6  0  0  0
 12  8  1  0  0  0  0
 12  2  1  0  0  0  0
 14 23  1  1  0  0  0
 14 27  1  0  0  0  0
 15 18  1  0  0  0  0
 16  1  1  0  0  0  0
 17 10  1  1  0  0  0
 17  7  1  0  0  0  0
 19 16  1  0  0  0  0
 20 29  1  1  0  0  0
 20  1  1  0  0  0  0
 21 22  2  0  0  0  0
 22 13  1  0  0  0  0
 22 14  1  0  0  0  0
 23 28  1  0  0  0  0
 27  2  1  0  0  0  0
 27  5  1  0  0  0  0
 28  6  1  0  0  0  0
 30 29  1  0  0  0  0
 30 31  1  0  0  0  0
 32 30  2  0  0  0  0
M  END
>  <MODEL>
6

>  <REMARK>
 VINA RESULT:      -7.5      1.306      1.500
  Name = 
  2 active torsions:
  status: ('A' for Active; 'I' for Inactive)
    1  A    between atoms: C_20  and  C_29
    2  A    between atoms: C_29  and  C_30
                            x       y       z     vdW  Elec       q    Type
                         _______ _______ _______ _____ _____    ______ ____

>  <TORSDO>
F 2

$$$$
=
 OpenBabel11112416453D

 32 37  0  0  1  0  0  0  0  0999 V2000
  191.7690  171.2630  140.3900 C   0  0  0  0  0  2  0  0  0  0  0  0
  189.7030  174.7570  143.5730 C   0  0  2  0  0  3  0  0  0  0  0  0
  192.1470  175.7710  147.6420 C   0  0  0  0  0  3  0  0  0  0  0  0
  191.1910  176.7220  148.0100 C   0  0  0  0  0  3  0  0  0  0  0  0
  187.6210  176.2220  142.9330 C   0  0  2  0  0  3  0  0  0  0  0  0
  186.5890  177.2390  143.4570 C   0  0  1  0  0  3  0  0  0  0  0  0
  190.7470  173.3720  141.7970 N   0  0  1  0  0  0  0  0  0  0  0  0
  191.9810  173.9410  143.8230 N   0  0  0  0  0  2  0  0  0  0  0  0
  185.9970  178.8920  144.9580 C   0  0  2  0  0  3  0  0  0  0  0  0
  193.1290  172.6320  142.1070 C   0  0  0  0  0  2  0  0  0  0  0  0
  192.1290  175.2220  146.3570 C   0  0  0  0  0  3  0  0  0  0  0  0
  191.1250  175.1050  144.0220 C   0  0  2  0  0  3  0  0  0  0  0  0
  191.1420  175.6090  145.4400 C   0  0  0  0  0  0  0  0  0  0  0  0
  189.1750  177.0010  144.7610 C   0  0  2  0  0  3  0  0  0  0  0  0
  184.8630  177.8690  144.9330 C   0  0  0  0  0  2  0  0  0  0  0  0
  190.9630  170.8850  141.6390 C   0  0  0  0  0  2  0  0  0  0  0  0
  192.0690  173.7050  142.3800 C   0  0  1  0  0  3  0  0  0  0  0  0
  185.4160  176.6620  144.2150 C   0  0  0  0  0  2  0  0  0  0  0  0
  190.2290  172.0800  142.2690 C   0  0  0  0  0  2  0  0  0  0  0  0
  193.0620  172.0520  140.6900 C   0  0  1  0  0  3  0  0  0  0  0  0
  190.2150  177.1250  147.0940 C   0  0  0  0  0  3  0  0  0  0  0  0
  190.1780  176.5650  145.8070 C   0  0  0  0  0  0  0  0  0  0  0  0
  188.0120  177.7980  145.3380 C   0  0  0  0  0  2  0  0  0  0  0  0
  189.7600  174.4230  142.0790 C   0  0  0  0  0  2  0  0  0  0  0  0
  186.9620  175.1180  142.3850 O   0  0  0  0  0  1  0  0  0  0  0  0
  185.5550  180.1660  144.2630 C   0  0  0  0  0  1  0  0  0  0  0  0
  188.6110  175.7790  144.0200 C   0  0  2  0  0  3  0  0  0  0  0  0
  187.1550  178.3250  144.2700 N   0  0  1  0  0  0  0  0  0  0  0  0
  194.2750  171.1640  140.4650 C   0  0  0  0  0  2  0  0  0  0  0  0
  195.5290  171.9690  140.4980 C   0  0  0  0  0  0  0  0  0  0  0  0
  196.4540  171.6630  141.2950 O   0  0  0  0  0  1  0  0  0  0  0  0
  195.6880  173.0420  139.6320 O   0  0  0  0  0  0  0  0  0  0  0  0
  1 20  1  0  0  0  0
  1 16  1  0  0  0  0
  2 24  1  6  0  0  0
  2 27  1  0  0  0  0
  2 12  1  0  0  0  0
  3  4  1  0  0  0  0
  5 25  1  1  0  0  0
  5  6  1  0  0  0  0
  5 27  1  0  0  0  0
  6 18  1  1  0  0  0
  6 28  1  0  0  0  0
  7 24  1  1  0  0  0
  7 19  1  0  0  0  0
  7 17  1  0  0  0  0
  9 26  1  6  0  0  0
 11  3  2  0  0  0  0
 12  8  1  1  0  0  0
 12 13  1  0  0  0  0
 13 22  2  0  0  0  0
 13 11  1  0  0  0  0
 14 23  1  1  0  0  0
 14 22  1  0  0  0  0
 15  9  1  0  0  0  0
 16 19  1  0  0  0  0
 17 10  1  1  0  0  0
 17  8  1  0  0  0  0
 18 15  1  0  0  0  0
 20 29  1  1  0  0  0
 20 10  1  0  0  0  0
 21  4  2  0  0  0  0
 22 21  1  0  0  0  0
 27 14  1  0  0  0  0
 28  9  1  0  0  0  0
 28 23  1  0  0  0  0
 29 30  1  0  0  0  0
 30 31  1  0  0  0  0
 32 30  2  0  0  0  0
M  END
>  <MODEL>
7

>  <REMARK>
 VINA RESULT:      -7.3      3.051      8.632
  Name = 
  2 active torsions:
  status: ('A' for Active; 'I' for Inactive)
    1  A    between atoms: C_20  and  C_29
    2  A    between atoms: C_29  and  C_30
                            x       y       z     vdW  Elec       q    Type
                         _______ _______ _______ _____ _____    ______ ____

>  <TORSDO>
F 2

$$$$
=
 OpenBabel11112416453D

 32 37  0  0  1  0  0  0  0  0999 V2000
  188.5800  177.1510  146.8370 C   0  0  0  0  0  2  0  0  0  0  0  0
  191.8320  175.0780  143.4100 C   0  0  2  0  0  3  0  0  0  0  0  0
  189.9650  171.9910  140.1640 C   0  0  0  0  0  3  0  0  0  0  0  0
  191.2130  171.8340  139.5560 C   0  0  0  0  0  3  0  0  0  0  0  0
  194.3190  175.8700  143.1380 C   0  0  2  0  0  3  0  0  0  0  0  0
  195.6640  175.5790  142.4430 C   0  0  1  0  0  3  0  0  0  0  0  0
  190.3360  176.4100  144.8770 N   0  0  1  0  0  0  0  0  0  0  0  0
  189.4150  174.8970  143.2000 N   0  0  0  0  0  2  0  0  0  0  0  0
  196.8480  174.6590  140.6860 C   0  0  2  0  0  3  0  0  0  0  0  0
  187.8530  176.2150  144.5410 C   0  0  0  0  0  2  0  0  0  0  0  0
  189.7700  172.9970  141.1140 C   0  0  0  0  0  3  0  0  0  0  0  0
  190.6550  174.9830  142.4360 C   0  0  2  0  0  3  0  0  0  0  0  0
  190.8320  173.8390  141.4760 C   0  0  0  0  0  0  0  0  0  0  0  0
  193.1850  174.6580  141.2380 C   0  0  2  0  0  3  0  0  0  0  0  0
  197.4970  174.1720  141.9800 C   0  0  0  0  0  2  0  0  0  0  0  0
  189.1750  175.7460  146.9900 C   0  0  0  0  0  2  0  0  0  0  0  0
  189.2450  176.1710  143.9010 C   0  0  1  0  0  3  0  0  0  0  0  0
  196.5210  174.5100  143.0800 C   0  0  0  0  0  2  0  0  0  0  0  0
  190.3130  175.4590  145.9970 C   0  0  0  0  0  2  0  0  0  0  0  0
  187.6930  177.3250  145.5850 C   0  0  1  0  0  3  0  0  0  0  0  0
  192.2700  172.6810  139.8990 C   0  0  0  0  0  3  0  0  0  0  0  0
  192.0900  173.6820  140.8670 C   0  0  0  0  0  0  0  0  0  0  0  0
  194.5660  174.2250  140.7600 C   0  0  0  0  0  2  0  0  0  0  0  0
  191.6520  176.3620  144.2270 C   0  0  0  0  0  2  0  0  0  0  0  0
  194.5010  175.9100  144.5230 O   0  0  0  0  0  1  0  0  0  0  0  0
  197.7490  175.6730  140.0080 C   0  0  0  0  0  1  0  0  0  0  0  0
  193.2340  174.8520  142.7620 C   0  0  2  0  0  3  0  0  0  0  0  0
  195.5610  175.2720  141.0100 N   0  0  1  0  0  0  0  0  0  0  0  0
  186.2310  177.4080  145.9930 C   0  0  0  0  0  2  0  0  0  0  0  0
  185.7670  178.8240  146.0060 C   0  0  0  0  0  0  0  0  0  0  0  0
  185.5680  179.4130  147.1000 O   0  0  0  0  0  1  0  0  0  0  0  0
  185.5790  179.5040  144.8090 O   0  0  0  0  0  0  0  0  0  0  0  0
  1 16  1  0  0  0  0
  2 24  1  6  0  0  0
  3 11  1  0  0  0  0
  4 21  1  0  0  0  0
  4  3  2  0  0  0  0
  5 25  1  1  0  0  0
  6 18  1  1  0  0  0
  6  5  1  0  0  0  0
  7 24  1  6  0  0  0
  7 19  1  0  0  0  0
  8 17  1  0  0  0  0
  9 26  1  1  0  0  0
  9 28  1  0  0  0  0
  9 15  1  0  0  0  0
 10 20  1  0  0  0  0
 11 13  2  0  0  0  0
 12 13  1  1  0  0  0
 12  8  1  0  0  0  0
 12  2  1  0  0  0  0
 14 23  1  1  0  0  0
 14 27  1  0  0  0  0
 15 18  1  0  0  0  0
 17 10  1  1  0  0  0
 17  7  1  0  0  0  0
 19 16  1  0  0  0  0
 20 29  1  1  0  0  0
 20  1  1  0  0  0  0
 21 22  2  0  0  0  0
 22 14  1  0  0  0  0
 22 13  1  0  0  0  0
 23 28  1  0  0  0  0
 27  5  1  0  0  0  0
 27  2  1  0  0  0  0
 28  6  1  0  0  0  0
 29 30  1  0  0  0  0
 30 31  1  0  0  0  0
 32 30  2  0  0  0  0
M  END
>  <MODEL>
8

>  <REMARK>
 VINA RESULT:      -7.2      1.611      2.098
  Name = 
  2 active torsions:
  status: ('A' for Active; 'I' for Inactive)
    1  A    between atoms: C_20  and  C_29
    2  A    between atoms: C_29  and  C_30
                            x       y       z     vdW  Elec       q    Type
                         _______ _______ _______ _____ _____    ______ ____

>  <TORSDO>
F 2

$$$$
=
 OpenBabel11112416453D

 32 37  0  0  1  0  0  0  0  0999 V2000
  195.2090  172.1920  145.7630 C   0  0  0  0  0  2  0  0  0  0  0  0
  191.1010  173.8850  143.1410 C   0  0  2  0  0  3  0  0  0  0  0  0
  189.8560  171.4310  139.1430 C   0  0  0  0  0  3  0  0  0  0  0  0
  188.7570  172.2700  138.9390 C   0  0  0  0  0  3  0  0  0  0  0  0
  189.4960  175.7530  144.0470 C   0  0  2  0  0  3  0  0  0  0  0  0
  188.3010  176.6630  143.7000 C   0  0  1  0  0  3  0  0  0  0  0  0
  192.8250  172.9780  144.6800 N   0  0  1  0  0  0  0  0  0  0  0  0
  192.1440  171.7320  142.6970 N   0  0  0  0  0  2  0  0  0  0  0  0
  186.4050  177.0810  142.4500 C   0  0  2  0  0  3  0  0  0  0  0  0
  193.7960  170.7140  144.1840 C   0  0  0  0  0  2  0  0  0  0  0  0
  190.5640  171.4860  140.3460 C   0  0  0  0  0  3  0  0  0  0  0  0
  190.8690  172.4410  142.6840 C   0  0  2  0  0  3  0  0  0  0  0  0
  190.1870  172.3960  141.3440 C   0  0  0  0  0  0  0  0  0  0  0  0
  188.6720  174.1580  142.2740 C   0  0  2  0  0  3  0  0  0  0  0  0
  187.2790  178.3320  142.3880 C   0  0  0  0  0  2  0  0  0  0  0  0
  195.3180  173.0680  144.5090 C   0  0  0  0  0  2  0  0  0  0  0  0
  192.5780  171.6390  144.0930 C   0  0  1  0  0  3  0  0  0  0  0  0
  188.6280  177.9160  142.9210 C   0  0  0  0  0  2  0  0  0  0  0  0
  193.9710  173.6630  144.0670 C   0  0  0  0  0  2  0  0  0  0  0  0
  194.5480  170.8190  145.5160 C   0  0  1  0  0  3  0  0  0  0  0  0
  188.3650  173.1660  139.9370 C   0  0  0  0  0  3  0  0  0  0  0  0
  189.0830  173.2420  141.1420 C   0  0  0  0  0  0  0  0  0  0  0  0
  187.6720  175.2270  141.8520 C   0  0  0  0  0  2  0  0  0  0  0  0
  191.6350  173.8330  144.5770 C   0  0  0  0  0  2  0  0  0  0  0  0
  190.5760  176.5310  144.4740 O   0  0  0  0  0  1  0  0  0  0  0  0
  185.1910  177.3450  143.3200 C   0  0  0  0  0  1  0  0  0  0  0  0
  189.9050  174.8520  142.8740 C   0  0  2  0  0  3  0  0  0  0  0  0
  187.1930  175.9870  143.0120 N   0  0  1  0  0  0  0  0  0  0  0  0
  195.5960  169.7200  145.5750 C   0  0  0  0  0  2  0  0  0  0  0  0
  195.7070  169.1730  146.9580 C   0  0  0  0  0  0  0  0  0  0  0  0
  196.8310  169.0990  147.5180 O   0  0  0  0  0  0  0  0  0  0  0  0
  194.5660  168.7690  147.6380 O   0  0  0  0  0  1  0  0  0  0  0  0
  2 24  1  1  0  0  0
  3 11  1  0  0  0  0
  4  3  2  0  0  0  0
  4 21  1  0  0  0  0
  5 25  1  6  0  0  0
  6 18  1  6  0  0  0
  6  5  1  0  0  0  0
  7 19  1  6  0  0  0
  8 17  1  0  0  0  0
  9 28  1  0  0  0  0
  9 26  1  1  0  0  0
 10 20  1  0  0  0  0
 11 13  2  0  0  0  0
 12 13  1  6  0  0  0
 12  8  1  0  0  0  0
 12  2  1  0  0  0  0
 14 23  1  6  0  0  0
 14 27  1  0  0  0  0
 15  9  1  0  0  0  0
 15 18  1  0  0  0  0
 16  1  1  0  0  0  0
 17 10  1  6  0  0  0
 17  7  1  0  0  0  0
 19 16  1  0  0  0  0
 20 29  1  6  0  0  0
 20  1  1  0  0  0  0
 21 22  2  0  0  0  0
 22 13  1  0  0  0  0
 22 14  1  0  0  0  0
 23 28  1  0  0  0  0
 24  7  1  0  0  0  0
 27  2  1  0  0  0  0
 27  5  1  0  0  0  0
 28  6  1  0  0  0  0
 29 30  1  0  0  0  0
 30 31  2  0  0  0  0
 30 32  1  0  0  0  0
M  END
>  <MODEL>
9

>  <REMARK>
 VINA RESULT:      -7.2      3.447      8.354
  Name = 
  2 active torsions:
  status: ('A' for Active; 'I' for Inactive)
    1  A    between atoms: C_20  and  C_29
    2  A    between atoms: C_29  and  C_30
                            x       y       z     vdW  Elec       q    Type
                         _______ _______ _______ _____ _____    ______ ____

>  <TORSDO>
F 2

$$$$
