=
 OpenBabel11112416153D

 30 35  0  0  1  0  0  0  0  0999 V2000
  187.4830  176.8090  143.8870 C   0  0  1  0  0  3  0  0  0  0  0  0
  186.0650  178.6220  144.9590 C   0  0  0  0  0  0  0  0  0  0  0  0
  189.8950  176.9360  147.4480 C   0  0  0  0  0  2  0  0  0  0  0  0
  188.6060  175.8190  144.2260 C   0  0  1  0  0  3  0  0  0  0  0  0
  186.5370  176.2120  143.0280 O   0  0  0  0  0  0  0  0  0  0  0  0
  188.7710  174.6840  140.7360 O   0  0  0  0  0  0  0  0  0  0  0  0
  191.6200  174.9670  143.3060 C   0  0  1  0  0  3  0  0  0  0  0  0
  188.3720  175.2710  141.7780 C   0  0  0  0  0  0  0  0  0  0  0  0
  191.8950  175.2640  144.7760 C   0  0  2  0  0  3  0  0  0  0  0  0
  190.7890  175.8810  146.9480 C   0  0  0  0  0  0  0  0  0  0  0  0
  187.1040  176.0690  141.7390 C   0  0  2  0  0  3  0  0  0  0  0  0
  189.1360  175.2110  142.9950 N   0  0  0  0  0  0  0  0  0  0  0  0
  185.5840  179.2930  146.0810 O   0  0  0  0  0  0  0  0  0  0  0  0
  192.5550  174.0070  145.3030 C   0  0  0  0  0  2  0  0  0  0  0  0
  192.7590  174.0540  142.8700 C   0  0  0  0  0  2  0  0  0  0  0  0
  185.8720  179.1050  143.8120 O   0  0  0  0  0  0  0  0  0  0  0  0
  189.1460  177.3970  146.2010 C   0  0  1  0  0  3  0  0  0  0  0  0
  185.7440  178.7200  147.3720 C   0  0  0  0  0  2  0  0  0  0  0  0
  186.7720  177.3050  145.1490 C   0  0  2  0  0  3  0  0  0  0  0  0
  189.7010  176.5710  145.0050 C   0  0  1  0  0  3  0  0  0  0  0  0
  191.5870  175.2590  147.6980 O   0  0  0  0  0  0  0  0  0  0  0  0
  190.7040  175.6550  145.5490 N   0  0  0  0  0  0  0  0  0  0  0  0
  193.3640  173.4670  144.1380 C   0  0  0  0  0  2  0  0  0  0  0  0
  190.0650  173.0350  143.2440 C   0  0  0  0  0  2  0  0  0  0  0  0
  187.1880  178.2600  147.5410 C   0  0  0  0  0  2  0  0  0  0  0  0
  187.6310  177.2670  146.4440 C   0  0  2  0  0  3  0  0  0  0  0  0
  190.2690  174.3420  143.0720 C   0  0  0  0  0  0  0  0  0  0  0  0
  187.3070  177.4090  141.0360 C   0  0  0  0  0  2  0  0  0  0  0  0
  185.0310  178.2020  140.4810 C   0  0  0  0  0  1  0  0  0  0  0  0
  186.2910  177.5730  139.9240 C   0  0  0  0  0  2  0  0  0  0  0  0
  1  5  1  6  0  0  0
  1  4  1  0  0  0  0
  1 19  1  0  0  0  0
  2 13  1  0  0  0  0
  4 12  1  6  0  0  0
  4 20  1  0  0  0  0
  6  8  2  0  0  0  0
  7 15  1  1  0  0  0
  7  9  1  0  0  0  0
  8 12  1  0  0  0  0
  9 14  1  1  0  0  0
  9 22  1  0  0  0  0
 10  3  1  0  0  0  0
 10 21  2  0  0  0  0
 11 28  1  1  0  0  0
 11  8  1  0  0  0  0
 11  5  1  0  0  0  0
 12 27  1  0  0  0  0
 13 18  1  0  0  0  0
 15 23  1  0  0  0  0
 16  2  2  0  0  0  0
 17 26  1  0  0  0  0
 17  3  1  1  0  0  0
 18 25  1  0  0  0  0
 19  2  1  6  0  0  0
 19 26  1  0  0  0  0
 20 22  1  1  0  0  0
 20 17  1  0  0  0  0
 22 10  1  0  0  0  0
 23 14  1  0  0  0  0
 26 25  1  1  0  0  0
 27 24  2  0  0  0  0
 27  7  1  0  0  0  0
 30 29  1  0  0  0  0
 30 28  1  0  0  0  0
M  END
>  <MODEL>
1

>  <REMARK>
 VINA RESULT:      -8.5      0.000      0.000
  Name = 
  2 active torsions:
  status: ('A' for Active; 'I' for Inactive)
    1  A    between atoms: C_11  and  C_28
    2  A    between atoms: C_28  and  C_30
                            x       y       z     vdW  Elec       q    Type
                         _______ _______ _______ _____ _____    ______ ____

>  <TORSDO>
F 2

$$$$
=
 OpenBabel11112416153D

 30 35  0  0  1  0  0  0  0  0999 V2000
  190.2830  175.5650  143.8070 C   0  0  1  0  0  3  0  0  0  0  0  0
  192.6190  174.5780  143.9250 C   0  0  0  0  0  0  0  0  0  0  0  0
  191.0290  177.1670  147.7300 C   0  0  0  0  0  2  0  0  0  0  0  0
  189.3700  176.5560  144.5420 C   0  0  1  0  0  3  0  0  0  0  0  0
  190.1180  175.6790  142.4110 O   0  0  0  0  0  0  0  0  0  0  0  0
  186.5760  175.7830  142.2860 O   0  0  0  0  0  0  0  0  0  0  0  0
  186.4610  176.7400  146.0110 C   0  0  1  0  0  3  0  0  0  0  0  0
  187.7380  175.8100  142.7730 C   0  0  0  0  0  0  0  0  0  0  0  0
  187.3390  177.2110  147.1630 C   0  0  2  0  0  3  0  0  0  0  0  0
  189.7030  177.8010  147.7850 C   0  0  0  0  0  0  0  0  0  0  0  0
  188.8630  175.1390  142.0450 C   0  0  2  0  0  3  0  0  0  0  0  0
  187.9920  176.4490  144.0360 N   0  0  0  0  0  0  0  0  0  0  0  0
  193.9200  174.5750  144.4240 O   0  0  0  0  0  0  0  0  0  0  0  0
  186.7460  178.5430  147.5770 C   0  0  0  0  0  2  0  0  0  0  0  0
  185.0710  177.2750  146.3310 C   0  0  0  0  0  2  0  0  0  0  0  0
  192.2010  173.5910  143.2640 O   0  0  0  0  0  0  0  0  0  0  0  0
  190.9050  176.1660  146.5850 C   0  0  1  0  0  3  0  0  0  0  0  0
  194.4160  175.7130  145.1170 C   0  0  0  0  0  2  0  0  0  0  0  0
  191.7560  175.7910  144.1600 C   0  0  2  0  0  3  0  0  0  0  0  0
  189.4460  176.2630  146.0520 C   0  0  1  0  0  3  0  0  0  0  0  0
  189.4140  178.6910  148.6280 O   0  0  0  0  0  0  0  0  0  0  0  0
  188.7730  177.2970  146.8380 N   0  0  0  0  0  0  0  0  0  0  0  0
  185.2530  178.4010  147.3400 C   0  0  0  0  0  2  0  0  0  0  0  0
  186.6800  178.4260  144.2050 C   0  0  0  0  0  2  0  0  0  0  0  0
  193.3920  176.1510  146.1580 C   0  0  0  0  0  2  0  0  0  0  0  0
  192.0050  176.4460  145.5460 C   0  0  2  0  0  3  0  0  0  0  0  0
  186.9530  177.2040  144.6640 C   0  0  0  0  0  0  0  0  0  0  0  0
  188.8080  173.6210  142.2050 C   0  0  0  0  0  2  0  0  0  0  0  0
  188.6930  173.8370  139.7440 C   0  0  0  0  0  1  0  0  0  0  0  0
  188.2980  172.9810  140.9290 C   0  0  0  0  0  2  0  0  0  0  0  0
  1  5  1  6  0  0  0
  1 19  1  0  0  0  0
  1  4  1  0  0  0  0
  2 13  1  0  0  0  0
  3 10  1  0  0  0  0
  4 12  1  6  0  0  0
  4 20  1  0  0  0  0
  6  8  2  0  0  0  0
  7 15  1  1  0  0  0
  7  9  1  0  0  0  0
  8 12  1  0  0  0  0
  9 14  1  6  0  0  0
 10 21  2  0  0  0  0
 11 28  1  1  0  0  0
 11  5  1  0  0  0  0
 11  8  1  0  0  0  0
 12 27  1  0  0  0  0
 13 18  1  0  0  0  0
 15 23  1  0  0  0  0
 16  2  2  0  0  0  0
 17  3  1  1  0  0  0
 18 25  1  0  0  0  0
 19  2  1  1  0  0  0
 19 26  1  0  0  0  0
 20 17  1  0  0  0  0
 20 22  1  1  0  0  0
 22  9  1  0  0  0  0
 22 10  1  0  0  0  0
 23 14  1  0  0  0  0
 24 27  2  0  0  0  0
 26 25  1  1  0  0  0
 26 17  1  0  0  0  0
 27  7  1  0  0  0  0
 29 30  1  0  0  0  0
 30 28  1  0  0  0  0
M  END
>  <MODEL>
2

>  <REMARK>
 VINA RESULT:      -8.1      2.067      5.592
  Name = 
  2 active torsions:
  status: ('A' for Active; 'I' for Inactive)
    1  A    between atoms: C_11  and  C_28
    2  A    between atoms: C_28  and  C_30
                            x       y       z     vdW  Elec       q    Type
                         _______ _______ _______ _____ _____    ______ ____

>  <TORSDO>
F 2

$$$$
=
 OpenBabel11112416153D

 30 35  0  0  1  0  0  0  0  0999 V2000
  187.9040  175.4550  142.8670 C   0  0  1  0  0  3  0  0  0  0  0  0
  186.0010  177.1290  142.6980 C   0  0  0  0  0  0  0  0  0  0  0  0
  189.1560  177.6070  146.3770 C   0  0  0  0  0  2  0  0  0  0  0  0
  189.0090  175.0020  143.8300 C   0  0  1  0  0  3  0  0  0  0  0  0
  187.3350  174.3460  142.2060 O   0  0  0  0  0  0  0  0  0  0  0  0
  190.3200  172.6360  141.3440 O   0  0  0  0  0  0  0  0  0  0  0  0
  192.2470  174.6350  144.0070 C   0  0  1  0  0  3  0  0  0  0  0  0
  189.5620  173.4730  141.9050 C   0  0  0  0  0  0  0  0  0  0  0  0
  192.0470  175.5580  145.2040 C   0  0  2  0  0  3  0  0  0  0  0  0
  190.2920  176.7000  146.5950 C   0  0  0  0  0  0  0  0  0  0  0  0
  188.2610  173.8430  141.2610 C   0  0  2  0  0  3  0  0  0  0  0  0
  189.9470  174.1020  143.1400 N   0  0  0  0  0  0  0  0  0  0  0  0
  185.1320  178.0510  143.2750 O   0  0  0  0  0  0  0  0  0  0  0  0
  192.6970  174.8290  146.3620 C   0  0  0  0  0  2  0  0  0  0  0  0
  193.5790  173.9400  144.2650 C   0  0  0  0  0  2  0  0  0  0  0  0
  186.0790  177.0430  141.4440 O   0  0  0  0  0  0  0  0  0  0  0  0
  188.7370  177.3220  144.9360 C   0  0  1  0  0  3  0  0  0  0  0  0
  184.9940  178.1080  144.6890 C   0  0  0  0  0  2  0  0  0  0  0  0
  186.8000  176.2230  143.6000 C   0  0  2  0  0  3  0  0  0  0  0  0
  189.7200  176.2520  144.3810 C   0  0  1  0  0  3  0  0  0  0  0  0
  190.9210  176.6550  147.6860 O   0  0  0  0  0  0  0  0  0  0  0  0
  190.6430  175.9160  145.4650 N   0  0  0  0  0  0  0  0  0  0  0  0
  193.8720  174.0860  145.7520 C   0  0  0  0  0  2  0  0  0  0  0  0
  191.0590  172.5200  144.5260 C   0  0  0  0  0  2  0  0  0  0  0  0
  186.3790  178.1320  145.3260 C   0  0  0  0  0  2  0  0  0  0  0  0
  187.2500  176.9270  144.9100 C   0  0  2  0  0  3  0  0  0  0  0  0
  191.1200  173.6520  143.8230 C   0  0  0  0  0  0  0  0  0  0  0  0
  188.4680  174.7900  140.0810 C   0  0  0  0  0  2  0  0  0  0  0  0
  189.5380  173.7270  138.1220 C   0  0  0  0  0  1  0  0  0  0  0  0
  188.2150  174.0600  138.7770 C   0  0  0  0  0  2  0  0  0  0  0  0
  1  5  1  1  0  0  0
  1 19  1  0  0  0  0
  1  4  1  0  0  0  0
  2 13  1  0  0  0  0
  3 10  1  0  0  0  0
  4 12  1  6  0  0  0
  4 20  1  0  0  0  0
  6  8  2  0  0  0  0
  7 15  1  1  0  0  0
  7  9  1  0  0  0  0
  8 12  1  0  0  0  0
  9 22  1  0  0  0  0
  9 14  1  1  0  0  0
 10 21  2  0  0  0  0
 11 28  1  6  0  0  0
 11  8  1  0  0  0  0
 11  5  1  0  0  0  0
 12 27  1  0  0  0  0
 13 18  1  0  0  0  0
 15 23  1  0  0  0  0
 16  2  2  0  0  0  0
 17  3  1  1  0  0  0
 18 25  1  0  0  0  0
 19  2  1  6  0  0  0
 19 26  1  0  0  0  0
 20 17  1  0  0  0  0
 20 22  1  1  0  0  0
 22 10  1  0  0  0  0
 23 14  1  0  0  0  0
 26 17  1  0  0  0  0
 26 25  1  6  0  0  0
 27  7  1  0  0  0  0
 27 24  2  0  0  0  0
 29 30  1  0  0  0  0
 30 28  1  0  0  0  0
M  END
>  <MODEL>
3

>  <REMARK>
 VINA RESULT:      -7.8      1.615      2.378
  Name = 
  2 active torsions:
  status: ('A' for Active; 'I' for Inactive)
    1  A    between atoms: C_11  and  C_28
    2  A    between atoms: C_28  and  C_30
                            x       y       z     vdW  Elec       q    Type
                         _______ _______ _______ _____ _____    ______ ____

>  <TORSDO>
F 2

$$$$
=
 OpenBabel11112416153D

 30 35  0  0  1  0  0  0  0  0999 V2000
  189.1070  175.0980  143.4470 C   0  0  1  0  0  3  0  0  0  0  0  0
  190.4980  174.0360  141.6070 C   0  0  0  0  0  0  0  0  0  0  0  0
  186.7030  176.7970  140.3100 C   0  0  0  0  0  2  0  0  0  0  0  0
  187.7840  175.8470  143.6590 C   0  0  1  0  0  3  0  0  0  0  0  0
  189.3410  174.1940  144.5050 O   0  0  0  0  0  0  0  0  0  0  0  0
  188.5260  176.3180  147.2260 O   0  0  0  0  0  0  0  0  0  0  0  0
  186.5990  178.6470  144.8460 C   0  0  1  0  0  3  0  0  0  0  0  0
  188.6160  175.9100  146.0360 C   0  0  0  0  0  0  0  0  0  0  0  0
  186.0320  178.7280  143.4330 C   0  0  2  0  0  3  0  0  0  0  0  0
  185.8120  177.4590  141.2740 C   0  0  0  0  0  0  0  0  0  0  0  0
  189.6810  174.9210  145.6700 C   0  0  2  0  0  3  0  0  0  0  0  0
  187.7290  176.4060  145.0190 N   0  0  0  0  0  0  0  0  0  0  0  0
  190.6420  173.5580  140.3060 O   0  0  0  0  0  0  0  0  0  0  0  0
  184.5440  178.9350  143.6300 C   0  0  0  0  0  2  0  0  0  0  0  0
  185.7150  179.5670  145.6780 C   0  0  0  0  0  2  0  0  0  0  0  0
  191.5150  174.1800  142.3360 O   0  0  0  0  0  0  0  0  0  0  0  0
  187.9260  176.4250  141.1430 C   0  0  1  0  0  3  0  0  0  0  0  0
  189.4920  173.3350  139.5010 C   0  0  0  0  0  2  0  0  0  0  0  0
  189.1120  174.3310  142.1210 C   0  0  2  0  0  3  0  0  0  0  0  0
  187.6690  176.9460  142.5860 C   0  0  1  0  0  3  0  0  0  0  0  0
  184.6870  177.9230  140.9470 O   0  0  0  0  0  0  0  0  0  0  0  0
  186.3430  177.5640  142.5860 N   0  0  0  0  0  0  0  0  0  0  0  0
  184.4240  179.7660  144.8950 C   0  0  0  0  0  2  0  0  0  0  0  0
  185.5480  176.6780  145.9280 C   0  0  0  0  0  2  0  0  0  0  0  0
  188.5820  174.5570  139.5780 C   0  0  0  0  0  2  0  0  0  0  0  0
  188.1760  174.9100  141.0250 C   0  0  2  0  0  3  0  0  0  0  0  0
  186.6300  177.2420  145.3900 C   0  0  0  0  0  0  0  0  0  0  0  0
  191.0520  175.5860  145.5680 C   0  0  0  0  0  2  0  0  0  0  0  0
  191.9980  176.5430  147.6430 C   0  0  0  0  0  1  0  0  0  0  0  0
  191.8710  175.2860  146.8080 C   0  0  0  0  0  2  0  0  0  0  0  0
  1  4  1  0  0  0  0
  1  5  1  1  0  0  0
  2 16  2  0  0  0  0
  3 10  1  0  0  0  0
  4 12  1  1  0  0  0
  5 11  1  0  0  0  0
  7 27  1  0  0  0  0
  7 15  1  1  0  0  0
  8  6  2  0  0  0  0
  9 14  1  1  0  0  0
  9  7  1  0  0  0  0
 10 22  1  0  0  0  0
 11 28  1  6  0  0  0
 11  8  1  0  0  0  0
 12 27  1  0  0  0  0
 12  8  1  0  0  0  0
 13  2  1  0  0  0  0
 14 23  1  0  0  0  0
 17  3  1  6  0  0  0
 17 20  1  0  0  0  0
 18 25  1  0  0  0  0
 18 13  1  0  0  0  0
 19  2  1  6  0  0  0
 19  1  1  0  0  0  0
 20 22  1  6  0  0  0
 20  4  1  0  0  0  0
 21 10  2  0  0  0  0
 22  9  1  0  0  0  0
 23 15  1  0  0  0  0
 26 25  1  6  0  0  0
 26 17  1  0  0  0  0
 26 19  1  0  0  0  0
 27 24  2  0  0  0  0
 28 30  1  0  0  0  0
 30 29  1  0  0  0  0
M  END
>  <MODEL>
4

>  <REMARK>
 VINA RESULT:      -7.8      2.161      7.144
  Name = 
  2 active torsions:
  status: ('A' for Active; 'I' for Inactive)
    1  A    between atoms: C_11  and  C_28
    2  A    between atoms: C_28  and  C_30
                            x       y       z     vdW  Elec       q    Type
                         _______ _______ _______ _____ _____    ______ ____

>  <TORSDO>
F 2

$$$$
=
 OpenBabel11112416153D

 30 35  0  0  1  0  0  0  0  0999 V2000
  187.3600  177.0100  144.0010 C   0  0  1  0  0  3  0  0  0  0  0  0
  185.3000  177.9400  142.8430 C   0  0  0  0  0  0  0  0  0  0  0  0
  188.1910  174.9410  140.3210 C   0  0  0  0  0  2  0  0  0  0  0  0
  188.6520  176.2400  143.6960 C   0  0  1  0  0  3  0  0  0  0  0  0
  187.5970  178.0170  144.9610 O   0  0  0  0  0  0  0  0  0  0  0  0
  189.5290  176.1330  147.2620 O   0  0  0  0  0  0  0  0  0  0  0  0
  190.2630  173.5260  144.5290 C   0  0  1  0  0  3  0  0  0  0  0  0
  188.9300  176.4300  146.1930 C   0  0  0  0  0  0  0  0  0  0  0  0
  190.1650  173.2920  143.0260 C   0  0  2  0  0  3  0  0  0  0  0  0
  189.4180  174.3440  140.8690 C   0  0  0  0  0  0  0  0  0  0  0  0
  187.8010  177.4150  146.2250 C   0  0  2  0  0  3  0  0  0  0  0  0
  189.2950  175.8100  144.9480 N   0  0  0  0  0  0  0  0  0  0  0  0
  184.6040  178.2980  141.6920 O   0  0  0  0  0  0  0  0  0  0  0  0
  191.5940  173.0540  142.5830 C   0  0  0  0  0  2  0  0  0  0  0  0
  191.4290  172.6590  144.9880 C   0  0  0  0  0  2  0  0  0  0  0  0
  184.7000  177.9000  143.9500 O   0  0  0  0  0  0  0  0  0  0  0  0
  187.4440  175.4320  141.5580 C   0  0  1  0  0  3  0  0  0  0  0  0
  185.2920  178.4050  140.4520 C   0  0  0  0  0  2  0  0  0  0  0  0
  186.7750  177.6480  142.7380 C   0  0  2  0  0  3  0  0  0  0  0  0
  188.3050  175.0410  142.7940 C   0  0  1  0  0  3  0  0  0  0  0  0
  190.2950  173.8130  140.1370 O   0  0  0  0  0  0  0  0  0  0  0  0
  189.5070  174.3810  142.2850 N   0  0  0  0  0  0  0  0  0  0  0  0
  192.2560  172.3430  143.7490 C   0  0  0  0  0  2  0  0  0  0  0  0
  191.6580  175.5510  144.8520 C   0  0  0  0  0  2  0  0  0  0  0  0
  186.1570  177.1650  140.2500 C   0  0  0  0  0  2  0  0  0  0  0  0
  187.1530  176.9360  141.4090 C   0  0  2  0  0  3  0  0  0  0  0  0
  190.4560  174.9760  144.8910 C   0  0  0  0  0  0  0  0  0  0  0  0
  186.5270  176.7910  146.7900 C   0  0  0  0  0  2  0  0  0  0  0  0
  184.8730  178.5670  147.2620 C   0  0  0  0  0  1  0  0  0  0  0  0
  185.9430  177.6830  147.8670 C   0  0  0  0  0  2  0  0  0  0  0  0
  1  5  1  1  0  0  0
  2 16  2  0  0  0  0
  3 10  1  0  0  0  0
  4  1  1  0  0  0  0
  4 12  1  1  0  0  0
  5 11  1  0  0  0  0
  7 27  1  0  0  0  0
  7 15  1  6  0  0  0
  8 11  1  0  0  0  0
  8  6  2  0  0  0  0
  9 14  1  6  0  0  0
  9  7  1  0  0  0  0
 10 22  1  0  0  0  0
 11 28  1  6  0  0  0
 12  8  1  0  0  0  0
 13  2  1  0  0  0  0
 14 23  1  0  0  0  0
 17  3  1  6  0  0  0
 17 20  1  0  0  0  0
 18 13  1  0  0  0  0
 19  2  1  1  0  0  0
 19  1  1  0  0  0  0
 20 22  1  6  0  0  0
 20  4  1  0  0  0  0
 21 10  2  0  0  0  0
 22  9  1  0  0  0  0
 23 15  1  0  0  0  0
 24 27  2  0  0  0  0
 25 18  1  0  0  0  0
 26 25  1  6  0  0  0
 26 17  1  0  0  0  0
 26 19  1  0  0  0  0
 27 12  1  0  0  0  0
 28 30  1  0  0  0  0
 29 30  1  0  0  0  0
M  END
>  <MODEL>
5

>  <REMARK>
 VINA RESULT:      -7.6      1.464      4.731
  Name = 
  2 active torsions:
  status: ('A' for Active; 'I' for Inactive)
    1  A    between atoms: C_11  and  C_28
    2  A    between atoms: C_28  and  C_30
                            x       y       z     vdW  Elec       q    Type
                         _______ _______ _______ _____ _____    ______ ____

>  <TORSDO>
F 2

$$$$
=
 OpenBabel11112416153D

 30 35  0  0  1  0  0  0  0  0999 V2000
  191.4600  174.3880  143.6980 C   0  0  1  0  0  3  0  0  0  0  0  0
  192.4030  173.7400  141.4310 C   0  0  0  0  0  0  0  0  0  0  0  0
  187.8550  175.4710  141.6130 C   0  0  0  0  0  2  0  0  0  0  0  0
  190.1360  174.7750  144.3710 C   0  0  1  0  0  3  0  0  0  0  0  0
  192.2240  173.5570  144.5450 O   0  0  0  0  0  0  0  0  0  0  0  0
  191.8390  175.3650  147.5720 O   0  0  0  0  0  0  0  0  0  0  0  0
  188.7650  177.1660  146.1190 C   0  0  1  0  0  3  0  0  0  0  0  0
  191.6400  175.0110  146.3780 C   0  0  0  0  0  0  0  0  0  0  0  0
  187.7760  177.1220  144.9600 C   0  0  2  0  0  3  0  0  0  0  0  0
  187.1880  175.8710  142.8600 C   0  0  0  0  0  0  0  0  0  0  0  0
  192.7350  174.3290  145.6150 C   0  0  2  0  0  3  0  0  0  0  0  0
  190.3860  175.2820  145.7300 N   0  0  0  0  0  0  0  0  0  0  0  0
  192.2350  173.3340  140.1090 O   0  0  0  0  0  0  0  0  0  0  0  0
  186.4230  176.9430  145.6180 C   0  0  0  0  0  2  0  0  0  0  0  0
  188.0010  177.8200  147.2640 C   0  0  0  0  0  2  0  0  0  0  0  0
  193.5350  174.1260  141.8270 O   0  0  0  0  0  0  0  0  0  0  0  0
  189.3310  175.4070  141.9970 C   0  0  1  0  0  3  0  0  0  0  0  0
  190.9750  172.8390  139.6740 C   0  0  0  0  0  2  0  0  0  0  0  0
  191.2240  173.6680  142.3670 C   0  0  2  0  0  3  0  0  0  0  0  0
  189.4310  175.8250  143.4920 C   0  0  1  0  0  3  0  0  0  0  0  0
  185.9410  176.0410  142.9350 O   0  0  0  0  0  0  0  0  0  0  0  0
  188.0670  176.0880  143.9530 N   0  0  0  0  0  0  0  0  0  0  0  0
  186.5200  177.6980  146.9320 C   0  0  0  0  0  2  0  0  0  0  0  0
  188.6070  174.9790  147.2800 C   0  0  0  0  0  2  0  0  0  0  0  0
  189.8760  173.7900  140.1380 C   0  0  0  0  0  2  0  0  0  0  0  0
  189.8800  174.0080  141.6670 C   0  0  2  0  0  3  0  0  0  0  0  0
  189.2970  175.8070  146.4940 C   0  0  0  0  0  0  0  0  0  0  0  0
  193.8050  175.3210  145.1650 C   0  0  0  0  0  2  0  0  0  0  0  0
  195.9280  174.2030  145.7630 C   0  0  0  0  0  1  0  0  0  0  0  0
  194.9670  175.3110  146.1380 C   0  0  0  0  0  2  0  0  0  0  0  0
  1  4  1  0  0  0  0
  1  5  1  1  0  0  0
  2 16  2  0  0  0  0
  3 10  1  0  0  0  0
  4 12  1  1  0  0  0
  5 11  1  0  0  0  0
  7 27  1  0  0  0  0
  7 15  1  1  0  0  0
  8  6  2  0  0  0  0
  9 14  1  1  0  0  0
  9  7  1  0  0  0  0
 10 21  2  0  0  0  0
 10 22  1  0  0  0  0
 11 28  1  6  0  0  0
 11  8  1  0  0  0  0
 12  8  1  0  0  0  0
 12 27  1  0  0  0  0
 13  2  1  0  0  0  0
 14 23  1  0  0  0  0
 17  3  1  1  0  0  0
 17 20  1  0  0  0  0
 18 13  1  0  0  0  0
 18 25  1  0  0  0  0
 19  2  1  6  0  0  0
 19  1  1  0  0  0  0
 20 22  1  1  0  0  0
 20  4  1  0  0  0  0
 22  9  1  0  0  0  0
 23 15  1  0  0  0  0
 26 25  1  6  0  0  0
 26 17  1  0  0  0  0
 26 19  1  0  0  0  0
 27 24  2  0  0  0  0
 28 30  1  0  0  0  0
 29 30  1  0  0  0  0
M  END
>  <MODEL>
6

>  <REMARK>
 VINA RESULT:      -7.6      2.031      7.151
  Name = 
  2 active torsions:
  status: ('A' for Active; 'I' for Inactive)
    1  A    between atoms: C_11  and  C_28
    2  A    between atoms: C_28  and  C_30
                            x       y       z     vdW  Elec       q    Type
                         _______ _______ _______ _____ _____    ______ ____

>  <TORSDO>
F 2

$$$$
=
 OpenBabel11112416153D

 30 35  0  0  1  0  0  0  0  0999 V2000
  189.5430  175.5510  143.8000 C   0  0  1  0  0  3  0  0  0  0  0  0
  191.2580  174.3170  145.2090 C   0  0  0  0  0  0  0  0  0  0  0  0
  188.0660  177.2040  147.4870 C   0  0  0  0  0  2  0  0  0  0  0  0
  188.4910  176.6630  143.9070 C   0  0  1  0  0  3  0  0  0  0  0  0
  190.2270  175.6310  142.5680 O   0  0  0  0  0  0  0  0  0  0  0  0
  187.4410  176.1200  140.4290 O   0  0  0  0  0  0  0  0  0  0  0  0
  185.3090  177.2190  143.4370 C   0  0  1  0  0  3  0  0  0  0  0  0
  188.1050  176.0360  141.4980 C   0  0  0  0  0  0  0  0  0  0  0  0
  185.4090  177.6330  144.9000 C   0  0  2  0  0  3  0  0  0  0  0  0
  187.0310  177.9800  146.7890 C   0  0  0  0  0  0  0  0  0  0  0  0
  189.3610  175.2190  141.5280 C   0  0  2  0  0  3  0  0  0  0  0  0
  187.6540  176.6890  142.6970 N   0  0  0  0  0  0  0  0  0  0  0  0
  192.0240  174.1890  146.3650 O   0  0  0  0  0  0  0  0  0  0  0  0
  184.8380  179.0360  144.9410 C   0  0  0  0  0  2  0  0  0  0  0  0
  184.0590  177.9160  142.9150 C   0  0  0  0  0  2  0  0  0  0  0  0
  191.1910  173.3590  144.3950 O   0  0  0  0  0  0  0  0  0  0  0  0
  188.5140  176.1800  146.4470 C   0  0  1  0  0  3  0  0  0  0  0  0
  192.1530  175.2900  147.2550 C   0  0  0  0  0  2  0  0  0  0  0  0
  190.5580  175.6260  144.9440 C   0  0  2  0  0  3  0  0  0  0  0  0
  187.6510  176.4190  145.1740 C   0  0  1  0  0  3  0  0  0  0  0  0
  186.4090  178.9270  147.3420 O   0  0  0  0  0  0  0  0  0  0  0  0
  186.7670  177.5480  145.4630 N   0  0  0  0  0  0  0  0  0  0  0  0
  183.7500  179.0500  143.8830 C   0  0  0  0  0  2  0  0  0  0  0  0
  186.7140  178.8040  142.1460 C   0  0  0  0  0  2  0  0  0  0  0  0
  190.7720  175.8770  147.5310 C   0  0  0  0  0  2  0  0  0  0  0  0
  190.0340  176.3000  146.2420 C   0  0  2  0  0  3  0  0  0  0  0  0
  186.5350  177.5770  142.6360 C   0  0  0  0  0  0  0  0  0  0  0  0
  189.0560  173.7240  141.5750 C   0  0  0  0  0  2  0  0  0  0  0  0
  190.5630  171.7970  141.2160 C   0  0  0  0  0  1  0  0  0  0  0  0
  189.9000  172.9870  140.5550 C   0  0  0  0  0  2  0  0  0  0  0  0
  1  5  1  6  0  0  0
  1  4  1  0  0  0  0
  1 19  1  0  0  0  0
  2 13  1  0  0  0  0
  4 12  1  6  0  0  0
  4 20  1  0  0  0  0
  6  8  2  0  0  0  0
  7 15  1  6  0  0  0
  7  9  1  0  0  0  0
  8 11  1  0  0  0  0
  8 12  1  0  0  0  0
  9 14  1  6  0  0  0
  9 22  1  0  0  0  0
 10 21  2  0  0  0  0
 10  3  1  0  0  0  0
 11 28  1  1  0  0  0
 11  5  1  0  0  0  0
 13 18  1  0  0  0  0
 15 23  1  0  0  0  0
 16  2  2  0  0  0  0
 17  3  1  1  0  0  0
 18 25  1  0  0  0  0
 19  2  1  1  0  0  0
 19 26  1  0  0  0  0
 20 22  1  1  0  0  0
 20 17  1  0  0  0  0
 22 10  1  0  0  0  0
 23 14  1  0  0  0  0
 24 27  2  0  0  0  0
 26 17  1  0  0  0  0
 26 25  1  1  0  0  0
 27 12  1  0  0  0  0
 27  7  1  0  0  0  0
 30 29  1  0  0  0  0
 30 28  1  0  0  0  0
M  END
>  <MODEL>
7

>  <REMARK>
 VINA RESULT:      -7.5      1.941      5.714
  Name = 
  2 active torsions:
  status: ('A' for Active; 'I' for Inactive)
    1  A    between atoms: C_11  and  C_28
    2  A    between atoms: C_28  and  C_30
                            x       y       z     vdW  Elec       q    Type
                         _______ _______ _______ _____ _____    ______ ____

>  <TORSDO>
F 2

$$$$
=
 OpenBabel11112416153D

 30 35  0  0  1  0  0  0  0  0999 V2000
  190.3420  175.1100  145.3810 C   0  0  1  0  0  3  0  0  0  0  0  0
  192.4500  173.6970  145.3060 C   0  0  0  0  0  0  0  0  0  0  0  0
  189.8610  174.1700  141.2090 C   0  0  0  0  0  2  0  0  0  0  0  0
  189.1030  175.4470  144.5390 C   0  0  1  0  0  3  0  0  0  0  0  0
  189.9990  174.9960  146.7450 O   0  0  0  0  0  0  0  0  0  0  0  0
  187.9650  177.8860  147.0390 O   0  0  0  0  0  0  0  0  0  0  0  0
  187.5280  177.9820  143.2170 C   0  0  1  0  0  3  0  0  0  0  0  0
  188.6320  176.9670  146.4920 C   0  0  0  0  0  0  0  0  0  0  0  0
  187.7460  177.1540  141.9560 C   0  0  2  0  0  3  0  0  0  0  0  0
  188.6180  174.9500  141.1190 C   0  0  0  0  0  0  0  0  0  0  0  0
  189.7210  176.2830  147.2630 C   0  0  2  0  0  3  0  0  0  0  0  0
  188.3830  176.5870  145.1280 N   0  0  0  0  0  0  0  0  0  0  0  0
  193.2190  172.6790  144.7470 O   0  0  0  0  0  0  0  0  0  0  0  0
  186.3640  176.9990  141.3560 C   0  0  0  0  0  2  0  0  0  0  0  0
  186.3610  178.9030  142.8860 C   0  0  0  0  0  2  0  0  0  0  0  0
  192.9660  174.4810  146.1460 O   0  0  0  0  0  0  0  0  0  0  0  0
  190.4960  174.6500  142.5120 C   0  0  1  0  0  3  0  0  0  0  0  0
  192.6230  171.7540  143.8460 C   0  0  0  0  0  2  0  0  0  0  0  0
  190.9980  173.8070  144.9170 C   0  0  2  0  0  3  0  0  0  0  0  0
  189.5580  175.7440  143.0980 C   0  0  1  0  0  3  0  0  0  0  0  0
  187.8160  174.8340  140.1540 O   0  0  0  0  0  0  0  0  0  0  0  0
  188.4210  175.8660  142.1860 N   0  0  0  0  0  0  0  0  0  0  0  0
  185.6400  178.2910  141.6920 C   0  0  0  0  0  2  0  0  0  0  0  0
  186.0440  176.6560  144.6980 C   0  0  0  0  0  2  0  0  0  0  0  0
  191.8180  172.5200  142.8020 C   0  0  0  0  0  2  0  0  0  0  0  0
  190.7460  173.4390  143.4280 C   0  0  2  0  0  3  0  0  0  0  0  0
  187.2590  177.1400  144.4380 C   0  0  0  0  0  0  0  0  0  0  0  0
  190.9690  177.1570  147.3650 C   0  0  0  0  0  2  0  0  0  0  0  0
  191.1910  178.2910  149.5510 C   0  0  0  0  0  1  0  0  0  0  0  0
  191.5630  177.0570  148.7550 C   0  0  0  0  0  2  0  0  0  0  0  0
  1  5  1  1  0  0  0
  2 16  2  0  0  0  0
  4 12  1  1  0  0  0
  4  1  1  0  0  0  0
  5 11  1  0  0  0  0
  7 15  1  6  0  0  0
  7 27  1  0  0  0  0
  8  6  2  0  0  0  0
  8 11  1  0  0  0  0
  9 14  1  1  0  0  0
  9 22  1  0  0  0  0
  9  7  1  0  0  0  0
 10  3  1  0  0  0  0
 10 22  1  0  0  0  0
 11 28  1  6  0  0  0
 12  8  1  0  0  0  0
 13  2  1  0  0  0  0
 14 23  1  0  0  0  0
 17  3  1  6  0  0  0
 17 20  1  0  0  0  0
 17 26  1  0  0  0  0
 18 13  1  0  0  0  0
 19  2  1  6  0  0  0
 19  1  1  0  0  0  0
 20 22  1  6  0  0  0
 20  4  1  0  0  0  0
 21 10  2  0  0  0  0
 23 15  1  0  0  0  0
 25 18  1  0  0  0  0
 26 25  1  6  0  0  0
 26 19  1  0  0  0  0
 27 24  2  0  0  0  0
 27 12  1  0  0  0  0
 28 30  1  0  0  0  0
 30 29  1  0  0  0  0
M  END
>  <MODEL>
8

>  <REMARK>
 VINA RESULT:      -7.3      1.787      6.972
  Name = 
  2 active torsions:
  status: ('A' for Active; 'I' for Inactive)
    1  A    between atoms: C_11  and  C_28
    2  A    between atoms: C_28  and  C_30
                            x       y       z     vdW  Elec       q    Type
                         _______ _______ _______ _____ _____    ______ ____

>  <TORSDO>
F 2

$$$$
=
 OpenBabel11112416153D

 30 35  0  0  1  0  0  0  0  0999 V2000
  190.5440  174.3370  142.9830 C   0  0  1  0  0  3  0  0  0  0  0  0
  192.3710  172.8910  143.9930 C   0  0  0  0  0  0  0  0  0  0  0  0
  190.0530  176.0270  146.9100 C   0  0  0  0  0  2  0  0  0  0  0  0
  189.6630  175.5490  143.3170 C   0  0  1  0  0  3  0  0  0  0  0  0
  190.9610  174.3810  141.6360 O   0  0  0  0  0  0  0  0  0  0  0  0
  187.8600  175.2190  140.1330 O   0  0  0  0  0  0  0  0  0  0  0  0
  186.5320  176.4460  143.5290 C   0  0  1  0  0  3  0  0  0  0  0  0
  188.7190  175.0360  141.0380 C   0  0  0  0  0  0  0  0  0  0  0  0
  186.9780  176.8050  144.9410 C   0  0  2  0  0  3  0  0  0  0  0  0
  188.9860  176.9270  146.4500 C   0  0  0  0  0  0  0  0  0  0  0  0
  189.8580  174.0920  140.7980 C   0  0  2  0  0  3  0  0  0  0  0  0
  188.6000  175.6970  142.3090 N   0  0  0  0  0  0  0  0  0  0  0  0
  193.3430  172.6510  144.9610 O   0  0  0  0  0  0  0  0  0  0  0  0
  186.5830  178.2580  145.1100 C   0  0  0  0  0  2  0  0  0  0  0  0
  185.2830  177.2840  143.2860 C   0  0  0  0  0  2  0  0  0  0  0  0
  192.0330  171.9690  143.2040 O   0  0  0  0  0  0  0  0  0  0  0  0
  190.1620  174.9930  145.7910 C   0  0  1  0  0  3  0  0  0  0  0  0
  193.7720  173.7070  145.8120 C   0  0  0  0  0  2  0  0  0  0  0  0
  191.7770  174.2730  143.8890 C   0  0  2  0  0  3  0  0  0  0  0  0
  189.0840  175.3570  144.7300 C   0  0  1  0  0  3  0  0  0  0  0  0
  188.5980  177.9170  147.1260 O   0  0  0  0  0  0  0  0  0  0  0  0
  188.4060  176.5630  145.2060 N   0  0  0  0  0  0  0  0  0  0  0  0
  185.3060  178.4160  144.3050 C   0  0  0  0  0  2  0  0  0  0  0  0
  187.8000  177.9130  141.9820 C   0  0  0  0  0  2  0  0  0  0  0  0
  192.5500  174.4250  146.3750 C   0  0  0  0  0  2  0  0  0  0  0  0
  191.6100  174.9600  145.2720 C   0  0  2  0  0  3  0  0  0  0  0  0
  187.5950  176.6980  142.4910 C   0  0  0  0  0  0  0  0  0  0  0  0
  189.4100  172.6360  140.8990 C   0  0  0  0  0  2  0  0  0  0  0  0
  191.0400  171.0550  139.9190 C   0  0  0  0  0  1  0  0  0  0  0  0
  189.8020  171.8820  139.6440 C   0  0  0  0  0  2  0  0  0  0  0  0
  1  5  1  6  0  0  0
  1  4  1  0  0  0  0
  1 19  1  0  0  0  0
  2 13  1  0  0  0  0
  4 12  1  6  0  0  0
  4 20  1  0  0  0  0
  6  8  2  0  0  0  0
  7 15  1  6  0  0  0
  7  9  1  0  0  0  0
  8 12  1  0  0  0  0
  9 14  1  6  0  0  0
  9 22  1  0  0  0  0
 10  3  1  0  0  0  0
 10 21  2  0  0  0  0
 11 28  1  1  0  0  0
 11  8  1  0  0  0  0
 11  5  1  0  0  0  0
 12 27  1  0  0  0  0
 13 18  1  0  0  0  0
 15 23  1  0  0  0  0
 16  2  2  0  0  0  0
 17  3  1  1  0  0  0
 18 25  1  0  0  0  0
 19  2  1  1  0  0  0
 19 26  1  0  0  0  0
 20 22  1  1  0  0  0
 20 17  1  0  0  0  0
 22 10  1  0  0  0  0
 23 14  1  0  0  0  0
 24 27  2  0  0  0  0
 26 17  1  0  0  0  0
 26 25  1  1  0  0  0
 27  7  1  0  0  0  0
 30 29  1  0  0  0  0
 30 28  1  0  0  0  0
M  END
>  <MODEL>
9

>  <REMARK>
 VINA RESULT:      -7.2      2.099      5.851
  Name = 
  2 active torsions:
  status: ('A' for Active; 'I' for Inactive)
    1  A    between atoms: C_11  and  C_28
    2  A    between atoms: C_28  and  C_30
                            x       y       z     vdW  Elec       q    Type
                         _______ _______ _______ _____ _____    ______ ____

>  <TORSDO>
F 2

$$$$
