=
 OpenBabel11112417483D

 34 40  0  0  1  0  0  0  0  0999 V2000
  190.0030  175.3400  142.4610 C   0  0  0  0  0  0  0  0  0  0  0  0
  192.3480  174.3760  142.0930 C   0  0  0  0  0  2  0  0  0  0  0  0
  186.2020  178.7290  146.3390 C   0  0  2  0  0  3  0  0  0  0  0  0
  187.7370  175.9330  143.0870 C   0  0  0  0  0  0  0  0  0  0  0  0
  187.2860  176.5740  145.4750 C   0  0  2  0  0  3  0  0  0  0  0  0
  185.1290  176.5580  146.5750 O   0  0  0  0  0  1  0  0  0  0  0  0
  185.9660  179.3870  147.6830 C   0  0  0  0  0  1  0  0  0  0  0  0
  185.0180  178.3490  144.0690 C   0  0  0  0  0  2  0  0  0  0  0  0
  191.6630  175.1120  144.2270 C   0  0  2  0  0  3  0  0  0  0  0  0
  193.6380  176.6400  146.1770 C   0  0  0  0  0  2  0  0  0  0  0  0
  188.7000  177.1510  145.5340 C   0  0  0  0  0  2  0  0  0  0  0  0
  186.3790  177.9590  143.5220 C   0  0  0  0  0  2  0  0  0  0  0  0
  191.0190  176.2330  145.0510 C   0  0  1  0  0  3  0  0  0  0  0  0
  193.5770  174.3040  142.9970 C   0  0  0  0  0  2  0  0  0  0  0  0
  186.7470  176.5660  144.0290 C   0  0  1  0  0  3  0  0  0  0  0  0
  185.1050  179.1630  145.3600 C   0  0  0  0  0  2  0  0  0  0  0  0
  193.9860  176.0560  144.7910 C   0  0  2  0  0  3  0  0  0  0  0  0
  189.1100  175.8970  143.3970 C   0  0  0  0  0  0  0  0  0  0  0  0
  186.3620  177.2150  146.5190 C   0  0  2  0  0  3  0  0  0  0  0  0
  189.5920  176.3620  144.6860 N   0  0  0  0  0  0  0  0  0  0  0  0
  188.2210  174.9000  140.9570 C   0  0  0  0  0  3  0  0  0  0  0  0
  192.6540  175.7940  146.9880 C   0  0  0  0  0  2  0  0  0  0  0  0
  187.2960  175.4300  141.8600 C   0  0  0  0  0  3  0  0  0  0  0  0
  191.1970  176.0040  146.5590 C   0  0  0  0  0  2  0  0  0  0  0  0
  193.1540  174.8230  144.3790 C   0  0  1  0  0  3  0  0  0  0  0  0
  189.5440  174.8750  141.2660 N   0  0  0  0  0  0  0  0  0  0  0  0
  191.4670  175.3960  142.7680 C   0  0  2  0  0  3  0  0  0  0  0  0
  195.4030  175.7350  144.7620 N   0  0  0  0  0  2  0  0  0  0  0  0
  196.0760  176.8390  144.0980 C   0  0  0  0  0  2  0  0  0  0  0  0
  196.8220  176.0640  140.5980 N   0  0  0  0  0  0  0  0  0  0  0  0
  197.6890  175.5660  142.6960 C   0  0  0  0  0  3  0  0  0  0  0  0
  196.6530  176.3730  142.8090 C   0  0  0  0  0  0  0  0  0  0  0  0
  197.8960  175.3120  141.2370 C   0  0  0  0  0  3  0  0  0  0  0  0
  196.1180  176.6640  141.4960 C   0  0  0  0  0  2  0  0  0  0  0  0
  1 27  1  0  0  0  0
  1 18  1  0  0  0  0
  2 27  1  0  0  0  0
  2 14  1  0  0  0  0
  3 19  1  0  0  0  0
  3  7  1  1  0  0  0
  4 18  2  0  0  0  0
  4 15  1  0  0  0  0
  5 11  1  6  0  0  0
  5 19  1  0  0  0  0
  8 16  1  0  0  0  0
  9 25  1  0  0  0  0
  9 13  1  0  0  0  0
 10 22  1  0  0  0  0
 12 15  1  0  0  0  0
 12  8  1  0  0  0  0
 13 24  1  0  0  0  0
 14 25  1  0  0  0  0
 15  5  1  0  0  0  0
 16  3  1  0  0  0  0
 17 10  1  0  0  0  0
 18 20  1  0  0  0  0
 19  6  1  0  0  0  0
 20 13  1  0  0  0  0
 20 11  1  0  0  0  0
 21 26  1  0  0  0  0
 21 23  2  0  0  0  0
 23  4  1  0  0  0  0
 24 22  1  0  0  0  0
 25 17  1  0  0  0  0
 26  1  2  0  0  0  0
 27  9  1  0  0  0  0
 28 17  1  0  0  0  0
 29 28  1  0  0  0  0
 30 33  2  0  0  0  0
 30 34  1  0  0  0  0
 31 32  2  0  0  0  0
 32 29  1  0  0  0  0
 33 31  1  0  0  0  0
 34 32  1  0  0  0  0
M  END
>  <MODEL>
1

>  <REMARK>
 VINA RESULT:      -9.2      0.000      0.000
  Name = 
  3 active torsions:
  status: ('A' for Active; 'I' for Inactive)
    1  A    between atoms: C_17  and  N_28
    2  A    between atoms: N_28  and  C_29
    3  A    between atoms: C_29  and  C_32
                            x       y       z     vdW  Elec       q    Type
                         _______ _______ _______ _____ _____    ______ ____

>  <TORSDO>
F 3

$$$$
=
 OpenBabel11112417483D

 34 40  0  0  1  0  0  0  0  0999 V2000
  190.0510  175.3780  142.5050 C   0  0  0  0  0  0  0  0  0  0  0  0
  192.4050  174.4220  142.1790 C   0  0  0  0  0  2  0  0  0  0  0  0
  186.1580  178.7150  146.3370 C   0  0  2  0  0  3  0  0  0  0  0  0
  187.7710  175.9610  143.0870 C   0  0  0  0  0  0  0  0  0  0  0  0
  187.2650  176.5720  145.4720 C   0  0  2  0  0  3  0  0  0  0  0  0
  185.0830  176.5400  146.5220 O   0  0  0  0  0  1  0  0  0  0  0  0
  185.8900  179.3560  147.6830 C   0  0  0  0  0  1  0  0  0  0  0  0
  185.0260  178.3610  144.0360 C   0  0  0  0  0  2  0  0  0  0  0  0
  191.6710  175.1300  144.3060 C   0  0  2  0  0  3  0  0  0  0  0  0
  193.5990  176.6370  146.3180 C   0  0  0  0  0  2  0  0  0  0  0  0
  188.6750  177.1500  145.5690 C   0  0  0  0  0  2  0  0  0  0  0  0
  186.4000  177.9790  143.5150 C   0  0  0  0  0  2  0  0  0  0  0  0
  191.0070  176.2400  145.1280 C   0  0  1  0  0  3  0  0  0  0  0  0
  193.6130  174.3390  143.1100 C   0  0  0  0  0  2  0  0  0  0  0  0
  186.7590  176.5800  144.0140 C   0  0  1  0  0  3  0  0  0  0  0  0
  185.0830  179.1590  145.3380 C   0  0  0  0  0  2  0  0  0  0  0  0
  193.9790  176.0700  144.9340 C   0  0  2  0  0  3  0  0  0  0  0  0
  189.1360  175.9220  143.4270 C   0  0  0  0  0  0  0  0  0  0  0  0
  186.3160  177.1990  146.5020 C   0  0  2  0  0  3  0  0  0  0  0  0
  189.5880  176.3720  144.7320 N   0  0  0  0  0  0  0  0  0  0  0  0
  188.3040  174.9540  140.9560 C   0  0  0  0  0  3  0  0  0  0  0  0
  192.5980  175.7800  147.0970 C   0  0  0  0  0  2  0  0  0  0  0  0
  187.3580  175.4720  141.8440 C   0  0  0  0  0  3  0  0  0  0  0  0
  191.1510  175.9930  146.6370 C   0  0  0  0  0  2  0  0  0  0  0  0
  193.1580  174.8410  144.4880 C   0  0  1  0  0  3  0  0  0  0  0  0
  189.6200  174.9270  141.2950 N   0  0  0  0  0  0  0  0  0  0  0  0
  191.5070  175.4320  142.8460 C   0  0  2  0  0  3  0  0  0  0  0  0
  195.3970  175.7520  144.9330 N   0  0  0  0  0  2  0  0  0  0  0  0
  195.6120  174.7590  145.9720 C   0  0  0  0  0  2  0  0  0  0  0  0
  197.9410  172.6400  144.1030 N   0  0  0  0  0  0  0  0  0  0  0  0
  196.5080  172.4390  145.9210 C   0  0  0  0  0  3  0  0  0  0  0  0
  196.4850  173.6720  145.4550 C   0  0  0  0  0  0  0  0  0  0  0  0
  197.4770  171.6670  145.0850 C   0  0  0  0  0  2  0  0  0  0  0  0
  197.3730  173.7780  144.3170 C   0  0  0  0  0  3  0  0  0  0  0  0
  1 27  1  0  0  0  0
  1 18  1  0  0  0  0
  2 27  1  0  0  0  0
  2 14  1  0  0  0  0
  3 19  1  0  0  0  0
  3  7  1  1  0  0  0
  4 18  2  0  0  0  0
  4 15  1  0  0  0  0
  5 11  1  6  0  0  0
  5 19  1  0  0  0  0
  8 16  1  0  0  0  0
  9 25  1  0  0  0  0
  9 13  1  0  0  0  0
 10 22  1  0  0  0  0
 12 15  1  0  0  0  0
 12  8  1  0  0  0  0
 13 24  1  0  0  0  0
 14 25  1  0  0  0  0
 15  5  1  0  0  0  0
 16  3  1  0  0  0  0
 17 10  1  0  0  0  0
 18 20  1  0  0  0  0
 19  6  1  0  0  0  0
 20 13  1  0  0  0  0
 20 11  1  0  0  0  0
 21 26  1  0  0  0  0
 21 23  2  0  0  0  0
 23  4  1  0  0  0  0
 24 22  1  0  0  0  0
 25 17  1  0  0  0  0
 26  1  2  0  0  0  0
 27  9  1  0  0  0  0
 28 17  1  0  0  0  0
 28 29  1  0  0  0  0
 30 34  2  0  0  0  0
 30 33  1  0  0  0  0
 32 31  2  0  0  0  0
 32 29  1  0  0  0  0
 33 31  1  0  0  0  0
 34 32  1  0  0  0  0
M  END
>  <MODEL>
2

>  <REMARK>
 VINA RESULT:      -9.1      1.540      1.844
  Name = 
  3 active torsions:
  status: ('A' for Active; 'I' for Inactive)
    1  A    between atoms: C_17  and  N_28
    2  A    between atoms: N_28  and  C_29
    3  A    between atoms: C_29  and  C_32
                            x       y       z     vdW  Elec       q    Type
                         _______ _______ _______ _____ _____    ______ ____

>  <TORSDO>
F 3

$$$$
=
 OpenBabel11112417483D

 34 40  0  0  1  0  0  0  0  0999 V2000
  189.8510  176.9190  146.0810 C   0  0  0  0  0  0  0  0  0  0  0  0
  187.3520  177.4090  146.3590 C   0  0  0  0  0  2  0  0  0  0  0  0
  194.6360  175.8940  141.9550 C   0  0  2  0  0  3  0  0  0  0  0  0
  192.0910  176.0600  145.7280 C   0  0  0  0  0  0  0  0  0  0  0  0
  192.6870  175.1740  143.4530 C   0  0  2  0  0  3  0  0  0  0  0  0
  194.5160  173.6720  142.9400 O   0  0  0  0  0  1  0  0  0  0  0  0
  195.1000  175.6260  140.5380 C   0  0  0  0  0  1  0  0  0  0  0  0
  195.5910  176.1970  144.3420 C   0  0  0  0  0  2  0  0  0  0  0  0
  188.2090  176.6150  144.3090 C   0  0  2  0  0  3  0  0  0  0  0  0
  187.1330  177.6810  141.5270 C   0  0  0  0  0  2  0  0  0  0  0  0
  191.7270  176.2030  142.8580 C   0  0  0  0  0  2  0  0  0  0  0  0
  194.2370  176.7720  144.7180 C   0  0  0  0  0  2  0  0  0  0  0  0
  189.2770  176.7710  143.2200 C   0  0  1  0  0  3  0  0  0  0  0  0
  186.2020  177.4530  145.3550 C   0  0  0  0  0  2  0  0  0  0  0  0
  193.2190  175.6380  144.8260 C   0  0  1  0  0  3  0  0  0  0  0  0
  195.8500  176.2160  142.8350 C   0  0  0  0  0  2  0  0  0  0  0  0
  186.6090  178.0730  142.9250 C   0  0  2  0  0  3  0  0  0  0  0  0
  190.8590  176.4860  145.1970 C   0  0  0  0  0  0  0  0  0  0  0  0
  193.7570  174.7380  142.4440 C   0  0  2  0  0  3  0  0  0  0  0  0
  190.6030  176.4170  143.7690 N   0  0  0  0  0  0  0  0  0  0  0  0
  191.2650  176.5390  147.9490 C   0  0  0  0  0  3  0  0  0  0  0  0
  187.5480  176.2130  141.3990 C   0  0  0  0  0  2  0  0  0  0  0  0
  192.2890  176.0870  147.1120 C   0  0  0  0  0  3  0  0  0  0  0  0
  188.9420  175.9390  141.9740 C   0  0  0  0  0  2  0  0  0  0  0  0
  186.7590  176.9810  144.0050 C   0  0  1  0  0  3  0  0  0  0  0  0
  190.0820  176.9520  147.4230 N   0  0  0  0  0  0  0  0  0  0  0  0
  188.5850  177.4570  145.4920 C   0  0  2  0  0  3  0  0  0  0  0  0
  185.2160  178.4710  142.8080 N   0  0  0  0  0  2  0  0  0  0  0  0
  184.8090  178.1990  141.4400 C   0  0  0  0  0  2  0  0  0  0  0  0
  181.3010  178.0980  140.3940 N   0  0  0  0  0  0  0  0  0  0  0  0
  182.5160  178.6410  142.2990 C   0  0  0  0  0  3  0  0  0  0  0  0
  183.3250  178.2340  141.3410 C   0  0  0  0  0  0  0  0  0  0  0  0
  181.1230  178.5670  141.7640 C   0  0  0  0  0  2  0  0  0  0  0  0
  182.5550  177.9110  140.1590 C   0  0  0  0  0  3  0  0  0  0  0  0
  1 26  1  0  0  0  0
  3  7  1  6  0  0  0
  3 19  1  0  0  0  0
  3 16  1  0  0  0  0
  4 23  2  0  0  0  0
  5 11  1  6  0  0  0
  5 15  1  0  0  0  0
  8 12  1  0  0  0  0
  9 27  1  0  0  0  0
 10 17  1  0  0  0  0
 11 20  1  0  0  0  0
 12 15  1  0  0  0  0
 13 20  1  0  0  0  0
 13  9  1  0  0  0  0
 14  2  1  0  0  0  0
 15  4  1  0  0  0  0
 16  8  1  0  0  0  0
 17 25  1  0  0  0  0
 18  4  1  0  0  0  0
 18  1  2  0  0  0  0
 19  6  1  0  0  0  0
 19  5  1  0  0  0  0
 20 18  1  0  0  0  0
 22 10  1  0  0  0  0
 22 24  1  0  0  0  0
 23 21  1  0  0  0  0
 24 13  1  0  0  0  0
 25  9  1  0  0  0  0
 25 14  1  0  0  0  0
 26 21  2  0  0  0  0
 27  1  1  0  0  0  0
 27  2  1  0  0  0  0
 28 17  1  0  0  0  0
 29 28  1  0  0  0  0
 30 33  1  0  0  0  0
 32 29  1  0  0  0  0
 32 31  2  0  0  0  0
 33 31  1  0  0  0  0
 34 30  2  0  0  0  0
 34 32  1  0  0  0  0
M  END
>  <MODEL>
3

>  <REMARK>
 VINA RESULT:      -8.6      3.091      9.181
  Name = 
  3 active torsions:
  status: ('A' for Active; 'I' for Inactive)
    1  A    between atoms: C_17  and  N_28
    2  A    between atoms: N_28  and  C_29
    3  A    between atoms: C_29  and  C_32
                            x       y       z     vdW  Elec       q    Type
                         _______ _______ _______ _____ _____    ______ ____

>  <TORSDO>
F 3

$$$$
=
 OpenBabel11112417483D

 34 40  0  0  1  0  0  0  0  0999 V2000
  192.9740  175.8930  142.9800 C   0  0  0  0  0  0  0  0  0  0  0  0
  191.2720  177.7880  143.2540 C   0  0  0  0  0  2  0  0  0  0  0  0
  195.3060  170.4530  145.4200 C   0  0  2  0  0  3  0  0  0  0  0  0
  194.8000  174.2990  143.0300 C   0  0  0  0  0  0  0  0  0  0  0  0
  195.1940  172.9990  145.1450 C   0  0  2  0  0  3  0  0  0  0  0  0
  197.2480  171.8780  145.7700 O   0  0  0  0  0  1  0  0  0  0  0  0
  195.3810  169.4670  146.5660 C   0  0  0  0  0  1  0  0  0  0  0  0
  196.2660  170.8280  143.0450 C   0  0  0  0  0  2  0  0  0  0  0  0
  191.8030  176.3670  145.0610 C   0  0  2  0  0  3  0  0  0  0  0  0
  189.5960  175.3750  147.1070 C   0  0  0  0  0  2  0  0  0  0  0  0
  193.6890  173.0530  145.3990 C   0  0  0  0  0  2  0  0  0  0  0  0
  195.1630  171.8550  142.8550 C   0  0  0  0  0  2  0  0  0  0  0  0
  191.9760  174.9240  145.5490 C   0  0  1  0  0  3  0  0  0  0  0  0
  190.3150  178.1460  144.3900 C   0  0  0  0  0  2  0  0  0  0  0  0
  195.5100  173.1190  143.6390 C   0  0  1  0  0  3  0  0  0  0  0  0
  195.9770  169.8470  144.1810 C   0  0  0  0  0  2  0  0  0  0  0  0
  189.3840  176.3530  145.9310 C   0  0  2  0  0  3  0  0  0  0  0  0
  193.6310  174.8210  143.6150 C   0  0  0  0  0  0  0  0  0  0  0  0
  195.8540  171.8150  145.8640 C   0  0  2  0  0  3  0  0  0  0  0  0
  193.1450  174.3110  144.8850 N   0  0  0  0  0  0  0  0  0  0  0  0
  194.5800  175.8990  141.2340 C   0  0  0  0  0  3  0  0  0  0  0  0
  190.9390  175.5340  147.8240 C   0  0  0  0  0  2  0  0  0  0  0  0
  195.2730  174.8450  141.8340 C   0  0  0  0  0  3  0  0  0  0  0  0
  192.0930  174.8520  147.0790 C   0  0  0  0  0  2  0  0  0  0  0  0
  190.6220  177.1970  145.5570 C   0  0  1  0  0  3  0  0  0  0  0  0
  193.4500  176.3910  141.8060 N   0  0  0  0  0  0  0  0  0  0  0  0
  191.6830  176.3710  143.5670 C   0  0  2  0  0  3  0  0  0  0  0  0
  188.2620  177.2220  146.2420 N   0  0  0  0  0  2  0  0  0  0  0  0
  187.1220  176.7330  145.4850 C   0  0  0  0  0  2  0  0  0  0  0  0
  185.9990  179.1320  142.9560 N   0  0  0  0  0  0  0  0  0  0  0  0
  185.8730  178.8730  145.2630 C   0  0  0  0  0  3  0  0  0  0  0  0
  186.5080  177.8520  144.7220 C   0  0  0  0  0  0  0  0  0  0  0  0
  185.4710  179.7850  144.1490 C   0  0  0  0  0  2  0  0  0  0  0  0
  186.5890  178.0340  143.2890 C   0  0  0  0  0  3  0  0  0  0  0  0
  1 27  1  0  0  0  0
  1 18  1  0  0  0  0
  2 27  1  0  0  0  0
  2 14  1  0  0  0  0
  3 19  1  0  0  0  0
  3  7  1  1  0  0  0
  4 18  2  0  0  0  0
  4 15  1  0  0  0  0
  5 11  1  6  0  0  0
  5 19  1  0  0  0  0
  6 19  1  0  0  0  0
  8 16  1  0  0  0  0
  9 13  1  0  0  0  0
  9 25  1  0  0  0  0
 10 22  1  0  0  0  0
 12  8  1  0  0  0  0
 12 15  1  0  0  0  0
 13 24  1  0  0  0  0
 14 25  1  0  0  0  0
 15  5  1  0  0  0  0
 16  3  1  0  0  0  0
 17 28  1  0  0  0  0
 17 10  1  0  0  0  0
 18 20  1  0  0  0  0
 20 11  1  0  0  0  0
 20 13  1  0  0  0  0
 21 26  1  0  0  0  0
 21 23  2  0  0  0  0
 23  4  1  0  0  0  0
 24 22  1  0  0  0  0
 25 17  1  0  0  0  0
 26  1  2  0  0  0  0
 27  9  1  0  0  0  0
 29 28  1  0  0  0  0
 30 34  2  0  0  0  0
 30 33  1  0  0  0  0
 32 31  2  0  0  0  0
 32 29  1  0  0  0  0
 33 31  1  0  0  0  0
 34 32  1  0  0  0  0
M  END
>  <MODEL>
4

>  <REMARK>
 VINA RESULT:      -8.4      3.478      8.555
  Name = 
  3 active torsions:
  status: ('A' for Active; 'I' for Inactive)
    1  A    between atoms: C_17  and  N_28
    2  A    between atoms: N_28  and  C_29
    3  A    between atoms: C_29  and  C_32
                            x       y       z     vdW  Elec       q    Type
                         _______ _______ _______ _____ _____    ______ ____

>  <TORSDO>
F 3

$$$$
=
 OpenBabel11112417483D

 34 40  0  0  1  0  0  0  0  0999 V2000
  189.8060  175.2390  145.0730 C   0  0  0  0  0  0  0  0  0  0  0  0
  191.4760  173.5430  144.1260 C   0  0  0  0  0  2  0  0  0  0  0  0
  184.3070  178.3760  144.1270 C   0  0  2  0  0  3  0  0  0  0  0  0
  188.3950  177.1130  145.6880 C   0  0  0  0  0  0  0  0  0  0  0  0
  186.8440  178.0610  143.9520 C   0  0  2  0  0  3  0  0  0  0  0  0
  185.8370  180.2630  143.9870 O   0  0  0  0  0  1  0  0  0  0  0  0
  183.1750  178.7710  143.2010 C   0  0  0  0  0  1  0  0  0  0  0  0
  185.1090  178.7340  146.5620 C   0  0  0  0  0  2  0  0  0  0  0  0
  189.8620  174.5590  142.7360 C   0  0  2  0  0  3  0  0  0  0  0  0
  188.3860  172.9480  140.4430 C   0  0  0  0  0  2  0  0  0  0  0  0
  186.7230  176.6550  143.3670 C   0  0  0  0  0  2  0  0  0  0  0  0
  186.0470  177.5620  146.3340 C   0  0  0  0  0  2  0  0  0  0  0  0
  188.3860  174.9210  142.5400 C   0  0  1  0  0  3  0  0  0  0  0  0
  191.5760  172.8590  142.7640 C   0  0  0  0  0  2  0  0  0  0  0  0
  187.2100  178.0100  145.4510 C   0  0  1  0  0  3  0  0  0  0  0  0
  183.9510  178.7740  145.5640 C   0  0  0  0  0  2  0  0  0  0  0  0
  189.5000  172.4140  141.3680 C   0  0  2  0  0  3  0  0  0  0  0  0
  188.7170  176.0850  144.7820 C   0  0  0  0  0  0  0  0  0  0  0  0
  185.6340  178.9350  143.5990 C   0  0  2  0  0  3  0  0  0  0  0  0
  187.9860  175.9370  143.5360 N   0  0  0  0  0  0  0  0  0  0  0  0
  190.2130  176.3920  147.1070 C   0  0  0  0  0  3  0  0  0  0  0  0
  188.5610  174.4100  140.0240 C   0  0  0  0  0  2  0  0  0  0  0  0
  189.1510  177.2640  146.8540 C   0  0  0  0  0  3  0  0  0  0  0  0
  188.1030  175.3950  141.1060 C   0  0  0  0  0  2  0  0  0  0  0  0
  190.4990  173.4810  141.8640 C   0  0  1  0  0  3  0  0  0  0  0  0
  190.5110  175.3990  146.2270 N   0  0  0  0  0  0  0  0  0  0  0  0
  190.0730  174.0950  144.1470 C   0  0  2  0  0  3  0  0  0  0  0  0
  190.2080  171.3470  140.6800 N   0  0  0  0  0  2  0  0  0  0  0  0
  189.9950  171.5430  139.2560 C   0  0  0  0  0  2  0  0  0  0  0  0
  193.2890  171.4430  137.6590 N   0  0  0  0  0  0  0  0  0  0  0  0
  191.7760  173.0490  138.3900 C   0  0  0  0  0  3  0  0  0  0  0  0
  191.2910  171.8390  138.5900 C   0  0  0  0  0  0  0  0  0  0  0  0
  193.1160  172.8880  137.7470 C   0  0  0  0  0  3  0  0  0  0  0  0
  192.2490  170.8520  138.1410 C   0  0  0  0  0  2  0  0  0  0  0  0
  1 26  1  0  0  0  0
  2 27  1  0  0  0  0
  3  7  1  6  0  0  0
  3 16  1  0  0  0  0
  4 23  2  0  0  0  0
  5 11  1  1  0  0  0
  5 15  1  0  0  0  0
  9 27  1  0  0  0  0
 10 17  1  0  0  0  0
 11 20  1  0  0  0  0
 12  8  1  0  0  0  0
 13  9  1  0  0  0  0
 13 20  1  0  0  0  0
 14  2  1  0  0  0  0
 15  4  1  0  0  0  0
 15 12  1  0  0  0  0
 16  8  1  0  0  0  0
 17 25  1  0  0  0  0
 18  1  2  0  0  0  0
 18  4  1  0  0  0  0
 19  5  1  0  0  0  0
 19  6  1  0  0  0  0
 19  3  1  0  0  0  0
 20 18  1  0  0  0  0
 22 10  1  0  0  0  0
 22 24  1  0  0  0  0
 23 21  1  0  0  0  0
 24 13  1  0  0  0  0
 25  9  1  0  0  0  0
 25 14  1  0  0  0  0
 26 21  2  0  0  0  0
 27  1  1  0  0  0  0
 28 17  1  0  0  0  0
 29 28  1  0  0  0  0
 30 33  2  0  0  0  0
 30 34  1  0  0  0  0
 31 32  2  0  0  0  0
 32 29  1  0  0  0  0
 33 31  1  0  0  0  0
 34 32  1  0  0  0  0
M  END
>  <MODEL>
5

>  <REMARK>
 VINA RESULT:      -8.4      3.269      5.224
  Name = 
  3 active torsions:
  status: ('A' for Active; 'I' for Inactive)
    1  A    between atoms: C_17  and  N_28
    2  A    between atoms: N_28  and  C_29
    3  A    between atoms: C_29  and  C_32
                            x       y       z     vdW  Elec       q    Type
                         _______ _______ _______ _____ _____    ______ ____

>  <TORSDO>
F 3

$$$$
=
 OpenBabel11112417483D

 34 40  0  0  1  0  0  0  0  0999 V2000
  192.1930  176.3940  145.5240 C   0  0  0  0  0  0  0  0  0  0  0  0
  189.8580  176.6960  146.5340 C   0  0  0  0  0  2  0  0  0  0  0  0
  195.5690  175.1540  140.2280 C   0  0  2  0  0  3  0  0  0  0  0  0
  194.3100  175.6930  144.5720 C   0  0  0  0  0  0  0  0  0  0  0  0
  194.2910  174.5110  142.3550 C   0  0  2  0  0  3  0  0  0  0  0  0
  196.0600  173.1160  141.4650 O   0  0  0  0  0  1  0  0  0  0  0  0
  195.6060  174.7050  138.7820 C   0  0  0  0  0  1  0  0  0  0  0  0
  197.1610  175.9190  142.1200 C   0  0  0  0  0  2  0  0  0  0  0  0
  190.1430  175.6640  144.4310 C   0  0  2  0  0  3  0  0  0  0  0  0
  188.1280  176.1700  142.0390 C   0  0  0  0  0  2  0  0  0  0  0  0
  193.0650  175.3410  141.9800 C   0  0  0  0  0  2  0  0  0  0  0  0
  195.9230  176.4230  142.8410 C   0  0  0  0  0  2  0  0  0  0  0  0
  190.7920  175.7380  143.0450 C   0  0  1  0  0  3  0  0  0  0  0  0
  188.4600  176.4760  145.9600 C   0  0  0  0  0  2  0  0  0  0  0  0
  195.1520  175.2340  143.4120 C   0  0  1  0  0  3  0  0  0  0  0  0
  196.9390  175.7190  140.6210 C   0  0  0  0  0  2  0  0  0  0  0  0
  188.0110  176.7330  143.4720 C   0  0  2  0  0  3  0  0  0  0  0  0
  192.9290  175.9170  144.4210 C   0  0  0  0  0  0  0  0  0  0  0  0
  195.0480  174.0160  141.1150 C   0  0  2  0  0  3  0  0  0  0  0  0
  192.2580  175.5980  143.1730 N   0  0  0  0  0  0  0  0  0  0  0  0
  194.1510  176.4450  146.8630 C   0  0  0  0  0  3  0  0  0  0  0  0
  188.6790  174.7440  141.9650 C   0  0  0  0  0  2  0  0  0  0  0  0
  194.9190  175.9590  145.8020 C   0  0  0  0  0  3  0  0  0  0  0  0
  190.2060  174.6910  142.0860 C   0  0  0  0  0  2  0  0  0  0  0  0
  188.6340  175.8450  144.5710 C   0  0  1  0  0  3  0  0  0  0  0  0
  192.8180  176.6620  146.7030 N   0  0  0  0  0  0  0  0  0  0  0  0
  190.7460  176.7140  145.3160 C   0  0  2  0  0  3  0  0  0  0  0  0
  186.6090  176.9810  143.7640 N   0  0  0  0  0  2  0  0  0  0  0  0
  186.3060  178.3200  143.2900 C   0  0  0  0  0  2  0  0  0  0  0  0
  184.0180  178.2960  140.4310 N   0  0  0  0  0  0  0  0  0  0  0  0
  183.8770  178.2930  142.7500 C   0  0  0  0  0  3  0  0  0  0  0  0
  185.1390  178.2740  142.3690 C   0  0  0  0  0  0  0  0  0  0  0  0
  183.0400  178.2900  141.5120 C   0  0  0  0  0  2  0  0  0  0  0  0
  185.2100  178.2890  140.9240 C   0  0  0  0  0  3  0  0  0  0  0  0
  1 26  1  0  0  0  0
  3  7  1  6  0  0  0
  3 16  1  0  0  0  0
  3 19  1  0  0  0  0
  4 23  2  0  0  0  0
  5 11  1  6  0  0  0
  5 15  1  0  0  0  0
  8 12  1  0  0  0  0
  9 25  1  0  0  0  0
  9 27  1  0  0  0  0
 10 17  1  0  0  0  0
 11 20  1  0  0  0  0
 12 15  1  0  0  0  0
 13 20  1  0  0  0  0
 13  9  1  0  0  0  0
 14  2  1  0  0  0  0
 15  4  1  0  0  0  0
 16  8  1  0  0  0  0
 17 28  1  0  0  0  0
 17 25  1  0  0  0  0
 18  4  1  0  0  0  0
 18  1  2  0  0  0  0
 19  6  1  0  0  0  0
 19  5  1  0  0  0  0
 20 18  1  0  0  0  0
 22 10  1  0  0  0  0
 22 24  1  0  0  0  0
 23 21  1  0  0  0  0
 24 13  1  0  0  0  0
 25 14  1  0  0  0  0
 26 21  2  0  0  0  0
 27  1  1  0  0  0  0
 27  2  1  0  0  0  0
 29 28  1  0  0  0  0
 30 34  2  0  0  0  0
 30 33  1  0  0  0  0
 32 31  2  0  0  0  0
 32 29  1  0  0  0  0
 33 31  1  0  0  0  0
 34 32  1  0  0  0  0
M  END
>  <MODEL>
6

>  <REMARK>
 VINA RESULT:      -8.1      2.988      9.024
  Name = 
  3 active torsions:
  status: ('A' for Active; 'I' for Inactive)
    1  A    between atoms: C_17  and  N_28
    2  A    between atoms: N_28  and  C_29
    3  A    between atoms: C_29  and  C_32
                            x       y       z     vdW  Elec       q    Type
                         _______ _______ _______ _____ _____    ______ ____

>  <TORSDO>
F 3

$$$$
=
 OpenBabel11112417483D

 34 40  0  0  1  0  0  0  0  0999 V2000
  190.3640  172.7160  142.7640 C   0  0  0  0  0  0  0  0  0  0  0  0
  188.2880  174.0900  142.1590 C   0  0  0  0  0  2  0  0  0  0  0  0
  196.0840  172.7220  145.6380 C   0  0  2  0  0  3  0  0  0  0  0  0
  192.5170  171.6320  143.0230 C   0  0  0  0  0  0  0  0  0  0  0  0
  194.4990  173.0450  143.6500 C   0  0  2  0  0  3  0  0  0  0  0  0
  196.8280  172.4580  143.3360 O   0  0  0  0  0  1  0  0  0  0  0  0
  197.2150  173.4920  146.2870 C   0  0  0  0  0  1  0  0  0  0  0  0
  195.4190  170.2970  145.0210 C   0  0  0  0  0  2  0  0  0  0  0  0
  190.2840  175.1490  142.8390 C   0  0  2  0  0  3  0  0  0  0  0  0
  190.2610  177.7110  144.7010 C   0  0  0  0  0  2  0  0  0  0  0  0
  193.5450  173.9420  144.4370 C   0  0  0  0  0  2  0  0  0  0  0  0
  194.0080  170.8250  144.8280 C   0  0  0  0  0  2  0  0  0  0  0  0
  191.4160  175.2080  143.8700 C   0  0  1  0  0  3  0  0  0  0  0  0
  187.9700  175.5770  142.2980 C   0  0  0  0  0  2  0  0  0  0  0  0
  193.9380  171.6130  143.5220 C   0  0  1  0  0  3  0  0  0  0  0  0
  196.2900  171.2210  145.8730 C   0  0  0  0  0  2  0  0  0  0  0  0
  189.0270  176.9740  144.1400 C   0  0  2  0  0  3  0  0  0  0  0  0
  191.7020  172.7650  143.2040 C   0  0  0  0  0  0  0  0  0  0  0  0
  195.9390  173.1440  144.1710 C   0  0  2  0  0  3  0  0  0  0  0  0
  192.2440  173.9870  143.7700 N   0  0  0  0  0  0  0  0  0  0  0  0
  190.6450  170.4810  142.0190 C   0  0  0  0  0  3  0  0  0  0  0  0
  191.4480  177.7770  143.7370 C   0  0  0  0  0  2  0  0  0  0  0  0
  191.9810  170.4880  142.4250 C   0  0  0  0  0  3  0  0  0  0  0  0
  192.2640  176.4790  143.7110 C   0  0  0  0  0  2  0  0  0  0  0  0
  189.2510  176.2710  142.7840 C   0  0  1  0  0  3  0  0  0  0  0  0
  189.8660  171.5800  142.2030 N   0  0  0  0  0  0  0  0  0  0  0  0
  189.4880  173.8960  143.0510 C   0  0  2  0  0  3  0  0  0  0  0  0
  187.9250  177.9170  144.0380 N   0  0  0  0  0  2  0  0  0  0  0  0
  187.1430  177.7920  145.2560 C   0  0  0  0  0  2  0  0  0  0  0  0
  183.6940  178.9920  145.5210 N   0  0  0  0  0  0  0  0  0  0  0  0
  185.2220  178.4980  143.8420 C   0  0  0  0  0  3  0  0  0  0  0  0
  185.7690  178.3130  145.0270 C   0  0  0  0  0  0  0  0  0  0  0  0
  183.8240  178.9750  144.0690 C   0  0  0  0  0  3  0  0  0  0  0  0
  184.8030  178.6130  146.0610 C   0  0  0  0  0  2  0  0  0  0  0  0
  1 27  1  0  0  0  0
  1 18  1  0  0  0  0
  2 14  1  0  0  0  0
  2 27  1  0  0  0  0
  3 16  1  0  0  0  0
  3  7  1  6  0  0  0
  4 18  2  0  0  0  0
  4 15  1  0  0  0  0
  5 19  1  0  0  0  0
  5 11  1  1  0  0  0
  6 19  1  0  0  0  0
  8 16  1  0  0  0  0
  9 27  1  0  0  0  0
  9 13  1  0  0  0  0
 12  8  1  0  0  0  0
 14 25  1  0  0  0  0
 15  5  1  0  0  0  0
 15 12  1  0  0  0  0
 17 10  1  0  0  0  0
 18 20  1  0  0  0  0
 19  3  1  0  0  0  0
 20 13  1  0  0  0  0
 20 11  1  0  0  0  0
 21 26  1  0  0  0  0
 21 23  2  0  0  0  0
 22 10  1  0  0  0  0
 23  4  1  0  0  0  0
 24 22  1  0  0  0  0
 24 13  1  0  0  0  0
 25  9  1  0  0  0  0
 25 17  1  0  0  0  0
 26  1  2  0  0  0  0
 28 17  1  0  0  0  0
 28 29  1  0  0  0  0
 30 34  1  0  0  0  0
 31 33  1  0  0  0  0
 31 32  2  0  0  0  0
 32 29  1  0  0  0  0
 32 34  1  0  0  0  0
 33 30  2  0  0  0  0
M  END
>  <MODEL>
7

>  <REMARK>
 VINA RESULT:      -8.0      3.556      8.666
  Name = 
  3 active torsions:
  status: ('A' for Active; 'I' for Inactive)
    1  A    between atoms: C_17  and  N_28
    2  A    between atoms: N_28  and  C_29
    3  A    between atoms: C_29  and  C_32
                            x       y       z     vdW  Elec       q    Type
                         _______ _______ _______ _____ _____    ______ ____

>  <TORSDO>
F 3

$$$$
=
 OpenBabel11112417483D

 34 40  0  0  1  0  0  0  0  0999 V2000
  190.0270  175.2970  145.1780 C   0  0  0  0  0  0  0  0  0  0  0  0
  191.7840  173.6220  144.3600 C   0  0  0  0  0  2  0  0  0  0  0  0
  184.4550  178.1870  143.9200 C   0  0  2  0  0  3  0  0  0  0  0  0
  188.5330  177.1440  145.6620 C   0  0  0  0  0  0  0  0  0  0  0  0
  187.0060  177.9560  143.8380 C   0  0  2  0  0  3  0  0  0  0  0  0
  185.9220  180.1200  143.7410 O   0  0  0  0  0  1  0  0  0  0  0  0
  183.3410  178.4990  142.9430 C   0  0  0  0  0  1  0  0  0  0  0  0
  185.1650  178.6830  146.3600 C   0  0  0  0  0  2  0  0  0  0  0  0
  190.1820  174.5150  142.8770 C   0  0  2  0  0  3  0  0  0  0  0  0
  188.8370  172.7500  140.6160 C   0  0  0  0  0  2  0  0  0  0  0  0
  186.9520  176.5220  143.3150 C   0  0  0  0  0  2  0  0  0  0  0  0
  186.1510  177.5360  146.2150 C   0  0  0  0  0  2  0  0  0  0  0  0
  188.7010  174.8140  142.6190 C   0  0  1  0  0  3  0  0  0  0  0  0
  191.9520  172.8810  143.0350 C   0  0  0  0  0  2  0  0  0  0  0  0
  187.3250  177.9860  145.3480 C   0  0  1  0  0  3  0  0  0  0  0  0
  184.0400  178.6360  145.3260 C   0  0  0  0  0  2  0  0  0  0  0  0
  189.9390  172.2990  141.5980 C   0  0  2  0  0  3  0  0  0  0  0  0
  188.9190  176.0880  144.8150 C   0  0  0  0  0  0  0  0  0  0  0  0
  185.7780  178.7690  143.4080 C   0  0  2  0  0  3  0  0  0  0  0  0
  188.2340  175.8590  143.5550 N   0  0  0  0  0  0  0  0  0  0  0  0
  190.3280  176.5540  147.1680 C   0  0  0  0  0  3  0  0  0  0  0  0
  188.9740  174.1970  140.1360 C   0  0  0  0  0  2  0  0  0  0  0  0
  189.2450  177.3740  146.8420 C   0  0  0  0  0  3  0  0  0  0  0  0
  188.4480  175.2130  141.1570 C   0  0  0  0  0  2  0  0  0  0  0  0
  190.8840  173.4230  142.0750 C   0  0  1  0  0  3  0  0  0  0  0  0
  190.6880  175.5340  146.3440 N   0  0  0  0  0  0  0  0  0  0  0  0
  190.3630  174.1230  144.3130 C   0  0  2  0  0  3  0  0  0  0  0  0
  190.7060  171.2290  140.9820 N   0  0  0  0  0  2  0  0  0  0  0  0
  190.5570  170.0570  141.8280 C   0  0  0  0  0  2  0  0  0  0  0  0
  193.6970  168.2120  141.4400 N   0  0  0  0  0  0  0  0  0  0  0  0
  192.5000  169.2370  143.1480 C   0  0  0  0  0  3  0  0  0  0  0  0
  191.8760  169.3900  141.9970 C   0  0  0  0  0  0  0  0  0  0  0  0
  193.7530  168.4700  142.8740 C   0  0  0  0  0  2  0  0  0  0  0  0
  192.6270  168.7370  140.9470 C   0  0  0  0  0  3  0  0  0  0  0  0
  1 26  1  0  0  0  0
  3  7  1  6  0  0  0
  3 16  1  0  0  0  0
  4 23  2  0  0  0  0
  5 11  1  1  0  0  0
  5 15  1  0  0  0  0
  9 27  1  0  0  0  0
 10 17  1  0  0  0  0
 11 20  1  0  0  0  0
 12  8  1  0  0  0  0
 13  9  1  0  0  0  0
 13 20  1  0  0  0  0
 14  2  1  0  0  0  0
 15  4  1  0  0  0  0
 15 12  1  0  0  0  0
 16  8  1  0  0  0  0
 17 25  1  0  0  0  0
 18  1  2  0  0  0  0
 18  4  1  0  0  0  0
 19  6  1  0  0  0  0
 19  5  1  0  0  0  0
 19  3  1  0  0  0  0
 20 18  1  0  0  0  0
 22 10  1  0  0  0  0
 22 24  1  0  0  0  0
 23 21  1  0  0  0  0
 24 13  1  0  0  0  0
 25  9  1  0  0  0  0
 25 14  1  0  0  0  0
 26 21  2  0  0  0  0
 27  2  1  0  0  0  0
 27  1  1  0  0  0  0
 28 17  1  0  0  0  0
 28 29  1  0  0  0  0
 29 32  1  0  0  0  0
 30 33  1  0  0  0  0
 32 31  2  0  0  0  0
 33 31  1  0  0  0  0
 34 30  2  0  0  0  0
 34 32  1  0  0  0  0
M  END
>  <MODEL>
8

>  <REMARK>
 VINA RESULT:      -7.9      3.264      5.368
  Name = 
  3 active torsions:
  status: ('A' for Active; 'I' for Inactive)
    1  A    between atoms: C_17  and  N_28
    2  A    between atoms: N_28  and  C_29
    3  A    between atoms: C_29  and  C_32
                            x       y       z     vdW  Elec       q    Type
                         _______ _______ _______ _____ _____    ______ ____

>  <TORSDO>
F 3

$$$$
=
 OpenBabel11112417483D

 34 40  0  0  1  0  0  0  0  0999 V2000
  192.7320  176.1450  144.9650 C   0  0  0  0  0  0  0  0  0  0  0  0
  190.7740  177.7690  144.6600 C   0  0  0  0  0  2  0  0  0  0  0  0
  195.0750  170.3410  143.6250 C   0  0  2  0  0  3  0  0  0  0  0  0
  194.3290  174.4110  145.5300 C   0  0  0  0  0  0  0  0  0  0  0  0
  193.7330  172.0240  145.0160 C   0  0  2  0  0  3  0  0  0  0  0  0
  194.7280  170.0560  146.0170 O   0  0  0  0  0  1  0  0  0  0  0  0
  194.8650  168.9470  143.0710 C   0  0  0  0  0  1  0  0  0  0  0  0
  196.9170  171.7950  144.7190 C   0  0  0  0  0  2  0  0  0  0  0  0
  190.5220  175.4700  144.2000 C   0  0  2  0  0  3  0  0  0  0  0  0
  188.8030  174.4400  141.7460 C   0  0  0  0  0  2  0  0  0  0  0  0
  192.9460  172.5340  143.8100 C   0  0  0  0  0  2  0  0  0  0  0  0
  196.0280  172.9910  144.4220 C   0  0  0  0  0  2  0  0  0  0  0  0
  191.0870  174.2350  143.4880 C   0  0  1  0  0  3  0  0  0  0  0  0
  189.3890  177.5950  144.0420 C   0  0  0  0  0  2  0  0  0  0  0  0
  194.8580  173.0070  145.4030 C   0  0  1  0  0  3  0  0  0  0  0  0
  196.5710  170.5700  143.8720 C   0  0  0  0  0  2  0  0  0  0  0  0
  188.9870  175.9070  142.1850 C   0  0  2  0  0  3  0  0  0  0  0  0
  193.1590  174.8070  144.8550 C   0  0  0  0  0  0  0  0  0  0  0  0
  194.1670  170.5630  144.8400 C   0  0  2  0  0  3  0  0  0  0  0  0
  192.3670  173.8420  144.1140 N   0  0  0  0  0  0  0  0  0  0  0  0
  194.5880  176.6700  146.3480 C   0  0  0  0  0  3  0  0  0  0  0  0
  188.7100  173.4420  142.9030 C   0  0  0  0  0  2  0  0  0  0  0  0
  195.0420  175.3500  146.2800 C   0  0  0  0  0  3  0  0  0  0  0  0
  190.0820  173.0740  143.4800 C   0  0  0  0  0  2  0  0  0  0  0  0
  189.2300  176.1080  143.6960 C   0  0  1  0  0  3  0  0  0  0  0  0
  193.4590  177.0410  145.6870 N   0  0  0  0  0  0  0  0  0  0  0  0
  191.5400  176.5690  144.1650 C   0  0  2  0  0  3  0  0  0  0  0  0
  187.8270  176.6730  141.7600 N   0  0  0  0  0  2  0  0  0  0  0  0
  186.6520  175.9750  142.2540 C   0  0  0  0  0  2  0  0  0  0  0  0
  184.2500  178.5800  143.1790 N   0  0  0  0  0  0  0  0  0  0  0  0
  185.7230  177.1360  144.2490 C   0  0  0  0  0  3  0  0  0  0  0  0
  185.7520  176.9350  142.9460 C   0  0  0  0  0  0  0  0  0  0  0  0
  184.7240  178.2160  144.5090 C   0  0  0  0  0  2  0  0  0  0  0  0
  184.8390  177.8490  142.2940 C   0  0  0  0  0  3  0  0  0  0  0  0
  1 26  1  0  0  0  0
  3  7  1  1  0  0  0
  3 16  1  0  0  0  0
  3 19  1  0  0  0  0
  4 23  2  0  0  0  0
  5 11  1  6  0  0  0
  5 15  1  0  0  0  0
 10 17  1  0  0  0  0
 10 22  1  0  0  0  0
 11 20  1  0  0  0  0
 12  8  1  0  0  0  0
 12 15  1  0  0  0  0
 13 20  1  0  0  0  0
 13  9  1  0  0  0  0
 14  2  1  0  0  0  0
 15  4  1  0  0  0  0
 16  8  1  0  0  0  0
 17 25  1  0  0  0  0
 18  1  2  0  0  0  0
 18  4  1  0  0  0  0
 19  5  1  0  0  0  0
 19  6  1  0  0  0  0
 20 18  1  0  0  0  0
 22 24  1  0  0  0  0
 23 21  1  0  0  0  0
 24 13  1  0  0  0  0
 25 14  1  0  0  0  0
 25  9  1  0  0  0  0
 26 21  2  0  0  0  0
 27  9  1  0  0  0  0
 27  2  1  0  0  0  0
 27  1  1  0  0  0  0
 28 17  1  0  0  0  0
 28 29  1  0  0  0  0
 29 32  1  0  0  0  0
 30 33  1  0  0  0  0
 31 33  1  0  0  0  0
 32 31  2  0  0  0  0
 34 32  1  0  0  0  0
 34 30  2  0  0  0  0
M  END
>  <MODEL>
9

>  <REMARK>
 VINA RESULT:      -7.8      3.328      8.965
  Name = 
  3 active torsions:
  status: ('A' for Active; 'I' for Inactive)
    1  A    between atoms: C_17  and  N_28
    2  A    between atoms: N_28  and  C_29
    3  A    between atoms: C_29  and  C_32
                            x       y       z     vdW  Elec       q    Type
                         _______ _______ _______ _____ _____    ______ ____

>  <TORSDO>
F 3

$$$$
