=
 OpenBabel11112417543D

 34 40  0  0  1  0  0  0  0  0999 V2000
  189.9360  175.4260  142.6670 C   0  0  0  0  0  0  0  0  0  0  0  0
  192.1400  174.3610  141.8980 C   0  0  0  0  0  2  0  0  0  0  0  0
  184.0660  177.9400  146.5120 N   0  0  0  0  0  2  0  0  0  0  0  0
  187.9250  176.4840  143.4970 C   0  0  0  0  0  0  0  0  0  0  0  0
  187.9260  177.4430  145.7320 C   0  0  0  0  0  0  0  0  0  0  0  0
  186.2140  177.4470  147.5550 C   0  0  0  0  0  2  0  0  0  0  0  0
  184.9500  178.2920  147.6160 C   0  0  0  0  0  2  0  0  0  0  0  0
  185.4330  178.9150  144.6810 C   0  0  0  0  0  2  0  0  0  0  0  0
  191.9040  175.3110  144.0620 C   0  0  0  0  0  0  0  0  0  0  0  0
  194.3520  175.6570  146.1610 C   0  0  0  0  0  2  0  0  0  0  0  0
  189.2210  177.0510  145.8840 N   0  0  0  0  0  0  0  0  0  0  0  0
  185.7810  177.4780  144.3180 C   0  0  0  0  0  2  0  0  0  0  0  0
  191.2450  175.9890  145.1160 C   0  0  0  0  0  0  0  0  0  0  0  0
  193.5150  174.3980  142.5680 C   0  0  0  0  0  2  0  0  0  0  0  0
  187.2410  177.1690  144.5160 C   0  0  0  0  0  0  0  0  0  0  0  0
  184.1300  178.9780  145.4820 C   0  0  0  0  0  2  0  0  0  0  0  0
  194.3020  175.7420  144.6270 C   0  0  2  0  0  3  0  0  0  0  0  0
  189.2570  176.0940  143.6950 C   0  0  0  0  0  0  0  0  0  0  0  0
  187.3060  178.2280  146.8470 C   0  0  0  0  0  2  0  0  0  0  0  0
  189.9040  176.3840  144.9160 C   0  0  0  0  0  0  0  0  0  0  0  0
  187.8880  175.5540  141.2860 C   0  0  0  0  0  3  0  0  0  0  0  0
  193.0010  175.4140  146.8360 C   0  0  0  0  0  2  0  0  0  0  0  0
  187.2730  176.1770  142.2500 N   0  0  0  0  0  0  0  0  0  0  0  0
  191.9580  176.4190  146.3720 C   0  0  0  0  0  2  0  0  0  0  0  0
  193.2860  174.7450  144.0500 C   0  0  1  0  0  3  0  0  0  0  0  0
  189.2550  175.1480  141.4390 N   0  0  0  0  0  2  0  0  0  0  0  0
  191.2630  175.0500  142.8720 C   0  0  0  0  0  0  0  0  0  0  0  0
  195.7090  175.5140  144.0880 C   0  0  0  0  0  2  0  0  0  0  0  0
  196.3230  176.7870  143.7480 N   0  0  0  0  0  2  0  0  0  0  0  0
  196.9590  174.5330  141.1990 C   0  0  0  0  0  2  0  0  0  0  0  0
  196.0660  176.7540  141.3290 C   0  0  0  0  0  2  0  0  0  0  0  0
  197.0290  176.5990  142.4910 C   0  0  0  0  0  3  0  0  0  0  0  0
  196.4320  175.6650  140.3480 C   0  0  0  0  0  2  0  0  0  0  0  0
  197.5800  175.1850  142.4180 C   0  0  0  0  0  2  0  0  0  0  0  0
  1 27  2  0  0  0  0
  1 18  1  0  0  0  0
  2 14  1  0  0  0  0
  2 27  1  0  0  0  0
  3  7  1  0  0  0  0
  4 18  2  0  0  0  0
  4 15  1  0  0  0  0
  5 11  1  0  0  0  0
  5 19  1  0  0  0  0
  6  7  1  0  0  0  0
  8 16  1  0  0  0  0
  9 13  2  0  0  0  0
 10 22  1  0  0  0  0
 12 15  1  0  0  0  0
 12  8  1  0  0  0  0
 13 24  1  0  0  0  0
 15  5  2  0  0  0  0
 16  3  1  0  0  0  0
 17 28  1  6  0  0  0
 17 10  1  0  0  0  0
 18 20  1  0  0  0  0
 19  6  1  0  0  0  0
 20 13  1  0  0  0  0
 20 11  2  0  0  0  0
 21 26  1  0  0  0  0
 21 23  2  0  0  0  0
 23  4  1  0  0  0  0
 24 22  1  0  0  0  0
 25 14  1  6  0  0  0
 25  9  1  0  0  0  0
 25 17  1  0  0  0  0
 26  1  1  0  0  0  0
 27  9  1  0  0  0  0
 29 28  1  0  0  0  0
 30 34  1  0  0  0  0
 31 32  1  0  0  0  0
 32 29  1  0  0  0  0
 33 30  1  0  0  0  0
 33 31  1  0  0  0  0
 34 32  1  0  0  0  0
M  END
>  <MODEL>
1

>  <REMARK>
 VINA RESULT:      -9.0      0.000      0.000
  Name = 
  3 active torsions:
  status: ('A' for Active; 'I' for Inactive)
    1  A    between atoms: C_17  and  C_28
    2  A    between atoms: C_28  and  N_29
    3  A    between atoms: N_29  and  C_32
                            x       y       z     vdW  Elec       q    Type
                         _______ _______ _______ _____ _____    ______ ____

>  <TORSDO>
F 3

$$$$
=
 OpenBabel11112417543D

 34 40  0  0  1  0  0  0  0  0999 V2000
  189.8500  175.2070  142.5680 C   0  0  0  0  0  0  0  0  0  0  0  0
  192.0100  174.0540  141.8010 C   0  0  0  0  0  2  0  0  0  0  0  0
  184.0900  177.9680  146.4100 N   0  0  0  0  0  2  0  0  0  0  0  0
  187.8840  176.3480  143.3960 C   0  0  0  0  0  0  0  0  0  0  0  0
  187.9260  177.3160  145.6260 C   0  0  0  0  0  0  0  0  0  0  0  0
  186.2190  177.3960  147.4520 C   0  0  0  0  0  2  0  0  0  0  0  0
  184.9890  178.2900  147.5100 C   0  0  0  0  0  2  0  0  0  0  0  0
  185.4910  178.8800  144.5720 C   0  0  0  0  0  2  0  0  0  0  0  0
  191.8140  175.0220  143.9610 C   0  0  0  0  0  0  0  0  0  0  0  0
  194.2770  175.2810  146.0540 C   0  0  0  0  0  2  0  0  0  0  0  0
  189.2050  176.8740  145.7790 N   0  0  0  0  0  0  0  0  0  0  0  0
  185.7820  177.4290  144.2160 C   0  0  0  0  0  2  0  0  0  0  0  0
  191.1840  175.7300  145.0120 C   0  0  0  0  0  0  0  0  0  0  0  0
  193.3860  174.0400  142.4690 C   0  0  0  0  0  2  0  0  0  0  0  0
  187.2290  177.0640  144.4130 C   0  0  0  0  0  0  0  0  0  0  0  0
  184.1930  178.9970  145.3740 C   0  0  0  0  0  2  0  0  0  0  0  0
  194.2290  175.3610  144.5210 C   0  0  2  0  0  3  0  0  0  0  0  0
  189.2000  175.9070  143.5940 C   0  0  0  0  0  0  0  0  0  0  0  0
  187.3400  178.1300  146.7380 C   0  0  0  0  0  2  0  0  0  0  0  0
  189.8590  176.1770  144.8120 C   0  0  0  0  0  0  0  0  0  0  0  0
  187.8070  175.4100  141.1900 C   0  0  0  0  0  3  0  0  0  0  0  0
  192.9190  175.0940  146.7320 C   0  0  0  0  0  2  0  0  0  0  0  0
  187.2180  176.0600  142.1510 N   0  0  0  0  0  0  0  0  0  0  0  0
  191.9160  176.1380  146.2650 C   0  0  0  0  0  2  0  0  0  0  0  0
  193.1730  174.4020  143.9500 C   0  0  1  0  0  3  0  0  0  0  0  0
  189.1570  174.9510  141.3430 N   0  0  0  0  0  2  0  0  0  0  0  0
  191.1620  174.7810  142.7730 C   0  0  0  0  0  0  0  0  0  0  0  0
  195.6240  175.0760  143.9810 C   0  0  0  0  0  2  0  0  0  0  0  0
  196.5570  174.8970  145.0820 N   0  0  0  0  0  2  0  0  0  0  0  0
  196.1780  171.4700  145.3820 C   0  0  0  0  0  2  0  0  0  0  0  0
  196.7220  172.9760  143.5980 C   0  0  0  0  0  2  0  0  0  0  0  0
  197.2170  173.6170  144.8810 C   0  0  0  0  0  3  0  0  0  0  0  0
  196.5460  171.5100  143.9170 C   0  0  0  0  0  2  0  0  0  0  0  0
  196.8550  172.6700  146.0120 C   0  0  0  0  0  2  0  0  0  0  0  0
  1 27  2  0  0  0  0
  1 18  1  0  0  0  0
  2 14  1  0  0  0  0
  2 27  1  0  0  0  0
  3  7  1  0  0  0  0
  4 18  2  0  0  0  0
  4 15  1  0  0  0  0
  5 11  1  0  0  0  0
  5 19  1  0  0  0  0
  6  7  1  0  0  0  0
  8 16  1  0  0  0  0
  9 13  2  0  0  0  0
 10 22  1  0  0  0  0
 12 15  1  0  0  0  0
 12  8  1  0  0  0  0
 13 24  1  0  0  0  0
 15  5  2  0  0  0  0
 16  3  1  0  0  0  0
 17 28  1  6  0  0  0
 17 10  1  0  0  0  0
 18 20  1  0  0  0  0
 19  6  1  0  0  0  0
 20 13  1  0  0  0  0
 20 11  2  0  0  0  0
 21 26  1  0  0  0  0
 21 23  2  0  0  0  0
 23  4  1  0  0  0  0
 24 22  1  0  0  0  0
 25 14  1  6  0  0  0
 25  9  1  0  0  0  0
 25 17  1  0  0  0  0
 26  1  1  0  0  0  0
 27  9  1  0  0  0  0
 28 29  1  0  0  0  0
 30 34  1  0  0  0  0
 31 33  1  0  0  0  0
 31 32  1  0  0  0  0
 32 29  1  0  0  0  0
 32 34  1  0  0  0  0
 33 30  1  0  0  0  0
M  END
>  <MODEL>
2

>  <REMARK>
 VINA RESULT:      -9.0      1.424      1.872
  Name = 
  3 active torsions:
  status: ('A' for Active; 'I' for Inactive)
    1  A    between atoms: C_17  and  C_28
    2  A    between atoms: C_28  and  N_29
    3  A    between atoms: N_29  and  C_32
                            x       y       z     vdW  Elec       q    Type
                         _______ _______ _______ _____ _____    ______ ____

>  <TORSDO>
F 3

$$$$
=
 OpenBabel11112417543D

 34 40  0  0  1  0  0  0  0  0999 V2000
  192.2500  176.4100  145.4880 C   0  0  0  0  0  0  0  0  0  0  0  0
  190.1170  177.2350  146.6500 C   0  0  0  0  0  2  0  0  0  0  0  0
  197.3130  172.8740  141.3140 N   0  0  0  0  0  2  0  0  0  0  0  0
  194.1920  175.6300  144.2730 C   0  0  0  0  0  0  0  0  0  0  0  0
  193.9190  174.8140  142.0000 C   0  0  0  0  0  0  0  0  0  0  0  0
  194.9350  172.8820  140.7780 C   0  0  0  0  0  2  0  0  0  0  0  0
  196.3490  172.7970  140.2240 C   0  0  0  0  0  2  0  0  0  0  0  0
  196.9640  175.2660  141.8850 C   0  0  0  0  0  2  0  0  0  0  0  0
  190.0720  176.3500  144.4470 C   0  0  0  0  0  0  0  0  0  0  0  0
  187.4390  176.3510  142.5530 C   0  0  0  0  0  2  0  0  0  0  0  0
  192.5830  175.0620  142.0850 N   0  0  0  0  0  0  0  0  0  0  0  0
  196.2310  174.7560  143.1180 C   0  0  0  0  0  2  0  0  0  0  0  0
  190.6110  175.8060  143.2570 C   0  0  0  0  0  0  0  0  0  0  0  0
  188.7220  177.4590  146.0620 C   0  0  0  0  0  2  0  0  0  0  0  0
  194.7660  175.1020  143.1050 C   0  0  0  0  0  0  0  0  0  0  0  0
  197.9220  174.2040  141.3390 C   0  0  0  0  0  2  0  0  0  0  0  0
  187.9410  177.3530  143.6040 C   0  0  2  0  0  3  0  0  0  0  0  0
  192.8110  175.8670  144.3230 C   0  0  2  0  0  3  0  0  0  0  0  0
  194.4460  174.3160  140.6890 C   0  0  0  0  0  2  0  0  0  0  0  0
  192.0030  175.5700  143.2050 C   0  0  0  0  0  0  0  0  0  0  0  0
  194.5010  176.4330  146.5130 C   0  0  0  0  0  3  0  0  0  0  0  0
  188.3620  175.1560  142.3110 C   0  0  0  0  0  2  0  0  0  0  0  0
  195.0060  175.9320  145.4230 N   0  0  0  0  0  0  0  0  0  0  0  0
  189.7850  175.6040  142.0120 C   0  0  0  0  0  2  0  0  0  0  0  0
  188.6410  176.6330  144.7670 C   0  0  1  0  0  3  0  0  0  0  0  0
  193.0960  176.7040  146.6040 N   0  0  0  0  0  0  0  0  0  0  0  0
  190.8770  176.6490  145.5230 C   0  0  0  0  0  0  0  0  0  0  0  0
  186.7580  178.1920  144.0700 C   0  0  0  0  0  2  0  0  0  0  0  0
  185.5720  177.3590  144.1890 N   0  0  0  0  0  2  0  0  0  0  0  0
  185.7890  177.5630  147.6380 C   0  0  0  0  0  2  0  0  0  0  0  0
  185.4060  179.1220  145.8570 C   0  0  0  0  0  2  0  0  0  0  0  0
  184.8700  177.7810  145.3900 C   0  0  0  0  0  3  0  0  0  0  0  0
  185.5020  179.0210  147.3610 C   0  0  0  0  0  2  0  0  0  0  0  0
  185.1300  176.7910  146.5120 C   0  0  0  0  0  2  0  0  0  0  0  0
  1 27  1  0  0  0  0
  1 26  2  0  0  0  0
  3 16  1  0  0  0  0
  4 18  1  0  0  0  0
  4 23  1  0  0  0  0
  5 11  2  0  0  0  0
  5 15  1  0  0  0  0
  7  6  1  0  0  0  0
  7  3  1  0  0  0  0
  8 12  1  0  0  0  0
  9 25  1  0  0  0  0
  9 27  2  0  0  0  0
 10 17  1  0  0  0  0
 11 20  1  0  0  0  0
 13  9  1  0  0  0  0
 14  2  1  0  0  0  0
 15 12  1  0  0  0  0
 15  4  2  0  0  0  0
 16  8  1  0  0  0  0
 17 28  1  1  0  0  0
 17 25  1  0  0  0  0
 18 20  1  6  0  0  0
 18  1  1  0  0  0  0
 19  6  1  0  0  0  0
 19  5  1  0  0  0  0
 20 13  2  0  0  0  0
 21 26  1  0  0  0  0
 22 10  1  0  0  0  0
 23 21  2  0  0  0  0
 24 22  1  0  0  0  0
 24 13  1  0  0  0  0
 25 14  1  1  0  0  0
 27  2  1  0  0  0  0
 28 29  1  0  0  0  0
 29 32  1  0  0  0  0
 31 33  1  0  0  0  0
 32 31  1  0  0  0  0
 32 34  1  0  0  0  0
 33 30  1  0  0  0  0
 34 30  1  0  0  0  0
M  END
>  <MODEL>
3

>  <REMARK>
 VINA RESULT:      -8.7      1.791      9.281
  Name = 
  3 active torsions:
  status: ('A' for Active; 'I' for Inactive)
    1  A    between atoms: C_17  and  C_28
    2  A    between atoms: C_28  and  N_29
    3  A    between atoms: N_29  and  C_32
                            x       y       z     vdW  Elec       q    Type
                         _______ _______ _______ _____ _____    ______ ____

>  <TORSDO>
F 3

$$$$
=
 OpenBabel11112417543D

 34 40  0  0  1  0  0  0  0  0999 V2000
  190.0900  174.7660  142.5380 C   0  0  0  0  0  0  0  0  0  0  0  0
  187.7300  175.7720  142.4780 C   0  0  0  0  0  2  0  0  0  0  0  0
  197.2880  173.2590  143.7580 N   0  0  0  0  0  2  0  0  0  0  0  0
  192.3170  173.8400  142.7300 C   0  0  0  0  0  0  0  0  0  0  0  0
  193.5650  174.1700  144.7900 C   0  0  0  0  0  0  0  0  0  0  0  0
  195.9720  174.6920  145.2280 C   0  0  0  0  0  2  0  0  0  0  0  0
  197.1450  173.7280  145.1300 C   0  0  0  0  0  2  0  0  0  0  0  0
  195.2500  171.8390  143.6870 C   0  0  0  0  0  2  0  0  0  0  0  0
  189.1420  176.0190  144.3720 C   0  0  0  0  0  0  0  0  0  0  0  0
  188.1930  177.3550  147.1710 C   0  0  0  0  0  2  0  0  0  0  0  0
  192.5140  174.8720  145.2980 N   0  0  0  0  0  0  0  0  0  0  0  0
  194.6470  172.9330  142.8160 C   0  0  0  0  0  2  0  0  0  0  0  0
  190.3080  175.8350  145.1530 C   0  0  0  0  0  0  0  0  0  0  0  0
  186.9180  176.3960  143.6140 C   0  0  0  0  0  2  0  0  0  0  0  0
  193.4870  173.6270  143.4790 C   0  0  0  0  0  0  0  0  0  0  0  0
  196.7790  171.8910  143.6500 C   0  0  0  0  0  2  0  0  0  0  0  0
  187.4400  176.4990  146.1410 C   0  0  2  0  0  3  0  0  0  0  0  0
  191.2590  174.5720  143.2870 C   0  0  0  0  0  0  0  0  0  0  0  0
  194.7380  173.9370  145.6910 C   0  0  0  0  0  2  0  0  0  0  0  0
  191.3730  175.0950  144.5930 C   0  0  0  0  0  0  0  0  0  0  0  0
  191.1150  173.4890  140.6840 C   0  0  0  0  0  3  0  0  0  0  0  0
  189.6720  177.5860  146.8560 C   0  0  0  0  0  2  0  0  0  0  0  0
  192.1910  173.3160  141.3940 N   0  0  0  0  0  0  0  0  0  0  0  0
  190.3960  176.2750  146.5920 C   0  0  0  0  0  2  0  0  0  0  0  0
  187.9170  176.8030  144.7130 C   0  0  1  0  0  3  0  0  0  0  0  0
  190.0020  174.2200  141.2180 N   0  0  0  0  0  2  0  0  0  0  0  0
  189.0410  175.4880  143.1060 C   0  0  0  0  0  0  0  0  0  0  0  0
  185.9460  176.7410  146.3170 C   0  0  0  0  0  2  0  0  0  0  0  0
  185.7250  177.8360  147.2480 N   0  0  0  0  0  2  0  0  0  0  0  0
  185.4940  179.7030  144.3430 C   0  0  0  0  0  2  0  0  0  0  0  0
  184.0620  178.1710  145.5050 C   0  0  0  0  0  2  0  0  0  0  0  0
  184.9350  178.8380  146.5520 C   0  0  0  0  0  3  0  0  0  0  0  0
  184.1230  179.0700  144.2920 C   0  0  0  0  0  2  0  0  0  0  0  0
  185.8540  179.7940  145.8120 C   0  0  0  0  0  2  0  0  0  0  0  0
  1 27  2  0  0  0  0
  1 18  1  0  0  0  0
  2 27  1  0  0  0  0
  2 14  1  0  0  0  0
  3  7  1  0  0  0  0
  4 18  2  0  0  0  0
  4 15  1  0  0  0  0
  5 11  1  0  0  0  0
  5 19  1  0  0  0  0
  6 19  1  0  0  0  0
  7  6  1  0  0  0  0
  9 25  1  0  0  0  0
  9 13  2  0  0  0  0
 12 15  1  0  0  0  0
 12  8  1  0  0  0  0
 13 24  1  0  0  0  0
 15  5  2  0  0  0  0
 16  8  1  0  0  0  0
 16  3  1  0  0  0  0
 17 28  1  6  0  0  0
 17 10  1  0  0  0  0
 18 20  1  0  0  0  0
 20 13  1  0  0  0  0
 20 11  2  0  0  0  0
 21 26  1  0  0  0  0
 21 23  2  0  0  0  0
 22 10  1  0  0  0  0
 23  4  1  0  0  0  0
 24 22  1  0  0  0  0
 25 14  1  6  0  0  0
 25 17  1  0  0  0  0
 26  1  1  0  0  0  0
 27  9  1  0  0  0  0
 28 29  1  0  0  0  0
 30 34  1  0  0  0  0
 31 32  1  0  0  0  0
 32 29  1  0  0  0  0
 33 30  1  0  0  0  0
 33 31  1  0  0  0  0
 34 32  1  0  0  0  0
M  END
>  <MODEL>
4

>  <REMARK>
 VINA RESULT:      -8.5      2.107      8.625
  Name = 
  3 active torsions:
  status: ('A' for Active; 'I' for Inactive)
    1  A    between atoms: C_17  and  C_28
    2  A    between atoms: C_28  and  N_29
    3  A    between atoms: N_29  and  C_32
                            x       y       z     vdW  Elec       q    Type
                         _______ _______ _______ _____ _____    ______ ____

>  <TORSDO>
F 3

$$$$
=
 OpenBabel11112417543D

 34 40  0  0  1  0  0  0  0  0999 V2000
  190.8720  176.0990  146.3430 C   0  0  0  0  0  0  0  0  0  0  0  0
  193.1440  174.9180  146.5130 C   0  0  0  0  0  2  0  0  0  0  0  0
  184.5260  179.2940  144.0900 N   0  0  0  0  0  2  0  0  0  0  0  0
  188.6920  177.1180  146.0910 C   0  0  0  0  0  0  0  0  0  0  0  0
  187.2680  176.4290  144.2450 C   0  0  0  0  0  0  0  0  0  0  0  0
  185.7720  177.7180  142.7090 C   0  0  0  0  0  2  0  0  0  0  0  0
  184.4020  178.2900  143.0410 C   0  0  0  0  0  2  0  0  0  0  0  0
  185.0720  177.7470  145.9550 C   0  0  0  0  0  2  0  0  0  0  0  0
  191.6180  174.4360  144.7580 C   0  0  0  0  0  0  0  0  0  0  0  0
  192.0550  172.0710  142.5830 C   0  0  0  0  0  2  0  0  0  0  0  0
  188.2380  175.5630  143.8380 N   0  0  0  0  0  0  0  0  0  0  0  0
  186.4920  178.2830  145.8440 C   0  0  0  0  0  2  0  0  0  0  0  0
  190.4090  174.5320  144.0290 C   0  0  0  0  0  0  0  0  0  0  0  0
  193.6660  173.7130  145.7290 C   0  0  0  0  0  2  0  0  0  0  0  0
  187.4740  177.2320  145.3990 C   0  0  0  0  0  0  0  0  0  0  0  0
  184.0660  178.7360  145.3620 C   0  0  0  0  0  2  0  0  0  0  0  0
  192.4260  172.1710  144.0700 C   0  0  2  0  0  3  0  0  0  0  0  0
  189.6670  176.2180  145.6370 C   0  0  2  0  0  3  0  0  0  0  0  0
  185.9790  176.4280  143.4830 C   0  0  0  0  0  2  0  0  0  0  0  0
  189.4260  175.4360  144.4870 C   0  0  0  0  0  0  0  0  0  0  0  0
  190.0670  177.8190  147.9280 C   0  0  0  0  0  3  0  0  0  0  0  0
  191.2990  173.2780  142.0260 C   0  0  0  0  0  2  0  0  0  0  0  0
  188.9520  177.9150  147.2620 N   0  0  0  0  0  0  0  0  0  0  0  0
  190.0840  173.6150  142.8770 C   0  0  0  0  0  2  0  0  0  0  0  0
  192.8200  173.6070  144.4470 C   0  0  1  0  0  3  0  0  0  0  0  0
  191.0870  176.9020  147.5080 N   0  0  0  0  0  0  0  0  0  0  0  0
  191.8310  175.1940  145.8870 C   0  0  0  0  0  0  0  0  0  0  0  0
  193.5390  171.1700  144.3550 C   0  0  0  0  0  2  0  0  0  0  0  0
  194.5470  171.2350  143.3090 N   0  0  0  0  0  2  0  0  0  0  0  0
  197.0370  172.5120  145.3450 C   0  0  0  0  0  2  0  0  0  0  0  0
  195.6250  170.5750  145.3870 C   0  0  0  0  0  2  0  0  0  0  0  0
  195.8280  170.9390  143.9280 C   0  0  0  0  0  3  0  0  0  0  0  0
  196.7430  171.2580  146.1370 C   0  0  0  0  0  2  0  0  0  0  0  0
  196.7070  172.1770  143.9040 C   0  0  0  0  0  2  0  0  0  0  0  0
  1 26  2  0  0  0  0
  3 16  1  0  0  0  0
  4 23  1  0  0  0  0
  5 15  1  0  0  0  0
  6  7  1  0  0  0  0
  6 19  1  0  0  0  0
  7  3  1  0  0  0  0
  9 27  2  0  0  0  0
 10 17  1  0  0  0  0
 11  5  2  0  0  0  0
 11 20  1  0  0  0  0
 12  8  1  0  0  0  0
 13 20  2  0  0  0  0
 13  9  1  0  0  0  0
 14  2  1  0  0  0  0
 15 12  1  0  0  0  0
 15  4  2  0  0  0  0
 16  8  1  0  0  0  0
 17 28  1  6  0  0  0
 17 25  1  0  0  0  0
 18 20  1  1  0  0  0
 18  4  1  0  0  0  0
 18  1  1  0  0  0  0
 19  5  1  0  0  0  0
 22 10  1  0  0  0  0
 22 24  1  0  0  0  0
 23 21  2  0  0  0  0
 24 13  1  0  0  0  0
 25  9  1  0  0  0  0
 25 14  1  1  0  0  0
 26 21  1  0  0  0  0
 27  1  1  0  0  0  0
 27  2  1  0  0  0  0
 29 32  1  0  0  0  0
 29 28  1  0  0  0  0
 30 33  1  0  0  0  0
 31 33  1  0  0  0  0
 32 31  1  0  0  0  0
 34 32  1  0  0  0  0
 34 30  1  0  0  0  0
M  END
>  <MODEL>
5

>  <REMARK>
 VINA RESULT:      -8.4      2.523      4.303
  Name = 
  3 active torsions:
  status: ('A' for Active; 'I' for Inactive)
    1  A    between atoms: C_17  and  C_28
    2  A    between atoms: C_28  and  N_29
    3  A    between atoms: N_29  and  C_32
                            x       y       z     vdW  Elec       q    Type
                         _______ _______ _______ _____ _____    ______ ____

>  <TORSDO>
F 3

$$$$
=
 OpenBabel11112417543D

 34 40  0  0  1  0  0  0  0  0999 V2000
  192.0960  176.4130  146.0100 C   0  0  0  0  0  0  0  0  0  0  0  0
  194.5160  175.7240  146.5130 C   0  0  0  0  0  2  0  0  0  0  0  0
  185.7540  178.8650  142.9560 N   0  0  0  0  0  2  0  0  0  0  0  0
  189.8260  177.0020  145.4150 C   0  0  0  0  0  0  0  0  0  0  0  0
  189.0970  176.7290  143.1120 C   0  0  0  0  0  0  0  0  0  0  0  0
  187.6680  178.1470  141.6260 C   0  0  0  0  0  2  0  0  0  0  0  0
  186.1540  178.2840  141.6800 C   0  0  0  0  0  2  0  0  0  0  0  0
  186.2970  176.9070  144.3850 C   0  0  0  0  0  2  0  0  0  0  0  0
  193.6120  175.5880  144.3210 C   0  0  0  0  0  0  0  0  0  0  0  0
  195.1680  174.2630  141.8040 C   0  0  0  0  0  2  0  0  0  0  0  0
  190.3370  176.2700  142.7870 N   0  0  0  0  0  0  0  0  0  0  0  0
  187.4950  177.7190  144.8590 C   0  0  0  0  0  2  0  0  0  0  0  0
  192.6150  175.6890  143.3210 C   0  0  0  0  0  0  0  0  0  0  0  0
  195.5180  174.9950  145.6160 C   0  0  0  0  0  2  0  0  0  0  0  0
  188.8080  177.1050  144.4520 C   0  0  0  0  0  0  0  0  0  0  0  0
  185.2060  177.8200  143.8210 C   0  0  0  0  0  2  0  0  0  0  0  0
  195.1620  173.9120  143.2990 C   0  0  2  0  0  3  0  0  0  0  0  0
  191.0910  176.5280  145.0400 C   0  0  2  0  0  3  0  0  0  0  0  0
  188.0590  176.7370  142.0310 C   0  0  0  0  0  2  0  0  0  0  0  0
  191.3400  176.1640  143.6990 C   0  0  0  0  0  0  0  0  0  0  0  0
  190.5090  177.2800  147.6980 C   0  0  0  0  0  3  0  0  0  0  0  0
  194.2400  175.4130  141.4090 C   0  0  0  0  0  2  0  0  0  0  0  0
  189.5860  177.3770  146.7850 N   0  0  0  0  0  0  0  0  0  0  0  0
  192.8250  175.1840  141.9160 C   0  0  0  0  0  2  0  0  0  0  0  0
  195.0380  175.1760  144.1640 C   0  0  1  0  0  3  0  0  0  0  0  0
  191.8130  176.7880  147.3620 N   0  0  0  0  0  0  0  0  0  0  0  0
  193.3480  175.9330  145.6270 C   0  0  0  0  0  0  0  0  0  0  0  0
  196.4240  173.1170  143.6110 C   0  0  0  0  0  2  0  0  0  0  0  0
  196.0850  171.7260  143.8680 N   0  0  0  0  0  2  0  0  0  0  0  0
  194.9670  169.6930  146.4360 C   0  0  0  0  0  2  0  0  0  0  0  0
  197.1040  170.4920  145.6990 C   0  0  0  0  0  2  0  0  0  0  0  0
  196.0840  171.5450  145.3100 C   0  0  0  0  0  3  0  0  0  0  0  0
  196.4400  169.6570  146.7690 C   0  0  0  0  0  2  0  0  0  0  0  0
  194.7280  171.0290  145.7610 C   0  0  0  0  0  2  0  0  0  0  0  0
  1 26  2  0  0  0  0
  3 16  1  0  0  0  0
  4 23  1  0  0  0  0
  5 15  1  0  0  0  0
  6  7  1  0  0  0  0
  6 19  1  0  0  0  0
  7  3  1  0  0  0  0
  8 12  1  0  0  0  0
  9 27  2  0  0  0  0
 10 17  1  0  0  0  0
 11  5  2  0  0  0  0
 11 20  1  0  0  0  0
 13 20  2  0  0  0  0
 13  9  1  0  0  0  0
 14  2  1  0  0  0  0
 15 12  1  0  0  0  0
 15  4  2  0  0  0  0
 16  8  1  0  0  0  0
 17 28  1  1  0  0  0
 17 25  1  0  0  0  0
 18 20  1  1  0  0  0
 18  4  1  0  0  0  0
 18  1  1  0  0  0  0
 19  5  1  0  0  0  0
 22 10  1  0  0  0  0
 22 24  1  0  0  0  0
 23 21  2  0  0  0  0
 24 13  1  0  0  0  0
 25  9  1  0  0  0  0
 25 14  1  1  0  0  0
 26 21  1  0  0  0  0
 27  1  1  0  0  0  0
 27  2  1  0  0  0  0
 28 29  1  0  0  0  0
 29 32  1  0  0  0  0
 30 33  1  0  0  0  0
 31 33  1  0  0  0  0
 32 31  1  0  0  0  0
 32 34  1  0  0  0  0
 34 30  1  0  0  0  0
M  END
>  <MODEL>
6

>  <REMARK>
 VINA RESULT:      -8.4      2.664      4.699
  Name = 
  3 active torsions:
  status: ('A' for Active; 'I' for Inactive)
    1  A    between atoms: C_17  and  C_28
    2  A    between atoms: C_28  and  N_29
    3  A    between atoms: N_29  and  C_32
                            x       y       z     vdW  Elec       q    Type
                         _______ _______ _______ _____ _____    ______ ____

>  <TORSDO>
F 3

$$$$
=
 OpenBabel11112417543D

 34 40  0  0  1  0  0  0  0  0999 V2000
  192.3470  175.9830  145.3120 C   0  0  0  0  0  0  0  0  0  0  0  0
  190.2880  177.5130  145.2610 C   0  0  0  0  0  2  0  0  0  0  0  0
  197.0990  170.2410  145.3010 N   0  0  0  0  0  2  0  0  0  0  0  0
  194.2340  174.4700  145.2560 C   0  0  0  0  0  0  0  0  0  0  0  0
  194.0770  172.4280  143.9460 C   0  0  0  0  0  0  0  0  0  0  0  0
  194.8430  170.0880  144.3890 C   0  0  0  0  0  2  0  0  0  0  0  0
  196.2710  169.5670  144.3100 C   0  0  0  0  0  2  0  0  0  0  0  0
  197.1450  172.4760  144.2190 C   0  0  0  0  0  2  0  0  0  0  0  0
  190.3320  175.4450  144.0950 C   0  0  0  0  0  0  0  0  0  0  0  0
  187.9840  174.4510  142.0910 C   0  0  0  0  0  2  0  0  0  0  0  0
  192.8110  172.7740  143.5830 N   0  0  0  0  0  0  0  0  0  0  0  0
  196.1910  172.9130  145.3220 C   0  0  0  0  0  2  0  0  0  0  0  0
  190.8930  174.2350  143.6220 C   0  0  0  0  0  0  0  0  0  0  0  0
  189.0390  177.4220  144.3830 C   0  0  0  0  0  2  0  0  0  0  0  0
  194.8290  173.2820  144.7970 C   0  0  0  0  0  0  0  0  0  0  0  0
  197.9410  171.2400  144.6410 C   0  0  0  0  0  2  0  0  0  0  0  0
  188.5400  175.8500  142.3960 C   0  0  2  0  0  3  0  0  0  0  0  0
  192.9260  174.7880  144.8620 C   0  0  2  0  0  3  0  0  0  0  0  0
  194.6480  171.1780  143.3500 C   0  0  0  0  0  2  0  0  0  0  0  0
  192.2110  173.9150  144.0160 C   0  0  0  0  0  0  0  0  0  0  0  0
  194.4280  176.4780  146.5540 C   0  0  0  0  0  3  0  0  0  0  0  0
  188.6860  173.3050  142.8210 C   0  0  0  0  0  2  0  0  0  0  0  0
  194.9520  175.3660  146.1260 N   0  0  0  0  0  0  0  0  0  0  0  0
  190.1930  173.3570  142.6170 C   0  0  0  0  0  2  0  0  0  0  0  0
  188.9530  175.9730  143.8710 C   0  0  1  0  0  3  0  0  0  0  0  0
  193.0980  176.8500  146.1670 N   0  0  0  0  0  0  0  0  0  0  0  0
  191.0490  176.2930  144.9080 C   0  0  0  0  0  0  0  0  0  0  0  0
  187.4920  176.8810  142.0000 C   0  0  0  0  0  2  0  0  0  0  0  0
  186.1680  176.4180  142.3830 N   0  0  0  0  0  2  0  0  0  0  0  0
  185.6660  178.7620  144.8790 C   0  0  0  0  0  2  0  0  0  0  0  0
  186.2230  178.8440  142.5480 C   0  0  0  0  0  2  0  0  0  0  0  0
  185.3950  177.5900  142.7590 C   0  0  0  0  0  3  0  0  0  0  0  0
  185.9440  179.7220  143.7450 C   0  0  0  0  0  2  0  0  0  0  0  0
  185.0580  177.5300  144.2390 C   0  0  0  0  0  2  0  0  0  0  0  0
  1 26  2  0  0  0  0
  4 23  1  0  0  0  0
  5 15  1  0  0  0  0
  7  6  1  0  0  0  0
  7  3  1  0  0  0  0
  8 16  1  0  0  0  0
  8 12  1  0  0  0  0
  9 27  2  0  0  0  0
 10 17  1  0  0  0  0
 10 22  1  0  0  0  0
 11  5  2  0  0  0  0
 11 20  1  0  0  0  0
 13 20  2  0  0  0  0
 13  9  1  0  0  0  0
 14  2  1  0  0  0  0
 15  4  2  0  0  0  0
 15 12  1  0  0  0  0
 16  3  1  0  0  0  0
 17 28  1  1  0  0  0
 17 25  1  0  0  0  0
 18 20  1  6  0  0  0
 18  4  1  0  0  0  0
 18  1  1  0  0  0  0
 19  5  1  0  0  0  0
 19  6  1  0  0  0  0
 23 21  2  0  0  0  0
 24 22  1  0  0  0  0
 24 13  1  0  0  0  0
 25  9  1  0  0  0  0
 25 14  1  6  0  0  0
 26 21  1  0  0  0  0
 27  2  1  0  0  0  0
 27  1  1  0  0  0  0
 28 29  1  0  0  0  0
 29 32  1  0  0  0  0
 31 32  1  0  0  0  0
 31 33  1  0  0  0  0
 32 34  1  0  0  0  0
 33 30  1  0  0  0  0
 34 30  1  0  0  0  0
M  END
>  <MODEL>
7

>  <REMARK>
 VINA RESULT:      -8.2      2.743      9.148
  Name = 
  3 active torsions:
  status: ('A' for Active; 'I' for Inactive)
    1  A    between atoms: C_17  and  C_28
    2  A    between atoms: C_28  and  N_29
    3  A    between atoms: N_29  and  C_32
                            x       y       z     vdW  Elec       q    Type
                         _______ _______ _______ _____ _____    ______ ____

>  <TORSDO>
F 3

$$$$
=
 OpenBabel11112417543D

 34 40  0  0  1  0  0  0  0  0999 V2000
  193.6560  175.0990  145.5050 C   0  0  0  0  0  0  0  0  0  0  0  0
  191.9860  175.2400  147.4480 C   0  0  0  0  0  2  0  0  0  0  0  0
  197.0770  174.0990  138.9580 N   0  0  0  0  0  2  0  0  0  0  0  0
  195.1370  175.0230  143.5930 C   0  0  0  0  0  0  0  0  0  0  0  0
  194.2320  175.4460  141.3760 C   0  0  0  0  0  0  0  0  0  0  0  0
  194.6620  174.3740  139.1570 C   0  0  0  0  0  2  0  0  0  0  0  0
  195.8830  174.5740  138.2710 C   0  0  0  0  0  2  0  0  0  0  0  0
  197.1980  175.8910  140.6740 C   0  0  0  0  0  2  0  0  0  0  0  0
  191.3070  175.5660  145.1950 C   0  0  0  0  0  0  0  0  0  0  0  0
  188.3300  176.5110  144.3240 C   0  0  0  0  0  2  0  0  0  0  0  0
  192.9990  175.6200  141.9270 N   0  0  0  0  0  0  0  0  0  0  0  0
  196.7120  174.8370  141.6580 C   0  0  0  0  0  2  0  0  0  0  0  0
  191.4750  175.6850  143.7950 C   0  0  0  0  0  0  0  0  0  0  0  0
  190.5360  175.7280  147.4400 C   0  0  0  0  0  2  0  0  0  0  0  0
  195.3440  175.1450  142.2080 C   0  0  0  0  0  0  0  0  0  0  0  0
  197.8480  175.2400  139.4510 C   0  0  0  0  0  2  0  0  0  0  0  0
  189.1940  176.8580  145.5470 C   0  0  2  0  0  3  0  0  0  0  0  0
  193.8510  175.2060  144.1210 C   0  0  2  0  0  3  0  0  0  0  0  0
  194.3650  175.6640  139.9000 C   0  0  0  0  0  2  0  0  0  0  0  0
  192.7710  175.5040  143.2630 C   0  0  0  0  0  0  0  0  0  0  0  0
  196.0670  174.6070  145.7650 C   0  0  0  0  0  3  0  0  0  0  0  0
  189.0010  175.5930  143.3010 C   0  0  0  0  0  2  0  0  0  0  0  0
  196.2300  174.7130  144.4780 N   0  0  0  0  0  0  0  0  0  0  0  0
  190.3610  176.1290  142.8810 C   0  0  0  0  0  2  0  0  0  0  0  0
  190.0430  175.6540  145.9840 C   0  0  1  0  0  3  0  0  0  0  0  0
  194.7710  174.7990  146.3500 N   0  0  0  0  0  0  0  0  0  0  0  0
  192.3750  175.2910  146.0200 C   0  0  0  0  0  0  0  0  0  0  0  0
  188.2780  177.3560  146.6570 C   0  0  0  0  0  2  0  0  0  0  0  0
  187.2090  176.3980  146.8880 N   0  0  0  0  0  2  0  0  0  0  0  0
  185.5530  179.4160  146.5310 C   0  0  0  0  0  2  0  0  0  0  0  0
  184.9860  177.1090  146.2050 C   0  0  0  0  0  2  0  0  0  0  0  0
  186.0370  177.1530  147.2980 C   0  0  0  0  0  3  0  0  0  0  0  0
  184.4140  178.5060  146.1330 C   0  0  0  0  0  2  0  0  0  0  0  0
  186.4090  178.6130  147.4900 C   0  0  0  0  0  2  0  0  0  0  0  0
  1 27  1  0  0  0  0
  1 26  2  0  0  0  0
  3 16  1  0  0  0  0
  4 18  1  0  0  0  0
  4 23  1  0  0  0  0
  5 11  2  0  0  0  0
  5 15  1  0  0  0  0
  6 19  1  0  0  0  0
  7  3  1  0  0  0  0
  7  6  1  0  0  0  0
  8 12  1  0  0  0  0
  9 25  1  0  0  0  0
  9 27  2  0  0  0  0
 10 17  1  0  0  0  0
 11 20  1  0  0  0  0
 12 15  1  0  0  0  0
 13  9  1  0  0  0  0
 14  2  1  0  0  0  0
 15  4  2  0  0  0  0
 16  8  1  0  0  0  0
 17 25  1  0  0  0  0
 17 28  1  1  0  0  0
 18 20  1  1  0  0  0
 18  1  1  0  0  0  0
 19  5  1  0  0  0  0
 20 13  2  0  0  0  0
 21 26  1  0  0  0  0
 22 10  1  0  0  0  0
 23 21  2  0  0  0  0
 24 22  1  0  0  0  0
 24 13  1  0  0  0  0
 25 14  1  1  0  0  0
 27  2  1  0  0  0  0
 28 29  1  0  0  0  0
 29 32  1  0  0  0  0
 30 34  1  0  0  0  0
 31 32  1  0  0  0  0
 32 34  1  0  0  0  0
 33 31  1  0  0  0  0
 33 30  1  0  0  0  0
M  END
>  <MODEL>
8

>  <REMARK>
 VINA RESULT:      -8.2      1.917      9.316
  Name = 
  3 active torsions:
  status: ('A' for Active; 'I' for Inactive)
    1  A    between atoms: C_17  and  C_28
    2  A    between atoms: C_28  and  N_29
    3  A    between atoms: N_29  and  C_32
                            x       y       z     vdW  Elec       q    Type
                         _______ _______ _______ _____ _____    ______ ____

>  <TORSDO>
F 3

$$$$
=
 OpenBabel11112417543D

 34 40  0  0  1  0  0  0  0  0999 V2000
  190.4860  172.7300  142.6020 C   0  0  0  0  0  0  0  0  0  0  0  0
  188.1710  173.4090  141.7260 C   0  0  0  0  0  2  0  0  0  0  0  0
  197.5500  172.5110  144.9700 N   0  0  0  0  0  2  0  0  0  0  0  0
  192.6640  172.1990  143.5110 C   0  0  0  0  0  0  0  0  0  0  0  0
  193.8160  173.8520  144.8720 C   0  0  0  0  0  0  0  0  0  0  0  0
  196.2150  174.5510  144.9890 C   0  0  0  0  0  2  0  0  0  0  0  0
  197.3540  173.7860  145.6460 C   0  0  0  0  0  2  0  0  0  0  0  0
  195.4680  171.4070  145.7550 C   0  0  0  0  0  2  0  0  0  0  0  0
  189.4920  174.8890  143.0320 C   0  0  0  0  0  0  0  0  0  0  0  0
  188.4520  177.7650  144.1110 C   0  0  0  0  0  2  0  0  0  0  0  0
  192.7670  174.7040  144.7000 N   0  0  0  0  0  0  0  0  0  0  0  0
  194.9510  171.6100  144.3370 C   0  0  0  0  0  2  0  0  0  0  0  0
  190.6090  175.2940  143.8010 C   0  0  0  0  0  0  0  0  0  0  0  0
  187.3260  174.6330  142.0820 C   0  0  0  0  0  2  0  0  0  0  0  0
  193.7850  172.5610  144.2780 C   0  0  0  0  0  0  0  0  0  0  0  0
  196.9980  171.4310  145.7880 C   0  0  0  0  0  2  0  0  0  0  0  0
  187.7200  176.4310  143.8920 C   0  0  2  0  0  3  0  0  0  0  0  0
  191.6070  173.1060  143.3550 C   0  0  0  0  0  0  0  0  0  0  0  0
  194.9320  174.3030  145.7630 C   0  0  0  0  0  2  0  0  0  0  0  0
  191.6730  174.3790  143.9610 C   0  0  0  0  0  0  0  0  0  0  0  0
  191.5560  170.5410  142.1780 C   0  0  0  0  0  3  0  0  0  0  0  0
  189.9520  177.7320  143.8170 C   0  0  0  0  0  2  0  0  0  0  0  0
  192.5880  170.9050  142.8820 N   0  0  0  0  0  0  0  0  0  0  0  0
  190.6400  176.5960  144.5600 C   0  0  0  0  0  2  0  0  0  0  0  0
  188.2820  175.6860  142.6710 C   0  0  1  0  0  3  0  0  0  0  0  0
  190.4450  171.4320  142.0020 N   0  0  0  0  0  2  0  0  0  0  0  0
  189.4360  173.6380  142.4610 C   0  0  0  0  0  0  0  0  0  0  0  0
  186.2300  176.7170  143.7620 C   0  0  0  0  0  2  0  0  0  0  0  0
  185.9550  178.1000  144.1180 N   0  0  0  0  0  2  0  0  0  0  0  0
  185.9410  177.1840  147.4550 C   0  0  0  0  0  2  0  0  0  0  0  0
  185.5670  179.2180  146.2430 C   0  0  0  0  0  2  0  0  0  0  0  0
  185.1530  178.0790  145.3290 C   0  0  0  0  0  3  0  0  0  0  0  0
  185.5760  178.6390  147.6380 C   0  0  0  0  0  2  0  0  0  0  0  0
  185.4080  176.7910  146.0920 C   0  0  0  0  0  2  0  0  0  0  0  0
  1 18  1  0  0  0  0
  2 14  1  0  0  0  0
  2 27  1  0  0  0  0
  3  7  1  0  0  0  0
  3 16  1  0  0  0  0
  4 15  1  0  0  0  0
  5 19  1  0  0  0  0
  6  7  1  0  0  0  0
  6 19  1  0  0  0  0
  8 16  1  0  0  0  0
  9 13  2  0  0  0  0
 11  5  1  0  0  0  0
 12  8  1  0  0  0  0
 13 20  1  0  0  0  0
 13 24  1  0  0  0  0
 15 12  1  0  0  0  0
 15  5  2  0  0  0  0
 17 28  1  6  0  0  0
 17 10  1  0  0  0  0
 18  4  2  0  0  0  0
 18 20  1  0  0  0  0
 20 11  2  0  0  0  0
 21 23  2  0  0  0  0
 22 10  1  0  0  0  0
 22 24  1  0  0  0  0
 23  4  1  0  0  0  0
 25 14  1  1  0  0  0
 25  9  1  0  0  0  0
 25 17  1  0  0  0  0
 26 21  1  0  0  0  0
 26  1  1  0  0  0  0
 27  1  2  0  0  0  0
 27  9  1  0  0  0  0
 28 29  1  0  0  0  0
 29 32  1  0  0  0  0
 30 33  1  0  0  0  0
 31 33  1  0  0  0  0
 32 34  1  0  0  0  0
 32 31  1  0  0  0  0
 34 30  1  0  0  0  0
M  END
>  <MODEL>
9

>  <REMARK>
 VINA RESULT:      -8.2      2.586      8.769
  Name = 
  3 active torsions:
  status: ('A' for Active; 'I' for Inactive)
    1  A    between atoms: C_17  and  C_28
    2  A    between atoms: C_28  and  N_29
    3  A    between atoms: N_29  and  C_32
                            x       y       z     vdW  Elec       q    Type
                         _______ _______ _______ _____ _____    ______ ____

>  <TORSDO>
F 3

$$$$
