=
 OpenBabel11112417363D

 28 31  0  0  1  0  0  0  0  0999 V2000
  191.5170  173.9520  142.8180 C   0  0  0  0  0  0  0  0  0  0  0  0
  188.7060  175.2100  140.6620 O   0  0  0  0  0  0  0  0  0  0  0  0
  189.7480  171.7880  142.9970 C   0  0  0  0  0  3  0  0  0  0  0  0
  192.5240  175.0620  142.8490 C   0  0  0  0  0  2  0  0  0  0  0  0
  187.0680  174.3540  142.3020 O   0  0  0  0  0  0  0  0  0  0  0  0
  187.8260  175.5620  141.8270 S   0  0  0  0  0  0  0  0  0  0  0  0
  185.9990  177.4210  142.6420 C   0  0  2  0  0  3  0  0  0  0  0  0
  188.7500  176.2860  143.1030 N   0  0  1  0  0  0  0  0  0  0  0  0
  193.9460  176.7110  146.0410 C   0  0  0  0  0  1  0  0  0  0  0  0
  189.6820  175.6960  145.2750 C   0  0  2  0  0  3  0  0  0  0  0  0
  186.9980  177.8450  143.7310 C   0  0  0  0  0  2  0  0  0  0  0  0
  186.6670  176.8450  141.3820 C   0  0  0  0  0  2  0  0  0  0  0  0
  193.0430  176.5550  144.8260 C   0  0  2  0  0  3  0  0  0  0  0  0
  190.2030  174.1550  143.2820 C   0  0  0  0  0  0  0  0  0  0  0  0
  185.2030  178.5090  142.2900 O   0  0  0  0  0  1  0  0  0  0  0  0
  191.7240  177.0060  145.0880 O   0  0  0  0  0  0  0  0  0  0  0  0
  189.3380  173.0600  143.4020 C   0  0  0  0  0  3  0  0  0  0  0  0
  191.9250  172.6740  142.4210 C   0  0  0  0  0  3  0  0  0  0  0  0
  191.0390  171.5970  142.4980 C   0  0  0  0  0  3  0  0  0  0  0  0
  193.1480  175.1420  144.2350 C   0  0  0  0  0  2  0  0  0  0  0  0
  188.6320  176.7900  145.4240 C   0  0  1  0  0  3  0  0  0  0  0  0
  191.0440  176.0610  145.8870 C   0  0  1  0  0  3  0  0  0  0  0  0
  187.8160  176.6300  144.1550 C   0  0  2  0  0  3  0  0  0  0  0  0
  189.8070  175.5200  143.7710 C   0  0  1  0  0  3  0  0  0  0  0  0
  191.1210  175.4470  148.0140 C   0  0  0  0  0  1  0  0  0  0  0  0
  190.8950  176.5500  147.1890 O   0  0  0  0  0  0  0  0  0  0  0  0
  187.7760  176.5120  146.6510 C   0  0  0  0  0  2  0  0  0  0  0  0
  187.2610  177.8090  147.2430 C   0  0  0  0  0  1  0  0  0  0  0  0
  1  4  1  0  0  0  0
  1 14  1  0  0  0  0
  2  6  2  0  0  0  0
  3 17  1  0  0  0  0
  4 20  1  0  0  0  0
  6  5  2  0  0  0  0
  7 15  1  6  0  0  0
  7 11  1  0  0  0  0
  8  6  1  6  0  0  0
  8 24  1  0  0  0  0
  8 23  1  0  0  0  0
 10 21  1  0  0  0  0
 10 22  1  0  0  0  0
 11 23  1  0  0  0  0
 12  6  1  0  0  0  0
 12  7  1  0  0  0  0
 13 16  1  0  0  0  0
 13  9  1  0  0  0  0
 14 17  2  0  0  0  0
 14 24  1  0  0  0  0
 16 22  1  0  0  0  0
 18 19  1  0  0  0  0
 18  1  2  0  0  0  0
 19  3  2  0  0  0  0
 20 13  1  0  0  0  0
 21 27  1  0  0  0  0
 22 26  1  0  0  0  0
 23 21  1  0  0  0  0
 24 10  1  0  0  0  0
 26 25  1  0  0  0  0
 27 28  1  0  0  0  0
M  END
>  <MODEL>
1

>  <REMARK>
 VINA RESULT:      -7.3      0.000      0.000
  Name = 
  2 active torsions:
  status: ('A' for Active; 'I' for Inactive)
    1  A    between atoms: C_5  and  C_24
    2  A    between atoms: O_17  and  C_25
                            x       y       z     vdW  Elec       q    Type
                         _______ _______ _______ _____ _____    ______ ____

>  <TORSDO>
F 2

$$$$
=
 OpenBabel11112417363D

 28 31  0  0  1  0  0  0  0  0999 V2000
  187.4620  177.5560  145.2420 C   0  0  0  0  0  0  0  0  0  0  0  0
  190.6660  177.9430  147.1710 O   0  0  0  0  0  0  0  0  0  0  0  0
  186.8440  176.0680  147.5330 C   0  0  0  0  0  3  0  0  0  0  0  0
  187.6870  178.2750  143.9460 C   0  0  0  0  0  2  0  0  0  0  0  0
  190.5750  175.5540  147.7960 O   0  0  0  0  0  0  0  0  0  0  0  0
  191.1560  176.5610  146.8430 S   0  0  0  0  0  0  0  0  0  0  0  0
  193.4450  175.1810  146.2840 C   0  0  2  0  0  3  0  0  0  0  0  0
  190.8130  176.1590  145.1930 N   0  0  1  0  0  0  0  0  0  0  0  0
  187.2430  176.7450  140.4260 C   0  0  0  0  0  1  0  0  0  0  0  0
  189.2390  174.8180  143.9040 C   0  0  2  0  0  3  0  0  0  0  0  0
  192.8790  174.9230  144.8770 C   0  0  0  0  0  2  0  0  0  0  0  0
  192.9380  176.4840  146.9230 C   0  0  0  0  0  2  0  0  0  0  0  0
  187.9850  177.2020  141.6730 C   0  0  2  0  0  3  0  0  0  0  0  0
  188.2840  176.4770  145.6220 C   0  0  0  0  0  0  0  0  0  0  0  0
  194.8370  175.2000  146.2310 O   0  0  0  0  0  1  0  0  0  0  0  0
  189.0500  176.3260  142.0040 O   0  0  0  0  0  0  0  0  0  0  0  0
  187.9460  175.7170  146.7490 C   0  0  0  0  0  3  0  0  0  0  0  0
  186.3550  177.8980  146.0270 C   0  0  0  0  0  3  0  0  0  0  0  0
  186.0540  177.1640  147.1770 C   0  0  0  0  0  3  0  0  0  0  0  0
  187.0100  177.5100  142.8170 C   0  0  0  0  0  2  0  0  0  0  0  0
  190.6580  174.2880  143.7310 C   0  0  1  0  0  3  0  0  0  0  0  0
  188.5370  175.1420  142.5760 C   0  0  1  0  0  3  0  0  0  0  0  0
  191.3600  174.8380  144.9600 C   0  0  2  0  0  3  0  0  0  0  0  0
  189.4250  176.0820  144.7270 C   0  0  1  0  0  3  0  0  0  0  0  0
  187.5330  173.2840  141.9070 C   0  0  0  0  0  1  0  0  0  0  0  0
  188.6550  174.0800  141.6720 O   0  0  0  0  0  0  0  0  0  0  0  0
  190.6410  172.7670  143.7590 C   0  0  0  0  0  2  0  0  0  0  0  0
  189.7230  172.2670  144.8570 C   0  0  0  0  0  1  0  0  0  0  0  0
  1 14  2  0  0  0  0
  1 18  1  0  0  0  0
  4  1  1  0  0  0  0
  6 12  1  0  0  0  0
  6  2  2  0  0  0  0
  6  5  2  0  0  0  0
  7 15  1  6  0  0  0
  7 12  1  0  0  0  0
  8  6  1  1  0  0  0
  9 13  1  0  0  0  0
 10 24  1  0  0  0  0
 11 23  1  0  0  0  0
 11  7  1  0  0  0  0
 13 16  1  0  0  0  0
 13 20  1  0  0  0  0
 14 17  1  0  0  0  0
 16 22  1  0  0  0  0
 17  3  2  0  0  0  0
 18 19  2  0  0  0  0
 19  3  1  0  0  0  0
 20  4  1  0  0  0  0
 21 27  1  0  0  0  0
 21 10  1  0  0  0  0
 21 23  1  0  0  0  0
 22 10  1  0  0  0  0
 23  8  1  0  0  0  0
 24  8  1  0  0  0  0
 24 14  1  0  0  0  0
 26 25  1  0  0  0  0
 26 22  1  0  0  0  0
 27 28  1  0  0  0  0
M  END
>  <MODEL>
2

>  <REMARK>
 VINA RESULT:      -7.2      2.055      6.405
  Name = 
  2 active torsions:
  status: ('A' for Active; 'I' for Inactive)
    1  A    between atoms: C_5  and  C_24
    2  A    between atoms: O_17  and  C_25
                            x       y       z     vdW  Elec       q    Type
                         _______ _______ _______ _____ _____    ______ ____

>  <TORSDO>
F 2

$$$$
=
 OpenBabel11112417363D

 28 31  0  0  1  0  0  0  0  0999 V2000
  188.8030  176.6260  145.6500 C   0  0  0  0  0  0  0  0  0  0  0  0
  192.3680  176.9880  146.7870 O   0  0  0  0  0  0  0  0  0  0  0  0
  188.9760  174.4740  147.4350 C   0  0  0  0  0  3  0  0  0  0  0  0
  188.5970  177.7070  144.6320 C   0  0  0  0  0  2  0  0  0  0  0  0
  192.6630  174.5400  146.6320 O   0  0  0  0  0  0  0  0  0  0  0  0
  192.8680  175.8560  145.9350 S   0  0  0  0  0  0  0  0  0  0  0  0
  195.0250  175.0920  144.4460 C   0  0  2  0  0  3  0  0  0  0  0  0
  192.1190  175.8810  144.3730 N   0  0  1  0  0  0  0  0  0  0  0  0
  187.3340  177.1720  141.0200 C   0  0  0  0  0  1  0  0  0  0  0  0
  190.3750  174.7110  143.1390 C   0  0  2  0  0  3  0  0  0  0  0  0
  194.1180  175.1480  143.2050 C   0  0  0  0  0  2  0  0  0  0  0  0
  194.6020  176.0600  145.5640 C   0  0  0  0  0  2  0  0  0  0  0  0
  188.3490  177.3800  142.1340 C   0  0  2  0  0  3  0  0  0  0  0  0
  189.7890  175.6370  145.4660 C   0  0  0  0  0  0  0  0  0  0  0  0
  196.3410  175.3580  144.0730 O   0  0  0  0  0  1  0  0  0  0  0  0
  189.5360  176.6370  141.9110 O   0  0  0  0  0  0  0  0  0  0  0  0
  189.8440  174.5470  146.3430 C   0  0  0  0  0  3  0  0  0  0  0  0
  187.9300  176.5440  146.7410 C   0  0  0  0  0  3  0  0  0  0  0  0
  188.0250  175.4780  147.6390 C   0  0  0  0  0  3  0  0  0  0  0  0
  187.7050  177.1860  143.5140 C   0  0  0  0  0  2  0  0  0  0  0  0
  191.7310  174.4960  142.4780 C   0  0  1  0  0  3  0  0  0  0  0  0
  189.3070  175.2720  142.1860 C   0  0  1  0  0  3  0  0  0  0  0  0
  192.6940  174.7890  143.6140 C   0  0  2  0  0  3  0  0  0  0  0  0
  190.6680  175.7060  144.2490 C   0  0  1  0  0  3  0  0  0  0  0  0
  188.3040  173.5520  141.2140 C   0  0  0  0  0  1  0  0  0  0  0  0
  189.2630  174.5410  140.9930 O   0  0  0  0  0  0  0  0  0  0  0  0
  191.8560  173.0480  142.0290 C   0  0  0  0  0  2  0  0  0  0  0  0
  191.3060  172.1150  143.0900 C   0  0  0  0  0  1  0  0  0  0  0  0
  1 18  1  0  0  0  0
  3 19  1  0  0  0  0
  4  1  1  0  0  0  0
  6  5  2  0  0  0  0
  6  2  2  0  0  0  0
  7 15  1  6  0  0  0
  7 12  1  0  0  0  0
  8  6  1  1  0  0  0
  9 13  1  0  0  0  0
 10 24  1  0  0  0  0
 11 23  1  0  0  0  0
 11  7  1  0  0  0  0
 12  6  1  0  0  0  0
 13 20  1  0  0  0  0
 14  1  2  0  0  0  0
 14 17  1  0  0  0  0
 16 13  1  0  0  0  0
 16 22  1  0  0  0  0
 17  3  2  0  0  0  0
 18 19  2  0  0  0  0
 20  4  1  0  0  0  0
 21 10  1  0  0  0  0
 21 23  1  0  0  0  0
 22 10  1  0  0  0  0
 23  8  1  0  0  0  0
 24  8  1  0  0  0  0
 24 14  1  0  0  0  0
 26 25  1  0  0  0  0
 26 22  1  0  0  0  0
 27 21  1  0  0  0  0
 27 28  1  0  0  0  0
M  END
>  <MODEL>
3

>  <REMARK>
 VINA RESULT:      -7.0      2.172      6.445
  Name = 
  2 active torsions:
  status: ('A' for Active; 'I' for Inactive)
    1  A    between atoms: C_5  and  C_24
    2  A    between atoms: O_17  and  C_25
                            x       y       z     vdW  Elec       q    Type
                         _______ _______ _______ _____ _____    ______ ____

>  <TORSDO>
F 2

$$$$
=
 OpenBabel11112417363D

 28 31  0  0  1  0  0  0  0  0999 V2000
  191.9580  174.1750  144.8150 C   0  0  0  0  0  0  0  0  0  0  0  0
  189.8070  176.1380  147.1930 O   0  0  0  0  0  0  0  0  0  0  0  0
  193.1260  176.7090  144.5640 C   0  0  0  0  0  3  0  0  0  0  0  0
  191.3920  172.7870  144.8170 C   0  0  0  0  0  2  0  0  0  0  0  0
  189.7280  178.0050  145.5750 O   0  0  0  0  0  0  0  0  0  0  0  0
  189.0100  176.7930  146.1000 S   0  0  0  0  0  0  0  0  0  0  0  0
  186.4820  177.6450  145.5160 C   0  0  2  0  0  3  0  0  0  0  0  0
  188.6460  175.6620  144.8380 N   0  0  1  0  0  0  0  0  0  0  0  0
  190.2420  170.8300  141.6900 C   0  0  0  0  0  1  0  0  0  0  0  0
  189.3870  175.1030  142.5860 C   0  0  2  0  0  3  0  0  0  0  0  0
  186.4360  176.5740  144.4130 C   0  0  0  0  0  2  0  0  0  0  0  0
  187.3980  177.2780  146.6950 C   0  0  0  0  0  2  0  0  0  0  0  0
  190.1010  171.6970  142.9330 C   0  0  2  0  0  3  0  0  0  0  0  0
  191.1700  175.2770  144.4320 C   0  0  0  0  0  0  0  0  0  0  0  0
  185.1930  177.8870  145.9850 O   0  0  0  0  0  1  0  0  0  0  0  0
  189.1050  172.6930  142.7700 O   0  0  0  0  0  0  0  0  0  0  0  0
  191.7700  176.5320  144.2740 C   0  0  0  0  0  3  0  0  0  0  0  0
  193.3170  174.3560  145.0960 C   0  0  0  0  0  3  0  0  0  0  0  0
  193.8970  175.6220  144.9840 C   0  0  0  0  0  3  0  0  0  0  0  0
  191.4660  172.2070  143.4120 C   0  0  0  0  0  2  0  0  0  0  0  0
  187.9390  175.5780  142.5690 C   0  0  1  0  0  3  0  0  0  0  0  0
  189.5910  173.7240  141.9370 C   0  0  1  0  0  3  0  0  0  0  0  0
  187.8420  176.3680  143.8610 C   0  0  2  0  0  3  0  0  0  0  0  0
  189.7300  175.0490  144.0650 C   0  0  1  0  0  3  0  0  0  0  0  0
  190.0170  173.7750  139.7640 C   0  0  0  0  0  1  0  0  0  0  0  0
  188.9730  173.6620  140.6830 O   0  0  0  0  0  0  0  0  0  0  0  0
  187.7130  176.4850  141.3680 C   0  0  0  0  0  2  0  0  0  0  0  0
  188.2960  177.8600  141.6270 C   0  0  0  0  0  1  0  0  0  0  0  0
  1  4  1  0  0  0  0
  1 18  1  0  0  0  0
  3 19  1  0  0  0  0
  5  6  2  0  0  0  0
  6 12  1  0  0  0  0
  6  2  2  0  0  0  0
  7 15  1  1  0  0  0
  7 12  1  0  0  0  0
  8  6  1  1  0  0  0
  9 13  1  0  0  0  0
 10 24  1  0  0  0  0
 11  7  1  0  0  0  0
 13 20  1  0  0  0  0
 14  1  2  0  0  0  0
 16 13  1  0  0  0  0
 17 14  1  0  0  0  0
 17  3  2  0  0  0  0
 19 18  2  0  0  0  0
 20  4  1  0  0  0  0
 21 10  1  0  0  0  0
 21 23  1  0  0  0  0
 22 10  1  0  0  0  0
 22 16  1  0  0  0  0
 23 11  1  0  0  0  0
 23  8  1  0  0  0  0
 24 14  1  0  0  0  0
 24  8  1  0  0  0  0
 25 26  1  0  0  0  0
 26 22  1  0  0  0  0
 27 28  1  0  0  0  0
 27 21  1  0  0  0  0
M  END
>  <MODEL>
4

>  <REMARK>
 VINA RESULT:      -6.9      1.930      4.804
  Name = 
  2 active torsions:
  status: ('A' for Active; 'I' for Inactive)
    1  A    between atoms: C_5  and  C_24
    2  A    between atoms: O_17  and  C_25
                            x       y       z     vdW  Elec       q    Type
                         _______ _______ _______ _____ _____    ______ ____

>  <TORSDO>
F 2

$$$$
=
 OpenBabel11112417363D

 28 31  0  0  1  0  0  0  0  0999 V2000
  190.6190  176.8480  145.6040 C   0  0  0  0  0  0  0  0  0  0  0  0
  194.2870  177.6280  145.3380 O   0  0  0  0  0  0  0  0  0  0  0  0
  191.5660  175.5710  147.9100 C   0  0  0  0  0  3  0  0  0  0  0  0
  189.9950  177.4410  144.3770 C   0  0  0  0  0  2  0  0  0  0  0  0
  194.8260  175.3160  146.0240 O   0  0  0  0  0  0  0  0  0  0  0  0
  194.6550  176.2520  144.8600 S   0  0  0  0  0  0  0  0  0  0  0  0
  196.3660  174.9640  143.1660 C   0  0  2  0  0  3  0  0  0  0  0  0
  193.4890  175.6600  143.7230 N   0  0  1  0  0  0  0  0  0  0  0  0
  187.8160  175.5280  141.8220 C   0  0  0  0  0  1  0  0  0  0  0  0
  191.6210  174.0990  143.6330 C   0  0  2  0  0  3  0  0  0  0  0  0
  195.1390  174.5270  142.3480 C   0  0  0  0  0  2  0  0  0  0  0  0
  196.1680  176.2940  143.9130 C   0  0  0  0  0  2  0  0  0  0  0  0
  189.0760  176.1570  142.3980 C   0  0  2  0  0  3  0  0  0  0  0  0
  191.6240  175.8660  145.5020 C   0  0  0  0  0  0  0  0  0  0  0  0
  197.4740  175.0620  142.3270 O   0  0  0  0  0  1  0  0  0  0  0  0
  190.2310  175.3870  142.1060 O   0  0  0  0  0  0  0  0  0  0  0  0
  192.0650  175.2090  146.6570 C   0  0  0  0  0  3  0  0  0  0  0  0
  190.1170  177.2010  146.8610 C   0  0  0  0  0  3  0  0  0  0  0  0
  190.5990  176.5740  148.0130 C   0  0  0  0  0  3  0  0  0  0  0  0
  188.8890  176.5220  143.8760 C   0  0  0  0  0  2  0  0  0  0  0  0
  192.7440  173.6420  142.7090 C   0  0  1  0  0  3  0  0  0  0  0  0
  190.2620  174.2390  142.9280 C   0  0  1  0  0  3  0  0  0  0  0  0
  193.9500  174.3580  143.2880 C   0  0  2  0  0  3  0  0  0  0  0  0
  192.0980  175.4500  144.1370 C   0  0  1  0  0  3  0  0  0  0  0  0
  189.2130  172.2910  143.0270 C   0  0  0  0  0  1  0  0  0  0  0  0
  189.9660  173.0990  142.1740 O   0  0  0  0  0  0  0  0  0  0  0  0
  192.9120  172.1340  142.8180 C   0  0  0  0  0  2  0  0  0  0  0  0
  192.7890  171.6900  144.2630 C   0  0  0  0  0  1  0  0  0  0  0  0
  1 18  1  0  0  0  0
  3 19  1  0  0  0  0
  4  1  1  0  0  0  0
  6  2  2  0  0  0  0
  6  5  2  0  0  0  0
  7 15  1  6  0  0  0
  7 12  1  0  0  0  0
  8 24  1  0  0  0  0
  8  6  1  1  0  0  0
  9 13  1  0  0  0  0
 10 24  1  0  0  0  0
 11  7  1  0  0  0  0
 11 23  1  0  0  0  0
 12  6  1  0  0  0  0
 13 20  1  0  0  0  0
 14  1  2  0  0  0  0
 14 17  1  0  0  0  0
 16 13  1  0  0  0  0
 16 22  1  0  0  0  0
 17  3  2  0  0  0  0
 18 19  2  0  0  0  0
 20  4  1  0  0  0  0
 21 27  1  0  0  0  0
 21 23  1  0  0  0  0
 21 10  1  0  0  0  0
 22 10  1  0  0  0  0
 23  8  1  0  0  0  0
 24 14  1  0  0  0  0
 26 22  1  0  0  0  0
 26 25  1  0  0  0  0
 27 28  1  0  0  0  0
M  END
>  <MODEL>
5

>  <REMARK>
 VINA RESULT:      -6.8      2.790      6.817
  Name = 
  2 active torsions:
  status: ('A' for Active; 'I' for Inactive)
    1  A    between atoms: C_5  and  C_24
    2  A    between atoms: O_17  and  C_25
                            x       y       z     vdW  Elec       q    Type
                         _______ _______ _______ _____ _____    ______ ____

>  <TORSDO>
F 2

$$$$
=
 OpenBabel11112417363D

 28 31  0  0  1  0  0  0  0  0999 V2000
  190.7850  176.9230  145.8360 C   0  0  0  0  0  0  0  0  0  0  0  0
  194.4660  177.5410  145.3880 O   0  0  0  0  0  0  0  0  0  0  0  0
  191.8300  174.9160  147.4880 C   0  0  0  0  0  3  0  0  0  0  0  0
  190.1020  177.9160  144.9460 C   0  0  0  0  0  2  0  0  0  0  0  0
  194.8540  175.1050  145.2370 O   0  0  0  0  0  0  0  0  0  0  0  0
  194.6580  176.3760  144.4580 S   0  0  0  0  0  0  0  0  0  0  0  0
  196.0700  175.6140  142.2490 C   0  0  2  0  0  3  0  0  0  0  0  0
  193.3370  176.2510  143.3430 N   0  0  1  0  0  0  0  0  0  0  0  0
  187.5190  177.0610  142.2010 C   0  0  0  0  0  1  0  0  0  0  0  0
  191.3340  174.9110  142.9910 C   0  0  2  0  0  3  0  0  0  0  0  0
  194.7350  175.5360  141.4910 C   0  0  0  0  0  2  0  0  0  0  0  0
  196.0690  176.6380  143.3970 C   0  0  0  0  0  2  0  0  0  0  0  0
  188.8820  177.3970  142.7890 C   0  0  2  0  0  3  0  0  0  0  0  0
  191.6810  175.9730  145.3080 C   0  0  0  0  0  0  0  0  0  0  0  0
  197.0970  175.9170  141.3570 O   0  0  0  0  0  1  0  0  0  0  0  0
  189.9260  176.7000  142.1310 O   0  0  0  0  0  0  0  0  0  0  0  0
  192.1690  174.9520  146.1330 C   0  0  0  0  0  3  0  0  0  0  0  0
  190.4420  176.8760  147.1930 C   0  0  0  0  0  3  0  0  0  0  0  0
  190.9730  175.8840  148.0190 C   0  0  0  0  0  3  0  0  0  0  0  0
  188.8720  177.2730  144.3180 C   0  0  0  0  0  2  0  0  0  0  0  0
  192.3150  174.7170  141.8410 C   0  0  1  0  0  3  0  0  0  0  0  0
  189.9310  175.3480  142.5370 C   0  0  1  0  0  3  0  0  0  0  0  0
  193.6330  175.1370  142.4650 C   0  0  2  0  0  3  0  0  0  0  0  0
  191.9800  175.9970  143.8350 C   0  0  1  0  0  3  0  0  0  0  0  0
  188.6980  173.5520  142.1400 C   0  0  0  0  0  1  0  0  0  0  0  0
  189.4600  174.5320  141.5030 O   0  0  0  0  0  0  0  0  0  0  0  0
  192.3530  173.2480  141.4460 C   0  0  0  0  0  2  0  0  0  0  0  0
  192.2340  173.1000  139.9420 C   0  0  0  0  0  1  0  0  0  0  0  0
  1 18  1  0  0  0  0
  3 19  1  0  0  0  0
  4  1  1  0  0  0  0
  6  5  2  0  0  0  0
  6  2  2  0  0  0  0
  7 15  1  6  0  0  0
  7 12  1  0  0  0  0
  8 24  1  0  0  0  0
  8  6  1  1  0  0  0
  9 13  1  0  0  0  0
 10 24  1  0  0  0  0
 11  7  1  0  0  0  0
 11 23  1  0  0  0  0
 12  6  1  0  0  0  0
 13 20  1  0  0  0  0
 14  1  2  0  0  0  0
 14 17  1  0  0  0  0
 16 22  1  0  0  0  0
 16 13  1  0  0  0  0
 17  3  2  0  0  0  0
 18 19  2  0  0  0  0
 20  4  1  0  0  0  0
 21 23  1  0  0  0  0
 21 10  1  0  0  0  0
 22 10  1  0  0  0  0
 23  8  1  0  0  0  0
 24 14  1  0  0  0  0
 26 25  1  0  0  0  0
 26 22  1  0  0  0  0
 27 21  1  0  0  0  0
 28 27  1  0  0  0  0
M  END
>  <MODEL>
6

>  <REMARK>
 VINA RESULT:      -6.8      2.770      6.721
  Name = 
  2 active torsions:
  status: ('A' for Active; 'I' for Inactive)
    1  A    between atoms: C_5  and  C_24
    2  A    between atoms: O_17  and  C_25
                            x       y       z     vdW  Elec       q    Type
                         _______ _______ _______ _____ _____    ______ ____

>  <TORSDO>
F 2

$$$$
=
 OpenBabel11112417363D

 28 31  0  0  1  0  0  0  0  0999 V2000
  186.2370  176.8500  143.2180 C   0  0  0  0  0  0  0  0  0  0  0  0
  187.2480  173.4830  141.8870 O   0  0  0  0  0  0  0  0  0  0  0  0
  187.2900  177.5950  140.7320 C   0  0  0  0  0  3  0  0  0  0  0  0
  185.6970  176.5910  144.5920 C   0  0  0  0  0  2  0  0  0  0  0  0
  189.3580  174.4530  141.0430 O   0  0  0  0  0  0  0  0  0  0  0  0
  188.7090  173.6920  142.1660 S   0  0  0  0  0  0  0  0  0  0  0  0
  190.9460  172.3470  142.9690 C   0  0  2  0  0  3  0  0  0  0  0  0
  188.9410  174.4750  143.6940 N   0  0  1  0  0  0  0  0  0  0  0  0
  186.9230  178.2910  147.8390 C   0  0  0  0  0  1  0  0  0  0  0  0
  189.4870  176.6780  144.5790 C   0  0  2  0  0  3  0  0  0  0  0  0
  190.9490  173.2220  144.2350 C   0  0  0  0  0  2  0  0  0  0  0  0
  189.5450  172.1280  142.3750 C   0  0  0  0  0  2  0  0  0  0  0  0
  186.8170  177.2050  146.7780 C   0  0  2  0  0  3  0  0  0  0  0  0
  187.5600  176.5050  142.8830 C   0  0  0  0  0  0  0  0  0  0  0  0
  191.5290  171.1140  143.2530 O   0  0  0  0  0  1  0  0  0  0  0  0
  188.0630  176.5680  146.5500 O   0  0  0  0  0  0  0  0  0  0  0  0
  188.0890  176.9130  141.6520 C   0  0  0  0  0  3  0  0  0  0  0  0
  185.4430  177.5410  142.2950 C   0  0  0  0  0  3  0  0  0  0  0  0
  185.9640  177.9010  141.0500 C   0  0  0  0  0  3  0  0  0  0  0  0
  186.1080  177.7260  145.5200 C   0  0  0  0  0  2  0  0  0  0  0  0
  190.5770  175.6750  144.9350 C   0  0  1  0  0  3  0  0  0  0  0  0
  188.9050  177.4150  145.7970 C   0  0  1  0  0  3  0  0  0  0  0  0
  190.3710  174.5900  143.8940 C   0  0  2  0  0  3  0  0  0  0  0  0
  188.4170  175.8270  143.9150 C   0  0  1  0  0  3  0  0  0  0  0  0
  190.0670  176.9930  147.6360 C   0  0  0  0  0  1  0  0  0  0  0  0
  189.9230  177.9270  146.6080 O   0  0  0  0  0  0  0  0  0  0  0  0
  191.9420  176.3260  144.7690 C   0  0  0  0  0  2  0  0  0  0  0  0
  191.9450  177.2530  143.5690 C   0  0  0  0  0  1  0  0  0  0  0  0
  1  4  1  0  0  0  0
  2  6  2  0  0  0  0
  3 19  2  0  0  0  0
  3 17  1  0  0  0  0
  4 20  1  0  0  0  0
  5  6  2  0  0  0  0
  6 12  1  0  0  0  0
  7 15  1  1  0  0  0
  7 11  1  0  0  0  0
  8  6  1  6  0  0  0
  8 23  1  0  0  0  0
  8 24  1  0  0  0  0
 10 21  1  0  0  0  0
 10 22  1  0  0  0  0
 12  7  1  0  0  0  0
 13  9  1  0  0  0  0
 14  1  1  0  0  0  0
 14 24  1  0  0  0  0
 16 13  1  0  0  0  0
 17 14  2  0  0  0  0
 18  1  2  0  0  0  0
 19 18  1  0  0  0  0
 20 13  1  0  0  0  0
 22 16  1  0  0  0  0
 22 26  1  0  0  0  0
 23 11  1  0  0  0  0
 23 21  1  0  0  0  0
 24 10  1  0  0  0  0
 26 25  1  0  0  0  0
 27 21  1  0  0  0  0
 28 27  1  0  0  0  0
M  END
>  <MODEL>
7

>  <REMARK>
 VINA RESULT:      -6.6      1.770      5.332
  Name = 
  2 active torsions:
  status: ('A' for Active; 'I' for Inactive)
    1  A    between atoms: C_5  and  C_24
    2  A    between atoms: O_17  and  C_25
                            x       y       z     vdW  Elec       q    Type
                         _______ _______ _______ _____ _____    ______ ____

>  <TORSDO>
F 2

$$$$
=
 OpenBabel11112417363D

 28 31  0  0  1  0  0  0  0  0999 V2000
  188.3930  176.4990  144.4990 C   0  0  0  0  0  0  0  0  0  0  0  0
  187.6310  173.6600  142.1550 O   0  0  0  0  0  0  0  0  0  0  0  0
  188.4340  177.8540  142.0480 C   0  0  0  0  0  3  0  0  0  0  0  0
  188.4530  175.8840  145.8650 C   0  0  0  0  0  2  0  0  0  0  0  0
  189.3490  174.4950  140.5880 O   0  0  0  0  0  0  0  0  0  0  0  0
  189.0530  173.5190  141.6920 S   0  0  0  0  0  0  0  0  0  0  0  0
  190.8800  171.6330  140.9420 C   0  0  2  0  0  3  0  0  0  0  0  0
  190.1550  173.6910  143.0180 N   0  0  1  0  0  0  0  0  0  0  0  0
  191.4260  176.1630  148.3180 C   0  0  0  0  0  1  0  0  0  0  0  0
  191.6810  175.3450  143.9520 C   0  0  2  0  0  3  0  0  0  0  0  0
  191.7020  172.0160  142.1840 C   0  0  0  0  0  2  0  0  0  0  0  0
  189.3680  171.8610  141.1090 C   0  0  0  0  0  2  0  0  0  0  0  0
  190.5400  175.5320  147.2540 C   0  0  2  0  0  3  0  0  0  0  0  0
  189.2610  176.0730  143.4750 C   0  0  0  0  0  0  0  0  0  0  0  0
  191.1160  170.2970  140.6200 O   0  0  0  0  0  1  0  0  0  0  0  0
  191.2990  174.8120  146.2960 O   0  0  0  0  0  0  0  0  0  0  0  0
  189.2990  176.7800  142.2660 C   0  0  0  0  0  3  0  0  0  0  0  0
  187.5330  177.5810  144.2780 C   0  0  0  0  0  3  0  0  0  0  0  0
  187.5440  178.2490  143.0510 C   0  0  0  0  0  3  0  0  0  0  0  0
  189.5540  176.5550  146.6740 C   0  0  0  0  0  2  0  0  0  0  0  0
  192.4490  174.1150  143.4830 C   0  0  1  0  0  3  0  0  0  0  0  0
  191.9450  175.7120  145.4210 C   0  0  1  0  0  3  0  0  0  0  0  0
  191.4880  173.4950  142.4850 C   0  0  2  0  0  3  0  0  0  0  0  0
  190.2250  174.9560  143.7570 C   0  0  1  0  0  3  0  0  0  0  0  0
  193.6930  177.0730  145.4770 C   0  0  0  0  0  1  0  0  0  0  0  0
  193.3170  175.7460  145.6920 O   0  0  0  0  0  0  0  0  0  0  0  0
  193.7330  174.5490  142.7910 C   0  0  0  0  0  2  0  0  0  0  0  0
  193.4850  175.7780  141.9370 C   0  0  0  0  0  1  0  0  0  0  0  0
  1  4  1  0  0  0  0
  3 17  2  0  0  0  0
  3 19  1  0  0  0  0
  4 20  1  0  0  0  0
  5  6  2  0  0  0  0
  6  2  2  0  0  0  0
  7 15  1  1  0  0  0
  7 12  1  0  0  0  0
  7 11  1  0  0  0  0
  8  6  1  6  0  0  0
  8 24  1  0  0  0  0
 10 22  1  0  0  0  0
 11 23  1  0  0  0  0
 12  6  1  0  0  0  0
 13  9  1  0  0  0  0
 14 24  1  0  0  0  0
 14  1  2  0  0  0  0
 16 13  1  0  0  0  0
 17 14  1  0  0  0  0
 18  1  1  0  0  0  0
 19 18  2  0  0  0  0
 20 13  1  0  0  0  0
 21 10  1  0  0  0  0
 22 26  1  0  0  0  0
 22 16  1  0  0  0  0
 23  8  1  0  0  0  0
 23 21  1  0  0  0  0
 24 10  1  0  0  0  0
 25 26  1  0  0  0  0
 27 21  1  0  0  0  0
 28 27  1  0  0  0  0
M  END
>  <MODEL>
8

>  <REMARK>
 VINA RESULT:      -6.4      1.817      5.189
  Name = 
  2 active torsions:
  status: ('A' for Active; 'I' for Inactive)
    1  A    between atoms: C_5  and  C_24
    2  A    between atoms: O_17  and  C_25
                            x       y       z     vdW  Elec       q    Type
                         _______ _______ _______ _____ _____    ______ ____

>  <TORSDO>
F 2

$$$$
=
 OpenBabel11112417363D

 28 31  0  0  1  0  0  0  0  0999 V2000
  189.0630  176.5730  144.8630 C   0  0  0  0  0  0  0  0  0  0  0  0
  188.6630  173.2520  143.1480 O   0  0  0  0  0  0  0  0  0  0  0  0
  189.4090  177.3480  142.1930 C   0  0  0  0  0  3  0  0  0  0  0  0
  188.9510  176.2820  146.3290 C   0  0  0  0  0  2  0  0  0  0  0  0
  190.5620  173.7930  141.6620 O   0  0  0  0  0  0  0  0  0  0  0  0
  190.1370  173.0750  142.9120 S   0  0  0  0  0  0  0  0  0  0  0  0
  192.0760  171.1530  142.8460 C   0  0  2  0  0  3  0  0  0  0  0  0
  191.0500  173.5880  144.2920 N   0  0  1  0  0  0  0  0  0  0  0  0
  191.5660  177.2340  149.0090 C   0  0  0  0  0  1  0  0  0  0  0  0
  192.4120  175.4750  145.0110 C   0  0  2  0  0  3  0  0  0  0  0  0
  192.7200  171.8410  144.0620 C   0  0  0  0  0  2  0  0  0  0  0  0
  190.5520  171.3450  142.7650 C   0  0  0  0  0  2  0  0  0  0  0  0
  190.8400  176.3430  148.0130 C   0  0  2  0  0  3  0  0  0  0  0  0
  190.0660  175.9690  144.0790 C   0  0  0  0  0  0  0  0  0  0  0  0
  192.3730  169.7920  142.8680 O   0  0  0  0  0  1  0  0  0  0  0  0
  191.7300  175.4620  147.3470 O   0  0  0  0  0  0  0  0  0  0  0  0
  190.2540  176.3890  142.7570 C   0  0  0  0  0  3  0  0  0  0  0  0
  188.2240  177.5390  144.2950 C   0  0  0  0  0  3  0  0  0  0  0  0
  188.3880  177.9160  142.9600 C   0  0  0  0  0  3  0  0  0  0  0  0
  189.9240  177.1660  147.0970 C   0  0  0  0  0  2  0  0  0  0  0  0
  193.2550  174.2080  144.9330 C   0  0  1  0  0  3  0  0  0  0  0  0
  192.4730  176.1730  146.3790 C   0  0  1  0  0  3  0  0  0  0  0  0
  192.4440  173.3380  143.9900 C   0  0  2  0  0  3  0  0  0  0  0  0
  191.0010  174.9880  144.7270 C   0  0  1  0  0  3  0  0  0  0  0  0
  194.2120  177.5410  146.2540 C   0  0  0  0  0  1  0  0  0  0  0  0
  193.7960  176.3280  146.8060 O   0  0  0  0  0  0  0  0  0  0  0  0
  194.6120  174.5340  144.3290 C   0  0  0  0  0  2  0  0  0  0  0  0
  194.4530  175.4580  143.1370 C   0  0  0  0  0  1  0  0  0  0  0  0
  1  4  1  0  0  0  0
  3 17  2  0  0  0  0
  3 19  1  0  0  0  0
  4 20  1  0  0  0  0
  5  6  2  0  0  0  0
  6  2  2  0  0  0  0
  7 15  1  1  0  0  0
  7 11  1  0  0  0  0
  8  6  1  6  0  0  0
  8 24  1  0  0  0  0
 10 22  1  0  0  0  0
 12  7  1  0  0  0  0
 12  6  1  0  0  0  0
 13  9  1  0  0  0  0
 14 24  1  0  0  0  0
 14  1  2  0  0  0  0
 16 13  1  0  0  0  0
 17 14  1  0  0  0  0
 18  1  1  0  0  0  0
 19 18  2  0  0  0  0
 20 13  1  0  0  0  0
 21 10  1  0  0  0  0
 22 26  1  0  0  0  0
 22 16  1  0  0  0  0
 23 11  1  0  0  0  0
 23  8  1  0  0  0  0
 23 21  1  0  0  0  0
 24 10  1  0  0  0  0
 25 26  1  0  0  0  0
 27 21  1  0  0  0  0
 28 27  1  0  0  0  0
M  END
>  <MODEL>
9

>  <REMARK>
 VINA RESULT:      -6.4      2.235      5.471
  Name = 
  2 active torsions:
  status: ('A' for Active; 'I' for Inactive)
    1  A    between atoms: C_5  and  C_24
    2  A    between atoms: O_17  and  C_25
                            x       y       z     vdW  Elec       q    Type
                         _______ _______ _______ _____ _____    ______ ____

>  <TORSDO>
F 2

$$$$
