=
 OpenBabel11112418033D

 34 41  0  0  1  0  0  0  0  0999 V2000
  189.6080  174.5260  144.6900 C   0  0  0  0  0  0  0  0  0  0  0  0
  191.0350  172.5750  144.0290 C   0  0  0  0  0  2  0  0  0  0  0  0
  184.5010  178.8380  143.6640 C   0  0  2  0  0  3  0  0  0  0  0  0
  187.8040  176.1010  145.4210 C   0  0  1  0  0  3  0  0  0  0  0  0
  186.4870  177.1790  143.4570 C   0  0  2  0  0  3  0  0  0  0  0  0
  184.5550  177.7030  142.0230 C   0  0  0  0  0  2  0  0  0  0  0  0
  184.2260  179.0400  142.3060 O   0  0  0  0  0  0  0  0  0  0  0  0
  185.8840  179.4010  145.5790 C   0  0  0  0  0  3  0  0  0  0  0  0
  189.9920  173.9450  142.2430 C   0  0  2  0  0  3  0  0  0  0  0  0
  190.0510  173.7910  139.2510 C   0  0  0  0  0  2  0  0  0  0  0  0
  186.7610  175.8580  142.8710 N   0  0  0  0  0  2  0  0  0  0  0  0
  186.5740  178.2910  145.8600 C   0  0  0  0  0  3  0  0  0  0  0  0
  188.5280  174.3780  142.0150 C   0  0  1  0  0  3  0  0  0  0  0  0
  191.5290  171.7150  142.5170 S   0  0  0  0  0  0  0  0  0  0  0  0
  187.2180  177.3920  144.8260 C   0  0  1  0  0  3  0  0  0  0  0  0
  185.5680  179.7990  144.1760 C   0  0  0  0  0  2  0  0  0  0  0  0
  190.8060  172.7710  140.1020 C   0  0  1  0  0  3  0  0  0  0  0  0
  188.5940  175.3540  144.3660 C   0  0  0  0  0  0  0  0  0  0  0  0
  184.9640  177.4070  143.4460 C   0  0  2  0  0  3  0  0  0  0  0  0
  188.1910  175.5620  142.9280 C   0  0  2  0  0  3  0  0  0  0  0  0
  189.1950  175.0360  147.1530 C   0  0  0  0  0  2  0  0  0  0  0  0
  188.5580  173.7890  139.5260 C   0  0  0  0  0  2  0  0  0  0  0  0
  188.6510  176.3640  146.6640 C   0  0  0  0  0  2  0  0  0  0  0  0
  188.2670  174.8430  140.5780 C   0  0  0  0  0  2  0  0  0  0  0  0
  190.2910  172.6190  141.5410 C   0  0  2  0  0  3  0  0  0  0  0  0
  190.1420  174.4540  146.1070 C   0  0  0  0  0  2  0  0  0  0  0  0
  190.2430  173.7380  143.6680 N   0  0  0  0  0  0  0  0  0  0  0  0
  190.7820  171.5290  139.4630 O   0  0  0  0  0  0  0  0  0  0  0  0
  191.8860  171.5410  138.6050 C   0  0  0  0  0  2  0  0  0  0  0  0
  189.3160  171.1740  136.1780 C   0  0  0  0  0  2  0  0  0  0  0  0
  191.5460  172.0570  136.1910 C   0  0  0  0  0  2  0  0  0  0  0  0
  191.4980  170.9750  137.2520 C   0  0  0  0  0  3  0  0  0  0  0  0
  190.3710  171.7830  135.2830 C   0  0  0  0  0  2  0  0  0  0  0  0
  190.0660  170.4720  137.2940 C   0  0  0  0  0  2  0  0  0  0  0  0
  1 26  1  0  0  0  0
  3 16  1  6  0  0  0
  4 23  1  1  0  0  0
  5 11  1  1  0  0  0
  5 15  1  0  0  0  0
  6  7  1  0  0  0  0
  7  3  1  0  0  0  0
  8 12  2  0  0  0  0
  9 27  1  1  0  0  0
 10 22  1  0  0  0  0
 10 17  1  0  0  0  0
 13 24  1  6  0  0  0
 13  9  1  0  0  0  0
 13 20  1  0  0  0  0
 14  2  1  0  0  0  0
 15  4  1  0  0  0  0
 15 12  1  1  0  0  0
 16  8  1  0  0  0  0
 17 28  1  6  0  0  0
 17 25  1  0  0  0  0
 18  1  2  0  0  0  0
 18  4  1  0  0  0  0
 19  6  1  6  0  0  0
 19  5  1  0  0  0  0
 19  3  1  0  0  0  0
 20 11  1  1  0  0  0
 20 18  1  0  0  0  0
 22 24  1  0  0  0  0
 23 21  1  0  0  0  0
 25  9  1  0  0  0  0
 25 14  1  1  0  0  0
 26 21  1  0  0  0  0
 27  2  1  0  0  0  0
 27  1  1  0  0  0  0
 29 28  1  0  0  0  0
 30 34  1  0  0  0  0
 31 32  1  0  0  0  0
 32 34  1  0  0  0  0
 32 29  1  0  0  0  0
 33 30  1  0  0  0  0
 33 31  1  0  0  0  0
M  END
>  <MODEL>
1

>  <REMARK>
 VINA RESULT:      -8.3      0.000      0.000
  Name = 
  3 active torsions:
  status: ('A' for Active; 'I' for Inactive)
    1  A    between atoms: C_17  and  O_28
    2  A    between atoms: O_28  and  C_29
    3  A    between atoms: C_29  and  C_32
                            x       y       z     vdW  Elec       q    Type
                         _______ _______ _______ _____ _____    ______ ____

>  <TORSDO>
F 3

$$$$
=
 OpenBabel11112418033D

 34 41  0  0  1  0  0  0  0  0999 V2000
  190.0920  173.2580  143.4520 C   0  0  0  0  0  0  0  0  0  0  0  0
  189.6850  174.9890  145.2170 C   0  0  0  0  0  2  0  0  0  0  0  0
  190.3140  171.1920  137.0180 C   0  0  2  0  0  3  0  0  0  0  0  0
  190.9220  171.8330  141.5680 C   0  0  1  0  0  3  0  0  0  0  0  0
  189.7910  172.3440  139.2850 C   0  0  2  0  0  3  0  0  0  0  0  0
  189.6170  173.0610  136.9350 C   0  0  0  0  0  2  0  0  0  0  0  0
  189.4160  171.8830  136.1940 O   0  0  0  0  0  0  0  0  0  0  0  0
  190.6570  169.4070  138.6280 C   0  0  0  0  0  3  0  0  0  0  0  0
  188.4000  175.1250  143.0990 C   0  0  2  0  0  3  0  0  0  0  0  0
  186.3160  177.0270  142.0890 C   0  0  0  0  0  2  0  0  0  0  0  0
  189.8010  173.6960  139.8600 N   0  0  0  0  0  2  0  0  0  0  0  0
  190.9580  170.0170  139.7790 C   0  0  0  0  0  3  0  0  0  0  0  0
  188.8620  175.1260  141.6250 C   0  0  1  0  0  3  0  0  0  0  0  0
  188.7160  176.5020  145.4250 S   0  0  0  0  0  0  0  0  0  0  0  0
  190.2610  171.2540  140.3060 C   0  0  1  0  0  3  0  0  0  0  0  0
  189.6650  169.9760  137.6700 C   0  0  0  0  0  2  0  0  0  0  0  0
  186.9460  177.2150  143.4690 C   0  0  1  0  0  3  0  0  0  0  0  0
  190.0630  172.9420  142.1420 C   0  0  0  0  0  0  0  0  0  0  0  0
  190.5280  172.3860  137.9330 C   0  0  2  0  0  3  0  0  0  0  0  0
  189.1770  173.6940  141.1810 C   0  0  2  0  0  3  0  0  0  0  0  0
  191.8420  171.4410  143.8190 C   0  0  0  0  0  2  0  0  0  0  0  0
  187.3400  177.0750  140.9700 C   0  0  0  0  0  2  0  0  0  0  0  0
  191.2170  170.7620  142.6150 C   0  0  0  0  0  2  0  0  0  0  0  0
  187.7850  175.6560  140.6710 C   0  0  0  0  0  2  0  0  0  0  0  0
  188.3170  176.5480  143.6530 C   0  0  2  0  0  3  0  0  0  0  0  0
  190.8300  172.3910  144.4540 C   0  0  0  0  0  2  0  0  0  0  0  0
  189.3600  174.4000  143.9300 N   0  0  0  0  0  0  0  0  0  0  0  0
  187.0490  178.5810  143.7460 O   0  0  0  0  0  0  0  0  0  0  0  0
  185.7610  179.0880  143.5550 C   0  0  0  0  0  2  0  0  0  0  0  0
  184.1970  178.0890  146.5860 C   0  0  0  0  0  2  0  0  0  0  0  0
  186.1750  179.3140  146.0020 C   0  0  0  0  0  2  0  0  0  0  0  0
  185.1770  179.5350  144.8820 C   0  0  0  0  0  3  0  0  0  0  0  0
  185.3570  178.8510  147.1840 C   0  0  0  0  0  2  0  0  0  0  0  0
  183.9560  178.6970  145.2170 C   0  0  0  0  0  2  0  0  0  0  0  0
  1 27  1  0  0  0  0
  1 26  1  0  0  0  0
  2 14  1  0  0  0  0
  3 16  1  1  0  0  0
  3 19  1  0  0  0  0
  4 18  1  0  0  0  0
  4 23  1  1  0  0  0
  5 11  1  1  0  0  0
  5 15  1  0  0  0  0
  7  6  1  0  0  0  0
  7  3  1  0  0  0  0
  8 12  2  0  0  0  0
  9 25  1  0  0  0  0
  9 27  1  1  0  0  0
 10 17  1  0  0  0  0
 13 24  1  6  0  0  0
 13  9  1  0  0  0  0
 15 12  1  6  0  0  0
 15  4  1  0  0  0  0
 16  8  1  0  0  0  0
 17 25  1  0  0  0  0
 17 28  1  6  0  0  0
 18  1  2  0  0  0  0
 19  6  1  6  0  0  0
 19  5  1  0  0  0  0
 20 11  1  6  0  0  0
 20 13  1  0  0  0  0
 20 18  1  0  0  0  0
 21 26  1  0  0  0  0
 22 10  1  0  0  0  0
 23 21  1  0  0  0  0
 24 22  1  0  0  0  0
 25 14  1  1  0  0  0
 27  2  1  0  0  0  0
 29 28  1  0  0  0  0
 29 32  1  0  0  0  0
 30 33  1  0  0  0  0
 31 33  1  0  0  0  0
 32 34  1  0  0  0  0
 32 31  1  0  0  0  0
 34 30  1  0  0  0  0
M  END
>  <MODEL>
2

>  <REMARK>
 VINA RESULT:      -7.9      2.006      8.496
  Name = 
  3 active torsions:
  status: ('A' for Active; 'I' for Inactive)
    1  A    between atoms: C_17  and  O_28
    2  A    between atoms: O_28  and  C_29
    3  A    between atoms: C_29  and  C_32
                            x       y       z     vdW  Elec       q    Type
                         _______ _______ _______ _____ _____    ______ ____

>  <TORSDO>
F 3

$$$$
=
 OpenBabel11112418033D

 34 41  0  0  1  0  0  0  0  0999 V2000
  187.7080  175.8010  141.2480 C   0  0  0  0  0  0  0  0  0  0  0  0
  189.3430  174.4030  139.9620 C   0  0  0  0  0  2  0  0  0  0  0  0
  185.5750  178.8700  146.8830 C   0  0  2  0  0  3  0  0  0  0  0  0
  186.4690  177.5610  142.5270 C   0  0  1  0  0  3  0  0  0  0  0  0
  186.6330  177.2990  145.1070 C   0  0  2  0  0  3  0  0  0  0  0  0
  187.2220  177.8830  147.4260 C   0  0  0  0  0  2  0  0  0  0  0  0
  186.0110  178.2280  148.0490 O   0  0  0  0  0  0  0  0  0  0  0  0
  183.9680  178.9420  145.0630 C   0  0  0  0  0  3  0  0  0  0  0  0
  189.1100  174.0190  142.4020 C   0  0  2  0  0  3  0  0  0  0  0  0
  190.4350  172.1240  144.3090 C   0  0  0  0  0  2  0  0  0  0  0  0
  187.9650  176.8070  144.7270 N   0  0  0  0  0  2  0  0  0  0  0  0
  184.6640  178.6510  143.9600 C   0  0  0  0  0  3  0  0  0  0  0  0
  189.1800  174.9920  143.5980 C   0  0  1  0  0  3  0  0  0  0  0  0
  190.5880  173.1340  140.2940 S   0  0  0  0  0  0  0  0  0  0  0  0
  185.7140  177.5640  143.8660 C   0  0  1  0  0  3  0  0  0  0  0  0
  184.2590  178.2930  146.3740 C   0  0  0  0  0  2  0  0  0  0  0  0
  190.8060  172.1300  142.8260 C   0  0  1  0  0  3  0  0  0  0  0  0
  187.3580  176.3370  142.4340 C   0  0  0  0  0  0  0  0  0  0  0  0
  186.8110  178.4660  146.0950 C   0  0  2  0  0  3  0  0  0  0  0  0
  187.8520  175.7450  143.7300 C   0  0  2  0  0  3  0  0  0  0  0  0
  186.3690  177.6200  140.0660 C   0  0  0  0  0  2  0  0  0  0  0  0
  190.6930  173.4610  144.9790 C   0  0  0  0  0  2  0  0  0  0  0  0
  185.5290  177.6540  141.3280 C   0  0  0  0  0  2  0  0  0  0  0  0
  189.4120  174.2730  144.9310 C   0  0  0  0  0  2  0  0  0  0  0  0
  190.4880  173.4360  142.0830 C   0  0  2  0  0  3  0  0  0  0  0  0
  187.0700  176.2680  139.9540 C   0  0  0  0  0  2  0  0  0  0  0  0
  188.6580  174.7210  141.2020 N   0  0  0  0  0  0  0  0  0  0  0  0
  192.1640  171.8320  142.6900 O   0  0  0  0  0  0  0  0  0  0  0  0
  192.3080  170.5450  143.2150 C   0  0  0  0  0  2  0  0  0  0  0  0
  194.6330  171.3910  145.7670 C   0  0  0  0  0  2  0  0  0  0  0  0
  193.7180  169.3540  144.8920 C   0  0  0  0  0  2  0  0  0  0  0  0
  193.7140  170.3600  143.7560 C   0  0  0  0  0  3  0  0  0  0  0  0
  194.7100  169.8880  145.8980 C   0  0  0  0  0  2  0  0  0  0  0  0
  194.2210  171.6690  144.3340 C   0  0  0  0  0  2  0  0  0  0  0  0
  1 18  2  0  0  0  0
  2 14  1  0  0  0  0
  2 27  1  0  0  0  0
  3 16  1  6  0  0  0
  3  7  1  0  0  0  0
  4 23  1  6  0  0  0
  4 15  1  0  0  0  0
  5 11  1  6  0  0  0
  5 19  1  0  0  0  0
  6  7  1  0  0  0  0
  8 16  1  0  0  0  0
  9 27  1  6  0  0  0
  9 13  1  0  0  0  0
 10 22  1  0  0  0  0
 12  8  2  0  0  0  0
 13 20  1  0  0  0  0
 13 24  1  1  0  0  0
 15 12  1  1  0  0  0
 15  5  1  0  0  0  0
 17 28  1  1  0  0  0
 17 10  1  0  0  0  0
 18  4  1  0  0  0  0
 19  3  1  0  0  0  0
 19  6  1  1  0  0  0
 20 18  1  6  0  0  0
 20 11  1  0  0  0  0
 21 23  1  0  0  0  0
 24 22  1  0  0  0  0
 25 14  1  6  0  0  0
 25  9  1  0  0  0  0
 25 17  1  0  0  0  0
 26 21  1  0  0  0  0
 26  1  1  0  0  0  0
 27  1  1  0  0  0  0
 28 29  1  0  0  0  0
 29 32  1  0  0  0  0
 30 33  1  0  0  0  0
 31 33  1  0  0  0  0
 32 34  1  0  0  0  0
 32 31  1  0  0  0  0
 34 30  1  0  0  0  0
M  END
>  <MODEL>
3

>  <REMARK>
 VINA RESULT:      -7.9      2.721      5.287
  Name = 
  3 active torsions:
  status: ('A' for Active; 'I' for Inactive)
    1  A    between atoms: C_17  and  O_28
    2  A    between atoms: O_28  and  C_29
    3  A    between atoms: C_29  and  C_32
                            x       y       z     vdW  Elec       q    Type
                         _______ _______ _______ _____ _____    ______ ____

>  <TORSDO>
F 3

$$$$
=
 OpenBabel11112418033D

 34 41  0  0  1  0  0  0  0  0999 V2000
  194.3430  175.4480  144.4440 C   0  0  0  0  0  0  0  0  0  0  0  0
  192.9320  177.4350  143.8620 C   0  0  0  0  0  2  0  0  0  0  0  0
  195.2530  168.8190  145.4220 C   0  0  2  0  0  3  0  0  0  0  0  0
  195.6960  173.3420  144.5070 C   0  0  1  0  0  3  0  0  0  0  0  0
  194.3450  171.2440  145.2350 C   0  0  2  0  0  3  0  0  0  0  0  0
  193.3040  169.0210  145.0400 C   0  0  0  0  0  2  0  0  0  0  0  0
  194.0850  168.1660  145.8370 O   0  0  0  0  0  0  0  0  0  0  0  0
  197.1740  170.1690  146.0410 C   0  0  0  0  0  3  0  0  0  0  0  0
  191.8430  175.4690  144.9160 C   0  0  2  0  0  3  0  0  0  0  0  0
  189.0150  174.8820  145.7120 C   0  0  0  0  0  2  0  0  0  0  0  0
  193.2930  171.9730  144.5120 N   0  0  0  0  0  2  0  0  0  0  0  0
  196.9840  171.3530  145.4490 C   0  0  0  0  0  3  0  0  0  0  0  0
  191.8630  173.9720  144.5410 C   0  0  1  0  0  3  0  0  0  0  0  0
  191.1860  177.9060  143.8950 S   0  0  0  0  0  0  0  0  0  0  0  0
  195.6580  172.0830  145.3900 C   0  0  1  0  0  3  0  0  0  0  0  0
  196.0410  169.3770  146.6010 C   0  0  0  0  0  2  0  0  0  0  0  0
  189.3840  176.2130  145.0580 C   0  0  1  0  0  3  0  0  0  0  0  0
  194.4020  174.1170  144.6520 C   0  0  0  0  0  0  0  0  0  0  0  0
  194.4900  169.8470  144.6030 C   0  0  2  0  0  3  0  0  0  0  0  0
  193.1690  173.3350  145.0270 C   0  0  2  0  0  3  0  0  0  0  0  0
  196.8330  175.4400  143.8970 C   0  0  0  0  0  2  0  0  0  0  0  0
  189.3370  173.6890  144.8290 C   0  0  0  0  0  2  0  0  0  0  0  0
  196.9060  174.2240  144.8000 C   0  0  0  0  0  2  0  0  0  0  0  0
  190.7200  173.1860  145.1950 C   0  0  0  0  0  2  0  0  0  0  0  0
  190.6800  176.1940  144.2350 C   0  0  2  0  0  3  0  0  0  0  0  0
  195.6030  176.2700  144.2540 C   0  0  0  0  0  2  0  0  0  0  0  0
  193.0720  176.1210  144.4640 N   0  0  0  0  0  0  0  0  0  0  0  0
  188.3250  176.6400  144.2520 O   0  0  0  0  0  0  0  0  0  0  0  0
  187.6740  177.6260  145.0000 C   0  0  0  0  0  2  0  0  0  0  0  0
  184.4680  177.7790  146.5240 C   0  0  0  0  0  2  0  0  0  0  0  0
  185.5550  178.9050  144.7070 C   0  0  0  0  0  2  0  0  0  0  0  0
  186.1740  177.5240  144.7990 C   0  0  0  0  0  3  0  0  0  0  0  0
  184.2380  178.8060  145.4390 C   0  0  0  0  0  2  0  0  0  0  0  0
  185.5380  176.8430  145.9980 C   0  0  0  0  0  2  0  0  0  0  0  0
  1 27  1  0  0  0  0
  1 18  2  0  0  0  0
  2 14  1  0  0  0  0
  2 27  1  0  0  0  0
  3  7  1  0  0  0  0
  3 16  1  1  0  0  0
  4 18  1  0  0  0  0
  4 23  1  1  0  0  0
  4 15  1  0  0  0  0
  5 11  1  6  0  0  0
  5 15  1  0  0  0  0
  6  7  1  0  0  0  0
  8 16  1  0  0  0  0
  9 27  1  6  0  0  0
 12  8  2  0  0  0  0
 13  9  1  0  0  0  0
 13 20  1  0  0  0  0
 13 24  1  1  0  0  0
 15 12  1  6  0  0  0
 17 28  1  6  0  0  0
 17 10  1  0  0  0  0
 18 20  1  0  0  0  0
 19  6  1  1  0  0  0
 19  5  1  0  0  0  0
 19  3  1  0  0  0  0
 20 11  1  6  0  0  0
 21 26  1  0  0  0  0
 21 23  1  0  0  0  0
 22 24  1  0  0  0  0
 22 10  1  0  0  0  0
 25 14  1  1  0  0  0
 25  9  1  0  0  0  0
 25 17  1  0  0  0  0
 26  1  1  0  0  0  0
 28 29  1  0  0  0  0
 31 32  1  0  0  0  0
 31 33  1  0  0  0  0
 32 29  1  0  0  0  0
 32 34  1  0  0  0  0
 33 30  1  0  0  0  0
 34 30  1  0  0  0  0
M  END
>  <MODEL>
4

>  <REMARK>
 VINA RESULT:      -7.8      4.757      9.650
  Name = 
  3 active torsions:
  status: ('A' for Active; 'I' for Inactive)
    1  A    between atoms: C_17  and  O_28
    2  A    between atoms: O_28  and  C_29
    3  A    between atoms: C_29  and  C_32
                            x       y       z     vdW  Elec       q    Type
                         _______ _______ _______ _____ _____    ______ ____

>  <TORSDO>
F 3

$$$$
=
 OpenBabel11112418033D

 34 41  0  0  1  0  0  0  0  0999 V2000
  192.4790  176.1600  145.9220 C   0  0  0  0  0  0  0  0  0  0  0  0
  194.8470  175.3600  146.1010 C   0  0  0  0  0  2  0  0  0  0  0  0
  186.5970  176.7980  142.6490 C   0  0  2  0  0  3  0  0  0  0  0  0
  189.9940  176.4390  145.7810 C   0  0  1  0  0  3  0  0  0  0  0  0
  189.0850  176.5590  143.3490 C   0  0  2  0  0  3  0  0  0  0  0  0
  187.8080  175.8790  141.3560 C   0  0  0  0  0  2  0  0  0  0  0  0
  186.7470  176.7950  141.2560 O   0  0  0  0  0  0  0  0  0  0  0  0
  186.7050  178.0650  144.7180 C   0  0  0  0  0  3  0  0  0  0  0  0
  193.9320  175.8770  143.8530 C   0  0  2  0  0  3  0  0  0  0  0  0
  195.0960  175.7560  141.0940 C   0  0  0  0  0  2  0  0  0  0  0  0
  190.2000  175.6230  143.1460 N   0  0  0  0  0  2  0  0  0  0  0  0
  187.7300  177.5460  145.4010 C   0  0  0  0  0  3  0  0  0  0  0  0
  192.6480  175.4000  143.1400 C   0  0  1  0  0  3  0  0  0  0  0  0
  196.2090  174.9190  144.9960 S   0  0  0  0  0  0  0  0  0  0  0  0
  189.0630  177.1620  144.7950 C   0  0  1  0  0  3  0  0  0  0  0  0
  186.7350  178.1990  143.2320 C   0  0  0  0  0  2  0  0  0  0  0  0
  195.9270  175.3540  142.3130 C   0  0  1  0  0  3  0  0  0  0  0  0
  191.3680  176.2630  145.1650 C   0  0  0  0  0  0  0  0  0  0  0  0
  187.7890  175.8820  142.8660 C   0  0  2  0  0  3  0  0  0  0  0  0
  191.4440  176.1920  143.6610 C   0  0  2  0  0  3  0  0  0  0  0  0
  191.0360  176.3690  148.0130 C   0  0  0  0  0  2  0  0  0  0  0  0
  193.8470  174.9090  140.9350 C   0  0  0  0  0  2  0  0  0  0  0  0
  190.0790  177.1480  147.1300 C   0  0  0  0  0  2  0  0  0  0  0  0
  192.6980  175.6210  141.6240 C   0  0  0  0  0  2  0  0  0  0  0  0
  195.1100  174.9490  143.5490 C   0  0  2  0  0  3  0  0  0  0  0  0
  192.4390  176.4180  147.4150 C   0  0  0  0  0  2  0  0  0  0  0  0
  193.7430  175.8630  145.3020 N   0  0  0  0  0  0  0  0  0  0  0  0
  196.7880  174.3120  141.9600 O   0  0  0  0  0  0  0  0  0  0  0  0
  197.7500  174.9010  141.1340 C   0  0  0  0  0  2  0  0  0  0  0  0
  196.1900  172.8910  138.6530 C   0  0  0  0  0  2  0  0  0  0  0  0
  197.5580  174.8620  138.6490 C   0  0  0  0  0  2  0  0  0  0  0  0
  197.9400  174.0650  139.8820 C   0  0  0  0  0  3  0  0  0  0  0  0
  196.8710  173.8780  137.7320 C   0  0  0  0  0  2  0  0  0  0  0  0
  197.0200  172.8590  139.9220 C   0  0  0  0  0  2  0  0  0  0  0  0
  1 26  1  0  0  0  0
  3 19  1  0  0  0  0
  3 16  1  1  0  0  0
  4 23  1  1  0  0  0
  5 11  1  1  0  0  0
  5 15  1  0  0  0  0
  7  6  1  0  0  0  0
  7  3  1  0  0  0  0
  8 12  2  0  0  0  0
  9 27  1  1  0  0  0
 10 17  1  0  0  0  0
 13 24  1  6  0  0  0
 13 20  1  0  0  0  0
 13  9  1  0  0  0  0
 14  2  1  0  0  0  0
 15 12  1  1  0  0  0
 15  4  1  0  0  0  0
 16  8  1  0  0  0  0
 17 28  1  6  0  0  0
 17 25  1  0  0  0  0
 18  4  1  0  0  0  0
 18  1  2  0  0  0  0
 19  6  1  6  0  0  0
 19  5  1  0  0  0  0
 20 11  1  1  0  0  0
 20 18  1  0  0  0  0
 22 10  1  0  0  0  0
 22 24  1  0  0  0  0
 23 21  1  0  0  0  0
 25  9  1  0  0  0  0
 25 14  1  1  0  0  0
 26 21  1  0  0  0  0
 27  1  1  0  0  0  0
 27  2  1  0  0  0  0
 29 28  1  0  0  0  0
 30 34  1  0  0  0  0
 31 32  1  0  0  0  0
 32 34  1  0  0  0  0
 32 29  1  0  0  0  0
 33 31  1  0  0  0  0
 33 30  1  0  0  0  0
M  END
>  <MODEL>
5

>  <REMARK>
 VINA RESULT:      -7.5      4.065      4.847
  Name = 
  3 active torsions:
  status: ('A' for Active; 'I' for Inactive)
    1  A    between atoms: C_17  and  O_28
    2  A    between atoms: O_28  and  C_29
    3  A    between atoms: C_29  and  C_32
                            x       y       z     vdW  Elec       q    Type
                         _______ _______ _______ _____ _____    ______ ____

>  <TORSDO>
F 3

$$$$
=
 OpenBabel11112418033D

 34 41  0  0  1  0  0  0  0  0999 V2000
  191.6770  173.5950  144.3890 C   0  0  0  0  0  0  0  0  0  0  0  0
  191.5060  175.0490  146.4220 C   0  0  0  0  0  2  0  0  0  0  0  0
  190.1930  172.0610  137.9730 C   0  0  2  0  0  3  0  0  0  0  0  0
  192.1270  172.5540  142.1560 C   0  0  1  0  0  3  0  0  0  0  0  0
  190.2130  172.8950  140.4310 C   0  0  2  0  0  3  0  0  0  0  0  0
  189.1070  173.6860  138.3780 C   0  0  0  0  0  2  0  0  0  0  0  0
  188.9400  172.5450  137.5740 O   0  0  0  0  0  0  0  0  0  0  0  0
  191.4460  170.3290  139.1250 C   0  0  0  0  0  3  0  0  0  0  0  0
  189.5910  174.9770  144.8460 C   0  0  2  0  0  3  0  0  0  0  0  0
  186.9180  176.3320  144.8130 C   0  0  0  0  0  2  0  0  0  0  0  0
  190.1100  174.1650  141.1630 N   0  0  0  0  0  2  0  0  0  0  0  0
  191.9700  170.9240  140.2020 C   0  0  0  0  0  3  0  0  0  0  0  0
  189.5200  175.1900  143.3180 C   0  0  1  0  0  3  0  0  0  0  0  0
  190.3480  176.2420  147.1340 S   0  0  0  0  0  0  0  0  0  0  0  0
  191.2310  171.9030  141.0900 C   0  0  1  0  0  3  0  0  0  0  0  0
  190.0900  170.6810  138.6110 C   0  0  0  0  0  2  0  0  0  0  0  0
  187.9140  176.5910  145.9430 C   0  0  1  0  0  3  0  0  0  0  0  0
  191.2840  173.3640  143.1200 C   0  0  0  0  0  0  0  0  0  0  0  0
  190.4260  173.2100  138.9390 C   0  0  2  0  0  3  0  0  0  0  0  0
  189.9830  173.9190  142.5980 C   0  0  2  0  0  3  0  0  0  0  0  0
  193.8100  172.2750  143.9330 C   0  0  0  0  0  2  0  0  0  0  0  0
  187.4700  176.7140  143.4510 C   0  0  0  0  0  2  0  0  0  0  0  0
  192.9880  171.5340  142.8960 C   0  0  0  0  0  2  0  0  0  0  0  0
  188.0970  175.4800  142.8290 C   0  0  0  0  0  2  0  0  0  0  0  0
  189.3800  176.2930  145.5970 C   0  0  2  0  0  3  0  0  0  0  0  0
  192.8830  172.8890  144.9790 C   0  0  0  0  0  2  0  0  0  0  0  0
  190.9110  174.4770  145.2280 N   0  0  0  0  0  0  0  0  0  0  0  0
  187.7940  177.9170  146.3670 O   0  0  0  0  0  0  0  0  0  0  0  0
  186.8600  177.8820  147.4070 C   0  0  0  0  0  2  0  0  0  0  0  0
  184.7760  179.2430  144.8710 C   0  0  0  0  0  2  0  0  0  0  0  0
  184.4250  177.9890  146.8850 C   0  0  0  0  0  2  0  0  0  0  0  0
  185.6930  178.7970  147.0870 C   0  0  0  0  0  3  0  0  0  0  0  0
  183.6920  178.6680  145.7530 C   0  0  0  0  0  2  0  0  0  0  0  0
  185.9530  179.5290  145.7830 C   0  0  0  0  0  2  0  0  0  0  0  0
  1 26  1  0  0  0  0
  1 27  1  0  0  0  0
  2 14  1  0  0  0  0
  3 16  1  1  0  0  0
  3 19  1  0  0  0  0
  4 23  1  1  0  0  0
  4 18  1  0  0  0  0
  5 15  1  0  0  0  0
  5 11  1  1  0  0  0
  7  3  1  0  0  0  0
  7  6  1  0  0  0  0
  8 12  2  0  0  0  0
  9 27  1  6  0  0  0
  9 25  1  0  0  0  0
 10 17  1  0  0  0  0
 13 24  1  6  0  0  0
 13  9  1  0  0  0  0
 15 12  1  6  0  0  0
 15  4  1  0  0  0  0
 16  8  1  0  0  0  0
 17 28  1  6  0  0  0
 18  1  2  0  0  0  0
 19  6  1  6  0  0  0
 19  5  1  0  0  0  0
 20 11  1  6  0  0  0
 20 18  1  0  0  0  0
 20 13  1  0  0  0  0
 21 26  1  0  0  0  0
 22 10  1  0  0  0  0
 23 21  1  0  0  0  0
 24 22  1  0  0  0  0
 25 17  1  0  0  0  0
 25 14  1  1  0  0  0
 27  2  1  0  0  0  0
 28 29  1  0  0  0  0
 30 33  1  0  0  0  0
 30 34  1  0  0  0  0
 31 32  1  0  0  0  0
 32 29  1  0  0  0  0
 33 31  1  0  0  0  0
 34 32  1  0  0  0  0
M  END
>  <MODEL>
6

>  <REMARK>
 VINA RESULT:      -7.5      2.252      8.425
  Name = 
  3 active torsions:
  status: ('A' for Active; 'I' for Inactive)
    1  A    between atoms: C_17  and  O_28
    2  A    between atoms: O_28  and  C_29
    3  A    between atoms: C_29  and  C_32
                            x       y       z     vdW  Elec       q    Type
                         _______ _______ _______ _____ _____    ______ ____

>  <TORSDO>
F 3

$$$$
=
 OpenBabel11112418033D

 34 41  0  0  1  0  0  0  0  0999 V2000
  191.1720  173.5900  141.3430 C   0  0  0  0  0  0  0  0  0  0  0  0
  188.7340  174.1670  141.2840 C   0  0  0  0  0  2  0  0  0  0  0  0
  197.1680  173.2000  144.4450 C   0  0  2  0  0  3  0  0  0  0  0  0
  193.4490  172.6270  141.7380 C   0  0  1  0  0  3  0  0  0  0  0  0
  194.7890  173.8260  143.6140 C   0  0  2  0  0  3  0  0  0  0  0  0
  195.9640  174.0950  145.7620 C   0  0  0  0  0  2  0  0  0  0  0  0
  197.3300  174.1740  145.4390 O   0  0  0  0  0  0  0  0  0  0  0  0
  197.2550  172.6530  142.0810 C   0  0  0  0  0  3  0  0  0  0  0  0
  190.2320  175.4770  142.7680 C   0  0  2  0  0  3  0  0  0  0  0  0
  189.7590  177.7630  144.6470 C   0  0  0  0  0  2  0  0  0  0  0  0
  193.4310  173.9580  144.1620 N   0  0  0  0  0  2  0  0  0  0  0  0
  195.9900  172.4100  141.7240 C   0  0  0  0  0  3  0  0  0  0  0  0
  191.2430  175.0310  143.8460 C   0  0  1  0  0  3  0  0  0  0  0  0
  187.5930  175.2930  142.1220 S   0  0  0  0  0  0  0  0  0  0  0  0
  194.7970  173.2320  142.1650 C   0  0  1  0  0  3  0  0  0  0  0  0
  197.6040  173.7080  143.0760 C   0  0  0  0  0  2  0  0  0  0  0  0
  188.6040  177.1460  143.8580 C   0  0  1  0  0  3  0  0  0  0  0  0
  192.3250  173.5960  142.0420 C   0  0  0  0  0  0  0  0  0  0  0  0
  195.6660  173.1090  144.6580 C   0  0  2  0  0  3  0  0  0  0  0  0
  192.5400  174.5660  143.1760 C   0  0  2  0  0  3  0  0  0  0  0  0
  192.0640  171.6510  139.9490 C   0  0  0  0  0  2  0  0  0  0  0  0
  190.4470  176.7600  145.5550 C   0  0  0  0  0  2  0  0  0  0  0  0
  193.4370  172.2090  140.2700 C   0  0  0  0  0  2  0  0  0  0  0  0
  191.6230  176.1660  144.8030 C   0  0  0  0  0  2  0  0  0  0  0  0
  188.8460  175.7090  143.3720 C   0  0  2  0  0  3  0  0  0  0  0  0
  191.0180  172.7540  140.0880 C   0  0  0  0  0  2  0  0  0  0  0  0
  190.0830  174.4370  141.7510 N   0  0  0  0  0  0  0  0  0  0  0  0
  187.4420  177.1890  144.6330 O   0  0  0  0  0  0  0  0  0  0  0  0
  186.7510  178.3190  144.1890 C   0  0  0  0  0  2  0  0  0  0  0  0
  184.0630  178.2900  146.5130 C   0  0  0  0  0  2  0  0  0  0  0  0
  186.4570  178.3320  146.6640 C   0  0  0  0  0  2  0  0  0  0  0  0
  186.0880  179.0160  145.3620 C   0  0  0  0  0  3  0  0  0  0  0  0
  185.2030  178.3630  147.5040 C   0  0  0  0  0  2  0  0  0  0  0  0
  184.5780  178.9200  145.2330 C   0  0  0  0  0  2  0  0  0  0  0  0
  1 27  1  0  0  0  0
  1 18  2  0  0  0  0
  2 27  1  0  0  0  0
  2 14  1  0  0  0  0
  3 16  1  6  0  0  0
  3 19  1  0  0  0  0
  3  7  1  0  0  0  0
  4 23  1  6  0  0  0
  4 18  1  0  0  0  0
  4 15  1  0  0  0  0
  5 11  1  1  0  0  0
  5 19  1  0  0  0  0
  7  6  1  0  0  0  0
  8 16  1  0  0  0  0
  9 27  1  6  0  0  0
  9 25  1  0  0  0  0
  9 13  1  0  0  0  0
 10 22  1  0  0  0  0
 12  8  2  0  0  0  0
 13 24  1  1  0  0  0
 15 12  1  1  0  0  0
 15  5  1  0  0  0  0
 17 28  1  1  0  0  0
 17 10  1  0  0  0  0
 19  6  1  1  0  0  0
 20 18  1  6  0  0  0
 20 13  1  0  0  0  0
 20 11  1  0  0  0  0
 21 26  1  0  0  0  0
 21 23  1  0  0  0  0
 24 22  1  0  0  0  0
 25 14  1  6  0  0  0
 25 17  1  0  0  0  0
 26  1  1  0  0  0  0
 29 28  1  0  0  0  0
 29 32  1  0  0  0  0
 30 33  1  0  0  0  0
 31 33  1  0  0  0  0
 32 31  1  0  0  0  0
 34 32  1  0  0  0  0
 34 30  1  0  0  0  0
M  END
>  <MODEL>
7

>  <REMARK>
 VINA RESULT:      -7.5      3.681      9.449
  Name = 
  3 active torsions:
  status: ('A' for Active; 'I' for Inactive)
    1  A    between atoms: C_17  and  O_28
    2  A    between atoms: O_28  and  C_29
    3  A    between atoms: C_29  and  C_32
                            x       y       z     vdW  Elec       q    Type
                         _______ _______ _______ _____ _____    ______ ____

>  <TORSDO>
F 3

$$$$
=
 OpenBabel11112418033D

 34 41  0  0  1  0  0  0  0  0999 V2000
  192.5330  175.4980  145.2580 C   0  0  0  0  0  0  0  0  0  0  0  0
  190.8470  176.8980  146.4730 C   0  0  0  0  0  2  0  0  0  0  0  0
  195.1420  172.7830  139.6410 C   0  0  2  0  0  3  0  0  0  0  0  0
  194.3850  174.5710  143.8500 C   0  0  1  0  0  3  0  0  0  0  0  0
  193.6220  173.7770  141.4960 C   0  0  2  0  0  3  0  0  0  0  0  0
  193.4910  173.7290  139.0370 C   0  0  0  0  0  2  0  0  0  0  0  0
  194.1810  172.5690  138.6440 O   0  0  0  0  0  0  0  0  0  0  0  0
  196.1850  171.9880  141.6850 C   0  0  0  0  0  3  0  0  0  0  0  0
  190.1610  175.7590  144.3780 C   0  0  2  0  0  3  0  0  0  0  0  0
  187.5830  175.6670  142.8510 C   0  0  0  0  0  2  0  0  0  0  0  0
  192.7080  174.9140  141.6780 N   0  0  0  0  0  2  0  0  0  0  0  0
  195.8380  172.8690  142.6280 C   0  0  0  0  0  3  0  0  0  0  0  0
  190.7910  175.7520  142.9680 C   0  0  1  0  0  3  0  0  0  0  0  0
  189.1450  177.4630  146.2420 S   0  0  0  0  0  0  0  0  0  0  0  0
  194.4550  173.4640  142.7850 C   0  0  1  0  0  3  0  0  0  0  0  0
  195.2500  171.5960  140.5900 C   0  0  0  0  0  2  0  0  0  0  0  0
  187.7030  176.4850  144.1370 C   0  0  1  0  0  3  0  0  0  0  0  0
  192.9440  174.9770  144.0840 C   0  0  0  0  0  0  0  0  0  0  0  0
  194.4190  173.9990  140.1970 C   0  0  2  0  0  3  0  0  0  0  0  0
  191.9810  174.7880  142.9400 C   0  0  2  0  0  3  0  0  0  0  0  0
  194.9190  175.3140  146.1380 C   0  0  0  0  0  2  0  0  0  0  0  0
  188.5570  176.1210  141.7780 C   0  0  0  0  0  2  0  0  0  0  0  0
  195.0650  174.1670  145.1560 C   0  0  0  0  0  2  0  0  0  0  0  0
  189.8130  175.2770  141.8880 C   0  0  0  0  0  2  0  0  0  0  0  0
  189.1350  176.8860  144.5190 C   0  0  2  0  0  3  0  0  0  0  0  0
  193.4430  175.5170  146.4710 C   0  0  0  0  0  2  0  0  0  0  0  0
  191.1880  175.9900  145.3920 N   0  0  0  0  0  0  0  0  0  0  0  0
  186.9090  177.6300  144.0300 O   0  0  0  0  0  0  0  0  0  0  0  0
  185.5930  177.1670  144.1120 C   0  0  0  0  0  2  0  0  0  0  0  0
  185.7380  177.5870  147.6380 C   0  0  0  0  0  2  0  0  0  0  0  0
  185.5660  179.0500  145.7450 C   0  0  0  0  0  2  0  0  0  0  0  0
  184.9180  177.7390  145.3450 C   0  0  0  0  0  3  0  0  0  0  0  0
  185.5920  179.0420  147.2550 C   0  0  0  0  0  2  0  0  0  0  0  0
  185.0970  176.7910  146.5170 C   0  0  0  0  0  2  0  0  0  0  0  0
  1 27  1  0  0  0  0
  1 26  1  0  0  0  0
  3 19  1  0  0  0  0
  3 16  1  1  0  0  0
  4 18  1  0  0  0  0
  4 23  1  1  0  0  0
  5 11  1  1  0  0  0
  5 15  1  0  0  0  0
  7  6  1  0  0  0  0
  7  3  1  0  0  0  0
  8 12  2  0  0  0  0
  9 25  1  0  0  0  0
  9 27  1  1  0  0  0
 10 17  1  0  0  0  0
 13 24  1  6  0  0  0
 13  9  1  0  0  0  0
 14  2  1  0  0  0  0
 15 12  1  6  0  0  0
 15  4  1  0  0  0  0
 16  8  1  0  0  0  0
 17 28  1  6  0  0  0
 17 25  1  0  0  0  0
 18  1  2  0  0  0  0
 19  6  1  6  0  0  0
 19  5  1  0  0  0  0
 20 11  1  6  0  0  0
 20 13  1  0  0  0  0
 20 18  1  0  0  0  0
 21 26  1  0  0  0  0
 22 24  1  0  0  0  0
 22 10  1  0  0  0  0
 23 21  1  0  0  0  0
 25 14  1  1  0  0  0
 27  2  1  0  0  0  0
 28 29  1  0  0  0  0
 29 32  1  0  0  0  0
 31 33  1  0  0  0  0
 32 31  1  0  0  0  0
 32 34  1  0  0  0  0
 33 30  1  0  0  0  0
 34 30  1  0  0  0  0
M  END
>  <MODEL>
8

>  <REMARK>
 VINA RESULT:      -7.5      3.239      8.814
  Name = 
  3 active torsions:
  status: ('A' for Active; 'I' for Inactive)
    1  A    between atoms: C_17  and  O_28
    2  A    between atoms: O_28  and  C_29
    3  A    between atoms: C_29  and  C_32
                            x       y       z     vdW  Elec       q    Type
                         _______ _______ _______ _____ _____    ______ ____

>  <TORSDO>
F 3

$$$$
=
 OpenBabel11112418033D

 34 41  0  0  1  0  0  0  0  0999 V2000
  191.9490  172.5000  141.0480 C   0  0  0  0  0  0  0  0  0  0  0  0
  189.4760  172.1390  141.2390 C   0  0  0  0  0  2  0  0  0  0  0  0
  197.6960  175.6430  142.7250 C   0  0  2  0  0  3  0  0  0  0  0  0
  194.4290  172.6540  141.3530 C   0  0  1  0  0  3  0  0  0  0  0  0
  195.2430  174.9710  142.2050 C   0  0  2  0  0  3  0  0  0  0  0  0
  196.2680  176.6070  143.7340 C   0  0  0  0  0  2  0  0  0  0  0  0
  197.4910  176.9650  143.1400 O   0  0  0  0  0  0  0  0  0  0  0  0
  197.9370  174.0920  140.8730 C   0  0  0  0  0  3  0  0  0  0  0  0
  190.3840  174.4090  141.6660 C   0  0  2  0  0  3  0  0  0  0  0  0
  189.1070  177.0150  142.4130 C   0  0  0  0  0  2  0  0  0  0  0  0
  193.9510  174.8940  142.9030 N   0  0  0  0  0  2  0  0  0  0  0  0
  196.8560  173.3070  140.9220 C   0  0  0  0  0  3  0  0  0  0  0  0
  191.5120  174.8960  142.6010 C   0  0  1  0  0  3  0  0  0  0  0  0
  188.0070  173.0820  141.7140 S   0  0  0  0  0  0  0  0  0  0  0  0
  195.4480  173.7940  141.1920 C   0  0  1  0  0  3  0  0  0  0  0  0
  197.8730  175.5420  141.2150 C   0  0  0  0  0  2  0  0  0  0  0  0
  188.2630  175.7540  142.2240 C   0  0  1  0  0  3  0  0  0  0  0  0
  193.0240  173.2190  141.4260 C   0  0  0  0  0  0  0  0  0  0  0  0
  196.3500  175.1770  143.2550 C   0  0  2  0  0  3  0  0  0  0  0  0
  192.8740  174.6230  141.9540 C   0  0  2  0  0  3  0  0  0  0  0  0
  193.4890  170.5470  140.4910 C   0  0  0  0  0  2  0  0  0  0  0  0
  190.1480  176.8600  143.5080 C   0  0  0  0  0  2  0  0  0  0  0  0
  194.5480  171.6060  140.2500 C   0  0  0  0  0  2  0  0  0  0  0  0
  191.4450  176.4030  142.8690 C   0  0  0  0  0  2  0  0  0  0  0  0
  189.0290  174.4320  142.3750 C   0  0  2  0  0  3  0  0  0  0  0  0
  192.1020  171.1670  140.3420 C   0  0  0  0  0  2  0  0  0  0  0  0
  190.6260  173.0260  141.2570 N   0  0  0  0  0  0  0  0  0  0  0  0
  187.1910  175.7790  143.1210 O   0  0  0  0  0  0  0  0  0  0  0  0
  186.3380  176.7760  142.6380 C   0  0  0  0  0  2  0  0  0  0  0  0
  185.7340  179.4310  144.9220 C   0  0  0  0  0  2  0  0  0  0  0  0
  184.4590  178.3030  143.2320 C   0  0  0  0  0  2  0  0  0  0  0  0
  185.4660  177.3010  143.7640 C   0  0  0  0  0  3  0  0  0  0  0  0
  184.3620  179.3760  144.2900 C   0  0  0  0  0  2  0  0  0  0  0  0
  186.3200  178.0400  144.7770 C   0  0  0  0  0  2  0  0  0  0  0  0
  1 27  1  0  0  0  0
  1 18  2  0  0  0  0
  2 27  1  0  0  0  0
  2 14  1  0  0  0  0
  3 16  1  6  0  0  0
  3  7  1  0  0  0  0
  3 19  1  0  0  0  0
  4 23  1  6  0  0  0
  4 18  1  0  0  0  0
  5 11  1  1  0  0  0
  5 19  1  0  0  0  0
  7  6  1  0  0  0  0
  8 12  2  0  0  0  0
  8 16  1  0  0  0  0
  9 27  1  1  0  0  0
  9 25  1  0  0  0  0
  9 13  1  0  0  0  0
 10 22  1  0  0  0  0
 13 24  1  6  0  0  0
 15 12  1  1  0  0  0
 15  4  1  0  0  0  0
 15  5  1  0  0  0  0
 17 25  1  0  0  0  0
 17 10  1  0  0  0  0
 17 28  1  1  0  0  0
 19  6  1  1  0  0  0
 20 18  1  1  0  0  0
 20 13  1  0  0  0  0
 20 11  1  0  0  0  0
 23 21  1  0  0  0  0
 24 22  1  0  0  0  0
 25 14  1  6  0  0  0
 26 21  1  0  0  0  0
 26  1  1  0  0  0  0
 29 28  1  0  0  0  0
 29 32  1  0  0  0  0
 31 32  1  0  0  0  0
 31 33  1  0  0  0  0
 32 34  1  0  0  0  0
 33 30  1  0  0  0  0
 34 30  1  0  0  0  0
M  END
>  <MODEL>
9

>  <REMARK>
 VINA RESULT:      -7.1      4.025      8.997
  Name = 
  3 active torsions:
  status: ('A' for Active; 'I' for Inactive)
    1  A    between atoms: C_17  and  O_28
    2  A    between atoms: O_28  and  C_29
    3  A    between atoms: C_29  and  C_32
                            x       y       z     vdW  Elec       q    Type
                         _______ _______ _______ _____ _____    ______ ____

>  <TORSDO>
F 3

$$$$
