=
 OpenBabel11112416273D

 32 38  0  0  1  0  0  0  0  0999 V2000
  185.0150  177.3900  145.7620 C   0  0  1  0  0  3  0  0  0  0  0  0
  189.9160  175.7880  144.5340 C   0  0  0  0  0  0  0  0  0  0  0  0
  189.3980  173.8190  140.0870 C   0  0  0  0  0  3  0  0  0  0  0  0
  190.7340  173.4210  140.1030 C   0  0  0  0  0  3  0  0  0  0  0  0
  192.1900  175.6920  145.6340 C   0  0  0  0  0  0  0  0  0  0  0  0
  193.5020  175.2380  145.5300 C   0  0  0  0  0  0  0  0  0  0  0  0
  188.0060  177.1820  145.4470 C   0  0  1  0  0  3  0  0  0  0  0  0
  187.6740  175.9730  143.3120 C   0  0  0  0  0  2  0  0  0  0  0  0
  195.3770  174.2540  144.6190 C   0  0  1  0  0  3  0  0  0  0  0  0
  185.6230  176.8190  144.4800 C   0  0  2  0  0  3  0  0  0  0  0  0
  188.8630  174.5030  141.1800 C   0  0  0  0  0  3  0  0  0  0  0  0
  189.1050  175.4810  143.4060 C   0  0  0  0  0  0  0  0  0  0  0  0
  189.6540  174.8000  142.3050 C   0  0  0  0  0  0  0  0  0  0  0  0
  191.8210  174.6920  143.4210 C   0  0  0  0  0  0  0  0  0  0  0  0
  195.7450  174.8260  145.9340 N   0  0  0  0  0  0  0  0  0  0  0  0
  185.9530  177.3120  146.9850 C   0  0  0  0  0  2  0  0  0  0  0  0
  187.0540  176.2750  144.6650 C   0  0  2  0  0  3  0  0  0  0  0  0
  194.5650  175.4190  146.4350 N   0  0  0  0  0  0  0  0  0  0  0  0
  187.4050  177.7420  146.7390 C   0  0  0  0  0  2  0  0  0  0  0  0
  185.4970  178.3270  144.6620 C   0  0  1  0  0  3  0  0  0  0  0  0
  191.5330  173.7090  141.2110 C   0  0  0  0  0  3  0  0  0  0  0  0
  191.0070  174.3980  142.3180 C   0  0  0  0  0  0  0  0  0  0  0  0
  193.1310  174.2930  143.4060 N   0  0  0  0  0  0  0  0  0  0  0  0
  189.2660  176.3940  145.7600 C   0  0  0  0  0  2  0  0  0  0  0  0
  191.8330  176.4820  146.8530 C   0  0  0  0  0  1  0  0  0  0  0  0
  195.5940  172.7530  144.6400 C   0  0  0  0  0  1  0  0  0  0  0  0
  191.2910  175.4030  144.5510 C   0  0  0  0  0  0  0  0  0  0  0  0
  193.9350  174.5600  144.4580 C   0  0  0  0  0  0  0  0  0  0  0  0
  184.3530  178.8110  143.9050 N   0  0  0  0  0  2  0  0  0  0  0  0
  184.1110  178.4620  142.5390 C   0  0  0  0  0  0  0  0  0  0  0  0
  185.3330  178.3620  141.4530 S   0  0  0  0  0  0  0  0  0  0  0  0
  182.7800  178.2020  142.1120 N   0  0  0  0  0  1  0  0  0  0  0  0
  1 16  1  1  0  0  0
  2 27  1  0  0  0  0
  2 24  1  0  0  0  0
  3  4  2  0  0  0  0
  3 11  1  0  0  0  0
  4 21  1  0  0  0  0
  5 25  1  0  0  0  0
  6  5  1  0  0  0  0
  6 18  1  0  0  0  0
  7 24  1  1  0  0  0
  7 19  1  0  0  0  0
  8 12  1  0  0  0  0
  8 17  1  0  0  0  0
  9 26  1  1  0  0  0
  9 15  1  0  0  0  0
 10 20  1  0  0  0  0
 10 17  1  0  0  0  0
 10  1  1  0  0  0  0
 11 13  2  0  0  0  0
 12  2  2  0  0  0  0
 13 22  1  0  0  0  0
 13 12  1  0  0  0  0
 14 27  1  0  0  0  0
 15 18  2  0  0  0  0
 17  7  1  0  0  0  0
 19 16  1  0  0  0  0
 20  1  1  0  0  0  0
 21 22  2  0  0  0  0
 22 14  1  0  0  0  0
 23 14  2  0  0  0  0
 23 28  1  0  0  0  0
 27  5  2  0  0  0  0
 28  9  1  0  0  0  0
 28  6  2  0  0  0  0
 29 20  1  0  0  0  0
 30 29  1  0  0  0  0
 31 30  2  0  0  0  0
 32 30  1  0  0  0  0
M  END
>  <MODEL>
1

>  <REMARK>
 VINA RESULT:      -8.7      0.000      0.000
  Name = 
  2 active torsions:
  status: ('A' for Active; 'I' for Inactive)
    1  A    between atoms: C_20  and  N_29
    2  A    between atoms: N_29  and  C_30
                            x       y       z     vdW  Elec       q    Type
                         _______ _______ _______ _____ _____    ______ ____

>  <TORSDO>
F 2

$$$$
=
 OpenBabel11112416273D

 32 38  0  0  1  0  0  0  0  0999 V2000
  192.2910  174.8340  144.2300 C   0  0  1  0  0  3  0  0  0  0  0  0
  187.5090  177.0200  143.5570 C   0  0  0  0  0  0  0  0  0  0  0  0
  186.1550  178.2380  148.0950 C   0  0  0  0  0  3  0  0  0  0  0  0
  184.9110  178.6460  147.6190 C   0  0  0  0  0  3  0  0  0  0  0  0
  185.8790  177.4230  141.6670 C   0  0  0  0  0  0  0  0  0  0  0  0
  184.6020  177.8570  141.3200 C   0  0  0  0  0  0  0  0  0  0  0  0
  189.9310  176.3820  143.1690 C   0  0  1  0  0  3  0  0  0  0  0  0
  189.1650  176.7620  145.4920 C   0  0  0  0  0  2  0  0  0  0  0  0
  182.4830  178.7300  141.5580 C   0  0  1  0  0  3  0  0  0  0  0  0
  191.3440  175.5600  145.1880 C   0  0  2  0  0  3  0  0  0  0  0  0
  187.1090  177.7340  147.2090 C   0  0  0  0  0  3  0  0  0  0  0  0
  187.7930  177.1110  144.9470 C   0  0  0  0  0  0  0  0  0  0  0  0
  186.8320  177.6280  145.8330 C   0  0  0  0  0  0  0  0  0  0  0  0
  185.2730  177.9620  143.9850 C   0  0  0  0  0  0  0  0  0  0  0  0
  182.7190  178.4700  140.1200 N   0  0  0  0  0  0  0  0  0  0  0  0
  191.6620  174.5100  142.8580 C   0  0  0  0  0  2  0  0  0  0  0  0
  189.9450  175.8210  144.5910 C   0  0  2  0  0  3  0  0  0  0  0  0
  184.0280  177.9480  140.0370 N   0  0  0  0  0  0  0  0  0  0  0  0
  190.8670  175.6470  142.2050 C   0  0  0  0  0  2  0  0  0  0  0  0
  192.4700  176.3220  144.5000 C   0  0  1  0  0  3  0  0  0  0  0  0
  184.6210  178.5490  146.2570 C   0  0  0  0  0  3  0  0  0  0  0  0
  185.5710  178.0440  145.3530 C   0  0  0  0  0  0  0  0  0  0  0  0
  184.0440  178.3740  143.5470 N   0  0  0  0  0  0  0  0  0  0  0  0
  188.5060  176.3290  142.6490 C   0  0  0  0  0  2  0  0  0  0  0  0
  186.7840  176.9960  140.5550 C   0  0  0  0  0  1  0  0  0  0  0  0
  181.3120  177.8940  142.0390 C   0  0  0  0  0  1  0  0  0  0  0  0
  186.2440  177.4540  143.0560 C   0  0  0  0  0  0  0  0  0  0  0  0
  183.7310  178.3010  142.2350 C   0  0  0  0  0  0  0  0  0  0  0  0
  193.5650  176.5130  145.4380 N   0  0  0  0  0  2  0  0  0  0  0  0
  194.8720  175.9650  145.2420 C   0  0  0  0  0  0  0  0  0  0  0  0
  195.8060  176.4120  143.9720 S   0  0  0  0  0  0  0  0  0  0  0  0
  195.3720  175.0080  146.1670 N   0  0  0  0  0  1  0  0  0  0  0  0
  1 16  1  6  0  0  0
  1 20  1  0  0  0  0
  1 10  1  0  0  0  0
  2 12  1  0  0  0  0
  4  3  1  0  0  0  0
  5 27  1  0  0  0  0
  6  5  2  0  0  0  0
  6 28  1  0  0  0  0
  7 19  1  6  0  0  0
  7 17  1  0  0  0  0
  9 26  1  1  0  0  0
  9 28  1  0  0  0  0
 11  3  2  0  0  0  0
 12  8  1  0  0  0  0
 12 13  2  0  0  0  0
 13 11  1  0  0  0  0
 14 22  2  0  0  0  0
 15  9  1  0  0  0  0
 17 10  1  0  0  0  0
 17  8  1  0  0  0  0
 18 15  2  0  0  0  0
 18  6  1  0  0  0  0
 19 16  1  0  0  0  0
 20 10  1  0  0  0  0
 20 29  1  0  0  0  0
 21  4  2  0  0  0  0
 22 13  1  0  0  0  0
 22 21  1  0  0  0  0
 23 14  1  0  0  0  0
 24  7  1  0  0  0  0
 24  2  1  0  0  0  0
 25  5  1  0  0  0  0
 27  2  2  0  0  0  0
 27 14  1  0  0  0  0
 28 23  2  0  0  0  0
 30 29  1  0  0  0  0
 30 32  1  0  0  0  0
 31 30  2  0  0  0  0
M  END
>  <MODEL>
2

>  <REMARK>
 VINA RESULT:      -8.7      2.507      9.021
  Name = 
  2 active torsions:
  status: ('A' for Active; 'I' for Inactive)
    1  A    between atoms: C_20  and  N_29
    2  A    between atoms: N_29  and  C_30
                            x       y       z     vdW  Elec       q    Type
                         _______ _______ _______ _____ _____    ______ ____

>  <TORSDO>
F 2

$$$$
=
 OpenBabel11112416273D

 32 38  0  0  1  0  0  0  0  0999 V2000
  195.3070  175.2290  145.6020 C   0  0  1  0  0  3  0  0  0  0  0  0
  190.3250  175.7760  143.8760 C   0  0  0  0  0  0  0  0  0  0  0  0
  190.2960  173.3060  139.6550 C   0  0  0  0  0  3  0  0  0  0  0  0
  188.9830  173.7130  139.4220 C   0  0  0  0  0  3  0  0  0  0  0  0
  188.2190  176.9880  144.5740 C   0  0  0  0  0  0  0  0  0  0  0  0
  186.9160  177.3290  144.2230 C   0  0  0  0  0  0  0  0  0  0  0  0
  192.3060  175.4600  145.4250 C   0  0  1  0  0  3  0  0  0  0  0  0
  192.3800  174.4180  143.1810 C   0  0  0  0  0  2  0  0  0  0  0  0
  184.9600  177.4030  143.0060 C   0  0  1  0  0  3  0  0  0  0  0  0
  194.5480  174.6100  144.4270 C   0  0  2  0  0  3  0  0  0  0  0  0
  190.9550  173.7150  140.8150 C   0  0  0  0  0  3  0  0  0  0  0  0
  190.9860  174.9540  142.9220 C   0  0  0  0  0  0  0  0  0  0  0  0
  190.3130  174.5380  141.7600 C   0  0  0  0  0  0  0  0  0  0  0  0
  188.3150  175.7570  142.4510 C   0  0  0  0  0  0  0  0  0  0  0  0
  184.7570  178.1650  144.2580 N   0  0  0  0  0  0  0  0  0  0  0  0
  194.5400  176.3680  146.3080 C   0  0  0  0  0  2  0  0  0  0  0  0
  193.1670  175.2510  144.1790 C   0  0  2  0  0  3  0  0  0  0  0  0
  185.9780  178.0760  144.9610 N   0  0  0  0  0  0  0  0  0  0  0  0
  193.0600  176.0940  146.5980 C   0  0  0  0  0  2  0  0  0  0  0  0
  194.6620  173.8570  145.7470 C   0  0  1  0  0  3  0  0  0  0  0  0
  188.3320  174.5280  140.3490 C   0  0  0  0  0  3  0  0  0  0  0  0
  188.9830  174.9480  141.5220 C   0  0  0  0  0  0  0  0  0  0  0  0
  187.0250  176.1370  142.1960 N   0  0  0  0  0  0  0  0  0  0  0  0
  191.1170  176.3240  145.0440 C   0  0  0  0  0  2  0  0  0  0  0  0
  188.7150  177.4590  145.9050 C   0  0  0  0  0  1  0  0  0  0  0  0
  184.7830  178.3250  141.8150 C   0  0  0  0  0  1  0  0  0  0  0  0
  188.9730  176.1810  143.6560 C   0  0  0  0  0  0  0  0  0  0  0  0
  186.3610  176.9200  143.0740 C   0  0  0  0  0  0  0  0  0  0  0  0
  195.6840  172.8290  145.6290 N   0  0  0  0  0  2  0  0  0  0  0  0
  195.3950  171.4280  145.6430 C   0  0  0  0  0  0  0  0  0  0  0  0
  196.4980  170.3330  146.1590 S   0  0  0  0  0  0  0  0  0  0  0  0
  194.1240  170.9740  145.1940 N   0  0  0  0  0  1  0  0  0  0  0  0
  1 20  1  0  0  0  0
  1 16  1  1  0  0  0
  2 24  1  0  0  0  0
  3 11  1  0  0  0  0
  4  3  2  0  0  0  0
  4 21  1  0  0  0  0
  5 25  1  0  0  0  0
  6  5  1  0  0  0  0
  6 18  1  0  0  0  0
  7 24  1  6  0  0  0
  7 19  1  0  0  0  0
  8 17  1  0  0  0  0
  9 26  1  6  0  0  0
  9 28  1  0  0  0  0
  9 15  1  0  0  0  0
 10  1  1  0  0  0  0
 10 20  1  0  0  0  0
 11 13  2  0  0  0  0
 12  8  1  0  0  0  0
 12  2  2  0  0  0  0
 13 12  1  0  0  0  0
 14 27  1  0  0  0  0
 15 18  2  0  0  0  0
 16 19  1  0  0  0  0
 17 10  1  0  0  0  0
 17  7  1  0  0  0  0
 21 22  2  0  0  0  0
 22 13  1  0  0  0  0
 22 14  1  0  0  0  0
 23 14  2  0  0  0  0
 23 28  1  0  0  0  0
 27  2  1  0  0  0  0
 27  5  2  0  0  0  0
 28  6  2  0  0  0  0
 29 30  1  0  0  0  0
 29 20  1  0  0  0  0
 30 31  2  0  0  0  0
 32 30  1  0  0  0  0
M  END
>  <MODEL>
3

>  <REMARK>
 VINA RESULT:      -8.4      3.001      7.883
  Name = 
  2 active torsions:
  status: ('A' for Active; 'I' for Inactive)
    1  A    between atoms: C_20  and  N_29
    2  A    between atoms: N_29  and  C_30
                            x       y       z     vdW  Elec       q    Type
                         _______ _______ _______ _____ _____    ______ ____

>  <TORSDO>
F 2

$$$$
=
 OpenBabel11112416273D

 32 38  0  0  1  0  0  0  0  0999 V2000
  190.4270  172.1500  139.6220 C   0  0  1  0  0  3  0  0  0  0  0  0
  188.5720  175.5320  143.2590 C   0  0  0  0  0  0  0  0  0  0  0  0
  191.8880  175.2900  146.8460 C   0  0  0  0  0  3  0  0  0  0  0  0
  191.1060  176.1360  147.6310 C   0  0  0  0  0  3  0  0  0  0  0  0
  186.5350  176.9870  143.6020 C   0  0  0  0  0  0  0  0  0  0  0  0
  185.8460  177.8170  144.4830 C   0  0  0  0  0  0  0  0  0  0  0  0
  189.1670  174.5080  141.0180 C   0  0  1  0  0  3  0  0  0  0  0  0
  190.7220  174.1840  142.9180 C   0  0  0  0  0  2  0  0  0  0  0  0
  185.3870  179.0330  146.3860 C   0  0  1  0  0  3  0  0  0  0  0  0
  191.0140  172.6820  140.9310 C   0  0  2  0  0  3  0  0  0  0  0  0
  191.4560  174.9300  145.5690 C   0  0  0  0  0  3  0  0  0  0  0  0
  189.8020  175.0330  143.7730 C   0  0  0  0  0  0  0  0  0  0  0  0
  190.2350  175.4080  145.0560 C   0  0  0  0  0  0  0  0  0  0  0  0
  188.2320  176.7680  145.3630 C   0  0  0  0  0  0  0  0  0  0  0  0
  184.3000  179.2700  145.4110 N   0  0  0  0  0  0  0  0  0  0  0  0
  188.9420  172.5180  139.4100 C   0  0  0  0  0  2  0  0  0  0  0  0
  190.0020  173.4780  141.7820 C   0  0  2  0  0  3  0  0  0  0  0  0
  184.6390  178.5100  144.2700 N   0  0  0  0  0  0  0  0  0  0  0  0
  188.5670  173.9730  139.7150 C   0  0  0  0  0  2  0  0  0  0  0  0
  191.3750  173.3430  139.6060 C   0  0  1  0  0  3  0  0  0  0  0  0
  189.8940  176.6210  147.1370 C   0  0  0  0  0  3  0  0  0  0  0  0
  189.4460  176.2660  145.8520 C   0  0  0  0  0  0  0  0  0  0  0  0
  187.4890  177.6000  146.1550 N   0  0  0  0  0  0  0  0  0  0  0  0
  188.0630  175.0010  141.9350 C   0  0  0  0  0  2  0  0  0  0  0  0
  185.9420  176.7910  142.2420 C   0  0  0  0  0  1  0  0  0  0  0  0
  184.8170  178.3930  147.6380 C   0  0  0  0  0  1  0  0  0  0  0  0
  187.7740  176.4150  144.0470 C   0  0  0  0  0  0  0  0  0  0  0  0
  186.3130  178.0930  145.7080 C   0  0  0  0  0  0  0  0  0  0  0  0
  192.6970  172.9010  139.1920 N   0  0  0  0  0  2  0  0  0  0  0  0
  193.9040  173.5680  139.5740 C   0  0  0  0  0  0  0  0  0  0  0  0
  194.4180  174.9160  138.7970 S   0  0  0  0  0  0  0  0  0  0  0  0
  194.6770  173.0480  140.6480 N   0  0  0  0  0  1  0  0  0  0  0  0
  1 16  1  1  0  0  0
  1 10  1  0  0  0  0
  2 12  2  0  0  0  0
  2 27  1  0  0  0  0
  3  4  1  0  0  0  0
  5 27  2  0  0  0  0
  5  6  1  0  0  0  0
  6 28  2  0  0  0  0
  7 19  1  6  0  0  0
  7 17  1  0  0  0  0
  7 24  1  0  0  0  0
  8 12  1  0  0  0  0
  9 26  1  1  0  0  0
 10 17  1  0  0  0  0
 11  3  2  0  0  0  0
 12 13  1  0  0  0  0
 13 11  1  0  0  0  0
 13 22  2  0  0  0  0
 14 22  1  0  0  0  0
 14 23  2  0  0  0  0
 15  9  1  0  0  0  0
 16 19  1  0  0  0  0
 17  8  1  0  0  0  0
 18  6  1  0  0  0  0
 18 15  2  0  0  0  0
 20  1  1  0  0  0  0
 20 10  1  0  0  0  0
 21  4  2  0  0  0  0
 22 21  1  0  0  0  0
 24  2  1  0  0  0  0
 25  5  1  0  0  0  0
 27 14  1  0  0  0  0
 28 23  1  0  0  0  0
 28  9  1  0  0  0  0
 29 30  1  0  0  0  0
 29 20  1  0  0  0  0
 30 32  1  0  0  0  0
 31 30  2  0  0  0  0
M  END
>  <MODEL>
4

>  <REMARK>
 VINA RESULT:      -8.3      2.917      8.079
  Name = 
  2 active torsions:
  status: ('A' for Active; 'I' for Inactive)
    1  A    between atoms: C_20  and  N_29
    2  A    between atoms: N_29  and  C_30
                            x       y       z     vdW  Elec       q    Type
                         _______ _______ _______ _____ _____    ______ ____

>  <TORSDO>
F 2

$$$$
=
 OpenBabel11112416273D

 32 38  0  0  1  0  0  0  0  0999 V2000
  185.7450  179.0790  143.7530 C   0  0  1  0  0  3  0  0  0  0  0  0
  189.2620  175.2700  142.6450 C   0  0  0  0  0  0  0  0  0  0  0  0
  192.2570  175.3140  146.5110 C   0  0  0  0  0  3  0  0  0  0  0  0
  193.0660  174.3580  145.9000 C   0  0  0  0  0  3  0  0  0  0  0  0
  189.7810  173.6920  140.7410 C   0  0  0  0  0  0  0  0  0  0  0  0
  190.6720  172.7470  140.2370 C   0  0  0  0  0  0  0  0  0  0  0  0
  187.0740  176.5380  142.8210 C   0  0  1  0  0  3  0  0  0  0  0  0
  188.7140  176.7460  144.6630 C   0  0  0  0  0  2  0  0  0  0  0  0
  192.4850  171.3280  140.1450 C   0  0  1  0  0  3  0  0  0  0  0  0
  186.8760  178.4490  144.5690 C   0  0  2  0  0  3  0  0  0  0  0  0
  191.1140  175.7780  145.8580 C   0  0  0  0  0  3  0  0  0  0  0  0
  189.6150  175.7730  143.9280 C   0  0  0  0  0  0  0  0  0  0  0  0
  190.7630  175.2950  144.5840 C   0  0  0  0  0  0  0  0  0  0  0  0
  191.2510  173.8170  142.7040 C   0  0  0  0  0  0  0  0  0  0  0  0
  191.6840  171.1370  138.9150 N   0  0  0  0  0  0  0  0  0  0  0  0
  185.7440  178.6640  142.2660 C   0  0  0  0  0  2  0  0  0  0  0  0
  187.7940  177.5250  143.7410 C   0  0  2  0  0  3  0  0  0  0  0  0
  190.5890  172.0210  139.0330 N   0  0  0  0  0  0  0  0  0  0  0  0
  185.9520  177.1690  141.9920 C   0  0  0  0  0  2  0  0  0  0  0  0
  185.4470  177.9410  144.7200 C   0  0  1  0  0  3  0  0  0  0  0  0
  192.7320  173.8680  144.6370 C   0  0  0  0  0  3  0  0  0  0  0  0
  191.5830  174.3250  143.9680 C   0  0  0  0  0  0  0  0  0  0  0  0
  192.0630  172.8760  142.1310 N   0  0  0  0  0  0  0  0  0  0  0  0
  188.1040  175.9040  141.9030 C   0  0  0  0  0  2  0  0  0  0  0  0
  188.5660  173.9930  139.9210 C   0  0  0  0  0  1  0  0  0  0  0  0
  193.8750  171.8130  139.7750 C   0  0  0  0  0  1  0  0  0  0  0  0
  190.0730  174.2750  142.0200 C   0  0  0  0  0  0  0  0  0  0  0  0
  191.7670  172.3730  140.9130 C   0  0  0  0  0  0  0  0  0  0  0  0
  184.8690  178.4840  145.9390 N   0  0  0  0  0  2  0  0  0  0  0  0
  185.5670  178.5300  147.1870 C   0  0  0  0  0  0  0  0  0  0  0  0
  185.9410  177.1630  148.0090 S   0  0  0  0  0  0  0  0  0  0  0  0
  185.9410  179.7910  147.7300 N   0  0  0  0  0  1  0  0  0  0  0  0
  1 16  1  6  0  0  0
  1 10  1  0  0  0  0
  1 20  1  0  0  0  0
  2 12  1  0  0  0  0
  4  3  1  0  0  0  0
  5 27  1  0  0  0  0
  6  5  2  0  0  0  0
  6 28  1  0  0  0  0
  7 24  1  6  0  0  0
  7 17  1  0  0  0  0
  9 26  1  6  0  0  0
  9 28  1  0  0  0  0
 10 20  1  0  0  0  0
 11  3  2  0  0  0  0
 12 13  2  0  0  0  0
 12  8  1  0  0  0  0
 13 11  1  0  0  0  0
 14 22  2  0  0  0  0
 15 18  2  0  0  0  0
 15  9  1  0  0  0  0
 17 10  1  0  0  0  0
 17  8  1  0  0  0  0
 18  6  1  0  0  0  0
 19 16  1  0  0  0  0
 19  7  1  0  0  0  0
 20 29  1  0  0  0  0
 21  4  2  0  0  0  0
 22 13  1  0  0  0  0
 22 21  1  0  0  0  0
 23 14  1  0  0  0  0
 24  2  1  0  0  0  0
 25  5  1  0  0  0  0
 27  2  2  0  0  0  0
 27 14  1  0  0  0  0
 28 23  2  0  0  0  0
 29 30  1  0  0  0  0
 30 32  1  0  0  0  0
 30 31  2  0  0  0  0
M  END
>  <MODEL>
5

>  <REMARK>
 VINA RESULT:      -8.1      2.410      4.879
  Name = 
  2 active torsions:
  status: ('A' for Active; 'I' for Inactive)
    1  A    between atoms: C_20  and  N_29
    2  A    between atoms: N_29  and  C_30
                            x       y       z     vdW  Elec       q    Type
                         _______ _______ _______ _____ _____    ______ ____

>  <TORSDO>
F 2

$$$$
=
 OpenBabel11112416273D

 32 38  0  0  1  0  0  0  0  0999 V2000
  186.9070  177.9120  142.7790 C   0  0  1  0  0  3  0  0  0  0  0  0
  190.6330  174.2640  143.7350 C   0  0  0  0  0  0  0  0  0  0  0  0
  193.9070  176.6580  146.4670 C   0  0  0  0  0  3  0  0  0  0  0  0
  194.7440  175.5440  146.4480 C   0  0  0  0  0  3  0  0  0  0  0  0
  191.1320  171.8750  143.0780 C   0  0  0  0  0  0  0  0  0  0  0  0
  192.0570  170.8350  143.1300 C   0  0  0  0  0  0  0  0  0  0  0  0
  188.3670  175.3420  143.3770 C   0  0  1  0  0  3  0  0  0  0  0  0
  190.1230  176.6380  144.5450 C   0  0  0  0  0  2  0  0  0  0  0  0
  193.9710  169.6780  143.6850 C   0  0  1  0  0  3  0  0  0  0  0  0
  188.1460  177.9130  143.6760 C   0  0  2  0  0  3  0  0  0  0  0  0
  192.6810  176.6200  145.8010 C   0  0  0  0  0  3  0  0  0  0  0  0
  191.0420  175.4380  144.4260 C   0  0  0  0  0  0  0  0  0  0  0  0
  192.2740  175.4670  145.1030 C   0  0  0  0  0  0  0  0  0  0  0  0
  192.7350  173.1730  144.4110 C   0  0  0  0  0  0  0  0  0  0  0  0
  193.0940  168.7770  142.9030 N   0  0  0  0  0  0  0  0  0  0  0  0
  186.8240  176.6950  141.8320 C   0  0  0  0  0  2  0  0  0  0  0  0
  189.0710  176.6980  143.4520 C   0  0  2  0  0  3  0  0  0  0  0  0
  191.9410  169.5350  142.6020 N   0  0  0  0  0  0  0  0  0  0  0  0
  187.1350  175.3340  142.4680 C   0  0  0  0  0  2  0  0  0  0  0  0
  186.7820  177.5640  144.2570 C   0  0  1  0  0  3  0  0  0  0  0  0
  194.3530  174.3920  145.7630 C   0  0  0  0  0  3  0  0  0  0  0  0
  193.1220  174.3390  145.0870 C   0  0  0  0  0  0  0  0  0  0  0  0
  193.5760  172.0930  144.4150 N   0  0  0  0  0  0  0  0  0  0  0  0
  189.3710  174.3100  142.8980 C   0  0  0  0  0  2  0  0  0  0  0  0
  189.8360  171.6050  142.3810 C   0  0  0  0  0  1  0  0  0  0  0  0
  195.2810  169.8780  142.9470 C   0  0  0  0  0  1  0  0  0  0  0  0
  191.4740  173.1100  143.7270 C   0  0  0  0  0  0  0  0  0  0  0  0
  193.2290  170.9590  143.7670 C   0  0  0  0  0  0  0  0  0  0  0  0
  186.2570  178.7120  144.9790 N   0  0  0  0  0  2  0  0  0  0  0  0
  185.4850  178.6010  146.1780 C   0  0  0  0  0  0  0  0  0  0  0  0
  186.1990  178.3950  147.6380 S   0  0  0  0  0  0  0  0  0  0  0  0
  184.0670  178.6660  146.1020 N   0  0  0  0  0  1  0  0  0  0  0  0
  1 16  1  6  0  0  0
  1 10  1  0  0  0  0
  1 20  1  0  0  0  0
  2 12  1  0  0  0  0
  4  3  1  0  0  0  0
  5  6  2  0  0  0  0
  5 27  1  0  0  0  0
  6 28  1  0  0  0  0
  7 19  1  6  0  0  0
  7 17  1  0  0  0  0
  9 26  1  6  0  0  0
  9 28  1  0  0  0  0
 10 20  1  0  0  0  0
 11  3  2  0  0  0  0
 12  8  1  0  0  0  0
 12 13  2  0  0  0  0
 13 11  1  0  0  0  0
 14 23  1  0  0  0  0
 14 22  2  0  0  0  0
 15  9  1  0  0  0  0
 16 19  1  0  0  0  0
 17 10  1  0  0  0  0
 17  8  1  0  0  0  0
 18 15  2  0  0  0  0
 18  6  1  0  0  0  0
 20 29  1  0  0  0  0
 21  4  2  0  0  0  0
 22 13  1  0  0  0  0
 22 21  1  0  0  0  0
 24  7  1  0  0  0  0
 24  2  1  0  0  0  0
 25  5  1  0  0  0  0
 27  2  2  0  0  0  0
 27 14  1  0  0  0  0
 28 23  2  0  0  0  0
 29 30  1  0  0  0  0
 30 31  2  0  0  0  0
 32 30  1  0  0  0  0
M  END
>  <MODEL>
6

>  <REMARK>
 VINA RESULT:      -8.0      2.560      4.651
  Name = 
  2 active torsions:
  status: ('A' for Active; 'I' for Inactive)
    1  A    between atoms: C_20  and  N_29
    2  A    between atoms: N_29  and  C_30
                            x       y       z     vdW  Elec       q    Type
                         _______ _______ _______ _____ _____    ______ ____

>  <TORSDO>
F 2

$$$$
=
 OpenBabel11112416273D

 32 38  0  0  1  0  0  0  0  0999 V2000
  185.5880  177.6160  145.0280 C   0  0  1  0  0  3  0  0  0  0  0  0
  189.7680  174.5730  143.8570 C   0  0  0  0  0  0  0  0  0  0  0  0
  188.6210  172.6770  139.4980 C   0  0  0  0  0  3  0  0  0  0  0  0
  189.7770  171.8990  139.5270 C   0  0  0  0  0  3  0  0  0  0  0  0
  191.9250  173.8450  144.9550 C   0  0  0  0  0  0  0  0  0  0  0  0
  193.0400  173.0150  144.8670 C   0  0  0  0  0  0  0  0  0  0  0  0
  188.3750  176.5090  144.7160 C   0  0  1  0  0  3  0  0  0  0  0  0
  187.6670  175.3730  142.6330 C   0  0  0  0  0  2  0  0  0  0  0  0
  194.5220  171.4810  143.9950 C   0  0  1  0  0  3  0  0  0  0  0  0
  185.9790  176.8390  143.7690 C   0  0  2  0  0  3  0  0  0  0  0  0
  188.3300  173.5320  140.5610 C   0  0  0  0  0  3  0  0  0  0  0  0
  188.8870  174.4790  142.7450 C   0  0  0  0  0  0  0  0  0  0  0  0
  189.1900  173.6230  141.6720 C   0  0  0  0  0  0  0  0  0  0  0  0
  191.2420  172.9150  142.7870 C   0  0  0  0  0  0  0  0  0  0  0  0
  195.0630  171.9680  145.2840 N   0  0  0  0  0  0  0  0  0  0  0  0
  186.4780  177.3080  146.2510 C   0  0  0  0  0  2  0  0  0  0  0  0
  187.1850  175.8990  143.9740 C   0  0  2  0  0  3  0  0  0  0  0  0
  194.1210  172.9060  145.7620 N   0  0  0  0  0  0  0  0  0  0  0  0
  187.9880  177.2740  145.9840 C   0  0  0  0  0  2  0  0  0  0  0  0
  186.3120  178.3220  143.8890 C   0  0  1  0  0  3  0  0  0  0  0  0
  190.6410  171.9780  140.6210 C   0  0  0  0  0  3  0  0  0  0  0  0
  190.3620  172.8350  141.6990 C   0  0  0  0  0  0  0  0  0  0  0  0
  192.3720  172.1420  142.7850 N   0  0  0  0  0  0  0  0  0  0  0  0
  189.3460  175.3940  145.0580 C   0  0  0  0  0  2  0  0  0  0  0  0
  191.8390  174.7520  146.1410 C   0  0  0  0  0  1  0  0  0  0  0  0
  194.2810  169.9850  144.0770 C   0  0  0  0  0  1  0  0  0  0  0  0
  190.9650  173.7960  143.8880 C   0  0  0  0  0  0  0  0  0  0  0  0
  193.2350  172.1980  143.8240 C   0  0  0  0  0  0  0  0  0  0  0  0
  185.3540  179.0950  143.1150 N   0  0  0  0  0  2  0  0  0  0  0  0
  184.5920  178.5480  142.0340 C   0  0  0  0  0  0  0  0  0  0  0  0
  185.2810  178.2150  140.5860 S   0  0  0  0  0  0  0  0  0  0  0  0
  183.2060  178.2920  142.2190 N   0  0  0  0  0  1  0  0  0  0  0  0
  1 16  1  1  0  0  0
  2 27  1  0  0  0  0
  2 24  1  0  0  0  0
  3  4  2  0  0  0  0
  3 11  1  0  0  0  0
  4 21  1  0  0  0  0
  5 25  1  0  0  0  0
  6  5  1  0  0  0  0
  6 18  1  0  0  0  0
  7 24  1  1  0  0  0
  7 19  1  0  0  0  0
  8 12  1  0  0  0  0
  8 17  1  0  0  0  0
  9 26  1  1  0  0  0
  9 15  1  0  0  0  0
 10 20  1  0  0  0  0
 10 17  1  0  0  0  0
 10  1  1  0  0  0  0
 11 13  2  0  0  0  0
 12  2  2  0  0  0  0
 13 22  1  0  0  0  0
 13 12  1  0  0  0  0
 14 27  1  0  0  0  0
 15 18  2  0  0  0  0
 17  7  1  0  0  0  0
 19 16  1  0  0  0  0
 20  1  1  0  0  0  0
 21 22  2  0  0  0  0
 22 14  1  0  0  0  0
 23 14  2  0  0  0  0
 23 28  1  0  0  0  0
 27  5  2  0  0  0  0
 28  9  1  0  0  0  0
 28  6  2  0  0  0  0
 29 20  1  0  0  0  0
 30 32  1  0  0  0  0
 30 29  1  0  0  0  0
 31 30  2  0  0  0  0
M  END
>  <MODEL>
7

>  <REMARK>
 VINA RESULT:      -8.0      1.560      1.758
  Name = 
  2 active torsions:
  status: ('A' for Active; 'I' for Inactive)
    1  A    between atoms: C_20  and  N_29
    2  A    between atoms: N_29  and  C_30
                            x       y       z     vdW  Elec       q    Type
                         _______ _______ _______ _____ _____    ______ ____

>  <TORSDO>
F 2

$$$$
=
 OpenBabel11112416273D

 32 38  0  0  1  0  0  0  0  0999 V2000
  195.4220  175.9440  145.0130 C   0  0  1  0  0  3  0  0  0  0  0  0
  190.1400  176.3850  145.0830 C   0  0  0  0  0  0  0  0  0  0  0  0
  188.7550  174.2410  140.9110 C   0  0  0  0  0  3  0  0  0  0  0  0
  187.4320  174.6020  141.1610 C   0  0  0  0  0  3  0  0  0  0  0  0
  188.3640  177.4390  146.5400 C   0  0  0  0  0  0  0  0  0  0  0  0
  187.0120  177.7440  146.6700 C   0  0  0  0  0  0  0  0  0  0  0  0
  192.5300  176.0460  145.8580 C   0  0  1  0  0  3  0  0  0  0  0  0
  191.8730  175.1810  143.6340 C   0  0  0  0  0  2  0  0  0  0  0  0
  184.7620  177.8170  146.1780 C   0  0  1  0  0  3  0  0  0  0  0  0
  194.3270  175.3800  144.1050 C   0  0  2  0  0  3  0  0  0  0  0  0
  189.7550  174.5920  141.8200 C   0  0  0  0  0  3  0  0  0  0  0  0
  190.4620  175.6690  143.8970 C   0  0  0  0  0  0  0  0  0  0  0  0
  189.4480  175.3110  142.9900 C   0  0  0  0  0  0  0  0  0  0  0  0
  187.7720  176.3790  144.4060 C   0  0  0  0  0  0  0  0  0  0  0  0
  184.9720  178.4720  147.4880 N   0  0  0  0  0  0  0  0  0  0  0  0
  194.9130  176.9890  146.0290 C   0  0  0  0  0  2  0  0  0  0  0  0
  192.9300  175.9720  144.3840 C   0  0  2  0  0  3  0  0  0  0  0  0
  186.3590  178.3890  147.7380 N   0  0  0  0  0  0  0  0  0  0  0  0
  193.6180  176.6240  146.7660 C   0  0  0  0  0  2  0  0  0  0  0  0
  194.8890  174.5360  145.2430 C   0  0  1  0  0  3  0  0  0  0  0  0
  187.1110  175.3140  142.3180 C   0  0  0  0  0  3  0  0  0  0  0  0
  188.1070  175.6740  143.2420 C   0  0  0  0  0  0  0  0  0  0  0  0
  186.4630  176.7150  144.6250 N   0  0  0  0  0  0  0  0  0  0  0  0
  191.2660  176.8790  145.9680 C   0  0  0  0  0  2  0  0  0  0  0  0
  189.2660  177.8310  147.6680 C   0  0  0  0  0  1  0  0  0  0  0  0
  184.1790  178.8180  145.1980 C   0  0  0  0  0  1  0  0  0  0  0  0
  188.7850  176.7410  145.3580 C   0  0  0  0  0  0  0  0  0  0  0  0
  186.1140  177.3980  145.7380 C   0  0  0  0  0  0  0  0  0  0  0  0
  195.8330  173.5690  144.7060 N   0  0  0  0  0  2  0  0  0  0  0  0
  196.7590  173.8730  143.6590 C   0  0  0  0  0  0  0  0  0  0  0  0
  196.4900  173.3950  142.1150 S   0  0  0  0  0  0  0  0  0  0  0  0
  197.9410  174.6020  143.9640 N   0  0  0  0  0  1  0  0  0  0  0  0
  1 20  1  0  0  0  0
  1 16  1  1  0  0  0
  2 27  1  0  0  0  0
  2 24  1  0  0  0  0
  3  4  2  0  0  0  0
  3 11  1  0  0  0  0
  4 21  1  0  0  0  0
  5  6  1  0  0  0  0
  5 25  1  0  0  0  0
  6 18  1  0  0  0  0
  7 24  1  6  0  0  0
  7 19  1  0  0  0  0
  8 12  1  0  0  0  0
  8 17  1  0  0  0  0
  9 26  1  6  0  0  0
  9 15  1  0  0  0  0
 10 17  1  0  0  0  0
 10  1  1  0  0  0  0
 10 20  1  0  0  0  0
 11 13  2  0  0  0  0
 12  2  2  0  0  0  0
 13 22  1  0  0  0  0
 13 12  1  0  0  0  0
 14 23  2  0  0  0  0
 14 27  1  0  0  0  0
 15 18  2  0  0  0  0
 16 19  1  0  0  0  0
 17  7  1  0  0  0  0
 21 22  2  0  0  0  0
 22 14  1  0  0  0  0
 23 28  1  0  0  0  0
 27  5  2  0  0  0  0
 28  9  1  0  0  0  0
 28  6  2  0  0  0  0
 29 20  1  0  0  0  0
 30 32  1  0  0  0  0
 30 29  1  0  0  0  0
 31 30  2  0  0  0  0
M  END
>  <MODEL>
8

>  <REMARK>
 VINA RESULT:      -7.9      2.748      7.941
  Name = 
  2 active torsions:
  status: ('A' for Active; 'I' for Inactive)
    1  A    between atoms: C_20  and  N_29
    2  A    between atoms: N_29  and  C_30
                            x       y       z     vdW  Elec       q    Type
                         _______ _______ _______ _____ _____    ______ ____

>  <TORSDO>
F 2

$$$$
=
 OpenBabel11112416273D

 32 38  0  0  1  0  0  0  0  0999 V2000
  185.9930  178.6190  143.3770 C   0  0  1  0  0  3  0  0  0  0  0  0
  190.1650  175.3960  142.8160 C   0  0  0  0  0  0  0  0  0  0  0  0
  192.8620  176.3110  146.7920 C   0  0  0  0  0  3  0  0  0  0  0  0
  193.8580  175.4590  146.3170 C   0  0  0  0  0  3  0  0  0  0  0  0
  191.0610  173.7670  141.1050 C   0  0  0  0  0  0  0  0  0  0  0  0
  192.1280  172.9500  140.7390 C   0  0  0  0  0  0  0  0  0  0  0  0
  187.7870  176.2740  142.7650 C   0  0  1  0  0  3  0  0  0  0  0  0
  189.2510  176.9300  144.6500 C   0  0  0  0  0  2  0  0  0  0  0  0
  194.1570  171.8670  140.8720 C   0  0  1  0  0  3  0  0  0  0  0  0
  187.1610  178.2720  144.3020 C   0  0  2  0  0  3  0  0  0  0  0  0
  191.7000  176.5070  146.0440 C   0  0  0  0  0  3  0  0  0  0  0  0
  190.3470  176.0670  144.0570 C   0  0  0  0  0  0  0  0  0  0  0  0
  191.5160  175.8570  144.8100 C   0  0  0  0  0  0  0  0  0  0  0  0
  192.3630  174.3230  143.1110 C   0  0  0  0  0  0  0  0  0  0  0  0
  193.4780  171.4290  139.6320 N   0  0  0  0  0  0  0  0  0  0  0  0
  186.1540  178.0770  141.9400 C   0  0  0  0  0  2  0  0  0  0  0  0
  188.2710  177.4510  143.6130 C   0  0  2  0  0  3  0  0  0  0  0  0
  192.2440  172.1150  139.6110 N   0  0  0  0  0  0  0  0  0  0  0  0
  186.6290  176.6230  141.8260 C   0  0  0  0  0  2  0  0  0  0  0  0
  185.8320  177.5380  144.4380 C   0  0  1  0  0  3  0  0  0  0  0  0
  193.6910  174.8060  145.0950 C   0  0  0  0  0  3  0  0  0  0  0  0
  192.5250  174.9940  144.3320 C   0  0  0  0  0  0  0  0  0  0  0  0
  193.3570  173.4900  142.6730 N   0  0  0  0  0  0  0  0  0  0  0  0
  188.9650  175.7490  141.9630 C   0  0  0  0  0  2  0  0  0  0  0  0
  189.8660  173.7770  140.2040 C   0  0  0  0  0  1  0  0  0  0  0  0
  195.4650  172.5510  140.5190 C   0  0  0  0  0  1  0  0  0  0  0  0
  191.1700  174.5060  142.3310 C   0  0  0  0  0  0  0  0  0  0  0  0
  193.2260  172.8360  141.4980 C   0  0  0  0  0  0  0  0  0  0  0  0
  185.0960  178.0800  145.5690 N   0  0  0  0  0  2  0  0  0  0  0  0
  185.6550  178.2160  146.8790 C   0  0  0  0  0  0  0  0  0  0  0  0
  186.2260  176.9200  147.7030 S   0  0  0  0  0  0  0  0  0  0  0  0
  185.7130  179.5030  147.4820 N   0  0  0  0  0  1  0  0  0  0  0  0
  1 16  1  6  0  0  0
  1 10  1  0  0  0  0
  1 20  1  0  0  0  0
  2 12  1  0  0  0  0
  4  3  1  0  0  0  0
  5 27  1  0  0  0  0
  6  5  2  0  0  0  0
  6 28  1  0  0  0  0
  7 19  1  6  0  0  0
  7 17  1  0  0  0  0
  9 26  1  6  0  0  0
  9 28  1  0  0  0  0
 10 20  1  0  0  0  0
 11  3  2  0  0  0  0
 12  8  1  0  0  0  0
 12 13  2  0  0  0  0
 13 11  1  0  0  0  0
 14 22  2  0  0  0  0
 15  9  1  0  0  0  0
 17 10  1  0  0  0  0
 17  8  1  0  0  0  0
 18 15  2  0  0  0  0
 18  6  1  0  0  0  0
 19 16  1  0  0  0  0
 20 29  1  0  0  0  0
 21  4  2  0  0  0  0
 22 13  1  0  0  0  0
 22 21  1  0  0  0  0
 23 14  1  0  0  0  0
 24  7  1  0  0  0  0
 24  2  1  0  0  0  0
 25  5  1  0  0  0  0
 27  2  2  0  0  0  0
 27 14  1  0  0  0  0
 28 23  2  0  0  0  0
 29 30  1  0  0  0  0
 30 32  1  0  0  0  0
 30 31  2  0  0  0  0
M  END
>  <MODEL>
9

>  <REMARK>
 VINA RESULT:      -7.7      2.270      4.635
  Name = 
  2 active torsions:
  status: ('A' for Active; 'I' for Inactive)
    1  A    between atoms: C_20  and  N_29
    2  A    between atoms: N_29  and  C_30
                            x       y       z     vdW  Elec       q    Type
                         _______ _______ _______ _____ _____    ______ ____

>  <TORSDO>
F 2

$$$$
