=
 OpenBabel11112417413D

 28 32  0  0  1  0  0  0  0  0999 V2000
  188.1260  177.6080  144.4330 C   0  0  0  0  0  0  0  0  0  0  0  0
  190.8690  177.1690  147.1070 O   0  0  0  0  0  0  0  0  0  0  0  0
  191.7950  174.6540  141.5610 C   0  0  0  0  0  1  0  0  0  0  0  0
  186.4410  176.9650  146.5710 C   0  0  0  0  0  3  0  0  0  0  0  0
  190.5290  172.9390  142.8240 C   0  0  1  0  0  3  0  0  0  0  0  0
  188.9660  177.8950  143.3120 N   0  0  0  0  0  2  0  0  0  0  0  0
  191.1660  175.1320  148.4550 O   0  0  0  0  0  0  0  0  0  0  0  0
  191.2460  175.7140  147.0720 S   0  0  0  0  0  0  0  0  0  0  0  0
  193.0930  174.7980  145.2760 C   0  0  0  0  0  0  0  0  0  0  0  0
  190.1630  174.8070  145.9920 C   0  0  2  0  0  3  0  0  0  0  0  0
  186.6930  176.7060  140.9820 O   0  0  0  0  0  0  0  0  0  0  0  0
  189.1470  174.6620  143.8390 N   0  0  2  0  0  0  0  0  0  0  0  0
  192.1880  174.0340  144.7370 N   0  0  0  0  0  0  0  0  0  0  0  0
  192.8450  175.5400  146.4670 N   0  0  0  0  0  2  0  0  0  0  0  0
  187.8130  176.6520  141.5520 C   0  0  0  0  0  0  0  0  0  0  0  0
  188.4270  176.5080  145.2490 C   0  0  0  0  0  0  0  0  0  0  0  0
  190.4190  174.0910  141.8550 C   0  0  1  0  0  3  0  0  0  0  0  0
  194.4050  174.9490  144.5960 C   0  0  0  0  0  1  0  0  0  0  0  0
  188.4170  175.3980  141.7230 O   0  0  0  0  0  0  0  0  0  0  0  0
  187.5680  176.1800  146.3100 C   0  0  0  0  0  3  0  0  0  0  0  0
  186.9850  178.3800  144.6830 C   0  0  0  0  0  3  0  0  0  0  0  0
  186.1490  178.0630  145.7580 C   0  0  0  0  0  3  0  0  0  0  0  0
  188.4640  177.9480  141.9490 C   0  0  0  0  0  2  0  0  0  0  0  0
  189.8820  173.4210  144.1110 C   0  0  2  0  0  3  0  0  0  0  0  0
  189.5680  175.1550  142.5260 C   0  0  1  0  0  3  0  0  0  0  0  0
  190.8600  173.6750  145.2680 C   0  0  2  0  0  3  0  0  0  0  0  0
  189.7510  171.7540  142.2860 C   0  0  0  0  0  1  0  0  0  0  0  0
  189.5750  175.6190  144.8580 C   0  0  1  0  0  3  0  0  0  0  0  0
  1 21  2  0  0  0  0
  1 16  1  0  0  0  0
  3 17  1  0  0  0  0
  5 27  1  6  0  0  0
  5 24  1  0  0  0  0
  6  1  1  0  0  0  0
  8  2  2  0  0  0  0
  8  7  2  0  0  0  0
  9 14  1  0  0  0  0
 10  8  1  6  0  0  0
 11 15  2  0  0  0  0
 12 24  1  0  0  0  0
 12 28  1  0  0  0  0
 13 26  1  0  0  0  0
 13  9  2  0  0  0  0
 14  8  1  0  0  0  0
 15 19  1  0  0  0  0
 15 23  1  0  0  0  0
 16 20  2  0  0  0  0
 17 25  1  0  0  0  0
 17  5  1  0  0  0  0
 18  9  1  0  0  0  0
 19 25  1  0  0  0  0
 20  4  1  0  0  0  0
 21 22  1  0  0  0  0
 22  4  2  0  0  0  0
 23  6  1  0  0  0  0
 24 26  1  0  0  0  0
 25 12  1  0  0  0  0
 26 10  1  0  0  0  0
 28 16  1  0  0  0  0
 28 10  1  0  0  0  0
M  END
>  <MODEL>
1

>  <REMARK>
 VINA RESULT:      -8.2      0.000      0.000
  Name = 
  0 active torsions:
  status: ('A' for Active; 'I' for Inactive)
                            x       y       z     vdW  Elec       q    Type
                         _______ _______ _______ _____ _____    ______ ____

>  <TORSDO>
F 0

$$$$
=
 OpenBabel11112417413D

 28 32  0  0  1  0  0  0  0  0999 V2000
  185.8310  177.3350  144.5720 C   0  0  0  0  0  0  0  0  0  0  0  0
  186.9200  174.6640  142.0130 O   0  0  0  0  0  0  0  0  0  0  0  0
  189.4930  174.5410  147.6080 C   0  0  0  0  0  1  0  0  0  0  0  0
  186.1090  179.0410  142.3730 C   0  0  0  0  0  3  0  0  0  0  0  0
  190.8970  176.1140  146.3060 C   0  0  1  0  0  3  0  0  0  0  0  0
  185.7240  176.4950  145.7230 N   0  0  0  0  0  2  0  0  0  0  0  0
  188.9910  174.7860  140.6910 O   0  0  0  0  0  0  0  0  0  0  0  0
  188.4210  174.6280  142.0720 S   0  0  0  0  0  0  0  0  0  0  0  0
  189.7030  173.1060  143.9460 C   0  0  0  0  0  0  0  0  0  0  0  0
  189.0430  175.9280  143.1140 C   0  0  2  0  0  3  0  0  0  0  0  0
  186.3330  179.0640  147.9690 O   0  0  0  0  0  0  0  0  0  0  0  0
  188.9220  177.0310  145.2250 N   0  0  2  0  0  0  0  0  0  0  0  0
  190.2350  174.1790  144.4530 N   0  0  0  0  0  0  0  0  0  0  0  0
  188.9420  173.1340  142.7420 N   0  0  0  0  0  2  0  0  0  0  0  0
  186.6470  177.9650  147.4440 C   0  0  0  0  0  0  0  0  0  0  0  0
  186.9830  177.2610  143.7760 C   0  0  0  0  0  0  0  0  0  0  0  0
  189.7350  175.9960  147.2620 C   0  0  1  0  0  3  0  0  0  0  0  0
  189.8420  171.8200  144.6770 C   0  0  0  0  0  1  0  0  0  0  0  0
  188.0080  177.6540  147.3060 O   0  0  0  0  0  0  0  0  0  0  0  0
  187.1240  178.1310  142.6830 C   0  0  0  0  0  3  0  0  0  0  0  0
  184.8250  178.2610  144.2710 C   0  0  0  0  0  3  0  0  0  0  0  0
  184.9610  179.1060  143.1660 C   0  0  0  0  0  3  0  0  0  0  0  0
  185.5390  177.0220  147.0650 C   0  0  0  0  0  2  0  0  0  0  0  0
  190.3010  176.5860  144.9910 C   0  0  2  0  0  3  0  0  0  0  0  0
  188.5170  176.5580  146.5510 C   0  0  1  0  0  3  0  0  0  0  0  0
  190.2930  175.5330  143.8720 C   0  0  2  0  0  3  0  0  0  0  0  0
  191.8670  177.1600  146.8190 C   0  0  0  0  0  1  0  0  0  0  0  0
  188.1030  176.3590  144.2180 C   0  0  1  0  0  3  0  0  0  0  0  0
  1  6  1  0  0  0  0
  2  8  2  0  0  0  0
  4 20  2  0  0  0  0
  4 22  1  0  0  0  0
  5 27  1  1  0  0  0
  5 17  1  0  0  0  0
  6 23  1  0  0  0  0
  7  8  2  0  0  0  0
  8 14  1  0  0  0  0
  9 13  2  0  0  0  0
  9 18  1  0  0  0  0
 10  8  1  1  0  0  0
 10 26  1  0  0  0  0
 10 28  1  0  0  0  0
 12 25  1  0  0  0  0
 14  9  1  0  0  0  0
 15 11  2  0  0  0  0
 16 28  1  0  0  0  0
 16  1  2  0  0  0  0
 17  3  1  0  0  0  0
 19 15  1  0  0  0  0
 20 16  1  0  0  0  0
 21  1  1  0  0  0  0
 22 21  2  0  0  0  0
 23 15  1  0  0  0  0
 24 12  1  0  0  0  0
 24  5  1  0  0  0  0
 25 17  1  0  0  0  0
 25 19  1  0  0  0  0
 26 13  1  0  0  0  0
 26 24  1  0  0  0  0
 28 12  1  0  0  0  0
M  END
>  <MODEL>
2

>  <REMARK>
 VINA RESULT:      -8.0      2.382      4.957
  Name = 
  0 active torsions:
  status: ('A' for Active; 'I' for Inactive)
                            x       y       z     vdW  Elec       q    Type
                         _______ _______ _______ _____ _____    ______ ____

>  <TORSDO>
F 0

$$$$
=
 OpenBabel11112417413D

 28 32  0  0  1  0  0  0  0  0999 V2000
  188.6250  175.7730  145.6770 C   0  0  0  0  0  0  0  0  0  0  0  0
  187.8060  173.8770  142.4210 O   0  0  0  0  0  0  0  0  0  0  0  0
  193.3390  172.9920  144.9800 C   0  0  0  0  0  1  0  0  0  0  0  0
  187.4740  177.9160  144.2960 C   0  0  0  0  0  3  0  0  0  0  0  0
  193.6250  174.9900  143.5420 C   0  0  1  0  0  3  0  0  0  0  0  0
  189.2590  174.7080  146.3890 N   0  0  0  0  0  2  0  0  0  0  0  0
  188.5740  174.5740  140.1900 O   0  0  0  0  0  0  0  0  0  0  0  0
  189.0050  174.0530  141.5310 S   0  0  0  0  0  0  0  0  0  0  0  0
  191.1610  172.3860  141.7560 C   0  0  0  0  0  0  0  0  0  0  0  0
  190.1660  175.1890  142.2540 C   0  0  2  0  0  3  0  0  0  0  0  0
  191.1910  176.8230  148.3390 O   0  0  0  0  0  0  0  0  0  0  0  0
  191.4270  175.8050  144.1830 N   0  0  2  0  0  0  0  0  0  0  0  0
  191.9090  173.4000  142.0780 N   0  0  0  0  0  0  0  0  0  0  0  0
  189.8100  172.5480  141.3320 N   0  0  0  0  0  2  0  0  0  0  0  0
  191.0860  175.9150  147.4770 C   0  0  0  0  0  0  0  0  0  0  0  0
  189.0110  176.0360  144.3550 C   0  0  0  0  0  0  0  0  0  0  0  0
  193.3300  174.5070  144.9420 C   0  0  1  0  0  3  0  0  0  0  0  0
  191.7110  171.0140  141.8900 C   0  0  0  0  0  1  0  0  0  0  0  0
  192.0460  175.8450  146.4570 O   0  0  0  0  0  0  0  0  0  0  0  0
  188.4420  177.1230  143.6720 C   0  0  0  0  0  3  0  0  0  0  0  0
  187.6710  176.5810  146.3060 C   0  0  0  0  0  3  0  0  0  0  0  0
  187.0890  177.6460  145.6110 C   0  0  0  0  0  3  0  0  0  0  0  0
  189.9740  174.9160  147.6380 C   0  0  0  0  0  2  0  0  0  0  0  0
  192.3380  175.6280  143.0470 C   0  0  2  0  0  3  0  0  0  0  0  0
  191.9450  175.0150  145.3030 C   0  0  1  0  0  3  0  0  0  0  0  0
  191.6070  174.8380  141.9510 C   0  0  2  0  0  3  0  0  0  0  0  0
  194.7160  176.0410  143.5920 C   0  0  0  0  0  1  0  0  0  0  0  0
  190.1440  175.2400  143.7670 C   0  0  1  0  0  3  0  0  0  0  0  0
  1 21  1  0  0  0  0
  1  6  1  0  0  0  0
  4 22  1  0  0  0  0
  5 27  1  1  0  0  0
  5 17  1  0  0  0  0
  6 23  1  0  0  0  0
  7  8  2  0  0  0  0
  8  2  2  0  0  0  0
  9 18  1  0  0  0  0
  9 13  2  0  0  0  0
 10  8  1  1  0  0  0
 10 28  1  0  0  0  0
 12 25  1  0  0  0  0
 14  8  1  0  0  0  0
 14  9  1  0  0  0  0
 15 23  1  0  0  0  0
 15 11  2  0  0  0  0
 16  1  2  0  0  0  0
 17  3  1  0  0  0  0
 17 25  1  0  0  0  0
 19 15  1  0  0  0  0
 20  4  2  0  0  0  0
 20 16  1  0  0  0  0
 22 21  2  0  0  0  0
 24  5  1  0  0  0  0
 24 12  1  0  0  0  0
 25 19  1  0  0  0  0
 26 13  1  0  0  0  0
 26 10  1  0  0  0  0
 26 24  1  0  0  0  0
 28 12  1  0  0  0  0
 28 16  1  0  0  0  0
M  END
>  <MODEL>
3

>  <REMARK>
 VINA RESULT:      -7.6      2.034      4.872
  Name = 
  0 active torsions:
  status: ('A' for Active; 'I' for Inactive)
                            x       y       z     vdW  Elec       q    Type
                         _______ _______ _______ _____ _____    ______ ____

>  <TORSDO>
F 0

$$$$
=
 OpenBabel11112417413D

 28 32  0  0  1  0  0  0  0  0999 V2000
  194.4560  174.1850  144.4770 C   0  0  0  0  0  0  0  0  0  0  0  0
  192.6630  171.9890  141.8630 O   0  0  0  0  0  0  0  0  0  0  0  0
  189.7430  177.0010  143.9350 C   0  0  0  0  0  1  0  0  0  0  0  0
  195.0530  171.7040  145.6240 C   0  0  0  0  0  3  0  0  0  0  0  0
  189.1740  175.2240  145.5660 C   0  0  1  0  0  3  0  0  0  0  0  0
  194.1280  175.4670  143.9390 N   0  0  0  0  0  2  0  0  0  0  0  0
  190.9260  170.3350  142.4110 O   0  0  0  0  0  0  0  0  0  0  0  0
  191.2640  171.7990  142.3780 S   0  0  0  0  0  0  0  0  0  0  0  0
  189.3320  173.6680  141.8790 C   0  0  0  0  0  0  0  0  0  0  0  0
  191.0960  172.4750  144.0140 C   0  0  2  0  0  3  0  0  0  0  0  0
  194.3500  177.0890  146.9940 O   0  0  0  0  0  0  0  0  0  0  0  0
  191.4380  174.3490  145.4500 N   0  0  2  0  0  0  0  0  0  0  0  0
  189.2090  173.8810  143.1560 N   0  0  0  0  0  0  0  0  0  0  0  0
  190.1510  172.6240  141.3600 N   0  0  0  0  0  2  0  0  0  0  0  0
  193.6870  176.7210  145.9900 C   0  0  0  0  0  0  0  0  0  0  0  0
  193.4410  173.2310  144.6400 C   0  0  0  0  0  0  0  0  0  0  0  0
  190.1110  176.3690  145.2630 C   0  0  1  0  0  3  0  0  0  0  0  0
  188.6460  174.5800  140.9280 C   0  0  0  0  0  1  0  0  0  0  0  0
  192.3300  176.4110  146.1610 O   0  0  0  0  0  0  0  0  0  0  0  0
  193.7430  171.9940  145.2310 C   0  0  0  0  0  3  0  0  0  0  0  0
  195.7630  173.8990  144.8920 C   0  0  0  0  0  3  0  0  0  0  0  0
  196.0620  172.6560  145.4550 C   0  0  0  0  0  3  0  0  0  0  0  0
  194.3790  176.7070  144.6550 C   0  0  0  0  0  2  0  0  0  0  0  0
  190.0220  173.9670  145.4840 C   0  0  2  0  0  3  0  0  0  0  0  0
  191.5100  175.7870  145.1780 C   0  0  1  0  0  3  0  0  0  0  0  0
  189.7270  173.0690  144.2730 C   0  0  2  0  0  3  0  0  0  0  0  0
  188.6370  175.3740  146.9750 C   0  0  0  0  0  1  0  0  0  0  0  0
  192.0260  173.6290  144.3210 C   0  0  1  0  0  3  0  0  0  0  0  0
  1 16  2  0  0  0  0
  1 21  1  0  0  0  0
  2  8  2  0  0  0  0
  3 17  1  0  0  0  0
  5 27  1  1  0  0  0
  6  1  1  0  0  0  0
  6 23  1  0  0  0  0
  8  7  2  0  0  0  0
  9 13  2  0  0  0  0
 10  8  1  6  0  0  0
 10 26  1  0  0  0  0
 10 28  1  0  0  0  0
 12 24  1  0  0  0  0
 13 26  1  0  0  0  0
 14  9  1  0  0  0  0
 14  8  1  0  0  0  0
 15 19  1  0  0  0  0
 15 11  2  0  0  0  0
 16 20  1  0  0  0  0
 17  5  1  0  0  0  0
 18  9  1  0  0  0  0
 20  4  2  0  0  0  0
 21 22  2  0  0  0  0
 22  4  1  0  0  0  0
 23 15  1  0  0  0  0
 24  5  1  0  0  0  0
 25 17  1  0  0  0  0
 25 12  1  0  0  0  0
 25 19  1  0  0  0  0
 26 24  1  0  0  0  0
 28 16  1  0  0  0  0
 28 12  1  0  0  0  0
M  END
>  <MODEL>
4

>  <REMARK>
 VINA RESULT:      -7.3      2.903      6.390
  Name = 
  0 active torsions:
  status: ('A' for Active; 'I' for Inactive)
                            x       y       z     vdW  Elec       q    Type
                         _______ _______ _______ _____ _____    ______ ____

>  <TORSDO>
F 0

$$$$
=
 OpenBabel11112417413D

 28 32  0  0  1  0  0  0  0  0999 V2000
  190.7870  173.0320  144.2990 C   0  0  0  0  0  0  0  0  0  0  0  0
  190.2050  174.9010  147.6210 O   0  0  0  0  0  0  0  0  0  0  0  0
  186.3260  175.9900  142.9620 C   0  0  0  0  0  1  0  0  0  0  0  0
  193.4490  173.7410  144.7810 C   0  0  0  0  0  3  0  0  0  0  0  0
  188.2010  177.5690  142.6000 C   0  0  1  0  0  3  0  0  0  0  0  0
  189.4290  172.6950  144.0040 N   0  0  0  0  0  2  0  0  0  0  0  0
  190.8980  177.2250  148.0340 O   0  0  0  0  0  0  0  0  0  0  0  0
  189.9740  176.3380  147.2480 S   0  0  0  0  0  0  0  0  0  0  0  0
  187.4840  177.2050  146.5240 C   0  0  0  0  0  0  0  0  0  0  0  0
  190.2580  176.5920  145.5110 C   0  0  2  0  0  3  0  0  0  0  0  0
  189.9420  172.5510  140.5800 O   0  0  0  0  0  0  0  0  0  0  0  0
  189.8020  175.8740  143.2830 N   0  0  2  0  0  0  0  0  0  0  0  0
  187.9380  177.5210  145.3460 N   0  0  0  0  0  0  0  0  0  0  0  0
  188.3440  176.7710  147.5750 N   0  0  0  0  0  2  0  0  0  0  0  0
  189.3870  173.0580  141.5880 C   0  0  0  0  0  0  0  0  0  0  0  0
  191.1010  174.3490  144.6630 C   0  0  0  0  0  0  0  0  0  0  0  0
  187.6400  176.2140  142.2400 C   0  0  1  0  0  3  0  0  0  0  0  0
  186.0190  177.2400  146.7640 C   0  0  0  0  0  1  0  0  0  0  0  0
  189.0830  174.4270  141.5660 O   0  0  0  0  0  0  0  0  0  0  0  0
  192.4410  174.7030  144.8880 C   0  0  0  0  0  3  0  0  0  0  0  0
  191.8020  172.0760  144.1720 C   0  0  0  0  0  3  0  0  0  0  0  0
  193.1300  172.4290  144.4220 C   0  0  0  0  0  3  0  0  0  0  0  0
  189.0180  172.1440  142.7230 C   0  0  0  0  0  2  0  0  0  0  0  0
  189.4530  177.2930  143.4130 C   0  0  2  0  0  3  0  0  0  0  0  0
  188.6530  175.1800  142.6970 C   0  0  1  0  0  3  0  0  0  0  0  0
  189.3410  177.6350  144.9070 C   0  0  2  0  0  3  0  0  0  0  0  0
  188.5800  178.3090  141.3320 C   0  0  0  0  0  1  0  0  0  0  0  0
  190.0040  175.3780  144.6430 C   0  0  1  0  0  3  0  0  0  0  0  0
  1 16  1  0  0  0  0
  4 20  1  0  0  0  0
  5 27  1  6  0  0  0
  5 24  1  0  0  0  0
  6  1  1  0  0  0  0
  8 14  1  0  0  0  0
  8  2  2  0  0  0  0
  8  7  2  0  0  0  0
  9 18  1  0  0  0  0
  9 14  1  0  0  0  0
 10  8  1  1  0  0  0
 11 15  2  0  0  0  0
 12 24  1  0  0  0  0
 12 28  1  0  0  0  0
 13  9  2  0  0  0  0
 15 23  1  0  0  0  0
 16 20  2  0  0  0  0
 17  5  1  0  0  0  0
 17 25  1  0  0  0  0
 17  3  1  0  0  0  0
 19 15  1  0  0  0  0
 19 25  1  0  0  0  0
 21  1  2  0  0  0  0
 21 22  1  0  0  0  0
 22  4  2  0  0  0  0
 23  6  1  0  0  0  0
 24 26  1  0  0  0  0
 25 12  1  0  0  0  0
 26 13  1  0  0  0  0
 26 10  1  0  0  0  0
 28 16  1  0  0  0  0
 28 10  1  0  0  0  0
M  END
>  <MODEL>
5

>  <REMARK>
 VINA RESULT:      -7.2      1.781      5.097
  Name = 
  0 active torsions:
  status: ('A' for Active; 'I' for Inactive)
                            x       y       z     vdW  Elec       q    Type
                         _______ _______ _______ _____ _____    ______ ____

>  <TORSDO>
F 0

$$$$
=
 OpenBabel11112417413D

 28 32  0  0  1  0  0  0  0  0999 V2000
  193.0420  173.6070  142.9520 C   0  0  0  0  0  0  0  0  0  0  0  0
  189.7530  173.2090  140.9790 O   0  0  0  0  0  0  0  0  0  0  0  0
  190.8030  178.5750  143.8150 C   0  0  0  0  0  1  0  0  0  0  0  0
  192.3810  171.0510  143.8740 C   0  0  0  0  0  3  0  0  0  0  0  0
  189.7400  177.1500  145.5410 C   0  0  1  0  0  3  0  0  0  0  0  0
  193.3820  174.9310  142.5320 N   0  0  0  0  0  2  0  0  0  0  0  0
  187.5790  172.7000  142.0130 O   0  0  0  0  0  0  0  0  0  0  0  0
  188.6680  173.7270  141.8810 S   0  0  0  0  0  0  0  0  0  0  0  0
  188.0890  176.3970  141.9700 C   0  0  0  0  0  0  0  0  0  0  0  0
  189.3160  174.1020  143.4940 C   0  0  2  0  0  3  0  0  0  0  0  0
  195.2160  175.6370  145.3870 O   0  0  0  0  0  0  0  0  0  0  0  0
  190.9960  175.2200  144.7660 N   0  0  2  0  0  0  0  0  0  0  0  0
  188.4220  176.4260  143.2270 N   0  0  0  0  0  0  0  0  0  0  0  0
  188.0160  175.1790  141.2350 N   0  0  0  0  0  2  0  0  0  0  0  0
  194.2430  175.8610  144.6220 C   0  0  0  0  0  0  0  0  0  0  0  0
  191.7410  173.3460  143.4050 C   0  0  0  0  0  0  0  0  0  0  0  0
  191.0540  177.6350  144.9760 C   0  0  1  0  0  3  0  0  0  0  0  0
  187.8370  177.6780  141.2630 C   0  0  0  0  0  1  0  0  0  0  0  0
  193.0400  176.3150  145.1840 O   0  0  0  0  0  0  0  0  0  0  0  0
  191.4190  172.0660  143.8820 C   0  0  0  0  0  3  0  0  0  0  0  0
  194.0080  172.5940  142.9640 C   0  0  0  0  0  3  0  0  0  0  0  0
  193.6740  171.3150  143.4160 C   0  0  0  0  0  3  0  0  0  0  0  0
  194.4570  175.6960  143.1430 C   0  0  0  0  0  2  0  0  0  0  0  0
  189.6730  175.6690  145.2140 C   0  0  2  0  0  3  0  0  0  0  0  0
  191.8030  176.4090  144.4840 C   0  0  1  0  0  3  0  0  0  0  0  0
  188.6380  175.2910  144.1430 C   0  0  2  0  0  3  0  0  0  0  0  0
  189.7430  177.3310  147.0460 C   0  0  0  0  0  1  0  0  0  0  0  0
  190.7770  174.4960  143.5150 C   0  0  1  0  0  3  0  0  0  0  0  0
  1 21  2  0  0  0  0
  1 16  1  0  0  0  0
  2  8  2  0  0  0  0
  3 17  1  0  0  0  0
  4 20  1  0  0  0  0
  5 27  1  1  0  0  0
  6  1  1  0  0  0  0
  6 23  1  0  0  0  0
  8  7  2  0  0  0  0
  9 13  2  0  0  0  0
 10  8  1  6  0  0  0
 10 28  1  0  0  0  0
 10 26  1  0  0  0  0
 12 24  1  0  0  0  0
 13 26  1  0  0  0  0
 14  8  1  0  0  0  0
 14  9  1  0  0  0  0
 15 19  1  0  0  0  0
 15 11  2  0  0  0  0
 16 28  1  0  0  0  0
 16 20  2  0  0  0  0
 17  5  1  0  0  0  0
 18  9  1  0  0  0  0
 21 22  1  0  0  0  0
 22  4  2  0  0  0  0
 23 15  1  0  0  0  0
 24  5  1  0  0  0  0
 25 12  1  0  0  0  0
 25 17  1  0  0  0  0
 25 19  1  0  0  0  0
 26 24  1  0  0  0  0
 28 12  1  0  0  0  0
M  END
>  <MODEL>
6

>  <REMARK>
 VINA RESULT:      -6.9      2.555      6.315
  Name = 
  0 active torsions:
  status: ('A' for Active; 'I' for Inactive)
                            x       y       z     vdW  Elec       q    Type
                         _______ _______ _______ _____ _____    ______ ____

>  <TORSDO>
F 0

$$$$
=
 OpenBabel11112417413D

 28 32  0  0  1  0  0  0  0  0999 V2000
  189.1610  175.7630  143.7600 C   0  0  0  0  0  0  0  0  0  0  0  0
  192.3970  177.5140  144.9110 O   0  0  0  0  0  0  0  0  0  0  0  0
  192.9070  172.6320  141.1900 C   0  0  0  0  0  1  0  0  0  0  0  0
  188.4700  176.0530  146.4550 C   0  0  0  0  0  3  0  0  0  0  0  0
  192.8170  171.6740  143.4730 C   0  0  1  0  0  3  0  0  0  0  0  0
  189.5060  175.5610  142.3880 N   0  0  0  0  0  2  0  0  0  0  0  0
  193.8310  176.6990  146.7370 O   0  0  0  0  0  0  0  0  0  0  0  0
  193.3240  176.4160  145.3510 S   0  0  0  0  0  0  0  0  0  0  0  0
  194.8870  175.1020  143.5320 C   0  0  0  0  0  0  0  0  0  0  0  0
  192.4890  174.8460  145.3430 C   0  0  2  0  0  3  0  0  0  0  0  0
  187.4410  172.8020  142.0130 O   0  0  0  0  0  0  0  0  0  0  0  0
  191.1360  173.3050  144.1250 N   0  0  2  0  0  0  0  0  0  0  0  0
  194.2810  173.9880  143.8180 N   0  0  0  0  0  0  0  0  0  0  0  0
  194.6500  176.3020  144.2650 N   0  0  0  0  0  2  0  0  0  0  0  0
  188.5840  173.3280  142.0140 C   0  0  0  0  0  0  0  0  0  0  0  0
  190.0790  175.4030  144.7560 C   0  0  0  0  0  0  0  0  0  0  0  0
  192.0060  172.0340  142.2520 C   0  0  1  0  0  3  0  0  0  0  0  0
  195.8090  175.1430  142.3690 C   0  0  0  0  0  1  0  0  0  0  0  0
  189.6760  172.5550  142.4340 O   0  0  0  0  0  0  0  0  0  0  0  0
  189.7210  175.5350  146.1070 C   0  0  0  0  0  3  0  0  0  0  0  0
  187.9010  176.2620  144.1110 C   0  0  0  0  0  3  0  0  0  0  0  0
  187.5610  176.4160  145.4580 C   0  0  0  0  0  3  0  0  0  0  0  0
  188.7130  174.7330  141.4940 C   0  0  0  0  0  2  0  0  0  0  0  0
  192.3620  172.6280  144.5640 C   0  0  2  0  0  3  0  0  0  0  0  0
  190.9810  173.0660  142.6880 C   0  0  1  0  0  3  0  0  0  0  0  0
  193.3950  173.6940  144.9600 C   0  0  2  0  0  3  0  0  0  0  0  0
  192.4970  170.2520  143.8880 C   0  0  0  0  0  1  0  0  0  0  0  0
  191.3610  174.7330  144.3410 C   0  0  1  0  0  3  0  0  0  0  0  0
  1 21  2  0  0  0  0
  1 16  1  0  0  0  0
  2  8  2  0  0  0  0
  3 17  1  0  0  0  0
  5 27  1  1  0  0  0
  5 24  1  0  0  0  0
  6  1  1  0  0  0  0
  8  7  2  0  0  0  0
  9 13  2  0  0  0  0
  9 14  1  0  0  0  0
 10  8  1  6  0  0  0
 11 15  2  0  0  0  0
 12 28  1  0  0  0  0
 12 24  1  0  0  0  0
 13 26  1  0  0  0  0
 14  8  1  0  0  0  0
 15 19  1  0  0  0  0
 16 20  2  0  0  0  0
 17 25  1  0  0  0  0
 17  5  1  0  0  0  0
 18  9  1  0  0  0  0
 19 25  1  0  0  0  0
 20  4  1  0  0  0  0
 21 22  1  0  0  0  0
 22  4  2  0  0  0  0
 23 15  1  0  0  0  0
 23  6  1  0  0  0  0
 24 26  1  0  0  0  0
 25 12  1  0  0  0  0
 26 10  1  0  0  0  0
 28 16  1  0  0  0  0
 28 10  1  0  0  0  0
M  END
>  <MODEL>
7

>  <REMARK>
 VINA RESULT:      -6.8      2.082      2.728
  Name = 
  0 active torsions:
  status: ('A' for Active; 'I' for Inactive)
                            x       y       z     vdW  Elec       q    Type
                         _______ _______ _______ _____ _____    ______ ____

>  <TORSDO>
F 0

$$$$
=
 OpenBabel11112417413D

 28 32  0  0  1  0  0  0  0  0999 V2000
  186.3930  178.3970  145.4960 C   0  0  0  0  0  0  0  0  0  0  0  0
  189.8730  177.9940  147.1060 O   0  0  0  0  0  0  0  0  0  0  0  0
  189.1930  176.3340  141.2130 C   0  0  0  0  0  1  0  0  0  0  0  0
  185.5400  177.2760  147.9130 C   0  0  0  0  0  3  0  0  0  0  0  0
  188.5490  174.3230  142.5100 C   0  0  1  0  0  3  0  0  0  0  0  0
  186.8030  178.9300  144.2350 N   0  0  0  0  0  2  0  0  0  0  0  0
  190.7590  175.8620  147.9570 O   0  0  0  0  0  0  0  0  0  0  0  0
  190.3430  176.6170  146.7270 S   0  0  0  0  0  0  0  0  0  0  0  0
  191.5910  176.1840  144.3330 C   0  0  0  0  0  0  0  0  0  0  0  0
  189.0550  175.7170  145.8960 C   0  0  2  0  0  3  0  0  0  0  0  0
  184.0160  177.7510  142.5450 O   0  0  0  0  0  0  0  0  0  0  0  0
  187.4210  175.7080  144.1580 N   0  0  2  0  0  0  0  0  0  0  0  0
  190.6320  175.3800  143.9790 N   0  0  0  0  0  0  0  0  0  0  0  0
  191.6740  176.7330  145.6460 N   0  0  0  0  0  2  0  0  0  0  0  0
  185.2600  177.7750  142.7320 C   0  0  0  0  0  0  0  0  0  0  0  0
  187.0320  177.2530  145.9960 C   0  0  0  0  0  0  0  0  0  0  0  0
  188.0370  175.5630  141.8170 C   0  0  1  0  0  3  0  0  0  0  0  0
  192.5990  176.5910  143.3210 C   0  0  0  0  0  1  0  0  0  0  0  0
  185.9930  176.6000  142.5090 O   0  0  0  0  0  0  0  0  0  0  0  0
  186.5890  176.6850  147.2010 C   0  0  0  0  0  3  0  0  0  0  0  0
  185.3300  178.9740  146.2010 C   0  0  0  0  0  3  0  0  0  0  0  0
  184.9110  178.4180  147.4130 C   0  0  0  0  0  3  0  0  0  0  0  0
  185.8900  179.0850  143.1150 C   0  0  0  0  0  2  0  0  0  0  0  0
  188.3080  174.5520  143.9920 C   0  0  2  0  0  3  0  0  0  0  0  0
  187.3570  176.4130  142.8750 C   0  0  1  0  0  3  0  0  0  0  0  0
  189.5790  174.7860  144.8230 C   0  0  2  0  0  3  0  0  0  0  0  0
  187.7460  173.1220  142.0520 C   0  0  0  0  0  1  0  0  0  0  0  0
  188.0680  176.5790  145.1380 C   0  0  1  0  0  3  0  0  0  0  0  0
  1 16  2  0  0  0  0
  1 21  1  0  0  0  0
  3 17  1  0  0  0  0
  5 27  1  6  0  0  0
  5 24  1  0  0  0  0
  6  1  1  0  0  0  0
  8  2  2  0  0  0  0
  8  7  2  0  0  0  0
  9 14  1  0  0  0  0
 10  8  1  6  0  0  0
 11 15  2  0  0  0  0
 12 28  1  0  0  0  0
 13  9  2  0  0  0  0
 13 26  1  0  0  0  0
 14  8  1  0  0  0  0
 15 23  1  0  0  0  0
 16 20  1  0  0  0  0
 17  5  1  0  0  0  0
 17 25  1  0  0  0  0
 18  9  1  0  0  0  0
 19 15  1  0  0  0  0
 19 25  1  0  0  0  0
 20  4  2  0  0  0  0
 21 22  2  0  0  0  0
 22  4  1  0  0  0  0
 23  6  1  0  0  0  0
 24 12  1  0  0  0  0
 24 26  1  0  0  0  0
 25 12  1  0  0  0  0
 26 10  1  0  0  0  0
 28 10  1  0  0  0  0
 28 16  1  0  0  0  0
M  END
>  <MODEL>
8

>  <REMARK>
 VINA RESULT:      -6.8      1.777      2.265
  Name = 
  0 active torsions:
  status: ('A' for Active; 'I' for Inactive)
                            x       y       z     vdW  Elec       q    Type
                         _______ _______ _______ _____ _____    ______ ____

>  <TORSDO>
F 0

$$$$
=
 OpenBabel11112417413D

 28 32  0  0  1  0  0  0  0  0999 V2000
  189.7040  176.0610  144.3950 C   0  0  0  0  0  0  0  0  0  0  0  0
  193.2380  177.1650  145.4710 O   0  0  0  0  0  0  0  0  0  0  0  0
  192.6370  174.1660  140.1240 C   0  0  0  0  0  1  0  0  0  0  0  0
  189.5290  175.2620  147.0700 C   0  0  0  0  0  3  0  0  0  0  0  0
  192.8650  172.3780  141.8250 C   0  0  1  0  0  3  0  0  0  0  0  0
  189.7810  176.4180  143.0130 N   0  0  0  0  0  2  0  0  0  0  0  0
  194.8910  175.6710  146.5130 O   0  0  0  0  0  0  0  0  0  0  0  0
  194.1240  175.9700  145.2560 S   0  0  0  0  0  0  0  0  0  0  0  0
  195.2160  175.4710  142.8000 C   0  0  0  0  0  0  0  0  0  0  0  0
  193.1620  174.5450  144.8040 C   0  0  2  0  0  3  0  0  0  0  0  0
  187.4410  174.0650  142.0130 O   0  0  0  0  0  0  0  0  0  0  0  0
  191.4810  173.6350  143.3770 N   0  0  2  0  0  0  0  0  0  0  0  0
  194.5710  174.3430  142.7440 N   0  0  0  0  0  0  0  0  0  0  0  0
  195.2220  176.2820  143.9720 N   0  0  0  0  0  2  0  0  0  0  0  0
  188.6090  174.5320  141.9920 C   0  0  0  0  0  0  0  0  0  0  0  0
  190.7470  175.3210  144.9700 C   0  0  0  0  0  0  0  0  0  0  0  0
  191.8870  173.2060  141.0260 C   0  0  1  0  0  3  0  0  0  0  0  0
  195.9170  175.9600  141.5860 C   0  0  0  0  0  1  0  0  0  0  0  0
  189.6830  173.6410  141.8530 O   0  0  0  0  0  0  0  0  0  0  0  0
  190.6460  174.9090  146.3080 C   0  0  0  0  0  3  0  0  0  0  0  0
  188.5760  176.3950  145.1540 C   0  0  0  0  0  3  0  0  0  0  0  0
  188.4940  176.0030  146.4940 C   0  0  0  0  0  3  0  0  0  0  0  0
  188.7710  176.0260  142.0440 C   0  0  0  0  0  2  0  0  0  0  0  0
  192.6990  172.8240  143.2670 C   0  0  2  0  0  3  0  0  0  0  0  0
  191.0540  173.9920  142.0220 C   0  0  1  0  0  3  0  0  0  0  0  0
  193.8780  173.6300  143.8330 C   0  0  2  0  0  3  0  0  0  0  0  0
  192.4960  170.9120  141.7090 C   0  0  0  0  0  1  0  0  0  0  0  0
  191.8690  174.8560  144.0820 C   0  0  1  0  0  3  0  0  0  0  0  0
  1 16  2  0  0  0  0
  1 21  1  0  0  0  0
  3 17  1  0  0  0  0
  5 27  1  1  0  0  0
  5 24  1  0  0  0  0
  6  1  1  0  0  0  0
  8  2  2  0  0  0  0
  8  7  2  0  0  0  0
  9 14  1  0  0  0  0
 10  8  1  6  0  0  0
 12 28  1  0  0  0  0
 13  9  2  0  0  0  0
 13 26  1  0  0  0  0
 14  8  1  0  0  0  0
 15 11  2  0  0  0  0
 15 23  1  0  0  0  0
 16 20  1  0  0  0  0
 17  5  1  0  0  0  0
 17 25  1  0  0  0  0
 18  9  1  0  0  0  0
 19 15  1  0  0  0  0
 19 25  1  0  0  0  0
 20  4  2  0  0  0  0
 21 22  2  0  0  0  0
 22  4  1  0  0  0  0
 23  6  1  0  0  0  0
 24 12  1  0  0  0  0
 24 26  1  0  0  0  0
 25 12  1  0  0  0  0
 26 10  1  0  0  0  0
 28 10  1  0  0  0  0
 28 16  1  0  0  0  0
M  END
>  <MODEL>
9

>  <REMARK>
 VINA RESULT:      -6.7      2.148      2.872
  Name = 
  0 active torsions:
  status: ('A' for Active; 'I' for Inactive)
                            x       y       z     vdW  Elec       q    Type
                         _______ _______ _______ _____ _____    ______ ____

>  <TORSDO>
F 0

$$$$
