=
 OpenBabel11112416353D

 32 38  0  0  1  0  0  0  0  0999 V2000
  191.6190  173.7090  144.3860 C   0  0  1  0  0  3  0  0  0  0  0  0
  187.7310  176.9900  143.5160 C   0  0  2  0  0  3  0  0  0  0  0  0
  186.4380  178.4350  148.1250 C   0  0  0  0  0  3  0  0  0  0  0  0
  185.2030  178.8630  147.6390 C   0  0  0  0  0  3  0  0  0  0  0  0
  186.4270  177.9220  141.5000 C   0  0  0  0  0  0  0  0  0  0  0  0
  185.0160  177.9850  141.1340 C   0  0  0  0  0  0  0  0  0  0  0  0
  190.1330  176.1300  143.3770 C   0  0  1  0  0  3  0  0  0  0  0  0
  188.9260  176.1870  145.5670 N   0  0  0  0  0  2  0  0  0  0  0  0
  182.8690  178.2180  141.4380 N   0  0  0  0  0  0  0  0  0  0  0  0
  190.7150  174.5040  145.3300 C   0  0  2  0  0  3  0  0  0  0  0  0
  187.3980  177.9330  147.2450 C   0  0  0  0  0  3  0  0  0  0  0  0
  188.2160  177.3230  144.9480 C   0  0  2  0  0  3  0  0  0  0  0  0
  187.1330  177.8410  145.8690 C   0  0  0  0  0  0  0  0  0  0  0  0
  185.6150  178.2550  143.9220 C   0  0  0  0  0  0  0  0  0  0  0  0
  183.1430  178.0350  140.1280 C   0  0  0  0  0  3  0  0  0  0  0  0
  191.2720  173.8860  142.8920 C   0  0  0  0  0  2  0  0  0  0  0  0
  189.6390  175.3360  144.6030 C   0  0  2  0  0  3  0  0  0  0  0  0
  184.4750  177.8890  139.9030 N   0  0  0  0  0  0  0  0  0  0  0  0
  191.0220  175.3260  142.4270 C   0  0  0  0  0  2  0  0  0  0  0  0
  192.1420  174.9700  145.0640 C   0  0  1  0  0  3  0  0  0  0  0  0
  184.9330  178.8000  146.2710 C   0  0  0  0  0  3  0  0  0  0  0  0
  185.8950  178.3050  145.3730 C   0  0  0  0  0  0  0  0  0  0  0  0
  184.3400  178.3150  143.4860 C   0  0  0  0  0  3  0  0  0  0  0  0
  188.9570  176.7480  142.6190 C   0  0  0  0  0  2  0  0  0  0  0  0
  187.3050  177.8190  140.6030 O   0  0  0  0  0  0  0  0  0  0  0  0
  181.5560  178.4010  142.0340 C   0  0  0  0  0  1  0  0  0  0  0  0
  186.8090  178.0930  142.9690 C   0  0  1  0  0  3  0  0  0  0  0  0
  184.0520  178.1890  142.0590 C   0  0  0  0  0  0  0  0  0  0  0  0
  193.0190  174.5810  146.2360 C   0  0  0  0  0  2  0  0  0  0  0  0
  194.1980  175.4880  146.3090 C   0  0  0  0  0  0  0  0  0  0  0  0
  194.0280  176.8470  146.6930 N   0  0  0  0  0  1  0  0  0  0  0  0
  195.3410  175.0610  146.0000 O   0  0  0  0  0  0  0  0  0  0  0  0
  1 16  1  6  0  0  0
  1 20  1  0  0  0  0
  1 10  1  0  0  0  0
  2 24  1  6  0  0  0
  2 12  1  0  0  0  0
  4  3  1  0  0  0  0
  5 27  1  0  0  0  0
  6  5  1  0  0  0  0
  6 28  2  0  0  0  0
  7 19  1  6  0  0  0
  7 17  1  0  0  0  0
  9 26  1  0  0  0  0
  9 28  1  0  0  0  0
 11  3  2  0  0  0  0
 12  8  1  0  0  0  0
 12 13  1  0  0  0  0
 13 11  1  0  0  0  0
 14 22  1  0  0  0  0
 15  9  1  0  0  0  0
 17 10  1  0  0  0  0
 17  8  1  0  0  0  0
 18 15  2  0  0  0  0
 18  6  1  0  0  0  0
 19 16  1  0  0  0  0
 20 10  1  0  0  0  0
 20 29  1  0  0  0  0
 21  4  2  0  0  0  0
 22 13  2  0  0  0  0
 22 21  1  0  0  0  0
 23 14  2  0  0  0  0
 24  7  1  0  0  0  0
 25  5  2  0  0  0  0
 27  2  1  0  0  0  0
 27 14  1  0  0  0  0
 28 23  1  0  0  0  0
 29 30  1  0  0  0  0
 30 31  1  0  0  0  0
 32 30  2  0  0  0  0
M  END
>  <MODEL>
1

>  <REMARK>
 VINA RESULT:      -9.8      0.000      0.000
  Name = 
  2 active torsions:
  status: ('A' for Active; 'I' for Inactive)
    1  A    between atoms: C_20  and  C_29
    2  A    between atoms: C_29  and  C_30
                            x       y       z     vdW  Elec       q    Type
                         _______ _______ _______ _____ _____    ______ ____

>  <TORSDO>
F 2

$$$$
=
 OpenBabel11112416353D

 32 38  0  0  1  0  0  0  0  0999 V2000
  185.4190  179.1670  143.9530 C   0  0  1  0  0  3  0  0  0  0  0  0
  188.9870  175.5590  143.0150 C   0  0  2  0  0  3  0  0  0  0  0  0
  191.5800  175.4160  147.2880 C   0  0  0  0  0  3  0  0  0  0  0  0
  192.6370  174.7980  146.6210 C   0  0  0  0  0  3  0  0  0  0  0  0
  189.6890  174.0180  141.0740 C   0  0  0  0  0  0  0  0  0  0  0  0
  190.9380  173.7730  140.3610 C   0  0  0  0  0  0  0  0  0  0  0  0
  186.6230  176.4790  143.3130 C   0  0  1  0  0  3  0  0  0  0  0  0
  188.4050  176.9800  144.9950 N   0  0  0  0  0  2  0  0  0  0  0  0
  193.0880  173.5150  140.1040 N   0  0  0  0  0  0  0  0  0  0  0  0
  186.5760  178.6250  144.7940 C   0  0  2  0  0  3  0  0  0  0  0  0
  190.3960  175.7000  146.6070 C   0  0  0  0  0  3  0  0  0  0  0  0
  188.9410  175.6750  144.5580 C   0  0  2  0  0  3  0  0  0  0  0  0
  190.2550  175.3810  145.2470 C   0  0  0  0  0  0  0  0  0  0  0  0
  191.1660  174.3440  143.1590 C   0  0  0  0  0  0  0  0  0  0  0  0
  192.4470  173.3320  138.9290 C   0  0  0  0  0  3  0  0  0  0  0  0
  185.3310  178.5530  142.5390 C   0  0  0  0  0  2  0  0  0  0  0  0
  187.4240  177.5600  144.0670 C   0  0  2  0  0  3  0  0  0  0  0  0
  191.1020  173.4840  139.0550 N   0  0  0  0  0  0  0  0  0  0  0  0
  185.4780  177.0280  142.4610 C   0  0  0  0  0  2  0  0  0  0  0  0
  185.1460  178.1840  145.0850 C   0  0  1  0  0  3  0  0  0  0  0  0
  192.5040  174.4530  145.2750 C   0  0  0  0  0  3  0  0  0  0  0  0
  191.3120  174.7250  144.5790 C   0  0  0  0  0  0  0  0  0  0  0  0
  192.2650  174.0890  142.4190 C   0  0  0  0  0  3  0  0  0  0  0  0
  187.5500  175.6050  142.4680 C   0  0  0  0  0  2  0  0  0  0  0  0
  188.5890  173.9110  140.4700 O   0  0  0  0  0  0  0  0  0  0  0  0
  194.5200  173.4350  140.3340 C   0  0  0  0  0  1  0  0  0  0  0  0
  189.7460  174.2950  142.5750 C   0  0  1  0  0  3  0  0  0  0  0  0
  192.1300  173.7870  140.9960 C   0  0  0  0  0  0  0  0  0  0  0  0
  184.6290  178.9400  146.2920 C   0  0  0  0  0  2  0  0  0  0  0  0
  185.5890  178.8070  147.4230 C   0  0  0  0  0  0  0  0  0  0  0  0
  185.9340  177.5170  147.9140 N   0  0  0  0  0  1  0  0  0  0  0  0
  186.0700  179.8350  147.9650 O   0  0  0  0  0  0  0  0  0  0  0  0
  1 16  1  6  0  0  0
  1 10  1  0  0  0  0
  1 20  1  0  0  0  0
  2 24  1  1  0  0  0
  2 12  1  0  0  0  0
  4  3  1  0  0  0  0
  5 27  1  0  0  0  0
  6 28  2  0  0  0  0
  6  5  1  0  0  0  0
  7 19  1  6  0  0  0
  7 17  1  0  0  0  0
  9 26  1  0  0  0  0
  9 28  1  0  0  0  0
 10 20  1  0  0  0  0
 11  3  2  0  0  0  0
 12  8  1  0  0  0  0
 12 13  1  0  0  0  0
 13 11  1  0  0  0  0
 14 22  1  0  0  0  0
 15 18  2  0  0  0  0
 15  9  1  0  0  0  0
 17 10  1  0  0  0  0
 17  8  1  0  0  0  0
 18  6  1  0  0  0  0
 19 16  1  0  0  0  0
 20 29  1  0  0  0  0
 21  4  2  0  0  0  0
 22 13  2  0  0  0  0
 22 21  1  0  0  0  0
 23 14  2  0  0  0  0
 24  7  1  0  0  0  0
 25  5  2  0  0  0  0
 27  2  1  0  0  0  0
 27 14  1  0  0  0  0
 28 23  1  0  0  0  0
 29 30  1  0  0  0  0
 30 31  1  0  0  0  0
 30 32  2  0  0  0  0
M  END
>  <MODEL>
2

>  <REMARK>
 VINA RESULT:      -8.9      2.970      7.363
  Name = 
  2 active torsions:
  status: ('A' for Active; 'I' for Inactive)
    1  A    between atoms: C_20  and  C_29
    2  A    between atoms: C_29  and  C_30
                            x       y       z     vdW  Elec       q    Type
                         _______ _______ _______ _____ _____    ______ ____

>  <TORSDO>
F 2

$$$$
=
 OpenBabel11112416353D

 32 38  0  0  1  0  0  0  0  0999 V2000
  194.9210  176.6010  145.6630 C   0  0  1  0  0  3  0  0  0  0  0  0
  189.8950  176.0520  144.6290 C   0  0  2  0  0  3  0  0  0  0  0  0
  189.9130  173.7800  140.1750 C   0  0  0  0  0  3  0  0  0  0  0  0
  188.5920  174.1800  139.9720 C   0  0  0  0  0  3  0  0  0  0  0  0
  187.6400  176.6400  145.7250 C   0  0  0  0  0  0  0  0  0  0  0  0
  186.4520  177.3710  145.2960 C   0  0  0  0  0  0  0  0  0  0  0  0
  192.0590  175.6970  145.9390 C   0  0  1  0  0  3  0  0  0  0  0  0
  192.0100  175.3980  143.4560 N   0  0  0  0  0  2  0  0  0  0  0  0
  184.8990  178.0560  143.9270 N   0  0  0  0  0  0  0  0  0  0  0  0
  194.1780  176.0250  144.4560 C   0  0  2  0  0  3  0  0  0  0  0  0
  190.5510  174.0690  141.3820 C   0  0  0  0  0  3  0  0  0  0  0  0
  190.6010  175.0330  143.7030 C   0  0  2  0  0  3  0  0  0  0  0  0
  189.8830  174.7720  142.3970 C   0  0  0  0  0  0  0  0  0  0  0  0
  187.8020  175.8510  143.2790 C   0  0  0  0  0  0  0  0  0  0  0  0
  184.6940  178.5610  145.1630 C   0  0  0  0  0  3  0  0  0  0  0  0
  193.9920  177.1680  146.7580 C   0  0  0  0  0  2  0  0  0  0  0  0
  192.6430  176.1140  144.5740 C   0  0  2  0  0  3  0  0  0  0  0  0
  185.6450  178.1510  146.0440 N   0  0  0  0  0  0  0  0  0  0  0  0
  192.7950  176.2890  147.1420 C   0  0  0  0  0  2  0  0  0  0  0  0
  194.8240  175.0920  145.4730 C   0  0  1  0  0  3  0  0  0  0  0  0
  187.9070  174.8580  140.9800 C   0  0  0  0  0  3  0  0  0  0  0  0
  188.5350  175.1480  142.2040 C   0  0  0  0  0  0  0  0  0  0  0  0
  186.6870  176.5480  142.9800 C   0  0  0  0  0  3  0  0  0  0  0  0
  190.5660  176.0160  146.0130 C   0  0  0  0  0  2  0  0  0  0  0  0
  187.9800  176.6500  146.9380 O   0  0  0  0  0  0  0  0  0  0  0  0
  184.0840  178.2910  142.7470 C   0  0  0  0  0  1  0  0  0  0  0  0
  188.3820  175.7850  144.7000 C   0  0  1  0  0  3  0  0  0  0  0  0
  186.0030  177.3080  144.0240 C   0  0  0  0  0  0  0  0  0  0  0  0
  196.1310  174.5720  144.9110 C   0  0  0  0  0  2  0  0  0  0  0  0
  196.6280  173.4430  145.7460 C   0  0  0  0  0  0  0  0  0  0  0  0
  196.4330  172.1010  145.3160 N   0  0  0  0  0  1  0  0  0  0  0  0
  197.1920  173.6750  146.8470 O   0  0  0  0  0  0  0  0  0  0  0  0
  1 16  1  1  0  0  0
  2 27  1  0  0  0  0
  2 24  1  1  0  0  0
  3 11  1  0  0  0  0
  4  3  2  0  0  0  0
  4 21  1  0  0  0  0
  5 25  2  0  0  0  0
  6  5  1  0  0  0  0
  6 18  1  0  0  0  0
  7 24  1  6  0  0  0
  7 19  1  0  0  0  0
  8 12  1  0  0  0  0
  8 17  1  0  0  0  0
  9 28  1  0  0  0  0
  9 15  1  0  0  0  0
 10 17  1  0  0  0  0
 10 20  1  0  0  0  0
 10  1  1  0  0  0  0
 11 13  2  0  0  0  0
 12  2  1  0  0  0  0
 13 12  1  0  0  0  0
 14 27  1  0  0  0  0
 15 18  2  0  0  0  0
 16 19  1  0  0  0  0
 17  7  1  0  0  0  0
 20  1  1  0  0  0  0
 21 22  2  0  0  0  0
 22 13  1  0  0  0  0
 22 14  1  0  0  0  0
 23 14  2  0  0  0  0
 23 28  1  0  0  0  0
 26  9  1  0  0  0  0
 27  5  1  0  0  0  0
 28  6  2  0  0  0  0
 29 20  1  0  0  0  0
 29 30  1  0  0  0  0
 30 32  2  0  0  0  0
 31 30  1  0  0  0  0
M  END
>  <MODEL>
3

>  <REMARK>
 VINA RESULT:      -8.8      2.519      4.976
  Name = 
  2 active torsions:
  status: ('A' for Active; 'I' for Inactive)
    1  A    between atoms: C_20  and  C_29
    2  A    between atoms: C_29  and  C_30
                            x       y       z     vdW  Elec       q    Type
                         _______ _______ _______ _____ _____    ______ ____

>  <TORSDO>
F 2

$$$$
=
 OpenBabel11112416353D

 32 38  0  0  1  0  0  0  0  0999 V2000
  185.6470  178.8240  142.8690 C   0  0  1  0  0  3  0  0  0  0  0  0
  190.0290  176.1310  143.2880 C   0  0  2  0  0  3  0  0  0  0  0  0
  191.3220  176.8380  148.0660 C   0  0  0  0  0  3  0  0  0  0  0  0
  192.6280  176.4570  147.7640 C   0  0  0  0  0  3  0  0  0  0  0  0
  191.5510  174.7040  141.7780 C   0  0  0  0  0  0  0  0  0  0  0  0
  192.9700  174.7280  141.4380 C   0  0  0  0  0  0  0  0  0  0  0  0
  187.5330  176.4730  142.8690 C   0  0  1  0  0  3  0  0  0  0  0  0
  188.6340  177.4730  144.8790 N   0  0  0  0  0  2  0  0  0  0  0  0
  195.1110  174.9790  141.7670 N   0  0  0  0  0  0  0  0  0  0  0  0
  186.6190  178.6190  144.0330 C   0  0  2  0  0  3  0  0  0  0  0  0
  190.3360  176.7940  147.0790 C   0  0  0  0  0  3  0  0  0  0  0  0
  189.5380  176.3140  144.7440 C   0  0  2  0  0  3  0  0  0  0  0  0
  190.6450  176.3800  145.7740 C   0  0  0  0  0  0  0  0  0  0  0  0
  192.2950  175.4820  144.1180 C   0  0  0  0  0  0  0  0  0  0  0  0
  194.8720  174.5860  140.4960 C   0  0  0  0  0  3  0  0  0  0  0  0
  186.0840  178.1330  141.5600 C   0  0  0  0  0  2  0  0  0  0  0  0
  187.8430  177.7520  143.6720 C   0  0  2  0  0  3  0  0  0  0  0  0
  193.5440  174.4180  140.2590 N   0  0  0  0  0  0  0  0  0  0  0  0
  186.5740  176.6860  141.6960 C   0  0  0  0  0  2  0  0  0  0  0  0
  185.2950  177.8650  144.0000 C   0  0  1  0  0  3  0  0  0  0  0  0
  192.9460  176.0200  146.4770 C   0  0  0  0  0  3  0  0  0  0  0  0
  191.9610  175.9620  145.4760 C   0  0  0  0  0  0  0  0  0  0  0  0
  193.5820  175.4600  143.7160 C   0  0  0  0  0  3  0  0  0  0  0  0
  188.8220  175.8030  142.3930 C   0  0  0  0  0  2  0  0  0  0  0  0
  190.7090  174.3040  140.9310 O   0  0  0  0  0  0  0  0  0  0  0  0
  196.4080  175.2560  142.3600 C   0  0  0  0  0  1  0  0  0  0  0  0
  191.1340  175.0640  143.2030 C   0  0  1  0  0  3  0  0  0  0  0  0
  193.9110  175.0600  142.3490 C   0  0  0  0  0  0  0  0  0  0  0  0
  184.3160  178.5380  144.9410 C   0  0  0  0  0  2  0  0  0  0  0  0
  184.5330  178.0490  146.3310 C   0  0  0  0  0  0  0  0  0  0  0  0
  184.9800  176.7170  146.5550 N   0  0  0  0  0  1  0  0  0  0  0  0
  184.2890  178.8030  147.3090 O   0  0  0  0  0  0  0  0  0  0  0  0
  1 16  1  6  0  0  0
  1 20  1  0  0  0  0
  1 10  1  0  0  0  0
  2 24  1  6  0  0  0
  2 12  1  0  0  0  0
  4  3  1  0  0  0  0
  5 27  1  0  0  0  0
  6  5  1  0  0  0  0
  6 28  2  0  0  0  0
  7 19  1  6  0  0  0
  7 17  1  0  0  0  0
  9 28  1  0  0  0  0
  9 26  1  0  0  0  0
 11  3  2  0  0  0  0
 12  8  1  0  0  0  0
 12 13  1  0  0  0  0
 13 11  1  0  0  0  0
 14 22  1  0  0  0  0
 15  9  1  0  0  0  0
 16 19  1  0  0  0  0
 17 10  1  0  0  0  0
 17  8  1  0  0  0  0
 18 15  2  0  0  0  0
 18  6  1  0  0  0  0
 20 10  1  0  0  0  0
 20 29  1  0  0  0  0
 21  4  2  0  0  0  0
 22 13  2  0  0  0  0
 22 21  1  0  0  0  0
 23 14  2  0  0  0  0
 24  7  1  0  0  0  0
 25  5  2  0  0  0  0
 27  2  1  0  0  0  0
 27 14  1  0  0  0  0
 28 23  1  0  0  0  0
 29 30  1  0  0  0  0
 30 31  1  0  0  0  0
 30 32  2  0  0  0  0
M  END
>  <MODEL>
4

>  <REMARK>
 VINA RESULT:      -8.6      2.945      7.793
  Name = 
  2 active torsions:
  status: ('A' for Active; 'I' for Inactive)
    1  A    between atoms: C_20  and  C_29
    2  A    between atoms: C_29  and  C_30
                            x       y       z     vdW  Elec       q    Type
                         _______ _______ _______ _____ _____    ______ ____

>  <TORSDO>
F 2

$$$$
=
 OpenBabel11112416353D

 32 38  0  0  1  0  0  0  0  0999 V2000
  185.9480  177.8530  143.7030 C   0  0  1  0  0  3  0  0  0  0  0  0
  190.5840  175.6950  143.0070 C   0  0  2  0  0  3  0  0  0  0  0  0
  192.9720  176.7830  147.2630 C   0  0  0  0  0  3  0  0  0  0  0  0
  194.1920  176.5370  146.6350 C   0  0  0  0  0  3  0  0  0  0  0  0
  191.8250  174.3740  141.1770 C   0  0  0  0  0  0  0  0  0  0  0  0
  193.0940  174.5410  140.4770 C   0  0  0  0  0  0  0  0  0  0  0  0
  188.0410  175.7320  143.2520 C   0  0  1  0  0  3  0  0  0  0  0  0
  189.4950  176.9500  144.8820 N   0  0  0  0  0  2  0  0  0  0  0  0
  195.2010  175.0470  140.2250 N   0  0  0  0  0  0  0  0  0  0  0  0
  187.2050  177.8180  144.5740 C   0  0  2  0  0  3  0  0  0  0  0  0
  191.7780  176.5790  146.5710 C   0  0  0  0  0  3  0  0  0  0  0  0
  190.4680  175.8950  144.5370 C   0  0  2  0  0  3  0  0  0  0  0  0
  191.7860  176.1370  145.2380 C   0  0  0  0  0  0  0  0  0  0  0  0
  193.0480  175.3480  143.2240 C   0  0  0  0  0  0  0  0  0  0  0  0
  194.6900  174.5670  139.0710 C   0  0  0  0  0  3  0  0  0  0  0  0
  186.1120  177.1500  142.3380 C   0  0  0  0  0  2  0  0  0  0  0  0
  188.3900  177.0770  143.9210 C   0  0  2  0  0  3  0  0  0  0  0  0
  193.3770  174.2380  139.1940 N   0  0  0  0  0  0  0  0  0  0  0  0
  186.7930  175.7760  142.3690 C   0  0  0  0  0  2  0  0  0  0  0  0
  186.0200  176.9190  144.9050 C   0  0  1  0  0  3  0  0  0  0  0  0
  194.2180  176.0740  145.3190 C   0  0  0  0  0  3  0  0  0  0  0  0
  193.0210  175.8550  144.6130 C   0  0  0  0  0  0  0  0  0  0  0  0
  194.1810  175.4510  142.4980 C   0  0  0  0  0  3  0  0  0  0  0  0
  189.2350  175.1890  142.4670 C   0  0  0  0  0  2  0  0  0  0  0  0
  190.8480  173.8400  140.5890 O   0  0  0  0  0  0  0  0  0  0  0  0
  196.5630  175.4980  140.4520 C   0  0  0  0  0  1  0  0  0  0  0  0
  191.7500  174.7570  142.6550 C   0  0  1  0  0  3  0  0  0  0  0  0
  194.1910  175.0220  141.1010 C   0  0  0  0  0  0  0  0  0  0  0  0
  185.2430  177.5230  146.0570 C   0  0  0  0  0  2  0  0  0  0  0  0
  186.0780  177.5150  147.2900 C   0  0  0  0  0  0  0  0  0  0  0  0
  186.2880  178.7210  148.0150 N   0  0  0  0  0  1  0  0  0  0  0  0
  186.6260  176.4490  147.6730 O   0  0  0  0  0  0  0  0  0  0  0  0
  1 16  1  6  0  0  0
  1 10  1  0  0  0  0
  1 20  1  0  0  0  0
  2 24  1  1  0  0  0
  2 12  1  0  0  0  0
  4  3  1  0  0  0  0
  5 27  1  0  0  0  0
  6 28  2  0  0  0  0
  6  5  1  0  0  0  0
  7 19  1  6  0  0  0
  7 17  1  0  0  0  0
  9 26  1  0  0  0  0
  9 28  1  0  0  0  0
 10 20  1  0  0  0  0
 11  3  2  0  0  0  0
 12  8  1  0  0  0  0
 12 13  1  0  0  0  0
 13 11  1  0  0  0  0
 14 22  1  0  0  0  0
 15 18  2  0  0  0  0
 15  9  1  0  0  0  0
 16 19  1  0  0  0  0
 17 10  1  0  0  0  0
 17  8  1  0  0  0  0
 18  6  1  0  0  0  0
 20 29  1  0  0  0  0
 21  4  2  0  0  0  0
 22 13  2  0  0  0  0
 22 21  1  0  0  0  0
 23 14  2  0  0  0  0
 24  7  1  0  0  0  0
 25  5  2  0  0  0  0
 27  2  1  0  0  0  0
 27 14  1  0  0  0  0
 28 23  1  0  0  0  0
 29 30  1  0  0  0  0
 30 32  2  0  0  0  0
 30 31  1  0  0  0  0
M  END
>  <MODEL>
5

>  <REMARK>
 VINA RESULT:      -8.3      3.277      7.758
  Name = 
  2 active torsions:
  status: ('A' for Active; 'I' for Inactive)
    1  A    between atoms: C_20  and  C_29
    2  A    between atoms: C_29  and  C_30
                            x       y       z     vdW  Elec       q    Type
                         _______ _______ _______ _____ _____    ______ ____

>  <TORSDO>
F 2

$$$$
=
 OpenBabel11112416353D

 32 38  0  0  1  0  0  0  0  0999 V2000
  189.4780  171.8000  139.8170 C   0  0  1  0  0  3  0  0  0  0  0  0
  188.3980  175.7070  143.0110 C   0  0  2  0  0  3  0  0  0  0  0  0
  191.7760  175.1380  146.6530 C   0  0  0  0  0  3  0  0  0  0  0  0
  190.9960  175.9310  147.4940 C   0  0  0  0  0  3  0  0  0  0  0  0
  186.6980  177.6360  143.1710 C   0  0  0  0  0  0  0  0  0  0  0  0
  185.7490  178.0830  144.1840 C   0  0  0  0  0  0  0  0  0  0  0  0
  189.1100  174.6220  140.8110 C   0  0  1  0  0  3  0  0  0  0  0  0
  190.1260  173.8930  142.9770 N   0  0  0  0  0  2  0  0  0  0  0  0
  184.9950  178.5010  146.1880 N   0  0  0  0  0  0  0  0  0  0  0  0
  190.0790  172.2260  141.1580 C   0  0  2  0  0  3  0  0  0  0  0  0
  191.3870  174.9320  145.3290 C   0  0  0  0  0  3  0  0  0  0  0  0
  189.8410  175.2850  143.3790 C   0  0  2  0  0  3  0  0  0  0  0  0
  190.2060  175.5060  144.8300 C   0  0  0  0  0  0  0  0  0  0  0  0
  188.2100  176.9830  145.1510 C   0  0  0  0  0  0  0  0  0  0  0  0
  184.0930  178.8780  145.2560 C   0  0  0  0  0  3  0  0  0  0  0  0
  188.2940  172.6770  139.3550 C   0  0  0  0  0  2  0  0  0  0  0  0
  189.3890  173.4570  141.7820 C   0  0  2  0  0  3  0  0  0  0  0  0
  184.5330  178.6340  143.9940 N   0  0  0  0  0  0  0  0  0  0  0  0
  188.4940  174.1930  139.4790 C   0  0  0  0  0  2  0  0  0  0  0  0
  190.8190  172.5240  139.8590 C   0  0  1  0  0  3  0  0  0  0  0  0
  189.8330  176.5290  147.0060 C   0  0  0  0  0  3  0  0  0  0  0  0
  189.4340  176.3360  145.6720 C   0  0  0  0  0  0  0  0  0  0  0  0
  187.2770  177.4370  146.0130 C   0  0  0  0  0  3  0  0  0  0  0  0
  188.2490  175.6940  141.4800 C   0  0  0  0  0  2  0  0  0  0  0  0
  186.4390  177.8020  141.9490 O   0  0  0  0  0  0  0  0  0  0  0  0
  184.8530  178.6100  147.6300 C   0  0  0  0  0  1  0  0  0  0  0  0
  188.0430  177.0710  143.6270 C   0  0  1  0  0  3  0  0  0  0  0  0
  186.0320  178.0070  145.5030 C   0  0  0  0  0  0  0  0  0  0  0  0
  191.9370  171.5180  139.6820 C   0  0  0  0  0  2  0  0  0  0  0  0
  191.9290  170.9910  138.2900 C   0  0  0  0  0  0  0  0  0  0  0  0
  191.9980  171.8890  137.1890 N   0  0  0  0  0  1  0  0  0  0  0  0
  191.8290  169.7530  138.0850 O   0  0  0  0  0  0  0  0  0  0  0  0
  1 16  1  6  0  0  0
  1 20  1  0  0  0  0
  1 10  1  0  0  0  0
  2 24  1  6  0  0  0
  2 12  1  0  0  0  0
  2 27  1  0  0  0  0
  3  4  1  0  0  0  0
  5 27  1  0  0  0  0
  5  6  1  0  0  0  0
  6 28  2  0  0  0  0
  7 19  1  6  0  0  0
  7 24  1  0  0  0  0
  7 17  1  0  0  0  0
  8 12  1  0  0  0  0
  9 26  1  0  0  0  0
 10 17  1  0  0  0  0
 11  3  2  0  0  0  0
 12 13  1  0  0  0  0
 13 11  1  0  0  0  0
 13 22  2  0  0  0  0
 14 22  1  0  0  0  0
 14 23  2  0  0  0  0
 15  9  1  0  0  0  0
 16 19  1  0  0  0  0
 17  8  1  0  0  0  0
 18  6  1  0  0  0  0
 18 15  2  0  0  0  0
 20 10  1  0  0  0  0
 21  4  2  0  0  0  0
 22 21  1  0  0  0  0
 25  5  2  0  0  0  0
 27 14  1  0  0  0  0
 28 23  1  0  0  0  0
 28  9  1  0  0  0  0
 29 20  1  0  0  0  0
 30 29  1  0  0  0  0
 31 30  1  0  0  0  0
 32 30  2  0  0  0  0
M  END
>  <MODEL>
6

>  <REMARK>
 VINA RESULT:      -8.3      3.521      5.273
  Name = 
  2 active torsions:
  status: ('A' for Active; 'I' for Inactive)
    1  A    between atoms: C_20  and  C_29
    2  A    between atoms: C_29  and  C_30
                            x       y       z     vdW  Elec       q    Type
                         _______ _______ _______ _____ _____    ______ ____

>  <TORSDO>
F 2

$$$$
=
 OpenBabel11112416353D

 32 38  0  0  1  0  0  0  0  0999 V2000
  195.1620  175.3760  145.6200 C   0  0  1  0  0  3  0  0  0  0  0  0
  190.2600  175.5050  144.0090 C   0  0  2  0  0  3  0  0  0  0  0  0
  190.1830  172.0520  140.3930 C   0  0  0  0  0  3  0  0  0  0  0  0
  189.0120  172.6150  139.8870 C   0  0  0  0  0  3  0  0  0  0  0  0
  188.1030  176.8060  144.5430 C   0  0  0  0  0  0  0  0  0  0  0  0
  187.1570  177.5870  143.7540 C   0  0  0  0  0  0  0  0  0  0  0  0
  192.1570  175.1520  145.6840 C   0  0  1  0  0  3  0  0  0  0  0  0
  192.2740  174.1450  143.3980 N   0  0  0  0  0  2  0  0  0  0  0  0
  185.9330  178.1160  142.0280 N   0  0  0  0  0  0  0  0  0  0  0  0
  194.4240  174.6190  144.5140 C   0  0  2  0  0  3  0  0  0  0  0  0
  190.7540  172.5610  141.5600 C   0  0  0  0  0  3  0  0  0  0  0  0
  190.8030  174.1420  143.5130 C   0  0  2  0  0  3  0  0  0  0  0  0
  190.1690  173.6460  142.2320 C   0  0  0  0  0  0  0  0  0  0  0  0
  188.3120  175.3110  142.4570 C   0  0  0  0  0  0  0  0  0  0  0  0
  185.7320  178.9940  143.0350 C   0  0  0  0  0  3  0  0  0  0  0  0
  194.2860  176.4060  146.3640 C   0  0  0  0  0  2  0  0  0  0  0  0
  192.9440  175.0270  144.3640 C   0  0  2  0  0  3  0  0  0  0  0  0
  186.4790  178.6910  144.1290 N   0  0  0  0  0  0  0  0  0  0  0  0
  192.8910  175.9240  146.7820 C   0  0  0  0  0  2  0  0  0  0  0  0
  194.7450  173.9250  145.8330 C   0  0  1  0  0  3  0  0  0  0  0  0
  188.4050  173.6790  140.5560 C   0  0  0  0  0  3  0  0  0  0  0  0
  188.9650  174.1950  141.7390 C   0  0  0  0  0  0  0  0  0  0  0  0
  187.4160  176.0850  141.8120 C   0  0  0  0  0  3  0  0  0  0  0  0
  190.7730  175.7550  145.4370 C   0  0  0  0  0  2  0  0  0  0  0  0
  188.3220  177.1110  145.7460 O   0  0  0  0  0  0  0  0  0  0  0  0
  185.3060  178.1390  140.7170 C   0  0  0  0  0  1  0  0  0  0  0  0
  188.7260  175.5610  143.9140 C   0  0  1  0  0  3  0  0  0  0  0  0
  186.8250  177.2350  142.4930 C   0  0  0  0  0  0  0  0  0  0  0  0
  195.9480  173.0250  145.6410 C   0  0  0  0  0  2  0  0  0  0  0  0
  195.5020  171.6610  145.2430 C   0  0  0  0  0  0  0  0  0  0  0  0
  196.2960  170.8850  144.3540 N   0  0  0  0  0  1  0  0  0  0  0  0
  194.4080  171.2080  145.6670 O   0  0  0  0  0  0  0  0  0  0  0  0
  1 20  1  0  0  0  0
  1 16  1  1  0  0  0
  2 24  1  1  0  0  0
  3 11  1  0  0  0  0
  4  3  2  0  0  0  0
  4 21  1  0  0  0  0
  5 25  2  0  0  0  0
  6 18  1  0  0  0  0
  6  5  1  0  0  0  0
  7 24  1  6  0  0  0
  7 19  1  0  0  0  0
  8 12  1  0  0  0  0
  8 17  1  0  0  0  0
  9 28  1  0  0  0  0
  9 15  1  0  0  0  0
 10  1  1  0  0  0  0
 10 20  1  0  0  0  0
 11 13  2  0  0  0  0
 12  2  1  0  0  0  0
 13 12  1  0  0  0  0
 14 27  1  0  0  0  0
 15 18  2  0  0  0  0
 16 19  1  0  0  0  0
 17 10  1  0  0  0  0
 17  7  1  0  0  0  0
 21 22  2  0  0  0  0
 22 13  1  0  0  0  0
 22 14  1  0  0  0  0
 23 14  2  0  0  0  0
 23 28  1  0  0  0  0
 26  9  1  0  0  0  0
 27  2  1  0  0  0  0
 27  5  1  0  0  0  0
 28  6  2  0  0  0  0
 29 20  1  0  0  0  0
 30 29  1  0  0  0  0
 30 32  2  0  0  0  0
 31 30  1  0  0  0  0
M  END
>  <MODEL>
7

>  <REMARK>
 VINA RESULT:      -8.3      2.707      5.261
  Name = 
  2 active torsions:
  status: ('A' for Active; 'I' for Inactive)
    1  A    between atoms: C_20  and  C_29
    2  A    between atoms: C_29  and  C_30
                            x       y       z     vdW  Elec       q    Type
                         _______ _______ _______ _____ _____    ______ ____

>  <TORSDO>
F 2

$$$$
=
 OpenBabel11112416353D

 32 38  0  0  1  0  0  0  0  0999 V2000
  185.9850  177.3830  146.2770 C   0  0  1  0  0  3  0  0  0  0  0  0
  190.0620  175.0140  144.1800 C   0  0  2  0  0  3  0  0  0  0  0  0
  188.5660  174.1660  139.4840 C   0  0  0  0  0  3  0  0  0  0  0  0
  189.5580  173.1950  139.3490 C   0  0  0  0  0  3  0  0  0  0  0  0
  192.4020  174.2240  144.9100 C   0  0  0  0  0  0  0  0  0  0  0  0
  193.1130  172.9510  144.8650 C   0  0  0  0  0  0  0  0  0  0  0  0
  188.7990  176.9330  145.2980 C   0  0  1  0  0  3  0  0  0  0  0  0
  187.8250  175.7480  143.3230 N   0  0  0  0  0  2  0  0  0  0  0  0
  193.7480  171.0310  144.0490 N   0  0  0  0  0  0  0  0  0  0  0  0
  186.2290  176.7990  144.8840 C   0  0  2  0  0  3  0  0  0  0  0  0
  188.4720  174.9070  140.6630 C   0  0  0  0  0  3  0  0  0  0  0  0
  189.2420  175.5310  142.9730 C   0  0  2  0  0  3  0  0  0  0  0  0
  189.3590  174.6810  141.7270 C   0  0  0  0  0  0  0  0  0  0  0  0
  191.3550  173.4990  142.6720 C   0  0  0  0  0  0  0  0  0  0  0  0
  194.3630  171.2690  145.2270 C   0  0  0  0  0  3  0  0  0  0  0  0
  187.1630  177.1840  147.2540 C   0  0  0  0  0  2  0  0  0  0  0  0
  187.6110  176.1340  144.7250 C   0  0  2  0  0  3  0  0  0  0  0  0
  193.9920  172.4610  145.7630 N   0  0  0  0  0  0  0  0  0  0  0  0
  188.5570  177.5000  146.6970 C   0  0  0  0  0  2  0  0  0  0  0  0
  186.2890  178.3070  145.1040 C   0  0  1  0  0  3  0  0  0  0  0  0
  190.4640  172.9750  140.3890 C   0  0  0  0  0  3  0  0  0  0  0  0
  190.3850  173.7210  141.5780 C   0  0  0  0  0  0  0  0  0  0  0  0
  192.0660  172.3540  142.7100 C   0  0  0  0  0  3  0  0  0  0  0  0
  190.0800  176.0980  145.2710 C   0  0  0  0  0  2  0  0  0  0  0  0
  192.6270  175.0370  145.8460 O   0  0  0  0  0  0  0  0  0  0  0  0
  193.9040  169.8560  143.2080 C   0  0  0  0  0  1  0  0  0  0  0  0
  191.4750  174.5850  143.7500 C   0  0  1  0  0  3  0  0  0  0  0  0
  192.9690  172.0950  143.8300 C   0  0  0  0  0  0  0  0  0  0  0  0
  185.0000  178.9330  144.6120 C   0  0  0  0  0  2  0  0  0  0  0  0
  184.8920  178.7760  143.1350 C   0  0  0  0  0  0  0  0  0  0  0  0
  183.6860  178.2910  142.5570 N   0  0  0  0  0  1  0  0  0  0  0  0
  185.8790  179.0410  142.4000 O   0  0  0  0  0  0  0  0  0  0  0  0
  1 16  1  1  0  0  0
  2 24  1  1  0  0  0
  3 11  1  0  0  0  0
  4  3  2  0  0  0  0
  4 21  1  0  0  0  0
  5 25  2  0  0  0  0
  6  5  1  0  0  0  0
  6 18  1  0  0  0  0
  7 24  1  1  0  0  0
  7 19  1  0  0  0  0
  8 17  1  0  0  0  0
  9 15  1  0  0  0  0
 10 20  1  0  0  0  0
 10  1  1  0  0  0  0
 11 13  2  0  0  0  0
 12  8  1  0  0  0  0
 12  2  1  0  0  0  0
 13 12  1  0  0  0  0
 14 23  2  0  0  0  0
 14 27  1  0  0  0  0
 15 18  2  0  0  0  0
 17 10  1  0  0  0  0
 17  7  1  0  0  0  0
 19 16  1  0  0  0  0
 20  1  1  0  0  0  0
 21 22  2  0  0  0  0
 22 13  1  0  0  0  0
 22 14  1  0  0  0  0
 23 28  1  0  0  0  0
 26  9  1  0  0  0  0
 27  2  1  0  0  0  0
 27  5  1  0  0  0  0
 28  9  1  0  0  0  0
 28  6  2  0  0  0  0
 29 20  1  0  0  0  0
 30 29  1  0  0  0  0
 31 30  1  0  0  0  0
 32 30  2  0  0  0  0
M  END
>  <MODEL>
8

>  <REMARK>
 VINA RESULT:      -8.2      2.496      8.710
  Name = 
  2 active torsions:
  status: ('A' for Active; 'I' for Inactive)
    1  A    between atoms: C_20  and  C_29
    2  A    between atoms: C_29  and  C_30
                            x       y       z     vdW  Elec       q    Type
                         _______ _______ _______ _____ _____    ______ ____

>  <TORSDO>
F 2

$$$$
=
 OpenBabel11112416353D

 32 38  0  0  1  0  0  0  0  0999 V2000
  191.2600  171.0210  141.4200 C   0  0  1  0  0  3  0  0  0  0  0  0
  189.0330  175.4030  142.9930 C   0  0  2  0  0  3  0  0  0  0  0  0
  191.3830  176.3650  147.3010 C   0  0  0  0  0  3  0  0  0  0  0  0
  190.3420  177.2150  147.6730 C   0  0  0  0  0  3  0  0  0  0  0  0
  187.1830  177.0060  142.1920 C   0  0  0  0  0  0  0  0  0  0  0  0
  185.9650  177.5440  142.7890 C   0  0  0  0  0  0  0  0  0  0  0  0
  190.3900  173.9070  141.4290 C   0  0  1  0  0  3  0  0  0  0  0  0
  190.8680  173.9480  143.8840 N   0  0  0  0  0  2  0  0  0  0  0  0
  184.6810  178.3470  144.3580 N   0  0  0  0  0  0  0  0  0  0  0  0
  191.4490  171.8760  142.6750 C   0  0  2  0  0  3  0  0  0  0  0  0
  191.3720  175.7580  146.0450 C   0  0  0  0  0  3  0  0  0  0  0  0
  190.3620  175.3310  143.7820 C   0  0  2  0  0  3  0  0  0  0  0  0
  190.3160  175.9820  145.1470 C   0  0  0  0  0  0  0  0  0  0  0  0
  188.1790  177.1500  144.5630 C   0  0  0  0  0  0  0  0  0  0  0  0
  184.0220  178.3150  143.1800 C   0  0  0  0  0  3  0  0  0  0  0  0
  190.1630  171.5430  140.4670 C   0  0  0  0  0  2  0  0  0  0  0  0
  190.5110  173.1000  142.7370 C   0  0  2  0  0  3  0  0  0  0  0  0
  184.7960  177.8220  142.1770 N   0  0  0  0  0  0  0  0  0  0  0  0
  190.1840  173.0490  140.1800 C   0  0  0  0  0  2  0  0  0  0  0  0
  192.4710  171.9370  141.5460 C   0  0  1  0  0  3  0  0  0  0  0  0
  189.2960  177.4670  146.7840 C   0  0  0  0  0  3  0  0  0  0  0  0
  189.2780  176.8690  145.5110 C   0  0  0  0  0  0  0  0  0  0  0  0
  187.0160  177.6570  145.0200 C   0  0  0  0  0  3  0  0  0  0  0  0
  189.2910  174.9640  141.5420 C   0  0  0  0  0  2  0  0  0  0  0  0
  187.2370  176.8010  140.9500 O   0  0  0  0  0  0  0  0  0  0  0  0
  184.1580  178.8070  145.6340 C   0  0  0  0  0  1  0  0  0  0  0  0
  188.4070  176.8050  143.0830 C   0  0  1  0  0  3  0  0  0  0  0  0
  185.9010  177.8650  144.1000 C   0  0  0  0  0  0  0  0  0  0  0  0
  193.6840  171.1140  141.9290 C   0  0  0  0  0  2  0  0  0  0  0  0
  194.3820  171.7460  143.0820 C   0  0  0  0  0  0  0  0  0  0  0  0
  194.8560  173.0840  142.9800 N   0  0  0  0  0  1  0  0  0  0  0  0
  194.5820  171.0880  144.1360 O   0  0  0  0  0  0  0  0  0  0  0  0
  1 16  1  6  0  0  0
  1 20  1  0  0  0  0
  1 10  1  0  0  0  0
  2 24  1  6  0  0  0
  2 27  1  0  0  0  0
  2 12  1  0  0  0  0
  3  4  1  0  0  0  0
  5  6  1  0  0  0  0
  5 27  1  0  0  0  0
  6 28  2  0  0  0  0
  7 19  1  6  0  0  0
  7 24  1  0  0  0  0
  7 17  1  0  0  0  0
  9 26  1  0  0  0  0
 10 17  1  0  0  0  0
 11  3  2  0  0  0  0
 12  8  1  0  0  0  0
 12 13  1  0  0  0  0
 13 22  2  0  0  0  0
 13 11  1  0  0  0  0
 14 23  2  0  0  0  0
 14 22  1  0  0  0  0
 15  9  1  0  0  0  0
 17  8  1  0  0  0  0
 18  6  1  0  0  0  0
 18 15  2  0  0  0  0
 19 16  1  0  0  0  0
 20 29  1  0  0  0  0
 20 10  1  0  0  0  0
 21  4  2  0  0  0  0
 22 21  1  0  0  0  0
 25  5  2  0  0  0  0
 27 14  1  0  0  0  0
 28  9  1  0  0  0  0
 28 23  1  0  0  0  0
 29 30  1  0  0  0  0
 30 32  2  0  0  0  0
 31 30  1  0  0  0  0
M  END
>  <MODEL>
9

>  <REMARK>
 VINA RESULT:      -8.0      2.440      3.715
  Name = 
  2 active torsions:
  status: ('A' for Active; 'I' for Inactive)
    1  A    between atoms: C_20  and  C_29
    2  A    between atoms: C_29  and  C_30
                            x       y       z     vdW  Elec       q    Type
                         _______ _______ _______ _____ _____    ______ ____

>  <TORSDO>
F 2

$$$$
