=
 OpenBabel11112416323D

 32 37  0  0  1  0  0  0  0  0999 V2000
  190.6030  171.3330  141.8340 C   0  0  0  0  0  2  0  0  0  0  0  0
  188.7280  176.4640  142.9180 C   0  0  1  0  0  3  0  0  0  0  0  0
  191.9780  175.9900  146.7510 C   0  0  0  0  0  2  0  0  0  0  0  0
  190.9880  176.6870  147.6790 C   0  0  0  0  0  2  0  0  0  0  0  0
  186.3060  177.1270  143.3420 C   0  0  1  0  0  3  0  0  0  0  0  0
  185.3850  177.6830  144.3880 C   0  0  0  0  0  0  0  0  0  0  0  0
  189.2750  174.3450  141.8120 N   0  0  1  0  0  0  0  0  0  0  0  0
  191.1130  175.8460  142.4550 C   0  0  0  0  0  2  0  0  0  0  0  0
  184.5990  178.2650  146.4180 C   0  0  0  0  0  0  0  0  0  0  0  0
  191.6280  173.6130  141.4810 C   0  0  0  0  0  2  0  0  0  0  0  0
  191.7930  176.4820  145.3200 C   0  0  0  0  0  2  0  0  0  0  0  0
  190.1830  176.6390  143.3830 C   0  0  2  0  0  3  0  0  0  0  0  0
  190.3610  176.2120  144.8500 C   0  0  2  0  0  3  0  0  0  0  0  0
  187.9220  176.7420  145.3170 C   0  0  1  0  0  3  0  0  0  0  0  0
  184.0210  179.0890  145.4220 N   0  0  0  0  0  2  0  0  0  0  0  0
  189.3420  171.9020  142.4690 C   0  0  0  0  0  2  0  0  0  0  0  0
  190.6500  174.3940  142.3470 C   0  0  2  0  0  3  0  0  0  0  0  0
  184.5770  178.6810  144.2070 N   0  0  0  0  0  0  0  0  0  0  0  0
  188.7590  172.9870  141.5630 C   0  0  0  0  0  2  0  0  0  0  0  0
  191.8210  172.2250  142.0750 C   0  0  2  0  0  3  0  0  0  0  0  0
  189.5590  176.4310  147.2090 C   0  0  0  0  0  2  0  0  0  0  0  0
  189.3720  176.9410  145.7770 C   0  0  1  0  0  3  0  0  0  0  0  0
  186.9650  177.5200  146.2350 C   0  0  0  0  0  2  0  0  0  0  0  0
  188.3770  174.9760  142.7780 C   0  0  0  0  0  2  0  0  0  0  0  0
  186.1560  177.8520  142.0100 C   0  0  0  0  0  1  0  0  0  0  0  0
  184.3320  178.3630  147.6430 O   0  0  0  0  0  0  0  0  0  0  0  0
  187.7610  177.2110  143.8480 C   0  0  1  0  0  3  0  0  0  0  0  0
  185.5220  177.2690  145.8170 C   0  0  2  0  0  3  0  0  0  0  0  0
  193.0020  171.6140  141.4840 N   0  0  0  0  0  2  0  0  0  0  0  0
  194.2890  171.6650  142.1040 C   0  0  0  0  0  0  0  0  0  0  0  0
  194.4530  172.2750  143.1940 O   0  0  0  0  0  0  0  0  0  0  0  0
  195.4450  170.9980  141.4520 C   0  0  0  0  0  1  0  0  0  0  0  0
  1 20  1  0  0  0  0
  1 16  1  0  0  0  0
  2 24  1  1  0  0  0
  2 12  1  0  0  0  0
  2 27  1  0  0  0  0
  3  4  1  0  0  0  0
  5 25  1  6  0  0  0
  5 27  1  0  0  0  0
  5  6  1  0  0  0  0
  6 28  1  0  0  0  0
  7 19  1  1  0  0  0
  7 17  1  0  0  0  0
  7 24  1  0  0  0  0
  9 26  2  0  0  0  0
 10 20  1  0  0  0  0
 11  3  1  0  0  0  0
 12  8  1  6  0  0  0
 12 13  1  0  0  0  0
 13 11  1  1  0  0  0
 13 22  1  0  0  0  0
 14 22  1  0  0  0  0
 14 23  1  1  0  0  0
 15  9  1  0  0  0  0
 17 10  1  6  0  0  0
 17  8  1  0  0  0  0
 18  6  2  0  0  0  0
 18 15  1  0  0  0  0
 19 16  1  0  0  0  0
 20 29  1  6  0  0  0
 21  4  1  0  0  0  0
 22 21  1  1  0  0  0
 27 14  1  0  0  0  0
 28 23  1  0  0  0  0
 28  9  1  0  0  0  0
 29 30  1  0  0  0  0
 30 31  2  0  0  0  0
 32 30  1  0  0  0  0
M  END
>  <MODEL>
1

>  <REMARK>
 VINA RESULT:      -9.0      0.000      0.000
  Name = 
  1 active torsions:
  status: ('A' for Active; 'I' for Inactive)
    1  A    between atoms: C_20  and  N_29
                            x       y       z     vdW  Elec       q    Type
                         _______ _______ _______ _____ _____    ______ ____

>  <TORSDO>
F 1

$$$$
=
 OpenBabel11112416323D

 32 37  0  0  1  0  0  0  0  0999 V2000
  194.9900  175.5310  144.8570 C   0  0  0  0  0  2  0  0  0  0  0  0
  189.4200  175.5160  144.7860 C   0  0  1  0  0  3  0  0  0  0  0  0
  190.2610  172.0500  141.2130 C   0  0  0  0  0  2  0  0  0  0  0  0
  189.1140  172.6220  140.3860 C   0  0  0  0  0  2  0  0  0  0  0  0
  187.9110  177.5150  144.3260 C   0  0  1  0  0  3  0  0  0  0  0  0
  186.8960  178.0500  143.3590 C   0  0  0  0  0  0  0  0  0  0  0  0
  191.7620  175.8320  145.4370 N   0  0  1  0  0  0  0  0  0  0  0  0
  190.8820  173.5420  145.2890 C   0  0  0  0  0  2  0  0  0  0  0  0
  185.7250  178.3030  141.4520 C   0  0  0  0  0  0  0  0  0  0  0  0
  193.2940  173.9060  145.7850 C   0  0  0  0  0  2  0  0  0  0  0  0
  190.0040  172.2810  142.6980 C   0  0  0  0  0  2  0  0  0  0  0  0
  189.6660  174.0280  144.4870 C   0  0  2  0  0  3  0  0  0  0  0  0
  189.8540  173.7780  142.9820 C   0  0  2  0  0  3  0  0  0  0  0  0
  188.4550  175.8290  142.4510 C   0  0  1  0  0  3  0  0  0  0  0  0
  184.9490  178.7330  142.5550 N   0  0  0  0  0  2  0  0  0  0  0  0
  193.9220  176.4420  144.2650 C   0  0  0  0  0  2  0  0  0  0  0  0
  192.0850  174.4490  145.0370 C   0  0  2  0  0  3  0  0  0  0  0  0
  185.7340  178.5200  143.6910 N   0  0  0  0  0  0  0  0  0  0  0  0
  192.8870  176.7800  145.3390 C   0  0  0  0  0  2  0  0  0  0  0  0
  194.5340  174.0740  144.9170 C   0  0  2  0  0  3  0  0  0  0  0  0
  188.9520  174.1120  140.6720 C   0  0  0  0  0  2  0  0  0  0  0  0
  188.6780  174.3390  142.1620 C   0  0  1  0  0  3  0  0  0  0  0  0
  187.2460  176.3460  141.6530 C   0  0  0  0  0  2  0  0  0  0  0  0
  190.7000  176.3330  144.5660 C   0  0  0  0  0  2  0  0  0  0  0  0
  187.4330  177.6250  145.7690 C   0  0  0  0  0  1  0  0  0  0  0  0
  185.3210  178.3410  140.2610 O   0  0  0  0  0  0  0  0  0  0  0  0
  188.2340  176.0500  143.9690 C   0  0  1  0  0  3  0  0  0  0  0  0
  187.0650  177.8400  141.8890 C   0  0  2  0  0  3  0  0  0  0  0  0
  195.6050  173.2460  145.4510 N   0  0  0  0  0  2  0  0  0  0  0  0
  195.8700  171.9250  144.9730 C   0  0  0  0  0  0  0  0  0  0  0  0
  195.1550  171.4130  144.0710 O   0  0  0  0  0  0  0  0  0  0  0  0
  196.9970  171.1470  145.5500 C   0  0  0  0  0  1  0  0  0  0  0  0
  1 20  1  0  0  0  0
  2 24  1  6  0  0  0
  3 11  1  0  0  0  0
  4 21  1  0  0  0  0
  4  3  1  0  0  0  0
  5 25  1  1  0  0  0
  6 18  2  0  0  0  0
  6  5  1  0  0  0  0
  7 24  1  6  0  0  0
  9 28  1  0  0  0  0
  9 15  1  0  0  0  0
 12  2  1  0  0  0  0
 12  8  1  1  0  0  0
 13 11  1  1  0  0  0
 13 12  1  0  0  0  0
 14 23  1  6  0  0  0
 14 27  1  0  0  0  0
 15 18  1  0  0  0  0
 16  1  1  0  0  0  0
 16 19  1  0  0  0  0
 17  8  1  1  0  0  0
 17  7  1  0  0  0  0
 17 10  1  0  0  0  0
 19  7  1  0  0  0  0
 20 29  1  1  0  0  0
 20 10  1  0  0  0  0
 22 21  1  6  0  0  0
 22 14  1  0  0  0  0
 22 13  1  0  0  0  0
 23 28  1  0  0  0  0
 26  9  2  0  0  0  0
 27  5  1  0  0  0  0
 27  2  1  0  0  0  0
 28  6  1  0  0  0  0
 30 29  1  0  0  0  0
 30 32  1  0  0  0  0
 31 30  2  0  0  0  0
M  END
>  <MODEL>
2

>  <REMARK>
 VINA RESULT:      -8.8      2.582      4.667
  Name = 
  1 active torsions:
  status: ('A' for Active; 'I' for Inactive)
    1  A    between atoms: C_20  and  N_29
                            x       y       z     vdW  Elec       q    Type
                         _______ _______ _______ _____ _____    ______ ____

>  <TORSDO>
F 1

$$$$
=
 OpenBabel11112416323D

 32 37  0  0  1  0  0  0  0  0999 V2000
  186.6610  177.1080  146.4890 C   0  0  0  0  0  2  0  0  0  0  0  0
  191.7520  176.2790  144.3870 C   0  0  1  0  0  3  0  0  0  0  0  0
  189.1540  173.1260  141.4210 C   0  0  0  0  0  2  0  0  0  0  0  0
  190.2880  172.1100  141.5050 C   0  0  0  0  0  2  0  0  0  0  0  0
  193.7990  175.4680  145.6660 C   0  0  1  0  0  3  0  0  0  0  0  0
  194.7760  174.3340  145.7630 C   0  0  0  0  0  0  0  0  0  0  0  0
  189.8200  177.2180  145.5700 N   0  0  1  0  0  0  0  0  0  0  0  0
  189.7640  177.1250  143.1140 C   0  0  0  0  0  2  0  0  0  0  0  0
  195.6480  172.2710  145.5220 C   0  0  0  0  0  0  0  0  0  0  0  0
  187.7610  177.9160  144.3650 C   0  0  0  0  0  2  0  0  0  0  0  0
  189.7040  174.5410  141.5670 C   0  0  0  0  0  2  0  0  0  0  0  0
  190.9330  176.1300  143.0940 C   0  0  2  0  0  3  0  0  0  0  0  0
  190.4350  174.6880  142.9040 C   0  0  2  0  0  3  0  0  0  0  0  0
  192.3900  173.8170  144.2700 C   0  0  1  0  0  3  0  0  0  0  0  0
  196.6880  173.2220  145.6510 N   0  0  0  0  0  2  0  0  0  0  0  0
  187.8830  176.3090  146.9220 C   0  0  0  0  0  2  0  0  0  0  0  0
  188.9540  176.9710  144.4020 C   0  0  2  0  0  3  0  0  0  0  0  0
  196.0660  174.4680  145.7700 N   0  0  0  0  0  0  0  0  0  0  0  0
  189.1220  177.2030  146.8680 C   0  0  0  0  0  2  0  0  0  0  0  0
  186.5520  177.2150  144.9680 C   0  0  2  0  0  3  0  0  0  0  0  0
  191.0280  172.2580  142.8320 C   0  0  0  0  0  2  0  0  0  0  0  0
  191.5930  173.6750  142.9680 C   0  0  1  0  0  3  0  0  0  0  0  0
  193.5650  172.8260  144.2820 C   0  0  0  0  0  2  0  0  0  0  0  0
  190.8440  176.1750  145.6200 C   0  0  0  0  0  2  0  0  0  0  0  0
  194.5010  176.8200  145.6160 C   0  0  0  0  0  1  0  0  0  0  0  0
  195.8480  171.0370  145.3830 O   0  0  0  0  0  0  0  0  0  0  0  0
  192.9090  175.2700  144.4210 C   0  0  1  0  0  3  0  0  0  0  0  0
  194.3170  172.9210  145.6030 C   0  0  2  0  0  3  0  0  0  0  0  0
  185.3480  177.9510  144.6130 N   0  0  0  0  0  2  0  0  0  0  0  0
  184.7760  177.9060  143.3040 C   0  0  0  0  0  0  0  0  0  0  0  0
  185.3190  177.2330  142.3880 O   0  0  0  0  0  0  0  0  0  0  0  0
  183.5310  178.6660  143.0200 C   0  0  0  0  0  1  0  0  0  0  0  0
  1 16  1  0  0  0  0
  2 27  1  0  0  0  0
  2 24  1  1  0  0  0
  3  4  1  0  0  0  0
  3 11  1  0  0  0  0
  4 21  1  0  0  0  0
  5 25  1  6  0  0  0
  5  6  1  0  0  0  0
  6 18  2  0  0  0  0
  7 24  1  1  0  0  0
  7 19  1  0  0  0  0
  9 28  1  0  0  0  0
  9 15  1  0  0  0  0
 10 17  1  0  0  0  0
 10 20  1  0  0  0  0
 12  8  1  1  0  0  0
 12  2  1  0  0  0  0
 13 11  1  6  0  0  0
 13 22  1  0  0  0  0
 13 12  1  0  0  0  0
 14 23  1  6  0  0  0
 14 27  1  0  0  0  0
 15 18  1  0  0  0  0
 17  8  1  6  0  0  0
 17  7  1  0  0  0  0
 19 16  1  0  0  0  0
 20 29  1  1  0  0  0
 20  1  1  0  0  0  0
 22 21  1  1  0  0  0
 22 14  1  0  0  0  0
 23 28  1  0  0  0  0
 26  9  2  0  0  0  0
 27  5  1  0  0  0  0
 28  6  1  0  0  0  0
 30 29  1  0  0  0  0
 31 30  2  0  0  0  0
 32 30  1  0  0  0  0
M  END
>  <MODEL>
3

>  <REMARK>
 VINA RESULT:      -8.7      2.653      8.381
  Name = 
  1 active torsions:
  status: ('A' for Active; 'I' for Inactive)
    1  A    between atoms: C_20  and  N_29
                            x       y       z     vdW  Elec       q    Type
                         _______ _______ _______ _____ _____    ______ ____

>  <TORSDO>
F 1

$$$$
=
 OpenBabel11112416323D

 32 37  0  0  1  0  0  0  0  0999 V2000
  191.1030  170.7810  143.2770 C   0  0  0  0  0  2  0  0  0  0  0  0
  189.1570  175.9660  142.6840 C   0  0  1  0  0  3  0  0  0  0  0  0
  191.3710  176.4690  147.1920 C   0  0  0  0  0  2  0  0  0  0  0  0
  190.2050  177.3280  147.6710 C   0  0  0  0  0  2  0  0  0  0  0  0
  186.7220  176.6350  142.3500 C   0  0  1  0  0  3  0  0  0  0  0  0
  185.5910  177.3850  142.9890 C   0  0  0  0  0  0  0  0  0  0  0  0
  189.8990  173.6690  142.2530 N   0  0  1  0  0  0  0  0  0  0  0  0
  191.5660  175.3310  142.9620 C   0  0  0  0  0  2  0  0  0  0  0  0
  184.3540  178.3870  144.5830 C   0  0  0  0  0  0  0  0  0  0  0  0
  192.2420  172.9520  142.6740 C   0  0  0  0  0  2  0  0  0  0  0  0
  191.5500  176.6190  145.6860 C   0  0  0  0  0  2  0  0  0  0  0  0
  190.4610  176.2850  143.4340 C   0  0  2  0  0  3  0  0  0  0  0  0
  190.2680  176.2060  144.9580 C   0  0  2  0  0  3  0  0  0  0  0  0
  187.8030  176.7550  144.6900 C   0  0  1  0  0  3  0  0  0  0  0  0
  184.0550  178.9470  143.3170 N   0  0  0  0  0  2  0  0  0  0  0  0
  189.7410  171.4410  143.4430 C   0  0  0  0  0  2  0  0  0  0  0  0
  191.1050  173.8790  143.0780 C   0  0  2  0  0  3  0  0  0  0  0  0
  184.8770  178.2920  142.3970 N   0  0  0  0  0  0  0  0  0  0  0  0
  189.4230  172.2760  142.2010 C   0  0  0  0  0  2  0  0  0  0  0  0
  192.2490  171.7410  143.5950 C   0  0  2  0  0  3  0  0  0  0  0  0
  188.9250  176.9290  146.9410 C   0  0  0  0  0  2  0  0  0  0  0  0
  189.1040  177.0960  145.4290 C   0  0  1  0  0  3  0  0  0  0  0  0
  186.6740  177.6910  145.1500 C   0  0  0  0  0  2  0  0  0  0  0  0
  188.8120  174.4760  142.8040 C   0  0  0  0  0  2  0  0  0  0  0  0
  186.9180  177.0350  140.8930 C   0  0  0  0  0  1  0  0  0  0  0  0
  183.8020  178.7520  145.6530 O   0  0  0  0  0  0  0  0  0  0  0  0
  188.0140  176.8750  143.1590 C   0  0  1  0  0  3  0  0  0  0  0  0
  185.3680  177.3100  144.4640 C   0  0  2  0  0  3  0  0  0  0  0  0
  193.5220  171.0470  143.4600 N   0  0  0  0  0  2  0  0  0  0  0  0
  194.5770  171.1810  144.4150 C   0  0  0  0  0  0  0  0  0  0  0  0
  194.4490  171.9390  145.4130 O   0  0  0  0  0  0  0  0  0  0  0  0
  195.8410  170.4240  144.2240 C   0  0  0  0  0  1  0  0  0  0  0  0
  1 16  1  0  0  0  0
  1 20  1  0  0  0  0
  2 24  1  1  0  0  0
  2 27  1  0  0  0  0
  2 12  1  0  0  0  0
  3  4  1  0  0  0  0
  5 25  1  6  0  0  0
  5  6  1  0  0  0  0
  5 27  1  0  0  0  0
  6 28  1  0  0  0  0
  7 19  1  1  0  0  0
  7 24  1  0  0  0  0
  7 17  1  0  0  0  0
  8 17  1  0  0  0  0
  9 26  2  0  0  0  0
 10 20  1  0  0  0  0
 11  3  1  0  0  0  0
 12  8  1  6  0  0  0
 12 13  1  0  0  0  0
 13 22  1  0  0  0  0
 13 11  1  1  0  0  0
 14 23  1  1  0  0  0
 14 22  1  0  0  0  0
 15  9  1  0  0  0  0
 17 10  1  6  0  0  0
 18  6  2  0  0  0  0
 18 15  1  0  0  0  0
 19 16  1  0  0  0  0
 20 29  1  6  0  0  0
 21  4  1  0  0  0  0
 22 21  1  1  0  0  0
 27 14  1  0  0  0  0
 28  9  1  0  0  0  0
 28 23  1  0  0  0  0
 29 30  1  0  0  0  0
 30 31  2  0  0  0  0
 32 30  1  0  0  0  0
M  END
>  <MODEL>
4

>  <REMARK>
 VINA RESULT:      -8.2      1.334      1.442
  Name = 
  1 active torsions:
  status: ('A' for Active; 'I' for Inactive)
    1  A    between atoms: C_20  and  N_29
                            x       y       z     vdW  Elec       q    Type
                         _______ _______ _______ _____ _____    ______ ____

>  <TORSDO>
F 1

$$$$
=
 OpenBabel11112416323D

 32 37  0  0  1  0  0  0  0  0999 V2000
  187.6080  176.4560  146.8910 C   0  0  0  0  0  2  0  0  0  0  0  0
  192.4970  175.0820  144.6010 C   0  0  1  0  0  3  0  0  0  0  0  0
  189.4310  172.5820  141.4660 C   0  0  0  0  0  2  0  0  0  0  0  0
  190.4080  171.4110  141.4420 C   0  0  0  0  0  2  0  0  0  0  0  0
  194.4230  173.8880  145.7610 C   0  0  1  0  0  3  0  0  0  0  0  0
  195.2280  172.6210  145.7450 C   0  0  0  0  0  0  0  0  0  0  0  0
  190.7370  176.1880  145.9030 N   0  0  1  0  0  0  0  0  0  0  0  0
  190.6340  176.3030  143.4500 C   0  0  0  0  0  2  0  0  0  0  0  0
  195.7910  170.4820  145.3220 C   0  0  0  0  0  0  0  0  0  0  0  0
  188.7840  177.2670  144.8090 C   0  0  0  0  0  2  0  0  0  0  0  0
  190.1810  173.8870  141.7080 C   0  0  0  0  0  2  0  0  0  0  0  0
  191.6470  175.1570  143.3220 C   0  0  2  0  0  3  0  0  0  0  0  0
  190.9440  173.8200  143.0330 C   0  0  2  0  0  3  0  0  0  0  0  0
  192.7720  172.5720  144.2780 C   0  0  1  0  0  3  0  0  0  0  0  0
  196.9590  171.2620  145.4990 N   0  0  0  0  0  2  0  0  0  0  0  0
  188.7080  175.4580  147.2280 C   0  0  0  0  0  2  0  0  0  0  0  0
  189.8280  176.1630  144.7410 C   0  0  2  0  0  3  0  0  0  0  0  0
  196.5240  172.5690  145.7300 N   0  0  0  0  0  0  0  0  0  0  0  0
  190.0630  176.1680  147.2130 C   0  0  0  0  0  2  0  0  0  0  0  0
  187.4950  176.6990  145.3860 C   0  0  2  0  0  3  0  0  0  0  0  0
  191.1800  171.3440  142.7570 C   0  0  0  0  0  2  0  0  0  0  0  0
  191.9450  172.6510  142.9890 C   0  0  1  0  0  3  0  0  0  0  0  0
  193.7920  171.4260  144.1820 C   0  0  0  0  0  2  0  0  0  0  0  0
  191.6000  175.0090  145.8450 C   0  0  0  0  0  2  0  0  0  0  0  0
  195.3120  175.1250  145.8000 C   0  0  0  0  0  1  0  0  0  0  0  0
  195.8090  169.2470  145.0820 O   0  0  0  0  0  0  0  0  0  0  0  0
  193.4970  173.9190  144.5280 C   0  0  1  0  0  3  0  0  0  0  0  0
  194.5680  171.3060  145.4870 C   0  0  2  0  0  3  0  0  0  0  0  0
  186.4050  177.6260  145.1190 N   0  0  0  0  0  2  0  0  0  0  0  0
  185.5550  177.5080  143.9750 C   0  0  0  0  0  0  0  0  0  0  0  0
  185.7410  176.5940  143.1290 O   0  0  0  0  0  0  0  0  0  0  0  0
  184.4470  178.4780  143.7810 C   0  0  0  0  0  1  0  0  0  0  0  0
  1 16  1  0  0  0  0
  2 24  1  1  0  0  0
  3 11  1  0  0  0  0
  4  3  1  0  0  0  0
  4 21  1  0  0  0  0
  5 25  1  6  0  0  0
  6  5  1  0  0  0  0
  7 24  1  6  0  0  0
  7 19  1  0  0  0  0
  9 28  1  0  0  0  0
  9 15  1  0  0  0  0
 10 20  1  0  0  0  0
 12  8  1  1  0  0  0
 12  2  1  0  0  0  0
 13 11  1  6  0  0  0
 13 12  1  0  0  0  0
 14 23  1  6  0  0  0
 14 27  1  0  0  0  0
 15 18  1  0  0  0  0
 17  8  1  6  0  0  0
 17 10  1  0  0  0  0
 17  7  1  0  0  0  0
 18  6  2  0  0  0  0
 19 16  1  0  0  0  0
 20 29  1  1  0  0  0
 20  1  1  0  0  0  0
 22 21  1  1  0  0  0
 22 13  1  0  0  0  0
 22 14  1  0  0  0  0
 23 28  1  0  0  0  0
 26  9  2  0  0  0  0
 27  2  1  0  0  0  0
 27  5  1  0  0  0  0
 28  6  1  0  0  0  0
 30 29  1  0  0  0  0
 31 30  2  0  0  0  0
 32 30  1  0  0  0  0
M  END
>  <MODEL>
5

>  <REMARK>
 VINA RESULT:      -8.2      2.714      8.717
  Name = 
  1 active torsions:
  status: ('A' for Active; 'I' for Inactive)
    1  A    between atoms: C_20  and  N_29
                            x       y       z     vdW  Elec       q    Type
                         _______ _______ _______ _____ _____    ______ ____

>  <TORSDO>
F 1

$$$$
=
 OpenBabel11112416323D

 32 37  0  0  1  0  0  0  0  0999 V2000
  195.4850  174.1660  143.5140 C   0  0  0  0  0  2  0  0  0  0  0  0
  190.1020  174.6920  144.8450 C   0  0  1  0  0  3  0  0  0  0  0  0
  189.5980  172.1170  140.5330 C   0  0  0  0  0  2  0  0  0  0  0  0
  188.3930  172.9750  140.1600 C   0  0  0  0  0  2  0  0  0  0  0  0
  188.8440  176.8760  145.2090 C   0  0  1  0  0  3  0  0  0  0  0  0
  187.7300  177.7190  144.6610 C   0  0  0  0  0  0  0  0  0  0  0  0
  192.5510  174.6220  144.9370 N   0  0  1  0  0  0  0  0  0  0  0  0
  191.3290  172.5260  144.5400 C   0  0  0  0  0  2  0  0  0  0  0  0
  186.2130  178.5290  143.2070 C   0  0  0  0  0  0  0  0  0  0  0  0
  193.8180  172.5330  144.4770 C   0  0  0  0  0  2  0  0  0  0  0  0
  189.7160  172.0090  142.0490 C   0  0  0  0  0  2  0  0  0  0  0  0
  190.0510  173.3020  144.1900 C   0  0  2  0  0  3  0  0  0  0  0  0
  189.8590  173.4020  142.6680 C   0  0  2  0  0  3  0  0  0  0  0  0
  188.6970  175.6430  142.9470 C   0  0  1  0  0  3  0  0  0  0  0  0
  185.7770  178.7550  144.5350 N   0  0  0  0  0  2  0  0  0  0  0  0
  194.4600  175.2880  143.4140 C   0  0  0  0  0  2  0  0  0  0  0  0
  192.5670  173.3500  144.1890 C   0  0  2  0  0  3  0  0  0  0  0  0
  186.7550  178.2040  145.3660 N   0  0  0  0  0  0  0  0  0  0  0  0
  193.7540  175.4560  144.7600 C   0  0  0  0  0  2  0  0  0  0  0  0
  194.8420  172.7860  143.3800 C   0  0  2  0  0  3  0  0  0  0  0  0
  188.5230  174.3620  140.7820 C   0  0  0  0  0  2  0  0  0  0  0  0
  188.6260  174.2510  142.3060 C   0  0  1  0  0  3  0  0  0  0  0  0
  187.4320  176.4460  142.6060 C   0  0  0  0  0  2  0  0  0  0  0  0
  191.4080  175.4140  144.4860 C   0  0  0  0  0  2  0  0  0  0  0  0
  188.7230  176.6820  146.7150 C   0  0  0  0  0  1  0  0  0  0  0  0
  185.5630  178.8880  142.1910 O   0  0  0  0  0  0  0  0  0  0  0  0
  188.8570  175.5140  144.4830 C   0  0  1  0  0  3  0  0  0  0  0  0
  187.5330  177.8510  143.1870 C   0  0  2  0  0  3  0  0  0  0  0  0
  195.8700  171.7580  143.4430 N   0  0  0  0  0  2  0  0  0  0  0  0
  195.7950  170.5460  142.6880 C   0  0  0  0  0  0  0  0  0  0  0  0
  194.8030  170.3100  141.9480 O   0  0  0  0  0  0  0  0  0  0  0  0
  196.8940  169.5510  142.7840 C   0  0  0  0  0  1  0  0  0  0  0  0
  2 24  1  6  0  0  0
  3 11  1  0  0  0  0
  4  3  1  0  0  0  0
  4 21  1  0  0  0  0
  5 25  1  1  0  0  0
  6  5  1  0  0  0  0
  6 18  2  0  0  0  0
  7 24  1  6  0  0  0
  9 15  1  0  0  0  0
 12  8  1  6  0  0  0
 12  2  1  0  0  0  0
 13 11  1  1  0  0  0
 13 12  1  0  0  0  0
 14 23  1  1  0  0  0
 14 27  1  0  0  0  0
 15 18  1  0  0  0  0
 16  1  1  0  0  0  0
 16 19  1  0  0  0  0
 17 10  1  1  0  0  0
 17  8  1  0  0  0  0
 17  7  1  0  0  0  0
 19  7  1  0  0  0  0
 20 29  1  1  0  0  0
 20  1  1  0  0  0  0
 20 10  1  0  0  0  0
 22 21  1  6  0  0  0
 22 13  1  0  0  0  0
 22 14  1  0  0  0  0
 23 28  1  0  0  0  0
 26  9  2  0  0  0  0
 27  2  1  0  0  0  0
 27  5  1  0  0  0  0
 28  9  1  0  0  0  0
 28  6  1  0  0  0  0
 30 32  1  0  0  0  0
 30 29  1  0  0  0  0
 31 30  2  0  0  0  0
M  END
>  <MODEL>
6

>  <REMARK>
 VINA RESULT:      -7.7      2.269      4.451
  Name = 
  1 active torsions:
  status: ('A' for Active; 'I' for Inactive)
    1  A    between atoms: C_20  and  N_29
                            x       y       z     vdW  Elec       q    Type
                         _______ _______ _______ _____ _____    ______ ____

>  <TORSDO>
F 1

$$$$
=
 OpenBabel11112416323D

 32 37  0  0  1  0  0  0  0  0999 V2000
  187.1690  178.2000  143.4090 C   0  0  0  0  0  2  0  0  0  0  0  0
  191.2910  174.4710  143.0420 C   0  0  1  0  0  3  0  0  0  0  0  0
  192.7370  176.8270  147.2650 C   0  0  0  0  0  2  0  0  0  0  0  0
  194.1910  176.7520  146.8110 C   0  0  0  0  0  2  0  0  0  0  0  0
  192.9040  174.1920  141.0920 C   0  0  1  0  0  3  0  0  0  0  0  0
  194.3530  174.2980  140.7140 C   0  0  0  0  0  0  0  0  0  0  0  0
  189.1690  175.6680  142.7570 N   0  0  1  0  0  0  0  0  0  0  0  0
  189.6840  174.6920  144.9540 C   0  0  0  0  0  2  0  0  0  0  0  0
  196.5210  174.9000  140.8080 C   0  0  0  0  0  0  0  0  0  0  0  0
  187.6210  176.0560  144.6630 C   0  0  0  0  0  2  0  0  0  0  0  0
  191.9470  175.6560  146.6930 C   0  0  0  0  0  2  0  0  0  0  0  0
  191.1620  174.5340  144.5730 C   0  0  2  0  0  3  0  0  0  0  0  0
  192.0150  175.6700  145.1640 C   0  0  2  0  0  3  0  0  0  0  0  0
  193.6020  175.5260  143.1870 C   0  0  1  0  0  3  0  0  0  0  0  0
  196.3870  173.6880  140.0890 N   0  0  0  0  0  2  0  0  0  0  0  0
  188.4410  178.0850  142.5790 C   0  0  0  0  0  2  0  0  0  0  0  0
  189.0640  175.8770  144.2140 C   0  0  2  0  0  3  0  0  0  0  0  0
  195.0260  173.3750  140.1000 N   0  0  0  0  0  0  0  0  0  0  0  0
  188.5080  176.6980  141.9370 C   0  0  0  0  0  2  0  0  0  0  0  0
  187.3170  177.5430  144.7810 C   0  0  2  0  0  3  0  0  0  0  0  0
  194.2660  176.7550  145.2870 C   0  0  0  0  0  2  0  0  0  0  0  0
  193.4840  175.5680  144.7160 C   0  0  1  0  0  3  0  0  0  0  0  0
  195.0760  175.3770  142.7750 C   0  0  0  0  0  2  0  0  0  0  0  0
  190.5840  175.6660  142.3880 C   0  0  0  0  0  2  0  0  0  0  0  0
  192.2920  172.8750  140.6310 C   0  0  0  0  0  1  0  0  0  0  0  0
  197.6240  175.4730  141.0070 O   0  0  0  0  0  0  0  0  0  0  0  0
  192.7620  174.3540  142.6200 C   0  0  1  0  0  3  0  0  0  0  0  0
  195.1990  175.4030  141.2570 C   0  0  2  0  0  3  0  0  0  0  0  0
  186.0900  177.7180  145.5440 N   0  0  0  0  0  2  0  0  0  0  0  0
  186.0870  178.1070  146.9190 C   0  0  0  0  0  0  0  0  0  0  0  0
  187.1690  178.2910  147.5380 O   0  0  0  0  0  0  0  0  0  0  0  0
  184.7940  178.2910  147.6280 C   0  0  0  0  0  1  0  0  0  0  0  0
  1 20  1  0  0  0  0
  2 24  1  6  0  0  0
  2 12  1  0  0  0  0
  4  3  1  0  0  0  0
  5 25  1  1  0  0  0
  5 27  1  0  0  0  0
  6  5  1  0  0  0  0
  6 28  1  0  0  0  0
  7 19  1  6  0  0  0
  7 17  1  0  0  0  0
  9 26  2  0  0  0  0
  9 28  1  0  0  0  0
 10 20  1  0  0  0  0
 11  3  1  0  0  0  0
 12  8  1  6  0  0  0
 12 13  1  0  0  0  0
 13 11  1  1  0  0  0
 14 23  1  1  0  0  0
 14 22  1  0  0  0  0
 15 18  1  0  0  0  0
 15  9  1  0  0  0  0
 16  1  1  0  0  0  0
 17 10  1  1  0  0  0
 17  8  1  0  0  0  0
 18  6  2  0  0  0  0
 19 16  1  0  0  0  0
 20 29  1  1  0  0  0
 21  4  1  0  0  0  0
 22 13  1  0  0  0  0
 22 21  1  6  0  0  0
 24  7  1  0  0  0  0
 27  2  1  0  0  0  0
 27 14  1  0  0  0  0
 28 23  1  0  0  0  0
 29 30  1  0  0  0  0
 30 31  2  0  0  0  0
 30 32  1  0  0  0  0
M  END
>  <MODEL>
7

>  <REMARK>
 VINA RESULT:      -7.7      2.342      8.169
  Name = 
  1 active torsions:
  status: ('A' for Active; 'I' for Inactive)
    1  A    between atoms: C_20  and  N_29
                            x       y       z     vdW  Elec       q    Type
                         _______ _______ _______ _____ _____    ______ ____

>  <TORSDO>
F 1

$$$$
=
 OpenBabel11112416323D

 32 37  0  0  1  0  0  0  0  0999 V2000
  187.4220  178.2690  143.2990 C   0  0  0  0  0  2  0  0  0  0  0  0
  190.8320  173.8650  143.2740 C   0  0  1  0  0  3  0  0  0  0  0  0
  193.0200  176.5310  146.9590 C   0  0  0  0  0  2  0  0  0  0  0  0
  194.3950  176.1370  146.4300 C   0  0  0  0  0  2  0  0  0  0  0  0
  192.1950  173.0230  141.2940 C   0  0  1  0  0  3  0  0  0  0  0  0
  193.6010  172.8170  140.8120 C   0  0  0  0  0  0  0  0  0  0  0  0
  188.9160  175.3580  142.9370 N   0  0  1  0  0  0  0  0  0  0  0  0
  189.4630  174.6440  145.2250 C   0  0  0  0  0  2  0  0  0  0  0  0
  195.8370  173.0380  140.6670 C   0  0  0  0  0  0  0  0  0  0  0  0
  187.6310  176.2880  144.8510 C   0  0  0  0  0  2  0  0  0  0  0  0
  192.0010  175.4440  146.6350 C   0  0  0  0  0  2  0  0  0  0  0  0
  190.8550  174.1760  144.7790 C   0  0  2  0  0  3  0  0  0  0  0  0
  191.9310  175.2190  145.1220 C   0  0  2  0  0  3  0  0  0  0  0  0
  193.2880  174.5100  143.0970 C   0  0  1  0  0  3  0  0  0  0  0  0
  195.4440  171.7750  140.1630 N   0  0  0  0  0  2  0  0  0  0  0  0
  188.5770  177.8120  142.4180 C   0  0  0  0  0  2  0  0  0  0  0  0
  188.9800  175.7960  144.3440 C   0  0  2  0  0  3  0  0  0  0  0  0
  194.0560  171.7100  140.3120 N   0  0  0  0  0  0  0  0  0  0  0  0
  188.3590  176.3550  142.0060 C   0  0  0  0  0  2  0  0  0  0  0  0
  187.5840  177.8060  144.7470 C   0  0  2  0  0  3  0  0  0  0  0  0
  194.3300  175.9010  144.9240 C   0  0  0  0  0  2  0  0  0  0  0  0
  193.3180  174.7970  144.6040 C   0  0  1  0  0  3  0  0  0  0  0  0
  194.6740  174.0470  142.6200 C   0  0  0  0  0  2  0  0  0  0  0  0
  190.2720  175.0550  142.4820 C   0  0  0  0  0  2  0  0  0  0  0  0
  191.3370  171.7800  141.0920 C   0  0  0  0  0  1  0  0  0  0  0  0
  197.0320  173.4330  140.6990 O   0  0  0  0  0  0  0  0  0  0  0  0
  192.2200  173.4320  142.7810 C   0  0  1  0  0  3  0  0  0  0  0  0
  194.6610  173.8250  141.1130 C   0  0  2  0  0  3  0  0  0  0  0  0
  186.4770  178.3050  145.5480 N   0  0  0  0  0  2  0  0  0  0  0  0
  185.1110  178.1460  145.1590 C   0  0  0  0  0  0  0  0  0  0  0  0
  184.8140  177.5790  144.0730 O   0  0  0  0  0  0  0  0  0  0  0  0
  184.0310  178.6600  146.0400 C   0  0  0  0  0  1  0  0  0  0  0  0
  1 20  1  0  0  0  0
  2 24  1  6  0  0  0
  2 12  1  0  0  0  0
  4  3  1  0  0  0  0
  5 25  1  1  0  0  0
  5 27  1  0  0  0  0
  6 28  1  0  0  0  0
  6  5  1  0  0  0  0
  7 19  1  6  0  0  0
  7 17  1  0  0  0  0
  9 26  2  0  0  0  0
  9 28  1  0  0  0  0
 11  3  1  0  0  0  0
 12 13  1  0  0  0  0
 12  8  1  6  0  0  0
 13 11  1  1  0  0  0
 14 23  1  1  0  0  0
 14 22  1  0  0  0  0
 15 18  1  0  0  0  0
 15  9  1  0  0  0  0
 16  1  1  0  0  0  0
 17 10  1  1  0  0  0
 17  8  1  0  0  0  0
 18  6  2  0  0  0  0
 19 16  1  0  0  0  0
 20 10  1  0  0  0  0
 20 29  1  1  0  0  0
 21  4  1  0  0  0  0
 22 21  1  6  0  0  0
 22 13  1  0  0  0  0
 24  7  1  0  0  0  0
 27 14  1  0  0  0  0
 27  2  1  0  0  0  0
 28 23  1  0  0  0  0
 30 29  1  0  0  0  0
 30 32  1  0  0  0  0
 31 30  2  0  0  0  0
M  END
>  <MODEL>
8

>  <REMARK>
 VINA RESULT:      -7.3      1.922      8.241
  Name = 
  1 active torsions:
  status: ('A' for Active; 'I' for Inactive)
    1  A    between atoms: C_20  and  N_29
                            x       y       z     vdW  Elec       q    Type
                         _______ _______ _______ _____ _____    ______ ____

>  <TORSDO>
F 1

$$$$
=
 OpenBabel11112416323D

 32 37  0  0  1  0  0  0  0  0999 V2000
  190.3500  171.5870  143.2020 C   0  0  0  0  0  2  0  0  0  0  0  0
  188.3210  176.6040  141.8810 C   0  0  1  0  0  3  0  0  0  0  0  0
  189.3210  177.4200  146.7610 C   0  0  0  0  0  2  0  0  0  0  0  0
  188.0260  178.2160  146.8950 C   0  0  0  0  0  2  0  0  0  0  0  0
  186.0110  177.0940  140.9290 C   0  0  1  0  0  3  0  0  0  0  0  0
  184.7160  177.7880  141.2320 C   0  0  0  0  0  0  0  0  0  0  0  0
  189.2760  174.3480  141.7660 N   0  0  1  0  0  0  0  0  0  0  0  0
  190.6190  176.1430  142.7720 C   0  0  0  0  0  2  0  0  0  0  0  0
  183.0700  178.7620  142.4210 C   0  0  0  0  0  0  0  0  0  0  0  0
  191.4790  173.8060  142.7830 C   0  0  0  0  0  2  0  0  0  0  0  0
  189.8580  177.5260  145.3380 C   0  0  0  0  0  2  0  0  0  0  0  0
  189.3790  177.0370  142.9100 C   0  0  2  0  0  3  0  0  0  0  0  0
  188.8210  177.0020  144.3420 C   0  0  2  0  0  3  0  0  0  0  0  0
  186.4720  177.3730  143.4520 C   0  0  1  0  0  3  0  0  0  0  0  0
  183.0610  179.2540  141.0930 N   0  0  0  0  0  2  0  0  0  0  0  0
  188.9540  172.1590  142.9960 C   0  0  0  0  0  2  0  0  0  0  0  0
  190.2260  174.6680  142.8480 C   0  0  2  0  0  3  0  0  0  0  0  0
  184.1210  178.6220  140.4370 N   0  0  0  0  0  0  0  0  0  0  0  0
  188.9070  172.9240  141.6720 C   0  0  0  0  0  2  0  0  0  0  0  0
  191.3260  172.6330  143.7400 C   0  0  2  0  0  3  0  0  0  0  0  0
  186.9910  177.7050  145.8970 C   0  0  0  0  0  2  0  0  0  0  0  0
  187.5280  177.8270  144.4680 C   0  0  1  0  0  3  0  0  0  0  0  0
  185.2130  178.2460  143.5720 C   0  0  0  0  0  2  0  0  0  0  0  0
  188.0420  175.0980  141.9920 C   0  0  0  0  0  2  0  0  0  0  0  0
  186.5380  177.4520  139.5440 C   0  0  0  0  0  1  0  0  0  0  0  0
  182.2500  179.1290  143.3030 O   0  0  0  0  0  0  0  0  0  0  0  0
  187.0470  177.4500  142.0150 C   0  0  1  0  0  3  0  0  0  0  0  0
  184.1400  177.7520  142.6100 C   0  0  2  0  0  3  0  0  0  0  0  0
  192.6300  172.0230  143.9570 N   0  0  0  0  0  2  0  0  0  0  0  0
  193.4510  172.3380  145.0840 C   0  0  0  0  0  0  0  0  0  0  0  0
  193.0770  173.1910  145.9320 O   0  0  0  0  0  0  0  0  0  0  0  0
  194.7600  171.6570  145.2520 C   0  0  0  0  0  1  0  0  0  0  0  0
  1 20  1  0  0  0  0
  2 24  1  1  0  0  0
  2 27  1  0  0  0  0
  2 12  1  0  0  0  0
  3  4  1  0  0  0  0
  5 25  1  6  0  0  0
  5  6  1  0  0  0  0
  5 27  1  0  0  0  0
  6 28  1  0  0  0  0
  7 19  1  1  0  0  0
  7 24  1  0  0  0  0
  7 17  1  0  0  0  0
  9 28  1  0  0  0  0
  9 26  2  0  0  0  0
 10 17  1  0  0  0  0
 10 20  1  0  0  0  0
 11  3  1  0  0  0  0
 12  8  1  1  0  0  0
 12 13  1  0  0  0  0
 13 22  1  0  0  0  0
 13 11  1  1  0  0  0
 14 23  1  6  0  0  0
 14 22  1  0  0  0  0
 15  9  1  0  0  0  0
 16  1  1  0  0  0  0
 17  8  1  6  0  0  0
 18 15  1  0  0  0  0
 18  6  2  0  0  0  0
 19 16  1  0  0  0  0
 20 29  1  6  0  0  0
 21  4  1  0  0  0  0
 22 21  1  1  0  0  0
 27 14  1  0  0  0  0
 28 23  1  0  0  0  0
 29 30  1  0  0  0  0
 30 32  1  0  0  0  0
 30 31  2  0  0  0  0
M  END
>  <MODEL>
9

>  <REMARK>
 VINA RESULT:      -7.1      2.122      2.683
  Name = 
  1 active torsions:
  status: ('A' for Active; 'I' for Inactive)
    1  A    between atoms: C_20  and  N_29
                            x       y       z     vdW  Elec       q    Type
                         _______ _______ _______ _____ _____    ______ ____

>  <TORSDO>
F 1

$$$$
