=
 OpenBabel11112417503D

 34 40  0  0  1  0  0  0  0  0999 V2000
  189.1300  175.3040  142.6780 C   0  0  2  0  0  3  0  0  0  0  0  0
  190.9170  173.6530  142.0710 C   0  0  0  0  0  2  0  0  0  0  0  0
  185.9020  179.0570  147.3480 C   0  0  0  0  0  0  0  0  0  0  0  0
  187.1450  176.5050  143.6530 C   0  0  0  0  0  0  0  0  0  0  0  0
  187.4270  177.7780  145.8270 C   0  0  1  0  0  3  0  0  0  0  0  0
  186.3110  176.7350  147.7080 O   0  0  0  0  0  1  0  0  0  0  0  0
  186.1570  180.0020  148.1390 O   0  0  0  0  0  0  0  0  0  0  0  0
  184.3090  178.0680  145.7110 C   0  0  0  0  0  2  0  0  0  0  0  0
  190.3840  173.8780  144.4410 C   0  0  2  0  0  3  0  0  0  0  0  0
  193.1130  174.2240  146.1790 C   0  0  0  0  0  2  0  0  0  0  0  0
  188.8280  177.1410  145.8770 C   0  0  0  0  0  2  0  0  0  0  0  0
  185.2530  177.9570  144.5250 C   0  0  0  0  0  2  0  0  0  0  0  0
  190.3010  175.1940  145.2460 C   0  0  1  0  0  3  0  0  0  0  0  0
  191.8720  172.7820  142.8510 C   0  0  0  0  0  2  0  0  0  0  0  0
  186.4390  177.0620  144.8750 C   0  0  1  0  0  3  0  0  0  0  0  0
  184.7250  179.1050  146.5940 O   0  0  0  0  0  0  0  0  0  0  0  0
  192.9540  174.1820  144.6640 C   0  0  2  0  0  3  0  0  0  0  0  0
  188.3020  175.8230  143.8420 C   0  0  0  0  0  0  0  0  0  0  0  0
  186.8780  177.9260  147.2460 C   0  0  2  0  0  3  0  0  0  0  0  0
  188.8710  175.7470  145.2410 C   0  0  2  0  0  3  0  0  0  0  0  0
  187.5230  176.4450  141.1580 C   0  0  0  0  0  2  0  0  0  0  0  0
  192.2400  175.2990  146.8060 C   0  0  0  0  0  2  0  0  0  0  0  0
  186.5090  176.6050  142.2820 C   0  0  0  0  0  2  0  0  0  0  0  0
  190.7630  174.9650  146.6780 C   0  0  0  0  0  2  0  0  0  0  0  0
  191.7850  173.2490  144.2970 C   0  0  1  0  0  3  0  0  0  0  0  0
  188.3170  175.1720  141.3910 C   0  0  0  0  0  2  0  0  0  0  0  0
  189.7850  173.9630  143.0270 C   0  0  1  0  0  3  0  0  0  0  0  0
  194.1490  173.7170  144.1080 O   0  0  0  0  0  0  0  0  0  0  0  0
  195.0790  174.7290  144.3630 C   0  0  0  0  0  2  0  0  0  0  0  0
  196.3010  176.6910  141.7810 C   0  0  0  0  0  2  0  0  0  0  0  0
  197.2130  175.6320  143.6010 N   0  0  0  0  0  2  0  0  0  0  0  0
  196.0590  174.8300  143.2080 C   0  0  2  0  0  3  0  0  0  0  0  0
  197.0770  176.8940  142.9920 N   0  0  0  0  0  2  0  0  0  0  0  0
  195.3990  175.5250  142.0490 C   0  0  0  0  0  2  0  0  0  0  0  0
  1 26  1  6  0  0  0
  1 27  1  0  0  0  0
  1 18  1  0  0  0  0
  2 14  1  0  0  0  0
  2 27  1  0  0  0  0
  3  7  2  0  0  0  0
  4 18  2  0  0  0  0
  4 15  1  0  0  0  0
  5 11  1  1  0  0  0
  5 19  1  0  0  0  0
  8 16  1  0  0  0  0
  9 13  1  0  0  0  0
 10 22  1  0  0  0  0
 12 15  1  0  0  0  0
 12  8  1  0  0  0  0
 13 24  1  0  0  0  0
 14 25  1  0  0  0  0
 15  5  1  0  0  0  0
 16  3  1  0  0  0  0
 17 10  1  0  0  0  0
 18 20  1  0  0  0  0
 19  3  1  0  0  0  0
 19  6  1  0  0  0  0
 20 13  1  0  0  0  0
 20 11  1  0  0  0  0
 21 26  1  0  0  0  0
 21 23  1  0  0  0  0
 23  4  1  0  0  0  0
 24 22  1  0  0  0  0
 25  9  1  0  0  0  0
 25 17  1  0  0  0  0
 27  9  1  0  0  0  0
 28 29  1  0  0  0  0
 28 17  1  0  0  0  0
 30 34  1  0  0  0  0
 30 33  1  0  0  0  0
 32 31  1  0  0  0  0
 32 29  1  0  0  0  0
 33 31  1  0  0  0  0
 34 32  1  0  0  0  0
M  END
>  <MODEL>
1

>  <REMARK>
 VINA RESULT:      -9.4      0.000      0.000
  Name = 
  3 active torsions:
  status: ('A' for Active; 'I' for Inactive)
    1  A    between atoms: C_17  and  O_28
    2  A    between atoms: O_28  and  C_29
    3  A    between atoms: C_29  and  C_32
                            x       y       z     vdW  Elec       q    Type
                         _______ _______ _______ _____ _____    ______ ____

>  <TORSDO>
F 3

$$$$
=
 OpenBabel11112417503D

 34 40  0  0  1  0  0  0  0  0999 V2000
  188.9880  175.4560  142.4840 C   0  0  2  0  0  3  0  0  0  0  0  0
  190.7460  173.8180  141.7690 C   0  0  0  0  0  2  0  0  0  0  0  0
  185.9010  179.0410  147.3760 C   0  0  0  0  0  0  0  0  0  0  0  0
  187.0360  176.6310  143.5520 C   0  0  0  0  0  0  0  0  0  0  0  0
  187.3800  177.8130  145.7690 C   0  0  1  0  0  3  0  0  0  0  0  0
  186.2980  176.7030  147.6310 O   0  0  0  0  0  1  0  0  0  0  0  0
  186.1820  179.9500  148.1980 O   0  0  0  0  0  0  0  0  0  0  0  0
  184.2630  178.1320  145.7380 C   0  0  0  0  0  2  0  0  0  0  0  0
  190.2700  173.9500  144.1580 C   0  0  2  0  0  3  0  0  0  0  0  0
  193.0410  174.2030  145.8450 C   0  0  0  0  0  2  0  0  0  0  0  0
  188.7760  177.1630  145.7610 C   0  0  0  0  0  2  0  0  0  0  0  0
  185.1780  178.0610  144.5260 C   0  0  0  0  0  2  0  0  0  0  0  0
  190.2170  175.2320  145.0170 C   0  0  1  0  0  3  0  0  0  0  0  0
  191.7120  172.9080  142.4900 C   0  0  0  0  0  2  0  0  0  0  0  0
  186.3630  177.1440  144.8120 C   0  0  1  0  0  3  0  0  0  0  0  0
  184.7080  179.1280  146.6520 O   0  0  0  0  0  0  0  0  0  0  0  0
  192.8470  174.2250  144.3330 C   0  0  2  0  0  3  0  0  0  0  0  0
  188.1920  175.9340  143.6860 C   0  0  0  0  0  0  0  0  0  0  0  0
  186.8640  177.9070  147.2050 C   0  0  2  0  0  3  0  0  0  0  0  0
  188.7920  175.7960  145.0680 C   0  0  2  0  0  3  0  0  0  0  0  0
  187.3580  176.6710  141.0490 C   0  0  0  0  0  2  0  0  0  0  0  0
  192.1920  175.2590  146.5350 C   0  0  0  0  0  2  0  0  0  0  0  0
  186.3700  176.7930  142.2020 C   0  0  0  0  0  2  0  0  0  0  0  0
  190.7090  174.9410  146.4280 C   0  0  0  0  0  2  0  0  0  0  0  0
  191.6610  173.3160  143.9560 C   0  0  1  0  0  3  0  0  0  0  0  0
  188.1460  175.3840  141.2110 C   0  0  0  0  0  2  0  0  0  0  0  0
  189.6390  174.0970  142.7630 C   0  0  1  0  0  3  0  0  0  0  0  0
  194.0250  173.7730  143.7320 O   0  0  0  0  0  0  0  0  0  0  0  0
  195.0270  174.6040  144.2400 C   0  0  0  0  0  2  0  0  0  0  0  0
  196.9060  172.3330  146.0640 C   0  0  0  0  0  2  0  0  0  0  0  0
  196.1360  172.4570  143.9050 N   0  0  0  0  0  2  0  0  0  0  0  0
  196.3330  173.8360  144.3400 C   0  0  2  0  0  3  0  0  0  0  0  0
  196.1090  171.6510  145.0600 N   0  0  0  0  0  2  0  0  0  0  0  0
  196.7840  173.7990  145.7740 C   0  0  0  0  0  2  0  0  0  0  0  0
  1 26  1  6  0  0  0
  1 27  1  0  0  0  0
  1 18  1  0  0  0  0
  2 14  1  0  0  0  0
  2 27  1  0  0  0  0
  3  7  2  0  0  0  0
  4 18  2  0  0  0  0
  4 15  1  0  0  0  0
  5 11  1  1  0  0  0
  5 19  1  0  0  0  0
  8 16  1  0  0  0  0
  9 13  1  0  0  0  0
 10 22  1  0  0  0  0
 12 15  1  0  0  0  0
 12  8  1  0  0  0  0
 13 20  1  0  0  0  0
 13 24  1  0  0  0  0
 14 25  1  0  0  0  0
 15  5  1  0  0  0  0
 16  3  1  0  0  0  0
 17 10  1  0  0  0  0
 18 20  1  0  0  0  0
 19  3  1  0  0  0  0
 19  6  1  0  0  0  0
 20 11  1  0  0  0  0
 21 26  1  0  0  0  0
 21 23  1  0  0  0  0
 23  4  1  0  0  0  0
 24 22  1  0  0  0  0
 25  9  1  0  0  0  0
 25 17  1  0  0  0  0
 27  9  1  0  0  0  0
 28 29  1  0  0  0  0
 28 17  1  0  0  0  0
 29 32  1  0  0  0  0
 31 32  1  0  0  0  0
 31 33  1  0  0  0  0
 32 34  1  0  0  0  0
 33 30  1  0  0  0  0
 34 30  1  0  0  0  0
M  END
>  <MODEL>
2

>  <REMARK>
 VINA RESULT:      -9.2      1.267      1.755
  Name = 
  3 active torsions:
  status: ('A' for Active; 'I' for Inactive)
    1  A    between atoms: C_17  and  O_28
    2  A    between atoms: O_28  and  C_29
    3  A    between atoms: C_29  and  C_32
                            x       y       z     vdW  Elec       q    Type
                         _______ _______ _______ _____ _____    ______ ____

>  <TORSDO>
F 3

$$$$
=
 OpenBabel11112417503D

 34 40  0  0  1  0  0  0  0  0999 V2000
  189.4870  174.5420  144.9130 C   0  0  2  0  0  3  0  0  0  0  0  0
  191.3550  172.9750  144.3300 C   0  0  0  0  0  2  0  0  0  0  0  0
  184.2820  178.4900  143.0080 C   0  0  0  0  0  0  0  0  0  0  0  0
  187.9210  176.4990  145.1320 C   0  0  0  0  0  0  0  0  0  0  0  0
  186.0620  176.7780  143.4310 C   0  0  1  0  0  3  0  0  0  0  0  0
  186.4030  178.6480  141.9270 O   0  0  0  0  0  1  0  0  0  0  0  0
  183.1590  178.3670  142.4550 O   0  0  0  0  0  0  0  0  0  0  0  0
  185.6220  179.5550  144.8150 C   0  0  0  0  0  2  0  0  0  0  0  0
  190.3800  174.2570  142.4980 C   0  0  2  0  0  3  0  0  0  0  0  0
  189.6920  172.2950  139.9940 C   0  0  0  0  0  2  0  0  0  0  0  0
  186.7410  175.6190  142.6780 C   0  0  0  0  0  2  0  0  0  0  0  0
  186.1530  178.2900  145.4700 C   0  0  0  0  0  2  0  0  0  0  0  0
  188.8780  174.3840  142.1610 C   0  0  1  0  0  3  0  0  0  0  0  0
  192.0040  172.5220  143.0440 C   0  0  0  0  0  2  0  0  0  0  0  0
  186.9710  177.4790  144.4690 C   0  0  1  0  0  3  0  0  0  0  0  0
  184.3940  179.3000  144.1430 O   0  0  0  0  0  0  0  0  0  0  0  0
  190.1870  171.9170  141.3850 C   0  0  2  0  0  3  0  0  0  0  0  0
  188.5840  175.6200  144.3400 C   0  0  0  0  0  0  0  0  0  0  0  0
  185.4500  177.7550  142.4270 C   0  0  2  0  0  3  0  0  0  0  0  0
  188.2630  175.6010  142.8620 C   0  0  2  0  0  3  0  0  0  0  0  0
  188.7670  175.2860  147.1770 C   0  0  0  0  0  2  0  0  0  0  0  0
  188.4230  173.1290  140.0570 C   0  0  0  0  0  2  0  0  0  0  0  0
  188.2060  176.5860  146.6170 C   0  0  0  0  0  2  0  0  0  0  0  0
  188.6850  174.5020  140.6550 C   0  0  0  0  0  2  0  0  0  0  0  0
  191.1110  173.0280  141.9200 C   0  0  1  0  0  3  0  0  0  0  0  0
  189.9550  174.8610  146.3330 C   0  0  0  0  0  2  0  0  0  0  0  0
  190.6950  174.2970  144.0030 C   0  0  1  0  0  3  0  0  0  0  0  0
  190.8760  170.7040  141.2930 O   0  0  0  0  0  0  0  0  0  0  0  0
  191.1140  170.5320  139.9280 C   0  0  0  0  0  2  0  0  0  0  0  0
  191.1910  168.1720  137.3900 C   0  0  0  0  0  2  0  0  0  0  0  0
  192.3030  168.4750  139.3750 N   0  0  0  0  0  2  0  0  0  0  0  0
  190.9810  169.0640  139.5620 C   0  0  2  0  0  3  0  0  0  0  0  0
  192.5050  168.3250  137.9890 N   0  0  0  0  0  2  0  0  0  0  0  0
  190.2390  168.9360  138.2610 C   0  0  0  0  0  2  0  0  0  0  0  0
  1 26  1  1  0  0  0
  3 16  1  0  0  0  0
  4 23  1  0  0  0  0
  5 11  1  6  0  0  0
  5 15  1  0  0  0  0
  6 19  1  0  0  0  0
  7  3  2  0  0  0  0
  8 12  1  0  0  0  0
  9 27  1  0  0  0  0
 10 22  1  0  0  0  0
 10 17  1  0  0  0  0
 11 20  1  0  0  0  0
 13  9  1  0  0  0  0
 13 20  1  0  0  0  0
 14  2  1  0  0  0  0
 15  4  1  0  0  0  0
 15 12  1  0  0  0  0
 16  8  1  0  0  0  0
 17 25  1  0  0  0  0
 18  1  1  0  0  0  0
 18  4  2  0  0  0  0
 19  3  1  0  0  0  0
 19  5  1  0  0  0  0
 20 18  1  0  0  0  0
 22 24  1  0  0  0  0
 23 21  1  0  0  0  0
 24 13  1  0  0  0  0
 25  9  1  0  0  0  0
 25 14  1  0  0  0  0
 26 21  1  0  0  0  0
 27  2  1  0  0  0  0
 27  1  1  0  0  0  0
 28 17  1  0  0  0  0
 29 28  1  0  0  0  0
 30 33  1  0  0  0  0
 30 34  1  0  0  0  0
 31 32  1  0  0  0  0
 32 29  1  0  0  0  0
 33 31  1  0  0  0  0
 34 32  1  0  0  0  0
M  END
>  <MODEL>
3

>  <REMARK>
 VINA RESULT:      -8.7      3.650      5.559
  Name = 
  3 active torsions:
  status: ('A' for Active; 'I' for Inactive)
    1  A    between atoms: C_17  and  O_28
    2  A    between atoms: O_28  and  C_29
    3  A    between atoms: C_29  and  C_32
                            x       y       z     vdW  Elec       q    Type
                         _______ _______ _______ _____ _____    ______ ____

>  <TORSDO>
F 3

$$$$
=
 OpenBabel11112417503D

 34 40  0  0  1  0  0  0  0  0999 V2000
  191.0840  175.5020  146.0740 C   0  0  2  0  0  3  0  0  0  0  0  0
  193.4440  175.2680  146.8880 C   0  0  0  0  0  2  0  0  0  0  0  0
  186.6690  177.1960  141.1800 C   0  0  0  0  0  0  0  0  0  0  0  0
  188.8760  176.3250  145.1900 C   0  0  0  0  0  0  0  0  0  0  0  0
  188.5130  176.4120  142.6830 C   0  0  1  0  0  3  0  0  0  0  0  0
  188.4430  178.6660  141.7950 O   0  0  0  0  0  1  0  0  0  0  0  0
  186.3620  176.8250  140.0170 O   0  0  0  0  0  0  0  0  0  0  0  0
  185.8750  177.9330  143.4200 C   0  0  0  0  0  2  0  0  0  0  0  0
  193.1000  176.6030  144.8750 C   0  0  2  0  0  3  0  0  0  0  0  0
  195.1890  175.6930  142.5520 C   0  0  0  0  0  2  0  0  0  0  0  0
  190.0090  176.0600  142.5760 C   0  0  0  0  0  2  0  0  0  0  0  0
  186.5790  176.8810  144.2610 C   0  0  0  0  0  2  0  0  0  0  0  0
  192.3020  176.1870  143.6200 C   0  0  1  0  0  3  0  0  0  0  0  0
  194.7980  175.6860  146.3660 C   0  0  0  0  0  2  0  0  0  0  0  0
  188.0900  176.9690  144.0640 C   0  0  1  0  0  3  0  0  0  0  0  0
  185.6470  177.4570  142.0990 O   0  0  0  0  0  0  0  0  0  0  0  0
  194.9530  175.0560  143.9160 C   0  0  2  0  0  3  0  0  0  0  0  0
  190.2200  176.2100  145.0440 C   0  0  0  0  0  0  0  0  0  0  0  0
  188.1180  177.3330  141.5280 C   0  0  2  0  0  3  0  0  0  0  0  0
  190.8390  176.6330  143.7310 C   0  0  2  0  0  3  0  0  0  0  0  0
  188.9860  174.9070  147.2750 C   0  0  0  0  0  2  0  0  0  0  0  0
  193.9010  175.7950  141.7500 C   0  0  0  0  0  2  0  0  0  0  0  0
  188.1920  175.9380  146.4850 C   0  0  0  0  0  2  0  0  0  0  0  0
  192.9330  176.7890  142.3720 C   0  0  0  0  0  2  0  0  0  0  0  0
  194.5730  176.1490  144.9330 C   0  0  1  0  0  3  0  0  0  0  0  0
  190.4100  175.4080  147.4420 C   0  0  0  0  0  2  0  0  0  0  0  0
  192.4500  176.1830  146.2050 C   0  0  1  0  0  3  0  0  0  0  0  0
  196.1270  174.4060  144.3070 O   0  0  0  0  0  0  0  0  0  0  0  0
  195.8770  173.0500  144.0820 C   0  0  0  0  0  2  0  0  0  0  0  0
  194.5660  170.3180  145.7630 C   0  0  0  0  0  2  0  0  0  0  0  0
  196.6670  171.1810  145.4350 N   0  0  0  0  0  2  0  0  0  0  0  0
  195.7570  172.3210  145.4080 C   0  0  2  0  0  3  0  0  0  0  0  0
  195.8930  170.0190  145.2530 N   0  0  0  0  0  2  0  0  0  0  0  0
  194.3600  171.7890  145.5630 C   0  0  0  0  0  2  0  0  0  0  0  0
  1 27  1  0  0  0  0
  1 26  1  1  0  0  0
  3 19  1  0  0  0  0
  3 16  1  0  0  0  0
  4 23  1  0  0  0  0
  5 11  1  1  0  0  0
  5 15  1  0  0  0  0
  7  3  2  0  0  0  0
  8 12  1  0  0  0  0
  9 25  1  0  0  0  0
  9 27  1  0  0  0  0
 10 17  1  0  0  0  0
 11 20  1  0  0  0  0
 13 20  1  0  0  0  0
 13  9  1  0  0  0  0
 14  2  1  0  0  0  0
 15 12  1  0  0  0  0
 15  4  1  0  0  0  0
 16  8  1  0  0  0  0
 17 28  1  0  0  0  0
 17 25  1  0  0  0  0
 18  4  2  0  0  0  0
 18  1  1  0  0  0  0
 19  6  1  0  0  0  0
 19  5  1  0  0  0  0
 20 18  1  0  0  0  0
 21 26  1  0  0  0  0
 22 24  1  0  0  0  0
 22 10  1  0  0  0  0
 23 21  1  0  0  0  0
 24 13  1  0  0  0  0
 25 14  1  0  0  0  0
 27  2  1  0  0  0  0
 29 28  1  0  0  0  0
 29 32  1  0  0  0  0
 32 31  1  0  0  0  0
 32 34  1  0  0  0  0
 33 31  1  0  0  0  0
 33 30  1  0  0  0  0
 34 30  1  0  0  0  0
M  END
>  <MODEL>
4

>  <REMARK>
 VINA RESULT:      -8.5      2.801      4.800
  Name = 
  3 active torsions:
  status: ('A' for Active; 'I' for Inactive)
    1  A    between atoms: C_17  and  O_28
    2  A    between atoms: O_28  and  C_29
    3  A    between atoms: C_29  and  C_32
                            x       y       z     vdW  Elec       q    Type
                         _______ _______ _______ _____ _____    ______ ____

>  <TORSDO>
F 3

$$$$
=
 OpenBabel11112417503D

 34 40  0  0  1  0  0  0  0  0999 V2000
  192.0630  176.3370  145.8650 C   0  0  2  0  0  3  0  0  0  0  0  0
  190.0040  177.4600  146.7520 C   0  0  0  0  0  2  0  0  0  0  0  0
  195.0020  171.8940  141.6300 C   0  0  0  0  0  0  0  0  0  0  0  0
  193.8420  174.7010  145.1640 C   0  0  0  0  0  0  0  0  0  0  0  0
  193.6840  173.6230  142.8750 C   0  0  1  0  0  3  0  0  0  0  0  0
  193.1200  171.2670  142.9550 O   0  0  0  0  0  1  0  0  0  0  0  0
  195.1460  171.7260  140.3910 O   0  0  0  0  0  0  0  0  0  0  0  0
  196.0500  171.8350  143.8870 C   0  0  0  0  0  2  0  0  0  0  0  0
  189.6710  175.4480  145.4130 C   0  0  2  0  0  3  0  0  0  0  0  0
  187.3990  175.9730  143.1430 C   0  0  0  0  0  2  0  0  0  0  0  0
  192.2990  174.2920  142.7890 C   0  0  0  0  0  2  0  0  0  0  0  0
  195.7520  173.2650  144.3060 C   0  0  0  0  0  2  0  0  0  0  0  0
  190.2770  175.1570  144.0220 C   0  0  1  0  0  3  0  0  0  0  0  0
  188.5180  177.2540  146.5790 C   0  0  0  0  0  2  0  0  0  0  0  0
  194.2460  173.5120  144.3130 C   0  0  1  0  0  3  0  0  0  0  0  0
  196.1080  171.7240  142.4690 O   0  0  0  0  0  0  0  0  0  0  0  0
  188.0200  176.9740  144.1100 C   0  0  2  0  0  3  0  0  0  0  0  0
  192.5470  175.1040  145.1200 C   0  0  0  0  0  0  0  0  0  0  0  0
  193.6510  172.2780  142.1480 C   0  0  2  0  0  3  0  0  0  0  0  0
  191.6110  174.4140  144.1530 C   0  0  2  0  0  3  0  0  0  0  0  0
  194.4300  176.7520  146.5130 C   0  0  0  0  0  2  0  0  0  0  0  0
  188.4580  175.2540  142.3220 C   0  0  0  0  0  2  0  0  0  0  0  0
  194.8290  175.3350  146.1220 C   0  0  0  0  0  2  0  0  0  0  0  0
  189.3060  174.3340  143.1870 C   0  0  0  0  0  2  0  0  0  0  0  0
  188.3610  176.2630  145.4340 C   0  0  1  0  0  3  0  0  0  0  0  0
  192.9950  176.7380  147.0080 C   0  0  0  0  0  2  0  0  0  0  0  0
  190.6390  176.1330  146.3930 C   0  0  1  0  0  3  0  0  0  0  0  0
  187.1010  178.0050  144.3270 O   0  0  0  0  0  0  0  0  0  0  0  0
  185.8610  177.4530  143.9960 C   0  0  0  0  0  2  0  0  0  0  0  0
  185.0300  178.2630  147.2620 C   0  0  0  0  0  2  0  0  0  0  0  0
  185.0670  179.3830  145.2590 N   0  0  0  0  0  2  0  0  0  0  0  0
  184.7930  177.9880  144.9320 C   0  0  2  0  0  3  0  0  0  0  0  0
  185.5790  179.4160  146.5710 N   0  0  0  0  0  2  0  0  0  0  0  0
  184.8160  177.2080  146.2180 C   0  0  0  0  0  2  0  0  0  0  0  0
  1 27  1  0  0  0  0
  1 26  1  1  0  0  0
  3 19  1  0  0  0  0
  3 16  1  0  0  0  0
  4 23  1  0  0  0  0
  5 11  1  1  0  0  0
  5 15  1  0  0  0  0
  7  3  2  0  0  0  0
  8 12  1  0  0  0  0
  9 25  1  0  0  0  0
  9 27  1  0  0  0  0
 10 17  1  0  0  0  0
 11 20  1  0  0  0  0
 12 15  1  0  0  0  0
 13 20  1  0  0  0  0
 13  9  1  0  0  0  0
 14  2  1  0  0  0  0
 15  4  1  0  0  0  0
 16  8  1  0  0  0  0
 17 28  1  0  0  0  0
 17 25  1  0  0  0  0
 18  4  2  0  0  0  0
 18  1  1  0  0  0  0
 19  5  1  0  0  0  0
 19  6  1  0  0  0  0
 20 18  1  0  0  0  0
 21 26  1  0  0  0  0
 22 10  1  0  0  0  0
 22 24  1  0  0  0  0
 23 21  1  0  0  0  0
 24 13  1  0  0  0  0
 25 14  1  0  0  0  0
 27  2  1  0  0  0  0
 29 28  1  0  0  0  0
 29 32  1  0  0  0  0
 31 33  1  0  0  0  0
 32 31  1  0  0  0  0
 32 34  1  0  0  0  0
 33 30  1  0  0  0  0
 34 30  1  0  0  0  0
M  END
>  <MODEL>
5

>  <REMARK>
 VINA RESULT:      -8.4      3.554      8.978
  Name = 
  3 active torsions:
  status: ('A' for Active; 'I' for Inactive)
    1  A    between atoms: C_17  and  O_28
    2  A    between atoms: O_28  and  C_29
    3  A    between atoms: C_29  and  C_32
                            x       y       z     vdW  Elec       q    Type
                         _______ _______ _______ _____ _____    ______ ____

>  <TORSDO>
F 3

$$$$
=
 OpenBabel11112417503D

 34 40  0  0  1  0  0  0  0  0999 V2000
  191.9550  176.1580  145.7620 C   0  0  2  0  0  3  0  0  0  0  0  0
  189.9000  177.5390  146.1570 C   0  0  0  0  0  2  0  0  0  0  0  0
  194.9680  170.7140  143.0070 C   0  0  0  0  0  0  0  0  0  0  0  0
  193.6860  174.3360  145.6430 C   0  0  0  0  0  0  0  0  0  0  0  0
  193.6550  172.7410  143.6730 C   0  0  1  0  0  3  0  0  0  0  0  0
  192.9490  170.4980  144.2590 O   0  0  0  0  0  1  0  0  0  0  0  0
  195.2030  170.2440  141.8640 O   0  0  0  0  0  0  0  0  0  0  0  0
  195.8200  171.1650  145.3020 C   0  0  0  0  0  2  0  0  0  0  0  0
  189.5610  175.2760  145.3110 C   0  0  2  0  0  3  0  0  0  0  0  0
  187.5200  175.3180  142.7770 C   0  0  0  0  0  2  0  0  0  0  0  0
  192.3250  173.4200  143.2990 C   0  0  0  0  0  2  0  0  0  0  0  0
  195.5730  172.6640  145.3370 C   0  0  0  0  0  2  0  0  0  0  0  0
  190.2620  174.6340  144.0940 C   0  0  1  0  0  3  0  0  0  0  0  0
  188.4240  177.3520  145.8980 C   0  0  0  0  0  2  0  0  0  0  0  0
  194.0890  172.9610  145.1430 C   0  0  1  0  0  3  0  0  0  0  0  0
  195.9890  170.7110  143.9630 O   0  0  0  0  0  0  0  0  0  0  0  0
  188.1160  176.5000  143.5310 C   0  0  2  0  0  3  0  0  0  0  0  0
  192.4260  174.7650  145.3820 C   0  0  0  0  0  0  0  0  0  0  0  0
  193.6040  171.2620  143.2890 C   0  0  2  0  0  3  0  0  0  0  0  0
  191.5340  173.8960  144.5240 C   0  0  2  0  0  3  0  0  0  0  0  0
  194.2810  176.6290  146.5130 C   0  0  0  0  0  2  0  0  0  0  0  0
  188.5990  174.3820  142.2550 C   0  0  0  0  0  2  0  0  0  0  0  0
  194.6270  175.1470  146.5110 C   0  0  0  0  0  2  0  0  0  0  0  0
  189.3160  173.6690  143.3910 C   0  0  0  0  0  2  0  0  0  0  0  0
  188.3040  176.1200  145.0130 C   0  0  1  0  0  3  0  0  0  0  0  0
  192.8110  176.7900  146.8590 C   0  0  0  0  0  2  0  0  0  0  0  0
  190.4820  176.1420  146.1860 C   0  0  1  0  0  3  0  0  0  0  0  0
  187.2450  177.5860  143.4080 O   0  0  0  0  0  0  0  0  0  0  0  0
  186.0100  177.0180  143.0880 C   0  0  0  0  0  2  0  0  0  0  0  0
  185.0420  179.0410  145.7310 C   0  0  0  0  0  2  0  0  0  0  0  0
  185.0970  179.2510  143.4460 N   0  0  0  0  0  2  0  0  0  0  0  0
  184.8910  177.8320  143.7120 C   0  0  2  0  0  3  0  0  0  0  0  0
  185.5640  179.8400  144.6370 N   0  0  0  0  0  2  0  0  0  0  0  0
  184.9060  177.6440  145.2040 C   0  0  0  0  0  2  0  0  0  0  0  0
  1 27  1  0  0  0  0
  1 26  1  1  0  0  0
  2 27  1  0  0  0  0
  3 19  1  0  0  0  0
  3 16  1  0  0  0  0
  4 23  1  0  0  0  0
  5 11  1  1  0  0  0
  5 15  1  0  0  0  0
  7  3  2  0  0  0  0
  8 12  1  0  0  0  0
  9 27  1  0  0  0  0
 10 17  1  0  0  0  0
 11 20  1  0  0  0  0
 13 20  1  0  0  0  0
 13  9  1  0  0  0  0
 14  2  1  0  0  0  0
 15 12  1  0  0  0  0
 15  4  1  0  0  0  0
 16  8  1  0  0  0  0
 17 25  1  0  0  0  0
 18  4  2  0  0  0  0
 18  1  1  0  0  0  0
 19  5  1  0  0  0  0
 19  6  1  0  0  0  0
 20 18  1  0  0  0  0
 21 26  1  0  0  0  0
 22 10  1  0  0  0  0
 22 24  1  0  0  0  0
 23 21  1  0  0  0  0
 24 13  1  0  0  0  0
 25  9  1  0  0  0  0
 25 14  1  0  0  0  0
 28 17  1  0  0  0  0
 29 28  1  0  0  0  0
 29 32  1  0  0  0  0
 31 32  1  0  0  0  0
 31 33  1  0  0  0  0
 32 34  1  0  0  0  0
 33 30  1  0  0  0  0
 34 30  1  0  0  0  0
M  END
>  <MODEL>
6

>  <REMARK>
 VINA RESULT:      -8.4      3.705      8.912
  Name = 
  3 active torsions:
  status: ('A' for Active; 'I' for Inactive)
    1  A    between atoms: C_17  and  O_28
    2  A    between atoms: O_28  and  C_29
    3  A    between atoms: C_29  and  C_32
                            x       y       z     vdW  Elec       q    Type
                         _______ _______ _______ _____ _____    ______ ____

>  <TORSDO>
F 3

$$$$
=
 OpenBabel11112417503D

 34 40  0  0  1  0  0  0  0  0999 V2000
  188.7160  175.7860  142.0940 C   0  0  2  0  0  3  0  0  0  0  0  0
  190.2830  174.1430  141.0290 C   0  0  0  0  0  2  0  0  0  0  0  0
  186.1990  178.7860  147.6590 C   0  0  0  0  0  0  0  0  0  0  0  0
  186.9310  176.9330  143.4470 C   0  0  0  0  0  0  0  0  0  0  0  0
  187.4830  177.7130  145.7950 C   0  0  1  0  0  3  0  0  0  0  0  0
  186.3930  176.4130  147.5250 O   0  0  0  0  0  1  0  0  0  0  0  0
  186.5990  179.5260  148.5940 O   0  0  0  0  0  0  0  0  0  0  0  0
  184.4100  178.2880  146.0020 C   0  0  0  0  0  2  0  0  0  0  0  0
  189.9320  173.9310  143.4340 C   0  0  2  0  0  3  0  0  0  0  0  0
  192.7910  173.6830  144.9700 C   0  0  0  0  0  2  0  0  0  0  0  0
  188.8130  176.9600  145.6020 C   0  0  0  0  0  2  0  0  0  0  0  0
  185.2580  178.3370  144.7410 C   0  0  0  0  0  2  0  0  0  0  0  0
  190.0360  175.0600  144.4830 C   0  0  1  0  0  3  0  0  0  0  0  0
  191.1940  173.0540  141.5410 C   0  0  0  0  0  2  0  0  0  0  0  0
  186.3670  177.2910  144.8090 C   0  0  1  0  0  3  0  0  0  0  0  0
  184.9860  179.0860  147.0300 O   0  0  0  0  0  0  0  0  0  0  0  0
  192.5290  173.9620  143.4940 C   0  0  2  0  0  3  0  0  0  0  0  0
  188.0230  176.1290  143.4020 C   0  0  0  0  0  0  0  0  0  0  0  0
  187.0460  177.6190  147.2570 C   0  0  2  0  0  3  0  0  0  0  0  0
  188.6720  175.7240  144.7060 C   0  0  2  0  0  3  0  0  0  0  0  0
  187.1380  177.3450  140.9650 C   0  0  0  0  0  2  0  0  0  0  0  0
  192.0740  174.6810  145.8650 C   0  0  0  0  0  2  0  0  0  0  0  0
  186.2200  177.3620  142.1800 C   0  0  0  0  0  2  0  0  0  0  0  0
  190.5650  174.5080  145.8000 C   0  0  0  0  0  2  0  0  0  0  0  0
  191.2500  173.2250  143.0520 C   0  0  1  0  0  3  0  0  0  0  0  0
  187.8120  175.9870  140.8780 C   0  0  0  0  0  2  0  0  0  0  0  0
  189.2530  174.3510  142.1190 C   0  0  1  0  0  3  0  0  0  0  0  0
  193.6320  173.5160  142.7600 O   0  0  0  0  0  0  0  0  0  0  0  0
  194.4570  174.6370  142.6400 C   0  0  0  0  0  2  0  0  0  0  0  0
  195.8450  174.3590  139.4770 C   0  0  0  0  0  2  0  0  0  0  0  0
  196.3690  175.5030  141.3960 N   0  0  0  0  0  2  0  0  0  0  0  0
  195.6910  174.2850  141.8280 C   0  0  2  0  0  3  0  0  0  0  0  0
  196.0850  175.6810  140.0280 N   0  0  0  0  0  2  0  0  0  0  0  0
  195.2800  173.5330  140.5930 C   0  0  0  0  0  2  0  0  0  0  0  0
  1 26  1  6  0  0  0
  1 27  1  0  0  0  0
  1 18  1  0  0  0  0
  2 14  1  0  0  0  0
  2 27  1  0  0  0  0
  3  7  2  0  0  0  0
  4 15  1  0  0  0  0
  5 11  1  1  0  0  0
  5 19  1  0  0  0  0
  8 16  1  0  0  0  0
  9 13  1  0  0  0  0
 10 22  1  0  0  0  0
 12 15  1  0  0  0  0
 12  8  1  0  0  0  0
 13 20  1  0  0  0  0
 13 24  1  0  0  0  0
 14 25  1  0  0  0  0
 15  5  1  0  0  0  0
 16  3  1  0  0  0  0
 17 10  1  0  0  0  0
 18  4  2  0  0  0  0
 18 20  1  0  0  0  0
 19  6  1  0  0  0  0
 19  3  1  0  0  0  0
 20 11  1  0  0  0  0
 21 23  1  0  0  0  0
 23  4  1  0  0  0  0
 24 22  1  0  0  0  0
 25  9  1  0  0  0  0
 25 17  1  0  0  0  0
 26 21  1  0  0  0  0
 27  9  1  0  0  0  0
 28 17  1  0  0  0  0
 29 28  1  0  0  0  0
 30 33  1  0  0  0  0
 30 34  1  0  0  0  0
 31 32  1  0  0  0  0
 32 29  1  0  0  0  0
 33 31  1  0  0  0  0
 34 32  1  0  0  0  0
M  END
>  <MODEL>
7

>  <REMARK>
 VINA RESULT:      -8.2      1.228      1.360
  Name = 
  3 active torsions:
  status: ('A' for Active; 'I' for Inactive)
    1  A    between atoms: C_17  and  O_28
    2  A    between atoms: O_28  and  C_29
    3  A    between atoms: C_29  and  C_32
                            x       y       z     vdW  Elec       q    Type
                         _______ _______ _______ _____ _____    ______ ____

>  <TORSDO>
F 3

$$$$
=
 OpenBabel11112417503D

 34 40  0  0  1  0  0  0  0  0999 V2000
  191.9990  176.3500  145.7660 C   0  0  2  0  0  3  0  0  0  0  0  0
  189.7720  176.5030  146.9070 C   0  0  0  0  0  2  0  0  0  0  0  0
  195.7310  174.8140  140.2860 C   0  0  0  0  0  0  0  0  0  0  0  0
  194.0860  175.6020  144.5740 C   0  0  0  0  0  0  0  0  0  0  0  0
  194.0920  175.5330  142.0400 C   0  0  1  0  0  3  0  0  0  0  0  0
  194.1110  173.2840  141.1360 O   0  0  0  0  0  1  0  0  0  0  0  0
  195.8580  175.1970  139.0940 O   0  0  0  0  0  0  0  0  0  0  0  0
  196.8570  174.0990  142.3870 C   0  0  0  0  0  2  0  0  0  0  0  0
  189.8710  175.1840  144.8570 C   0  0  2  0  0  3  0  0  0  0  0  0
  187.4460  176.0270  142.8580 C   0  0  0  0  0  2  0  0  0  0  0  0
  192.5860  175.8340  142.1480 C   0  0  0  0  0  2  0  0  0  0  0  0
  196.2450  175.1260  143.3260 C   0  0  0  0  0  2  0  0  0  0  0  0
  190.4700  175.6280  143.5040 C   0  0  1  0  0  3  0  0  0  0  0  0
  188.3720  176.0410  146.5780 C   0  0  0  0  0  2  0  0  0  0  0  0
  194.7250  174.9880  143.3430 C   0  0  1  0  0  3  0  0  0  0  0  0
  196.8800  174.5860  141.0500 O   0  0  0  0  0  0  0  0  0  0  0  0
  187.8510  176.6700  144.1800 C   0  0  2  0  0  3  0  0  0  0  0  0
  192.7320  175.6730  144.6200 C   0  0  0  0  0  0  0  0  0  0  0  0
  194.3500  174.6280  140.8350 C   0  0  2  0  0  3  0  0  0  0  0  0
  191.9470  175.2310  143.4050 C   0  0  2  0  0  3  0  0  0  0  0  0
  194.2240  177.0120  146.6630 C   0  0  0  0  0  2  0  0  0  0  0  0
  188.6100  175.9700  141.8820 C   0  0  0  0  0  2  0  0  0  0  0  0
  194.9330  176.0100  145.7610 C   0  0  0  0  0  2  0  0  0  0  0  0
  189.6880  175.0080  142.3540 C   0  0  0  0  0  2  0  0  0  0  0  0
  188.4070  175.5880  145.1260 C   0  0  1  0  0  3  0  0  0  0  0  0
  192.8560  176.4640  147.0260 C   0  0  0  0  0  2  0  0  0  0  0  0
  190.6880  175.6230  146.0840 C   0  0  1  0  0  3  0  0  0  0  0  0
  186.7230  177.2780  144.7370 O   0  0  0  0  0  0  0  0  0  0  0  0
  186.6650  178.5390  144.1370 C   0  0  0  0  0  2  0  0  0  0  0  0
  183.8180  178.6550  146.1110 C   0  0  0  0  0  2  0  0  0  0  0  0
  185.9780  179.4030  146.3120 N   0  0  0  0  0  2  0  0  0  0  0  0
  185.6800  179.4210  144.8840 C   0  0  2  0  0  3  0  0  0  0  0  0
  185.0120  178.5900  146.9350 N   0  0  0  0  0  2  0  0  0  0  0  0
  184.2880  178.8810  144.7050 C   0  0  0  0  0  2  0  0  0  0  0  0
  1 27  1  0  0  0  0
  1 26  1  1  0  0  0
  3 19  1  0  0  0  0
  3 16  1  0  0  0  0
  4 18  2  0  0  0  0
  4 23  1  0  0  0  0
  5 11  1  1  0  0  0
  5 15  1  0  0  0  0
  7  3  2  0  0  0  0
  8 12  1  0  0  0  0
  9 25  1  0  0  0  0
  9 27  1  0  0  0  0
 10 17  1  0  0  0  0
 11 20  1  0  0  0  0
 12 15  1  0  0  0  0
 13  9  1  0  0  0  0
 14  2  1  0  0  0  0
 15  4  1  0  0  0  0
 16  8  1  0  0  0  0
 17 28  1  0  0  0  0
 17 25  1  0  0  0  0
 18  1  1  0  0  0  0
 19  6  1  0  0  0  0
 19  5  1  0  0  0  0
 20 13  1  0  0  0  0
 20 18  1  0  0  0  0
 21 26  1  0  0  0  0
 22 24  1  0  0  0  0
 22 10  1  0  0  0  0
 23 21  1  0  0  0  0
 24 13  1  0  0  0  0
 25 14  1  0  0  0  0
 27  2  1  0  0  0  0
 29 28  1  0  0  0  0
 29 32  1  0  0  0  0
 30 33  1  0  0  0  0
 31 33  1  0  0  0  0
 32 31  1  0  0  0  0
 34 32  1  0  0  0  0
 34 30  1  0  0  0  0
M  END
>  <MODEL>
8

>  <REMARK>
 VINA RESULT:      -8.2      3.562      8.983
  Name = 
  3 active torsions:
  status: ('A' for Active; 'I' for Inactive)
    1  A    between atoms: C_17  and  O_28
    2  A    between atoms: O_28  and  C_29
    3  A    between atoms: C_29  and  C_32
                            x       y       z     vdW  Elec       q    Type
                         _______ _______ _______ _____ _____    ______ ____

>  <TORSDO>
F 3

$$$$
=
 OpenBabel11112417503D

 34 40  0  0  1  0  0  0  0  0999 V2000
  191.0050  174.6680  142.9940 C   0  0  2  0  0  3  0  0  0  0  0  0
  189.2860  176.4810  143.2010 C   0  0  0  0  0  2  0  0  0  0  0  0
  196.5010  171.4440  145.3850 C   0  0  0  0  0  0  0  0  0  0  0  0
  193.1210  173.3210  142.7840 C   0  0  0  0  0  0  0  0  0  0  0  0
  194.3600  172.6470  144.8900 C   0  0  1  0  0  3  0  0  0  0  0  0
  196.4580  173.8210  145.1930 O   0  0  0  0  0  1  0  0  0  0  0  0
  196.8350  170.7720  146.3940 O   0  0  0  0  0  0  0  0  0  0  0  0
  196.5910  171.6900  142.9100 C   0  0  0  0  0  2  0  0  0  0  0  0
  191.2700  176.6780  144.6070 C   0  0  2  0  0  3  0  0  0  0  0  0
  190.4110  177.3050  147.6830 C   0  0  0  0  0  2  0  0  0  0  0  0
  193.3600  173.5600  145.6250 C   0  0  0  0  0  2  0  0  0  0  0  0
  195.0970  171.7330  142.6380 C   0  0  0  0  0  2  0  0  0  0  0  0
  191.8610  175.5850  145.5240 C   0  0  1  0  0  3  0  0  0  0  0  0
  189.1080  177.6840  144.0960 C   0  0  0  0  0  2  0  0  0  0  0  0
  194.4600  172.9120  143.3680 C   0  0  1  0  0  3  0  0  0  0  0  0
  196.8670  170.9850  144.1150 O   0  0  0  0  0  0  0  0  0  0  0  0
  189.5120  176.9770  146.4960 C   0  0  2  0  0  3  0  0  0  0  0  0
  192.3950  174.2550  143.4480 C   0  0  0  0  0  0  0  0  0  0  0  0
  195.7180  172.7030  145.5900 C   0  0  2  0  0  3  0  0  0  0  0  0
  192.9130  174.7560  144.7780 C   0  0  2  0  0  3  0  0  0  0  0  0
  191.1660  172.9070  141.2420 C   0  0  0  0  0  2  0  0  0  0  0  0
  191.4700  176.2350  147.8970 C   0  0  0  0  0  2  0  0  0  0  0  0
  192.6720  172.7900  141.4390 C   0  0  0  0  0  2  0  0  0  0  0  0
  192.4820  176.2160  146.7630 C   0  0  0  0  0  2  0  0  0  0  0  0
  190.1400  177.5400  145.2060 C   0  0  1  0  0  3  0  0  0  0  0  0
  190.7440  174.3380  141.5250 C   0  0  0  0  0  2  0  0  0  0  0  0
  190.7650  176.1590  143.2500 C   0  0  1  0  0  3  0  0  0  0  0  0
  188.2570  177.5490  146.7230 O   0  0  0  0  0  0  0  0  0  0  0  0
  187.3960  176.4620  146.8980 C   0  0  0  0  0  2  0  0  0  0  0  0
  185.2580  178.9970  145.8890 C   0  0  0  0  0  2  0  0  0  0  0  0
  185.5180  176.7760  145.3730 N   0  0  0  0  0  2  0  0  0  0  0  0
  185.9550  176.9190  146.7580 C   0  0  2  0  0  3  0  0  0  0  0  0
  185.4960  178.0630  144.8030 N   0  0  0  0  0  2  0  0  0  0  0  0
  185.8530  178.3750  147.1170 C   0  0  0  0  0  2  0  0  0  0  0  0
  1 26  1  6  0  0  0
  1 27  1  0  0  0  0
  1 18  1  0  0  0  0
  2 27  1  0  0  0  0
  2 14  1  0  0  0  0
  3 19  1  0  0  0  0
  3  7  2  0  0  0  0
  4 15  1  0  0  0  0
  4 18  2  0  0  0  0
  5 19  1  0  0  0  0
  5 11  1  1  0  0  0
  6 19  1  0  0  0  0
  8 16  1  0  0  0  0
  9 25  1  0  0  0  0
  9 13  1  0  0  0  0
 10 22  1  0  0  0  0
 12  8  1  0  0  0  0
 12 15  1  0  0  0  0
 13 24  1  0  0  0  0
 14 25  1  0  0  0  0
 15  5  1  0  0  0  0
 16  3  1  0  0  0  0
 17 28  1  0  0  0  0
 17 10  1  0  0  0  0
 18 20  1  0  0  0  0
 20 13  1  0  0  0  0
 20 11  1  0  0  0  0
 21 23  1  0  0  0  0
 21 26  1  0  0  0  0
 23  4  1  0  0  0  0
 24 22  1  0  0  0  0
 25 17  1  0  0  0  0
 27  9  1  0  0  0  0
 28 29  1  0  0  0  0
 30 34  1  0  0  0  0
 31 32  1  0  0  0  0
 32 29  1  0  0  0  0
 32 34  1  0  0  0  0
 33 31  1  0  0  0  0
 33 30  1  0  0  0  0
M  END
>  <MODEL>
9

>  <REMARK>
 VINA RESULT:      -8.1      3.535      8.493
  Name = 
  3 active torsions:
  status: ('A' for Active; 'I' for Inactive)
    1  A    between atoms: C_17  and  O_28
    2  A    between atoms: O_28  and  C_29
    3  A    between atoms: C_29  and  C_32
                            x       y       z     vdW  Elec       q    Type
                         _______ _______ _______ _____ _____    ______ ____

>  <TORSDO>
F 3

$$$$
