=
 OpenBabel11112416513D

 31 35  0  0  1  0  0  0  0  0999 V2000
  185.9020  178.4780  146.9130 C   0  0  0  0  0  0  0  0  0  0  0  0
  188.5830  177.9880  144.2660 C   0  0  2  0  0  3  0  0  0  0  0  0
  189.8730  177.6200  145.0440 C   0  0  1  0  0  3  0  0  0  0  0  0
  191.0490  176.4760  146.9210 C   0  0  1  0  0  3  0  0  0  0  0  0
  187.3110  177.8070  145.0550 C   0  0  0  0  0  0  0  0  0  0  0  0
  185.0200  177.4330  146.6260 C   0  0  0  0  0  3  0  0  0  0  0  0
  189.7190  176.5980  146.1710 C   0  0  0  0  0  2  0  0  0  0  0  0
  188.0430  175.8860  143.0290 C   0  0  2  0  0  3  0  0  0  0  0  0
  185.6450  179.3310  147.9770 O   0  0  0  0  0  1  0  0  0  0  0  0
  190.9510  177.8890  142.9320 O   0  0  0  0  0  0  0  0  0  0  0  0
  190.9250  175.4230  148.0020 C   0  0  0  0  0  1  0  0  0  0  0  0
  186.6110  175.8620  143.5700 C   0  0  0  0  0  2  0  0  0  0  0  0
  188.5150  177.3370  142.8670 C   0  0  2  0  0  3  0  0  0  0  0  0
  187.0450  178.6640  146.1310 C   0  0  0  0  0  3  0  0  0  0  0  0
  192.1970  176.1030  145.9710 C   0  0  0  0  0  2  0  0  0  0  0  0
  186.4230  176.7460  144.7710 C   0  0  0  0  0  0  0  0  0  0  0  0
  185.2770  176.5750  145.5530 C   0  0  0  0  0  3  0  0  0  0  0  0
  189.8820  177.4230  142.1300 C   0  0  0  0  0  2  0  0  0  0  0  0
  190.9420  177.1030  144.0880 C   0  0  1  0  0  3  0  0  0  0  0  0
  192.2870  177.0790  144.7950 C   0  0  0  0  0  2  0  0  0  0  0  0
  188.1160  175.0950  141.7290 C   0  0  0  0  0  2  0  0  0  0  0  0
  187.3160  172.8680  141.9000 O   0  0  0  0  0  0  0  0  0  0  0  0
  188.3020  173.6400  142.0280 C   0  0  0  0  0  0  0  0  0  0  0  0
  191.9690  172.1140  143.5950 N   0  0  0  0  0  0  0  0  0  0  0  0
  189.5610  171.8710  143.2680 C   0  0  0  0  0  2  0  0  0  0  0  0
  190.9330  174.6130  141.3240 O   0  0  0  0  0  0  0  0  0  0  0  0
  193.0180  171.9810  144.5880 C   0  0  0  0  0  1  0  0  0  0  0  0
  190.7070  171.8460  144.2800 C   0  0  0  0  0  2  0  0  0  0  0  0
  190.8100  173.7910  142.2700 C   0  0  0  0  0  0  0  0  0  0  0  0
  189.5540  173.1340  142.5270 N   0  0  0  0  0  0  0  0  0  0  0  0
  191.9800  173.5110  143.1620 C   0  0  0  0  0  2  0  0  0  0  0  0
  1  9  1  0  0  0  0
  2  3  1  0  0  0  0
  2  5  1  1  0  0  0
  3  7  1  1  0  0  0
  4 11  1  1  0  0  0
  5 14  1  0  0  0  0
  6  1  1  0  0  0  0
  7  4  1  0  0  0  0
  8 21  1  6  0  0  0
  8 12  1  0  0  0  0
 10 19  1  0  0  0  0
 12 16  1  0  0  0  0
 13 18  1  1  0  0  0
 13  8  1  0  0  0  0
 13  2  1  0  0  0  0
 14  1  2  0  0  0  0
 15  4  1  0  0  0  0
 16  5  2  0  0  0  0
 16 17  1  0  0  0  0
 17  6  2  0  0  0  0
 18 10  1  0  0  0  0
 19 20  1  1  0  0  0
 19  3  1  0  0  0  0
 20 15  1  0  0  0  0
 21 23  1  0  0  0  0
 22 23  2  0  0  0  0
 23 30  1  0  0  0  0
 24 28  1  0  0  0  0
 24 27  1  0  0  0  0
 25 28  1  0  0  0  0
 26 29  2  0  0  0  0
 29 30  1  0  0  0  0
 29 31  1  0  0  0  0
 30 25  1  0  0  0  0
 31 24  1  0  0  0  0
M  END
>  <MODEL>
1

>  <REMARK>
 VINA RESULT:      -7.9      0.000      0.000
  Name = 
  2 active torsions:
  status: ('A' for Active; 'I' for Inactive)
    1  A    between atoms: C_5  and  C_16
    2  A    between atoms: C_10  and  C_16
                            x       y       z     vdW  Elec       q    Type
                         _______ _______ _______ _____ _____    ______ ____

>  <TORSDO>
F 2

$$$$
=
 OpenBabel11112416513D

 31 35  0  0  1  0  0  0  0  0999 V2000
  195.5060  175.5270  144.3300 C   0  0  0  0  0  0  0  0  0  0  0  0
  191.9650  176.8160  143.8470 C   0  0  2  0  0  3  0  0  0  0  0  0
  191.2590  175.7650  142.9520 C   0  0  1  0  0  3  0  0  0  0  0  0
  190.8530  173.4100  142.2400 C   0  0  1  0  0  3  0  0  0  0  0  0
  193.2190  176.3150  144.5180 C   0  0  0  0  0  0  0  0  0  0  0  0
  195.5330  175.2690  145.7030 C   0  0  0  0  0  3  0  0  0  0  0  0
  191.4930  174.2980  143.3130 C   0  0  0  0  0  2  0  0  0  0  0  0
  190.7790  176.5930  146.0340 C   0  0  2  0  0  3  0  0  0  0  0  0
  196.6250  175.2640  143.5520 O   0  0  0  0  0  1  0  0  0  0  0  0
  189.5040  177.3790  142.8350 O   0  0  0  0  0  0  0  0  0  0  0  0
  191.0280  171.9550  142.6180 C   0  0  0  0  0  1  0  0  0  0  0  0
  192.0920  176.4070  146.7990 C   0  0  0  0  0  2  0  0  0  0  0  0
  191.0020  177.5170  144.8310 C   0  0  2  0  0  3  0  0  0  0  0  0
  194.3520  176.0470  143.7390 C   0  0  0  0  0  3  0  0  0  0  0  0
  189.3590  173.7210  142.0730 C   0  0  0  0  0  2  0  0  0  0  0  0
  193.2450  176.0450  145.9040 C   0  0  0  0  0  0  0  0  0  0  0  0
  194.4080  175.5340  146.4880 C   0  0  0  0  0  3  0  0  0  0  0  0
  189.6630  177.9030  144.1390 C   0  0  0  0  0  2  0  0  0  0  0  0
  189.7530  176.0060  142.9340 C   0  0  1  0  0  3  0  0  0  0  0  0
  189.1250  175.2100  141.8030 C   0  0  0  0  0  2  0  0  0  0  0  0
  189.7010  177.1080  146.9800 C   0  0  0  0  0  2  0  0  0  0  0  0
  188.5230  175.0680  146.6940 O   0  0  0  0  0  0  0  0  0  0  0  0
  188.4410  176.3220  146.7920 C   0  0  0  0  0  0  0  0  0  0  0  0
  184.6550  178.2240  146.2670 N   0  0  0  0  0  0  0  0  0  0  0  0
  186.0770  176.2590  145.9800 C   0  0  0  0  0  2  0  0  0  0  0  0
  187.6220  178.7650  148.1060 O   0  0  0  0  0  0  0  0  0  0  0  0
  183.6900  179.0600  145.5790 C   0  0  0  0  0  1  0  0  0  0  0  0
  185.1270  177.2420  145.2940 C   0  0  0  0  0  2  0  0  0  0  0  0
  186.9030  178.2830  147.1910 C   0  0  0  0  0  0  0  0  0  0  0  0
  187.1670  176.9750  146.6460 N   0  0  0  0  0  0  0  0  0  0  0  0
  185.7720  179.0920  146.6360 C   0  0  0  0  0  2  0  0  0  0  0  0
  1  6  1  0  0  0  0
  2  5  1  1  0  0  0
  2 13  1  0  0  0  0
  3  7  1  1  0  0  0
  3  2  1  0  0  0  0
  4 11  1  1  0  0  0
  4  7  1  0  0  0  0
  5 16  2  0  0  0  0
  6 17  2  0  0  0  0
  8 12  1  0  0  0  0
  8 21  1  1  0  0  0
  9  1  1  0  0  0  0
 10 19  1  0  0  0  0
 10 18  1  0  0  0  0
 13 18  1  6  0  0  0
 13  8  1  0  0  0  0
 14  1  2  0  0  0  0
 14  5  1  0  0  0  0
 15  4  1  0  0  0  0
 16 17  1  0  0  0  0
 16 12  1  0  0  0  0
 19 20  1  6  0  0  0
 19  3  1  0  0  0  0
 20 15  1  0  0  0  0
 22 23  2  0  0  0  0
 23 21  1  0  0  0  0
 24 31  1  0  0  0  0
 25 30  1  0  0  0  0
 27 24  1  0  0  0  0
 28 25  1  0  0  0  0
 28 24  1  0  0  0  0
 29 26  2  0  0  0  0
 30 23  1  0  0  0  0
 30 29  1  0  0  0  0
 31 29  1  0  0  0  0
M  END
>  <MODEL>
2

>  <REMARK>
 VINA RESULT:      -7.7      2.787      7.051
  Name = 
  2 active torsions:
  status: ('A' for Active; 'I' for Inactive)
    1  A    between atoms: C_5  and  C_16
    2  A    between atoms: C_10  and  C_16
                            x       y       z     vdW  Elec       q    Type
                         _______ _______ _______ _____ _____    ______ ____

>  <TORSDO>
F 2

$$$$
=
 OpenBabel11112416513D

 31 35  0  0  1  0  0  0  0  0999 V2000
  185.4480  177.8940  147.1430 C   0  0  0  0  0  0  0  0  0  0  0  0
  188.0160  175.5390  145.6310 C   0  0  2  0  0  3  0  0  0  0  0  0
  187.8070  175.6250  144.0970 C   0  0  1  0  0  3  0  0  0  0  0  0
  187.2760  176.9070  142.0260 C   0  0  1  0  0  3  0  0  0  0  0  0
  187.4180  176.6880  146.4030 C   0  0  0  0  0  0  0  0  0  0  0  0
  186.2610  178.8720  147.7240 C   0  0  0  0  0  3  0  0  0  0  0  0
  187.6220  177.0260  143.5140 C   0  0  0  0  0  2  0  0  0  0  0  0
  190.2670  176.5710  145.9590 C   0  0  2  0  0  3  0  0  0  0  0  0
  184.0660  178.0060  147.2190 O   0  0  0  0  0  1  0  0  0  0  0  0
  189.3160  173.7780  144.0170 O   0  0  0  0  0  0  0  0  0  0  0  0
  187.1480  178.2910  141.4250 C   0  0  0  0  0  1  0  0  0  0  0  0
  189.7360  177.5490  147.0100 C   0  0  0  0  0  2  0  0  0  0  0  0
  189.4830  175.2540  146.0260 C   0  0  2  0  0  3  0  0  0  0  0  0
  186.0250  176.8070  146.4840 C   0  0  0  0  0  3  0  0  0  0  0  0
  188.3450  176.1130  141.2630 C   0  0  0  0  0  2  0  0  0  0  0  0
  188.2390  177.6810  146.9830 C   0  0  0  0  0  0  0  0  0  0  0  0
  187.6520  178.7600  147.6490 C   0  0  0  0  0  3  0  0  0  0  0  0
  190.1130  174.1560  145.1230 C   0  0  0  0  0  2  0  0  0  0  0  0
  188.9690  174.9640  143.3630 C   0  0  1  0  0  3  0  0  0  0  0  0
  188.5920  174.7460  141.9080 C   0  0  0  0  0  2  0  0  0  0  0  0
  191.7660  176.3720  146.1510 C   0  0  0  0  0  2  0  0  0  0  0  0
  191.8850  177.3280  143.9830 O   0  0  0  0  0  0  0  0  0  0  0  0
  192.4870  176.6740  144.8750 C   0  0  0  0  0  0  0  0  0  0  0  0
  196.3800  175.1170  144.0650 N   0  0  0  0  0  0  0  0  0  0  0  0
  194.2740  176.0410  143.2430 C   0  0  0  0  0  2  0  0  0  0  0  0
  194.5660  176.3060  146.8530 O   0  0  0  0  0  0  0  0  0  0  0  0
  197.3500  174.0660  143.8260 C   0  0  0  0  0  1  0  0  0  0  0  0
  195.2890  174.9060  143.1160 C   0  0  0  0  0  2  0  0  0  0  0  0
  194.7260  175.8430  145.6930 C   0  0  0  0  0  0  0  0  0  0  0  0
  193.8120  176.1680  144.6270 N   0  0  0  0  0  0  0  0  0  0  0  0
  195.8690  174.9140  145.4190 C   0  0  0  0  0  2  0  0  0  0  0  0
  1  9  1  0  0  0  0
  1  6  1  0  0  0  0
  2 13  1  0  0  0  0
  2  5  1  1  0  0  0
  3  7  1  6  0  0  0
  3  2  1  0  0  0  0
  4 11  1  6  0  0  0
  4  7  1  0  0  0  0
  5 14  1  0  0  0  0
  5 16  2  0  0  0  0
  8 13  1  0  0  0  0
  8 21  1  1  0  0  0
  8 12  1  0  0  0  0
 10 18  1  0  0  0  0
 13 18  1  6  0  0  0
 14  1  2  0  0  0  0
 15 20  1  0  0  0  0
 15  4  1  0  0  0  0
 16 12  1  0  0  0  0
 16 17  1  0  0  0  0
 17  6  2  0  0  0  0
 19 20  1  6  0  0  0
 19 10  1  0  0  0  0
 19  3  1  0  0  0  0
 22 23  2  0  0  0  0
 23 21  1  0  0  0  0
 24 31  1  0  0  0  0
 25 30  1  0  0  0  0
 27 24  1  0  0  0  0
 28 25  1  0  0  0  0
 28 24  1  0  0  0  0
 29 26  2  0  0  0  0
 30 23  1  0  0  0  0
 30 29  1  0  0  0  0
 31 29  1  0  0  0  0
M  END
>  <MODEL>
3

>  <REMARK>
 VINA RESULT:      -7.6      2.559      4.794
  Name = 
  2 active torsions:
  status: ('A' for Active; 'I' for Inactive)
    1  A    between atoms: C_5  and  C_16
    2  A    between atoms: C_10  and  C_16
                            x       y       z     vdW  Elec       q    Type
                         _______ _______ _______ _____ _____    ______ ____

>  <TORSDO>
F 2

$$$$
=
 OpenBabel11112416513D

 31 35  0  0  1  0  0  0  0  0999 V2000
  185.6400  178.4520  144.6940 C   0  0  0  0  0  0  0  0  0  0  0  0
  189.2680  177.6310  143.9210 C   0  0  2  0  0  3  0  0  0  0  0  0
  189.8430  177.0200  145.2260 C   0  0  1  0  0  3  0  0  0  0  0  0
  189.6160  175.6170  147.2740 C   0  0  1  0  0  3  0  0  0  0  0  0
  187.7620  177.6320  143.8490 C   0  0  0  0  0  0  0  0  0  0  0  0
  184.9590  177.5820  143.8370 C   0  0  0  0  0  3  0  0  0  0  0  0
  188.9640  175.9920  145.9390 C   0  0  0  0  0  2  0  0  0  0  0  0
  189.2800  175.7030  142.3340 C   0  0  2  0  0  3  0  0  0  0  0  0
  184.9280  179.2900  145.5410 O   0  0  0  0  0  1  0  0  0  0  0  0
  191.9460  177.1920  144.1100 O   0  0  0  0  0  0  0  0  0  0  0  0
  188.7840  174.5560  147.9620 C   0  0  0  0  0  1  0  0  0  0  0  0
  187.8010  175.8950  141.9890 C   0  0  0  0  0  2  0  0  0  0  0  0
  189.9250  177.0590  142.6450 C   0  0  2  0  0  3  0  0  0  0  0  0
  187.0360  178.4760  144.7010 C   0  0  0  0  0  3  0  0  0  0  0  0
  191.0470  175.0980  147.0740 C   0  0  0  0  0  2  0  0  0  0  0  0
  187.0730  176.7470  142.9900 C   0  0  0  0  0  0  0  0  0  0  0  0
  185.6750  176.7380  142.9840 C   0  0  0  0  0  3  0  0  0  0  0  0
  191.4690  176.9460  142.8010 C   0  0  0  0  0  2  0  0  0  0  0  0
  191.1960  176.3710  144.9580 C   0  0  1  0  0  3  0  0  0  0  0  0
  191.8960  176.0930  146.2780 C   0  0  0  0  0  2  0  0  0  0  0  0
  189.9820  174.9650  141.1990 C   0  0  0  0  0  2  0  0  0  0  0  0
  190.4730  173.2090  142.7180 O   0  0  0  0  0  0  0  0  0  0  0  0
  190.1260  173.5170  141.5460 C   0  0  0  0  0  0  0  0  0  0  0  0
  189.7090  170.4440  138.6100 N   0  0  0  0  0  0  0  0  0  0  0  0
  190.5740  171.1810  140.7720 C   0  0  0  0  0  2  0  0  0  0  0  0
  188.2640  173.5850  139.3340 O   0  0  0  0  0  0  0  0  0  0  0  0
  190.0730  169.7190  137.4080 C   0  0  0  0  0  1  0  0  0  0  0  0
  190.9100  170.5140  139.4380 C   0  0  0  0  0  2  0  0  0  0  0  0
  189.1360  172.6780  139.3810 C   0  0  0  0  0  0  0  0  0  0  0  0
  189.9530  172.4890  140.5520 N   0  0  0  0  0  0  0  0  0  0  0  0
  189.3520  171.7980  138.1880 C   0  0  0  0  0  2  0  0  0  0  0  0
  1 14  1  0  0  0  0
  1  9  1  0  0  0  0
  2  5  1  6  0  0  0
  2  3  1  0  0  0  0
  3  7  1  6  0  0  0
  4 11  1  6  0  0  0
  5 14  2  0  0  0  0
  6  1  2  0  0  0  0
  7  4  1  0  0  0  0
  8 21  1  6  0  0  0
  8 13  1  0  0  0  0
 10 19  1  0  0  0  0
 12  8  1  0  0  0  0
 12 16  1  0  0  0  0
 13 18  1  1  0  0  0
 13  2  1  0  0  0  0
 15  4  1  0  0  0  0
 16  5  1  0  0  0  0
 17 16  2  0  0  0  0
 17  6  1  0  0  0  0
 18 10  1  0  0  0  0
 19  3  1  0  0  0  0
 19 20  1  1  0  0  0
 20 15  1  0  0  0  0
 21 23  1  0  0  0  0
 23 22  2  0  0  0  0
 24 28  1  0  0  0  0
 26 29  2  0  0  0  0
 27 24  1  0  0  0  0
 28 25  1  0  0  0  0
 29 30  1  0  0  0  0
 30 25  1  0  0  0  0
 30 23  1  0  0  0  0
 31 24  1  0  0  0  0
 31 29  1  0  0  0  0
M  END
>  <MODEL>
4

>  <REMARK>
 VINA RESULT:      -7.6      2.378      2.999
  Name = 
  2 active torsions:
  status: ('A' for Active; 'I' for Inactive)
    1  A    between atoms: C_5  and  C_16
    2  A    between atoms: C_10  and  C_16
                            x       y       z     vdW  Elec       q    Type
                         _______ _______ _______ _____ _____    ______ ____

>  <TORSDO>
F 2

$$$$
=
 OpenBabel11112416513D

 31 35  0  0  1  0  0  0  0  0999 V2000
  193.0290  170.6450  144.2120 C   0  0  0  0  0  0  0  0  0  0  0  0
  193.7520  174.1550  145.4710 C   0  0  2  0  0  3  0  0  0  0  0  0
  194.7430  174.7680  144.4470 C   0  0  1  0  0  3  0  0  0  0  0  0
  195.5780  175.0740  142.1180 C   0  0  1  0  0  3  0  0  0  0  0  0
  193.0000  172.9520  144.9610 C   0  0  0  0  0  0  0  0  0  0  0  0
  191.6690  170.7260  143.9000 C   0  0  0  0  0  3  0  0  0  0  0  0
  194.4220  174.5390  142.9700 C   0  0  0  0  0  2  0  0  0  0  0  0
  191.6810  175.5130  145.1440 C   0  0  2  0  0  3  0  0  0  0  0  0
  193.7210  169.4610  143.9960 O   0  0  0  0  0  1  0  0  0  0  0  0
  194.9410  176.5340  146.0400 O   0  0  0  0  0  0  0  0  0  0  0  0
  195.2440  174.9060  140.6510 C   0  0  0  0  0  1  0  0  0  0  0  0
  190.8180  174.2640  144.9450 C   0  0  0  0  0  2  0  0  0  0  0  0
  192.8250  175.2080  146.1190 C   0  0  2  0  0  3  0  0  0  0  0  0
  193.6920  171.7540  144.7400 C   0  0  0  0  0  3  0  0  0  0  0  0
  195.8560  176.5540  142.4150 C   0  0  0  0  0  2  0  0  0  0  0  0
  191.6270  173.0360  144.6360 C   0  0  0  0  0  0  0  0  0  0  0  0
  190.9700  171.9160  144.1180 C   0  0  0  0  0  3  0  0  0  0  0  0
  193.6090  176.4920  146.5140 C   0  0  0  0  0  2  0  0  0  0  0  0
  194.8760  176.2700  144.6680 C   0  0  1  0  0  3  0  0  0  0  0  0
  196.0850  176.7910  143.9100 C   0  0  0  0  0  2  0  0  0  0  0  0
  190.8090  176.6740  145.6060 C   0  0  0  0  0  2  0  0  0  0  0  0
  190.0130  177.0370  143.4000 O   0  0  0  0  0  0  0  0  0  0  0  0
  189.7110  176.9110  144.6160 C   0  0  0  0  0  0  0  0  0  0  0  0
  185.6600  177.4830  145.8400 N   0  0  0  0  0  0  0  0  0  0  0  0
  187.4110  177.7810  144.1630 C   0  0  0  0  0  2  0  0  0  0  0  0
  188.4490  175.5600  146.8410 O   0  0  0  0  0  0  0  0  0  0  0  0
  184.5770  178.1740  146.5130 C   0  0  0  0  0  1  0  0  0  0  0  0
  186.3170  178.4670  144.9830 C   0  0  0  0  0  2  0  0  0  0  0  0
  187.8450  176.5030  146.2660 C   0  0  0  0  0  0  0  0  0  0  0  0
  188.3440  177.0720  145.0400 N   0  0  0  0  0  0  0  0  0  0  0  0
  186.6000  177.0660  146.8800 C   0  0  0  0  0  2  0  0  0  0  0  0
  1 14  1  0  0  0  0
  2  5  1  6  0  0  0
  2 13  1  0  0  0  0
  3  7  1  6  0  0  0
  3 19  1  0  0  0  0
  3  2  1  0  0  0  0
  4 11  1  6  0  0  0
  4 15  1  0  0  0  0
  4  7  1  0  0  0  0
  6 17  1  0  0  0  0
  6  1  2  0  0  0  0
  8 21  1  1  0  0  0
  8 13  1  0  0  0  0
  9  1  1  0  0  0  0
 10 18  1  0  0  0  0
 12  8  1  0  0  0  0
 13 18  1  6  0  0  0
 14  5  2  0  0  0  0
 15 20  1  0  0  0  0
 16 12  1  0  0  0  0
 16  5  1  0  0  0  0
 17 16  2  0  0  0  0
 19 20  1  6  0  0  0
 19 10  1  0  0  0  0
 22 23  2  0  0  0  0
 23 30  1  0  0  0  0
 23 21  1  0  0  0  0
 24 27  1  0  0  0  0
 24 31  1  0  0  0  0
 25 28  1  0  0  0  0
 25 30  1  0  0  0  0
 28 24  1  0  0  0  0
 29 26  2  0  0  0  0
 29 31  1  0  0  0  0
 30 29  1  0  0  0  0
M  END
>  <MODEL>
5

>  <REMARK>
 VINA RESULT:      -7.5      3.071      7.128
  Name = 
  2 active torsions:
  status: ('A' for Active; 'I' for Inactive)
    1  A    between atoms: C_5  and  C_16
    2  A    between atoms: C_10  and  C_16
                            x       y       z     vdW  Elec       q    Type
                         _______ _______ _______ _____ _____    ______ ____

>  <TORSDO>
F 2

$$$$
=
 OpenBabel11112416513D

 31 35  0  0  1  0  0  0  0  0999 V2000
  186.6300  177.7050  143.2900 C   0  0  0  0  0  0  0  0  0  0  0  0
  190.3680  177.2060  143.7530 C   0  0  2  0  0  3  0  0  0  0  0  0
  190.5520  176.8030  145.2390 C   0  0  1  0  0  3  0  0  0  0  0  0
  189.8030  175.6080  147.2950 C   0  0  1  0  0  3  0  0  0  0  0  0
  188.9620  177.0370  143.2350 C   0  0  0  0  0  0  0  0  0  0  0  0
  186.3120  176.6810  142.3930 C   0  0  0  0  0  3  0  0  0  0  0  0
  189.5720  175.7670  145.7880 C   0  0  0  0  0  2  0  0  0  0  0  0
  191.0090  175.1340  142.5140 C   0  0  2  0  0  3  0  0  0  0  0  0
  185.6330  178.5460  143.7650 O   0  0  0  0  0  1  0  0  0  0  0  0
  192.8800  177.0840  144.7890 O   0  0  0  0  0  0  0  0  0  0  0  0
  188.8770  174.5420  147.8380 C   0  0  0  0  0  1  0  0  0  0  0  0
  189.6990  175.1270  141.7220 C   0  0  0  0  0  2  0  0  0  0  0  0
  191.4270  176.5780  142.8190 C   0  0  2  0  0  3  0  0  0  0  0  0
  187.9500  177.8810  143.7100 C   0  0  0  0  0  3  0  0  0  0  0  0
  191.2590  175.2300  147.6020 C   0  0  0  0  0  2  0  0  0  0  0  0
  188.6380  175.9960  142.3360 C   0  0  0  0  0  0  0  0  0  0  0  0
  187.3150  175.8340  141.9130 C   0  0  0  0  0  3  0  0  0  0  0  0
  192.8500  176.6510  143.4430 C   0  0  0  0  0  2  0  0  0  0  0  0
  191.9650  176.2810  145.4770 C   0  0  1  0  0  3  0  0  0  0  0  0
  192.2390  176.2210  146.9700 C   0  0  0  0  0  2  0  0  0  0  0  0
  192.0780  174.3620  141.7500 C   0  0  0  0  0  2  0  0  0  0  0  0
  191.5550  172.1490  142.4270 O   0  0  0  0  0  0  0  0  0  0  0  0
  192.3950  173.0870  142.4670 C   0  0  0  0  0  0  0  0  0  0  0  0
  195.8900  172.6700  144.8840 N   0  0  0  0  0  0  0  0  0  0  0  0
  193.6310  171.9380  144.3120 C   0  0  0  0  0  2  0  0  0  0  0  0
  194.9610  174.2880  141.8840 O   0  0  0  0  0  0  0  0  0  0  0  0
  196.7540  172.9780  146.0080 C   0  0  0  0  0  1  0  0  0  0  0  0
  194.5710  172.3720  145.4370 C   0  0  0  0  0  2  0  0  0  0  0  0
  194.7780  173.7260  142.9970 C   0  0  0  0  0  0  0  0  0  0  0  0
  193.5920  172.9500  143.2540 N   0  0  0  0  0  0  0  0  0  0  0  0
  195.7960  173.8900  144.0830 C   0  0  0  0  0  2  0  0  0  0  0  0
  1 14  1  0  0  0  0
  1  9  1  0  0  0  0
  2  5  1  6  0  0  0
  2  3  1  0  0  0  0
  3 19  1  0  0  0  0
  3  7  1  6  0  0  0
  4 15  1  0  0  0  0
  4 11  1  6  0  0  0
  5 14  2  0  0  0  0
  6  1  2  0  0  0  0
  7  4  1  0  0  0  0
  8 21  1  6  0  0  0
  8 13  1  0  0  0  0
 10 19  1  0  0  0  0
 12 16  1  0  0  0  0
 12  8  1  0  0  0  0
 13 18  1  1  0  0  0
 13  2  1  0  0  0  0
 16  5  1  0  0  0  0
 17 16  2  0  0  0  0
 17  6  1  0  0  0  0
 18 10  1  0  0  0  0
 19 20  1  1  0  0  0
 20 15  1  0  0  0  0
 21 23  1  0  0  0  0
 22 23  2  0  0  0  0
 23 30  1  0  0  0  0
 24 28  1  0  0  0  0
 24 27  1  0  0  0  0
 25 28  1  0  0  0  0
 26 29  2  0  0  0  0
 29 30  1  0  0  0  0
 29 31  1  0  0  0  0
 30 25  1  0  0  0  0
 31 24  1  0  0  0  0
M  END
>  <MODEL>
6

>  <REMARK>
 VINA RESULT:      -7.5      2.276      3.409
  Name = 
  2 active torsions:
  status: ('A' for Active; 'I' for Inactive)
    1  A    between atoms: C_5  and  C_16
    2  A    between atoms: C_10  and  C_16
                            x       y       z     vdW  Elec       q    Type
                         _______ _______ _______ _____ _____    ______ ____

>  <TORSDO>
F 2

$$$$
=
 OpenBabel11112416513D

 31 35  0  0  1  0  0  0  0  0999 V2000
  186.2430  177.6170  142.5570 C   0  0  0  0  0  0  0  0  0  0  0  0
  188.9110  175.9520  144.6880 C   0  0  2  0  0  3  0  0  0  0  0  0
  188.9410  174.4690  144.2330 C   0  0  1  0  0  3  0  0  0  0  0  0
  188.7850  172.7150  142.4690 C   0  0  1  0  0  3  0  0  0  0  0  0
  188.2510  176.8870  143.7070 C   0  0  0  0  0  0  0  0  0  0  0  0
  186.9970  178.5220  141.8060 C   0  0  0  0  0  3  0  0  0  0  0  0
  188.9060  174.2210  142.7250 C   0  0  0  0  0  2  0  0  0  0  0  0
  191.1270  176.8250  143.9350 C   0  0  2  0  0  3  0  0  0  0  0  0
  184.8720  177.5260  142.3610 O   0  0  0  0  0  1  0  0  0  0  0  0
  190.3670  174.1570  146.1210 O   0  0  0  0  0  0  0  0  0  0  0  0
  188.8080  172.4520  140.9780 C   0  0  0  0  0  1  0  0  0  0  0  0
  190.4820  177.9970  143.1900 C   0  0  0  0  0  2  0  0  0  0  0  0
  190.2870  176.4650  145.1680 C   0  0  2  0  0  3  0  0  0  0  0  0
  186.8670  176.8010  143.5040 C   0  0  0  0  0  3  0  0  0  0  0  0
  189.9240  171.9380  143.1450 C   0  0  0  0  0  2  0  0  0  0  0  0
  189.0140  177.7960  142.9410 C   0  0  0  0  0  0  0  0  0  0  0  0
  188.3780  178.6150  142.0030 C   0  0  0  0  0  3  0  0  0  0  0  0
  191.0020  175.4200  146.0720 C   0  0  0  0  0  2  0  0  0  0  0  0
  190.1730  173.7660  144.7930 C   0  0  1  0  0  3  0  0  0  0  0  0
  190.0130  172.2630  144.6380 C   0  0  0  0  0  2  0  0  0  0  0  0
  192.5690  177.1690  144.2870 C   0  0  0  0  0  2  0  0  0  0  0  0
  193.3700  176.4140  142.1850 O   0  0  0  0  0  0  0  0  0  0  0  0
  193.5050  176.3690  143.4370 C   0  0  0  0  0  0  0  0  0  0  0  0
  196.3860  173.7160  145.1400 N   0  0  0  0  0  0  0  0  0  0  0  0
  195.0230  174.3910  143.2290 C   0  0  0  0  0  2  0  0  0  0  0  0
  194.9410  176.8480  145.9010 O   0  0  0  0  0  0  0  0  0  0  0  0
  196.8160  172.5570  145.8970 C   0  0  0  0  0  1  0  0  0  0  0  0
  195.4430  173.2330  144.1330 C   0  0  0  0  0  2  0  0  0  0  0  0
  195.0270  175.7220  145.3440 C   0  0  0  0  0  0  0  0  0  0  0  0
  194.4920  175.5010  144.0250 N   0  0  0  0  0  0  0  0  0  0  0  0
  195.6700  174.5830  146.0740 C   0  0  0  0  0  2  0  0  0  0  0  0
  1 14  1  0  0  0  0
  2  5  1  6  0  0  0
  2 13  1  0  0  0  0
  3  7  1  6  0  0  0
  3  2  1  0  0  0  0
  3 19  1  0  0  0  0
  4 11  1  6  0  0  0
  4  7  1  0  0  0  0
  4 15  1  0  0  0  0
  6 17  1  0  0  0  0
  6  1  2  0  0  0  0
  8 21  1  1  0  0  0
  8 13  1  0  0  0  0
  9  1  1  0  0  0  0
 12  8  1  0  0  0  0
 13 18  1  6  0  0  0
 14  5  2  0  0  0  0
 15 20  1  0  0  0  0
 16 12  1  0  0  0  0
 16  5  1  0  0  0  0
 17 16  2  0  0  0  0
 18 10  1  0  0  0  0
 19 20  1  1  0  0  0
 19 10  1  0  0  0  0
 22 23  2  0  0  0  0
 23 30  1  0  0  0  0
 23 21  1  0  0  0  0
 24 27  1  0  0  0  0
 24 31  1  0  0  0  0
 25 30  1  0  0  0  0
 25 28  1  0  0  0  0
 28 24  1  0  0  0  0
 29 26  2  0  0  0  0
 29 31  1  0  0  0  0
 30 29  1  0  0  0  0
M  END
>  <MODEL>
7

>  <REMARK>
 VINA RESULT:      -7.4      2.703      4.996
  Name = 
  2 active torsions:
  status: ('A' for Active; 'I' for Inactive)
    1  A    between atoms: C_5  and  C_16
    2  A    between atoms: C_10  and  C_16
                            x       y       z     vdW  Elec       q    Type
                         _______ _______ _______ _____ _____    ______ ____

>  <TORSDO>
F 2

$$$$
=
 OpenBabel11112416513D

 31 35  0  0  1  0  0  0  0  0999 V2000
  185.8210  178.2140  144.4040 C   0  0  0  0  0  0  0  0  0  0  0  0
  189.5340  177.5580  143.9400 C   0  0  2  0  0  3  0  0  0  0  0  0
  190.0300  176.9970  145.2990 C   0  0  1  0  0  3  0  0  0  0  0  0
  189.7050  175.6200  147.3510 C   0  0  1  0  0  3  0  0  0  0  0  0
  188.0400  177.4850  143.7480 C   0  0  0  0  0  0  0  0  0  0  0  0
  185.2530  177.2990  143.5140 C   0  0  0  0  0  3  0  0  0  0  0  0
  189.1460  175.9400  145.9600 C   0  0  0  0  0  2  0  0  0  0  0  0
  189.7650  175.6070  142.3980 C   0  0  2  0  0  3  0  0  0  0  0  0
  185.0040  179.0310  145.1740 O   0  0  0  0  0  1  0  0  0  0  0  0
  192.2050  177.2530  144.3500 O   0  0  0  0  0  0  0  0  0  0  0  0
  188.8710  174.5310  147.9920 C   0  0  0  0  0  1  0  0  0  0  0  0
  188.3110  175.7210  141.9330 C   0  0  0  0  0  2  0  0  0  0  0  0
  190.3180  176.9980  142.7320 C   0  0  2  0  0  3  0  0  0  0  0  0
  187.2090  178.3070  144.5220 C   0  0  0  0  0  3  0  0  0  0  0  0
  191.1700  175.1670  147.2750 C   0  0  0  0  0  2  0  0  0  0  0  0
  187.4650  176.5540  142.8550 C   0  0  0  0  0  0  0  0  0  0  0  0
  186.0740  176.4770  142.7380 C   0  0  0  0  0  3  0  0  0  0  0  0
  191.8470  176.9620  143.0130 C   0  0  0  0  0  2  0  0  0  0  0  0
  191.4290  176.4110  145.1530 C   0  0  1  0  0  3  0  0  0  0  0  0
  192.0330  176.1890  146.5290 C   0  0  0  0  0  2  0  0  0  0  0  0
  190.5890  174.8850  141.3380 C   0  0  0  0  0  2  0  0  0  0  0  0
  190.0920  172.6440  141.9390 O   0  0  0  0  0  0  0  0  0  0  0  0
  190.9830  173.5300  141.8350 C   0  0  0  0  0  0  0  0  0  0  0  0
  194.9420  172.6910  143.1960 N   0  0  0  0  0  0  0  0  0  0  0  0
  192.5630  172.1370  143.1830 C   0  0  0  0  0  2  0  0  0  0  0  0
  193.3940  174.6500  140.6980 O   0  0  0  0  0  0  0  0  0  0  0  0
  196.0880  172.8380  144.0740 C   0  0  0  0  0  1  0  0  0  0  0  0
  193.7920  172.4050  144.0520 C   0  0  0  0  0  2  0  0  0  0  0  0
  193.4640  173.9890  141.7670 C   0  0  0  0  0  0  0  0  0  0  0  0
  192.3290  173.2520  142.2630 N   0  0  0  0  0  0  0  0  0  0  0  0
  194.7370  173.9890  142.5550 C   0  0  0  0  0  2  0  0  0  0  0  0
  1 14  1  0  0  0  0
  1  9  1  0  0  0  0
  2  5  1  6  0  0  0
  2  3  1  0  0  0  0
  3  7  1  6  0  0  0
  4 11  1  6  0  0  0
  5 14  2  0  0  0  0
  6  1  2  0  0  0  0
  7  4  1  0  0  0  0
  8 21  1  6  0  0  0
  8 13  1  0  0  0  0
 10 19  1  0  0  0  0
 12  8  1  0  0  0  0
 12 16  1  0  0  0  0
 13 18  1  1  0  0  0
 13  2  1  0  0  0  0
 15  4  1  0  0  0  0
 16  5  1  0  0  0  0
 17 16  2  0  0  0  0
 17  6  1  0  0  0  0
 18 10  1  0  0  0  0
 19  3  1  0  0  0  0
 19 20  1  1  0  0  0
 20 15  1  0  0  0  0
 21 23  1  0  0  0  0
 23 22  2  0  0  0  0
 23 30  1  0  0  0  0
 24 28  1  0  0  0  0
 24 27  1  0  0  0  0
 25 28  1  0  0  0  0
 26 29  2  0  0  0  0
 29 30  1  0  0  0  0
 29 31  1  0  0  0  0
 30 25  1  0  0  0  0
 31 24  1  0  0  0  0
M  END
>  <MODEL>
8

>  <REMARK>
 VINA RESULT:      -7.2      1.730      2.366
  Name = 
  2 active torsions:
  status: ('A' for Active; 'I' for Inactive)
    1  A    between atoms: C_5  and  C_16
    2  A    between atoms: C_10  and  C_16
                            x       y       z     vdW  Elec       q    Type
                         _______ _______ _______ _____ _____    ______ ____

>  <TORSDO>
F 2

$$$$
=
 OpenBabel11112416513D

 31 35  0  0  1  0  0  0  0  0999 V2000
  187.8560  177.2510  141.2720 C   0  0  0  0  0  0  0  0  0  0  0  0
  188.9350  174.1250  143.1420 C   0  0  2  0  0  3  0  0  0  0  0  0
  189.7260  173.2770  142.1120 C   0  0  1  0  0  3  0  0  0  0  0  0
  191.3000  173.0710  140.1910 C   0  0  1  0  0  3  0  0  0  0  0  0
  188.7830  175.5760  142.7630 C   0  0  0  0  0  0  0  0  0  0  0  0
  188.5670  178.2480  141.9450 C   0  0  0  0  0  3  0  0  0  0  0  0
  190.7330  174.0300  141.2430 C   0  0  0  0  0  2  0  0  0  0  0  0
  190.6840  174.8010  144.7910 C   0  0  2  0  0  3  0  0  0  0  0  0
  187.0440  177.5830  140.1960 O   0  0  0  0  0  1  0  0  0  0  0  0
  189.6410  171.5790  143.7880 O   0  0  0  0  0  0  0  0  0  0  0  0
  192.3420  173.7910  139.3620 C   0  0  0  0  0  1  0  0  0  0  0  0
  190.3190  176.2830  144.6660 C   0  0  0  0  0  2  0  0  0  0  0  0
  189.4330  173.9360  144.5920 C   0  0  2  0  0  3  0  0  0  0  0  0
  187.9650  175.9190  141.6780 C   0  0  0  0  0  3  0  0  0  0  0  0
  191.9300  171.8310  140.8430 C   0  0  0  0  0  2  0  0  0  0  0  0
  189.5080  176.5840  143.4370 C   0  0  0  0  0  0  0  0  0  0  0  0
  189.3840  177.9150  143.0290 C   0  0  0  0  0  3  0  0  0  0  0  0
  189.7070  172.4380  144.9100 C   0  0  0  0  0  2  0  0  0  0  0  0
  190.4690  172.1450  142.8140 C   0  0  1  0  0  3  0  0  0  0  0  0
  190.9440  171.1350  141.7850 C   0  0  0  0  0  2  0  0  0  0  0  0
  191.3660  174.5500  146.1300 C   0  0  0  0  0  2  0  0  0  0  0  0
  192.2180  176.5640  147.0510 O   0  0  0  0  0  0  0  0  0  0  0  0
  192.4580  175.5510  146.3420 C   0  0  0  0  0  0  0  0  0  0  0  0
  196.2270  175.2260  144.3600 N   0  0  0  0  0  0  0  0  0  0  0  0
  194.5660  176.6040  145.5030 C   0  0  0  0  0  2  0  0  0  0  0  0
  193.8130  173.0620  145.7630 O   0  0  0  0  0  0  0  0  0  0  0  0
  197.1050  175.1970  143.2060 C   0  0  0  0  0  1  0  0  0  0  0  0
  195.4460  176.4570  144.2620 C   0  0  0  0  0  2  0  0  0  0  0  0
  194.2560  174.1350  145.2750 C   0  0  0  0  0  0  0  0  0  0  0  0
  193.7350  175.4130  145.6910 N   0  0  0  0  0  0  0  0  0  0  0  0
  195.3210  174.0860  144.2240 C   0  0  0  0  0  2  0  0  0  0  0  0
  1 14  2  0  0  0  0
  1  6  1  0  0  0  0
  2  5  1  6  0  0  0
  2 13  1  0  0  0  0
  3  7  1  1  0  0  0
  3 19  1  0  0  0  0
  3  2  1  0  0  0  0
  4 11  1  1  0  0  0
  4 15  1  0  0  0  0
  4  7  1  0  0  0  0
  5 16  2  0  0  0  0
  6 17  2  0  0  0  0
  8 21  1  1  0  0  0
  9  1  1  0  0  0  0
 10 18  1  0  0  0  0
 12  8  1  0  0  0  0
 13  8  1  0  0  0  0
 13 18  1  6  0  0  0
 14  5  1  0  0  0  0
 15 20  1  0  0  0  0
 16 12  1  0  0  0  0
 17 16  1  0  0  0  0
 19 20  1  6  0  0  0
 19 10  1  0  0  0  0
 21 23  1  0  0  0  0
 23 22  2  0  0  0  0
 25 30  1  0  0  0  0
 27 24  1  0  0  0  0
 28 24  1  0  0  0  0
 28 25  1  0  0  0  0
 29 30  1  0  0  0  0
 29 26  2  0  0  0  0
 30 23  1  0  0  0  0
 31 24  1  0  0  0  0
 31 29  1  0  0  0  0
M  END
>  <MODEL>
9

>  <REMARK>
 VINA RESULT:      -6.9      3.175      5.806
  Name = 
  2 active torsions:
  status: ('A' for Active; 'I' for Inactive)
    1  A    between atoms: C_5  and  C_16
    2  A    between atoms: C_10  and  C_16
                            x       y       z     vdW  Elec       q    Type
                         _______ _______ _______ _____ _____    ______ ____

>  <TORSDO>
F 2

$$$$
