=
 OpenBabel11112417183D

 37 43  0  0  1  0  0  0  0  0999 V2000
  192.0120  171.5740  142.5310 C   0  0  0  0  0  0  0  0  0  0  0  0
  189.2230  174.7020  143.1000 C   0  0  2  0  0  3  0  0  0  0  0  0
  188.9590  176.1570  146.7780 C   0  0  0  0  0  2  0  0  0  0  0  0
  190.2560  173.0660  141.5660 C   0  0  0  0  0  0  0  0  0  0  0  0
  189.6500  175.2990  144.3970 C   0  0  1  0  0  3  0  0  0  0  0  0
  189.8670  173.3900  142.9520 C   0  0  1  0  0  3  0  0  0  0  0  0
  188.4800  175.7570  145.3410 C   0  0  2  0  0  3  0  0  0  0  0  0
  189.6660  173.6410  140.5570 N   0  0  0  0  0  0  0  0  0  0  0  0
  191.0730  173.4930  143.7360 N   0  0  2  0  0  0  0  0  0  0  0  0
  193.4870  171.8780  142.3670 C   0  0  0  0  0  1  0  0  0  0  0  0
  188.0180  176.6690  142.2390 C   0  0  0  0  0  2  0  0  0  0  0  0
  188.5510  174.5920  140.7390 C   0  0  0  0  0  2  0  0  0  0  0  0
  191.5390  172.1230  143.9100 C   0  0  0  0  0  2  0  0  0  0  0  0
  191.2890  176.2390  147.8600 O   0  0  0  0  0  0  0  0  0  0  0  0
  190.4390  176.4620  146.7580 C   0  0  1  0  0  3  0  0  0  0  0  0
  188.6340  175.3190  142.0700 C   0  0  2  0  0  3  0  0  0  0  0  0
  190.5680  174.1560  144.9320 C   0  0  1  0  0  3  0  0  0  0  0  0
  191.2930  172.1370  141.4040 O   0  0  0  0  0  0  0  0  0  0  0  0
  187.6860  176.9450  144.7290 C   0  0  1  0  0  3  0  0  0  0  0  0
  191.8310  170.0700  142.5260 C   0  0  0  0  0  1  0  0  0  0  0  0
  190.9270  175.1040  147.1240 C   0  0  1  0  0  3  0  0  0  0  0  0
  191.6850  174.6310  145.8850 C   0  0  2  0  0  3  0  0  0  0  0  0
  187.0160  176.6390  143.3860 C   0  0  0  0  0  2  0  0  0  0  0  0
  185.4170  176.8130  145.7780 C   0  0  0  0  0  3  0  0  0  0  0  0
  186.6410  177.4800  145.6660 C   0  0  0  0  0  0  0  0  0  0  0  0
  186.8760  178.6330  146.4320 C   0  0  0  0  0  3  0  0  0  0  0  0
  186.1160  180.2270  148.0340 F   0  0  0  0  0  0  0  0  0  0  0  0
  184.6660  178.4430  147.4030 C   0  0  0  0  0  3  0  0  0  0  0  0
  185.8880  179.1130  147.2970 C   0  0  0  0  0  0  0  0  0  0  0  0
  184.4300  177.2930  146.6440 C   0  0  0  0  0  3  0  0  0  0  0  0
  192.4920  175.6240  145.3000 O   0  0  0  0  0  0  0  0  0  0  0  0
  193.7760  175.0680  145.2170 C   0  0  1  0  0  3  0  0  0  0  0  0
  193.4390  175.9540  143.0200 O   0  0  0  0  0  1  0  0  0  0  0  0
  194.3220  175.2120  143.8040 C   0  0  0  0  0  2  0  0  0  0  0  0
  194.7220  175.7140  146.2340 C   0  0  0  0  0  2  0  0  0  0  0  0
  194.4210  177.1630  146.4750 C   0  0  0  0  0  3  0  0  0  0  0  0
  194.9130  178.0250  145.7650 O   0  0  0  0  0  0  0  0  0  0  0  0
  1 13  1  0  0  0  0
  2  5  1  0  0  0  0
  4  6  1  0  0  0  0
  5 17  1  0  0  0  0
  5  7  1  0  0  0  0
  6  2  1  0  0  0  0
  6  9  1  0  0  0  0
  7  3  1  0  0  0  0
  8 12  1  0  0  0  0
  8  4  2  0  0  0  0
  9 13  1  0  0  0  0
  9 17  1  0  0  0  0
 10  1  1  0  0  0  0
 11 23  1  0  0  0  0
 12 16  1  0  0  0  0
 15  3  1  0  0  0  0
 15 21  1  0  0  0  0
 15 14  1  0  0  0  0
 16 11  1  0  0  0  0
 16  2  1  0  0  0  0
 17 22  1  0  0  0  0
 18  4  1  0  0  0  0
 18  1  1  0  0  0  0
 19  7  1  0  0  0  0
 19 25  1  0  0  0  0
 20  1  1  0  0  0  0
 21 14  1  0  0  0  0
 22 21  1  0  0  0  0
 23 19  1  0  0  0  0
 24 30  1  0  0  0  0
 25 24  2  0  0  0  0
 25 26  1  0  0  0  0
 26 29  2  0  0  0  0
 29 28  1  0  0  0  0
 29 27  1  0  0  0  0
 30 28  2  0  0  0  0
 31 22  1  0  0  0  0
 32 31  1  0  0  0  0
 32 35  1  0  0  0  0
 33 34  1  0  0  0  0
 34 32  1  0  0  0  0
 35 36  1  0  0  0  0
 37 36  2  0  0  0  0
M  END
>  <MODEL>
1

>  <REMARK>
 VINA RESULT:      -8.3      0.000      0.000
  Name = 
  6 active torsions:
  status: ('A' for Active; 'I' for Inactive)
    1  A    between atoms: O_1  and  C_4
    2  A    between atoms: O_1  and  C_27
    3  A    between atoms: C_4  and  C_12
    4  A    between atoms: C_4  and  C_37
    5  A    between atoms: C_8  and  C_12
    6  A    between atoms: C_23  and  C_30
                            x       y       z     vdW  Elec       q    Type
                         _______ _______ _______ _____ _____    ______ ____

>  <TORSDO>
F 6

$$$$
=
 OpenBabel11112417183D

 37 43  0  0  1  0  0  0  0  0999 V2000
  194.9530  175.4890  142.7620 C   0  0  0  0  0  0  0  0  0  0  0  0
  191.5100  176.2900  145.0830 C   0  0  2  0  0  3  0  0  0  0  0  0
  188.0380  176.1060  143.1780 C   0  0  0  0  0  2  0  0  0  0  0  0
  193.9700  176.1160  144.9710 C   0  0  0  0  0  0  0  0  0  0  0  0
  190.4060  175.7400  144.2460 C   0  0  1  0  0  3  0  0  0  0  0  0
  192.7150  176.4090  144.2530 C   0  0  1  0  0  3  0  0  0  0  0  0
  189.0820  176.5850  144.2440 C   0  0  2  0  0  3  0  0  0  0  0  0
  194.0350  176.2240  146.2680 N   0  0  0  0  0  0  0  0  0  0  0  0
  192.5470  175.4050  143.2320 N   0  0  2  0  0  0  0  0  0  0  0  0
  195.3580  174.0630  142.4510 C   0  0  0  0  0  1  0  0  0  0  0  0
  190.3250  176.2130  147.2410 C   0  0  0  0  0  2  0  0  0  0  0  0
  192.8910  176.6960  147.0750 C   0  0  0  0  0  2  0  0  0  0  0  0
  193.5210  175.7360  142.2000 C   0  0  0  0  0  2  0  0  0  0  0  0
  188.0740  174.1860  141.4700 O   0  0  0  0  0  0  0  0  0  0  0  0
  188.3510  174.6880  142.7570 C   0  0  1  0  0  3  0  0  0  0  0  0
  191.5610  176.3730  146.4180 C   0  0  2  0  0  3  0  0  0  0  0  0
  191.1460  175.6030  142.8790 C   0  0  1  0  0  3  0  0  0  0  0  0
  195.0600  175.7020  144.1930 O   0  0  0  0  0  0  0  0  0  0  0  0
  188.4030  176.5860  145.6420 C   0  0  1  0  0  3  0  0  0  0  0  0
  195.9140  176.4230  142.0550 C   0  0  0  0  0  1  0  0  0  0  0  0
  189.1990  175.0130  141.5780 C   0  0  1  0  0  3  0  0  0  0  0  0
  190.5850  174.4970  141.9600 C   0  0  2  0  0  3  0  0  0  0  0  0
  189.2560  177.1870  146.7640 C   0  0  0  0  0  2  0  0  0  0  0  0
  186.0040  176.7270  146.3430 C   0  0  0  0  0  3  0  0  0  0  0  0
  187.0740  177.2840  145.6350 C   0  0  0  0  0  0  0  0  0  0  0  0
  186.8910  178.4870  144.9350 C   0  0  0  0  0  3  0  0  0  0  0  0
  185.4690  180.2800  144.2640 F   0  0  0  0  0  0  0  0  0  0  0  0
  184.5780  178.5560  145.6500 C   0  0  0  0  0  3  0  0  0  0  0  0
  185.6430  179.1200  144.9420 C   0  0  0  0  0  0  0  0  0  0  0  0
  184.7580  177.3600  146.3510 C   0  0  0  0  0  3  0  0  0  0  0  0
  190.5690  173.2410  142.5940 O   0  0  0  0  0  0  0  0  0  0  0  0
  191.3090  172.3890  141.7640 C   0  0  1  0  0  3  0  0  0  0  0  0
  192.3350  172.0710  143.9020 O   0  0  0  0  0  1  0  0  0  0  0  0
  192.4210  171.7160  142.5560 C   0  0  0  0  0  2  0  0  0  0  0  0
  190.4050  171.3440  141.1020 C   0  0  0  0  0  2  0  0  0  0  0  0
  190.2330  171.5680  139.6300 C   0  0  0  0  0  3  0  0  0  0  0  0
  189.2210  172.0930  139.1960 O   0  0  0  0  0  0  0  0  0  0  0  0
  1 18  1  0  0  0  0
  2 16  1  0  0  0  0
  3  7  1  0  0  0  0
  4  8  2  0  0  0  0
  5  2  1  0  0  0  0
  6  4  1  0  0  0  0
  6  2  1  0  0  0  0
  7  5  1  0  0  0  0
  7 19  1  0  0  0  0
  8 12  1  0  0  0  0
  9  6  1  0  0  0  0
 10  1  1  0  0  0  0
 13  1  1  0  0  0  0
 13  9  1  0  0  0  0
 14 21  1  0  0  0  0
 14 15  1  0  0  0  0
 15  3  1  0  0  0  0
 16 12  1  0  0  0  0
 16 11  1  0  0  0  0
 17  9  1  0  0  0  0
 17  5  1  0  0  0  0
 18  4  1  0  0  0  0
 19 23  1  0  0  0  0
 20  1  1  0  0  0  0
 21 22  1  0  0  0  0
 21 15  1  0  0  0  0
 22 31  1  0  0  0  0
 22 17  1  0  0  0  0
 23 11  1  0  0  0  0
 24 30  1  0  0  0  0
 25 19  1  0  0  0  0
 25 24  2  0  0  0  0
 26 29  2  0  0  0  0
 26 25  1  0  0  0  0
 27 29  1  0  0  0  0
 28 30  2  0  0  0  0
 29 28  1  0  0  0  0
 32 34  1  0  0  0  0
 32 31  1  0  0  0  0
 34 33  1  0  0  0  0
 35 32  1  0  0  0  0
 36 35  1  0  0  0  0
 37 36  2  0  0  0  0
M  END
>  <MODEL>
2

>  <REMARK>
 VINA RESULT:      -8.3      1.984      5.043
  Name = 
  6 active torsions:
  status: ('A' for Active; 'I' for Inactive)
    1  A    between atoms: O_1  and  C_4
    2  A    between atoms: O_1  and  C_27
    3  A    between atoms: C_4  and  C_12
    4  A    between atoms: C_4  and  C_37
    5  A    between atoms: C_8  and  C_12
    6  A    between atoms: C_23  and  C_30
                            x       y       z     vdW  Elec       q    Type
                         _______ _______ _______ _____ _____    ______ ____

>  <TORSDO>
F 6

$$$$
=
 OpenBabel11112417183D

 37 43  0  0  1  0  0  0  0  0999 V2000
  192.0710  171.3420  142.4520 C   0  0  0  0  0  0  0  0  0  0  0  0
  189.1930  174.4400  142.3830 C   0  0  2  0  0  3  0  0  0  0  0  0
  188.8360  176.5660  145.7100 C   0  0  0  0  0  2  0  0  0  0  0  0
  190.2920  172.5710  141.2020 C   0  0  0  0  0  0  0  0  0  0  0  0
  189.5850  175.2870  143.5450 C   0  0  1  0  0  3  0  0  0  0  0  0
  189.8740  173.1430  142.4960 C   0  0  1  0  0  3  0  0  0  0  0  0
  188.3890  175.8840  144.3720 C   0  0  2  0  0  3  0  0  0  0  0  0
  189.7020  172.9250  140.0960 N   0  0  0  0  0  0  0  0  0  0  0  0
  191.0640  173.4290  143.2570 N   0  0  2  0  0  0  0  0  0  0  0  0
  193.5400  171.6510  142.2480 C   0  0  0  0  0  1  0  0  0  0  0  0
  187.9500  176.1710  141.1490 C   0  0  0  0  0  2  0  0  0  0  0  0
  188.5590  173.8610  140.0810 C   0  0  0  0  0  2  0  0  0  0  0  0
  191.5630  172.1320  143.6960 C   0  0  0  0  0  2  0  0  0  0  0  0
  191.1460  176.9200  146.7800 O   0  0  0  0  0  0  0  0  0  0  0  0
  190.3080  176.9030  145.6470 C   0  0  1  0  0  3  0  0  0  0  0  0
  188.6040  174.8320  141.2480 C   0  0  2  0  0  3  0  0  0  0  0  0
  190.5240  174.2950  144.2990 C   0  0  1  0  0  3  0  0  0  0  0  0
  191.3550  171.6580  141.2310 O   0  0  0  0  0  0  0  0  0  0  0  0
  187.5730  176.9090  143.5360 C   0  0  1  0  0  3  0  0  0  0  0  0
  191.9300  169.8610  142.7350 C   0  0  0  0  0  1  0  0  0  0  0  0
  190.8250  175.6550  146.2710 C   0  0  1  0  0  3  0  0  0  0  0  0
  191.6140  174.9750  145.1540 C   0  0  2  0  0  3  0  0  0  0  0  0
  186.9330  176.3330  142.2700 C   0  0  0  0  0  2  0  0  0  0  0  0
  186.2470  178.9440  144.1410 C   0  0  0  0  0  3  0  0  0  0  0  0
  186.5010  177.5830  144.3420 C   0  0  0  0  0  0  0  0  0  0  0  0
  185.7490  176.8700  145.2900 C   0  0  0  0  0  3  0  0  0  0  0  0
  184.0320  176.8290  146.9440 F   0  0  0  0  0  0  0  0  0  0  0  0
  184.5080  178.8790  145.8240 C   0  0  0  0  0  3  0  0  0  0  0  0
  184.7550  177.5190  146.0300 C   0  0  0  0  0  0  0  0  0  0  0  0
  185.2530  179.5920  144.8800 C   0  0  0  0  0  3  0  0  0  0  0  0
  192.4040  175.8600  144.3970 O   0  0  0  0  0  0  0  0  0  0  0  0
  193.7320  175.5320  144.6960 C   0  0  1  0  0  3  0  0  0  0  0  0
  194.4890  176.7960  146.5820 O   0  0  0  0  0  1  0  0  0  0  0  0
  194.4810  176.7630  145.1880 C   0  0  0  0  0  2  0  0  0  0  0  0
  193.8010  174.4050  145.7300 C   0  0  0  0  0  2  0  0  0  0  0  0
  194.7600  173.3180  145.3480 C   0  0  0  0  0  3  0  0  0  0  0  0
  194.5490  172.1610  145.6750 O   0  0  0  0  0  0  0  0  0  0  0  0
  1 20  1  0  0  0  0
  1 13  1  0  0  0  0
  2  6  1  0  0  0  0
  2  5  1  0  0  0  0
  4 18  1  0  0  0  0
  4  6  1  0  0  0  0
  5 17  1  0  0  0  0
  5  7  1  0  0  0  0
  6  9  1  0  0  0  0
  7  3  1  0  0  0  0
  8  4  2  0  0  0  0
  9 13  1  0  0  0  0
  9 17  1  0  0  0  0
 10  1  1  0  0  0  0
 11 16  1  0  0  0  0
 11 23  1  0  0  0  0
 12  8  1  0  0  0  0
 12 16  1  0  0  0  0
 15  3  1  0  0  0  0
 15 21  1  0  0  0  0
 15 14  1  0  0  0  0
 16  2  1  0  0  0  0
 17 22  1  0  0  0  0
 18  1  1  0  0  0  0
 19 25  1  0  0  0  0
 19  7  1  0  0  0  0
 21 14  1  0  0  0  0
 22 21  1  0  0  0  0
 23 19  1  0  0  0  0
 24 25  2  0  0  0  0
 24 30  1  0  0  0  0
 25 26  1  0  0  0  0
 26 29  2  0  0  0  0
 28 29  1  0  0  0  0
 29 27  1  0  0  0  0
 30 28  2  0  0  0  0
 31 32  1  0  0  0  0
 31 22  1  0  0  0  0
 32 34  1  0  0  0  0
 32 35  1  0  0  0  0
 34 33  1  0  0  0  0
 36 37  2  0  0  0  0
 36 35  1  0  0  0  0
M  END
>  <MODEL>
3

>  <REMARK>
 VINA RESULT:      -7.8      1.420      1.948
  Name = 
  6 active torsions:
  status: ('A' for Active; 'I' for Inactive)
    1  A    between atoms: O_1  and  C_4
    2  A    between atoms: O_1  and  C_27
    3  A    between atoms: C_4  and  C_12
    4  A    between atoms: C_4  and  C_37
    5  A    between atoms: C_8  and  C_12
    6  A    between atoms: C_23  and  C_30
                            x       y       z     vdW  Elec       q    Type
                         _______ _______ _______ _____ _____    ______ ____

>  <TORSDO>
F 6

$$$$
=
 OpenBabel11112417183D

 37 43  0  0  1  0  0  0  0  0999 V2000
  192.6800  170.7450  143.1170 C   0  0  0  0  0  0  0  0  0  0  0  0
  189.7330  173.7570  142.7560 C   0  0  2  0  0  3  0  0  0  0  0  0
  189.4210  176.2690  145.8070 C   0  0  0  0  0  2  0  0  0  0  0  0
  190.8400  171.7780  141.7800 C   0  0  0  0  0  0  0  0  0  0  0  0
  190.1380  174.7480  143.7940 C   0  0  1  0  0  3  0  0  0  0  0  0
  190.4450  172.4970  143.0060 C   0  0  1  0  0  3  0  0  0  0  0  0
  188.9530  175.4190  144.5770 C   0  0  2  0  0  3  0  0  0  0  0  0
  190.2120  171.9820  140.6570 N   0  0  0  0  0  0  0  0  0  0  0  0
  191.6490  172.8960  143.6910 N   0  0  2  0  0  0  0  0  0  0  0  0
  194.1350  171.0540  142.8320 C   0  0  0  0  0  1  0  0  0  0  0  0
  188.4180  175.3000  141.3570 C   0  0  0  0  0  2  0  0  0  0  0  0
  189.0490  172.8880  140.5620 C   0  0  0  0  0  2  0  0  0  0  0  0
  192.1890  171.6730  144.2690 C   0  0  0  0  0  2  0  0  0  0  0  0
  191.7510  176.7950  146.7550 O   0  0  0  0  0  0  0  0  0  0  0  0
  190.8830  176.6230  145.6590 C   0  0  1  0  0  3  0  0  0  0  0  0
  189.1040  173.9950  141.6000 C   0  0  2  0  0  3  0  0  0  0  0  0
  191.1200  173.8730  144.6350 C   0  0  1  0  0  3  0  0  0  0  0  0
  191.9230  170.8950  141.8890 O   0  0  0  0  0  0  0  0  0  0  0  0
  188.0920  176.3190  143.6470 C   0  0  1  0  0  3  0  0  0  0  0  0
  192.5790  169.3070  143.5830 C   0  0  0  0  0  1  0  0  0  0  0  0
  191.4450  175.4710  146.4150 C   0  0  1  0  0  3  0  0  0  0  0  0
  192.2170  174.6730  145.3660 C   0  0  2  0  0  3  0  0  0  0  0  0
  187.4290  175.5800  142.4800 C   0  0  0  0  0  2  0  0  0  0  0  0
  186.3270  176.4200  145.4190 C   0  0  0  0  0  3  0  0  0  0  0  0
  187.0270  177.0670  144.3960 C   0  0  0  0  0  0  0  0  0  0  0  0
  186.7290  178.4050  144.0890 C   0  0  0  0  0  3  0  0  0  0  0  0
  185.4460  180.3720  144.5010 F   0  0  0  0  0  0  0  0  0  0  0  0
  185.0360  178.4280  145.8210 C   0  0  0  0  0  3  0  0  0  0  0  0
  185.7330  179.0820  144.8010 C   0  0  0  0  0  0  0  0  0  0  0  0
  185.3330  177.0980  146.1300 C   0  0  0  0  0  3  0  0  0  0  0  0
  192.9660  175.4730  144.4830 O   0  0  0  0  0  0  0  0  0  0  0  0
  194.2790  175.4480  144.9710 C   0  0  1  0  0  3  0  0  0  0  0  0
  195.3370  173.4110  145.6490 O   0  0  0  0  0  1  0  0  0  0  0  0
  194.9790  174.1690  144.5340 C   0  0  0  0  0  2  0  0  0  0  0  0
  195.0610  176.6810  144.5090 C   0  0  0  0  0  2  0  0  0  0  0  0
  196.1430  176.3520  143.5260 C   0  0  0  0  0  3  0  0  0  0  0  0
  196.1000  176.7890  142.3870 O   0  0  0  0  0  0  0  0  0  0  0  0
  1 20  1  0  0  0  0
  1 13  1  0  0  0  0
  2  6  1  0  0  0  0
  2  5  1  0  0  0  0
  4 18  1  0  0  0  0
  4  6  1  0  0  0  0
  5  7  1  0  0  0  0
  5 17  1  0  0  0  0
  6  9  1  0  0  0  0
  7  3  1  0  0  0  0
  8  4  2  0  0  0  0
  9 13  1  0  0  0  0
  9 17  1  0  0  0  0
 10  1  1  0  0  0  0
 11 16  1  0  0  0  0
 11 23  1  0  0  0  0
 12  8  1  0  0  0  0
 12 16  1  0  0  0  0
 15  3  1  0  0  0  0
 15 21  1  0  0  0  0
 15 14  1  0  0  0  0
 16  2  1  0  0  0  0
 17 22  1  0  0  0  0
 18  1  1  0  0  0  0
 19 25  1  0  0  0  0
 19  7  1  0  0  0  0
 21 14  1  0  0  0  0
 22 21  1  0  0  0  0
 23 19  1  0  0  0  0
 24 30  1  0  0  0  0
 25 24  2  0  0  0  0
 26 25  1  0  0  0  0
 26 29  2  0  0  0  0
 27 29  1  0  0  0  0
 28 30  2  0  0  0  0
 29 28  1  0  0  0  0
 31 32  1  0  0  0  0
 31 22  1  0  0  0  0
 34 32  1  0  0  0  0
 34 33  1  0  0  0  0
 35 32  1  0  0  0  0
 36 35  1  0  0  0  0
 37 36  2  0  0  0  0
M  END
>  <MODEL>
4

>  <REMARK>
 VINA RESULT:      -7.5      1.537      1.793
  Name = 
  6 active torsions:
  status: ('A' for Active; 'I' for Inactive)
    1  A    between atoms: O_1  and  C_4
    2  A    between atoms: O_1  and  C_27
    3  A    between atoms: C_4  and  C_12
    4  A    between atoms: C_4  and  C_37
    5  A    between atoms: C_8  and  C_12
    6  A    between atoms: C_23  and  C_30
                            x       y       z     vdW  Elec       q    Type
                         _______ _______ _______ _____ _____    ______ ____

>  <TORSDO>
F 6

$$$$
=
 OpenBabel11112417183D

 37 43  0  0  1  0  0  0  0  0999 V2000
  196.7980  170.4870  145.1770 C   0  0  0  0  0  0  0  0  0  0  0  0
  192.9540  172.1580  144.6130 C   0  0  2  0  0  3  0  0  0  0  0  0
  192.4280  175.8360  145.9970 C   0  0  0  0  0  2  0  0  0  0  0  0
  194.4620  170.2230  144.3330 C   0  0  0  0  0  0  0  0  0  0  0  0
  193.1870  173.6150  144.8250 C   0  0  1  0  0  3  0  0  0  0  0  0
  194.1130  171.4160  145.1280 C   0  0  1  0  0  3  0  0  0  0  0  0
  192.0430  174.3720  145.5910 C   0  0  2  0  0  3  0  0  0  0  0  0
  193.5710  169.6400  143.5820 N   0  0  0  0  0  0  0  0  0  0  0  0
  195.2080  172.3490  145.0270 N   0  0  2  0  0  0  0  0  0  0  0  0
  197.9390  170.8510  144.2490 C   0  0  0  0  0  1  0  0  0  0  0  0
  190.8930  172.3690  143.2820 C   0  0  0  0  0  2  0  0  0  0  0  0
  192.1680  170.0980  143.5290 C   0  0  0  0  0  2  0  0  0  0  0  0
  196.2700  171.7890  145.8520 C   0  0  0  0  0  2  0  0  0  0  0  0
  194.5530  177.2300  145.6170 O   0  0  0  0  0  0  0  0  0  0  0  0
  193.5880  176.3130  145.1550 C   0  0  1  0  0  3  0  0  0  0  0  0
  192.0430  171.5820  143.8200 C   0  0  2  0  0  3  0  0  0  0  0  0
  194.5800  173.5660  145.5280 C   0  0  1  0  0  3  0  0  0  0  0  0
  195.7880  169.7760  144.4170 O   0  0  0  0  0  0  0  0  0  0  0  0
  190.7310  174.4130  144.7590 C   0  0  1  0  0  3  0  0  0  0  0  0
  197.3340  169.5710  146.2570 C   0  0  0  0  0  1  0  0  0  0  0  0
  194.6840  175.9140  146.0800 C   0  0  1  0  0  3  0  0  0  0  0  0
  195.4430  174.8290  145.3190 C   0  0  2  0  0  3  0  0  0  0  0  0
  190.1440  173.0380  144.4260 C   0  0  0  0  0  2  0  0  0  0  0  0
  189.1670  174.8470  146.6640 C   0  0  0  0  0  3  0  0  0  0  0  0
  189.6610  175.2370  145.4150 C   0  0  0  0  0  0  0  0  0  0  0  0
  189.1530  176.3910  144.7980 C   0  0  0  0  0  3  0  0  0  0  0  0
  187.6660  178.2550  144.8290 F   0  0  0  0  0  0  0  0  0  0  0  0
  187.6660  176.7460  146.6750 C   0  0  0  0  0  3  0  0  0  0  0  0
  188.1550  177.1420  145.4280 C   0  0  0  0  0  0  0  0  0  0  0  0
  188.1710  175.5990  147.2940 C   0  0  0  0  0  3  0  0  0  0  0  0
  195.6330  175.1190  143.9550 O   0  0  0  0  0  0  0  0  0  0  0  0
  196.9400  175.6130  143.8530 C   0  0  1  0  0  3  0  0  0  0  0  0
  197.6180  173.7550  142.5060 O   0  0  0  0  0  1  0  0  0  0  0  0
  197.9240  174.4660  143.6660 C   0  0  0  0  0  2  0  0  0  0  0  0
  197.0580  176.6230  142.7070 C   0  0  0  0  0  2  0  0  0  0  0  0
  195.8750  176.6050  141.7870 C   0  0  0  0  0  3  0  0  0  0  0  0
  195.9200  175.9950  140.7310 O   0  0  0  0  0  0  0  0  0  0  0  0
  1 13  1  0  0  0  0
  1 20  1  0  0  0  0
  2  5  1  0  0  0  0
  2  6  1  0  0  0  0
  4 18  1  0  0  0  0
  4  6  1  0  0  0  0
  5 17  1  0  0  0  0
  5  7  1  0  0  0  0
  7  3  1  0  0  0  0
  8  4  2  0  0  0  0
  9  6  1  0  0  0  0
  9 17  1  0  0  0  0
  9 13  1  0  0  0  0
 10  1  1  0  0  0  0
 11 16  1  0  0  0  0
 11 23  1  0  0  0  0
 12  8  1  0  0  0  0
 12 16  1  0  0  0  0
 14 21  1  0  0  0  0
 15 14  1  0  0  0  0
 15  3  1  0  0  0  0
 15 21  1  0  0  0  0
 16  2  1  0  0  0  0
 18  1  1  0  0  0  0
 19 25  1  0  0  0  0
 19  7  1  0  0  0  0
 22 17  1  0  0  0  0
 22 21  1  0  0  0  0
 23 19  1  0  0  0  0
 24 30  1  0  0  0  0
 25 24  2  0  0  0  0
 26 25  1  0  0  0  0
 26 29  2  0  0  0  0
 27 29  1  0  0  0  0
 28 30  2  0  0  0  0
 29 28  1  0  0  0  0
 31 22  1  0  0  0  0
 32 31  1  0  0  0  0
 33 34  1  0  0  0  0
 34 32  1  0  0  0  0
 35 32  1  0  0  0  0
 36 35  1  0  0  0  0
 37 36  2  0  0  0  0
M  END
>  <MODEL>
5

>  <REMARK>
 VINA RESULT:      -7.4      2.911      4.647
  Name = 
  6 active torsions:
  status: ('A' for Active; 'I' for Inactive)
    1  A    between atoms: O_1  and  C_4
    2  A    between atoms: O_1  and  C_27
    3  A    between atoms: C_4  and  C_12
    4  A    between atoms: C_4  and  C_37
    5  A    between atoms: C_8  and  C_12
    6  A    between atoms: C_23  and  C_30
                            x       y       z     vdW  Elec       q    Type
                         _______ _______ _______ _____ _____    ______ ____

>  <TORSDO>
F 6

$$$$
=
 OpenBabel11112417183D

 37 43  0  0  1  0  0  0  0  0999 V2000
  186.1570  177.9320  146.4540 C   0  0  0  0  0  0  0  0  0  0  0  0
  189.8280  176.0210  145.5820 C   0  0  2  0  0  3  0  0  0  0  0  0
  189.8190  173.5560  142.4780 C   0  0  0  0  0  2  0  0  0  0  0  0
  188.5560  177.5550  147.0400 C   0  0  0  0  0  0  0  0  0  0  0  0
  189.6310  175.5370  144.1860 C   0  0  1  0  0  3  0  0  0  0  0  0
  188.5200  176.3830  146.1430 C   0  0  1  0  0  3  0  0  0  0  0  0
  190.2470  174.1260  143.8730 C   0  0  2  0  0  3  0  0  0  0  0  0
  189.6610  177.9040  147.6350 N   0  0  0  0  0  0  0  0  0  0  0  0
  187.7220  176.7330  144.9940 N   0  0  2  0  0  0  0  0  0  0  0  0
  185.7160  179.1490  145.6660 C   0  0  0  0  0  1  0  0  0  0  0  0
  192.2900  176.0400  145.5540 C   0  0  0  0  0  2  0  0  0  0  0  0
  190.9080  177.1250  147.4930 C   0  0  0  0  0  2  0  0  0  0  0  0
  186.3440  176.7400  145.4680 C   0  0  0  0  0  2  0  0  0  0  0  0
  188.3370  174.5060  140.6050 O   0  0  0  0  0  0  0  0  0  0  0  0
  189.3260  174.6790  141.5940 C   0  0  1  0  0  3  0  0  0  0  0  0
  190.9730  176.3920  146.1650 C   0  0  2  0  0  3  0  0  0  0  0  0
  188.0790  175.6590  144.0740 C   0  0  1  0  0  3  0  0  0  0  0  0
  187.3590  178.2680  147.1940 O   0  0  0  0  0  0  0  0  0  0  0  0
  191.7990  174.1530  143.9470 C   0  0  1  0  0  3  0  0  0  0  0  0
  185.0600  177.5760  147.4350 C   0  0  0  0  0  1  0  0  0  0  0  0
  187.8790  174.5730  141.9270 C   0  0  1  0  0  3  0  0  0  0  0  0
  187.5600  175.8860  142.6390 C   0  0  2  0  0  3  0  0  0  0  0  0
  192.3650  174.5380  145.3170 C   0  0  0  0  0  2  0  0  0  0  0  0
  193.2370  172.8100  142.4000 C   0  0  0  0  0  3  0  0  0  0  0  0
  192.4160  172.8490  143.5320 C   0  0  0  0  0  0  0  0  0  0  0  0
  192.1860  171.6720  144.2630 C   0  0  0  0  0  3  0  0  0  0  0  0
  192.5460  169.3340  144.5640 F   0  0  0  0  0  0  0  0  0  0  0  0
  193.5890  170.4360  142.7240 C   0  0  0  0  0  3  0  0  0  0  0  0
  192.7710  170.4680  143.8570 C   0  0  0  0  0  0  0  0  0  0  0  0
  193.8220  171.6060  141.9960 C   0  0  0  0  0  3  0  0  0  0  0  0
  188.1470  177.0150  142.0370 O   0  0  0  0  0  0  0  0  0  0  0  0
  187.0900  177.7260  141.4560 C   0  0  1  0  0  3  0  0  0  0  0  0
  185.8240  177.1960  139.4950 O   0  0  0  0  0  1  0  0  0  0  0  0
  187.0980  177.5410  139.9450 C   0  0  0  0  0  2  0  0  0  0  0  0
  185.7450  177.2960  142.0480 C   0  0  0  0  0  2  0  0  0  0  0  0
  184.8570  178.4540  142.3870 C   0  0  0  0  0  3  0  0  0  0  0  0
  183.6580  178.2920  142.5470 O   0  0  0  0  0  0  0  0  0  0  0  0
  1 18  1  0  0  0  0
  1 20  1  0  0  0  0
  2  6  1  0  0  0  0
  2 16  1  0  0  0  0
  3  7  1  0  0  0  0
  4 18  1  0  0  0  0
  4  8  2  0  0  0  0
  5  2  1  0  0  0  0
  6  4  1  0  0  0  0
  7 19  1  0  0  0  0
  7  5  1  0  0  0  0
  9 13  1  0  0  0  0
  9  6  1  0  0  0  0
 10  1  1  0  0  0  0
 11 16  1  0  0  0  0
 12  8  1  0  0  0  0
 13  1  1  0  0  0  0
 14 15  1  0  0  0  0
 14 21  1  0  0  0  0
 15 21  1  0  0  0  0
 15  3  1  0  0  0  0
 16 12  1  0  0  0  0
 17  5  1  0  0  0  0
 17  9  1  0  0  0  0
 19 23  1  0  0  0  0
 21 22  1  0  0  0  0
 22 17  1  0  0  0  0
 23 11  1  0  0  0  0
 24 25  1  0  0  0  0
 25 19  1  0  0  0  0
 25 26  2  0  0  0  0
 28 29  2  0  0  0  0
 29 26  1  0  0  0  0
 29 27  1  0  0  0  0
 30 24  2  0  0  0  0
 30 28  1  0  0  0  0
 31 22  1  0  0  0  0
 32 31  1  0  0  0  0
 32 35  1  0  0  0  0
 33 34  1  0  0  0  0
 34 32  1  0  0  0  0
 35 36  1  0  0  0  0
 36 37  2  0  0  0  0
M  END
>  <MODEL>
6

>  <REMARK>
 VINA RESULT:      -6.9      3.681      8.156
  Name = 
  6 active torsions:
  status: ('A' for Active; 'I' for Inactive)
    1  A    between atoms: O_1  and  C_4
    2  A    between atoms: O_1  and  C_27
    3  A    between atoms: C_4  and  C_12
    4  A    between atoms: C_4  and  C_37
    5  A    between atoms: C_8  and  C_12
    6  A    between atoms: C_23  and  C_30
                            x       y       z     vdW  Elec       q    Type
                         _______ _______ _______ _____ _____    ______ ____

>  <TORSDO>
F 6

$$$$
=
 OpenBabel11112417183D

 37 43  0  0  1  0  0  0  0  0999 V2000
  189.7530  175.8540  145.4150 C   0  0  0  0  0  0  0  0  0  0  0  0
  193.5980  174.1010  145.5720 C   0  0  2  0  0  3  0  0  0  0  0  0
  193.8390  170.3140  144.4210 C   0  0  0  0  0  2  0  0  0  0  0  0
  192.1770  176.0800  145.9720 C   0  0  0  0  0  0  0  0  0  0  0  0
  193.4510  172.8930  144.7110 C   0  0  1  0  0  3  0  0  0  0  0  0
  192.2600  174.6080  145.9020 C   0  0  1  0  0  3  0  0  0  0  0  0
  194.2070  171.6120  145.2180 C   0  0  2  0  0  3  0  0  0  0  0  0
  193.2420  176.7960  146.1980 N   0  0  0  0  0  0  0  0  0  0  0  0
  191.4310  174.1710  144.8060 N   0  0  2  0  0  0  0  0  0  0  0  0
  189.1910  176.3610  144.1030 C   0  0  0  0  0  1  0  0  0  0  0  0
  196.0460  174.3060  145.3950 C   0  0  0  0  0  2  0  0  0  0  0  0
  194.5610  176.1830  146.4520 C   0  0  0  0  0  2  0  0  0  0  0  0
  190.0590  174.3330  145.2710 C   0  0  0  0  0  2  0  0  0  0  0  0
  192.2680  169.8990  142.4300 O   0  0  0  0  0  0  0  0  0  0  0  0
  193.2340  170.6870  143.0870 C   0  0  1  0  0  3  0  0  0  0  0  0
  194.7000  174.8320  145.7730 C   0  0  2  0  0  3  0  0  0  0  0  0
  191.8950  172.7990  144.6400 C   0  0  1  0  0  3  0  0  0  0  0  0
  190.9140  176.6500  145.7630 O   0  0  0  0  0  0  0  0  0  0  0  0
  195.7490  171.8060  145.1740 C   0  0  1  0  0  3  0  0  0  0  0  0
  188.6970  176.0310  146.4860 C   0  0  0  0  0  1  0  0  0  0  0  0
  191.8060  170.6700  143.5050 C   0  0  1  0  0  3  0  0  0  0  0  0
  191.3550  172.1230  143.3620 C   0  0  2  0  0  3  0  0  0  0  0  0
  196.2730  172.9490  146.0480 C   0  0  0  0  0  2  0  0  0  0  0  0
  197.2260  169.8830  144.5530 C   0  0  0  0  0  3  0  0  0  0  0  0
  196.4950  170.5540  145.5380 C   0  0  0  0  0  0  0  0  0  0  0  0
  196.4730  170.0520  146.8490 C   0  0  0  0  0  3  0  0  0  0  0  0
  197.1510  168.4020  148.4300 F   0  0  0  0  0  0  0  0  0  0  0  0
  197.9030  168.2180  146.1750 C   0  0  0  0  0  3  0  0  0  0  0  0
  197.1750  168.8850  147.1650 C   0  0  0  0  0  0  0  0  0  0  0  0
  197.9280  168.7170  144.8690 C   0  0  0  0  0  3  0  0  0  0  0  0
  191.8250  172.7500  142.1930 O   0  0  0  0  0  0  0  0  0  0  0  0
  190.6850  173.0230  141.4260 C   0  0  1  0  0  3  0  0  0  0  0  0
  190.3390  171.1980  139.9170 O   0  0  0  0  0  1  0  0  0  0  0  0
  190.8610  172.4880  140.0120 C   0  0  0  0  0  2  0  0  0  0  0  0
  189.4300  172.4340  142.0770 C   0  0  0  0  0  2  0  0  0  0  0  0
  188.2510  173.3580  142.0160 C   0  0  0  0  0  3  0  0  0  0  0  0
  188.2450  174.3050  141.2460 O   0  0  0  0  0  0  0  0  0  0  0  0
  1 18  1  0  0  0  0
  1 20  1  0  0  0  0
  2 16  1  0  0  0  0
  2  6  1  0  0  0  0
  3  7  1  0  0  0  0
  4  8  2  0  0  0  0
  5  7  1  0  0  0  0
  5  2  1  0  0  0  0
  6  4  1  0  0  0  0
  8 12  1  0  0  0  0
  9 13  1  0  0  0  0
  9  6  1  0  0  0  0
 10  1  1  0  0  0  0
 11 16  1  0  0  0  0
 11 23  1  0  0  0  0
 13  1  1  0  0  0  0
 14 15  1  0  0  0  0
 14 21  1  0  0  0  0
 15 21  1  0  0  0  0
 15  3  1  0  0  0  0
 16 12  1  0  0  0  0
 17  5  1  0  0  0  0
 17  9  1  0  0  0  0
 18  4  1  0  0  0  0
 19  7  1  0  0  0  0
 19 25  1  0  0  0  0
 19 23  1  0  0  0  0
 22 21  1  0  0  0  0
 22 17  1  0  0  0  0
 24 30  2  0  0  0  0
 24 25  1  0  0  0  0
 25 26  2  0  0  0  0
 26 29  1  0  0  0  0
 28 29  2  0  0  0  0
 29 27  1  0  0  0  0
 30 28  1  0  0  0  0
 31 22  1  0  0  0  0
 32 35  1  0  0  0  0
 32 31  1  0  0  0  0
 33 34  1  0  0  0  0
 34 32  1  0  0  0  0
 36 35  1  0  0  0  0
 37 36  2  0  0  0  0
M  END
>  <MODEL>
7

>  <REMARK>
 VINA RESULT:      -6.7      3.990      8.831
  Name = 
  6 active torsions:
  status: ('A' for Active; 'I' for Inactive)
    1  A    between atoms: O_1  and  C_4
    2  A    between atoms: O_1  and  C_27
    3  A    between atoms: C_4  and  C_12
    4  A    between atoms: C_4  and  C_37
    5  A    between atoms: C_8  and  C_12
    6  A    between atoms: C_23  and  C_30
                            x       y       z     vdW  Elec       q    Type
                         _______ _______ _______ _____ _____    ______ ____

>  <TORSDO>
F 6

$$$$
=
 OpenBabel11112417183D

 37 43  0  0  1  0  0  0  0  0999 V2000
  187.5800  176.8120  142.2630 C   0  0  0  0  0  0  0  0  0  0  0  0
  190.4460  173.7970  143.0270 C   0  0  2  0  0  3  0  0  0  0  0  0
  193.2920  174.7120  145.6310 C   0  0  0  0  0  2  0  0  0  0  0  0
  188.4370  174.5150  141.7840 C   0  0  0  0  0  0  0  0  0  0  0  0
  191.0800  174.2510  144.2970 C   0  0  1  0  0  3  0  0  0  0  0  0
  189.6900  174.9170  142.4520 C   0  0  1  0  0  3  0  0  0  0  0  0
  192.6300  174.0140  144.3930 C   0  0  2  0  0  3  0  0  0  0  0  0
  188.2800  173.3010  141.3390 N   0  0  0  0  0  0  0  0  0  0  0  0
  189.3420  175.7340  143.5870 N   0  0  2  0  0  0  0  0  0  0  0  0
  186.4330  177.0450  143.2250 C   0  0  0  0  0  1  0  0  0  0  0  0
  191.0350  171.4140  143.2260 C   0  0  0  0  0  2  0  0  0  0  0  0
  189.3530  172.2890  141.4230 C   0  0  0  0  0  2  0  0  0  0  0  0
  188.9220  177.0130  143.0290 C   0  0  0  0  0  2  0  0  0  0  0  0
  192.3150  176.1320  147.5370 O   0  0  0  0  0  0  0  0  0  0  0  0
  192.2360  175.0280  146.6650 C   0  0  1  0  0  3  0  0  0  0  0  0
  190.2790  172.5400  142.6000 C   0  0  2  0  0  3  0  0  0  0  0  0
  190.6010  175.7370  144.3220 C   0  0  1  0  0  3  0  0  0  0  0  0
  187.4370  175.4920  141.6790 O   0  0  0  0  0  0  0  0  0  0  0  0
  192.9740  172.4980  144.4320 C   0  0  1  0  0  3  0  0  0  0  0  0
  187.4970  177.8480  141.1610 C   0  0  0  0  0  1  0  0  0  0  0  0
  191.9300  176.4150  146.2200 C   0  0  1  0  0  3  0  0  0  0  0  0
  190.4830  176.3430  145.7360 C   0  0  2  0  0  3  0  0  0  0  0  0
  192.5270  171.7120  143.1950 C   0  0  0  0  0  2  0  0  0  0  0  0
  195.3680  172.8390  143.7870 C   0  0  0  0  0  3  0  0  0  0  0  0
  194.4380  172.2470  144.6470 C   0  0  0  0  0  0  0  0  0  0  0  0
  194.8870  171.4320  145.6990 C   0  0  0  0  0  3  0  0  0  0  0  0
  196.6860  170.4240  146.8960 F   0  0  0  0  0  0  0  0  0  0  0  0
  197.1790  171.8050  145.0160 C   0  0  0  0  0  3  0  0  0  0  0  0
  196.2560  171.2120  145.8810 C   0  0  0  0  0  0  0  0  0  0  0  0
  196.7360  172.6180  143.9690 C   0  0  0  0  0  3  0  0  0  0  0  0
  189.6430  175.5820  146.5690 O   0  0  0  0  0  0  0  0  0  0  0  0
  188.7900  176.5040  147.1890 C   0  0  1  0  0  3  0  0  0  0  0  0
  189.6940  178.4690  148.2140 O   0  0  0  0  0  1  0  0  0  0  0  0
  189.3110  177.9210  146.9900 C   0  0  0  0  0  2  0  0  0  0  0  0
  187.3580  176.3720  146.6610 C   0  0  0  0  0  2  0  0  0  0  0  0
  186.4560  177.4710  147.1340 C   0  0  0  0  0  3  0  0  0  0  0  0
  185.3870  177.6780  146.5820 O   0  0  0  0  0  0  0  0  0  0  0  0
  1 13  1  0  0  0  0
  1 10  1  0  0  0  0
  2  5  1  0  0  0  0
  3 15  1  0  0  0  0
  4  6  1  0  0  0  0
  5 17  1  0  0  0  0
  5  7  1  0  0  0  0
  6  2  1  0  0  0  0
  6  9  1  0  0  0  0
  7 19  1  0  0  0  0
  7  3  1  0  0  0  0
  8 12  1  0  0  0  0
  8  4  2  0  0  0  0
  9 17  1  0  0  0  0
 12 16  1  0  0  0  0
 13  9  1  0  0  0  0
 15 14  1  0  0  0  0
 16  2  1  0  0  0  0
 16 11  1  0  0  0  0
 17 22  1  0  0  0  0
 18  4  1  0  0  0  0
 18  1  1  0  0  0  0
 19 25  1  0  0  0  0
 20  1  1  0  0  0  0
 21 15  1  0  0  0  0
 21 14  1  0  0  0  0
 22 21  1  0  0  0  0
 22 31  1  0  0  0  0
 23 11  1  0  0  0  0
 23 19  1  0  0  0  0
 24 30  2  0  0  0  0
 24 25  1  0  0  0  0
 25 26  2  0  0  0  0
 26 29  1  0  0  0  0
 28 29  2  0  0  0  0
 29 27  1  0  0  0  0
 30 28  1  0  0  0  0
 31 32  1  0  0  0  0
 34 32  1  0  0  0  0
 34 33  1  0  0  0  0
 35 36  1  0  0  0  0
 35 32  1  0  0  0  0
 37 36  2  0  0  0  0
M  END
>  <MODEL>
8

>  <REMARK>
 VINA RESULT:      -6.6      3.329      7.238
  Name = 
  6 active torsions:
  status: ('A' for Active; 'I' for Inactive)
    1  A    between atoms: O_1  and  C_4
    2  A    between atoms: O_1  and  C_27
    3  A    between atoms: C_4  and  C_12
    4  A    between atoms: C_4  and  C_37
    5  A    between atoms: C_8  and  C_12
    6  A    between atoms: C_23  and  C_30
                            x       y       z     vdW  Elec       q    Type
                         _______ _______ _______ _____ _____    ______ ____

>  <TORSDO>
F 6

$$$$
=
 OpenBabel11112417183D

 37 43  0  0  1  0  0  0  0  0999 V2000
  187.0010  177.2030  146.2900 C   0  0  0  0  0  0  0  0  0  0  0  0
  190.7920  175.4070  145.7520 C   0  0  2  0  0  3  0  0  0  0  0  0
  191.0230  172.6310  142.9310 C   0  0  0  0  0  2  0  0  0  0  0  0
  189.3910  177.0170  146.9930 C   0  0  0  0  0  0  0  0  0  0  0  0
  190.6720  174.7690  144.4100 C   0  0  1  0  0  3  0  0  0  0  0  0
  189.4470  175.7580  146.2270 C   0  0  1  0  0  3  0  0  0  0  0  0
  191.3690  173.3670  144.2710 C   0  0  2  0  0  3  0  0  0  0  0  0
  190.4540  177.4850  147.5830 N   0  0  0  0  0  0  0  0  0  0  0  0
  188.6780  175.9410  145.0210 N   0  0  2  0  0  0  0  0  0  0  0  0
  186.5320  178.3050  145.3620 C   0  0  0  0  0  1  0  0  0  0  0  0
  193.2490  175.5530  145.8040 C   0  0  0  0  0  2  0  0  0  0  0  0
  191.7420  176.7620  147.5680 C   0  0  0  0  0  2  0  0  0  0  0  0
  187.2840  175.9250  145.4450 C   0  0  0  0  0  2  0  0  0  0  0  0
  189.5700  173.2980  140.9190 O   0  0  0  0  0  0  0  0  0  0  0  0
  190.5100  173.6260  141.9170 C   0  0  1  0  0  3  0  0  0  0  0  0
  191.8940  175.8970  146.3290 C   0  0  2  0  0  3  0  0  0  0  0  0
  189.1220  174.7960  144.2340 C   0  0  1  0  0  3  0  0  0  0  0  0
  188.1550  177.6780  147.0300 O   0  0  0  0  0  0  0  0  0  0  0  0
  192.9140  173.4840  144.3930 C   0  0  1  0  0  3  0  0  0  0  0  0
  185.8850  176.8960  147.2670 C   0  0  0  0  0  1  0  0  0  0  0  0
  189.0580  173.4810  142.2110 C   0  0  1  0  0  3  0  0  0  0  0  0
  188.6490  174.8430  142.7660 C   0  0  2  0  0  3  0  0  0  0  0  0
  193.4070  174.0410  145.7320 C   0  0  0  0  0  2  0  0  0  0  0  0
  193.4440  171.1270  145.0500 C   0  0  0  0  0  3  0  0  0  0  0  0
  193.6090  172.1770  144.1410 C   0  0  0  0  0  0  0  0  0  0  0  0
  194.4170  171.9920  143.0080 C   0  0  0  0  0  3  0  0  0  0  0  0
  195.8370  170.5920  141.7000 F   0  0  0  0  0  0  0  0  0  0  0  0
  194.8870  169.7220  143.7070 C   0  0  0  0  0  3  0  0  0  0  0  0
  195.0560  170.7670  142.7940 C   0  0  0  0  0  0  0  0  0  0  0  0
  194.0820  169.9020  144.8350 C   0  0  0  0  0  3  0  0  0  0  0  0
  189.2030  175.9310  142.0670 O   0  0  0  0  0  0  0  0  0  0  0  0
  188.2330  176.9410  142.1080 C   0  0  1  0  0  3  0  0  0  0  0  0
  190.1130  178.1980  142.8900 O   0  0  0  0  0  1  0  0  0  0  0  0
  188.8970  178.3060  142.2140 C   0  0  0  0  0  2  0  0  0  0  0  0
  187.3190  176.8760  140.8800 C   0  0  0  0  0  2  0  0  0  0  0  0
  186.1960  177.8670  140.9350 C   0  0  0  0  0  3  0  0  0  0  0  0
  185.2610  177.7890  140.1530 O   0  0  0  0  0  0  0  0  0  0  0  0
  1 18  1  0  0  0  0
  1 20  1  0  0  0  0
  2  6  1  0  0  0  0
  2 16  1  0  0  0  0
  3  7  1  0  0  0  0
  4 18  1  0  0  0  0
  4  8  2  0  0  0  0
  5  2  1  0  0  0  0
  6  4  1  0  0  0  0
  7 19  1  0  0  0  0
  7  5  1  0  0  0  0
  9 13  1  0  0  0  0
  9  6  1  0  0  0  0
 10  1  1  0  0  0  0
 11 16  1  0  0  0  0
 12  8  1  0  0  0  0
 13  1  1  0  0  0  0
 14 15  1  0  0  0  0
 14 21  1  0  0  0  0
 15 21  1  0  0  0  0
 15  3  1  0  0  0  0
 16 12  1  0  0  0  0
 17  5  1  0  0  0  0
 17  9  1  0  0  0  0
 19 23  1  0  0  0  0
 21 22  1  0  0  0  0
 22 17  1  0  0  0  0
 23 11  1  0  0  0  0
 25 19  1  0  0  0  0
 25 24  2  0  0  0  0
 26 25  1  0  0  0  0
 27 29  1  0  0  0  0
 28 30  2  0  0  0  0
 29 26  2  0  0  0  0
 29 28  1  0  0  0  0
 30 24  1  0  0  0  0
 31 32  1  0  0  0  0
 31 22  1  0  0  0  0
 32 34  1  0  0  0  0
 34 33  1  0  0  0  0
 35 36  1  0  0  0  0
 35 32  1  0  0  0  0
 37 36  2  0  0  0  0
M  END
>  <MODEL>
9

>  <REMARK>
 VINA RESULT:      -6.4      3.545      8.078
  Name = 
  6 active torsions:
  status: ('A' for Active; 'I' for Inactive)
    1  A    between atoms: O_1  and  C_4
    2  A    between atoms: O_1  and  C_27
    3  A    between atoms: C_4  and  C_12
    4  A    between atoms: C_4  and  C_37
    5  A    between atoms: C_8  and  C_12
    6  A    between atoms: C_23  and  C_30
                            x       y       z     vdW  Elec       q    Type
                         _______ _______ _______ _____ _____    ______ ____

>  <TORSDO>
F 6

$$$$
