=
 OpenBabel11112416453D

 31 35  0  0  1  0  0  0  0  0999 V2000
  185.8850  178.0510  140.9360 C   0  0  0  0  0  0  0  0  0  0  0  0
  188.0170  177.7630  144.0210 N   0  0  0  0  0  0  0  0  0  0  0  0
  187.1390  177.8240  145.1690 C   0  0  0  0  0  0  0  0  0  0  0  0
  191.2360  174.0730  142.1090 O   0  0  0  0  0  0  0  0  0  0  0  0
  191.7360  174.5460  143.1630 C   0  0  0  0  0  0  0  0  0  0  0  0
  185.0250  178.3620  146.1220 C   0  0  0  0  0  0  0  0  0  0  0  0
  187.5070  177.6020  142.6840 C   0  0  0  0  0  0  0  0  0  0  0  0
  186.5690  177.1860  140.0770 C   0  0  0  0  0  3  0  0  0  0  0  0
  185.8690  178.3030  145.0560 N   0  0  0  0  0  0  0  0  0  0  0  0
  189.9530  176.3660  143.4000 C   0  0  0  0  0  0  0  0  0  0  0  0
  184.7660  178.6850  140.5100 F   0  0  0  0  0  0  0  0  0  0  0  0
  188.9610  176.7870  146.5450 C   0  0  0  0  0  2  0  0  0  0  0  0
  183.6480  178.8960  145.9490 C   0  0  0  0  0  1  0  0  0  0  0  0
  189.3720  176.0640  142.2720 N   0  0  0  0  0  0  0  0  0  0  0  0
  189.4730  177.5620  144.1910 C   0  0  2  0  0  3  0  0  0  0  0  0
  191.1350  175.6710  143.8210 N   0  0  0  0  0  2  0  0  0  0  0  0
  186.3500  178.2580  142.2390 C   0  0  0  0  0  3  0  0  0  0  0  0
  185.4480  177.9180  147.3760 C   0  0  0  0  0  3  0  0  0  0  0  0
  188.1970  176.7450  141.8110 C   0  0  0  0  0  0  0  0  0  0  0  0
  187.7230  176.5310  140.5140 C   0  0  0  0  0  3  0  0  0  0  0  0
  189.9290  177.5570  145.6590 C   0  0  0  0  0  2  0  0  0  0  0  0
  187.5970  177.3770  146.4190 C   0  0  0  0  0  0  0  0  0  0  0  0
  186.7420  177.4170  147.5200 C   0  0  0  0  0  3  0  0  0  0  0  0
  194.0930  175.5360  145.8640 C   0  0  1  0  0  3  0  0  0  0  0  0
  192.7800  173.4990  145.2060 C   0  0  0  0  0  2  0  0  0  0  0  0
  194.4000  175.0640  142.1800 C   0  0  0  0  0  1  0  0  0  0  0  0
  194.0570  176.7490  146.6600 N   0  0  0  0  0  1  0  0  0  0  0  0
  192.8280  174.7240  146.1190 C   0  0  0  0  0  2  0  0  0  0  0  0
  194.2160  174.6830  143.5740 N   0  0  0  0  0  0  0  0  0  0  0  0
  192.9740  173.8990  143.7380 C   0  0  2  0  0  3  0  0  0  0  0  0
  194.1850  175.9010  144.3850 C   0  0  0  0  0  2  0  0  0  0  0  0
  1 17  1  0  0  0  0
  2 15  1  0  0  0  0
  2  3  1  0  0  0  0
  3 22  1  0  0  0  0
  4  5  2  0  0  0  0
  5 16  1  0  0  0  0
  6 18  2  0  0  0  0
  7  2  1  0  0  0  0
  8 20  1  0  0  0  0
  8  1  2  0  0  0  0
  9  3  2  0  0  0  0
  9  6  1  0  0  0  0
 10 16  1  0  0  0  0
 10 15  1  0  0  0  0
 11  1  1  0  0  0  0
 13  6  1  0  0  0  0
 14 10  2  0  0  0  0
 15 21  1  1  0  0  0
 17  7  2  0  0  0  0
 18 23  1  0  0  0  0
 19 14  1  0  0  0  0
 19  7  1  0  0  0  0
 20 19  2  0  0  0  0
 21 12  1  0  0  0  0
 22 12  1  0  0  0  0
 22 23  2  0  0  0  0
 24 28  1  0  0  0  0
 24 27  1  1  0  0  0
 25 28  1  0  0  0  0
 26 29  1  0  0  0  0
 29 30  1  0  0  0  0
 29 31  1  0  0  0  0
 30  5  1  1  0  0  0
 30 25  1  0  0  0  0
 31 24  1  0  0  0  0
M  END
>  <MODEL>
1

>  <REMARK>
 VINA RESULT:      -9.4      0.000      0.000
  Name = 
  1 active torsions:
  status: ('A' for Active; 'I' for Inactive)
    1  A    between atoms: C_5  and  C_30
                            x       y       z     vdW  Elec       q    Type
                         _______ _______ _______ _____ _____    ______ ____

>  <TORSDO>
F 1

$$$$
=
 OpenBabel11112416453D

 31 35  0  0  1  0  0  0  0  0999 V2000
  185.0020  177.9300  146.8660 C   0  0  0  0  0  0  0  0  0  0  0  0
  186.6480  176.5630  143.7730 N   0  0  0  0  0  0  0  0  0  0  0  0
  185.9430  177.0970  142.6280 C   0  0  0  0  0  0  0  0  0  0  0  0
  191.5790  177.0260  145.5370 O   0  0  0  0  0  0  0  0  0  0  0  0
  191.5790  176.3080  144.5020 C   0  0  0  0  0  0  0  0  0  0  0  0
  184.0250  178.1540  141.6970 C   0  0  0  0  0  0  0  0  0  0  0  0
  186.4300  177.0730  145.1020 C   0  0  0  0  0  0  0  0  0  0  0  0
  186.1180  178.1010  147.6900 C   0  0  0  0  0  3  0  0  0  0  0  0
  184.7010  177.6410  142.7600 N   0  0  0  0  0  0  0  0  0  0  0  0
  189.0270  176.2360  144.3380 C   0  0  0  0  0  0  0  0  0  0  0  0
  183.7690  178.2670  147.3170 F   0  0  0  0  0  0  0  0  0  0  0  0
  187.9340  176.5320  141.2120 C   0  0  0  0  0  2  0  0  0  0  0  0
  182.6690  178.7340  141.8900 C   0  0  0  0  0  1  0  0  0  0  0  0
  188.8510  176.8910  145.4530 N   0  0  0  0  0  0  0  0  0  0  0  0
  187.8280  175.6890  143.5950 C   0  0  2  0  0  3  0  0  0  0  0  0
  190.3470  175.9000  143.8910 N   0  0  0  0  0  2  0  0  0  0  0  0
  185.1560  177.4210  145.5730 C   0  0  0  0  0  3  0  0  0  0  0  0
  184.6020  178.1420  140.4260 C   0  0  0  0  0  3  0  0  0  0  0  0
  187.5460  177.2330  145.9400 C   0  0  0  0  0  0  0  0  0  0  0  0
  187.3900  177.7540  147.2270 C   0  0  0  0  0  3  0  0  0  0  0  0
  188.1180  175.3320  142.1290 C   0  0  0  0  0  2  0  0  0  0  0  0
  186.5490  177.0620  141.3620 C   0  0  0  0  0  0  0  0  0  0  0  0
  185.8770  177.5970  140.2620 C   0  0  0  0  0  3  0  0  0  0  0  0
  192.6060  173.4500  142.3560 C   0  0  1  0  0  3  0  0  0  0  0  0
  192.8760  175.9470  142.3700 C   0  0  0  0  0  2  0  0  0  0  0  0
  193.4350  174.5350  145.8230 C   0  0  0  0  0  1  0  0  0  0  0  0
  191.7700  172.3630  141.8820 N   0  0  0  0  0  1  0  0  0  0  0  0
  192.0890  174.7700  141.7940 C   0  0  0  0  0  2  0  0  0  0  0  0
  193.4110  174.5870  144.3680 N   0  0  0  0  0  0  0  0  0  0  0  0
  192.9020  175.8940  143.9030 C   0  0  2  0  0  3  0  0  0  0  0  0
  192.5750  173.4890  143.8810 C   0  0  0  0  0  2  0  0  0  0  0  0
  1 11  1  0  0  0  0
  1  8  1  0  0  0  0
  2  7  1  0  0  0  0
  3  9  1  0  0  0  0
  3  2  1  0  0  0  0
  5  4  2  0  0  0  0
  6 13  1  0  0  0  0
  6  9  2  0  0  0  0
  7 17  1  0  0  0  0
  7 19  2  0  0  0  0
 10 14  2  0  0  0  0
 12 22  1  0  0  0  0
 12 21  1  0  0  0  0
 14 19  1  0  0  0  0
 15 21  1  6  0  0  0
 15  2  1  0  0  0  0
 15 10  1  0  0  0  0
 16 10  1  0  0  0  0
 16  5  1  0  0  0  0
 17  1  2  0  0  0  0
 18  6  1  0  0  0  0
 19 20  1  0  0  0  0
 20  8  2  0  0  0  0
 22  3  2  0  0  0  0
 23 18  2  0  0  0  0
 23 22  1  0  0  0  0
 24 27  1  6  0  0  0
 24 31  1  0  0  0  0
 25 30  1  0  0  0  0
 28 24  1  0  0  0  0
 28 25  1  0  0  0  0
 29 26  1  0  0  0  0
 30 29  1  0  0  0  0
 30  5  1  1  0  0  0
 31 29  1  0  0  0  0
M  END
>  <MODEL>
2

>  <REMARK>
 VINA RESULT:      -8.9      2.176      4.534
  Name = 
  1 active torsions:
  status: ('A' for Active; 'I' for Inactive)
    1  A    between atoms: C_5  and  C_30
                            x       y       z     vdW  Elec       q    Type
                         _______ _______ _______ _____ _____    ______ ____

>  <TORSDO>
F 1

$$$$
=
 OpenBabel11112416453D

 31 35  0  0  1  0  0  0  0  0999 V2000
  184.7980  178.1800  146.3010 C   0  0  0  0  0  0  0  0  0  0  0  0
  186.7100  176.3390  143.6350 N   0  0  0  0  0  0  0  0  0  0  0  0
  186.2930  176.8660  142.3540 C   0  0  0  0  0  0  0  0  0  0  0  0
  191.2920  176.2640  146.2110 O   0  0  0  0  0  0  0  0  0  0  0  0
  191.3550  175.4670  145.2380 C   0  0  0  0  0  0  0  0  0  0  0  0
  184.7370  178.0940  141.0370 C   0  0  0  0  0  0  0  0  0  0  0  0
  186.3530  176.9850  144.8720 C   0  0  0  0  0  0  0  0  0  0  0  0
  185.7750  178.2640  147.2970 C   0  0  0  0  0  3  0  0  0  0  0  0
  185.1430  177.5850  142.2310 N   0  0  0  0  0  0  0  0  0  0  0  0
  188.8840  175.7360  144.6310 C   0  0  0  0  0  0  0  0  0  0  0  0
  183.5730  178.7210  146.5060 F   0  0  0  0  0  0  0  0  0  0  0  0
  188.3830  175.9120  141.3480 C   0  0  0  0  0  2  0  0  0  0  0  0
  183.4720  178.8700  140.9520 C   0  0  0  0  0  1  0  0  0  0  0  0
  188.6270  176.5010  145.6550 N   0  0  0  0  0  0  0  0  0  0  0  0
  187.7570  175.2980  143.7220 C   0  0  2  0  0  3  0  0  0  0  0  0
  190.1940  175.1830  144.4440 N   0  0  0  0  0  2  0  0  0  0  0  0
  185.0860  177.5450  145.0890 C   0  0  0  0  0  3  0  0  0  0  0  0
  185.5090  177.8940  139.8910 C   0  0  0  0  0  3  0  0  0  0  0  0
  187.3260  177.0600  145.8830 C   0  0  0  0  0  0  0  0  0  0  0  0
  187.0390  177.7070  147.0880 C   0  0  0  0  0  3  0  0  0  0  0  0
  188.2290  174.7810  142.3540 C   0  0  0  0  0  2  0  0  0  0  0  0
  187.0880  176.6390  141.2190 C   0  0  0  0  0  0  0  0  0  0  0  0
  186.6960  177.1660  139.9880 C   0  0  0  0  0  3  0  0  0  0  0  0
  194.8600  176.7080  145.3070 C   0  0  1  0  0  3  0  0  0  0  0  0
  193.5850  174.7120  146.1420 C   0  0  0  0  0  2  0  0  0  0  0  0
  192.5540  175.5600  142.6140 C   0  0  0  0  0  1  0  0  0  0  0  0
  195.3130  178.0410  145.6560 N   0  0  0  0  0  1  0  0  0  0  0  0
  194.1780  176.0710  146.5130 C   0  0  0  0  0  2  0  0  0  0  0  0
  193.4110  175.4520  143.7860 N   0  0  0  0  0  0  0  0  0  0  0  0
  192.6810  174.8250  144.9080 C   0  0  2  0  0  3  0  0  0  0  0  0
  193.8780  176.7930  144.1420 C   0  0  0  0  0  2  0  0  0  0  0  0
  1 11  1  0  0  0  0
  1  8  1  0  0  0  0
  2 15  1  0  0  0  0
  2  7  1  0  0  0  0
  3  2  1  0  0  0  0
  5  4  2  0  0  0  0
  6  9  2  0  0  0  0
  7 17  1  0  0  0  0
  7 19  2  0  0  0  0
  9  3  1  0  0  0  0
 10 14  2  0  0  0  0
 12 21  1  0  0  0  0
 13  6  1  0  0  0  0
 14 19  1  0  0  0  0
 15 21  1  6  0  0  0
 15 10  1  0  0  0  0
 16 10  1  0  0  0  0
 16  5  1  0  0  0  0
 17  1  2  0  0  0  0
 18 23  2  0  0  0  0
 18  6  1  0  0  0  0
 19 20  1  0  0  0  0
 20  8  2  0  0  0  0
 22 12  1  0  0  0  0
 22  3  2  0  0  0  0
 23 22  1  0  0  0  0
 24 27  1  1  0  0  0
 24 28  1  0  0  0  0
 25 28  1  0  0  0  0
 26 29  1  0  0  0  0
 29 31  1  0  0  0  0
 29 30  1  0  0  0  0
 30  5  1  1  0  0  0
 30 25  1  0  0  0  0
 31 24  1  0  0  0  0
M  END
>  <MODEL>
3

>  <REMARK>
 VINA RESULT:      -8.5      2.009      4.166
  Name = 
  1 active torsions:
  status: ('A' for Active; 'I' for Inactive)
    1  A    between atoms: C_5  and  C_30
                            x       y       z     vdW  Elec       q    Type
                         _______ _______ _______ _____ _____    ______ ____

>  <TORSDO>
F 1

$$$$
=
 OpenBabel11112416453D

 31 35  0  0  1  0  0  0  0  0999 V2000
  185.3190  178.3060  140.9160 C   0  0  0  0  0  0  0  0  0  0  0  0
  187.7910  177.7170  143.6880 N   0  0  0  0  0  0  0  0  0  0  0  0
  187.0530  177.6680  144.9310 C   0  0  0  0  0  0  0  0  0  0  0  0
  190.7180  174.2240  141.0680 O   0  0  0  0  0  0  0  0  0  0  0  0
  191.3430  174.5920  142.0970 C   0  0  0  0  0  0  0  0  0  0  0  0
  185.0710  178.1150  146.1720 C   0  0  0  0  0  0  0  0  0  0  0  0
  187.1270  177.6870  142.4110 C   0  0  0  0  0  0  0  0  0  0  0  0
  185.8870  177.5270  139.9040 C   0  0  0  0  0  3  0  0  0  0  0  0
  185.7850  178.1580  145.0140 N   0  0  0  0  0  0  0  0  0  0  0  0
  189.6230  176.3830  142.7140 C   0  0  0  0  0  0  0  0  0  0  0  0
  184.1660  178.9800  140.6860 F   0  0  0  0  0  0  0  0  0  0  0  0
  189.0090  176.5000  145.9800 C   0  0  0  0  0  2  0  0  0  0  0  0
  183.6910  178.6660  146.2130 C   0  0  0  0  0  1  0  0  0  0  0  0
  188.9110  176.1930  141.6380 N   0  0  0  0  0  0  0  0  0  0  0  0
  189.2540  177.4980  143.6670 C   0  0  2  0  0  3  0  0  0  0  0  0
  190.8370  175.6490  142.9250 N   0  0  0  0  0  2  0  0  0  0  0  0
  185.9350  178.3850  142.1690 C   0  0  0  0  0  3  0  0  0  0  0  0
  185.6310  177.5510  147.3190 C   0  0  0  0  0  3  0  0  0  0  0  0
  187.7000  176.9170  141.3850 C   0  0  0  0  0  0  0  0  0  0  0  0
  187.0760  176.8310  140.1380 C   0  0  0  0  0  3  0  0  0  0  0  0
  189.8770  177.3510  145.0640 C   0  0  0  0  0  2  0  0  0  0  0  0
  187.6470  177.1010  146.0700 C   0  0  0  0  0  0  0  0  0  0  0  0
  186.9270  177.0360  147.2630 C   0  0  0  0  0  3  0  0  0  0  0  0
  194.9220  175.5620  141.8200 C   0  0  1  0  0  3  0  0  0  0  0  0
  193.3880  174.6240  143.5730 C   0  0  0  0  0  2  0  0  0  0  0  0
  192.8090  172.9190  140.2580 C   0  0  0  0  0  1  0  0  0  0  0  0
  195.4590  176.7900  141.2660 N   0  0  0  0  0  1  0  0  0  0  0  0
  194.0640  175.8860  143.0380 C   0  0  0  0  0  2  0  0  0  0  0  0
  193.5280  173.6150  141.3170 N   0  0  0  0  0  0  0  0  0  0  0  0
  192.6300  173.8900  142.4590 C   0  0  2  0  0  3  0  0  0  0  0  0
  194.0780  174.8530  140.7650 C   0  0  0  0  0  2  0  0  0  0  0  0
  1 17  1  0  0  0  0
  2  3  1  0  0  0  0
  3  9  2  0  0  0  0
  3 22  1  0  0  0  0
  4  5  2  0  0  0  0
  5 16  1  0  0  0  0
  6 13  1  0  0  0  0
  6 18  2  0  0  0  0
  7  2  1  0  0  0  0
  8 20  1  0  0  0  0
  8  1  2  0  0  0  0
  9  6  1  0  0  0  0
 10 16  1  0  0  0  0
 10 15  1  0  0  0  0
 11  1  1  0  0  0  0
 12 22  1  0  0  0  0
 14 10  2  0  0  0  0
 15  2  1  0  0  0  0
 15 21  1  1  0  0  0
 17  7  2  0  0  0  0
 19 14  1  0  0  0  0
 19  7  1  0  0  0  0
 20 19  2  0  0  0  0
 21 12  1  0  0  0  0
 22 23  2  0  0  0  0
 23 18  1  0  0  0  0
 24 27  1  6  0  0  0
 24 28  1  0  0  0  0
 26 29  1  0  0  0  0
 28 25  1  0  0  0  0
 29 30  1  0  0  0  0
 30  5  1  6  0  0  0
 30 25  1  0  0  0  0
 31 29  1  0  0  0  0
 31 24  1  0  0  0  0
M  END
>  <MODEL>
4

>  <REMARK>
 VINA RESULT:      -8.3      1.424      1.869
  Name = 
  1 active torsions:
  status: ('A' for Active; 'I' for Inactive)
    1  A    between atoms: C_5  and  C_30
                            x       y       z     vdW  Elec       q    Type
                         _______ _______ _______ _____ _____    ______ ____

>  <TORSDO>
F 1

$$$$
=
 OpenBabel11112416453D

 31 35  0  0  1  0  0  0  0  0999 V2000
  185.3680  178.3210  140.9030 C   0  0  0  0  0  0  0  0  0  0  0  0
  187.7840  177.6020  143.6950 N   0  0  0  0  0  0  0  0  0  0  0  0
  187.0300  177.5630  144.9280 C   0  0  0  0  0  0  0  0  0  0  0  0
  190.6120  174.0400  141.0570 O   0  0  0  0  0  0  0  0  0  0  0  0
  191.2380  174.3710  142.0990 C   0  0  0  0  0  0  0  0  0  0  0  0
  185.0510  178.0650  146.1520 C   0  0  0  0  0  0  0  0  0  0  0  0
  187.1340  177.6150  142.4090 C   0  0  0  0  0  0  0  0  0  0  0  0
  185.9190  177.5350  139.8860 C   0  0  0  0  0  3  0  0  0  0  0  0
  185.7790  178.0980  145.0030 N   0  0  0  0  0  0  0  0  0  0  0  0
  189.5770  176.2150  142.7220 C   0  0  0  0  0  0  0  0  0  0  0  0
  184.2430  179.0400  140.6690 F   0  0  0  0  0  0  0  0  0  0  0  0
  188.9290  176.3090  145.9820 C   0  0  0  0  0  2  0  0  0  0  0  0
  183.6910  178.6660  146.1860 C   0  0  0  0  0  1  0  0  0  0  0  0
  188.8720  176.0660  141.6350 N   0  0  0  0  0  0  0  0  0  0  0  0
  189.2380  177.3290  143.6870 C   0  0  2  0  0  3  0  0  0  0  0  0
  190.7600  175.4340  142.9360 N   0  0  0  0  0  2  0  0  0  0  0  0
  185.9710  178.3590  142.1640 C   0  0  0  0  0  3  0  0  0  0  0  0
  185.5760  177.4650  147.2980 C   0  0  0  0  0  3  0  0  0  0  0  0
  187.6910  176.8390  141.3790 C   0  0  0  0  0  0  0  0  0  0  0  0
  187.0780  176.7930  140.1240 C   0  0  0  0  0  3  0  0  0  0  0  0
  189.8390  177.1400  145.0890 C   0  0  0  0  0  2  0  0  0  0  0  0
  187.5890  176.9590  146.0660 C   0  0  0  0  0  0  0  0  0  0  0  0
  186.8530  176.9030  147.2490 C   0  0  0  0  0  3  0  0  0  0  0  0
  192.0620  170.7490  142.2670 C   0  0  1  0  0  3  0  0  0  0  0  0
  193.0550  172.8300  141.2730 C   0  0  0  0  0  2  0  0  0  0  0  0
  191.8370  173.4910  144.7820 C   0  0  0  0  0  1  0  0  0  0  0  0
  191.1720  169.6330  142.0070 N   0  0  0  0  0  1  0  0  0  0  0  0
  192.2180  171.5800  140.9990 C   0  0  0  0  0  2  0  0  0  0  0  0
  192.3700  172.7450  143.6500 N   0  0  0  0  0  0  0  0  0  0  0  0
  192.4940  173.6180  142.4640 C   0  0  2  0  0  3  0  0  0  0  0  0
  191.4820  171.6120  143.3850 C   0  0  0  0  0  2  0  0  0  0  0  0
  1 17  1  0  0  0  0
  2  3  1  0  0  0  0
  3  9  2  0  0  0  0
  3 22  1  0  0  0  0
  4  5  2  0  0  0  0
  5 16  1  0  0  0  0
  6 13  1  0  0  0  0
  6 18  2  0  0  0  0
  7  2  1  0  0  0  0
  8 20  1  0  0  0  0
  8  1  2  0  0  0  0
  9  6  1  0  0  0  0
 10 16  1  0  0  0  0
 10 15  1  0  0  0  0
 11  1  1  0  0  0  0
 12 22  1  0  0  0  0
 14 10  2  0  0  0  0
 15  2  1  0  0  0  0
 15 21  1  1  0  0  0
 17  7  2  0  0  0  0
 19 14  1  0  0  0  0
 19  7  1  0  0  0  0
 20 19  2  0  0  0  0
 21 12  1  0  0  0  0
 22 23  2  0  0  0  0
 23 18  1  0  0  0  0
 24 27  1  6  0  0  0
 24 31  1  0  0  0  0
 25 30  1  0  0  0  0
 28 25  1  0  0  0  0
 28 24  1  0  0  0  0
 29 26  1  0  0  0  0
 30  5  1  6  0  0  0
 30 29  1  0  0  0  0
 31 29  1  0  0  0  0
M  END
>  <MODEL>
5

>  <REMARK>
 VINA RESULT:      -8.2      1.789      2.756
  Name = 
  1 active torsions:
  status: ('A' for Active; 'I' for Inactive)
    1  A    between atoms: C_5  and  C_30
                            x       y       z     vdW  Elec       q    Type
                         _______ _______ _______ _____ _____    ______ ____

>  <TORSDO>
F 1

$$$$
=
 OpenBabel11112416453D

 31 35  0  0  1  0  0  0  0  0999 V2000
  190.3540  171.5600  142.2270 C   0  0  0  0  0  0  0  0  0  0  0  0
  189.8220  174.5360  144.4640 N   0  0  0  0  0  0  0  0  0  0  0  0
  191.0880  174.8460  145.0900 C   0  0  0  0  0  0  0  0  0  0  0  0
  186.6750  177.1420  141.1570 O   0  0  0  0  0  0  0  0  0  0  0  0
  186.6130  177.6820  142.2930 C   0  0  0  0  0  0  0  0  0  0  0  0
  193.3020  174.2100  145.6920 C   0  0  0  0  0  0  0  0  0  0  0  0
  189.7260  173.6060  143.3680 C   0  0  0  0  0  0  0  0  0  0  0  0
  189.5020  171.8880  141.1670 C   0  0  0  0  0  3  0  0  0  0  0  0
  192.1010  173.9350  145.1140 N   0  0  0  0  0  0  0  0  0  0  0  0
  188.0360  175.8790  143.4210 C   0  0  0  0  0  0  0  0  0  0  0  0
  191.0740  170.4120  142.1870 F   0  0  0  0  0  0  0  0  0  0  0  0
  190.2090  177.1380  145.6000 C   0  0  0  0  0  2  0  0  0  0  0  0
  194.3760  173.1810  145.6960 C   0  0  0  0  0  1  0  0  0  0  0  0
  188.1130  175.1460  142.3460 N   0  0  0  0  0  0  0  0  0  0  0  0
  188.6280  175.3710  144.7170 C   0  0  2  0  0  3  0  0  0  0  0  0
  187.2660  177.0890  143.4250 N   0  0  0  0  0  2  0  0  0  0  0  0
  190.4690  172.4180  143.3240 C   0  0  0  0  0  3  0  0  0  0  0  0
  193.5300  175.4560  146.2760 C   0  0  0  0  0  3  0  0  0  0  0  0
  188.8610  173.9230  142.3070 C   0  0  0  0  0  0  0  0  0  0  0  0
  188.7580  173.0690  141.2050 C   0  0  0  0  0  3  0  0  0  0  0  0
  188.8530  176.4700  145.7680 C   0  0  0  0  0  2  0  0  0  0  0  0
  191.2830  176.1070  145.6770 C   0  0  0  0  0  0  0  0  0  0  0  0
  192.5120  176.4120  146.2610 C   0  0  0  0  0  3  0  0  0  0  0  0
  184.4200  179.0370  144.9730 C   0  0  1  0  0  3  0  0  0  0  0  0
  186.3810  179.8180  143.6130 C   0  0  0  0  0  2  0  0  0  0  0  0
  183.8820  178.0300  141.4250 C   0  0  0  0  0  1  0  0  0  0  0  0
  184.0350  178.3810  146.2080 N   0  0  0  0  0  1  0  0  0  0  0  0
  185.9310  179.2370  144.9540 C   0  0  0  0  0  2  0  0  0  0  0  0
  184.3850  178.8280  142.5350 N   0  0  0  0  0  0  0  0  0  0  0  0
  185.8530  178.9780  142.4440 C   0  0  2  0  0  3  0  0  0  0  0  0
  183.9950  178.1770  143.7860 C   0  0  0  0  0  2  0  0  0  0  0  0
  1 17  1  0  0  0  0
  2 15  1  0  0  0  0
  2  3  1  0  0  0  0
  3  9  2  0  0  0  0
  3 22  1  0  0  0  0
  4  5  2  0  0  0  0
  5 16  1  0  0  0  0
  6 13  1  0  0  0  0
  6 18  2  0  0  0  0
  7  2  1  0  0  0  0
  8 20  1  0  0  0  0
  8  1  2  0  0  0  0
  9  6  1  0  0  0  0
 10 16  1  0  0  0  0
 10 15  1  0  0  0  0
 11  1  1  0  0  0  0
 12 22  1  0  0  0  0
 12 21  1  0  0  0  0
 14 10  2  0  0  0  0
 15 21  1  1  0  0  0
 17  7  2  0  0  0  0
 19 14  1  0  0  0  0
 19  7  1  0  0  0  0
 20 19  2  0  0  0  0
 22 23  2  0  0  0  0
 23 18  1  0  0  0  0
 24 27  1  1  0  0  0
 25 28  1  0  0  0  0
 26 29  1  0  0  0  0
 28 24  1  0  0  0  0
 29 31  1  0  0  0  0
 30  5  1  1  0  0  0
 30 29  1  0  0  0  0
 30 25  1  0  0  0  0
 31 24  1  0  0  0  0
M  END
>  <MODEL>
6

>  <REMARK>
 VINA RESULT:      -8.0      2.967      7.296
  Name = 
  1 active torsions:
  status: ('A' for Active; 'I' for Inactive)
    1  A    between atoms: C_5  and  C_30
                            x       y       z     vdW  Elec       q    Type
                         _______ _______ _______ _____ _____    ______ ____

>  <TORSDO>
F 1

$$$$
=
 OpenBabel11112416453D

 31 35  0  0  1  0  0  0  0  0999 V2000
  194.0100  176.0070  143.2640 C   0  0  0  0  0  0  0  0  0  0  0  0
  190.3410  175.7130  142.4890 N   0  0  0  0  0  0  0  0  0  0  0  0
  190.1650  174.5610  141.6330 C   0  0  0  0  0  0  0  0  0  0  0  0
  188.6690  176.9300  147.3220 O   0  0  0  0  0  0  0  0  0  0  0  0
  187.6940  176.9760  146.5270 C   0  0  0  0  0  0  0  0  0  0  0  0
  191.0760  172.9240  140.1640 C   0  0  0  0  0  0  0  0  0  0  0  0
  191.5860  175.9700  143.1660 C   0  0  0  0  0  0  0  0  0  0  0  0
  193.9520  176.4550  144.5870 C   0  0  0  0  0  3  0  0  0  0  0  0
  191.2200  174.0120  140.9690 N   0  0  0  0  0  0  0  0  0  0  0  0
  189.1430  176.6060  144.4510 C   0  0  0  0  0  0  0  0  0  0  0  0
  195.2110  175.8030  142.6700 F   0  0  0  0  0  0  0  0  0  0  0  0
  187.7360  174.5400  142.2580 C   0  0  0  0  0  2  0  0  0  0  0  0
  192.2580  172.3620  139.4580 C   0  0  0  0  0  1  0  0  0  0  0  0
  190.2610  176.6330  145.1210 N   0  0  0  0  0  0  0  0  0  0  0  0
  189.1770  176.5050  142.9430 C   0  0  2  0  0  3  0  0  0  0  0  0
  187.8900  176.8240  145.1140 N   0  0  0  0  0  2  0  0  0  0  0  0
  192.8300  175.7610  142.5550 C   0  0  0  0  0  3  0  0  0  0  0  0
  189.8220  172.3310  140.0040 C   0  0  0  0  0  3  0  0  0  0  0  0
  191.5340  176.4340  144.4910 C   0  0  0  0  0  0  0  0  0  0  0  0
  192.7150  176.6670  145.2020 C   0  0  0  0  0  3  0  0  0  0  0  0
  187.8450  176.0570  142.3210 C   0  0  0  0  0  2  0  0  0  0  0  0
  188.8890  173.9930  141.4860 C   0  0  0  0  0  0  0  0  0  0  0  0
  188.7240  172.8690  140.6770 C   0  0  0  0  0  3  0  0  0  0  0  0
  184.7570  178.9470  145.3770 C   0  0  1  0  0  3  0  0  0  0  0  0
  185.2270  176.6070  146.1590 C   0  0  0  0  0  2  0  0  0  0  0  0
  187.0100  179.1140  148.3420 C   0  0  0  0  0  1  0  0  0  0  0  0
  184.6760  179.7980  144.2050 N   0  0  0  0  0  1  0  0  0  0  0  0
  185.0170  177.5080  144.9420 C   0  0  0  0  0  2  0  0  0  0  0  0
  185.9850  178.5710  147.4610 N   0  0  0  0  0  0  0  0  0  0  0  0
  186.3060  177.1780  147.0880 C   0  0  2  0  0  3  0  0  0  0  0  0
  185.8910  179.4280  146.2780 C   0  0  0  0  0  2  0  0  0  0  0  0
  1  8  1  0  0  0  0
  2 15  1  0  0  0  0
  2  7  1  0  0  0  0
  3  2  1  0  0  0  0
  5  4  2  0  0  0  0
  6  9  1  0  0  0  0
  7 19  2  0  0  0  0
  8 20  2  0  0  0  0
  9  3  2  0  0  0  0
 10 16  1  0  0  0  0
 10 14  2  0  0  0  0
 11  1  1  0  0  0  0
 12 21  1  0  0  0  0
 13  6  1  0  0  0  0
 15 21  1  1  0  0  0
 15 10  1  0  0  0  0
 16  5  1  0  0  0  0
 17  7  1  0  0  0  0
 17  1  2  0  0  0  0
 18  6  2  0  0  0  0
 18 23  1  0  0  0  0
 19 14  1  0  0  0  0
 19 20  1  0  0  0  0
 22  3  1  0  0  0  0
 22 12  1  0  0  0  0
 23 22  2  0  0  0  0
 24 27  1  6  0  0  0
 24 31  1  0  0  0  0
 25 30  1  0  0  0  0
 28 24  1  0  0  0  0
 28 25  1  0  0  0  0
 29 26  1  0  0  0  0
 30  5  1  6  0  0  0
 30 29  1  0  0  0  0
 31 29  1  0  0  0  0
M  END
>  <MODEL>
7

>  <REMARK>
 VINA RESULT:      -8.0      3.118      7.688
  Name = 
  1 active torsions:
  status: ('A' for Active; 'I' for Inactive)
    1  A    between atoms: C_5  and  C_30
                            x       y       z     vdW  Elec       q    Type
                         _______ _______ _______ _____ _____    ______ ____

>  <TORSDO>
F 1

$$$$
=
 OpenBabel11112416453D

 31 35  0  0  1  0  0  0  0  0999 V2000
  189.6010  177.5390  147.0320 C   0  0  0  0  0  0  0  0  0  0  0  0
  188.4190  176.0030  143.8090 N   0  0  0  0  0  0  0  0  0  0  0  0
  187.4620  176.9100  143.2160 C   0  0  0  0  0  0  0  0  0  0  0  0
  193.1270  174.2080  142.3090 O   0  0  0  0  0  0  0  0  0  0  0  0
  192.2390  173.6810  141.5890 C   0  0  0  0  0  0  0  0  0  0  0  0
  185.9750  178.7590  143.4140 C   0  0  0  0  0  0  0  0  0  0  0  0
  189.2430  176.3940  144.9240 C   0  0  0  0  0  0  0  0  0  0  0  0
  190.9410  177.1410  147.0240 C   0  0  0  0  0  3  0  0  0  0  0  0
  186.8730  177.8920  143.9550 N   0  0  0  0  0  0  0  0  0  0  0  0
  190.3060  174.6730  142.9410 C   0  0  0  0  0  0  0  0  0  0  0  0
  189.1240  178.2910  148.0550 F   0  0  0  0  0  0  0  0  0  0  0  0
  187.8220  175.7600  141.0170 C   0  0  0  0  0  2  0  0  0  0  0  0
  185.3570  179.8120  144.2630 C   0  0  0  0  0  1  0  0  0  0  0  0
  191.0910  175.2030  143.8360 N   0  0  0  0  0  0  0  0  0  0  0  0
  188.8060  174.7530  143.1190 C   0  0  2  0  0  3  0  0  0  0  0  0
  190.8470  173.8860  141.8710 N   0  0  0  0  0  2  0  0  0  0  0  0
  188.7530  177.1700  145.9840 C   0  0  0  0  0  3  0  0  0  0  0  0
  185.6370  178.6660  142.0630 C   0  0  0  0  0  3  0  0  0  0  0  0
  190.5870  175.9850  144.9280 C   0  0  0  0  0  0  0  0  0  0  0  0
  191.4350  176.3660  145.9720 C   0  0  0  0  0  3  0  0  0  0  0  0
  188.0140  174.4880  141.8300 C   0  0  0  0  0  2  0  0  0  0  0  0
  187.1370  176.7850  141.8560 C   0  0  0  0  0  0  0  0  0  0  0  0
  186.2290  177.6740  141.2790 C   0  0  0  0  0  3  0  0  0  0  0  0
  190.3430  171.9700  138.8860 C   0  0  1  0  0  3  0  0  0  0  0  0
  192.3150  173.5130  139.0740 C   0  0  0  0  0  2  0  0  0  0  0  0
  192.4980  170.8080  141.6960 C   0  0  0  0  0  1  0  0  0  0  0  0
  188.9030  171.9210  138.7190 N   0  0  0  0  0  1  0  0  0  0  0  0
  190.8170  173.4150  138.7840 C   0  0  0  0  0  2  0  0  0  0  0  0
  192.1690  171.4480  140.4300 N   0  0  0  0  0  0  0  0  0  0  0  0
  192.6620  172.8410  140.4080 C   0  0  2  0  0  3  0  0  0  0  0  0
  190.7170  171.3970  140.2500 C   0  0  0  0  0  2  0  0  0  0  0  0
  1 11  1  0  0  0  0
  2  7  1  0  0  0  0
  3  2  1  0  0  0  0
  3  9  1  0  0  0  0
  5 16  1  0  0  0  0
  5  4  2  0  0  0  0
  6  9  2  0  0  0  0
  6 13  1  0  0  0  0
  7 19  2  0  0  0  0
  7 17  1  0  0  0  0
  8  1  1  0  0  0  0
 10 15  1  0  0  0  0
 10 14  2  0  0  0  0
 12 21  1  0  0  0  0
 12 22  1  0  0  0  0
 14 19  1  0  0  0  0
 15 21  1  6  0  0  0
 15  2  1  0  0  0  0
 16 10  1  0  0  0  0
 17  1  2  0  0  0  0
 18  6  1  0  0  0  0
 19 20  1  0  0  0  0
 20  8  2  0  0  0  0
 22  3  2  0  0  0  0
 23 22  1  0  0  0  0
 23 18  2  0  0  0  0
 24 27  1  1  0  0  0
 24 31  1  0  0  0  0
 25 30  1  0  0  0  0
 28 24  1  0  0  0  0
 28 25  1  0  0  0  0
 29 26  1  0  0  0  0
 30 29  1  0  0  0  0
 30  5  1  1  0  0  0
 31 29  1  0  0  0  0
M  END
>  <MODEL>
8

>  <REMARK>
 VINA RESULT:      -7.7      3.083      5.350
  Name = 
  1 active torsions:
  status: ('A' for Active; 'I' for Inactive)
    1  A    between atoms: C_5  and  C_30
                            x       y       z     vdW  Elec       q    Type
                         _______ _______ _______ _____ _____    ______ ____

>  <TORSDO>
F 1

$$$$
=
 OpenBabel11112416453D

 31 35  0  0  1  0  0  0  0  0999 V2000
  186.3750  178.6780  142.3480 C   0  0  0  0  0  0  0  0  0  0  0  0
  188.9640  176.0890  143.2110 N   0  0  0  0  0  0  0  0  0  0  0  0
  188.8610  175.8220  144.6280 C   0  0  0  0  0  0  0  0  0  0  0  0
  188.2500  173.1570  138.9060 O   0  0  0  0  0  0  0  0  0  0  0  0
  189.3120  172.7930  139.4780 C   0  0  0  0  0  0  0  0  0  0  0  0
  188.0990  176.4460  146.7950 C   0  0  0  0  0  0  0  0  0  0  0  0
  187.9620  176.8500  142.5090 C   0  0  0  0  0  0  0  0  0  0  0  0
  185.9890  178.2330  141.0800 C   0  0  0  0  0  3  0  0  0  0  0  0
  188.2120  176.6830  145.4600 N   0  0  0  0  0  0  0  0  0  0  0  0
  189.2350  174.6820  141.2030 C   0  0  0  0  0  0  0  0  0  0  0  0
  185.7920  179.7750  142.8880 F   0  0  0  0  0  0  0  0  0  0  0  0
  190.0900  173.6680  144.2520 C   0  0  0  0  0  2  0  0  0  0  0  0
  187.3820  177.4180  147.6630 C   0  0  0  0  0  1  0  0  0  0  0  0
  188.1880  175.2450  140.6680 N   0  0  0  0  0  0  0  0  0  0  0  0
  189.9300  175.3500  142.3690 C   0  0  2  0  0  3  0  0  0  0  0  0
  189.8240  173.5190  140.6050 N   0  0  0  0  0  2  0  0  0  0  0  0
  187.3580  177.9870  143.0640 C   0  0  0  0  0  3  0  0  0  0  0  0
  188.6500  175.2910  147.3510 C   0  0  0  0  0  3  0  0  0  0  0  0
  187.5800  176.4160  141.2290 C   0  0  0  0  0  0  0  0  0  0  0  0
  186.5890  177.1020  140.5210 C   0  0  0  0  0  3  0  0  0  0  0  0
  190.8510  174.4100  143.1630 C   0  0  0  0  0  2  0  0  0  0  0  0
  189.4340  174.6540  145.1580 C   0  0  0  0  0  0  0  0  0  0  0  0
  189.3160  174.3870  146.5220 C   0  0  0  0  0  3  0  0  0  0  0  0
  192.8350  171.6320  139.7350 C   0  0  1  0  0  3  0  0  0  0  0  0
  190.5400  170.6860  140.1170 C   0  0  0  0  0  2  0  0  0  0  0  0
  190.6340  172.6780  136.9150 C   0  0  0  0  0  1  0  0  0  0  0  0
  193.9420  172.3190  140.3720 N   0  0  0  0  0  1  0  0  0  0  0  0
  191.7720  171.3050  140.7780 C   0  0  0  0  0  2  0  0  0  0  0  0
  191.1160  171.8410  138.0050 N   0  0  0  0  0  0  0  0  0  0  0  0
  190.0300  171.5670  138.9690 C   0  0  2  0  0  3  0  0  0  0  0  0
  192.2380  172.5240  138.6500 C   0  0  0  0  0  2  0  0  0  0  0  0
  1 11  1  0  0  0  0
  1 17  1  0  0  0  0
  2  3  1  0  0  0  0
  3 22  2  0  0  0  0
  3  9  1  0  0  0  0
  4  5  2  0  0  0  0
  5 16  1  0  0  0  0
  6 18  1  0  0  0  0
  6 13  1  0  0  0  0
  7 17  2  0  0  0  0
  7  2  1  0  0  0  0
  8  1  2  0  0  0  0
  9  6  2  0  0  0  0
 10 15  1  0  0  0  0
 12 22  1  0  0  0  0
 14 10  2  0  0  0  0
 14 19  1  0  0  0  0
 15 21  1  1  0  0  0
 15  2  1  0  0  0  0
 16 10  1  0  0  0  0
 19  7  1  0  0  0  0
 20  8  1  0  0  0  0
 20 19  2  0  0  0  0
 21 12  1  0  0  0  0
 22 23  1  0  0  0  0
 23 18  2  0  0  0  0
 24 27  1  1  0  0  0
 24 28  1  0  0  0  0
 25 28  1  0  0  0  0
 26 29  1  0  0  0  0
 29 31  1  0  0  0  0
 29 30  1  0  0  0  0
 30  5  1  1  0  0  0
 30 25  1  0  0  0  0
 31 24  1  0  0  0  0
M  END
>  <MODEL>
9

>  <REMARK>
 VINA RESULT:      -7.6      3.136      4.420
  Name = 
  1 active torsions:
  status: ('A' for Active; 'I' for Inactive)
    1  A    between atoms: C_5  and  C_30
                            x       y       z     vdW  Elec       q    Type
                         _______ _______ _______ _____ _____    ______ ____

>  <TORSDO>
F 1

$$$$
