=
 OpenBabel11112417283D

 37 42  0  0  1  0  0  0  0  0999 V2000
  190.3650  174.8750  145.4220 C   0  0  1  0  0  3  0  0  0  0  0  0
  187.4370  175.3370  143.7100 O   0  0  0  0  0  0  0  0  0  0  0  0
  192.8430  174.3510  145.0090 C   0  0  2  0  0  3  0  0  0  0  0  0
  189.7920  175.4910  144.1620 C   0  0  2  0  0  3  0  0  0  0  0  0
  191.3840  173.8740  144.8770 C   0  0  2  0  0  3  0  0  0  0  0  0
  188.4120  176.1630  144.2970 C   0  0  2  0  0  3  0  0  0  0  0  0
  193.1850  174.7030  146.4650 C   0  0  0  0  0  2  0  0  0  0  0  0
  191.0060  173.6860  143.4130 C   0  0  0  0  0  2  0  0  0  0  0  0
  189.9200  176.5160  147.1980 N   0  0  0  0  0  2  0  0  0  0  0  0
  192.0220  175.3170  147.2550 C   0  0  0  0  0  2  0  0  0  0  0  0
  188.0190  176.7080  141.8240 O   0  0  0  0  0  0  0  0  0  0  0  0
  187.1640  175.7240  142.3670 C   0  0  1  0  0  3  0  0  0  0  0  0
  190.9630  175.9440  146.3540 C   0  0  1  0  0  3  0  0  0  0  0  0
  189.7600  174.4180  143.1710 N   0  0  2  0  0  0  0  0  0  0  0  0
  187.9940  176.5950  145.7100 C   0  0  1  0  0  3  0  0  0  0  0  0
  188.2660  175.3870  141.3940 C   0  0  2  0  0  3  0  0  0  0  0  0
  189.7090  175.0310  141.8320 C   0  0  2  0  0  3  0  0  0  0  0  0
  189.0890  177.4030  146.3970 C   0  0  0  0  0  2  0  0  0  0  0  0
  185.7170  177.0110  146.4590 C   0  0  0  0  0  3  0  0  0  0  0  0
  186.7240  177.3870  145.6670 C   0  0  0  0  0  0  0  0  0  0  0  0
  186.6070  178.5770  144.7400 C   0  0  0  0  0  2  0  0  0  0  0  0
  185.0270  180.2340  144.0690 O   0  0  0  0  0  0  0  0  0  0  0  0
  184.2460  178.7630  145.6940 N   0  0  0  0  0  0  0  0  0  0  0  0
  185.2610  179.2410  144.8040 C   0  0  0  0  0  0  0  0  0  0  0  0
  184.4380  177.7370  146.4640 C   0  0  0  0  0  3  0  0  0  0  0  0
  190.3180  174.1230  140.7410 C   0  0  0  0  0  2  0  0  0  0  0  0
  189.3280  173.5330  139.8260 N   0  0  0  0  0  0  0  0  0  0  0  0
  188.5330  174.0260  137.5770 C   0  0  0  0  0  1  0  0  0  0  0  0
  189.7420  173.7210  138.4400 C   0  0  0  0  0  2  0  0  0  0  0  0
  189.2090  172.1020  140.0780 C   0  0  0  0  0  2  0  0  0  0  0  0
  190.5610  171.5200  140.4530 C   0  0  0  0  0  2  0  0  0  0  0  0
  190.4230  170.6510  141.5360 O   0  0  0  0  0  1  0  0  0  0  0  0
  193.0890  175.4650  144.1800 O   0  0  0  0  0  0  0  0  0  0  0  0
  194.2210  175.2080  143.3740 C   0  0  0  0  0  0  0  0  0  0  0  0
  194.6480  173.8940  143.5040 F   0  0  0  0  0  0  0  0  0  0  0  0
  193.9430  175.5140  141.9080 C   0  0  0  0  0  1  0  0  0  0  0  0
  195.3450  176.1120  143.8330 C   0  0  0  0  0  1  0  0  0  0  0  0
  1 13  1  0  0  0  0
  2  6  1  0  0  0  0
  3  7  1  0  0  0  0
  4  6  1  0  0  0  0
  4  1  1  0  0  0  0
  5  3  1  0  0  0  0
  5  1  1  0  0  0  0
  6 15  1  0  0  0  0
  7 10  1  0  0  0  0
  8  5  1  0  0  0  0
 11 12  1  0  0  0  0
 12  2  1  0  0  0  0
 13  9  1  0  0  0  0
 13 10  1  0  0  0  0
 14  8  1  0  0  0  0
 14  4  1  0  0  0  0
 15 18  1  0  0  0  0
 16 11  1  0  0  0  0
 16 17  1  0  0  0  0
 16 12  1  0  0  0  0
 17 14  1  0  0  0  0
 18  9  1  0  0  0  0
 19 25  1  0  0  0  0
 20 15  1  0  0  0  0
 20 19  2  0  0  0  0
 21 24  1  0  0  0  0
 21 20  1  0  0  0  0
 22 24  2  0  0  0  0
 23 25  2  0  0  0  0
 24 23  1  0  0  0  0
 26 17  1  0  0  0  0
 27 30  1  0  0  0  0
 27 26  1  0  0  0  0
 28 29  1  0  0  0  0
 29 27  1  0  0  0  0
 30 31  1  0  0  0  0
 31 32  1  0  0  0  0
 33  3  1  0  0  0  0
 34 35  1  0  0  0  0
 34 37  1  0  0  0  0
 34 33  1  0  0  0  0
 36 34  1  0  0  0  0
M  END
>  <MODEL>
1

>  <REMARK>
 VINA RESULT:      -7.3      0.000      0.000
  Name = 
  8 active torsions:
  status: ('A' for Active; 'I' for Inactive)
    1  A    between atoms: C_1  and  N_4
    2  A    between atoms: C_1  and  C_27
    3  A    between atoms: C_2  and  O_22
    4  A    between atoms: N_4  and  C_12
    5  A    between atoms: N_4  and  C_37
    6  A    between atoms: C_6  and  O_22
    7  A    between atoms: C_8  and  C_12
    8  A    between atoms: C_23  and  C_30
                            x       y       z     vdW  Elec       q    Type
                         _______ _______ _______ _____ _____    ______ ____

>  <TORSDO>
F 8

$$$$
=
 OpenBabel11112417283D

 37 42  0  0  1  0  0  0  0  0999 V2000
  191.3160  175.2140  145.3890 C   0  0  1  0  0  3  0  0  0  0  0  0
  188.3010  174.9630  143.7890 O   0  0  0  0  0  0  0  0  0  0  0  0
  193.8330  175.0410  144.9180 C   0  0  2  0  0  3  0  0  0  0  0  0
  190.6110  175.5520  144.0920 C   0  0  2  0  0  3  0  0  0  0  0  0
  192.4700  174.3240  144.9260 C   0  0  2  0  0  3  0  0  0  0  0  0
  189.1430  176.0060  144.2120 C   0  0  2  0  0  3  0  0  0  0  0  0
  194.1570  175.6390  146.2950 C   0  0  0  0  0  2  0  0  0  0  0  0
  192.0830  173.8790  143.5210 C   0  0  0  0  0  2  0  0  0  0  0  0
  190.6610  176.9900  146.9570 N   0  0  0  0  0  2  0  0  0  0  0  0
  192.9340  176.1620  147.0590 C   0  0  0  0  0  2  0  0  0  0  0  0
  188.5890  176.1380  141.7130 O   0  0  0  0  0  0  0  0  0  0  0  0
  187.9270  175.1130  142.4230 C   0  0  1  0  0  3  0  0  0  0  0  0
  191.7580  176.4820  146.1410 C   0  0  1  0  0  3  0  0  0  0  0  0
  190.7260  174.3610  143.2520 N   0  0  2  0  0  0  0  0  0  0  0  0
  188.7030  176.5560  145.5760 C   0  0  1  0  0  3  0  0  0  0  0  0
  189.0380  174.8270  141.4460 C   0  0  2  0  0  3  0  0  0  0  0  0
  190.5330  174.7700  141.8490 C   0  0  2  0  0  3  0  0  0  0  0  0
  189.6710  177.6150  146.0930 C   0  0  0  0  0  2  0  0  0  0  0  0
  186.3970  176.6580  146.3460 C   0  0  0  0  0  3  0  0  0  0  0  0
  187.3190  177.1210  145.4970 C   0  0  0  0  0  0  0  0  0  0  0  0
  186.9960  178.1870  144.4750 C   0  0  0  0  0  2  0  0  0  0  0  0
  185.1540  179.4950  143.7040 O   0  0  0  0  0  0  0  0  0  0  0  0
  184.6470  178.0670  145.4700 N   0  0  0  0  0  0  0  0  0  0  0  0
  185.5590  178.6240  144.5160 C   0  0  0  0  0  0  0  0  0  0  0  0
  185.0160  177.1610  146.3210 C   0  0  0  0  0  3  0  0  0  0  0  0
  191.2500  173.8300  140.8550 C   0  0  0  0  0  2  0  0  0  0  0  0
  190.4850  172.6210  140.5100 N   0  0  0  0  0  0  0  0  0  0  0  0
  188.8150  172.2760  138.7710 C   0  0  0  0  0  1  0  0  0  0  0  0
  190.2770  172.5470  139.0680 C   0  0  0  0  0  2  0  0  0  0  0  0
  191.2180  171.4320  140.9280 C   0  0  0  0  0  2  0  0  0  0  0  0
  190.5320  170.7830  142.1180 C   0  0  0  0  0  2  0  0  0  0  0  0
  189.3720  171.4870  142.4440 O   0  0  0  0  0  1  0  0  0  0  0  0
  193.8650  176.0560  143.9390 O   0  0  0  0  0  0  0  0  0  0  0  0
  195.0850  175.9840  143.2290 C   0  0  0  0  0  0  0  0  0  0  0  0
  195.9880  176.9400  143.6740 F   0  0  0  0  0  0  0  0  0  0  0  0
  195.7110  174.5990  143.3340 C   0  0  0  0  0  1  0  0  0  0  0  0
  194.8010  176.2560  141.7670 C   0  0  0  0  0  1  0  0  0  0  0  0
  1 13  1  0  0  0  0
  2  6  1  0  0  0  0
  3  5  1  0  0  0  0
  3  7  1  0  0  0  0
  4  6  1  0  0  0  0
  4  1  1  0  0  0  0
  5  1  1  0  0  0  0
  6 15  1  0  0  0  0
  7 10  1  0  0  0  0
  8  5  1  0  0  0  0
 11 12  1  0  0  0  0
 12  2  1  0  0  0  0
 13  9  1  0  0  0  0
 13 10  1  0  0  0  0
 14  8  1  0  0  0  0
 14  4  1  0  0  0  0
 15 18  1  0  0  0  0
 16 11  1  0  0  0  0
 16 17  1  0  0  0  0
 16 12  1  0  0  0  0
 17 14  1  0  0  0  0
 18  9  1  0  0  0  0
 20 15  1  0  0  0  0
 20 19  2  0  0  0  0
 21 24  1  0  0  0  0
 21 20  1  0  0  0  0
 22 24  2  0  0  0  0
 23 25  2  0  0  0  0
 24 23  1  0  0  0  0
 25 19  1  0  0  0  0
 26 17  1  0  0  0  0
 27 26  1  0  0  0  0
 27 30  1  0  0  0  0
 28 29  1  0  0  0  0
 29 27  1  0  0  0  0
 30 31  1  0  0  0  0
 31 32  1  0  0  0  0
 33  3  1  0  0  0  0
 34 36  1  0  0  0  0
 34 35  1  0  0  0  0
 34 33  1  0  0  0  0
 37 34  1  0  0  0  0
M  END
>  <MODEL>
2

>  <REMARK>
 VINA RESULT:      -7.3      1.173      1.347
  Name = 
  8 active torsions:
  status: ('A' for Active; 'I' for Inactive)
    1  A    between atoms: C_1  and  N_4
    2  A    between atoms: C_1  and  C_27
    3  A    between atoms: C_2  and  O_22
    4  A    between atoms: N_4  and  C_12
    5  A    between atoms: N_4  and  C_37
    6  A    between atoms: C_6  and  O_22
    7  A    between atoms: C_8  and  C_12
    8  A    between atoms: C_23  and  C_30
                            x       y       z     vdW  Elec       q    Type
                         _______ _______ _______ _____ _____    ______ ____

>  <TORSDO>
F 8

$$$$
=
 OpenBabel11112417283D

 37 42  0  0  1  0  0  0  0  0999 V2000
  191.3350  175.0920  145.1930 C   0  0  1  0  0  3  0  0  0  0  0  0
  188.3420  174.8490  143.5510 O   0  0  0  0  0  0  0  0  0  0  0  0
  193.8490  174.7550  144.7980 C   0  0  2  0  0  3  0  0  0  0  0  0
  190.6730  175.3490  143.8560 C   0  0  2  0  0  3  0  0  0  0  0  0
  192.4510  174.1090  144.8360 C   0  0  2  0  0  3  0  0  0  0  0  0
  189.2280  175.8830  143.9010 C   0  0  2  0  0  3  0  0  0  0  0  0
  194.1760  175.4560  146.1250 C   0  0  0  0  0  2  0  0  0  0  0  0
  192.0680  173.5610  143.4670 C   0  0  0  0  0  2  0  0  0  0  0  0
  190.7410  177.0300  146.5850 N   0  0  0  0  0  2  0  0  0  0  0  0
  192.9660  176.1030  146.8120 C   0  0  0  0  0  2  0  0  0  0  0  0
  188.7290  175.8200  141.3880 O   0  0  0  0  0  0  0  0  0  0  0  0
  188.0020  174.8960  142.1690 C   0  0  1  0  0  3  0  0  0  0  0  0
  191.8260  176.3990  145.8420 C   0  0  1  0  0  3  0  0  0  0  0  0
  190.7430  174.0840  143.1250 N   0  0  2  0  0  0  0  0  0  0  0  0
  188.7910  176.5720  145.2010 C   0  0  1  0  0  3  0  0  0  0  0  0
  189.1160  174.4710  141.2470 C   0  0  2  0  0  3  0  0  0  0  0  0
  190.5980  174.3760  141.6880 C   0  0  2  0  0  3  0  0  0  0  0  0
  189.8010  177.6240  145.6470 C   0  0  0  0  0  2  0  0  0  0  0  0
  187.2260  177.9820  143.9840 C   0  0  0  0  0  3  0  0  0  0  0  0
  187.4380  177.1950  145.0410 C   0  0  0  0  0  0  0  0  0  0  0  0
  186.3580  176.9260  146.0650 C   0  0  0  0  0  2  0  0  0  0  0  0
  184.0990  177.5230  146.5510 O   0  0  0  0  0  0  0  0  0  0  0  0
  184.9450  178.4680  144.5990 N   0  0  0  0  0  0  0  0  0  0  0  0
  185.0740  177.6470  145.7660 C   0  0  0  0  0  0  0  0  0  0  0  0
  185.9250  178.6340  143.7670 C   0  0  0  0  0  3  0  0  0  0  0  0
  191.2850  173.3180  140.7960 C   0  0  0  0  0  2  0  0  0  0  0  0
  190.3540  172.3780  140.1500 N   0  0  0  0  0  0  0  0  0  0  0  0
  191.8040  172.8820  138.2590 C   0  0  0  0  0  1  0  0  0  0  0  0
  190.3940  172.5410  138.7010 C   0  0  0  0  0  2  0  0  0  0  0  0
  190.7320  171.0070  140.4680 C   0  0  0  0  0  2  0  0  0  0  0  0
  190.4090  170.6950  141.9190 C   0  0  0  0  0  2  0  0  0  0  0  0
  191.5050  170.0910  142.5350 O   0  0  0  0  0  1  0  0  0  0  0  0
  193.9500  175.6770  143.7350 O   0  0  0  0  0  0  0  0  0  0  0  0
  195.0820  175.3620  142.9490 C   0  0  0  0  0  0  0  0  0  0  0  0
  195.6540  174.1610  143.3440 F   0  0  0  0  0  0  0  0  0  0  0  0
  194.7340  175.3020  141.4680 C   0  0  0  0  0  1  0  0  0  0  0  0
  196.1120  176.4540  143.1410 C   0  0  0  0  0  1  0  0  0  0  0  0
  1 13  1  0  0  0  0
  2  6  1  0  0  0  0
  3  5  1  0  0  0  0
  3  7  1  0  0  0  0
  4  6  1  0  0  0  0
  4  1  1  0  0  0  0
  5  1  1  0  0  0  0
  6 15  1  0  0  0  0
  7 10  1  0  0  0  0
  8  5  1  0  0  0  0
 11 12  1  0  0  0  0
 12  2  1  0  0  0  0
 13  9  1  0  0  0  0
 13 10  1  0  0  0  0
 14  8  1  0  0  0  0
 14  4  1  0  0  0  0
 15 18  1  0  0  0  0
 16 11  1  0  0  0  0
 16 17  1  0  0  0  0
 16 12  1  0  0  0  0
 17 14  1  0  0  0  0
 18  9  1  0  0  0  0
 19 20  2  0  0  0  0
 20 15  1  0  0  0  0
 20 21  1  0  0  0  0
 23 24  1  0  0  0  0
 24 21  1  0  0  0  0
 24 22  2  0  0  0  0
 25 19  1  0  0  0  0
 25 23  2  0  0  0  0
 26 17  1  0  0  0  0
 27 30  1  0  0  0  0
 27 26  1  0  0  0  0
 28 29  1  0  0  0  0
 29 27  1  0  0  0  0
 30 31  1  0  0  0  0
 31 32  1  0  0  0  0
 33  3  1  0  0  0  0
 34 37  1  0  0  0  0
 34 35  1  0  0  0  0
 34 33  1  0  0  0  0
 36 34  1  0  0  0  0
M  END
>  <MODEL>
3

>  <REMARK>
 VINA RESULT:      -6.8      1.325      1.640
  Name = 
  8 active torsions:
  status: ('A' for Active; 'I' for Inactive)
    1  A    between atoms: C_1  and  N_4
    2  A    between atoms: C_1  and  C_27
    3  A    between atoms: C_2  and  O_22
    4  A    between atoms: N_4  and  C_12
    5  A    between atoms: N_4  and  C_37
    6  A    between atoms: C_6  and  O_22
    7  A    between atoms: C_8  and  C_12
    8  A    between atoms: C_23  and  C_30
                            x       y       z     vdW  Elec       q    Type
                         _______ _______ _______ _____ _____    ______ ____

>  <TORSDO>
F 8

$$$$
=
 OpenBabel11112417283D

 37 42  0  0  1  0  0  0  0  0999 V2000
  190.7490  174.1670  141.3200 C   0  0  1  0  0  3  0  0  0  0  0  0
  189.7220  177.2500  142.3960 O   0  0  0  0  0  0  0  0  0  0  0  0
  192.5350  172.3890  141.8050 C   0  0  2  0  0  3  0  0  0  0  0  0
  190.5570  175.0030  142.5680 C   0  0  2  0  0  3  0  0  0  0  0  0
  192.2410  173.8340  141.3600 C   0  0  2  0  0  3  0  0  0  0  0  0
  189.3180  175.9180  142.5930 C   0  0  2  0  0  3  0  0  0  0  0  0
  191.7980  171.3730  140.9220 C   0  0  0  0  0  2  0  0  0  0  0  0
  192.8410  174.8370  142.3380 C   0  0  0  0  0  2  0  0  0  0  0  0
  188.5150  173.2920  140.7850 N   0  0  0  0  0  2  0  0  0  0  0  0
  190.4200  171.8400  140.4360 C   0  0  0  0  0  2  0  0  0  0  0  0
  189.8000  177.1380  144.7940 O   0  0  0  0  0  0  0  0  0  0  0  0
  189.8870  177.9360  143.6330 C   0  0  1  0  0  3  0  0  0  0  0  0
  189.8250  172.9360  141.3160 C   0  0  1  0  0  3  0  0  0  0  0  0
  191.7870  175.7790  142.7220 N   0  0  2  0  0  0  0  0  0  0  0  0
  188.1670  175.5420  141.6490 C   0  0  1  0  0  3  0  0  0  0  0  0
  191.1060  177.5130  144.4130 C   0  0  2  0  0  3  0  0  0  0  0  0
  191.8870  176.2050  144.1290 C   0  0  2  0  0  3  0  0  0  0  0  0
  187.7910  174.0710  141.7800 C   0  0  0  0  0  2  0  0  0  0  0  0
  186.4310  176.3890  143.1280 C   0  0  0  0  0  3  0  0  0  0  0  0
  186.9690  176.4020  141.9060 C   0  0  0  0  0  0  0  0  0  0  0  0
  186.3990  177.2540  140.7940 C   0  0  0  0  0  2  0  0  0  0  0  0
  184.6030  178.7700  140.3770 O   0  0  0  0  0  0  0  0  0  0  0  0
  184.6880  177.9540  142.5550 N   0  0  0  0  0  0  0  0  0  0  0  0
  185.1850  178.0340  141.2140 C   0  0  0  0  0  0  0  0  0  0  0  0
  185.2490  177.2020  143.4500 C   0  0  0  0  0  3  0  0  0  0  0  0
  193.3480  176.4260  144.5790 C   0  0  0  0  0  2  0  0  0  0  0  0
  193.5820  176.1760  146.0110 N   0  0  0  0  0  0  0  0  0  0  0  0
  191.8170  175.9610  147.6740 C   0  0  0  0  0  1  0  0  0  0  0  0
  192.5610  175.2800  146.5420 C   0  0  0  0  0  2  0  0  0  0  0  0
  194.8850  175.5490  146.1990 C   0  0  0  0  0  2  0  0  0  0  0  0
  195.6210  175.4570  144.8740 C   0  0  0  0  0  2  0  0  0  0  0  0
  196.7430  174.6380  145.0060 O   0  0  0  0  0  1  0  0  0  0  0  0
  192.1780  172.1940  143.1560 O   0  0  0  0  0  0  0  0  0  0  0  0
  193.2200  171.5060  143.8200 C   0  0  0  0  0  0  0  0  0  0  0  0
  194.3360  171.3700  143.0070 F   0  0  0  0  0  0  0  0  0  0  0  0
  193.6110  172.2040  145.1160 C   0  0  0  0  0  1  0  0  0  0  0  0
  192.7250  170.1190  144.1690 C   0  0  0  0  0  1  0  0  0  0  0  0
  1  5  1  0  0  0  0
  1  4  1  0  0  0  0
  2  6  1  0  0  0  0
  2 12  1  0  0  0  0
  3 33  1  0  0  0  0
  4  6  1  0  0  0  0
  4 14  1  0  0  0  0
  5  3  1  0  0  0  0
  5  8  1  0  0  0  0
  7  3  1  0  0  0  0
  8 14  1  0  0  0  0
  9 13  1  0  0  0  0
  9 18  1  0  0  0  0
 10  7  1  0  0  0  0
 10 13  1  0  0  0  0
 12 16  1  0  0  0  0
 12 11  1  0  0  0  0
 13  1  1  0  0  0  0
 14 17  1  0  0  0  0
 15 18  1  0  0  0  0
 15 20  1  0  0  0  0
 15  6  1  0  0  0  0
 16 11  1  0  0  0  0
 17 16  1  0  0  0  0
 17 26  1  0  0  0  0
 19 25  1  0  0  0  0
 20 19  2  0  0  0  0
 21 24  1  0  0  0  0
 21 20  1  0  0  0  0
 22 24  2  0  0  0  0
 23 25  2  0  0  0  0
 24 23  1  0  0  0  0
 26 27  1  0  0  0  0
 27 30  1  0  0  0  0
 27 29  1  0  0  0  0
 29 28  1  0  0  0  0
 31 32  1  0  0  0  0
 31 30  1  0  0  0  0
 33 34  1  0  0  0  0
 34 37  1  0  0  0  0
 34 36  1  0  0  0  0
 35 34  1  0  0  0  0
M  END
>  <MODEL>
4

>  <REMARK>
 VINA RESULT:      -6.6      2.377      5.374
  Name = 
  8 active torsions:
  status: ('A' for Active; 'I' for Inactive)
    1  A    between atoms: C_1  and  N_4
    2  A    between atoms: C_1  and  C_27
    3  A    between atoms: C_2  and  O_22
    4  A    between atoms: N_4  and  C_12
    5  A    between atoms: N_4  and  C_37
    6  A    between atoms: C_6  and  O_22
    7  A    between atoms: C_8  and  C_12
    8  A    between atoms: C_23  and  C_30
                            x       y       z     vdW  Elec       q    Type
                         _______ _______ _______ _____ _____    ______ ____

>  <TORSDO>
F 8

$$$$
=
 OpenBabel11112417283D

 37 42  0  0  1  0  0  0  0  0999 V2000
  189.3850  175.3130  145.3630 C   0  0  1  0  0  3  0  0  0  0  0  0
  187.6290  174.5330  142.5310 O   0  0  0  0  0  0  0  0  0  0  0  0
  191.6740  174.9110  146.4530 C   0  0  2  0  0  3  0  0  0  0  0  0
  189.5330  175.1380  143.8660 C   0  0  2  0  0  3  0  0  0  0  0  0
  190.3690  174.2860  145.9230 C   0  0  2  0  0  3  0  0  0  0  0  0
  188.3590  175.6380  143.0010 C   0  0  2  0  0  3  0  0  0  0  0  0
  191.3870  175.9890  147.5080 C   0  0  0  0  0  2  0  0  0  0  0  0
  190.6520  173.3390  144.7630 C   0  0  0  0  0  2  0  0  0  0  0  0
  188.4650  177.5740  145.6560 N   0  0  0  0  0  2  0  0  0  0  0  0
  190.1080  176.7960  147.2550 C   0  0  0  0  0  2  0  0  0  0  0  0
  189.1910  174.8020  140.7260 O   0  0  0  0  0  0  0  0  0  0  0  0
  188.0420  174.1500  141.2230 C   0  0  1  0  0  3  0  0  0  0  0  0
  189.6690  176.7630  145.7940 C   0  0  1  0  0  3  0  0  0  0  0  0
  189.7730  173.7120  143.6520 N   0  0  2  0  0  0  0  0  0  0  0  0
  187.4340  176.6840  143.6370 C   0  0  1  0  0  3  0  0  0  0  0  0
  189.3920  173.4800  141.1770 C   0  0  2  0  0  3  0  0  0  0  0  0
  190.4170  173.5480  142.3360 C   0  0  2  0  0  3  0  0  0  0  0  0
  188.2250  177.8380  144.2450 C   0  0  0  0  0  2  0  0  0  0  0  0
  186.8810  177.4100  141.3820 C   0  0  0  0  0  3  0  0  0  0  0  0
  186.4560  177.2080  142.6320 C   0  0  0  0  0  0  0  0  0  0  0  0
  185.0300  177.4930  143.0440 C   0  0  0  0  0  2  0  0  0  0  0  0
  182.9870  178.3310  142.1360 O   0  0  0  0  0  0  0  0  0  0  0  0
  184.7410  178.2120  140.6110 N   0  0  0  0  0  0  0  0  0  0  0  0
  184.1900  178.0350  141.9210 C   0  0  0  0  0  0  0  0  0  0  0  0
  185.9780  177.9300  140.3440 C   0  0  0  0  0  3  0  0  0  0  0  0
  191.2940  172.2790  142.2600 C   0  0  0  0  0  2  0  0  0  0  0  0
  191.5780  171.8240  140.8890 N   0  0  0  0  0  0  0  0  0  0  0  0
  193.7530  171.8970  141.9830 C   0  0  0  0  0  1  0  0  0  0  0  0
  193.0180  171.7620  140.6640 C   0  0  0  0  0  2  0  0  0  0  0  0
  191.0240  170.4920  140.6820 C   0  0  0  0  0  2  0  0  0  0  0  0
  190.8160  169.7960  142.0160 C   0  0  0  0  0  2  0  0  0  0  0  0
  190.9040  168.4130  141.8540 O   0  0  0  0  0  1  0  0  0  0  0  0
  192.4320  175.4650  145.4000 O   0  0  0  0  0  0  0  0  0  0  0  0
  193.7620  174.9930  145.4830 C   0  0  0  0  0  0  0  0  0  0  0  0
  193.8260  173.7690  146.1340 F   0  0  0  0  0  0  0  0  0  0  0  0
  194.3990  174.8760  144.1050 C   0  0  0  0  0  1  0  0  0  0  0  0
  194.5700  175.9910  146.2860 C   0  0  0  0  0  1  0  0  0  0  0  0
  1 13  1  0  0  0  0
  1  5  1  0  0  0  0
  2  6  1  0  0  0  0
  3  7  1  0  0  0  0
  4  1  1  0  0  0  0
  5  3  1  0  0  0  0
  6 15  1  0  0  0  0
  6  4  1  0  0  0  0
  8  5  1  0  0  0  0
  9 13  1  0  0  0  0
 10  7  1  0  0  0  0
 11 16  1  0  0  0  0
 11 12  1  0  0  0  0
 12  2  1  0  0  0  0
 13 10  1  0  0  0  0
 14  4  1  0  0  0  0
 14  8  1  0  0  0  0
 15 18  1  0  0  0  0
 16 12  1  0  0  0  0
 16 17  1  0  0  0  0
 17 14  1  0  0  0  0
 18  9  1  0  0  0  0
 19 20  2  0  0  0  0
 20 21  1  0  0  0  0
 20 15  1  0  0  0  0
 23 24  1  0  0  0  0
 24 22  2  0  0  0  0
 24 21  1  0  0  0  0
 25 23  2  0  0  0  0
 25 19  1  0  0  0  0
 26 17  1  0  0  0  0
 27 26  1  0  0  0  0
 29 27  1  0  0  0  0
 29 28  1  0  0  0  0
 30 27  1  0  0  0  0
 30 31  1  0  0  0  0
 32 31  1  0  0  0  0
 33 34  1  0  0  0  0
 33  3  1  0  0  0  0
 34 35  1  0  0  0  0
 34 37  1  0  0  0  0
 36 34  1  0  0  0  0
M  END
>  <MODEL>
5

>  <REMARK>
 VINA RESULT:      -6.6      2.107      2.964
  Name = 
  8 active torsions:
  status: ('A' for Active; 'I' for Inactive)
    1  A    between atoms: C_1  and  N_4
    2  A    between atoms: C_1  and  C_27
    3  A    between atoms: C_2  and  O_22
    4  A    between atoms: N_4  and  C_12
    5  A    between atoms: N_4  and  C_37
    6  A    between atoms: C_6  and  O_22
    7  A    between atoms: C_8  and  C_12
    8  A    between atoms: C_23  and  C_30
                            x       y       z     vdW  Elec       q    Type
                         _______ _______ _______ _____ _____    ______ ____

>  <TORSDO>
F 8

$$$$
=
 OpenBabel11112417283D

 37 42  0  0  1  0  0  0  0  0999 V2000
  192.2290  174.5510  143.3470 C   0  0  1  0  0  3  0  0  0  0  0  0
  190.3860  174.1480  140.4910 O   0  0  0  0  0  0  0  0  0  0  0  0
  192.0540  175.5790  145.6930 C   0  0  2  0  0  3  0  0  0  0  0  0
  190.8280  174.2570  142.8510 C   0  0  2  0  0  3  0  0  0  0  0  0
  192.0360  175.8240  144.1720 C   0  0  2  0  0  3  0  0  0  0  0  0
  190.7210  173.3570  141.6040 C   0  0  2  0  0  3  0  0  0  0  0  0
  193.3430  174.8660  146.1270 C   0  0  0  0  0  2  0  0  0  0  0  0
  190.6880  176.3800  143.7270 C   0  0  0  0  0  2  0  0  0  0  0  0
  193.4150  172.4010  143.2290 N   0  0  0  0  0  2  0  0  0  0  0  0
  193.8830  173.8580  145.1050 C   0  0  0  0  0  2  0  0  0  0  0  0
  188.1900  173.5260  141.2400 O   0  0  0  0  0  0  0  0  0  0  0  0
  188.9840  174.1450  140.2490 C   0  0  1  0  0  3  0  0  0  0  0  0
  192.8090  173.3650  144.1390 C   0  0  1  0  0  3  0  0  0  0  0  0
  190.2070  175.5590  142.6130 N   0  0  2  0  0  0  0  0  0  0  0  0
  191.9260  172.4560  141.3020 C   0  0  1  0  0  3  0  0  0  0  0  0
  188.1850  174.9370  141.2530 C   0  0  2  0  0  3  0  0  0  0  0  0
  188.7440  175.3790  142.6280 C   0  0  2  0  0  3  0  0  0  0  0  0
  192.3640  171.6710  142.5350 C   0  0  0  0  0  2  0  0  0  0  0  0
  190.8090  170.4790  140.4280 C   0  0  0  0  0  3  0  0  0  0  0  0
  191.6150  171.5140  140.1800 C   0  0  0  0  0  0  0  0  0  0  0  0
  192.2120  171.7500  138.8110 C   0  0  0  0  0  2  0  0  0  0  0  0
  192.2610  170.7700  136.6350 O   0  0  0  0  0  0  0  0  0  0  0  0
  190.9410  169.6280  138.1750 N   0  0  0  0  0  0  0  0  0  0  0  0
  191.8180  170.7010  137.8100 C   0  0  0  0  0  0  0  0  0  0  0  0
  190.4670  169.5100  139.3760 C   0  0  0  0  0  3  0  0  0  0  0  0
  187.9930  176.6610  143.0490 C   0  0  0  0  0  2  0  0  0  0  0  0
  186.7710  176.4150  143.8320 N   0  0  0  0  0  0  0  0  0  0  0  0
  185.6430  176.8000  145.9550 C   0  0  0  0  0  1  0  0  0  0  0  0
  186.9690  176.8180  145.2200 C   0  0  0  0  0  2  0  0  0  0  0  0
  185.6640  177.1880  143.2830 C   0  0  0  0  0  2  0  0  0  0  0  0
  186.1850  178.4450  142.6060 C   0  0  0  0  0  2  0  0  0  0  0  0
  185.8970  179.5640  143.3880 O   0  0  0  0  0  1  0  0  0  0  0  0
  190.9330  174.8230  146.0960 O   0  0  0  0  0  0  0  0  0  0  0  0
  190.4280  175.3470  147.3080 C   0  0  0  0  0  0  0  0  0  0  0  0
  191.1790  174.9230  148.3950 F   0  0  0  0  0  0  0  0  0  0  0  0
  190.3770  176.8680  147.2810 C   0  0  0  0  0  1  0  0  0  0  0  0
  189.0140  174.8370  147.4920 C   0  0  0  0  0  1  0  0  0  0  0  0
  1 13  1  0  0  0  0
  1  5  1  0  0  0  0
  2  6  1  0  0  0  0
  3 33  1  0  0  0  0
  3  7  1  0  0  0  0
  4  1  1  0  0  0  0
  5  3  1  0  0  0  0
  6  4  1  0  0  0  0
  8  5  1  0  0  0  0
  9 13  1  0  0  0  0
 10  7  1  0  0  0  0
 11 16  1  0  0  0  0
 12  2  1  0  0  0  0
 12 11  1  0  0  0  0
 12 16  1  0  0  0  0
 13 10  1  0  0  0  0
 14 17  1  0  0  0  0
 14  4  1  0  0  0  0
 14  8  1  0  0  0  0
 15  6  1  0  0  0  0
 15 18  1  0  0  0  0
 16 17  1  0  0  0  0
 17 26  1  0  0  0  0
 18  9  1  0  0  0  0
 20 19  2  0  0  0  0
 20 15  1  0  0  0  0
 21 20  1  0  0  0  0
 22 24  2  0  0  0  0
 23 25  2  0  0  0  0
 24 23  1  0  0  0  0
 24 21  1  0  0  0  0
 25 19  1  0  0  0  0
 26 27  1  0  0  0  0
 27 29  1  0  0  0  0
 29 28  1  0  0  0  0
 30 27  1  0  0  0  0
 31 30  1  0  0  0  0
 31 32  1  0  0  0  0
 33 34  1  0  0  0  0
 34 37  1  0  0  0  0
 34 35  1  0  0  0  0
 36 34  1  0  0  0  0
M  END
>  <MODEL>
6

>  <REMARK>
 VINA RESULT:      -6.5      2.464      7.122
  Name = 
  8 active torsions:
  status: ('A' for Active; 'I' for Inactive)
    1  A    between atoms: C_1  and  N_4
    2  A    between atoms: C_1  and  C_27
    3  A    between atoms: C_2  and  O_22
    4  A    between atoms: N_4  and  C_12
    5  A    between atoms: N_4  and  C_37
    6  A    between atoms: C_6  and  O_22
    7  A    between atoms: C_8  and  C_12
    8  A    between atoms: C_23  and  C_30
                            x       y       z     vdW  Elec       q    Type
                         _______ _______ _______ _____ _____    ______ ____

>  <TORSDO>
F 8

$$$$
=
 OpenBabel11112417283D

 37 42  0  0  1  0  0  0  0  0999 V2000
  190.5550  174.1840  141.3170 C   0  0  1  0  0  3  0  0  0  0  0  0
  189.6730  177.3560  142.2550 O   0  0  0  0  0  0  0  0  0  0  0  0
  192.3000  172.3750  141.8350 C   0  0  2  0  0  3  0  0  0  0  0  0
  190.4400  175.0940  142.5220 C   0  0  2  0  0  3  0  0  0  0  0  0
  192.0360  173.8020  141.3210 C   0  0  2  0  0  3  0  0  0  0  0  0
  189.2330  176.0520  142.5420 C   0  0  2  0  0  3  0  0  0  0  0  0
  191.4960  171.3370  141.0390 C   0  0  0  0  0  2  0  0  0  0  0  0
  192.7060  174.8360  142.2170 C   0  0  0  0  0  2  0  0  0  0  0  0
  188.2740  173.3590  140.9160 N   0  0  0  0  0  2  0  0  0  0  0  0
  190.1160  171.8250  140.5780 C   0  0  0  0  0  2  0  0  0  0  0  0
  189.8400  177.3740  144.6510 O   0  0  0  0  0  0  0  0  0  0  0  0
  189.9080  178.1030  143.4440 C   0  0  1  0  0  3  0  0  0  0  0  0
  189.5920  172.9870  141.4170 C   0  0  1  0  0  3  0  0  0  0  0  0
  191.6990  175.8340  142.5860 N   0  0  2  0  0  0  0  0  0  0  0  0
  188.0340  175.6650  141.6630 C   0  0  1  0  0  3  0  0  0  0  0  0
  191.1420  177.6810  144.2000 C   0  0  2  0  0  3  0  0  0  0  0  0
  191.8680  176.3330  143.9630 C   0  0  2  0  0  3  0  0  0  0  0  0
  187.6160  174.2160  141.8910 C   0  0  0  0  0  2  0  0  0  0  0  0
  186.3850  177.2770  140.8880 C   0  0  0  0  0  3  0  0  0  0  0  0
  186.8760  176.5790  141.9160 C   0  0  0  0  0  0  0  0  0  0  0  0
  186.2940  176.6930  143.3070 C   0  0  0  0  0  2  0  0  0  0  0  0
  184.5930  177.8730  144.4950 O   0  0  0  0  0  0  0  0  0  0  0  0
  184.7000  178.3680  142.2240 N   0  0  0  0  0  0  0  0  0  0  0  0
  185.1550  177.6700  143.3890 C   0  0  0  0  0  0  0  0  0  0  0  0
  185.2540  178.2000  141.0640 C   0  0  0  0  0  3  0  0  0  0  0  0
  193.3520  176.5280  144.3450 C   0  0  0  0  0  2  0  0  0  0  0  0
  193.7960  175.7000  145.4770 N   0  0  0  0  0  0  0  0  0  0  0  0
  195.8240  174.9410  144.3620 C   0  0  0  0  0  1  0  0  0  0  0  0
  195.2530  175.6850  145.5530 C   0  0  0  0  0  2  0  0  0  0  0  0
  193.2780  176.2450  146.7260 C   0  0  0  0  0  2  0  0  0  0  0  0
  192.1380  175.3840  147.2420 C   0  0  0  0  0  2  0  0  0  0  0  0
  191.0700  176.1910  147.6360 O   0  0  0  0  0  1  0  0  0  0  0  0
  191.9900  172.2670  143.2070 O   0  0  0  0  0  0  0  0  0  0  0  0
  193.0110  171.5410  143.8620 C   0  0  0  0  0  0  0  0  0  0  0  0
  192.5930  170.2590  144.1880 F   0  0  0  0  0  0  0  0  0  0  0  0
  194.2750  171.4690  143.0150 C   0  0  0  0  0  1  0  0  0  0  0  0
  193.3540  172.2620  145.1490 C   0  0  0  0  0  1  0  0  0  0  0  0
  1  5  1  0  0  0  0
  1 13  1  0  0  0  0
  1  4  1  0  0  0  0
  2  6  1  0  0  0  0
  2 12  1  0  0  0  0
  3 33  1  0  0  0  0
  4  6  1  0  0  0  0
  4 14  1  0  0  0  0
  5  3  1  0  0  0  0
  5  8  1  0  0  0  0
  7  3  1  0  0  0  0
  8 14  1  0  0  0  0
  9 13  1  0  0  0  0
  9 18  1  0  0  0  0
 10  7  1  0  0  0  0
 10 13  1  0  0  0  0
 12 16  1  0  0  0  0
 12 11  1  0  0  0  0
 14 17  1  0  0  0  0
 15 18  1  0  0  0  0
 15 20  1  0  0  0  0
 15  6  1  0  0  0  0
 16 11  1  0  0  0  0
 17 16  1  0  0  0  0
 17 26  1  0  0  0  0
 19 25  1  0  0  0  0
 19 20  2  0  0  0  0
 20 21  1  0  0  0  0
 21 24  1  0  0  0  0
 23 24  1  0  0  0  0
 24 22  2  0  0  0  0
 25 23  2  0  0  0  0
 26 27  1  0  0  0  0
 27 29  1  0  0  0  0
 27 30  1  0  0  0  0
 28 29  1  0  0  0  0
 30 31  1  0  0  0  0
 31 32  1  0  0  0  0
 33 34  1  0  0  0  0
 34 35  1  0  0  0  0
 34 37  1  0  0  0  0
 36 34  1  0  0  0  0
M  END
>  <MODEL>
7

>  <REMARK>
 VINA RESULT:      -6.5      2.437      5.306
  Name = 
  8 active torsions:
  status: ('A' for Active; 'I' for Inactive)
    1  A    between atoms: C_1  and  N_4
    2  A    between atoms: C_1  and  C_27
    3  A    between atoms: C_2  and  O_22
    4  A    between atoms: N_4  and  C_12
    5  A    between atoms: N_4  and  C_37
    6  A    between atoms: C_6  and  O_22
    7  A    between atoms: C_8  and  C_12
    8  A    between atoms: C_23  and  C_30
                            x       y       z     vdW  Elec       q    Type
                         _______ _______ _______ _____ _____    ______ ____

>  <TORSDO>
F 8

$$$$
=
 OpenBabel11112417283D

 37 42  0  0  1  0  0  0  0  0999 V2000
  190.1680  174.9560  141.9780 C   0  0  1  0  0  3  0  0  0  0  0  0
  189.9430  177.0190  144.7000 O   0  0  0  0  0  0  0  0  0  0  0  0
  191.3990  172.8500  141.1810 C   0  0  2  0  0  3  0  0  0  0  0  0
  190.1470  174.9510  143.4930 C   0  0  2  0  0  3  0  0  0  0  0  0
  191.5160  174.3100  141.6550 C   0  0  2  0  0  3  0  0  0  0  0  0
  189.1930  175.9570  144.1650 C   0  0  2  0  0  3  0  0  0  0  0  0
  190.4610  172.7290  139.9720 C   0  0  0  0  0  2  0  0  0  0  0  0
  192.3140  174.3990  142.9500 C   0  0  0  0  0  2  0  0  0  0  0  0
  187.8090  175.1110  141.3050 N   0  0  0  0  0  2  0  0  0  0  0  0
  189.2780  173.7060  139.9900 C   0  0  0  0  0  2  0  0  0  0  0  0
  189.8800  175.5510  146.6000 O   0  0  0  0  0  0  0  0  0  0  0  0
  190.2260  176.8170  146.0800 C   0  0  1  0  0  3  0  0  0  0  0  0
  188.9540  174.2120  141.3930 C   0  0  1  0  0  3  0  0  0  0  0  0
  191.5290  175.1780  143.9120 N   0  0  2  0  0  0  0  0  0  0  0  0
  188.0280  176.4760  143.3100 C   0  0  1  0  0  3  0  0  0  0  0  0
  191.2540  175.7470  146.3460 C   0  0  2  0  0  3  0  0  0  0  0  0
  191.6750  174.6900  145.2950 C   0  0  2  0  0  3  0  0  0  0  0  0
  187.2720  175.3340  142.6400 C   0  0  0  0  0  2  0  0  0  0  0  0
  186.6830  176.8030  145.3110 C   0  0  0  0  0  3  0  0  0  0  0  0
  187.0880  177.2960  144.1380 C   0  0  0  0  0  0  0  0  0  0  0  0
  186.6220  178.6440  143.6370 C   0  0  0  0  0  2  0  0  0  0  0  0
  185.1880  180.4440  144.2700 O   0  0  0  0  0  0  0  0  0  0  0  0
  185.2960  178.7090  145.8180 N   0  0  0  0  0  0  0  0  0  0  0  0
  185.6650  179.3220  144.5770 C   0  0  0  0  0  0  0  0  0  0  0  0
  185.7540  177.5500  146.1730 C   0  0  0  0  0  3  0  0  0  0  0  0
  193.1210  174.2550  145.6210 C   0  0  0  0  0  2  0  0  0  0  0  0
  194.1370  175.2810  145.3370 N   0  0  0  0  0  0  0  0  0  0  0  0
  194.5680  177.5400  146.1370 C   0  0  0  0  0  1  0  0  0  0  0  0
  194.3910  176.0860  146.5270 C   0  0  0  0  0  2  0  0  0  0  0  0
  195.3870  174.6460  144.9380 C   0  0  0  0  0  2  0  0  0  0  0  0
  195.7860  175.1000  143.5450 C   0  0  0  0  0  2  0  0  0  0  0  0
  196.7270  176.1270  143.6270 O   0  0  0  0  0  1  0  0  0  0  0  0
  190.9430  172.0150  142.2230 O   0  0  0  0  0  0  0  0  0  0  0  0
  191.8380  170.9330  142.3820 C   0  0  0  0  0  0  0  0  0  0  0  0
  192.9420  171.0620  141.5510 F   0  0  0  0  0  0  0  0  0  0  0  0
  192.2970  170.7960  143.8280 C   0  0  0  0  0  1  0  0  0  0  0  0
  191.1140  169.6590  142.0010 C   0  0  0  0  0  1  0  0  0  0  0  0
  1  4  1  0  0  0  0
  2 12  1  0  0  0  0
  3  5  1  0  0  0  0
  3 33  1  0  0  0  0
  4 14  1  0  0  0  0
  4  6  1  0  0  0  0
  5  1  1  0  0  0  0
  5  8  1  0  0  0  0
  6  2  1  0  0  0  0
  7 10  1  0  0  0  0
  7  3  1  0  0  0  0
  8 14  1  0  0  0  0
  9 13  1  0  0  0  0
  9 18  1  0  0  0  0
 10 13  1  0  0  0  0
 12 16  1  0  0  0  0
 12 11  1  0  0  0  0
 13  1  1  0  0  0  0
 14 17  1  0  0  0  0
 15 20  1  0  0  0  0
 15  6  1  0  0  0  0
 16 11  1  0  0  0  0
 17 26  1  0  0  0  0
 17 16  1  0  0  0  0
 18 15  1  0  0  0  0
 19 25  1  0  0  0  0
 20 19  2  0  0  0  0
 21 20  1  0  0  0  0
 21 24  1  0  0  0  0
 22 24  2  0  0  0  0
 23 25  2  0  0  0  0
 24 23  1  0  0  0  0
 27 26  1  0  0  0  0
 27 29  1  0  0  0  0
 28 29  1  0  0  0  0
 30 27  1  0  0  0  0
 31 32  1  0  0  0  0
 31 30  1  0  0  0  0
 33 34  1  0  0  0  0
 34 36  1  0  0  0  0
 35 34  1  0  0  0  0
 37 34  1  0  0  0  0
M  END
>  <MODEL>
8

>  <REMARK>
 VINA RESULT:      -6.2      2.029      5.286
  Name = 
  8 active torsions:
  status: ('A' for Active; 'I' for Inactive)
    1  A    between atoms: C_1  and  N_4
    2  A    between atoms: C_1  and  C_27
    3  A    between atoms: C_2  and  O_22
    4  A    between atoms: N_4  and  C_12
    5  A    between atoms: N_4  and  C_37
    6  A    between atoms: C_6  and  O_22
    7  A    between atoms: C_8  and  C_12
    8  A    between atoms: C_23  and  C_30
                            x       y       z     vdW  Elec       q    Type
                         _______ _______ _______ _____ _____    ______ ____

>  <TORSDO>
F 8

$$$$
=
 OpenBabel11112417283D

 37 42  0  0  1  0  0  0  0  0999 V2000
  191.5470  175.1030  145.2740 C   0  0  1  0  0  3  0  0  0  0  0  0
  188.5480  174.6320  143.6940 O   0  0  0  0  0  0  0  0  0  0  0  0
  194.0670  174.8310  144.8710 C   0  0  2  0  0  3  0  0  0  0  0  0
  190.8610  175.2370  143.9300 C   0  0  2  0  0  3  0  0  0  0  0  0
  192.6940  174.1390  144.9750 C   0  0  2  0  0  3  0  0  0  0  0  0
  189.3980  175.7200  143.9560 C   0  0  2  0  0  3  0  0  0  0  0  0
  194.3820  175.6380  146.1390 C   0  0  0  0  0  2  0  0  0  0  0  0
  192.3180  173.4780  143.6550 C   0  0  0  0  0  2  0  0  0  0  0  0
  190.8960  177.1150  146.5290 N   0  0  0  0  0  2  0  0  0  0  0  0
  193.1560  176.2900  146.7930 C   0  0  0  0  0  2  0  0  0  0  0  0
  188.8750  175.4550  141.4610 O   0  0  0  0  0  0  0  0  0  0  0  0
  188.1910  174.5650  142.3170 C   0  0  1  0  0  3  0  0  0  0  0  0
  191.9950  176.4710  145.8190 C   0  0  1  0  0  3  0  0  0  0  0  0
  190.9700  173.9260  143.2930 N   0  0  2  0  0  0  0  0  0  0  0  0
  188.9490  176.4860  145.2080 C   0  0  1  0  0  3  0  0  0  0  0  0
  189.3100  174.1140  141.4130 C   0  0  2  0  0  3  0  0  0  0  0  0
  190.7990  174.1060  141.8410 C   0  0  2  0  0  3  0  0  0  0  0  0
  189.9240  177.6040  145.5620 C   0  0  0  0  0  2  0  0  0  0  0  0
  186.6510  176.7810  145.9500 C   0  0  0  0  0  3  0  0  0  0  0  0
  187.5730  177.0460  145.0210 C   0  0  0  0  0  0  0  0  0  0  0  0
  187.2590  177.8860  143.8040 C   0  0  0  0  0  2  0  0  0  0  0  0
  185.4320  179.0390  142.7890 O   0  0  0  0  0  0  0  0  0  0  0  0
  184.9160  178.0110  144.8120 N   0  0  0  0  0  0  0  0  0  0  0  0
  185.8290  178.3460  143.7600 C   0  0  0  0  0  0  0  0  0  0  0  0
  185.2770  177.2910  145.8290 C   0  0  0  0  0  3  0  0  0  0  0  0
  191.5160  173.0110  141.0190 C   0  0  0  0  0  2  0  0  0  0  0  0
  192.3650  173.5300  139.9350 N   0  0  0  0  0  0  0  0  0  0  0  0
  194.5550  173.2400  138.9100 C   0  0  0  0  0  1  0  0  0  0  0  0
  193.3800  172.5470  139.5710 C   0  0  0  0  0  2  0  0  0  0  0  0
  191.5530  173.8080  138.7570 C   0  0  0  0  0  2  0  0  0  0  0  0
  190.9600  172.5210  138.2110 C   0  0  0  0  0  2  0  0  0  0  0  0
  189.5920  172.6810  137.9870 O   0  0  0  0  0  1  0  0  0  0  0  0
  194.1230  175.6750  143.7420 O   0  0  0  0  0  0  0  0  0  0  0  0
  195.2210  175.3030  142.9330 C   0  0  0  0  0  0  0  0  0  0  0  0
  194.8020  174.8320  141.6970 F   0  0  0  0  0  0  0  0  0  0  0  0
  196.1900  176.4610  142.7410 C   0  0  0  0  0  1  0  0  0  0  0  0
  195.9650  174.1840  143.6300 C   0  0  0  0  0  1  0  0  0  0  0  0
  1 13  1  0  0  0  0
  2  6  1  0  0  0  0
  3  5  1  0  0  0  0
  3  7  1  0  0  0  0
  4  6  1  0  0  0  0
  4  1  1  0  0  0  0
  5  1  1  0  0  0  0
  6 15  1  0  0  0  0
  7 10  1  0  0  0  0
  8  5  1  0  0  0  0
 11 12  1  0  0  0  0
 12  2  1  0  0  0  0
 13  9  1  0  0  0  0
 13 10  1  0  0  0  0
 14  8  1  0  0  0  0
 14  4  1  0  0  0  0
 15 18  1  0  0  0  0
 16 11  1  0  0  0  0
 16 17  1  0  0  0  0
 16 12  1  0  0  0  0
 17 14  1  0  0  0  0
 18  9  1  0  0  0  0
 20 15  1  0  0  0  0
 20 19  2  0  0  0  0
 21 20  1  0  0  0  0
 22 24  2  0  0  0  0
 23 25  2  0  0  0  0
 24 21  1  0  0  0  0
 24 23  1  0  0  0  0
 25 19  1  0  0  0  0
 26 17  1  0  0  0  0
 27 26  1  0  0  0  0
 28 29  1  0  0  0  0
 29 27  1  0  0  0  0
 30 27  1  0  0  0  0
 31 30  1  0  0  0  0
 32 31  1  0  0  0  0
 33  3  1  0  0  0  0
 34 37  1  0  0  0  0
 34 33  1  0  0  0  0
 35 34  1  0  0  0  0
 36 34  1  0  0  0  0
M  END
>  <MODEL>
9

>  <REMARK>
 VINA RESULT:      -6.2      1.731      2.104
  Name = 
  8 active torsions:
  status: ('A' for Active; 'I' for Inactive)
    1  A    between atoms: C_1  and  N_4
    2  A    between atoms: C_1  and  C_27
    3  A    between atoms: C_2  and  O_22
    4  A    between atoms: N_4  and  C_12
    5  A    between atoms: N_4  and  C_37
    6  A    between atoms: C_6  and  O_22
    7  A    between atoms: C_8  and  C_12
    8  A    between atoms: C_23  and  C_30
                            x       y       z     vdW  Elec       q    Type
                         _______ _______ _______ _____ _____    ______ ____

>  <TORSDO>
F 8

$$$$
