=
 OpenBabel11112416533D

 31 36  0  0  1  0  0  0  0  0999 V2000
  185.3860  178.4040  147.2200 C   0  0  0  0  0  0  0  0  0  0  0  0
  187.6600  175.8680  145.5290 C   0  0  2  0  0  3  0  0  0  0  0  0
  187.6900  176.2280  144.0410 C   0  0  0  0  0  0  0  0  0  0  0  0
  186.3380  176.9430  142.0210 C   0  0  1  0  0  3  0  0  0  0  0  0
  187.1990  177.0010  146.4130 C   0  0  0  0  0  0  0  0  0  0  0  0
  186.2950  179.1550  147.9690 C   0  0  0  0  0  3  0  0  0  0  0  0
  186.6170  177.1540  143.5010 C   0  0  0  0  0  2  0  0  0  0  0  0
  190.0320  176.3550  146.2670 C   0  0  2  0  0  3  0  0  0  0  0  0
  184.0690  178.7190  147.2400 F   0  0  0  0  0  0  0  0  0  0  0  0
  189.7160  174.7830  143.6920 C   0  0  0  0  0  2  0  0  0  0  0  0
  185.4810  177.9420  141.5630 O   0  0  0  0  0  1  0  0  0  0  0  0
  189.5520  177.3490  147.3250 C   0  0  0  0  0  2  0  0  0  0  0  0
  188.9740  175.2560  146.0410 C   0  0  2  0  0  3  0  0  0  0  0  0
  185.8370  177.3300  146.4490 C   0  0  0  0  0  3  0  0  0  0  0  0
  187.6530  177.0200  141.2700 C   0  0  0  0  0  2  0  0  0  0  0  0
  188.1140  177.7550  147.1800 C   0  0  0  0  0  0  0  0  0  0  0  0
  187.6520  178.8230  147.9570 C   0  0  0  0  0  3  0  0  0  0  0  0
  189.4270  174.1760  145.0610 C   0  0  0  0  0  2  0  0  0  0  0  0
  188.6030  175.6670  143.1970 C   0  0  0  0  0  0  0  0  0  0  0  0
  188.5420  175.8580  141.6990 C   0  0  0  0  0  2  0  0  0  0  0  0
  192.3040  176.8300  146.8080 O   0  0  0  0  0  0  0  0  0  0  0  0
  192.4100  175.9760  145.6960 C   0  0  2  0  0  3  0  0  0  0  0  0
  191.3670  175.7820  146.7300 C   0  0  2  0  0  3  0  0  0  0  0  0
  195.4800  175.5670  143.6940 C   0  0  1  0  0  3  0  0  0  0  0  0
  194.8780  175.8580  146.1200 C   0  0  0  0  0  2  0  0  0  0  0  0
  192.6440  173.2120  144.5530 N   0  0  0  0  0  1  0  0  0  0  0  0
  195.8410  176.3030  142.4220 C   0  0  0  0  0  1  0  0  0  0  0  0
  195.2920  176.5700  144.8300 C   0  0  0  0  0  2  0  0  0  0  0  0
  193.8150  174.0460  144.7630 C   0  0  2  0  0  3  0  0  0  0  0  0
  193.5990  175.0390  145.9150 C   0  0  2  0  0  3  0  0  0  0  0  0
  194.2010  174.7640  143.4710 C   0  0  0  0  0  2  0  0  0  0  0  0
  1  9  1  0  0  0  0
  1  6  1  0  0  0  0
  2  3  1  6  0  0  0
  2 13  1  0  0  0  0
  2  5  1  0  0  0  0
  4 11  1  6  0  0  0
  4  7  1  0  0  0  0
  5 14  1  0  0  0  0
  5 16  2  0  0  0  0
  7  3  1  0  0  0  0
  8 23  1  0  0  0  0
  8 12  1  1  0  0  0
 10 18  1  0  0  0  0
 13 18  1  6  0  0  0
 13  8  1  0  0  0  0
 14  1  2  0  0  0  0
 15 20  1  0  0  0  0
 15  4  1  0  0  0  0
 16 12  1  0  0  0  0
 16 17  1  0  0  0  0
 17  6  2  0  0  0  0
 19 10  1  0  0  0  0
 19  3  2  0  0  0  0
 20 19  1  0  0  0  0
 22 30  1  0  0  0  0
 22 23  1  0  0  0  0
 22 21  1  1  0  0  0
 23 21  1  1  0  0  0
 24 27  1  6  0  0  0
 24 28  1  0  0  0  0
 28 25  1  0  0  0  0
 29 26  1  6  0  0  0
 29 30  1  0  0  0  0
 30 25  1  6  0  0  0
 31 24  1  0  0  0  0
 31 29  1  0  0  0  0
M  END
>  <MODEL>
1

>  <REMARK>
 VINA RESULT:      -8.6      0.000      0.000
  Name = 
  2 active torsions:
  status: ('A' for Active; 'I' for Inactive)
    1  A    between atoms: C_5  and  C_30
    2  A    between atoms: C_10  and  C_16
                            x       y       z     vdW  Elec       q    Type
                         _______ _______ _______ _____ _____    ______ ____

>  <TORSDO>
F 2

$$$$
=
 OpenBabel11112416533D

 31 36  0  0  1  0  0  0  0  0999 V2000
  185.8550  177.3630  142.7130 C   0  0  0  0  0  0  0  0  0  0  0  0
  188.3800  174.5530  143.1420 C   0  0  2  0  0  3  0  0  0  0  0  0
  188.9450  174.2530  141.7510 C   0  0  0  0  0  0  0  0  0  0  0  0
  188.4260  173.9340  139.2920 C   0  0  1  0  0  3  0  0  0  0  0  0
  187.7270  175.9100  143.2470 C   0  0  0  0  0  0  0  0  0  0  0  0
  186.5030  178.4340  143.3330 C   0  0  0  0  0  3  0  0  0  0  0  0
  188.1940  174.7720  140.5400 C   0  0  0  0  0  2  0  0  0  0  0  0
  190.3830  175.5030  144.3640 C   0  0  2  0  0  3  0  0  0  0  0  0
  184.6380  177.5450  142.1460 F   0  0  0  0  0  0  0  0  0  0  0  0
  190.8570  172.9720  142.7610 C   0  0  0  0  0  2  0  0  0  0  0  0
  187.8530  174.5710  138.1920 O   0  0  0  0  0  1  0  0  0  0  0  0
  189.6420  176.8060  144.6670 C   0  0  0  0  0  2  0  0  0  0  0  0
  189.3900  174.3270  144.2790 C   0  0  2  0  0  3  0  0  0  0  0  0
  186.4630  176.1070  142.6730 C   0  0  0  0  0  3  0  0  0  0  0  0
  189.9200  173.7980  139.0770 C   0  0  0  0  0  2  0  0  0  0  0  0
  188.3750  176.9910  143.8830 C   0  0  0  0  0  0  0  0  0  0  0  0
  187.7530  178.2430  143.9250 C   0  0  0  0  0  3  0  0  0  0  0  0
  190.0720  172.9760  144.0680 C   0  0  0  0  0  2  0  0  0  0  0  0
  190.0500  173.4680  141.5910 C   0  0  0  0  0  0  0  0  0  0  0  0
  190.5210  173.0040  140.2320 C   0  0  0  0  0  2  0  0  0  0  0  0
  192.3060  176.3970  145.4500 O   0  0  0  0  0  0  0  0  0  0  0  0
  192.7890  175.2140  144.8630 C   0  0  2  0  0  3  0  0  0  0  0  0
  191.4320  175.2940  145.4500 C   0  0  2  0  0  3  0  0  0  0  0  0
  196.3760  174.4880  144.4090 C   0  0  1  0  0  3  0  0  0  0  0  0
  194.9090  175.5460  146.1590 C   0  0  0  0  0  2  0  0  0  0  0  0
  193.3650  172.2730  144.9970 N   0  0  0  0  0  1  0  0  0  0  0  0
  197.2110  174.7640  143.1770 C   0  0  0  0  0  1  0  0  0  0  0  0
  195.8000  175.7990  144.9390 C   0  0  0  0  0  2  0  0  0  0  0  0
  194.3910  173.2590  145.2890 C   0  0  2  0  0  3  0  0  0  0  0  0
  193.7820  174.5630  145.8270 C   0  0  2  0  0  3  0  0  0  0  0  0
  195.2560  173.5130  144.0560 C   0  0  0  0  0  2  0  0  0  0  0  0
  1  6  1  0  0  0  0
  2  3  1  6  0  0  0
  2  5  1  0  0  0  0
  2 13  1  0  0  0  0
  4 11  1  6  0  0  0
  4  7  1  0  0  0  0
  5 16  2  0  0  0  0
  6 17  2  0  0  0  0
  7  3  1  0  0  0  0
  8 12  1  1  0  0  0
  8 23  1  0  0  0  0
  9  1  1  0  0  0  0
 10 18  1  0  0  0  0
 13 18  1  6  0  0  0
 13  8  1  0  0  0  0
 14  1  2  0  0  0  0
 14  5  1  0  0  0  0
 15  4  1  0  0  0  0
 15 20  1  0  0  0  0
 16 17  1  0  0  0  0
 16 12  1  0  0  0  0
 19  3  2  0  0  0  0
 19 10  1  0  0  0  0
 20 19  1  0  0  0  0
 22 21  1  1  0  0  0
 22 23  1  0  0  0  0
 22 30  1  0  0  0  0
 23 21  1  1  0  0  0
 24 27  1  6  0  0  0
 24 28  1  0  0  0  0
 28 25  1  0  0  0  0
 29 26  1  6  0  0  0
 29 30  1  0  0  0  0
 30 25  1  6  0  0  0
 31 24  1  0  0  0  0
 31 29  1  0  0  0  0
M  END
>  <MODEL>
2

>  <REMARK>
 VINA RESULT:      -7.7      2.450      3.110
  Name = 
  2 active torsions:
  status: ('A' for Active; 'I' for Inactive)
    1  A    between atoms: C_5  and  C_30
    2  A    between atoms: C_10  and  C_16
                            x       y       z     vdW  Elec       q    Type
                         _______ _______ _______ _____ _____    ______ ____

>  <TORSDO>
F 2

$$$$
=
 OpenBabel11112416533D

 31 36  0  0  1  0  0  0  0  0999 V2000
  188.2200  175.6570  141.4520 C   0  0  0  0  0  0  0  0  0  0  0  0
  191.3630  176.1340  143.5390 C   0  0  2  0  0  3  0  0  0  0  0  0
  190.9900  175.7850  144.9820 C   0  0  0  0  0  0  0  0  0  0  0  0
  189.2650  176.0140  146.8240 C   0  0  1  0  0  3  0  0  0  0  0  0
  190.4030  175.5760  142.5170 C   0  0  0  0  0  0  0  0  0  0  0  0
  188.5420  174.5270  140.6970 C   0  0  0  0  0  3  0  0  0  0  0  0
  189.5200  175.7240  145.3520 C   0  0  0  0  0  2  0  0  0  0  0  0
  192.9800  174.2870  142.9200 C   0  0  2  0  0  3  0  0  0  0  0  0
  187.0070  176.2430  141.3110 F   0  0  0  0  0  0  0  0  0  0  0  0
  193.4170  175.6180  145.6110 C   0  0  0  0  0  2  0  0  0  0  0  0
  187.9260  175.7630  147.1200 O   0  0  0  0  0  1  0  0  0  0  0  0
  192.1110  173.8550  141.7380 C   0  0  0  0  0  2  0  0  0  0  0  0
  192.8210  175.7980  143.1810 C   0  0  2  0  0  3  0  0  0  0  0  0
  189.1480  176.1800  142.3550 C   0  0  0  0  0  3  0  0  0  0  0  0
  190.1470  175.1000  147.6510 C   0  0  0  0  0  2  0  0  0  0  0  0
  190.7290  174.4400  141.7430 C   0  0  0  0  0  0  0  0  0  0  0  0
  189.7960  173.9290  140.8340 C   0  0  0  0  0  3  0  0  0  0  0  0
  193.7300  176.3180  144.2930 C   0  0  0  0  0  2  0  0  0  0  0  0
  191.9480  175.6160  145.9380 C   0  0  0  0  0  0  0  0  0  0  0  0
  191.6080  175.4560  147.4020 C   0  0  0  0  0  2  0  0  0  0  0  0
  194.4640  172.5410  142.2660 O   0  0  0  0  0  0  0  0  0  0  0  0
  194.9120  172.8770  143.5560 C   0  0  2  0  0  3  0  0  0  0  0  0
  194.4230  173.9060  142.6090 C   0  0  2  0  0  3  0  0  0  0  0  0
  197.1470  170.7180  145.5410 C   0  0  1  0  0  3  0  0  0  0  0  0
  196.9050  171.4170  143.1360 C   0  0  0  0  0  2  0  0  0  0  0  0
  196.6740  174.4700  145.3880 N   0  0  0  0  0  1  0  0  0  0  0  0
  196.7370  169.6820  146.5650 C   0  0  0  0  0  1  0  0  0  0  0  0
  196.5480  170.3590  144.1830 C   0  0  0  0  0  2  0  0  0  0  0  0
  197.0500  173.1390  144.9440 C   0  0  2  0  0  3  0  0  0  0  0  0
  196.4400  172.8100  143.5730 C   0  0  2  0  0  3  0  0  0  0  0  0
  196.6680  172.0950  145.9920 C   0  0  0  0  0  2  0  0  0  0  0  0
  1 14  1  0  0  0  0
  2  5  1  6  0  0  0
  2  3  1  0  0  0  0
  3  7  1  0  0  0  0
  3 19  2  0  0  0  0
  4 11  1  1  0  0  0
  4 15  1  0  0  0  0
  6 17  1  0  0  0  0
  6  1  2  0  0  0  0
  7  4  1  0  0  0  0
  8 12  1  6  0  0  0
  8 13  1  0  0  0  0
  9  1  1  0  0  0  0
 10 19  1  0  0  0  0
 12 16  1  0  0  0  0
 13  2  1  0  0  0  0
 13 18  1  1  0  0  0
 14  5  2  0  0  0  0
 16  5  1  0  0  0  0
 17 16  2  0  0  0  0
 18 10  1  0  0  0  0
 19 20  1  0  0  0  0
 20 15  1  0  0  0  0
 22 21  1  6  0  0  0
 22 30  1  0  0  0  0
 23 21  1  6  0  0  0
 23  8  1  0  0  0  0
 23 22  1  0  0  0  0
 24 31  1  0  0  0  0
 24 27  1  1  0  0  0
 25 28  1  0  0  0  0
 28 24  1  0  0  0  0
 29 26  1  1  0  0  0
 29 31  1  0  0  0  0
 30 25  1  1  0  0  0
 30 29  1  0  0  0  0
M  END
>  <MODEL>
3

>  <REMARK>
 VINA RESULT:      -7.5      3.165      5.837
  Name = 
  2 active torsions:
  status: ('A' for Active; 'I' for Inactive)
    1  A    between atoms: C_5  and  C_30
    2  A    between atoms: C_10  and  C_16
                            x       y       z     vdW  Elec       q    Type
                         _______ _______ _______ _____ _____    ______ ____

>  <TORSDO>
F 2

$$$$
=
 OpenBabel11112416533D

 31 36  0  0  1  0  0  0  0  0999 V2000
  187.0650  177.3580  140.7350 C   0  0  0  0  0  0  0  0  0  0  0  0
  188.2460  177.8420  144.3170 C   0  0  2  0  0  3  0  0  0  0  0  0
  186.9890  177.9230  145.1880 C   0  0  0  0  0  0  0  0  0  0  0  0
  184.6490  178.8670  145.4220 C   0  0  1  0  0  3  0  0  0  0  0  0
  188.0050  177.2040  142.9700 C   0  0  0  0  0  0  0  0  0  0  0  0
  187.4490  176.0410  140.4780 C   0  0  0  0  0  3  0  0  0  0  0  0
  185.6580  178.1860  144.5090 C   0  0  0  0  0  2  0  0  0  0  0  0
  189.3050  175.6700  145.0730 C   0  0  2  0  0  3  0  0  0  0  0  0
  186.4170  178.0720  139.7840 F   0  0  0  0  0  0  0  0  0  0  0  0
  188.3530  177.5410  147.2630 C   0  0  0  0  0  2  0  0  0  0  0  0
  183.4070  178.9090  144.7900 O   0  0  0  0  0  1  0  0  0  0  0  0
  189.2650  175.0990  143.6550 C   0  0  0  0  0  2  0  0  0  0  0  0
  189.4500  177.2040  145.0320 C   0  0  2  0  0  3  0  0  0  0  0  0
  187.3440  177.9370  141.9750 C   0  0  0  0  0  3  0  0  0  0  0  0
  184.5400  178.0610  146.7010 C   0  0  0  0  0  2  0  0  0  0  0  0
  188.4030  175.8760  142.7030 C   0  0  0  0  0  0  0  0  0  0  0  0
  188.1260  175.3070  141.4550 C   0  0  0  0  0  3  0  0  0  0  0  0
  189.5870  177.8340  146.4160 C   0  0  0  0  0  2  0  0  0  0  0  0
  187.0650  177.8490  146.5480 C   0  0  0  0  0  0  0  0  0  0  0  0
  185.8730  178.1110  147.4390 C   0  0  0  0  0  2  0  0  0  0  0  0
  191.5470  175.8940  145.8510 O   0  0  0  0  0  0  0  0  0  0  0  0
  191.6300  174.8350  144.9290 C   0  0  2  0  0  3  0  0  0  0  0  0
  190.4570  175.0030  145.8170 C   0  0  2  0  0  3  0  0  0  0  0  0
  194.8350  173.6530  143.5390 C   0  0  1  0  0  3  0  0  0  0  0  0
  193.9610  174.4410  145.7630 C   0  0  0  0  0  2  0  0  0  0  0  0
  191.5540  171.9110  144.2630 N   0  0  0  0  0  1  0  0  0  0  0  0
  195.4850  174.0990  142.2470 C   0  0  0  0  0  1  0  0  0  0  0  0
  194.6630  174.8540  144.4660 C   0  0  0  0  0  2  0  0  0  0  0  0
  192.8070  172.5920  144.5350 C   0  0  2  0  0  3  0  0  0  0  0  0
  192.6040  173.7900  145.4760 C   0  0  2  0  0  3  0  0  0  0  0  0
  193.4830  173.0140  143.2310 C   0  0  0  0  0  2  0  0  0  0  0  0
  1 14  1  0  0  0  0
  2  5  1  6  0  0  0
  2 13  1  0  0  0  0
  2  3  1  0  0  0  0
  3 19  2  0  0  0  0
  4 11  1  6  0  0  0
  4 15  1  0  0  0  0
  6  1  2  0  0  0  0
  6 17  1  0  0  0  0
  7  3  1  0  0  0  0
  7  4  1  0  0  0  0
  8 12  1  6  0  0  0
  8 23  1  0  0  0  0
  9  1  1  0  0  0  0
 13  8  1  0  0  0  0
 13 18  1  1  0  0  0
 14  5  2  0  0  0  0
 15 20  1  0  0  0  0
 16  5  1  0  0  0  0
 16 12  1  0  0  0  0
 17 16  2  0  0  0  0
 18 10  1  0  0  0  0
 19 10  1  0  0  0  0
 19 20  1  0  0  0  0
 22 30  1  0  0  0  0
 22 23  1  0  0  0  0
 22 21  1  1  0  0  0
 23 21  1  1  0  0  0
 24 27  1  6  0  0  0
 24 28  1  0  0  0  0
 28 25  1  0  0  0  0
 29 26  1  6  0  0  0
 29 30  1  0  0  0  0
 30 25  1  6  0  0  0
 31 24  1  0  0  0  0
 31 29  1  0  0  0  0
M  END
>  <MODEL>
4

>  <REMARK>
 VINA RESULT:      -7.4      2.045      4.166
  Name = 
  2 active torsions:
  status: ('A' for Active; 'I' for Inactive)
    1  A    between atoms: C_5  and  C_30
    2  A    between atoms: C_10  and  C_16
                            x       y       z     vdW  Elec       q    Type
                         _______ _______ _______ _____ _____    ______ ____

>  <TORSDO>
F 2

$$$$
=
 OpenBabel11112416533D

 31 36  0  0  1  0  0  0  0  0999 V2000
  185.5150  178.2850  141.1360 C   0  0  0  0  0  0  0  0  0  0  0  0
  188.3270  178.1930  143.6940 C   0  0  2  0  0  3  0  0  0  0  0  0
  187.7420  177.5810  144.9690 C   0  0  0  0  0  0  0  0  0  0  0  0
  185.7710  177.5170  146.5600 C   0  0  1  0  0  3  0  0  0  0  0  0
  187.5170  177.8930  142.4560 C   0  0  0  0  0  0  0  0  0  0  0  0
  185.9250  177.3150  140.2190 C   0  0  0  0  0  3  0  0  0  0  0  0
  186.2340  177.5140  145.1110 C   0  0  0  0  0  2  0  0  0  0  0  0
  189.9870  176.4340  142.9440 C   0  0  2  0  0  3  0  0  0  0  0  0
  184.3460  178.9420  140.9500 F   0  0  0  0  0  0  0  0  0  0  0  0
  190.0480  177.1810  145.8830 C   0  0  0  0  0  2  0  0  0  0  0  0
  184.3990  177.2730  146.6090 O   0  0  0  0  0  1  0  0  0  0  0  0
  189.2930  176.2860  141.5890 C   0  0  0  0  0  2  0  0  0  0  0  0
  189.8160  177.8680  143.4820 C   0  0  2  0  0  3  0  0  0  0  0  0
  186.3100  178.5750  142.2480 C   0  0  0  0  0  3  0  0  0  0  0  0
  186.5070  176.4170  147.2990 C   0  0  0  0  0  2  0  0  0  0  0  0
  187.9350  176.9210  141.5210 C   0  0  0  0  0  0  0  0  0  0  0  0
  187.1360  176.6450  140.4060 C   0  0  0  0  0  3  0  0  0  0  0  0
  190.5620  178.1140  144.7920 C   0  0  0  0  0  2  0  0  0  0  0  0
  188.5480  177.1810  145.9950 C   0  0  0  0  0  0  0  0  0  0  0  0
  187.9950  176.7480  147.3340 C   0  0  0  0  0  2  0  0  0  0  0  0
  191.5250  174.8750  142.0030 O   0  0  0  0  0  0  0  0  0  0  0  0
  191.7380  174.7420  143.3870 C   0  0  2  0  0  3  0  0  0  0  0  0
  191.4530  176.0560  142.7660 C   0  0  2  0  0  3  0  0  0  0  0  0
  193.6210  171.6570  144.1180 C   0  0  1  0  0  3  0  0  0  0  0  0
  193.8240  173.6240  142.5610 C   0  0  0  0  0  2  0  0  0  0  0  0
  193.0590  174.8450  146.0790 N   0  0  0  0  0  1  0  0  0  0  0  0
  193.0570  170.2610  144.2630 C   0  0  0  0  0  1  0  0  0  0  0  0
  193.3070  172.1920  142.7220 C   0  0  0  0  0  2  0  0  0  0  0  0
  193.5590  173.9820  145.0230 C   0  0  2  0  0  3  0  0  0  0  0  0
  193.2350  174.5490  143.6320 C   0  0  2  0  0  3  0  0  0  0  0  0
  193.0180  172.5630  145.1880 C   0  0  0  0  0  2  0  0  0  0  0  0
  1 14  1  0  0  0  0
  2  5  1  6  0  0  0
  2  3  1  0  0  0  0
  3  7  1  0  0  0  0
  3 19  2  0  0  0  0
  4 11  1  6  0  0  0
  4 15  1  0  0  0  0
  6 17  1  0  0  0  0
  6  1  2  0  0  0  0
  7  4  1  0  0  0  0
  8 12  1  6  0  0  0
  8 13  1  0  0  0  0
  9  1  1  0  0  0  0
 10 19  1  0  0  0  0
 13  2  1  0  0  0  0
 13 18  1  1  0  0  0
 14  5  2  0  0  0  0
 15 20  1  0  0  0  0
 16 12  1  0  0  0  0
 16  5  1  0  0  0  0
 17 16  2  0  0  0  0
 18 10  1  0  0  0  0
 19 20  1  0  0  0  0
 22 21  1  6  0  0  0
 22 30  1  0  0  0  0
 23 21  1  6  0  0  0
 23  8  1  0  0  0  0
 23 22  1  0  0  0  0
 24 27  1  6  0  0  0
 24 31  1  0  0  0  0
 25 28  1  0  0  0  0
 28 24  1  0  0  0  0
 29 31  1  0  0  0  0
 29 26  1  1  0  0  0
 30 25  1  6  0  0  0
 30 29  1  0  0  0  0
M  END
>  <MODEL>
5

>  <REMARK>
 VINA RESULT:      -7.3      2.493      4.703
  Name = 
  2 active torsions:
  status: ('A' for Active; 'I' for Inactive)
    1  A    between atoms: C_5  and  C_30
    2  A    between atoms: C_10  and  C_16
                            x       y       z     vdW  Elec       q    Type
                         _______ _______ _______ _____ _____    ______ ____

>  <TORSDO>
F 2

$$$$
=
 OpenBabel11112416533D

 31 36  0  0  1  0  0  0  0  0999 V2000
  191.6150  176.3030  147.1760 C   0  0  0  0  0  0  0  0  0  0  0  0
  189.5500  174.5640  144.4980 C   0  0  2  0  0  3  0  0  0  0  0  0
  188.5430  175.5950  143.9800 C   0  0  0  0  0  0  0  0  0  0  0  0
  186.9130  177.4350  144.5910 C   0  0  1  0  0  3  0  0  0  0  0  0
  190.7290  175.1800  145.2120 C   0  0  0  0  0  0  0  0  0  0  0  0
  192.8610  176.4150  146.5540 C   0  0  0  0  0  3  0  0  0  0  0  0
  188.2960  176.8410  144.8090 C   0  0  0  0  0  2  0  0  0  0  0  0
  191.0510  174.1970  142.4920 C   0  0  2  0  0  3  0  0  0  0  0  0
  191.4340  176.7960  148.4240 F   0  0  0  0  0  0  0  0  0  0  0  0
  188.0640  174.1730  141.9640 C   0  0  0  0  0  2  0  0  0  0  0  0
  186.8280  178.6640  145.2430 O   0  0  0  0  0  1  0  0  0  0  0  0
  192.2920  174.6120  143.2830 C   0  0  0  0  0  2  0  0  0  0  0  0
  190.0050  173.5570  143.4280 C   0  0  2  0  0  3  0  0  0  0  0  0
  190.5550  175.6840  146.5080 C   0  0  0  0  0  3  0  0  0  0  0  0
  186.7070  177.6360  143.1030 C   0  0  0  0  0  2  0  0  0  0  0  0
  191.9930  175.2850  144.5900 C   0  0  0  0  0  0  0  0  0  0  0  0
  193.0500  175.8980  145.2710 C   0  0  0  0  0  3  0  0  0  0  0  0
  188.7740  173.0360  142.6900 C   0  0  0  0  0  2  0  0  0  0  0  0
  187.8190  175.3680  142.8460 C   0  0  0  0  0  0  0  0  0  0  0  0
  186.6910  176.2760  142.4130 C   0  0  0  0  0  2  0  0  0  0  0  0
  192.4230  173.9090  140.5650 O   0  0  0  0  0  0  0  0  0  0  0  0
  191.1200  173.7740  140.0550 C   0  0  2  0  0  3  0  0  0  0  0  0
  191.4930  173.2440  141.3860 C   0  0  2  0  0  3  0  0  0  0  0  0
  190.6540  174.0310  136.4060 C   0  0  1  0  0  3  0  0  0  0  0  0
  192.2600  172.9210  137.9920 C   0  0  0  0  0  2  0  0  0  0  0  0
  188.6900  172.2790  139.1250 N   0  0  0  0  0  1  0  0  0  0  0  0
  190.3880  175.2910  135.6100 C   0  0  0  0  0  1  0  0  0  0  0  0
  191.9870  174.1620  137.1380 C   0  0  0  0  0  2  0  0  0  0  0  0
  189.7970  172.5570  138.2270 C   0  0  2  0  0  3  0  0  0  0  0  0
  191.1250  172.6740  138.9910 C   0  0  2  0  0  3  0  0  0  0  0  0
  189.5160  173.8080  137.3980 C   0  0  0  0  0  2  0  0  0  0  0  0
  1  9  1  0  0  0  0
  2  3  1  6  0  0  0
  2  5  1  0  0  0  0
  3  7  1  0  0  0  0
  4  7  1  0  0  0  0
  4 11  1  1  0  0  0
  5 14  1  0  0  0  0
  6  1  1  0  0  0  0
  8 12  1  1  0  0  0
  8 13  1  0  0  0  0
 10 18  1  0  0  0  0
 10 19  1  0  0  0  0
 12 16  1  0  0  0  0
 13 18  1  6  0  0  0
 13  2  1  0  0  0  0
 14  1  2  0  0  0  0
 15  4  1  0  0  0  0
 16  5  2  0  0  0  0
 16 17  1  0  0  0  0
 17  6  2  0  0  0  0
 19  3  2  0  0  0  0
 20 19  1  0  0  0  0
 20 15  1  0  0  0  0
 22 21  1  6  0  0  0
 22 23  1  0  0  0  0
 23 21  1  6  0  0  0
 23  8  1  0  0  0  0
 24 27  1  1  0  0  0
 24 28  1  0  0  0  0
 24 31  1  0  0  0  0
 28 25  1  0  0  0  0
 29 30  1  0  0  0  0
 29 26  1  1  0  0  0
 30 25  1  6  0  0  0
 30 22  1  0  0  0  0
 31 29  1  0  0  0  0
M  END
>  <MODEL>
6

>  <REMARK>
 VINA RESULT:      -7.2      3.785      5.823
  Name = 
  2 active torsions:
  status: ('A' for Active; 'I' for Inactive)
    1  A    between atoms: C_5  and  C_30
    2  A    between atoms: C_10  and  C_16
                            x       y       z     vdW  Elec       q    Type
                         _______ _______ _______ _____ _____    ______ ____

>  <TORSDO>
F 2

$$$$
=
 OpenBabel11112416533D

 31 36  0  0  1  0  0  0  0  0999 V2000
  186.8000  178.1190  144.4530 C   0  0  0  0  0  0  0  0  0  0  0  0
  190.1740  176.6170  143.5470 C   0  0  2  0  0  3  0  0  0  0  0  0
  190.8300  176.1840  144.8610 C   0  0  0  0  0  0  0  0  0  0  0  0
  191.3130  176.7920  147.2720 C   0  0  1  0  0  3  0  0  0  0  0  0
  188.6800  176.8030  143.6530 C   0  0  0  0  0  0  0  0  0  0  0  0
  185.9130  177.1600  143.9590 C   0  0  0  0  0  3  0  0  0  0  0  0
  190.2770  176.7380  146.1590 C   0  0  0  0  0  2  0  0  0  0  0  0
  189.7420  174.4080  142.3870 C   0  0  2  0  0  3  0  0  0  0  0  0
  186.3250  179.2180  145.0870 F   0  0  0  0  0  0  0  0  0  0  0  0
  192.4930  174.7730  143.6110 C   0  0  0  0  0  2  0  0  0  0  0  0
  190.6900  177.1390  148.4700 O   0  0  0  0  0  1  0  0  0  0  0  0
  188.2430  174.6940  142.2930 C   0  0  0  0  0  2  0  0  0  0  0  0
  190.5440  175.7240  142.3500 C   0  0  2  0  0  3  0  0  0  0  0  0
  188.1770  177.9420  144.2970 C   0  0  0  0  0  3  0  0  0  0  0  0
  191.9430  175.4200  147.4070 C   0  0  0  0  0  2  0  0  0  0  0  0
  187.7800  175.8410  143.1440 C   0  0  0  0  0  0  0  0  0  0  0  0
  186.4030  176.0320  143.2970 C   0  0  0  0  0  3  0  0  0  0  0  0
  192.0560  175.5090  142.3490 C   0  0  0  0  0  2  0  0  0  0  0  0
  191.9380  175.3880  144.8680 C   0  0  0  0  0  0  0  0  0  0  0  0
  192.7140  175.0960  146.1320 C   0  0  0  0  0  2  0  0  0  0  0  0
  189.3090  172.3230  141.3180 O   0  0  0  0  0  0  0  0  0  0  0  0
  190.6370  172.1880  141.7600 C   0  0  2  0  0  3  0  0  0  0  0  0
  190.1160  173.4740  141.2410 C   0  0  2  0  0  3  0  0  0  0  0  0
  192.5140  169.0250  142.0270 C   0  0  1  0  0  3  0  0  0  0  0  0
  190.8180  170.0450  140.4730 C   0  0  0  0  0  2  0  0  0  0  0  0
  193.5620  172.5690  141.2120 N   0  0  0  0  0  1  0  0  0  0  0  0
  192.6880  168.1730  143.2660 C   0  0  0  0  0  1  0  0  0  0  0  0
  191.0290  169.1460  141.6940 C   0  0  0  0  0  2  0  0  0  0  0  0
  192.9210  171.2780  141.0340 C   0  0  2  0  0  3  0  0  0  0  0  0
  191.4300  171.4320  140.6930 C   0  0  2  0  0  3  0  0  0  0  0  0
  193.1240  170.4030  142.2700 C   0  0  0  0  0  2  0  0  0  0  0  0
  1  9  1  0  0  0  0
  2  5  1  1  0  0  0
  2  3  1  0  0  0  0
  3 19  2  0  0  0  0
  3  7  1  0  0  0  0
  4 15  1  0  0  0  0
  4 11  1  1  0  0  0
  5 14  2  0  0  0  0
  6  1  2  0  0  0  0
  7  4  1  0  0  0  0
  8 12  1  6  0  0  0
 10 19  1  0  0  0  0
 12 16  1  0  0  0  0
 13 18  1  1  0  0  0
 13  8  1  0  0  0  0
 13  2  1  0  0  0  0
 14  1  1  0  0  0  0
 16 17  2  0  0  0  0
 16  5  1  0  0  0  0
 17  6  1  0  0  0  0
 18 10  1  0  0  0  0
 19 20  1  0  0  0  0
 20 15  1  0  0  0  0
 22 21  1  6  0  0  0
 23 21  1  1  0  0  0
 23 22  1  0  0  0  0
 23  8  1  0  0  0  0
 24 31  1  0  0  0  0
 24 27  1  1  0  0  0
 25 28  1  0  0  0  0
 28 24  1  0  0  0  0
 29 26  1  1  0  0  0
 29 31  1  0  0  0  0
 30 25  1  1  0  0  0
 30 29  1  0  0  0  0
 30 22  1  0  0  0  0
M  END
>  <MODEL>
7

>  <REMARK>
 VINA RESULT:      -7.1      3.295      5.713
  Name = 
  2 active torsions:
  status: ('A' for Active; 'I' for Inactive)
    1  A    between atoms: C_5  and  C_30
    2  A    between atoms: C_10  and  C_16
                            x       y       z     vdW  Elec       q    Type
                         _______ _______ _______ _____ _____    ______ ____

>  <TORSDO>
F 2

$$$$
=
 OpenBabel11112416533D

 31 36  0  0  1  0  0  0  0  0999 V2000
  194.2780  170.0320  144.5920 C   0  0  0  0  0  0  0  0  0  0  0  0
  193.9890  173.6840  145.6090 C   0  0  2  0  0  3  0  0  0  0  0  0
  194.8860  174.4790  144.6550 C   0  0  0  0  0  0  0  0  0  0  0  0
  197.1200  174.5840  143.4660 C   0  0  1  0  0  3  0  0  0  0  0  0
  193.6180  172.3170  145.0880 C   0  0  0  0  0  0  0  0  0  0  0  0
  193.0150  169.7800  144.0510 C   0  0  0  0  0  3  0  0  0  0  0  0
  195.9240  173.7250  143.8460 C   0  0  0  0  0  2  0  0  0  0  0  0
  191.6680  174.4740  144.9770 C   0  0  2  0  0  3  0  0  0  0  0  0
  195.2140  169.0530  144.6100 F   0  0  0  0  0  0  0  0  0  0  0  0
  193.7740  176.6270  145.3360 C   0  0  0  0  0  2  0  0  0  0  0  0
  197.9340  173.8800  142.5800 O   0  0  0  0  0  1  0  0  0  0  0  0
  191.2170  173.0480  144.6560 C   0  0  0  0  0  2  0  0  0  0  0  0
  192.7470  174.4620  146.0780 C   0  0  2  0  0  3  0  0  0  0  0  0
  194.5760  171.2940  145.1110 C   0  0  0  0  0  3  0  0  0  0  0  0
  196.6110  175.8430  142.7930 C   0  0  0  0  0  2  0  0  0  0  0  0
  192.3380  172.0560  144.5500 C   0  0  0  0  0  0  0  0  0  0  0  0
  192.0470  170.7860  144.0410 C   0  0  0  0  0  3  0  0  0  0  0  0
  193.1810  175.8600  146.5130 C   0  0  0  0  0  2  0  0  0  0  0  0
  194.8190  175.8400  144.5920 C   0  0  0  0  0  0  0  0  0  0  0  0
  195.8120  176.6610  143.8030 C   0  0  0  0  0  2  0  0  0  0  0  0
  189.2880  174.5870  144.9570 O   0  0  0  0  0  0  0  0  0  0  0  0
  189.6690  175.7050  144.1940 C   0  0  2  0  0  3  0  0  0  0  0  0
  190.4380  175.2770  145.3850 C   0  0  2  0  0  3  0  0  0  0  0  0
  187.3030  177.4980  142.0060 C   0  0  1  0  0  3  0  0  0  0  0  0
  187.2730  176.4330  144.2860 C   0  0  0  0  0  2  0  0  0  0  0  0
  190.3680  178.6110  143.9280 N   0  0  0  0  0  1  0  0  0  0  0  0
  187.0610  177.2510  140.5330 C   0  0  0  0  0  1  0  0  0  0  0  0
  186.9900  176.2290  142.7950 C   0  0  0  0  0  2  0  0  0  0  0  0
  189.0130  178.1350  143.7090 C   0  0  2  0  0  3  0  0  0  0  0  0
  188.7250  176.8630  144.5210 C   0  0  2  0  0  3  0  0  0  0  0  0
  188.7560  177.9180  142.2190 C   0  0  0  0  0  2  0  0  0  0  0  0
  1  9  1  0  0  0  0
  1 14  1  0  0  0  0
  2  3  1  6  0  0  0
  2 13  1  0  0  0  0
  4 11  1  6  0  0  0
  4  7  1  0  0  0  0
  5 14  2  0  0  0  0
  5  2  1  0  0  0  0
  6  1  2  0  0  0  0
  7  3  1  0  0  0  0
  8 12  1  1  0  0  0
  8 23  1  0  0  0  0
  8 13  1  0  0  0  0
 10 18  1  0  0  0  0
 13 18  1  6  0  0  0
 15  4  1  0  0  0  0
 15 20  1  0  0  0  0
 16 12  1  0  0  0  0
 16  5  1  0  0  0  0
 17  6  1  0  0  0  0
 17 16  2  0  0  0  0
 19  3  2  0  0  0  0
 19 10  1  0  0  0  0
 20 19  1  0  0  0  0
 22 30  1  0  0  0  0
 22 21  1  1  0  0  0
 22 23  1  0  0  0  0
 23 21  1  1  0  0  0
 24 27  1  6  0  0  0
 24 31  1  0  0  0  0
 24 28  1  0  0  0  0
 28 25  1  0  0  0  0
 29 26  1  6  0  0  0
 29 30  1  0  0  0  0
 30 25  1  6  0  0  0
 31 29  1  0  0  0  0
M  END
>  <MODEL>
8

>  <REMARK>
 VINA RESULT:      -7.0      3.788      8.233
  Name = 
  2 active torsions:
  status: ('A' for Active; 'I' for Inactive)
    1  A    between atoms: C_5  and  C_30
    2  A    between atoms: C_10  and  C_16
                            x       y       z     vdW  Elec       q    Type
                         _______ _______ _______ _____ _____    ______ ____

>  <TORSDO>
F 2

$$$$
=
 OpenBabel11112416533D

 31 36  0  0  1  0  0  0  0  0999 V2000
  187.9600  177.2510  147.1900 C   0  0  0  0  0  0  0  0  0  0  0  0
  189.6150  174.4400  145.2360 C   0  0  2  0  0  3  0  0  0  0  0  0
  189.3150  174.6970  143.7570 C   0  0  0  0  0  0  0  0  0  0  0  0
  187.5700  175.3790  142.0510 C   0  0  1  0  0  3  0  0  0  0  0  0
  189.4440  175.6620  146.1060 C   0  0  0  0  0  0  0  0  0  0  0  0
  189.0620  177.9780  147.6450 C   0  0  0  0  0  3  0  0  0  0  0  0
  188.2030  175.6660  143.4040 C   0  0  0  0  0  2  0  0  0  0  0  0
  192.1190  174.7900  145.3650 C   0  0  2  0  0  3  0  0  0  0  0  0
  186.7060  177.6680  147.4870 F   0  0  0  0  0  0  0  0  0  0  0  0
  191.1120  173.0800  143.0710 C   0  0  0  0  0  2  0  0  0  0  0  0
  186.6910  176.4090  141.7220 O   0  0  0  0  0  1  0  0  0  0  0  0
  191.9620  175.8860  146.4190 C   0  0  0  0  0  2  0  0  0  0  0  0
  190.9750  173.7640  145.4800 C   0  0  2  0  0  3  0  0  0  0  0  0
  188.1510  176.0970  146.4270 C   0  0  0  0  0  3  0  0  0  0  0  0
  188.6730  175.3040  141.0130 C   0  0  0  0  0  2  0  0  0  0  0  0
  190.5570  176.3920  146.5760 C   0  0  0  0  0  0  0  0  0  0  0  0
  190.3560  177.5420  147.3480 C   0  0  0  0  0  3  0  0  0  0  0  0
  191.1180  172.5890  144.5140 C   0  0  0  0  0  2  0  0  0  0  0  0
  189.9690  174.0130  142.7740 C   0  0  0  0  0  0  0  0  0  0  0  0
  189.5680  174.1080  141.3200 C   0  0  0  0  0  2  0  0  0  0  0  0
  194.4420  175.1680  145.7400 O   0  0  0  0  0  0  0  0  0  0  0  0
  194.4160  174.5580  144.4730 C   0  0  2  0  0  3  0  0  0  0  0  0
  193.4890  174.1480  145.5530 C   0  0  2  0  0  3  0  0  0  0  0  0
  197.2940  174.6490  142.1690 C   0  0  1  0  0  3  0  0  0  0  0  0
  196.9100  174.3700  144.6400 C   0  0  0  0  0  2  0  0  0  0  0  0
  194.5190  172.1330  142.7090 N   0  0  0  0  0  1  0  0  0  0  0  0
  197.5500  175.6610  141.0740 C   0  0  0  0  0  1  0  0  0  0  0  0
  197.2170  175.3640  143.5170 C   0  0  0  0  0  2  0  0  0  0  0  0
  195.7130  172.9080  143.0020 C   0  0  2  0  0  3  0  0  0  0  0  0
  195.6090  173.6070  144.3660 C   0  0  2  0  0  3  0  0  0  0  0  0
  195.9920  173.9060  141.8810 C   0  0  0  0  0  2  0  0  0  0  0  0
  1  9  1  0  0  0  0
  1  6  1  0  0  0  0
  2  3  1  6  0  0  0
  2 13  1  0  0  0  0
  2  5  1  0  0  0  0
  4 11  1  6  0  0  0
  4  7  1  0  0  0  0
  5 14  1  0  0  0  0
  5 16  2  0  0  0  0
  7  3  1  0  0  0  0
  8 13  1  0  0  0  0
  8 23  1  0  0  0  0
  8 12  1  1  0  0  0
 10 18  1  0  0  0  0
 12 16  1  0  0  0  0
 13 18  1  6  0  0  0
 14  1  2  0  0  0  0
 15 20  1  0  0  0  0
 15  4  1  0  0  0  0
 16 17  1  0  0  0  0
 17  6  2  0  0  0  0
 19 10  1  0  0  0  0
 19  3  2  0  0  0  0
 20 19  1  0  0  0  0
 22 23  1  0  0  0  0
 22 21  1  1  0  0  0
 23 21  1  1  0  0  0
 24 27  1  6  0  0  0
 24 28  1  0  0  0  0
 28 25  1  0  0  0  0
 29 26  1  6  0  0  0
 29 30  1  0  0  0  0
 30 22  1  0  0  0  0
 30 25  1  6  0  0  0
 31 24  1  0  0  0  0
 31 29  1  0  0  0  0
M  END
>  <MODEL>
9

>  <REMARK>
 VINA RESULT:      -7.0      1.711      2.601
  Name = 
  2 active torsions:
  status: ('A' for Active; 'I' for Inactive)
    1  A    between atoms: C_5  and  C_30
    2  A    between atoms: C_10  and  C_16
                            x       y       z     vdW  Elec       q    Type
                         _______ _______ _______ _____ _____    ______ ____

>  <TORSDO>
F 2

$$$$
