=
 OpenBabel11112417023D

 31 35  0  0  1  0  0  0  0  0999 V2000
  184.6300  178.2540  146.6980 C   0  0  0  0  0  0  0  0  0  0  0  0
  187.2610  176.0970  144.9940 C   0  0  2  0  0  3  0  0  0  0  0  0
  187.5150  176.7180  143.5960 C   0  0  2  0  0  3  0  0  0  0  0  0
  186.4460  177.8030  141.6060 C   0  0  2  0  0  3  0  0  0  0  0  0
  186.6220  177.0780  145.9510 C   0  0  0  0  0  0  0  0  0  0  0  0
  185.3900  178.9580  147.6340 C   0  0  0  0  0  3  0  0  0  0  0  0
  186.1910  177.1730  142.9680 C   0  0  0  0  0  2  0  0  0  0  0  0
  189.4870  176.6660  146.0380 C   0  0  2  0  0  3  0  0  0  0  0  0
  183.2990  178.4810  146.5970 F   0  0  0  0  0  0  0  0  0  0  0  0
  189.4540  175.3440  143.2620 C   0  0  0  0  0  2  0  0  0  0  0  0
  185.1260  178.1590  140.9570 C   0  0  0  0  0  1  0  0  0  0  0  0
  188.8310  177.4650  147.1630 C   0  0  0  0  0  2  0  0  0  0  0  0
  188.5620  175.5250  145.5880 C   0  0  2  0  0  3  0  0  0  0  0  0
  185.2430  177.3170  145.8630 C   0  0  0  0  0  3  0  0  0  0  0  0
  187.2060  176.8280  140.7190 C   0  0  0  0  0  2  0  0  0  0  0  0
  187.3860  177.7870  146.9060 C   0  0  0  0  0  0  0  0  0  0  0  0
  186.7610  178.7170  147.7430 C   0  0  0  0  0  3  0  0  0  0  0  0
  189.2440  174.6050  144.5760 C   0  0  0  0  0  2  0  0  0  0  0  0
  188.1680  175.7420  142.6990 N   0  0  2  0  0  0  0  0  0  0  0  0
  188.4850  176.4000  141.4300 C   0  0  0  0  0  2  0  0  0  0  0  0
  192.0180  177.1350  144.8120 O   0  0  0  0  0  0  0  0  0  0  0  0
  191.9970  176.4180  145.8490 C   0  0  0  0  0  0  0  0  0  0  0  0
  190.7610  176.1360  146.5060 N   0  0  0  0  0  2  0  0  0  0  0  0
  195.5410  176.1220  144.5470 C   0  0  1  0  0  3  0  0  0  0  0  0
  194.3450  176.9050  146.6100 C   0  0  0  0  0  2  0  0  0  0  0  0
  192.8050  173.7120  145.3450 O   0  0  0  0  0  1  0  0  0  0  0  0
  196.1020  176.5330  143.3390 O   0  0  0  0  0  1  0  0  0  0  0  0
  194.9750  177.3320  145.2830 C   0  0  0  0  0  2  0  0  0  0  0  0
  193.8090  174.6500  145.5900 C   0  0  2  0  0  3  0  0  0  0  0  0
  193.2660  175.8360  146.4040 C   0  0  2  0  0  3  0  0  0  0  0  0
  194.4360  175.1060  144.2740 C   0  0  0  0  0  2  0  0  0  0  0  0
  1  6  1  0  0  0  0
  2 13  1  0  0  0  0
  2  5  1  1  0  0  0
  3  7  1  6  0  0  0
  3  2  1  0  0  0  0
  4 11  1  6  0  0  0
  4  7  1  0  0  0  0
  5 16  2  0  0  0  0
  6 17  2  0  0  0  0
  8 23  1  1  0  0  0
  8 12  1  0  0  0  0
  9  1  1  0  0  0  0
 10 18  1  0  0  0  0
 13 18  1  6  0  0  0
 13  8  1  0  0  0  0
 14  5  1  0  0  0  0
 14  1  2  0  0  0  0
 15 20  1  0  0  0  0
 15  4  1  0  0  0  0
 16 12  1  0  0  0  0
 16 17  1  0  0  0  0
 19 20  1  6  0  0  0
 19 10  1  0  0  0  0
 19  3  1  0  0  0  0
 21 22  2  0  0  0  0
 22 23  1  0  0  0  0
 24 27  1  6  0  0  0
 24 28  1  0  0  0  0
 28 25  1  0  0  0  0
 29 26  1  6  0  0  0
 29 30  1  0  0  0  0
 30 22  1  6  0  0  0
 30 25  1  0  0  0  0
 31 24  1  0  0  0  0
 31 29  1  0  0  0  0
M  END
>  <MODEL>
1

>  <REMARK>
 VINA RESULT:      -9.3      0.000      0.000
  Name = 
  2 active torsions:
  status: ('A' for Active; 'I' for Inactive)
    1  A    between atoms: C_5  and  C_30
    2  A    between atoms: C_10  and  N_16
                            x       y       z     vdW  Elec       q    Type
                         _______ _______ _______ _____ _____    ______ ____

>  <TORSDO>
F 2

$$$$
=
 OpenBabel11112417023D

 31 35  0  0  1  0  0  0  0  0999 V2000
  184.7580  177.8010  146.7210 C   0  0  0  0  0  0  0  0  0  0  0  0
  187.1250  176.1660  144.2300 C   0  0  2  0  0  3  0  0  0  0  0  0
  187.0250  176.9800  142.9140 C   0  0  2  0  0  3  0  0  0  0  0  0
  185.4730  178.1830  141.3560 C   0  0  2  0  0  3  0  0  0  0  0  0
  186.6300  176.9470  145.4270 C   0  0  0  0  0  0  0  0  0  0  0  0
  185.6420  178.4600  147.5760 C   0  0  0  0  0  3  0  0  0  0  0  0
  185.5650  177.3660  142.6370 C   0  0  0  0  0  2  0  0  0  0  0  0
  189.4710  176.8360  144.8760 C   0  0  2  0  0  3  0  0  0  0  0  0
  183.4220  177.8950  146.9230 F   0  0  0  0  0  0  0  0  0  0  0  0
  188.9490  175.8740  142.0030 C   0  0  0  0  0  2  0  0  0  0  0  0
  184.0210  178.4740  141.0440 C   0  0  0  0  0  1  0  0  0  0  0  0
  189.0090  177.4150  146.2130 C   0  0  0  0  0  2  0  0  0  0  0  0
  188.5640  175.6680  144.4620 C   0  0  2  0  0  3  0  0  0  0  0  0
  185.2500  177.0460  145.6530 C   0  0  0  0  0  3  0  0  0  0  0  0
  186.1000  177.4130  140.2040 C   0  0  0  0  0  2  0  0  0  0  0  0
  187.5230  177.6100  146.3000 C   0  0  0  0  0  0  0  0  0  0  0  0
  187.0200  178.3560  147.3710 C   0  0  0  0  0  3  0  0  0  0  0  0
  189.0840  174.9600  143.2110 C   0  0  0  0  0  2  0  0  0  0  0  0
  187.5450  176.1990  141.7720 N   0  0  2  0  0  0  0  0  0  0  0  0
  187.5310  177.0390  140.5740 C   0  0  0  0  0  2  0  0  0  0  0  0
  191.7370  178.1870  143.7930 O   0  0  0  0  0  0  0  0  0  0  0  0
  191.9450  177.1230  144.4380 C   0  0  0  0  0  0  0  0  0  0  0  0
  190.8530  176.3930  144.9970 N   0  0  0  0  0  2  0  0  0  0  0  0
  193.4080  173.6560  144.8730 C   0  0  1  0  0  3  0  0  0  0  0  0
  193.7660  175.6940  143.4510 C   0  0  0  0  0  2  0  0  0  0  0  0
  193.1160  176.6940  147.0220 O   0  0  0  0  0  1  0  0  0  0  0  0
  192.7880  172.4090  144.9270 O   0  0  0  0  0  1  0  0  0  0  0  0
  193.1040  174.3180  143.5330 C   0  0  0  0  0  2  0  0  0  0  0  0
  193.5690  175.8990  145.9680 C   0  0  2  0  0  3  0  0  0  0  0  0
  193.3410  176.5960  144.6160 C   0  0  2  0  0  3  0  0  0  0  0  0
  192.9010  174.5260  146.0190 C   0  0  0  0  0  2  0  0  0  0  0  0
  1  9  1  0  0  0  0
  1  6  1  0  0  0  0
  2 13  1  0  0  0  0
  2  5  1  1  0  0  0
  3  7  1  6  0  0  0
  3  2  1  0  0  0  0
  4 11  1  6  0  0  0
  4  7  1  0  0  0  0
  5 14  1  0  0  0  0
  5 16  2  0  0  0  0
  8 23  1  1  0  0  0
  8 12  1  0  0  0  0
 10 18  1  0  0  0  0
 12 16  1  0  0  0  0
 13 18  1  6  0  0  0
 13  8  1  0  0  0  0
 14  1  2  0  0  0  0
 15 20  1  0  0  0  0
 15  4  1  0  0  0  0
 16 17  1  0  0  0  0
 17  6  2  0  0  0  0
 19 20  1  6  0  0  0
 19 10  1  0  0  0  0
 19  3  1  0  0  0  0
 21 22  2  0  0  0  0
 22 23  1  0  0  0  0
 24 27  1  6  0  0  0
 24 31  1  0  0  0  0
 25 28  1  0  0  0  0
 25 30  1  0  0  0  0
 28 24  1  0  0  0  0
 29 31  1  0  0  0  0
 29 26  1  1  0  0  0
 30 22  1  6  0  0  0
 30 29  1  0  0  0  0
M  END
>  <MODEL>
2

>  <REMARK>
 VINA RESULT:      -9.1      1.354      1.955
  Name = 
  2 active torsions:
  status: ('A' for Active; 'I' for Inactive)
    1  A    between atoms: C_5  and  C_30
    2  A    between atoms: C_10  and  N_16
                            x       y       z     vdW  Elec       q    Type
                         _______ _______ _______ _____ _____    ______ ____

>  <TORSDO>
F 2

$$$$
=
 OpenBabel11112417023D

 31 35  0  0  1  0  0  0  0  0999 V2000
  186.1570  178.1400  140.8090 C   0  0  0  0  0  0  0  0  0  0  0  0
  188.3350  177.7970  143.9100 C   0  0  2  0  0  3  0  0  0  0  0  0
  187.4040  177.3470  145.0660 C   0  0  2  0  0  3  0  0  0  0  0  0
  185.1460  177.6360  146.1150 C   0  0  2  0  0  3  0  0  0  0  0  0
  187.7360  177.5200  142.5490 C   0  0  0  0  0  0  0  0  0  0  0  0
  186.5160  177.0100  140.0720 C   0  0  0  0  0  3  0  0  0  0  0  0
  186.0660  178.0960  144.9940 C   0  0  0  0  0  2  0  0  0  0  0  0
  189.6490  175.6560  143.6680 C   0  0  2  0  0  3  0  0  0  0  0  0
  185.2160  178.9890  140.3320 F   0  0  0  0  0  0  0  0  0  0  0  0
  189.2800  176.8520  146.4770 C   0  0  0  0  0  2  0  0  0  0  0  0
  183.8700  178.4500  146.0910 C   0  0  0  0  0  1  0  0  0  0  0  0
  189.2450  175.4940  142.2040 C   0  0  0  0  0  2  0  0  0  0  0  0
  189.7250  177.1450  144.0370 C   0  0  2  0  0  3  0  0  0  0  0  0
  186.7660  178.3940  142.0400 C   0  0  0  0  0  3  0  0  0  0  0  0
  185.8400  177.8120  147.4580 C   0  0  0  0  0  2  0  0  0  0  0  0
  188.1030  176.3810  141.7960 C   0  0  0  0  0  0  0  0  0  0  0  0
  187.4940  176.1400  140.5610 C   0  0  0  0  0  3  0  0  0  0  0  0
  190.2790  177.3560  145.4460 C   0  0  0  0  0  2  0  0  0  0  0  0
  188.0340  177.6040  146.3780 N   0  0  2  0  0  0  0  0  0  0  0  0
  187.1710  177.0690  147.4320 C   0  0  0  0  0  2  0  0  0  0  0  0
  190.0770  173.3120  145.2350 O   0  0  0  0  0  0  0  0  0  0  0  0
  191.0810  173.8300  144.6750 C   0  0  0  0  0  0  0  0  0  0  0  0
  190.9380  175.0100  143.8840 N   0  0  0  0  0  2  0  0  0  0  0  0
  194.5960  175.0500  143.9640 C   0  0  1  0  0  3  0  0  0  0  0  0
  193.3020  174.0060  145.8450 C   0  0  0  0  0  2  0  0  0  0  0  0
  192.3910  172.3770  142.5760 O   0  0  0  0  0  1  0  0  0  0  0  0
  195.0490  176.2570  143.4350 O   0  0  0  0  0  1  0  0  0  0  0  0
  193.8180  175.3170  145.2480 C   0  0  0  0  0  2  0  0  0  0  0  0
  193.1980  173.0260  143.5120 C   0  0  2  0  0  3  0  0  0  0  0  0
  192.4470  173.2260  144.8390 C   0  0  2  0  0  3  0  0  0  0  0  0
  193.7050  174.3500  142.9420 C   0  0  0  0  0  2  0  0  0  0  0  0
  1 14  1  0  0  0  0
  2  5  1  6  0  0  0
  2 13  1  0  0  0  0
  2  3  1  0  0  0  0
  3  7  1  1  0  0  0
  3 19  1  0  0  0  0
  4 11  1  1  0  0  0
  4 15  1  0  0  0  0
  6 17  1  0  0  0  0
  6  1  2  0  0  0  0
  7  4  1  0  0  0  0
  8 23  1  6  0  0  0
  8 13  1  0  0  0  0
  9  1  1  0  0  0  0
 12  8  1  0  0  0  0
 13 18  1  1  0  0  0
 14  5  2  0  0  0  0
 16 12  1  0  0  0  0
 16  5  1  0  0  0  0
 17 16  2  0  0  0  0
 18 10  1  0  0  0  0
 19 10  1  6  0  0  0
 19 20  1  0  0  0  0
 20 15  1  0  0  0  0
 22 21  2  0  0  0  0
 23 22  1  0  0  0  0
 24 27  1  6  0  0  0
 24 28  1  0  0  0  0
 28 25  1  0  0  0  0
 29 26  1  6  0  0  0
 29 30  1  0  0  0  0
 30 22  1  6  0  0  0
 30 25  1  0  0  0  0
 31 29  1  0  0  0  0
 31 24  1  0  0  0  0
M  END
>  <MODEL>
3

>  <REMARK>
 VINA RESULT:      -8.7      1.991      4.308
  Name = 
  2 active torsions:
  status: ('A' for Active; 'I' for Inactive)
    1  A    between atoms: C_5  and  C_30
    2  A    between atoms: C_10  and  N_16
                            x       y       z     vdW  Elec       q    Type
                         _______ _______ _______ _____ _____    ______ ____

>  <TORSDO>
F 2

$$$$
=
 OpenBabel11112417023D

 31 35  0  0  1  0  0  0  0  0999 V2000
  184.6990  177.9160  146.7530 C   0  0  0  0  0  0  0  0  0  0  0  0
  187.0780  176.2130  144.3190 C   0  0  2  0  0  3  0  0  0  0  0  0
  187.0390  177.0340  143.0040 C   0  0  2  0  0  3  0  0  0  0  0  0
  185.5680  178.2910  141.4110 C   0  0  2  0  0  3  0  0  0  0  0  0
  186.5770  177.0060  145.5060 C   0  0  0  0  0  0  0  0  0  0  0  0
  185.5820  178.5440  147.6330 C   0  0  0  0  0  3  0  0  0  0  0  0
  185.6000  177.4670  142.6900 C   0  0  0  0  0  2  0  0  0  0  0  0
  189.4260  176.8060  145.0300 C   0  0  2  0  0  3  0  0  0  0  0  0
  183.3630  178.0530  146.9200 F   0  0  0  0  0  0  0  0  0  0  0  0
  188.9500  175.8700  142.1400 C   0  0  0  0  0  2  0  0  0  0  0  0
  184.1350  178.6290  141.0610 C   0  0  0  0  0  1  0  0  0  0  0  0
  188.9480  177.3950  146.3560 C   0  0  0  0  0  2  0  0  0  0  0  0
  188.4940  175.6680  144.5870 C   0  0  2  0  0  3  0  0  0  0  0  0
  185.1950  177.1490  145.6960 C   0  0  0  0  0  3  0  0  0  0  0  0
  186.2000  177.5040  140.2730 C   0  0  0  0  0  2  0  0  0  0  0  0
  187.4670  177.6370  146.4050 C   0  0  0  0  0  0  0  0  0  0  0  0
  186.9600  178.3960  147.4650 C   0  0  0  0  0  3  0  0  0  0  0  0
  189.0240  174.9470  143.3480 C   0  0  0  0  0  2  0  0  0  0  0  0
  187.5640  176.2390  141.8740 N   0  0  2  0  0  0  0  0  0  0  0  0
  187.6080  177.0840  140.6790 C   0  0  0  0  0  2  0  0  0  0  0  0
  190.2880  174.9160  146.9840 O   0  0  0  0  0  0  0  0  0  0  0  0
  191.1540  175.3610  146.1820 C   0  0  0  0  0  0  0  0  0  0  0  0
  190.7900  176.3170  145.1860 N   0  0  0  0  0  2  0  0  0  0  0  0
  194.1820  175.7820  143.9460 C   0  0  1  0  0  3  0  0  0  0  0  0
  193.5550  176.0900  146.3570 C   0  0  0  0  0  2  0  0  0  0  0  0
  192.0660  172.9010  145.0210 O   0  0  0  0  0  1  0  0  0  0  0  0
  194.3230  176.4330  142.7220 O   0  0  0  0  0  1  0  0  0  0  0  0
  193.7270  176.7820  145.0040 C   0  0  0  0  0  2  0  0  0  0  0  0
  192.9920  173.9390  145.1460 C   0  0  2  0  0  3  0  0  0  0  0  0
  192.5830  174.9070  146.2680 C   0  0  2  0  0  3  0  0  0  0  0  0
  193.1600  174.6570  143.8080 C   0  0  0  0  0  2  0  0  0  0  0  0
  1  9  1  0  0  0  0
  1  6  1  0  0  0  0
  2 13  1  0  0  0  0
  2  5  1  1  0  0  0
  3  7  1  6  0  0  0
  3  2  1  0  0  0  0
  4 11  1  6  0  0  0
  4  7  1  0  0  0  0
  5 14  1  0  0  0  0
  5 16  2  0  0  0  0
  8 23  1  1  0  0  0
  8 12  1  0  0  0  0
 10 18  1  0  0  0  0
 12 16  1  0  0  0  0
 13 18  1  6  0  0  0
 13  8  1  0  0  0  0
 14  1  2  0  0  0  0
 15 20  1  0  0  0  0
 15  4  1  0  0  0  0
 16 17  1  0  0  0  0
 17  6  2  0  0  0  0
 19 20  1  6  0  0  0
 19 10  1  0  0  0  0
 19  3  1  0  0  0  0
 22 21  2  0  0  0  0
 23 22  1  0  0  0  0
 24 27  1  6  0  0  0
 24 28  1  0  0  0  0
 28 25  1  0  0  0  0
 29 26  1  6  0  0  0
 29 30  1  0  0  0  0
 30 22  1  6  0  0  0
 30 25  1  0  0  0  0
 31 24  1  0  0  0  0
 31 29  1  0  0  0  0
M  END
>  <MODEL>
4

>  <REMARK>
 VINA RESULT:      -8.5      1.115      1.243
  Name = 
  2 active torsions:
  status: ('A' for Active; 'I' for Inactive)
    1  A    between atoms: C_5  and  C_30
    2  A    between atoms: C_10  and  N_16
                            x       y       z     vdW  Elec       q    Type
                         _______ _______ _______ _____ _____    ______ ____

>  <TORSDO>
F 2

$$$$
=
 OpenBabel11112417023D

 31 35  0  0  1  0  0  0  0  0999 V2000
  194.4040  176.3970  145.1050 C   0  0  0  0  0  0  0  0  0  0  0  0
  190.9530  176.6730  143.5260 C   0  0  2  0  0  3  0  0  0  0  0  0
  190.6330  175.2910  142.9000 C   0  0  2  0  0  3  0  0  0  0  0  0
  191.5710  173.3470  141.6260 C   0  0  2  0  0  3  0  0  0  0  0  0
  192.0400  176.5910  144.5750 C   0  0  0  0  0  0  0  0  0  0  0  0
  194.0990  176.3410  146.4660 C   0  0  0  0  0  3  0  0  0  0  0  0
  191.8820  174.7130  142.2200 C   0  0  0  0  0  2  0  0  0  0  0  0
  189.2650  176.6050  145.4010 C   0  0  2  0  0  3  0  0  0  0  0  0
  195.6920  176.3260  144.6960 F   0  0  0  0  0  0  0  0  0  0  0  0
  188.3390  175.9010  142.5550 C   0  0  0  0  0  2  0  0  0  0  0  0
  192.7820  172.8330  140.8760 C   0  0  0  0  0  1  0  0  0  0  0  0
  190.3440  176.7700  146.4690 C   0  0  0  0  0  2  0  0  0  0  0  0
  189.6820  177.3210  144.1080 C   0  0  2  0  0  3  0  0  0  0  0  0
  193.3790  176.5240  144.1650 C   0  0  0  0  0  3  0  0  0  0  0  0
  190.3880  173.4530  140.6760 C   0  0  0  0  0  2  0  0  0  0  0  0
  191.7360  176.5420  145.9550 C   0  0  0  0  0  0  0  0  0  0  0  0
  192.7710  176.4240  146.8890 C   0  0  0  0  0  3  0  0  0  0  0  0
  188.5640  177.3160  143.0670 C   0  0  0  0  0  2  0  0  0  0  0  0
  189.5470  175.4040  141.9040 N   0  0  2  0  0  0  0  0  0  0  0  0
  189.2060  174.0660  141.4180 C   0  0  0  0  0  2  0  0  0  0  0  0
  187.7020  175.4730  147.5010 O   0  0  0  0  0  0  0  0  0  0  0  0
  187.2780  176.5330  146.9650 C   0  0  0  0  0  0  0  0  0  0  0  0
  188.0070  177.1460  145.9010 N   0  0  0  0  0  2  0  0  0  0  0  0
  184.9030  179.0620  145.4450 C   0  0  1  0  0  3  0  0  0  0  0  0
  184.8170  176.7910  146.5130 C   0  0  0  0  0  2  0  0  0  0  0  0
  187.1980  179.0230  148.3880 O   0  0  0  0  0  1  0  0  0  0  0  0
  184.9540  179.7380  144.2280 O   0  0  0  0  0  1  0  0  0  0  0  0
  184.8640  177.5590  145.1900 C   0  0  0  0  0  2  0  0  0  0  0  0
  186.0860  178.6850  147.6160 C   0  0  2  0  0  3  0  0  0  0  0  0
  185.9930  177.1620  147.4230 C   0  0  2  0  0  3  0  0  0  0  0  0
  186.1270  179.4250  146.2800 C   0  0  0  0  0  2  0  0  0  0  0  0
  1  6  1  0  0  0  0
  2 13  1  0  0  0  0
  2  5  1  1  0  0  0
  3  7  1  6  0  0  0
  3  2  1  0  0  0  0
  4 11  1  6  0  0  0
  4  7  1  0  0  0  0
  5 16  2  0  0  0  0
  6 17  2  0  0  0  0
  8 23  1  1  0  0  0
  8 12  1  0  0  0  0
  9  1  1  0  0  0  0
 10 18  1  0  0  0  0
 13 18  1  6  0  0  0
 13  8  1  0  0  0  0
 14  5  1  0  0  0  0
 14  1  2  0  0  0  0
 15 20  1  0  0  0  0
 15  4  1  0  0  0  0
 16 12  1  0  0  0  0
 16 17  1  0  0  0  0
 19 20  1  1  0  0  0
 19 10  1  0  0  0  0
 19  3  1  0  0  0  0
 22 21  2  0  0  0  0
 23 22  1  0  0  0  0
 24 27  1  6  0  0  0
 24 31  1  0  0  0  0
 25 30  1  0  0  0  0
 28 24  1  0  0  0  0
 28 25  1  0  0  0  0
 29 26  1  6  0  0  0
 30 22  1  6  0  0  0
 30 29  1  0  0  0  0
 31 29  1  0  0  0  0
M  END
>  <MODEL>
5

>  <REMARK>
 VINA RESULT:      -8.5      3.576      7.125
  Name = 
  2 active torsions:
  status: ('A' for Active; 'I' for Inactive)
    1  A    between atoms: C_5  and  C_30
    2  A    between atoms: C_10  and  N_16
                            x       y       z     vdW  Elec       q    Type
                         _______ _______ _______ _____ _____    ______ ____

>  <TORSDO>
F 2

$$$$
=
 OpenBabel11112417023D

 31 35  0  0  1  0  0  0  0  0999 V2000
  190.4160  171.4220  142.6860 C   0  0  0  0  0  0  0  0  0  0  0  0
  189.7730  174.4220  144.9370 C   0  0  2  0  0  3  0  0  0  0  0  0
  191.1160  175.1870  145.0610 C   0  0  2  0  0  3  0  0  0  0  0  0
  193.6000  174.9510  145.3030 C   0  0  2  0  0  3  0  0  0  0  0  0
  189.7410  173.5100  143.7300 C   0  0  0  0  0  0  0  0  0  0  0  0
  189.7990  171.8120  141.4960 C   0  0  0  0  0  3  0  0  0  0  0  0
  192.2810  174.1980  145.2040 C   0  0  0  0  0  2  0  0  0  0  0  0
  188.5230  176.1330  143.5660 C   0  0  2  0  0  3  0  0  0  0  0  0
  191.0480  170.2270  142.7620 F   0  0  0  0  0  0  0  0  0  0  0  0
  190.0290  177.0700  146.0770 C   0  0  0  0  0  2  0  0  0  0  0  0
  194.7270  173.9700  145.5400 C   0  0  0  0  0  1  0  0  0  0  0  0
  188.2690  175.1380  142.4330 C   0  0  0  0  0  2  0  0  0  0  0  0
  188.5820  175.3990  144.9140 C   0  0  2  0  0  3  0  0  0  0  0  0
  190.3840  172.2670  143.7980 C   0  0  0  0  0  3  0  0  0  0  0  0
  193.5400  175.9490  146.4490 C   0  0  0  0  0  2  0  0  0  0  0  0
  189.1100  173.8980  142.5260 C   0  0  0  0  0  0  0  0  0  0  0  0
  189.1400  173.0410  141.4200 C   0  0  0  0  0  3  0  0  0  0  0  0
  188.6770  176.3730  146.0880 C   0  0  0  0  0  2  0  0  0  0  0  0
  191.1000  176.0900  146.2310 N   0  0  2  0  0  0  0  0  0  0  0  0
  192.3400  176.8670  146.2490 C   0  0  0  0  0  2  0  0  0  0  0  0
  188.1820  178.1920  141.6220 O   0  0  0  0  0  0  0  0  0  0  0  0
  187.3430  178.1320  142.5620 C   0  0  0  0  0  0  0  0  0  0  0  0
  187.4620  177.1320  143.5740 N   0  0  0  0  0  2  0  0  0  0  0  0
  184.4290  178.5980  144.9360 C   0  0  1  0  0  3  0  0  0  0  0  0
  186.2800  179.9600  143.9250 C   0  0  0  0  0  2  0  0  0  0  0  0
  184.7900  177.6650  141.3410 O   0  0  0  0  0  1  0  0  0  0  0  0
  184.0460  177.8660  146.0590 O   0  0  0  0  0  1  0  0  0  0  0  0
  185.8320  179.1590  145.1480 C   0  0  0  0  0  2  0  0  0  0  0  0
  184.8250  178.4850  142.4700 C   0  0  2  0  0  3  0  0  0  0  0  0
  186.2140  179.1200  142.6440 C   0  0  2  0  0  3  0  0  0  0  0  0
  184.4010  177.6950  143.7070 C   0  0  0  0  0  2  0  0  0  0  0  0
  1  9  1  0  0  0  0
  1 14  1  0  0  0  0
  2  5  1  6  0  0  0
  2  3  1  0  0  0  0
  3  7  1  1  0  0  0
  3 19  1  0  0  0  0
  4 11  1  1  0  0  0
  4 15  1  0  0  0  0
  5 14  2  0  0  0  0
  6  1  2  0  0  0  0
  7  4  1  0  0  0  0
  8 23  1  1  0  0  0
  8 13  1  0  0  0  0
 10 18  1  0  0  0  0
 12 16  1  0  0  0  0
 12  8  1  0  0  0  0
 13  2  1  0  0  0  0
 13 18  1  1  0  0  0
 16  5  1  0  0  0  0
 17  6  1  0  0  0  0
 17 16  2  0  0  0  0
 19 10  1  6  0  0  0
 19 20  1  0  0  0  0
 20 15  1  0  0  0  0
 21 22  2  0  0  0  0
 22 23  1  0  0  0  0
 24 28  1  0  0  0  0
 24 27  1  1  0  0  0
 25 28  1  0  0  0  0
 29 26  1  6  0  0  0
 29 30  1  0  0  0  0
 29 31  1  0  0  0  0
 30 22  1  1  0  0  0
 30 25  1  0  0  0  0
 31 24  1  0  0  0  0
M  END
>  <MODEL>
6

>  <REMARK>
 VINA RESULT:      -7.6      3.570      7.893
  Name = 
  2 active torsions:
  status: ('A' for Active; 'I' for Inactive)
    1  A    between atoms: C_5  and  C_30
    2  A    between atoms: C_10  and  N_16
                            x       y       z     vdW  Elec       q    Type
                         _______ _______ _______ _____ _____    ______ ____

>  <TORSDO>
F 2

$$$$
=
 OpenBabel11112417023D

 31 35  0  0  1  0  0  0  0  0999 V2000
  193.2640  172.5050  140.6650 C   0  0  0  0  0  0  0  0  0  0  0  0
  191.4460  173.6620  143.8020 C   0  0  2  0  0  3  0  0  0  0  0  0
  192.2310  174.8810  144.3530 C   0  0  2  0  0  3  0  0  0  0  0  0
  194.5090  175.8450  144.7560 C   0  0  2  0  0  3  0  0  0  0  0  0
  191.7480  173.3950  142.3440 C   0  0  0  0  0  0  0  0  0  0  0  0
  192.4140  172.9540  139.6530 C   0  0  0  0  0  3  0  0  0  0  0  0
  193.7420  174.6380  144.2350 C   0  0  0  0  0  2  0  0  0  0  0  0
  189.3730  174.8910  143.0550 C   0  0  2  0  0  3  0  0  0  0  0  0
  194.4130  171.8620  140.3510 F   0  0  0  0  0  0  0  0  0  0  0  0
  190.4620  175.4160  145.8820 C   0  0  0  0  0  2  0  0  0  0  0  0
  195.9940  175.5550  144.7240 C   0  0  0  0  0  1  0  0  0  0  0  0
  189.5330  174.4210  141.6100 C   0  0  0  0  0  2  0  0  0  0  0  0
  189.9320  173.8360  144.0220 C   0  0  2  0  0  3  0  0  0  0  0  0
  192.9310  172.7230  142.0040 C   0  0  0  0  0  3  0  0  0  0  0  0
  194.0790  176.1570  146.1810 C   0  0  0  0  0  2  0  0  0  0  0  0
  190.8870  173.8410  141.3160 C   0  0  0  0  0  0  0  0  0  0  0  0
  191.2250  173.6100  139.9780 C   0  0  0  0  0  3  0  0  0  0  0  0
  189.6490  174.1940  145.4810 C   0  0  0  0  0  2  0  0  0  0  0  0
  191.8880  175.1300  145.7690 N   0  0  2  0  0  0  0  0  0  0  0  0
  192.5670  176.3480  146.2150 C   0  0  0  0  0  2  0  0  0  0  0  0
  188.2420  177.4120  143.7600 O   0  0  0  0  0  0  0  0  0  0  0  0
  187.4590  176.4280  143.6660 C   0  0  0  0  0  0  0  0  0  0  0  0
  187.9620  175.1350  143.3260 N   0  0  0  0  0  2  0  0  0  0  0  0
  185.2000  179.4240  144.1800 C   0  0  1  0  0  3  0  0  0  0  0  0
  185.2870  177.3400  142.7830 C   0  0  0  0  0  2  0  0  0  0  0  0
  186.3610  176.5890  146.3120 O   0  0  0  0  0  1  0  0  0  0  0  0
  185.4900  180.7870  144.1980 O   0  0  0  0  0  1  0  0  0  0  0  0
  185.5870  178.8390  142.8260 C   0  0  0  0  0  2  0  0  0  0  0  0
  185.6660  177.2290  145.2840 C   0  0  2  0  0  3  0  0  0  0  0  0
  185.9880  176.5910  143.9220 C   0  0  2  0  0  3  0  0  0  0  0  0
  185.9710  178.7260  145.2960 C   0  0  0  0  0  2  0  0  0  0  0  0
  1 14  1  0  0  0  0
  2  5  1  6  0  0  0
  2 13  1  0  0  0  0
  2  3  1  0  0  0  0
  3  7  1  1  0  0  0
  3 19  1  0  0  0  0
  4 11  1  1  0  0  0
  4 15  1  0  0  0  0
  6 17  1  0  0  0  0
  6  1  2  0  0  0  0
  7  4  1  0  0  0  0
  8 23  1  1  0  0  0
  8 13  1  0  0  0  0
  9  1  1  0  0  0  0
 12  8  1  0  0  0  0
 13 18  1  1  0  0  0
 14  5  2  0  0  0  0
 15 20  1  0  0  0  0
 16 12  1  0  0  0  0
 16  5  1  0  0  0  0
 17 16  2  0  0  0  0
 18 10  1  0  0  0  0
 19 10  1  6  0  0  0
 19 20  1  0  0  0  0
 22 21  2  0  0  0  0
 23 22  1  0  0  0  0
 24 27  1  6  0  0  0
 24 31  1  0  0  0  0
 25 28  1  0  0  0  0
 25 30  1  0  0  0  0
 28 24  1  0  0  0  0
 29 31  1  0  0  0  0
 29 26  1  1  0  0  0
 30 22  1  6  0  0  0
 30 29  1  0  0  0  0
M  END
>  <MODEL>
7

>  <REMARK>
 VINA RESULT:      -7.5      3.817      8.286
  Name = 
  2 active torsions:
  status: ('A' for Active; 'I' for Inactive)
    1  A    between atoms: C_5  and  C_30
    2  A    between atoms: C_10  and  N_16
                            x       y       z     vdW  Elec       q    Type
                         _______ _______ _______ _____ _____    ______ ____

>  <TORSDO>
F 2

$$$$
=
 OpenBabel11112417023D

 31 35  0  0  1  0  0  0  0  0999 V2000
  187.6450  177.5120  146.9050 C   0  0  0  0  0  0  0  0  0  0  0  0
  189.2930  174.6250  145.0540 C   0  0  2  0  0  3  0  0  0  0  0  0
  189.3570  175.0280  143.5580 C   0  0  2  0  0  3  0  0  0  0  0  0
  188.1330  176.1440  141.6780 C   0  0  2  0  0  3  0  0  0  0  0  0
  189.1140  175.8190  145.9640 C   0  0  0  0  0  0  0  0  0  0  0  0
  188.7290  178.0950  147.5620 C   0  0  0  0  0  3  0  0  0  0  0  0
  188.0580  175.7300  143.1400 C   0  0  0  0  0  2  0  0  0  0  0  0
  191.7650  174.7320  145.5500 C   0  0  2  0  0  3  0  0  0  0  0  0
  186.4070  178.0460  147.0330 F   0  0  0  0  0  0  0  0  0  0  0  0
  190.8260  173.1980  143.0560 C   0  0  0  0  0  2  0  0  0  0  0  0
  186.8110  176.7470  141.2530 C   0  0  0  0  0  1  0  0  0  0  0  0
  191.5680  175.7710  146.6520 C   0  0  0  0  0  2  0  0  0  0  0  0
  190.5380  173.8130  145.4600 C   0  0  2  0  0  3  0  0  0  0  0  0
  187.8360  176.3780  146.1120 C   0  0  0  0  0  3  0  0  0  0  0  0
  188.4440  174.9330  140.8120 C   0  0  0  0  0  2  0  0  0  0  0  0
  190.2080  176.4090  146.6370 C   0  0  0  0  0  0  0  0  0  0  0  0
  190.0040  177.5390  147.4360 C   0  0  0  0  0  3  0  0  0  0  0  0
  190.7590  172.6620  144.4790 C   0  0  0  0  0  2  0  0  0  0  0  0
  189.5640  173.8400  142.7020 N   0  0  2  0  0  0  0  0  0  0  0  0
  189.7250  174.2770  141.3150 C   0  0  0  0  0  2  0  0  0  0  0  0
  194.2000  174.8590  144.0690 O   0  0  0  0  0  0  0  0  0  0  0  0
  194.1570  174.0740  145.0560 C   0  0  0  0  0  0  0  0  0  0  0  0
  192.9660  173.9550  145.8330 N   0  0  0  0  0  2  0  0  0  0  0  0
  197.4420  173.2910  143.3390 C   0  0  1  0  0  3  0  0  0  0  0  0
  196.6190  174.0880  145.5730 C   0  0  0  0  0  2  0  0  0  0  0  0
  194.4150  171.3230  144.2840 O   0  0  0  0  0  1  0  0  0  0  0  0
  197.9410  173.7030  142.1050 O   0  0  0  0  0  1  0  0  0  0  0  0
  197.1780  174.5130  144.2140 C   0  0  0  0  0  2  0  0  0  0  0  0
  195.5890  172.0520  144.4740 C   0  0  2  0  0  3  0  0  0  0  0  0
  195.3510  173.2400  145.4220 C   0  0  2  0  0  3  0  0  0  0  0  0
  196.1510  172.5050  143.1270 C   0  0  0  0  0  2  0  0  0  0  0  0
  1  9  1  0  0  0  0
  1  6  1  0  0  0  0
  2 13  1  0  0  0  0
  2  5  1  1  0  0  0
  3  7  1  6  0  0  0
  3  2  1  0  0  0  0
  4 11  1  6  0  0  0
  4  7  1  0  0  0  0
  5 14  1  0  0  0  0
  5 16  2  0  0  0  0
  8 23  1  1  0  0  0
  8 12  1  0  0  0  0
 10 18  1  0  0  0  0
 13 18  1  6  0  0  0
 13  8  1  0  0  0  0
 14  1  2  0  0  0  0
 15 20  1  0  0  0  0
 15  4  1  0  0  0  0
 16 12  1  0  0  0  0
 16 17  1  0  0  0  0
 17  6  2  0  0  0  0
 19 20  1  6  0  0  0
 19 10  1  0  0  0  0
 19  3  1  0  0  0  0
 21 22  2  0  0  0  0
 22 23  1  0  0  0  0
 24 27  1  6  0  0  0
 24 28  1  0  0  0  0
 28 25  1  0  0  0  0
 29 26  1  6  0  0  0
 29 30  1  0  0  0  0
 30 22  1  6  0  0  0
 30 25  1  0  0  0  0
 31 24  1  0  0  0  0
 31 29  1  0  0  0  0
M  END
>  <MODEL>
8

>  <REMARK>
 VINA RESULT:      -7.3      2.124      3.021
  Name = 
  2 active torsions:
  status: ('A' for Active; 'I' for Inactive)
    1  A    between atoms: C_5  and  C_30
    2  A    between atoms: C_10  and  N_16
                            x       y       z     vdW  Elec       q    Type
                         _______ _______ _______ _____ _____    ______ ____

>  <TORSDO>
F 2

$$$$
=
 OpenBabel11112417023D

 31 35  0  0  1  0  0  0  0  0999 V2000
  187.2460  177.8260  147.5120 C   0  0  0  0  0  0  0  0  0  0  0  0
  188.2410  175.7360  144.4920 C   0  0  2  0  0  3  0  0  0  0  0  0
  187.8780  176.5640  143.2320 C   0  0  2  0  0  3  0  0  0  0  0  0
  186.1830  178.0940  142.1980 C   0  0  2  0  0  3  0  0  0  0  0  0
  188.3520  176.5940  145.7320 C   0  0  0  0  0  0  0  0  0  0  0  0
  188.4840  178.2670  147.9830 C   0  0  0  0  0  3  0  0  0  0  0  0
  186.5250  177.2640  143.4270 C   0  0  0  0  0  2  0  0  0  0  0  0
  190.7520  175.8680  144.2840 C   0  0  2  0  0  3  0  0  0  0  0  0
  186.1070  178.2090  148.1360 F   0  0  0  0  0  0  0  0  0  0  0  0
  189.1070  175.0720  141.8120 C   0  0  0  0  0  2  0  0  0  0  0  0
  184.8060  178.6990  142.3640 C   0  0  0  0  0  1  0  0  0  0  0  0
  190.8990  176.5210  145.6580 C   0  0  0  0  0  2  0  0  0  0  0  0
  189.5350  174.9310  144.2680 C   0  0  2  0  0  3  0  0  0  0  0  0
  187.1810  176.9920  146.3930 C   0  0  0  0  0  3  0  0  0  0  0  0
  186.2100  177.2160  140.9570 C   0  0  0  0  0  2  0  0  0  0  0  0
  189.6040  177.0360  146.2180 C   0  0  0  0  0  0  0  0  0  0  0  0
  189.6580  177.8640  147.3440 C   0  0  0  0  0  3  0  0  0  0  0  0
  189.4440  174.1380  142.9650 C   0  0  0  0  0  2  0  0  0  0  0  0
  187.8090  175.6990  142.0360 N   0  0  2  0  0  0  0  0  0  0  0  0
  187.5700  176.5340  140.8580 C   0  0  0  0  0  2  0  0  0  0  0  0
  192.8370  176.7780  142.5640 O   0  0  0  0  0  0  0  0  0  0  0  0
  192.9800  175.6490  143.1070 C   0  0  0  0  0  0  0  0  0  0  0  0
  191.9690  175.1300  143.9720 N   0  0  0  0  0  2  0  0  0  0  0  0
  194.5280  172.6330  144.7980 C   0  0  1  0  0  3  0  0  0  0  0  0
  193.8580  173.3720  142.4940 C   0  0  0  0  0  2  0  0  0  0  0  0
  195.5100  176.2050  144.3410 O   0  0  0  0  0  1  0  0  0  0  0  0
  194.1200  171.9120  145.9180 O   0  0  0  0  0  1  0  0  0  0  0  0
  193.4380  172.5790  143.7330 C   0  0  0  0  0  2  0  0  0  0  0  0
  195.2460  174.8840  143.9770 C   0  0  2  0  0  3  0  0  0  0  0  0
  194.2070  174.8230  142.8450 C   0  0  2  0  0  3  0  0  0  0  0  0
  194.8030  174.0800  145.1980 C   0  0  0  0  0  2  0  0  0  0  0  0
  1  6  1  0  0  0  0
  1  9  1  0  0  0  0
  2  5  1  1  0  0  0
  3  7  1  1  0  0  0
  3  2  1  0  0  0  0
  4 11  1  1  0  0  0
  4  7  1  0  0  0  0
  5 16  2  0  0  0  0
  5 14  1  0  0  0  0
  8 23  1  1  0  0  0
  8 12  1  0  0  0  0
 10 19  1  0  0  0  0
 10 18  1  0  0  0  0
 12 16  1  0  0  0  0
 13 18  1  6  0  0  0
 13  8  1  0  0  0  0
 13  2  1  0  0  0  0
 14  1  2  0  0  0  0
 15  4  1  0  0  0  0
 16 17  1  0  0  0  0
 17  6  2  0  0  0  0
 19 20  1  6  0  0  0
 19  3  1  0  0  0  0
 20 15  1  0  0  0  0
 21 22  2  0  0  0  0
 22 23  1  0  0  0  0
 24 31  1  0  0  0  0
 24 27  1  1  0  0  0
 25 30  1  0  0  0  0
 25 28  1  0  0  0  0
 28 24  1  0  0  0  0
 29 26  1  1  0  0  0
 29 31  1  0  0  0  0
 30 22  1  1  0  0  0
 30 29  1  0  0  0  0
M  END
>  <MODEL>
9

>  <REMARK>
 VINA RESULT:      -7.2      1.710      2.791
  Name = 
  2 active torsions:
  status: ('A' for Active; 'I' for Inactive)
    1  A    between atoms: C_5  and  C_30
    2  A    between atoms: C_10  and  N_16
                            x       y       z     vdW  Elec       q    Type
                         _______ _______ _______ _____ _____    ______ ____

>  <TORSDO>
F 2

$$$$
