=
 OpenBabel11112416443D

 32 36  0  0  1  0  0  0  0  0999 V2000
  189.5210  175.6920  144.0850 C   0  0  1  0  0  3  0  0  0  0  0  0
  190.3580  173.4830  139.7720 C   0  0  0  0  0  3  0  0  0  0  0  0
  191.7300  173.6630  139.9550 C   0  0  0  0  0  3  0  0  0  0  0  0
  191.4350  176.0360  145.7600 C   0  0  0  0  0  0  0  0  0  0  0  0
  192.8120  175.6780  146.2690 C   0  0  2  0  0  3  0  0  0  0  0  0
  187.4760  176.5880  144.4660 C   0  0  2  0  0  3  0  0  0  0  0  0
  187.6380  174.8530  142.7010 O   0  0  0  0  0  0  0  0  0  0  0  0
  194.7040  176.1650  145.0630 C   0  0  2  0  0  3  0  0  0  0  0  0
  189.4660  173.8160  140.7920 C   0  0  0  0  0  3  0  0  0  0  0  0
  188.9800  174.6320  143.1250 C   0  0  1  0  0  3  0  0  0  0  0  0
  189.9390  174.3450  142.0020 C   0  0  0  0  0  0  0  0  0  0  0  0
  191.8750  175.1240  143.4760 C   0  0  2  0  0  3  0  0  0  0  0  0
  194.5680  177.0950  146.1680 C   0  0  0  0  0  3  0  0  0  0  0  0
  187.1840  176.1710  142.9860 C   0  0  2  0  0  3  0  0  0  0  0  0
  193.4970  176.8350  146.8440 N   0  0  0  0  0  0  0  0  0  0  0  0
  192.2130  174.1670  141.1650 C   0  0  0  0  0  3  0  0  0  0  0  0
  191.3330  174.4830  142.2100 C   0  0  0  0  0  0  0  0  0  0  0  0
  193.1890  174.5020  143.9580 C   0  0  0  0  0  2  0  0  0  0  0  0
  188.5480  175.8840  145.0710 O   0  0  0  0  0  0  0  0  0  0  0  0
  190.7870  176.9210  146.2980 O   0  0  0  0  0  0  0  0  0  0  0  0
  195.6870  176.2920  143.9510 C   0  0  0  0  0  1  0  0  0  0  0  0
  190.8540  175.1970  144.6360 C   0  0  2  0  0  3  0  0  0  0  0  0
  193.6820  175.3290  145.1040 C   0  0  2  0  0  3  0  0  0  0  0  0
  187.2280  176.8140  140.7090 C   0  0  0  0  0  1  0  0  0  0  0  0
  187.7530  177.1320  142.0290 N   0  0  0  0  0  0  0  0  0  0  0  0
  187.2540  178.4670  142.3430 C   0  0  0  0  0  2  0  0  0  0  0  0
  185.7710  178.5660  142.0150 C   0  0  0  0  0  2  0  0  0  0  0  0
  184.9970  179.0490  143.1950 C   0  0  0  0  0  0  0  0  0  0  0  0
  183.8580  178.5740  143.4400 O   0  0  0  0  0  0  0  0  0  0  0  0
  185.5470  180.0020  144.0420 O   0  0  0  0  0  1  0  0  0  0  0  0
  186.2890  177.2730  146.5420 C   0  0  0  0  0  1  0  0  0  0  0  0
  186.2170  176.4140  145.2940 C   0  0  0  0  0  2  0  0  0  0  0  0
  1 22  1  0  0  0  0
  1 19  1  1  0  0  0
  2  3  2  0  0  0  0
  2  9  1  0  0  0  0
  3 16  1  0  0  0  0
  4 20  2  0  0  0  0
  5  4  1  6  0  0  0
  5 15  1  0  0  0  0
  6 19  1  0  0  0  0
  6 32  1  1  0  0  0
  7 14  1  0  0  0  0
  7 10  1  0  0  0  0
  8 21  1  6  0  0  0
  8 23  1  0  0  0  0
  8 13  1  0  0  0  0
  9 11  2  0  0  0  0
 10 11  1  6  0  0  0
 10  1  1  0  0  0  0
 11 17  1  0  0  0  0
 12 18  1  1  0  0  0
 12 22  1  0  0  0  0
 13 15  2  0  0  0  0
 14 25  1  6  0  0  0
 14  6  1  0  0  0  0
 16 17  2  0  0  0  0
 17 12  1  0  0  0  0
 22  4  1  1  0  0  0
 23 18  1  6  0  0  0
 23  5  1  0  0  0  0
 24 25  1  0  0  0  0
 25 26  1  0  0  0  0
 27 26  1  0  0  0  0
 27 28  1  0  0  0  0
 28 29  2  0  0  0  0
 28 30  1  0  0  0  0
 32 31  1  0  0  0  0
M  END
>  <MODEL>
1

>  <REMARK>
 VINA RESULT:      -7.4      0.000      0.000
  Name = 
  5 active torsions:
  status: ('A' for Active; 'I' for Inactive)
    1  A    between atoms: C_7  and  C_19
    2  A    between atoms: N_10  and  C_17
    3  A    between atoms: N_10  and  C_20
    4  A    between atoms: C_20  and  C_29
    5  A    between atoms: C_29  and  C_30
                            x       y       z     vdW  Elec       q    Type
                         _______ _______ _______ _____ _____    ______ ____

>  <TORSDO>
F 5

$$$$
=
 OpenBabel11112416443D

 32 36  0  0  1  0  0  0  0  0999 V2000
  190.2130  175.3490  144.3670 C   0  0  1  0  0  3  0  0  0  0  0  0
  191.2450  177.4190  148.7080 C   0  0  0  0  0  3  0  0  0  0  0  0
  190.1750  178.2970  148.5340 C   0  0  0  0  0  3  0  0  0  0  0  0
  187.9530  175.7800  143.2300 C   0  0  0  0  0  0  0  0  0  0  0  0
  186.5090  176.2190  143.3060 C   0  0  2  0  0  3  0  0  0  0  0  0
  191.8440  174.1970  143.3000 C   0  0  2  0  0  3  0  0  0  0  0  0
  192.1150  174.5370  145.7420 O   0  0  0  0  0  0  0  0  0  0  0  0
  185.9360  178.4030  143.7160 C   0  0  2  0  0  3  0  0  0  0  0  0
  191.4560  176.3850  147.7940 C   0  0  0  0  0  3  0  0  0  0  0  0
  190.7910  175.0670  145.7540 C   0  0  1  0  0  3  0  0  0  0  0  0
  190.6040  176.2270  146.6920 C   0  0  0  0  0  0  0  0  0  0  0  0
  188.5920  176.9940  145.3180 C   0  0  2  0  0  3  0  0  0  0  0  0
  185.7380  178.0950  142.3120 C   0  0  0  0  0  3  0  0  0  0  0  0
  192.7520  174.6850  144.4780 C   0  0  2  0  0  3  0  0  0  0  0  0
  186.0720  176.8680  142.0710 N   0  0  0  0  0  0  0  0  0  0  0  0
  189.3060  178.1360  147.4520 C   0  0  0  0  0  3  0  0  0  0  0  0
  189.4880  177.0860  146.5400 C   0  0  0  0  0  0  0  0  0  0  0  0
  187.1180  177.2840  145.6210 C   0  0  0  0  0  2  0  0  0  0  0  0
  190.4560  174.2160  143.5850 O   0  0  0  0  0  0  0  0  0  0  0  0
  188.4440  175.4490  142.1610 O   0  0  0  0  0  0  0  0  0  0  0  0
  185.8670  179.7670  144.3130 C   0  0  0  0  0  1  0  0  0  0  0  0
  188.7300  175.6700  144.5280 C   0  0  2  0  0  3  0  0  0  0  0  0
  186.3900  177.3170  144.3130 C   0  0  2  0  0  3  0  0  0  0  0  0
  194.1530  176.3900  145.3330 C   0  0  0  0  0  1  0  0  0  0  0  0
  193.1960  176.0730  144.2820 N   0  0  0  0  0  0  0  0  0  0  0  0
  193.9380  176.1620  143.0290 C   0  0  0  0  0  2  0  0  0  0  0  0
  195.3670  175.6760  143.2280 C   0  0  0  0  0  2  0  0  0  0  0  0
  196.3370  176.5920  142.5610 C   0  0  0  0  0  0  0  0  0  0  0  0
  197.3890  176.9400  143.1570 O   0  0  0  0  0  1  0  0  0  0  0  0
  196.0950  177.0350  141.2670 O   0  0  0  0  0  0  0  0  0  0  0  0
  193.6080  172.4540  143.5030 C   0  0  0  0  0  1  0  0  0  0  0  0
  192.2640  172.7980  142.8900 C   0  0  0  0  0  2  0  0  0  0  0  0
  1 19  1  6  0  0  0
  1 22  1  0  0  0  0
  1 10  1  0  0  0  0
  3  2  1  0  0  0  0
  4  5  1  0  0  0  0
  5 15  1  6  0  0  0
  5 23  1  0  0  0  0
  6 32  1  1  0  0  0
  6 19  1  0  0  0  0
  6 14  1  0  0  0  0
  8 21  1  6  0  0  0
  8 23  1  0  0  0  0
  9  2  2  0  0  0  0
 10  7  1  6  0  0  0
 10 11  1  0  0  0  0
 11  9  1  0  0  0  0
 12 18  1  1  0  0  0
 12 17  1  0  0  0  0
 13  8  1  0  0  0  0
 14 25  1  6  0  0  0
 14  7  1  0  0  0  0
 15 13  2  0  0  0  0
 16  3  2  0  0  0  0
 17 11  2  0  0  0  0
 17 16  1  0  0  0  0
 20  4  2  0  0  0  0
 22  4  1  6  0  0  0
 22 12  1  0  0  0  0
 23 18  1  6  0  0  0
 25 24  1  0  0  0  0
 26 27  1  0  0  0  0
 26 25  1  0  0  0  0
 28 29  1  0  0  0  0
 28 27  1  0  0  0  0
 30 28  2  0  0  0  0
 32 31  1  0  0  0  0
M  END
>  <MODEL>
2

>  <REMARK>
 VINA RESULT:      -7.3      2.583      7.734
  Name = 
  5 active torsions:
  status: ('A' for Active; 'I' for Inactive)
    1  A    between atoms: C_7  and  C_19
    2  A    between atoms: N_10  and  C_17
    3  A    between atoms: N_10  and  C_20
    4  A    between atoms: C_20  and  C_29
    5  A    between atoms: C_29  and  C_30
                            x       y       z     vdW  Elec       q    Type
                         _______ _______ _______ _____ _____    ______ ____

>  <TORSDO>
F 5

$$$$
=
 OpenBabel11112416443D

 32 36  0  0  1  0  0  0  0  0999 V2000
  190.0510  175.3380  143.4100 C   0  0  1  0  0  3  0  0  0  0  0  0
  191.4020  176.5750  147.9740 C   0  0  0  0  0  3  0  0  0  0  0  0
  190.3360  177.4740  148.0370 C   0  0  0  0  0  3  0  0  0  0  0  0
  187.7280  175.9770  142.5260 C   0  0  0  0  0  0  0  0  0  0  0  0
  186.3000  176.4000  142.7790 C   0  0  2  0  0  3  0  0  0  0  0  0
  191.5890  174.3950  142.0420 C   0  0  2  0  0  3  0  0  0  0  0  0
  192.0260  174.2810  144.4810 O   0  0  0  0  0  0  0  0  0  0  0  0
  185.7900  178.4750  143.6190 C   0  0  2  0  0  3  0  0  0  0  0  0
  191.5350  175.7240  146.8760 C   0  0  0  0  0  3  0  0  0  0  0  0
  190.7150  174.8040  144.6790 C   0  0  1  0  0  3  0  0  0  0  0  0
  190.6090  175.7740  145.8240 C   0  0  0  0  0  0  0  0  0  0  0  0
  188.5230  176.7860  144.7520 C   0  0  2  0  0  3  0  0  0  0  0  0
  185.4940  178.4290  142.1990 C   0  0  0  0  0  3  0  0  0  0  0  0
  192.5800  174.6550  143.2250 C   0  0  2  0  0  3  0  0  0  0  0  0
  185.7920  177.2660  141.7170 N   0  0  0  0  0  0  0  0  0  0  0  0
  189.3950  177.5160  147.0060 C   0  0  0  0  0  3  0  0  0  0  0  0
  189.5000  176.6500  145.9070 C   0  0  0  0  0  0  0  0  0  0  0  0
  187.0770  177.0210  145.2030 C   0  0  0  0  0  2  0  0  0  0  0  0
  190.2230  174.3660  142.4200 O   0  0  0  0  0  0  0  0  0  0  0  0
  188.1410  175.8450  141.3840 O   0  0  0  0  0  0  0  0  0  0  0  0
  185.7820  179.7060  144.4570 C   0  0  0  0  0  1  0  0  0  0  0  0
  188.5880  175.6290  143.7280 C   0  0  2  0  0  3  0  0  0  0  0  0
  186.2650  177.2960  143.9760 C   0  0  2  0  0  3  0  0  0  0  0  0
  194.1740  176.1370  144.1560 C   0  0  0  0  0  1  0  0  0  0  0  0
  193.0330  176.0540  143.2550 N   0  0  0  0  0  0  0  0  0  0  0  0
  193.5410  176.4180  141.9370 C   0  0  0  0  0  2  0  0  0  0  0  0
  195.0140  176.0560  141.8220 C   0  0  0  0  0  2  0  0  0  0  0  0
  195.3640  175.6880  140.4200 C   0  0  0  0  0  0  0  0  0  0  0  0
  194.4630  175.3360  139.6150 O   0  0  0  0  0  0  0  0  0  0  0  0
  196.6830  175.7630  139.9920 O   0  0  0  0  0  1  0  0  0  0  0  0
  193.3650  172.6780  141.7430 C   0  0  0  0  0  1  0  0  0  0  0  0
  191.9580  173.0920  141.3570 C   0  0  0  0  0  2  0  0  0  0  0  0
  1 19  1  6  0  0  0
  1 22  1  0  0  0  0
  1 10  1  0  0  0  0
  2  3  1  0  0  0  0
  4  5  1  0  0  0  0
  5 15  1  6  0  0  0
  5 23  1  0  0  0  0
  6 32  1  1  0  0  0
  6 19  1  0  0  0  0
  6 14  1  0  0  0  0
  8 23  1  0  0  0  0
  8 21  1  6  0  0  0
  9  2  2  0  0  0  0
 10  7  1  6  0  0  0
 10 11  1  0  0  0  0
 11 17  2  0  0  0  0
 11  9  1  0  0  0  0
 12 18  1  1  0  0  0
 12 17  1  0  0  0  0
 13  8  1  0  0  0  0
 14 25  1  1  0  0  0
 14  7  1  0  0  0  0
 15 13  2  0  0  0  0
 16  3  2  0  0  0  0
 17 16  1  0  0  0  0
 20  4  2  0  0  0  0
 22  4  1  6  0  0  0
 22 12  1  0  0  0  0
 23 18  1  6  0  0  0
 25 24  1  0  0  0  0
 26 25  1  0  0  0  0
 27 26  1  0  0  0  0
 28 27  1  0  0  0  0
 29 28  2  0  0  0  0
 30 28  1  0  0  0  0
 32 31  1  0  0  0  0
M  END
>  <MODEL>
3

>  <REMARK>
 VINA RESULT:      -7.2      2.755      7.544
  Name = 
  5 active torsions:
  status: ('A' for Active; 'I' for Inactive)
    1  A    between atoms: C_7  and  C_19
    2  A    between atoms: N_10  and  C_17
    3  A    between atoms: N_10  and  C_20
    4  A    between atoms: C_20  and  C_29
    5  A    between atoms: C_29  and  C_30
                            x       y       z     vdW  Elec       q    Type
                         _______ _______ _______ _____ _____    ______ ____

>  <TORSDO>
F 5

$$$$
=
 OpenBabel11112416443D

 32 36  0  0  1  0  0  0  0  0999 V2000
  189.4560  175.9050  142.9700 C   0  0  1  0  0  3  0  0  0  0  0  0
  192.5300  176.1390  146.8030 C   0  0  0  0  0  3  0  0  0  0  0  0
  193.0020  174.8640  146.4910 C   0  0  0  0  0  3  0  0  0  0  0  0
  189.7810  174.1220  141.1540 C   0  0  0  0  0  0  0  0  0  0  0  0
  190.6580  173.1160  140.4460 C   0  0  2  0  0  3  0  0  0  0  0  0
  187.6360  177.2520  142.9570 C   0  0  2  0  0  3  0  0  0  0  0  0
  189.5200  177.9150  144.4280 O   0  0  0  0  0  0  0  0  0  0  0  0
  191.3670  171.1960  141.4850 C   0  0  2  0  0  3  0  0  0  0  0  0
  191.6310  176.7800  145.9480 C   0  0  0  0  0  3  0  0  0  0  0  0
  190.2790  176.8700  143.8250 C   0  0  1  0  0  3  0  0  0  0  0  0
  191.1880  176.1450  144.7800 C   0  0  0  0  0  0  0  0  0  0  0  0
  191.1850  174.1210  143.2200 C   0  0  2  0  0  3  0  0  0  0  0  0
  190.3050  170.8870  140.5450 C   0  0  0  0  0  3  0  0  0  0  0  0
  188.1190  177.6670  144.3860 C   0  0  2  0  0  3  0  0  0  0  0  0
  189.8920  171.9670  139.9660 N   0  0  0  0  0  0  0  0  0  0  0  0
  192.5840  174.2300  145.3180 C   0  0  0  0  0  3  0  0  0  0  0  0
  191.7020  174.8710  144.4350 C   0  0  0  0  0  0  0  0  0  0  0  0
  192.2650  173.3000  142.5080 C   0  0  0  0  0  2  0  0  0  0  0  0
  188.6460  176.6860  142.1400 O   0  0  0  0  0  0  0  0  0  0  0  0
  188.6130  174.2640  140.8250 O   0  0  0  0  0  0  0  0  0  0  0  0
  191.9320  170.2450  142.4830 C   0  0  0  0  0  1  0  0  0  0  0  0
  190.4230  175.0070  142.2060 C   0  0  2  0  0  3  0  0  0  0  0  0
  191.5860  172.4970  141.4420 C   0  0  2  0  0  3  0  0  0  0  0  0
  188.1730  177.1640  146.6980 C   0  0  0  0  0  1  0  0  0  0  0  0
  187.7400  176.6710  145.3980 N   0  0  0  0  0  0  0  0  0  0  0  0
  186.2840  176.5940  145.4690 C   0  0  0  0  0  2  0  0  0  0  0  0
  185.7640  177.4880  146.5850 C   0  0  0  0  0  2  0  0  0  0  0  0
  184.9420  178.6040  146.0340 C   0  0  0  0  0  0  0  0  0  0  0  0
  183.6890  178.5820  146.1460 O   0  0  0  0  0  1  0  0  0  0  0  0
  185.5640  179.6860  145.4250 O   0  0  0  0  0  0  0  0  0  0  0  0
  185.5230  178.3110  142.1790 C   0  0  0  0  0  1  0  0  0  0  0  0
  187.0310  178.4570  142.2620 C   0  0  0  0  0  2  0  0  0  0  0  0
  1 19  1  6  0  0  0
  1 10  1  0  0  0  0
  3  2  1  0  0  0  0
  5 15  1  1  0  0  0
  5  4  1  0  0  0  0
  5 23  1  0  0  0  0
  6 32  1  6  0  0  0
  6 14  1  0  0  0  0
  8 21  1  1  0  0  0
  9  2  2  0  0  0  0
 10  7  1  1  0  0  0
 10 11  1  0  0  0  0
 11  9  1  0  0  0  0
 12 18  1  6  0  0  0
 12 17  1  0  0  0  0
 13  8  1  0  0  0  0
 14  7  1  0  0  0  0
 14 25  1  1  0  0  0
 15 13  2  0  0  0  0
 16  3  2  0  0  0  0
 17 11  2  0  0  0  0
 17 16  1  0  0  0  0
 19  6  1  0  0  0  0
 20  4  2  0  0  0  0
 22  4  1  6  0  0  0
 22  1  1  0  0  0  0
 22 12  1  0  0  0  0
 23  8  1  0  0  0  0
 23 18  1  1  0  0  0
 25 26  1  0  0  0  0
 25 24  1  0  0  0  0
 26 27  1  0  0  0  0
 28 29  1  0  0  0  0
 28 27  1  0  0  0  0
 30 28  2  0  0  0  0
 31 32  1  0  0  0  0
M  END
>  <MODEL>
4

>  <REMARK>
 VINA RESULT:      -7.1      2.042      4.959
  Name = 
  5 active torsions:
  status: ('A' for Active; 'I' for Inactive)
    1  A    between atoms: C_7  and  C_19
    2  A    between atoms: N_10  and  C_17
    3  A    between atoms: N_10  and  C_20
    4  A    between atoms: C_20  and  C_29
    5  A    between atoms: C_29  and  C_30
                            x       y       z     vdW  Elec       q    Type
                         _______ _______ _______ _____ _____    ______ ____

>  <TORSDO>
F 5

$$$$
=
 OpenBabel11112416443D

 32 36  0  0  1  0  0  0  0  0999 V2000
  190.8190  175.4950  143.5990 C   0  0  1  0  0  3  0  0  0  0  0  0
  189.8810  173.1260  139.3920 C   0  0  0  0  0  3  0  0  0  0  0  0
  191.2200  173.2650  139.0250 C   0  0  0  0  0  3  0  0  0  0  0  0
  193.2380  175.8260  144.3900 C   0  0  0  0  0  0  0  0  0  0  0  0
  194.6970  175.4380  144.3430 C   0  0  2  0  0  3  0  0  0  0  0  0
  189.0980  176.4710  144.7000 C   0  0  2  0  0  3  0  0  0  0  0  0
  188.5310  174.6770  143.0840 O   0  0  0  0  0  0  0  0  0  0  0  0
  195.9850  175.8230  142.4810 C   0  0  2  0  0  3  0  0  0  0  0  0
  189.4600  173.5210  140.6630 C   0  0  0  0  0  3  0  0  0  0  0  0
  189.9290  174.4250  142.9670 C   0  0  1  0  0  3  0  0  0  0  0  0
  190.3730  174.0710  141.5730 C   0  0  0  0  0  0  0  0  0  0  0  0
  192.7430  174.8290  142.1530 C   0  0  2  0  0  3  0  0  0  0  0  0
  196.3050  176.7910  143.5130 C   0  0  0  0  0  3  0  0  0  0  0  0
  188.2490  176.0190  143.4660 C   0  0  2  0  0  3  0  0  0  0  0  0
  195.5740  176.5880  144.5610 N   0  0  0  0  0  0  0  0  0  0  0  0
  192.1430  173.7910  139.9320 C   0  0  0  0  0  3  0  0  0  0  0  0
  191.7420  174.1680  141.2220 C   0  0  0  0  0  0  0  0  0  0  0  0
  194.1300  174.1780  142.1160 C   0  0  0  0  0  2  0  0  0  0  0  0
  190.3060  175.7500  144.8740 O   0  0  0  0  0  0  0  0  0  0  0  0
  192.8650  176.7490  145.0980 O   0  0  0  0  0  0  0  0  0  0  0  0
  196.4640  175.8820  141.0720 C   0  0  0  0  0  1  0  0  0  0  0  0
  192.2520  174.9730  143.6130 C   0  0  2  0  0  3  0  0  0  0  0  0
  195.0430  175.0240  142.9480 C   0  0  2  0  0  3  0  0  0  0  0  0
  187.4370  176.5730  141.3130 C   0  0  0  0  0  1  0  0  0  0  0  0
  188.4210  176.9300  142.3260 N   0  0  0  0  0  0  0  0  0  0  0  0
  188.0850  178.2860  142.7450 C   0  0  0  0  0  2  0  0  0  0  0  0
  186.6390  178.6030  142.3910 C   0  0  0  0  0  2  0  0  0  0  0  0
  185.8500  178.9240  143.6160 C   0  0  0  0  0  0  0  0  0  0  0  0
  185.5660  180.1190  143.8890 O   0  0  0  0  0  0  0  0  0  0  0  0
  185.4010  177.9000  144.4390 O   0  0  0  0  0  1  0  0  0  0  0  0
  188.8310  175.3160  146.8880 C   0  0  0  0  0  1  0  0  0  0  0  0
  188.2540  176.3650  145.9570 C   0  0  0  0  0  2  0  0  0  0  0  0
  1 22  1  0  0  0  0
  1 19  1  1  0  0  0
  2  9  1  0  0  0  0
  3  2  2  0  0  0  0
  3 16  1  0  0  0  0
  4 20  2  0  0  0  0
  5  4  1  6  0  0  0
  5 15  1  0  0  0  0
  6 19  1  0  0  0  0
  6 32  1  1  0  0  0
  7 14  1  0  0  0  0
  8 21  1  6  0  0  0
  8 23  1  0  0  0  0
  8 13  1  0  0  0  0
  9 11  2  0  0  0  0
 10 11  1  6  0  0  0
 10  7  1  0  0  0  0
 10  1  1  0  0  0  0
 12 18  1  1  0  0  0
 12 22  1  0  0  0  0
 13 15  2  0  0  0  0
 14 25  1  6  0  0  0
 14  6  1  0  0  0  0
 16 17  2  0  0  0  0
 17 11  1  0  0  0  0
 17 12  1  0  0  0  0
 22  4  1  1  0  0  0
 23 18  1  6  0  0  0
 23  5  1  0  0  0  0
 24 25  1  0  0  0  0
 25 26  1  0  0  0  0
 27 26  1  0  0  0  0
 27 28  1  0  0  0  0
 28 29  2  0  0  0  0
 28 30  1  0  0  0  0
 32 31  1  0  0  0  0
M  END
>  <MODEL>
5

>  <REMARK>
 VINA RESULT:      -6.8      1.469      1.915
  Name = 
  5 active torsions:
  status: ('A' for Active; 'I' for Inactive)
    1  A    between atoms: C_7  and  C_19
    2  A    between atoms: N_10  and  C_17
    3  A    between atoms: N_10  and  C_20
    4  A    between atoms: C_20  and  C_29
    5  A    between atoms: C_29  and  C_30
                            x       y       z     vdW  Elec       q    Type
                         _______ _______ _______ _____ _____    ______ ____

>  <TORSDO>
F 5

$$$$
=
 OpenBabel11112416443D

 32 36  0  0  1  0  0  0  0  0999 V2000
  188.6530  176.4140  143.8970 C   0  0  1  0  0  3  0  0  0  0  0  0
  186.2690  177.5410  139.7460 C   0  0  0  0  0  3  0  0  0  0  0  0
  185.2130  178.0540  140.5010 C   0  0  0  0  0  3  0  0  0  0  0  0
  187.9090  177.4240  146.1360 C   0  0  0  0  0  0  0  0  0  0  0  0
  187.1630  178.4840  146.9130 C   0  0  2  0  0  3  0  0  0  0  0  0
  190.2680  174.8280  143.8240 C   0  0  2  0  0  3  0  0  0  0  0  0
  189.6560  175.9170  141.6800 O   0  0  0  0  0  0  0  0  0  0  0  0
  184.8700  178.6040  146.8860 C   0  0  2  0  0  3  0  0  0  0  0  0
  187.4410  177.1230  140.3770 C   0  0  0  0  0  3  0  0  0  0  0  0
  188.8570  176.8220  142.4380 C   0  0  1  0  0  3  0  0  0  0  0  0
  187.5640  177.2030  141.7710 C   0  0  0  0  0  0  0  0  0  0  0  0
  186.5810  177.7990  144.0530 C   0  0  2  0  0  3  0  0  0  0  0  0
  185.3220  178.0400  148.1450 C   0  0  0  0  0  3  0  0  0  0  0  0
  189.8270  174.6630  142.3310 C   0  0  2  0  0  3  0  0  0  0  0  0
  186.6130  177.9570  148.1610 N   0  0  0  0  0  0  0  0  0  0  0  0
  185.3330  178.1590  141.8890 C   0  0  0  0  0  3  0  0  0  0  0  0
  186.5150  177.7690  142.5360 C   0  0  0  0  0  0  0  0  0  0  0  0
  185.9410  179.0490  144.6650 C   0  0  0  0  0  2  0  0  0  0  0  0
  189.9100  176.0710  144.4040 O   0  0  0  0  0  0  0  0  0  0  0  0
  188.4840  176.5180  146.7200 O   0  0  0  0  0  0  0  0  0  0  0  0
  183.4540  178.6470  146.4250 C   0  0  0  0  0  1  0  0  0  0  0  0
  188.0000  177.5820  144.6290 C   0  0  2  0  0  3  0  0  0  0  0  0
  185.9340  178.8670  146.1510 C   0  0  2  0  0  3  0  0  0  0  0  0
  188.3210  173.6770  140.7950 C   0  0  0  0  0  1  0  0  0  0  0  0
  188.6100  173.8480  142.2120 N   0  0  0  0  0  0  0  0  0  0  0  0
  188.8810  172.5090  142.7260 C   0  0  0  0  0  2  0  0  0  0  0  0
  189.6790  171.7070  141.7080 C   0  0  0  0  0  2  0  0  0  0  0  0
  190.6350  170.7850  142.3880 C   0  0  0  0  0  0  0  0  0  0  0  0
  190.8340  169.6310  141.9290 O   0  0  0  0  0  0  0  0  0  0  0  0
  191.3290  171.2130  143.5120 O   0  0  0  0  0  1  0  0  0  0  0  0
  192.4310  175.8930  144.4380 C   0  0  0  0  0  1  0  0  0  0  0  0
  191.7680  174.6270  143.9290 C   0  0  0  0  0  2  0  0  0  0  0  0
  1 19  1  1  0  0  0
  1 22  1  0  0  0  0
  2  9  2  0  0  0  0
  2  3  1  0  0  0  0
  3 16  2  0  0  0  0
  4 20  2  0  0  0  0
  5  4  1  6  0  0  0
  5 15  1  0  0  0  0
  6 32  1  6  0  0  0
  6 19  1  0  0  0  0
  7 14  1  0  0  0  0
  8 21  1  6  0  0  0
  8 13  1  0  0  0  0
  9 11  1  0  0  0  0
 10  7  1  6  0  0  0
 10  1  1  0  0  0  0
 11 10  1  0  0  0  0
 11 17  2  0  0  0  0
 12 22  1  0  0  0  0
 12 18  1  6  0  0  0
 13 15  2  0  0  0  0
 14 25  1  1  0  0  0
 14  6  1  0  0  0  0
 16 17  1  0  0  0  0
 17 12  1  0  0  0  0
 22  4  1  1  0  0  0
 23 18  1  6  0  0  0
 23  8  1  0  0  0  0
 23  5  1  0  0  0  0
 24 25  1  0  0  0  0
 25 26  1  0  0  0  0
 27 28  1  0  0  0  0
 27 26  1  0  0  0  0
 28 30  1  0  0  0  0
 29 28  2  0  0  0  0
 32 31  1  0  0  0  0
M  END
>  <MODEL>
6

>  <REMARK>
 VINA RESULT:      -6.8      2.630      6.776
  Name = 
  5 active torsions:
  status: ('A' for Active; 'I' for Inactive)
    1  A    between atoms: C_7  and  C_19
    2  A    between atoms: N_10  and  C_17
    3  A    between atoms: N_10  and  C_20
    4  A    between atoms: C_20  and  C_29
    5  A    between atoms: C_29  and  C_30
                            x       y       z     vdW  Elec       q    Type
                         _______ _______ _______ _____ _____    ______ ____

>  <TORSDO>
F 5

$$$$
=
 OpenBabel11112416443D

 32 36  0  0  1  0  0  0  0  0999 V2000
  191.2400  175.7010  144.6690 C   0  0  1  0  0  3  0  0  0  0  0  0
  189.6920  171.8190  142.0760 C   0  0  0  0  0  3  0  0  0  0  0  0
  190.9340  171.7580  141.4420 C   0  0  0  0  0  3  0  0  0  0  0  0
  193.7400  176.2690  144.7870 C   0  0  0  0  0  0  0  0  0  0  0  0
  195.1870  175.8590  144.6340 C   0  0  2  0  0  3  0  0  0  0  0  0
  189.6950  177.0910  145.5660 C   0  0  2  0  0  3  0  0  0  0  0  0
  188.9450  174.8020  144.9740 O   0  0  0  0  0  0  0  0  0  0  0  0
  196.0960  175.4000  142.5760 C   0  0  2  0  0  3  0  0  0  0  0  0
  189.4850  172.7190  143.1220 C   0  0  0  0  0  3  0  0  0  0  0  0
  190.3110  174.4880  144.7140 C   0  0  1  0  0  3  0  0  0  0  0  0
  190.5160  173.5740  143.5370 C   0  0  0  0  0  0  0  0  0  0  0  0
  192.9060  174.4440  143.2980 C   0  0  2  0  0  3  0  0  0  0  0  0
  196.5430  176.7010  143.0360 C   0  0  0  0  0  3  0  0  0  0  0  0
  188.6630  176.1880  144.8120 C   0  0  2  0  0  3  0  0  0  0  0  0
  196.0240  176.9720  144.1890 N   0  0  0  0  0  0  0  0  0  0  0  0
  191.9750  172.5900  141.8610 C   0  0  0  0  0  3  0  0  0  0  0  0
  191.7920  173.4810  142.9290 C   0  0  0  0  0  0  0  0  0  0  0  0
  194.2980  173.8010  143.2770 C   0  0  0  0  0  2  0  0  0  0  0  0
  190.9520  176.4780  145.7950 O   0  0  0  0  0  0  0  0  0  0  0  0
  193.4510  177.4120  145.1050 O   0  0  0  0  0  0  0  0  0  0  0  0
  196.3100  174.8540  141.2070 C   0  0  0  0  0  1  0  0  0  0  0  0
  192.6790  175.1950  144.6310 C   0  0  2  0  0  3  0  0  0  0  0  0
  195.2980  174.8930  143.4980 C   0  0  2  0  0  3  0  0  0  0  0  0
  187.5350  175.7160  142.7860 C   0  0  0  0  0  1  0  0  0  0  0  0
  188.5780  176.5360  143.3860 N   0  0  0  0  0  0  0  0  0  0  0  0
  188.1210  177.9150  143.2600 C   0  0  0  0  0  2  0  0  0  0  0  0
  186.6950  177.9510  142.7300 C   0  0  0  0  0  2  0  0  0  0  0  0
  185.7700  178.5560  143.7320 C   0  0  0  0  0  0  0  0  0  0  0  0
  185.0520  177.8190  144.4560 O   0  0  0  0  0  1  0  0  0  0  0  0
  185.7260  179.9350  143.8880 O   0  0  0  0  0  0  0  0  0  0  0  0
  187.5880  177.3900  146.8560 C   0  0  0  0  0  1  0  0  0  0  0  0
  189.0970  177.5400  146.8870 C   0  0  0  0  0  2  0  0  0  0  0  0
  1 10  1  0  0  0  0
  1 19  1  1  0  0  0
  2  9  1  0  0  0  0
  3 16  1  0  0  0  0
  3  2  2  0  0  0  0
  4 20  2  0  0  0  0
  5 15  1  6  0  0  0
  5  4  1  0  0  0  0
  6 19  1  0  0  0  0
  6 32  1  1  0  0  0
  8 21  1  6  0  0  0
  8 13  1  0  0  0  0
  8 23  1  0  0  0  0
  9 11  2  0  0  0  0
 10 11  1  6  0  0  0
 10  7  1  0  0  0  0
 12 18  1  1  0  0  0
 12 22  1  0  0  0  0
 13 15  2  0  0  0  0
 14 25  1  6  0  0  0
 14  7  1  0  0  0  0
 14  6  1  0  0  0  0
 16 17  2  0  0  0  0
 17 12  1  0  0  0  0
 17 11  1  0  0  0  0
 22  1  1  0  0  0  0
 22  4  1  6  0  0  0
 23 18  1  6  0  0  0
 23  5  1  0  0  0  0
 24 25  1  0  0  0  0
 26 25  1  0  0  0  0
 27 26  1  0  0  0  0
 27 28  1  0  0  0  0
 28 30  2  0  0  0  0
 28 29  1  0  0  0  0
 31 32  1  0  0  0  0
M  END
>  <MODEL>
7

>  <REMARK>
 VINA RESULT:      -6.5      1.740      2.338
  Name = 
  5 active torsions:
  status: ('A' for Active; 'I' for Inactive)
    1  A    between atoms: C_7  and  C_19
    2  A    between atoms: N_10  and  C_17
    3  A    between atoms: N_10  and  C_20
    4  A    between atoms: C_20  and  C_29
    5  A    between atoms: C_29  and  C_30
                            x       y       z     vdW  Elec       q    Type
                         _______ _______ _______ _____ _____    ______ ____

>  <TORSDO>
F 5

$$$$
=
 OpenBabel11112416443D

 32 36  0  0  1  0  0  0  0  0999 V2000
  192.6270  173.6450  144.2200 C   0  0  1  0  0  3  0  0  0  0  0  0
  189.9540  177.3920  145.9540 C   0  0  0  0  0  3  0  0  0  0  0  0
  189.0880  177.2670  144.8660 C   0  0  0  0  0  3  0  0  0  0  0  0
  191.6760  172.1050  142.4010 C   0  0  0  0  0  0  0  0  0  0  0  0
  190.4950  171.5470  141.6420 C   0  0  2  0  0  3  0  0  0  0  0  0
  194.7780  173.4440  144.8970 C   0  0  2  0  0  3  0  0  0  0  0  0
  193.2670  174.7960  146.3260 O   0  0  0  0  0  0  0  0  0  0  0  0
  189.2580  172.8500  140.2130 C   0  0  2  0  0  3  0  0  0  0  0  0
  190.9720  176.4570  146.1480 C   0  0  0  0  0  3  0  0  0  0  0  0
  192.1910  174.3490  145.5050 C   0  0  1  0  0  3  0  0  0  0  0  0
  191.1410  175.3950  145.2490 C   0  0  0  0  0  0  0  0  0  0  0  0
  190.4340  174.1450  143.1360 C   0  0  2  0  0  3  0  0  0  0  0  0
  190.1260  171.9690  139.4540 C   0  0  0  0  0  3  0  0  0  0  0  0
  194.5140  174.7960  145.6390 C   0  0  2  0  0  3  0  0  0  0  0  0
  190.8360  171.2410  140.2540 N   0  0  0  0  0  0  0  0  0  0  0  0
  189.2330  176.2000  143.9760 C   0  0  0  0  0  3  0  0  0  0  0  0
  190.2340  175.2360  144.1730 C   0  0  0  0  0  0  0  0  0  0  0  0
  189.1200  173.5540  142.6140 C   0  0  0  0  0  2  0  0  0  0  0  0
  193.6060  172.7140  144.5780 O   0  0  0  0  0  0  0  0  0  0  0  0
  192.8130  171.7630  142.1150 O   0  0  0  0  0  0  0  0  0  0  0  0
  188.4650  173.9740  139.6410 C   0  0  0  0  0  1  0  0  0  0  0  0
  191.3930  173.0160  143.5820 C   0  0  2  0  0  3  0  0  0  0  0  0
  189.4620  172.6190  141.4970 C   0  0  2  0  0  3  0  0  0  0  0  0
  194.6460  177.1560  145.5270 C   0  0  0  0  0  1  0  0  0  0  0  0
  194.6000  175.9430  144.7240 N   0  0  0  0  0  0  0  0  0  0  0  0
  195.8740  175.8900  144.0130 C   0  0  0  0  0  2  0  0  0  0  0  0
  195.6890  176.3290  142.5680 C   0  0  0  0  0  2  0  0  0  0  0  0
  194.6590  175.4930  141.8850 C   0  0  0  0  0  0  0  0  0  0  0  0
  194.9530  174.3410  141.4730 O   0  0  0  0  0  0  0  0  0  0  0  0
  193.3660  175.9750  141.7340 O   0  0  0  0  0  1  0  0  0  0  0  0
  196.9470  173.3670  146.1140 C   0  0  0  0  0  1  0  0  0  0  0  0
  195.7040  172.5840  145.7370 C   0  0  0  0  0  2  0  0  0  0  0  0
  1 19  1  1  0  0  0
  1 10  1  0  0  0  0
  2  9  1  0  0  0  0
  3  2  2  0  0  0  0
  5 15  1  6  0  0  0
  5  4  1  0  0  0  0
  6 14  1  0  0  0  0
  6 32  1  1  0  0  0
  8 21  1  1  0  0  0
  8 23  1  0  0  0  0
 10 11  1  6  0  0  0
 10  7  1  0  0  0  0
 11  9  2  0  0  0  0
 12 18  1  1  0  0  0
 12 22  1  0  0  0  0
 12 17  1  0  0  0  0
 13  8  1  0  0  0  0
 13 15  2  0  0  0  0
 14 25  1  6  0  0  0
 14  7  1  0  0  0  0
 16 17  2  0  0  0  0
 16  3  1  0  0  0  0
 17 11  1  0  0  0  0
 19  6  1  0  0  0  0
 20  4  2  0  0  0  0
 22  4  1  6  0  0  0
 22  1  1  0  0  0  0
 23  5  1  0  0  0  0
 23 18  1  1  0  0  0
 25 24  1  0  0  0  0
 26 25  1  0  0  0  0
 27 26  1  0  0  0  0
 28 27  1  0  0  0  0
 29 28  2  0  0  0  0
 30 28  1  0  0  0  0
 32 31  1  0  0  0  0
M  END
>  <MODEL>
8

>  <REMARK>
 VINA RESULT:      -6.4      3.675      7.503
  Name = 
  5 active torsions:
  status: ('A' for Active; 'I' for Inactive)
    1  A    between atoms: C_7  and  C_19
    2  A    between atoms: N_10  and  C_17
    3  A    between atoms: N_10  and  C_20
    4  A    between atoms: C_20  and  C_29
    5  A    between atoms: C_29  and  C_30
                            x       y       z     vdW  Elec       q    Type
                         _______ _______ _______ _____ _____    ______ ____

>  <TORSDO>
F 5

$$$$
=
 OpenBabel11112416443D

 32 36  0  0  1  0  0  0  0  0999 V2000
  191.3120  175.0270  143.5630 C   0  0  1  0  0  3  0  0  0  0  0  0
  190.7690  171.5410  140.1370 C   0  0  0  0  0  3  0  0  0  0  0  0
  192.1050  171.7040  139.7710 C   0  0  0  0  0  3  0  0  0  0  0  0
  193.6560  175.7870  144.2800 C   0  0  0  0  0  0  0  0  0  0  0  0
  195.1440  175.5430  144.3670 C   0  0  2  0  0  3  0  0  0  0  0  0
  189.4660  176.0920  144.3280 C   0  0  2  0  0  3  0  0  0  0  0  0
  189.1290  173.8860  143.2460 O   0  0  0  0  0  0  0  0  0  0  0  0
  196.4730  175.5370  142.4950 C   0  0  2  0  0  3  0  0  0  0  0  0
  190.2600  172.2190  141.2450 C   0  0  0  0  0  3  0  0  0  0  0  0
  190.5470  173.7460  143.2280 C   0  0  1  0  0  3  0  0  0  0  0  0
  191.0810  173.0770  141.9900 C   0  0  0  0  0  0  0  0  0  0  0  0
  193.3480  174.1860  142.3870 C   0  0  2  0  0  3  0  0  0  0  0  0
  196.6620  176.7720  143.2330 C   0  0  0  0  0  3  0  0  0  0  0  0
  188.7140  175.2470  143.2470 C   0  0  2  0  0  3  0  0  0  0  0  0
  195.9060  176.7870  144.2820 N   0  0  0  0  0  0  0  0  0  0  0  0
  192.9390  172.5390  140.5190 C   0  0  0  0  0  3  0  0  0  0  0  0
  192.4500  173.2070  141.6510 C   0  0  0  0  0  0  0  0  0  0  0  0
  194.7860  173.6850  142.5540 C   0  0  0  0  0  2  0  0  0  0  0  0
  190.7240  175.5630  144.7130 O   0  0  0  0  0  0  0  0  0  0  0  0
  193.1740  176.8260  144.7060 O   0  0  0  0  0  0  0  0  0  0  0  0
  197.0070  175.2630  141.1310 C   0  0  0  0  0  1  0  0  0  0  0  0
  192.7830  174.6670  143.7450 C   0  0  2  0  0  3  0  0  0  0  0  0
  195.5850  174.8060  143.1420 C   0  0  2  0  0  3  0  0  0  0  0  0
  188.0220  175.0650  140.9910 C   0  0  0  0  0  1  0  0  0  0  0  0
  188.8560  175.8320  141.9060 N   0  0  0  0  0  0  0  0  0  0  0  0
  188.2990  177.1810  141.9140 C   0  0  0  0  0  2  0  0  0  0  0  0
  187.2090  177.3060  140.8590 C   0  0  0  0  0  2  0  0  0  0  0  0
  186.1260  178.2220  141.3210 C   0  0  0  0  0  0  0  0  0  0  0  0
  185.0920  178.3810  140.6210 O   0  0  0  0  0  0  0  0  0  0  0  0
  186.2440  178.8750  142.5400 O   0  0  0  0  0  1  0  0  0  0  0  0
  189.0490  175.3190  146.6560 C   0  0  0  0  0  1  0  0  0  0  0  0
  188.5800  176.2460  145.5510 C   0  0  0  0  0  2  0  0  0  0  0  0
  1 22  1  0  0  0  0
  1 19  1  1  0  0  0
  2  9  1  0  0  0  0
  3  2  2  0  0  0  0
  3 16  1  0  0  0  0
  4 20  2  0  0  0  0
  5  4  1  6  0  0  0
  6 19  1  0  0  0  0
  6 32  1  1  0  0  0
  7 14  1  0  0  0  0
  8 21  1  6  0  0  0
  8 23  1  0  0  0  0
  8 13  1  0  0  0  0
  9 11  2  0  0  0  0
 10 11  1  6  0  0  0
 10  7  1  0  0  0  0
 10  1  1  0  0  0  0
 12 18  1  1  0  0  0
 12 22  1  0  0  0  0
 13 15  2  0  0  0  0
 14 25  1  6  0  0  0
 14  6  1  0  0  0  0
 15  5  1  0  0  0  0
 16 17  2  0  0  0  0
 17 11  1  0  0  0  0
 17 12  1  0  0  0  0
 22  4  1  6  0  0  0
 23 18  1  6  0  0  0
 23  5  1  0  0  0  0
 24 25  1  0  0  0  0
 25 26  1  0  0  0  0
 27 28  1  0  0  0  0
 27 26  1  0  0  0  0
 28 30  1  0  0  0  0
 29 28  2  0  0  0  0
 32 31  1  0  0  0  0
M  END
>  <MODEL>
9

>  <REMARK>
 VINA RESULT:      -6.3      1.865      2.423
  Name = 
  5 active torsions:
  status: ('A' for Active; 'I' for Inactive)
    1  A    between atoms: C_7  and  C_19
    2  A    between atoms: N_10  and  C_17
    3  A    between atoms: N_10  and  C_20
    4  A    between atoms: C_20  and  C_29
    5  A    between atoms: C_29  and  C_30
                            x       y       z     vdW  Elec       q    Type
                         _______ _______ _______ _____ _____    ______ ____

>  <TORSDO>
F 5

$$$$
